
 OpenBabel03242514183D

 35 37  0  0  0  0  0  0  0  0999 V2000
   37.7980   31.2910   40.1810 C   0  0  0  0  0  0  0  0  0  0  0  0
   38.9960   31.1270   40.8700 C   0  0  0  0  0  0  0  0  0  0  0  0
   39.7050   32.2760   41.1180 C   0  0  0  0  0  0  0  0  0  0  0  0
   39.2190   33.4760   40.6920 N   0  0  0  0  0  0  0  0  0  0  0  0
   38.0690   33.6000   40.0340 C   0  0  0  0  0  0  0  0  0  0  0  0
   37.3870   32.5090   39.7940 N   0  0  0  0  0  0  0  0  0  0  0  0
   40.6410   32.4600   41.6110 H   0  0  0  0  0  0  0  0  0  0  0  0
   37.6470   34.5280   39.6790 H   0  0  0  0  0  0  0  0  0  0  0  0
   37.0820   30.0340   39.8930 C   0  0  0  0  0  0  0  0  0  0  0  0
   37.0540   29.6280   38.4960 C   0  0  0  0  0  0  0  0  0  0  0  0
   35.7190   29.6730   37.8940 C   0  0  0  0  0  0  0  0  0  0  0  0
   34.7120   28.8240   38.6700 C   0  0  0  0  0  0  0  0  0  0  0  0
   34.8500   28.9640   40.1400 C   0  0  0  0  0  0  0  0  0  0  0  0
   35.6970   30.1570   40.5040 C   0  0  0  0  0  0  0  0  0  0  0  0
   37.5120   29.2020   40.4820 H   0  0  0  0  0  0  0  0  0  0  0  0
   37.7170   30.3180   37.9130 H   0  0  0  0  0  0  0  0  0  0  0  0
   37.4930   28.6150   38.2850 H   0  0  0  0  0  0  0  0  0  0  0  0
   35.7530   29.2530   36.8660 H   0  0  0  0  0  0  0  0  0  0  0  0
   35.3760   30.7200   37.8010 H   0  0  0  0  0  0  0  0  0  0  0  0
   33.7080   29.1870   38.3660 H   0  0  0  0  0  0  0  0  0  0  0  0
   34.7550   27.7680   38.3140 H   0  0  0  0  0  0  0  0  0  0  0  0
   33.9270   28.9350   40.7240 H   0  0  0  0  0  0  0  0  0  0  0  0
   35.4460   28.0730   40.4960 H   0  0  0  0  0  0  0  0  0  0  0  0
   35.2120   31.1100   40.2300 H   0  0  0  0  0  0  0  0  0  0  0  0
   35.8210   30.1770   41.6010 H   0  0  0  0  0  0  0  0  0  0  0  0
   39.6240   30.0750   41.3610 O   0  0  0  0  0  0  0  0  0  0  0  0
   39.6010   29.4240   42.5590 C   0  0  0  0  0  0  0  0  0  0  0  0
   40.2790   29.9610   43.2890 H   0  0  0  0  0  0  0  0  0  0  0  0
   40.1140   28.4220   42.4540 H   0  0  0  0  0  0  0  0  0  0  0  0
   38.2960   29.3020   43.2470 C   0  0  0  0  0  0  0  0  0  0  0  0
   37.5100   29.9060   42.6940 H   0  0  0  0  0  0  0  0  0  0  0  0
   38.2920   29.7700   44.2610 H   0  0  0  0  0  0  0  0  0  0  0  0
   37.8640   27.8890   43.4290 C   0  0  0  0  0  3  0  0  0  0  0  0
   37.4240   27.1350   42.1770 C   0  0  0  0  0  2  0  0  0  0  0  0
   36.4920   27.3880   43.3850 C   0  0  0  0  0  2  0  0  0  0  0  0
  1  2  1  0  0  0  0
  2  3  2  0  0  0  0
  2 26  1  0  0  0  0
  3  7  1  0  0  0  0
  4  3  1  0  0  0  0
  5  4  2  0  0  0  0
  6  5  1  0  0  0  0
  6  1  2  0  0  0  0
  8  5  1  0  0  0  0
  9  1  1  0  0  0  0
  9 15  1  0  0  0  0
  9 14  1  0  0  0  0
 10  9  1  0  0  0  0
 11 10  1  0  0  0  0
 11 12  1  0  0  0  0
 12 13  1  0  0  0  0
 13 23  1  0  0  0  0
 13 14  1  0  0  0  0
 13 22  1  0  0  0  0
 14 25  1  0  0  0  0
 16 10  1  0  0  0  0
 17 10  1  0  0  0  0
 18 11  1  0  0  0  0
 19 11  1  0  0  0  0
 20 12  1  0  0  0  0
 21 12  1  0  0  0  0
 24 14  1  0  0  0  0
 26 27  1  0  0  0  0
 27 30  1  0  0  0  0
 27 28  1  0  0  0  0
 29 27  1  0  0  0  0
 30 33  1  0  0  0  0
 30 32  1  0  0  0  0
 31 30  1  0  0  0  0
 34 35  1  0  0  0  0
 34 33  1  0  0  0  0
 35 33  1  0  0  0  0
M  END
>  <minimizedAffinity>
-4.81908846

$$$$

 OpenBabel03242514183D

 35 37  0  0  0  0  0  0  0  0999 V2000
   38.2740   27.8030   41.8210 C   0  0  0  0  0  0  0  0  0  0  0  0
   37.8620   29.1240   41.9680 C   0  0  0  0  0  0  0  0  0  0  0  0
   38.8400   30.0180   42.3280 C   0  0  0  0  0  0  0  0  0  0  0  0
   40.1180   29.5830   42.5160 N   0  0  0  0  0  0  0  0  0  0  0  0
   40.4800   28.3110   42.3660 C   0  0  0  0  0  0  0  0  0  0  0  0
   39.5540   27.4530   42.0240 N   0  0  0  0  0  0  0  0  0  0  0  0
   38.8240   31.0750   42.5170 H   0  0  0  0  0  0  0  0  0  0  0  0
   41.4790   27.9240   42.5040 H   0  0  0  0  0  0  0  0  0  0  0  0
   37.1930   26.8610   41.4760 C   0  0  0  0  0  0  0  0  0  0  0  0
   36.8850   25.8550   42.4810 C   0  0  0  0  0  0  0  0  0  0  0  0
   37.2150   24.4880   42.0690 C   0  0  0  0  0  0  0  0  0  0  0  0
   36.5220   24.1010   40.7630 C   0  0  0  0  0  0  0  0  0  0  0  0
   36.5430   25.1880   39.7540 C   0  0  0  0  0  0  0  0  0  0  0  0
   37.5320   26.2640   40.1220 C   0  0  0  0  0  0  0  0  0  0  0  0
   36.2600   27.4120   41.2480 H   0  0  0  0  0  0  0  0  0  0  0  0
   37.4750   26.0870   43.4050 H   0  0  0  0  0  0  0  0  0  0  0  0
   35.8240   25.8570   42.8500 H   0  0  0  0  0  0  0  0  0  0  0  0
   36.8610   23.7660   42.8350 H   0  0  0  0  0  0  0  0  0  0  0  0
   38.3120   24.3640   41.9950 H   0  0  0  0  0  0  0  0  0  0  0  0
   37.0840   23.2300   40.3650 H   0  0  0  0  0  0  0  0  0  0  0  0
   35.5010   23.7090   40.9790 H   0  0  0  0  0  0  0  0  0  0  0  0
   36.6490   24.8850   38.7100 H   0  0  0  0  0  0  0  0  0  0  0  0
   35.5360   25.6970   39.8050 H   0  0  0  0  0  0  0  0  0  0  0  0
   38.5740   25.9000   40.0840 H   0  0  0  0  0  0  0  0  0  0  0  0
   37.4610   27.0750   39.3760 H   0  0  0  0  0  0  0  0  0  0  0  0
   36.6990   29.7330   41.8320 O   0  0  0  0  0  0  0  0  0  0  0  0
   36.0050   30.2350   40.7710 C   0  0  0  0  0  0  0  0  0  0  0  0
   36.7220   30.4480   39.9220 H   0  0  0  0  0  0  0  0  0  0  0  0
   35.6250   31.2700   41.0230 H   0  0  0  0  0  0  0  0  0  0  0  0
   34.9400   29.3880   40.1870 C   0  0  0  0  0  0  0  0  0  0  0  0
   33.9750   29.9810   40.1090 H   0  0  0  0  0  0  0  0  0  0  0  0
   34.6490   28.5350   40.8470 H   0  0  0  0  0  0  0  0  0  0  0  0
   35.3210   28.7990   38.8740 C   0  0  0  0  0  3  0  0  0  0  0  0
   36.0870   29.7000   37.9080 C   0  0  0  0  0  2  0  0  0  0  0  0
   34.7050   29.0880   37.5810 C   0  0  0  0  0  2  0  0  0  0  0  0
  1  2  2  0  0  0  0
  1  6  1  0  0  0  0
  2  3  1  0  0  0  0
  3  4  2  0  0  0  0
  3  7  1  0  0  0  0
  5  8  1  0  0  0  0
  5  4  1  0  0  0  0
  6  5  2  0  0  0  0
  9  1  1  0  0  0  0
  9 10  1  0  0  0  0
 10 17  1  0  0  0  0
 10 16  1  0  0  0  0
 11 10  1  0  0  0  0
 11 18  1  0  0  0  0
 12 21  1  0  0  0  0
 12 11  1  0  0  0  0
 13 23  1  0  0  0  0
 13 14  1  0  0  0  0
 13 12  1  0  0  0  0
 14  9  1  0  0  0  0
 15  9  1  0  0  0  0
 19 11  1  0  0  0  0
 20 12  1  0  0  0  0
 22 13  1  0  0  0  0
 24 14  1  0  0  0  0
 25 14  1  0  0  0  0
 26  2  1  0  0  0  0
 27 29  1  0  0  0  0
 27 26  1  0  0  0  0
 28 27  1  0  0  0  0
 30 27  1  0  0  0  0
 30 32  1  0  0  0  0
 31 30  1  0  0  0  0
 33 30  1  0  0  0  0
 34 33  1  0  0  0  0
 35 34  1  0  0  0  0
 35 33  1  0  0  0  0
M  END
>  <minimizedAffinity>
-4.59446764

$$$$

 OpenBabel03242514183D

 35 37  0  0  0  0  0  0  0  0999 V2000
   37.5950   30.2830   40.8830 C   0  0  0  0  0  0  0  0  0  0  0  0
   37.4710   29.3640   39.8460 C   0  0  0  0  0  0  0  0  0  0  0  0
   37.1420   29.8860   38.6200 C   0  0  0  0  0  0  0  0  0  0  0  0
   36.9600   31.2300   38.4850 N   0  0  0  0  0  0  0  0  0  0  0  0
   37.0860   32.0840   39.4980 C   0  0  0  0  0  0  0  0  0  0  0  0
   37.3980   31.5940   40.6700 N   0  0  0  0  0  0  0  0  0  0  0  0
   36.9770   29.4370   37.6590 H   0  0  0  0  0  0  0  0  0  0  0  0
   36.9500   33.1540   39.4360 H   0  0  0  0  0  0  0  0  0  0  0  0
   37.9060   29.6850   42.1950 C   0  0  0  0  0  0  0  0  0  0  0  0
   39.2910   29.2860   42.3960 C   0  0  0  0  0  0  0  0  0  0  0  0
   39.4770   27.8370   42.5100 C   0  0  0  0  0  0  0  0  0  0  0  0
   38.6280   27.2370   43.6300 C   0  0  0  0  0  0  0  0  0  0  0  0
   37.2560   27.7970   43.6790 C   0  0  0  0  0  0  0  0  0  0  0  0
   36.9220   28.5500   42.4170 C   0  0  0  0  0  0  0  0  0  0  0  0
   37.6300   30.3810   43.0110 H   0  0  0  0  0  0  0  0  0  0  0  0
   39.8920   29.6420   41.5200 H   0  0  0  0  0  0  0  0  0  0  0  0
   39.8050   29.7690   43.2700 H   0  0  0  0  0  0  0  0  0  0  0  0
   40.5350   27.6100   42.7650 H   0  0  0  0  0  0  0  0  0  0  0  0
   39.2700   27.3470   41.5400 H   0  0  0  0  0  0  0  0  0  0  0  0
   38.5660   26.1490   43.4170 H   0  0  0  0  0  0  0  0  0  0  0  0
   39.1770   27.3080   44.5990 H   0  0  0  0  0  0  0  0  0  0  0  0
   36.4560   27.1100   43.9600 H   0  0  0  0  0  0  0  0  0  0  0  0
   37.2570   28.5860   44.4880 H   0  0  0  0  0  0  0  0  0  0  0  0
   36.8630   27.8830   41.5390 H   0  0  0  0  0  0  0  0  0  0  0  0
   35.9200   29.0000   42.5320 H   0  0  0  0  0  0  0  0  0  0  0  0
   37.6080   28.0520   39.7730 O   0  0  0  0  0  0  0  0  0  0  0  0
   37.1240   27.0880   38.9400 C   0  0  0  0  0  0  0  0  0  0  0  0
   37.9610   26.7120   38.2770 H   0  0  0  0  0  0  0  0  0  0  0  0
   36.4200   27.5560   38.1890 H   0  0  0  0  0  0  0  0  0  0  0  0
   36.5370   25.8780   39.5600 C   0  0  0  0  0  0  0  0  0  0  0  0
   36.4050   25.0680   38.7760 H   0  0  0  0  0  0  0  0  0  0  0  0
   35.4930   26.0360   39.9240 H   0  0  0  0  0  0  0  0  0  0  0  0
   37.3230   25.3820   40.7230 C   0  0  0  0  0  3  0  0  0  0  0  0
   37.6990   23.9030   40.7230 C   0  0  0  0  0  2  0  0  0  0  0  0
   36.8240   24.5550   41.8190 C   0  0  0  0  0  2  0  0  0  0  0  0
  1  9  1  0  0  0  0
  2  1  2  0  0  0  0
  3  2  1  0  0  0  0
  4  3  2  0  0  0  0
  4  5  1  0  0  0  0
  5  6  2  0  0  0  0
  6  1  1  0  0  0  0
  7  3  1  0  0  0  0
  8  5  1  0  0  0  0
  9 10  1  0  0  0  0
  9 14  1  0  0  0  0
  9 15  1  0  0  0  0
 10 11  1  0  0  0  0
 10 17  1  0  0  0  0
 11 18  1  0  0  0  0
 11 12  1  0  0  0  0
 12 13  1  0  0  0  0
 12 21  1  0  0  0  0
 13 22  1  0  0  0  0
 13 23  1  0  0  0  0
 14 25  1  0  0  0  0
 14 13  1  0  0  0  0
 16 10  1  0  0  0  0
 19 11  1  0  0  0  0
 20 12  1  0  0  0  0
 24 14  1  0  0  0  0
 26  2  1  0  0  0  0
 27 30  1  0  0  0  0
 27 26  1  0  0  0  0
 28 27  1  0  0  0  0
 29 27  1  0  0  0  0
 30 32  1  0  0  0  0
 30 33  1  0  0  0  0
 31 30  1  0  0  0  0
 33 34  1  0  0  0  0
 33 35  1  0  0  0  0
 34 35  1  0  0  0  0
M  END
>  <minimizedAffinity>
-4.55497217

$$$$

 OpenBabel03242514183D

 35 37  0  0  0  0  0  0  0  0999 V2000
   38.2950   30.0620   40.7030 C   0  0  0  0  0  0  0  0  0  0  0  0
   38.4960   30.0050   42.0790 C   0  0  0  0  0  0  0  0  0  0  0  0
   39.5400   30.7540   42.5620 C   0  0  0  0  0  0  0  0  0  0  0  0
   40.2990   31.4900   41.7020 N   0  0  0  0  0  0  0  0  0  0  0  0
   40.0800   31.5240   40.3890 C   0  0  0  0  0  0  0  0  0  0  0  0
   39.0870   30.8120   39.9210 N   0  0  0  0  0  0  0  0  0  0  0  0
   39.9320   30.9020   43.5500 H   0  0  0  0  0  0  0  0  0  0  0  0
   40.6550   32.0920   39.6730 H   0  0  0  0  0  0  0  0  0  0  0  0
   37.1940   29.2130   40.2110 C   0  0  0  0  0  0  0  0  0  0  0  0
   37.2990   28.7800   38.8260 C   0  0  0  0  0  0  0  0  0  0  0  0
   36.2750   29.3530   37.9480 C   0  0  0  0  0  0  0  0  0  0  0  0
   34.8620   29.0550   38.4460 C   0  0  0  0  0  0  0  0  0  0  0  0
   34.7240   29.2040   39.9150 C   0  0  0  0  0  0  0  0  0  0  0  0
   35.8960   29.9440   40.5070 C   0  0  0  0  0  0  0  0  0  0  0  0
   37.0900   28.3110   40.8430 H   0  0  0  0  0  0  0  0  0  0  0  0
   38.3010   29.0910   38.4330 H   0  0  0  0  0  0  0  0  0  0  0  0
   37.3010   27.6670   38.6720 H   0  0  0  0  0  0  0  0  0  0  0  0
   36.3500   28.9020   36.9350 H   0  0  0  0  0  0  0  0  0  0  0  0
   36.4390   30.4400   37.8270 H   0  0  0  0  0  0  0  0  0  0  0  0
   34.1990   29.7910   37.9450 H   0  0  0  0  0  0  0  0  0  0  0  0
   34.5280   28.0620   38.0630 H   0  0  0  0  0  0  0  0  0  0  0  0
   33.7740   29.6010   40.2800 H   0  0  0  0  0  0  0  0  0  0  0  0
   34.7920   28.1660   40.3550 H   0  0  0  0  0  0  0  0  0  0  0  0
   35.9340   30.9960   40.1760 H   0  0  0  0  0  0  0  0  0  0  0  0
   35.7760   29.9700   41.6050 H   0  0  0  0  0  0  0  0  0  0  0  0
   37.8830   29.3700   43.0600 O   0  0  0  0  0  0  0  0  0  0  0  0
   37.8890   28.0840   43.5140 C   0  0  0  0  0  0  0  0  0  0  0  0
   37.9460   28.0870   44.6450 H   0  0  0  0  0  0  0  0  0  0  0  0
   38.8650   27.5880   43.2300 H   0  0  0  0  0  0  0  0  0  0  0  0
   36.7240   27.2330   43.1790 C   0  0  0  0  0  0  0  0  0  0  0  0
   35.9650   27.8350   42.5860 H   0  0  0  0  0  0  0  0  0  0  0  0
   36.1380   26.9220   44.0780 H   0  0  0  0  0  0  0  0  0  0  0  0
   37.1030   25.9850   42.4630 C   0  0  0  0  0  3  0  0  0  0  0  0
   38.4210   26.0020   41.6940 C   0  0  0  0  0  2  0  0  0  0  0  0
   37.0500   25.7600   41.0200 C   0  0  0  0  0  2  0  0  0  0  0  0
  1  2  1  0  0  0  0
  2  3  2  0  0  0  0
  2 26  1  0  0  0  0
  3  7  1  0  0  0  0
  4  3  1  0  0  0  0
  5  4  2  0  0  0  0
  6  5  1  0  0  0  0
  6  1  2  0  0  0  0
  8  5  1  0  0  0  0
  9 14  1  0  0  0  0
  9  1  1  0  0  0  0
  9 15  1  0  0  0  0
 10  9  1  0  0  0  0
 11 12  1  0  0  0  0
 11 10  1  0  0  0  0
 12 13  1  0  0  0  0
 13 22  1  0  0  0  0
 13 23  1  0  0  0  0
 13 14  1  0  0  0  0
 14 25  1  0  0  0  0
 16 10  1  0  0  0  0
 17 10  1  0  0  0  0
 18 11  1  0  0  0  0
 19 11  1  0  0  0  0
 20 12  1  0  0  0  0
 21 12  1  0  0  0  0
 24 14  1  0  0  0  0
 26 27  1  0  0  0  0
 27 28  1  0  0  0  0
 29 27  1  0  0  0  0
 30 27  1  0  0  0  0
 30 32  1  0  0  0  0
 31 30  1  0  0  0  0
 33 30  1  0  0  0  0
 34 33  1  0  0  0  0
 35 34  1  0  0  0  0
 35 33  1  0  0  0  0
M  END
>  <minimizedAffinity>
-4.49911642

$$$$

 OpenBabel03242514183D

 35 37  0  0  0  0  0  0  0  0999 V2000
   37.0310   28.3650   41.0430 C   0  0  0  0  0  0  0  0  0  0  0  0
   37.7920   29.0880   41.9560 C   0  0  0  0  0  0  0  0  0  0  0  0
   38.2470   28.3850   43.0440 C   0  0  0  0  0  0  0  0  0  0  0  0
   37.9410   27.0620   43.1700 N   0  0  0  0  0  0  0  0  0  0  0  0
   37.2100   26.3990   42.2770 C   0  0  0  0  0  0  0  0  0  0  0  0
   36.7720   27.0630   41.2380 N   0  0  0  0  0  0  0  0  0  0  0  0
   38.8360   28.6650   43.8960 H   0  0  0  0  0  0  0  0  0  0  0  0
   36.9440   25.3540   42.3370 H   0  0  0  0  0  0  0  0  0  0  0  0
   36.5220   29.1600   39.9090 C   0  0  0  0  0  0  0  0  0  0  0  0
   35.1000   29.4670   39.9390 C   0  0  0  0  0  0  0  0  0  0  0  0
   34.3310   28.8110   38.8780 C   0  0  0  0  0  0  0  0  0  0  0  0
   34.8730   29.1440   37.4880 C   0  0  0  0  0  0  0  0  0  0  0  0
   36.3550   29.1260   37.4270 C   0  0  0  0  0  0  0  0  0  0  0  0
   36.9490   28.4510   38.6360 C   0  0  0  0  0  0  0  0  0  0  0  0
   37.0750   30.1150   39.8280 H   0  0  0  0  0  0  0  0  0  0  0  0
   34.6860   29.1280   40.9230 H   0  0  0  0  0  0  0  0  0  0  0  0
   34.8470   30.5620   39.9210 H   0  0  0  0  0  0  0  0  0  0  0  0
   33.2790   29.1690   38.8960 H   0  0  0  0  0  0  0  0  0  0  0  0
   34.3000   27.7180   39.0480 H   0  0  0  0  0  0  0  0  0  0  0  0
   34.4750   28.3600   36.8090 H   0  0  0  0  0  0  0  0  0  0  0  0
   34.4200   30.0950   37.1240 H   0  0  0  0  0  0  0  0  0  0  0  0
   36.8030   28.7580   36.5010 H   0  0  0  0  0  0  0  0  0  0  0  0
   36.6950   30.2010   37.5060 H   0  0  0  0  0  0  0  0  0  0  0  0
   36.7120   27.3730   38.6680 H   0  0  0  0  0  0  0  0  0  0  0  0
   38.0500   28.5220   38.5720 H   0  0  0  0  0  0  0  0  0  0  0  0
   38.1930   30.3440   42.0120 O   0  0  0  0  0  0  0  0  0  0  0  0
   39.2320   31.0380   41.4670 C   0  0  0  0  0  0  0  0  0  0  0  0
   39.6310   30.4720   40.5720 H   0  0  0  0  0  0  0  0  0  0  0  0
   40.1150   31.0140   42.1740 H   0  0  0  0  0  0  0  0  0  0  0  0
   38.9600   32.4090   40.9790 C   0  0  0  0  0  0  0  0  0  0  0  0
   39.8110   32.7580   40.3140 H   0  0  0  0  0  0  0  0  0  0  0  0
   38.9610   33.1720   41.7950 H   0  0  0  0  0  0  0  0  0  0  0  0
   37.6480   32.5290   40.2850 C   0  0  0  0  0  3  0  0  0  0  0  0
   37.6480   32.3460   38.7700 C   0  0  0  0  0  2  0  0  0  0  0  0
   37.1980   33.6520   39.4650 C   0  0  0  0  0  2  0  0  0  0  0  0
  1  6  2  0  0  0  0
  1  2  1  0  0  0  0
  2 26  1  0  0  0  0
  2  3  2  0  0  0  0
  3  4  1  0  0  0  0
  3  7  1  0  0  0  0
  5  8  1  0  0  0  0
  5  4  2  0  0  0  0
  6  5  1  0  0  0  0
  9 10  1  0  0  0  0
  9  1  1  0  0  0  0
 10 16  1  0  0  0  0
 11 18  1  0  0  0  0
 11 19  1  0  0  0  0
 11 10  1  0  0  0  0
 12 11  1  0  0  0  0
 13 12  1  0  0  0  0
 13 23  1  0  0  0  0
 13 14  1  0  0  0  0
 14 24  1  0  0  0  0
 14  9  1  0  0  0  0
 15  9  1  0  0  0  0
 17 10  1  0  0  0  0
 20 12  1  0  0  0  0
 21 12  1  0  0  0  0
 22 13  1  0  0  0  0
 25 14  1  0  0  0  0
 27 26  1  0  0  0  0
 27 29  1  0  0  0  0
 28 27  1  0  0  0  0
 30 27  1  0  0  0  0
 30 32  1  0  0  0  0
 31 30  1  0  0  0  0
 33 30  1  0  0  0  0
 34 35  1  0  0  0  0
 34 33  1  0  0  0  0
 35 33  1  0  0  0  0
M  END
>  <minimizedAffinity>
-4.45680428

$$$$

 OpenBabel03242514183D

 35 37  0  0  0  0  0  0  0  0999 V2000
   36.6350   28.6690   40.0350 C   0  0  0  0  0  0  0  0  0  0  0  0
   36.4870   29.8380   39.2950 C   0  0  0  0  0  0  0  0  0  0  0  0
   36.0460   29.6780   38.0050 C   0  0  0  0  0  0  0  0  0  0  0  0
   35.7850   28.4270   37.5300 N   0  0  0  0  0  0  0  0  0  0  0  0
   35.9360   27.3270   38.2640 C   0  0  0  0  0  0  0  0  0  0  0  0
   36.3570   27.4720   39.4950 N   0  0  0  0  0  0  0  0  0  0  0  0
   35.8480   30.3750   37.2130 H   0  0  0  0  0  0  0  0  0  0  0  0
   35.7420   26.3190   37.9290 H   0  0  0  0  0  0  0  0  0  0  0  0
   37.1500   28.8720   41.4020 C   0  0  0  0  0  0  0  0  0  0  0  0
   38.5970   28.9600   41.5260 C   0  0  0  0  0  0  0  0  0  0  0  0
   39.1980   27.8380   42.2510 C   0  0  0  0  0  0  0  0  0  0  0  0
   38.5970   27.6700   43.6460 C   0  0  0  0  0  0  0  0  0  0  0  0
   37.1240   27.8410   43.6660 C   0  0  0  0  0  0  0  0  0  0  0  0
   36.5440   27.7880   42.2760 C   0  0  0  0  0  0  0  0  0  0  0  0
   36.7130   29.7860   41.8470 H   0  0  0  0  0  0  0  0  0  0  0  0
   39.0390   28.9810   40.4970 H   0  0  0  0  0  0  0  0  0  0  0  0
   38.9790   29.9120   41.9860 H   0  0  0  0  0  0  0  0  0  0  0  0
   40.2840   28.0210   42.3990 H   0  0  0  0  0  0  0  0  0  0  0  0
   39.1080   26.9080   41.6590 H   0  0  0  0  0  0  0  0  0  0  0  0
   38.8440   26.6350   43.9640 H   0  0  0  0  0  0  0  0  0  0  0  0
   39.1350   28.3270   44.3700 H   0  0  0  0  0  0  0  0  0  0  0  0
   36.5670   27.2060   44.3580 H   0  0  0  0  0  0  0  0  0  0  0  0
   36.9250   28.8960   44.0170 H   0  0  0  0  0  0  0  0  0  0  0  0
   36.6500   26.7880   41.8200 H   0  0  0  0  0  0  0  0  0  0  0  0
   35.4590   27.9840   42.3410 H   0  0  0  0  0  0  0  0  0  0  0  0
   36.6790   31.1160   39.5680 O   0  0  0  0  0  0  0  0  0  0  0  0
   37.1690   32.1770   38.8660 C   0  0  0  0  0  0  0  0  0  0  0  0
   36.5010   32.3740   37.9730 H   0  0  0  0  0  0  0  0  0  0  0  0
   38.1430   31.8860   38.3710 H   0  0  0  0  0  0  0  0  0  0  0  0
   37.2780   33.4740   39.5720 C   0  0  0  0  0  0  0  0  0  0  0  0
   36.5120   33.5230   40.4090 H   0  0  0  0  0  0  0  0  0  0  0  0
   36.9940   34.3440   38.9320 H   0  0  0  0  0  0  0  0  0  0  0  0
   38.6510   33.7460   40.0770 C   0  0  0  0  0  3  0  0  0  0  0  0
   39.7920   32.9580   39.4400 C   0  0  0  0  0  2  0  0  0  0  0  0
   39.4450   32.8800   40.9450 C   0  0  0  0  0  2  0  0  0  0  0  0
  1  9  1  0  0  0  0
  2 26  1  0  0  0  0
  2  1  2  0  0  0  0
  3  2  1  0  0  0  0
  4  3  2  0  0  0  0
  4  5  1  0  0  0  0
  5  6  2  0  0  0  0
  6  1  1  0  0  0  0
  7  3  1  0  0  0  0
  8  5  1  0  0  0  0
  9 10  1  0  0  0  0
  9 15  1  0  0  0  0
  9 14  1  0  0  0  0
 10 17  1  0  0  0  0
 10 11  1  0  0  0  0
 11 18  1  0  0  0  0
 11 12  1  0  0  0  0
 12 13  1  0  0  0  0
 12 20  1  0  0  0  0
 12 21  1  0  0  0  0
 13 23  1  0  0  0  0
 13 22  1  0  0  0  0
 14 25  1  0  0  0  0
 14 13  1  0  0  0  0
 16 10  1  0  0  0  0
 19 11  1  0  0  0  0
 24 14  1  0  0  0  0
 27 26  1  0  0  0  0
 27 30  1  0  0  0  0
 28 27  1  0  0  0  0
 29 27  1  0  0  0  0
 30 33  1  0  0  0  0
 30 31  1  0  0  0  0
 32 30  1  0  0  0  0
 33 35  1  0  0  0  0
 34 33  1  0  0  0  0
 34 35  1  0  0  0  0
M  END
>  <minimizedAffinity>
-4.39559984

$$$$

 OpenBabel03242514183D

 35 37  0  0  0  0  0  0  0  0999 V2000
   36.9890   29.9750   38.9710 C   0  0  0  0  0  0  0  0  0  0  0  0
   36.3720   28.8090   39.4130 C   0  0  0  0  0  0  0  0  0  0  0  0
   35.8650   27.9930   38.4340 C   0  0  0  0  0  0  0  0  0  0  0  0
   35.9860   28.3510   37.1240 N   0  0  0  0  0  0  0  0  0  0  0  0
   36.5830   29.4750   36.7330 C   0  0  0  0  0  0  0  0  0  0  0  0
   37.0690   30.2590   37.6610 N   0  0  0  0  0  0  0  0  0  0  0  0
   35.3430   27.0540   38.4670 H   0  0  0  0  0  0  0  0  0  0  0  0
   36.7020   29.7980   35.7090 H   0  0  0  0  0  0  0  0  0  0  0  0
   37.4860   30.8510   40.0490 C   0  0  0  0  0  0  0  0  0  0  0  0
   36.8500   32.1550   40.1480 C   0  0  0  0  0  0  0  0  0  0  0  0
   37.7410   33.2730   39.8260 C   0  0  0  0  0  0  0  0  0  0  0  0
   38.9960   33.2740   40.6980 C   0  0  0  0  0  0  0  0  0  0  0  0
   39.5700   31.9190   40.8860 C   0  0  0  0  0  0  0  0  0  0  0  0
   38.9950   30.9340   39.9010 C   0  0  0  0  0  0  0  0  0  0  0  0
   37.3860   30.3480   41.0310 H   0  0  0  0  0  0  0  0  0  0  0  0
   35.9900   32.1850   39.4310 H   0  0  0  0  0  0  0  0  0  0  0  0
   36.3640   32.3760   41.1370 H   0  0  0  0  0  0  0  0  0  0  0  0
   37.2250   34.2370   40.0220 H   0  0  0  0  0  0  0  0  0  0  0  0
   37.9980   33.2600   38.7500 H   0  0  0  0  0  0  0  0  0  0  0  0
   39.7370   33.9080   40.1680 H   0  0  0  0  0  0  0  0  0  0  0  0
   38.7910   33.8110   41.6540 H   0  0  0  0  0  0  0  0  0  0  0  0
   40.6590   31.8510   40.9320 H   0  0  0  0  0  0  0  0  0  0  0  0
   39.2140   31.5540   41.8950 H   0  0  0  0  0  0  0  0  0  0  0  0
   39.2920   31.1640   38.8630 H   0  0  0  0  0  0  0  0  0  0  0  0
   39.4040   29.9340   40.1260 H   0  0  0  0  0  0  0  0  0  0  0  0
   36.1610   28.2910   40.6090 O   0  0  0  0  0  0  0  0  0  0  0  0
   36.8340   27.4040   41.3960 C   0  0  0  0  0  0  0  0  0  0  0  0
   37.9480   27.5580   41.2650 H   0  0  0  0  0  0  0  0  0  0  0  0
   36.6920   26.3570   40.9930 H   0  0  0  0  0  0  0  0  0  0  0  0
   36.5950   27.4660   42.8570 C   0  0  0  0  0  0  0  0  0  0  0  0
   36.2410   26.4550   43.2330 H   0  0  0  0  0  0  0  0  0  0  0  0
   35.7460   28.1380   43.1320 H   0  0  0  0  0  0  0  0  0  0  0  0
   37.7810   27.9430   43.6190 C   0  0  0  0  0  3  0  0  0  0  0  0
   38.3550   29.3020   43.2260 C   0  0  0  0  0  2  0  0  0  0  0  0
   39.1610   27.9850   43.1420 C   0  0  0  0  0  2  0  0  0  0  0  0
  1  2  1  0  0  0  0
  1  9  1  0  0  0  0
  2 26  1  0  0  0  0
  3  7  1  0  0  0  0
  3  2  2  0  0  0  0
  4  3  1  0  0  0  0
  5  4  2  0  0  0  0
  5  6  1  0  0  0  0
  6  1  2  0  0  0  0
  8  5  1  0  0  0  0
  9 10  1  0  0  0  0
  9 15  1  0  0  0  0
 10 17  1  0  0  0  0
 11 18  1  0  0  0  0
 11 10  1  0  0  0  0
 11 12  1  0  0  0  0
 12 13  1  0  0  0  0
 12 21  1  0  0  0  0
 13 22  1  0  0  0  0
 13 23  1  0  0  0  0
 14  9  1  0  0  0  0
 14 25  1  0  0  0  0
 14 13  1  0  0  0  0
 16 10  1  0  0  0  0
 19 11  1  0  0  0  0
 20 12  1  0  0  0  0
 24 14  1  0  0  0  0
 26 27  1  0  0  0  0
 27 30  1  0  0  0  0
 28 27  1  0  0  0  0
 29 27  1  0  0  0  0
 30 32  1  0  0  0  0
 30 31  1  0  0  0  0
 30 33  1  0  0  0  0
 34 33  1  0  0  0  0
 35 34  1  0  0  0  0
 35 33  1  0  0  0  0
M  END
>  <minimizedAffinity>
-4.39316559

$$$$

 OpenBabel03242514183D

 35 37  0  0  0  0  0  0  0  0999 V2000
   38.8780   25.8320   42.2370 C   0  0  0  0  0  0  0  0  0  0  0  0
   39.0610   26.9710   43.0140 C   0  0  0  0  0  0  0  0  0  0  0  0
   40.2630   27.0610   43.6700 C   0  0  0  0  0  0  0  0  0  0  0  0
   41.1850   26.0670   43.5310 N   0  0  0  0  0  0  0  0  0  0  0  0
   40.9800   24.9890   42.7790 C   0  0  0  0  0  0  0  0  0  0  0  0
   39.8360   24.8950   42.1510 N   0  0  0  0  0  0  0  0  0  0  0  0
   40.6780   27.8000   44.3300 H   0  0  0  0  0  0  0  0  0  0  0  0
   41.6810   24.1780   42.6410 H   0  0  0  0  0  0  0  0  0  0  0  0
   37.5600   25.7450   41.5800 C   0  0  0  0  0  0  0  0  0  0  0  0
   36.8170   24.5160   41.8130 C   0  0  0  0  0  0  0  0  0  0  0  0
   36.6540   23.6870   40.6160 C   0  0  0  0  0  0  0  0  0  0  0  0
   35.9840   24.4550   39.4760 C   0  0  0  0  0  0  0  0  0  0  0  0
   36.4920   25.8410   39.3350 C   0  0  0  0  0  0  0  0  0  0  0  0
   37.7720   26.0400   40.1060 C   0  0  0  0  0  0  0  0  0  0  0  0
   36.9200   26.5940   41.8870 H   0  0  0  0  0  0  0  0  0  0  0  0
   37.3680   23.9090   42.5780 H   0  0  0  0  0  0  0  0  0  0  0  0
   35.8040   24.6520   42.2790 H   0  0  0  0  0  0  0  0  0  0  0  0
   35.9930   22.8230   40.8400 H   0  0  0  0  0  0  0  0  0  0  0  0
   37.6300   23.2710   40.3030 H   0  0  0  0  0  0  0  0  0  0  0  0
   36.2170   23.8900   38.5490 H   0  0  0  0  0  0  0  0  0  0  0  0
   34.8750   24.3910   39.5790 H   0  0  0  0  0  0  0  0  0  0  0  0
   36.5700   26.2330   38.3190 H   0  0  0  0  0  0  0  0  0  0  0  0
   35.7440   26.5140   39.8490 H   0  0  0  0  0  0  0  0  0  0  0  0
   38.6060   25.4500   39.6860 H   0  0  0  0  0  0  0  0  0  0  0  0
   38.0710   27.1000   40.0210 H   0  0  0  0  0  0  0  0  0  0  0  0
   38.3090   28.0260   43.2700 O   0  0  0  0  0  0  0  0  0  0  0  0
   38.3210   29.3270   42.8610 C   0  0  0  0  0  0  0  0  0  0  0  0
   39.1350   29.8850   43.4160 H   0  0  0  0  0  0  0  0  0  0  0  0
   37.3860   29.8470   43.2270 H   0  0  0  0  0  0  0  0  0  0  0  0
   38.5680   29.5910   41.4250 C   0  0  0  0  0  0  0  0  0  0  0  0
   39.2830   28.8140   41.0070 H   0  0  0  0  0  0  0  0  0  0  0  0
   39.1160   30.5480   41.2450 H   0  0  0  0  0  0  0  0  0  0  0  0
   37.3150   29.6600   40.6230 C   0  0  0  0  0  3  0  0  0  0  0  0
   36.2850   30.7070   41.0380 C   0  0  0  0  0  2  0  0  0  0  0  0
   35.9950   29.1880   41.0320 C   0  0  0  0  0  2  0  0  0  0  0  0
  1  2  1  0  0  0  0
  2 26  1  0  0  0  0
  2  3  2  0  0  0  0
  3  7  1  0  0  0  0
  4  3  1  0  0  0  0
  5  4  2  0  0  0  0
  6  1  2  0  0  0  0
  6  5  1  0  0  0  0
  8  5  1  0  0  0  0
  9 10  1  0  0  0  0
  9 15  1  0  0  0  0
  9  1  1  0  0  0  0
 10 17  1  0  0  0  0
 10 16  1  0  0  0  0
 11 18  1  0  0  0  0
 11 10  1  0  0  0  0
 12 21  1  0  0  0  0
 12 11  1  0  0  0  0
 13 12  1  0  0  0  0
 13 23  1  0  0  0  0
 13 14  1  0  0  0  0
 14  9  1  0  0  0  0
 19 11  1  0  0  0  0
 20 12  1  0  0  0  0
 22 13  1  0  0  0  0
 24 14  1  0  0  0  0
 25 14  1  0  0  0  0
 27 29  1  0  0  0  0
 27 26  1  0  0  0  0
 27 28  1  0  0  0  0
 30 27  1  0  0  0  0
 31 30  1  0  0  0  0
 32 30  1  0  0  0  0
 33 35  1  0  0  0  0
 33 34  1  0  0  0  0
 33 30  1  0  0  0  0
 35 34  1  0  0  0  0
M  END
>  <minimizedAffinity>
-4.36295509

$$$$

 OpenBabel03242514183D

 35 37  0  0  0  0  0  0  0  0999 V2000
   38.3120   30.5150   38.4310 C   0  0  0  0  0  0  0  0  0  0  0  0
   38.9510   29.3750   38.9060 C   0  0  0  0  0  0  0  0  0  0  0  0
   40.3070   29.3190   38.6970 C   0  0  0  0  0  0  0  0  0  0  0  0
   40.9350   30.3450   38.0570 N   0  0  0  0  0  0  0  0  0  0  0  0
   40.2940   31.4240   37.6140 C   0  0  0  0  0  0  0  0  0  0  0  0
   39.0010   31.4850   37.8090 N   0  0  0  0  0  0  0  0  0  0  0  0
   41.0500   28.5830   38.9400 H   0  0  0  0  0  0  0  0  0  0  0  0
   40.7500   32.2590   37.1030 H   0  0  0  0  0  0  0  0  0  0  0  0
   36.8500   30.5250   38.6330 C   0  0  0  0  0  0  0  0  0  0  0  0
   36.4000   30.8500   39.9770 C   0  0  0  0  0  0  0  0  0  0  0  0
   35.7530   29.7330   40.6700 C   0  0  0  0  0  0  0  0  0  0  0  0
   34.5700   29.1760   39.8800 C   0  0  0  0  0  0  0  0  0  0  0  0
   34.8460   29.0660   38.4270 C   0  0  0  0  0  0  0  0  0  0  0  0
   36.3190   29.1930   38.1340 C   0  0  0  0  0  0  0  0  0  0  0  0
   36.3690   31.2330   37.9310 H   0  0  0  0  0  0  0  0  0  0  0  0
   37.2890   31.1610   40.5830 H   0  0  0  0  0  0  0  0  0  0  0  0
   35.7190   31.7410   40.0510 H   0  0  0  0  0  0  0  0  0  0  0  0
   35.3430   30.0770   41.6440 H   0  0  0  0  0  0  0  0  0  0  0  0
   36.4940   28.9430   40.8970 H   0  0  0  0  0  0  0  0  0  0  0  0
   34.3790   28.1610   40.2880 H   0  0  0  0  0  0  0  0  0  0  0  0
   33.6490   29.7590   40.1190 H   0  0  0  0  0  0  0  0  0  0  0  0
   34.4060   28.2130   37.9080 H   0  0  0  0  0  0  0  0  0  0  0  0
   34.3800   29.9730   37.9390 H   0  0  0  0  0  0  0  0  0  0  0  0
   36.8970   28.3440   38.5390 H   0  0  0  0  0  0  0  0  0  0  0  0
   36.4620   29.1700   37.0390 H   0  0  0  0  0  0  0  0  0  0  0  0
   38.5320   28.2960   39.5400 O   0  0  0  0  0  0  0  0  0  0  0  0
   38.8640   27.6920   40.7170 C   0  0  0  0  0  0  0  0  0  0  0  0
   39.0920   28.4840   41.4920 H   0  0  0  0  0  0  0  0  0  0  0  0
   39.8630   27.1750   40.6070 H   0  0  0  0  0  0  0  0  0  0  0  0
   37.8540   26.8060   41.3410 C   0  0  0  0  0  0  0  0  0  0  0  0
   38.0320   25.7320   41.0190 H   0  0  0  0  0  0  0  0  0  0  0  0
   36.8170   27.0010   40.9760 H   0  0  0  0  0  0  0  0  0  0  0  0
   37.8140   26.9270   42.8240 C   0  0  0  0  0  3  0  0  0  0  0  0
   36.4810   27.3340   43.4480 C   0  0  0  0  0  2  0  0  0  0  0  0
   37.7760   28.1680   43.5940 C   0  0  0  0  0  2  0  0  0  0  0  0
  1  9  1  0  0  0  0
  1  2  1  0  0  0  0
  2 26  1  0  0  0  0
  3  2  2  0  0  0  0
  3  7  1  0  0  0  0
  4  3  1  0  0  0  0
  5  6  1  0  0  0  0
  5  4  2  0  0  0  0
  6  1  2  0  0  0  0
  8  5  1  0  0  0  0
  9 10  1  0  0  0  0
 10 17  1  0  0  0  0
 10 16  1  0  0  0  0
 10 11  1  0  0  0  0
 11 19  1  0  0  0  0
 11 18  1  0  0  0  0
 12 21  1  0  0  0  0
 12 20  1  0  0  0  0
 12 11  1  0  0  0  0
 13 12  1  0  0  0  0
 14 13  1  0  0  0  0
 14 24  1  0  0  0  0
 14  9  1  0  0  0  0
 15  9  1  0  0  0  0
 22 13  1  0  0  0  0
 23 13  1  0  0  0  0
 25 14  1  0  0  0  0
 26 27  1  0  0  0  0
 27 30  1  0  0  0  0
 27 28  1  0  0  0  0
 29 27  1  0  0  0  0
 30 33  1  0  0  0  0
 31 30  1  0  0  0  0
 32 30  1  0  0  0  0
 33 34  1  0  0  0  0
 33 35  1  0  0  0  0
 34 35  1  0  0  0  0
M  END
>  <minimizedAffinity>
-4.36236286

$$$$
