
 OpenBabel03252508343D

 29 31  0  0  1  0  0  0  0  0999 V2000
   45.2530   34.2470   41.6470 N   0  0  0  0  0  0  0  0  0  0  0  0
   46.5410   33.8310   41.1460 C   0  0  1  0  0  0  0  0  0  0  0  0
   46.5720   33.5820   39.6860 C   0  0  0  0  0  0  0  0  0  0  0  0
   45.4410   32.9560   39.1350 N   0  0  0  0  0  0  0  0  0  0  0  0
   44.1950   33.1870   39.7310 C   0  0  0  0  0  0  0  0  0  0  0  0
   44.2400   34.3990   40.6440 C   0  0  0  0  0  0  0  0  0  0  0  0
   46.8030   32.8860   41.6630 H   0  0  0  0  0  0  0  0  0  0  0  0
   47.4880   32.9850   39.4450 H   0  0  0  0  0  0  0  0  0  0  0  0
   46.7160   34.5620   39.1700 H   0  0  0  0  0  0  0  0  0  0  0  0
   45.6290   31.9650   38.8590 H   0  0  0  0  0  0  0  0  0  0  0  0
   43.9450   32.3210   40.3960 H   0  0  0  0  0  0  0  0  0  0  0  0
   43.3400   33.3030   39.0250 H   0  0  0  0  0  0  0  0  0  0  0  0
   44.3640   35.2910   39.9970 H   0  0  0  0  0  0  0  0  0  0  0  0
   43.2670   34.4430   41.1770 H   0  0  0  0  0  0  0  0  0  0  0  0
   44.5790   35.6800   43.4120 C   0  0  0  0  0  0  0  0  0  0  0  0
   45.1320   34.4520   43.0290 C   0  0  0  0  0  0  0  0  0  0  0  0
   45.5050   33.5630   44.0350 C   0  0  0  0  0  0  0  0  0  0  0  0
   45.3230   33.9090   45.3360 N   0  0  0  0  0  0  0  0  0  0  0  0
   44.7870   35.1010   45.6690 C   0  0  0  0  0  0  0  0  0  0  0  0
   44.4210   35.9700   44.7350 N   0  0  0  0  0  0  0  0  0  0  0  0
   44.2640   36.4260   42.6690 H   0  0  0  0  0  0  0  0  0  0  0  0
   45.9210   32.6410   43.7150 H   0  0  0  0  0  0  0  0  0  0  0  0
   44.6130   35.4420   46.6780 H   0  0  0  0  0  0  0  0  0  0  0  0
   47.5390   34.9270   41.4450 C   0  0  0  0  0  0  0  0  0  0  0  0
   47.3140   35.2690   42.4930 H   0  0  0  0  0  0  0  0  0  0  0  0
   47.4120   35.7380   40.7210 H   0  0  0  0  0  0  0  0  0  0  0  0
   48.9630   34.4640   41.4370 C   0  0  0  0  0  3  0  0  0  0  0  0
   49.8250   35.1330   42.5230 C   0  0  0  0  0  2  0  0  0  0  0  0
   49.5340   33.6600   42.5350 C   0  0  0  0  0  2  0  0  0  0  0  0
  1 16  1  0  0  0  0
  2 24  1  0  0  0  0
  2  1  1  0  0  0  0
  2  7  1  1  0  0  0
  3  2  1  0  0  0  0
  4  3  1  0  0  0  0
  4  5  1  0  0  0  0
  5 11  1  0  0  0  0
  5  6  1  0  0  0  0
  6 14  1  0  0  0  0
  6  1  1  0  0  0  0
  8  3  1  0  0  0  0
  9  3  1  0  0  0  0
 10  4  1  0  0  0  0
 12  5  1  0  0  0  0
 13  6  1  0  0  0  0
 15 20  1  0  0  0  0
 16 15  2  0  0  0  0
 16 17  1  0  0  0  0
 17 18  2  0  0  0  0
 18 19  1  0  0  0  0
 19 23  1  0  0  0  0
 20 19  2  0  0  0  0
 21 15  1  0  0  0  0
 22 17  1  0  0  0  0
 24 25  1  0  0  0  0
 26 24  1  0  0  0  0
 27 24  1  0  0  0  0
 27 28  1  0  0  0  0
 27 29  1  0  0  0  0
 28 29  1  0  0  0  0
M  END
>  <minimizedAffinity>
-4.53190947

>  <minimizedRMSD>
1.04384971

$$$$
