
 OpenBabel03242510223D

 32 35  0  0  1  0  0  0  0  0999 V2000
   46.3110   32.1210   44.5260 C   0  0  1  0  0  0  0  0  0  0  0  0
   46.4510   31.3690   43.3520 C   0  0  0  0  0  0  0  0  0  0  0  0
   47.6780   32.1190   43.9620 C   0  0  1  0  0  0  0  0  0  0  0  0
   46.1360   31.6650   45.5250 H   0  0  0  0  0  0  0  0  0  0  0  0
   46.1940   31.6240   42.3070 H   0  0  0  0  0  0  0  0  0  0  0  0
   46.5270   30.2420   43.4490 H   0  0  0  0  0  0  0  0  0  0  0  0
   48.4340   31.4190   44.3440 H   0  0  0  0  0  0  0  0  0  0  0  0
   45.0630   33.9800   43.1870 C   0  0  0  0  0  0  0  0  0  0  0  0
   45.5500   33.4570   44.4280 C   0  0  0  0  0  0  0  0  0  0  0  0
   45.3370   34.2110   45.5640 C   0  0  0  0  0  0  0  0  0  0  0  0
   44.6920   35.3900   45.4580 N   0  0  0  0  0  0  0  0  0  0  0  0
   44.2350   35.8750   44.2700 C   0  0  0  0  0  0  0  0  0  0  0  0
   44.4340   35.1350   43.1010 N   0  0  0  0  0  0  0  0  0  0  0  0
   45.2180   33.3710   42.3170 H   0  0  0  0  0  0  0  0  0  0  0  0
   45.6770   33.8770   46.5360 H   0  0  0  0  0  0  0  0  0  0  0  0
   43.7190   36.8200   44.1910 H   0  0  0  0  0  0  0  0  0  0  0  0
   48.0550   33.2530   43.1970 N   0  0  0  0  0  0  0  0  0  0  0  0
   49.2240   33.3100   42.4480 C   0  0  0  0  0  0  0  0  0  0  0  0
   50.3900   32.9180   42.7080 O   0  0  0  0  0  0  0  0  0  0  0  0
   47.5070   34.1390   43.1230 H   0  0  0  0  0  0  0  0  0  0  0  0
   49.1800   33.9330   41.0600 C   0  0  2  0  0  0  0  0  0  0  0  0
   48.6890   35.4240   40.9840 C   0  0  0  0  0  0  0  0  0  0  0  0
   47.9120   34.2710   40.4160 C   0  0  1  0  0  0  0  0  0  0  0  0
   50.0870   33.8250   40.4310 H   0  0  0  0  0  0  0  0  0  0  0  0
   48.3390   35.8260   41.9610 H   0  0  0  0  0  0  0  0  0  0  0  0
   49.1520   36.0820   40.2570 H   0  0  0  0  0  0  0  0  0  0  0  0
   47.0350   33.8110   40.9280 H   0  0  0  0  0  0  0  0  0  0  0  0
   47.8390   34.1740   38.9130 C   0  0  0  0  0  0  0  0  0  0  0  0
   48.5830   34.8400   38.2050 O   0  0  0  0  0  0  0  0  0  0  0  0
   46.8480   33.2580   38.2620 C   0  0  0  0  0  3  0  0  0  0  0  0
   46.9080   32.9810   36.8130 C   0  0  0  0  0  2  0  0  0  0  0  0
   47.4470   31.9540   37.7770 C   0  0  0  0  0  2  0  0  0  0  0  0
  1  4  1  1  0  0  0
  2  6  1  0  0  0  0
  2  3  1  0  0  0  0
  2  1  1  0  0  0  0
  3  7  1  1  0  0  0
  3  1  1  0  0  0  0
  5  2  1  0  0  0  0
  8  9  1  0  0  0  0
  9  1  1  0  0  0  0
  9 10  2  0  0  0  0
 10 15  1  0  0  0  0
 11 10  1  0  0  0  0
 12 11  2  0  0  0  0
 13  8  2  0  0  0  0
 13 12  1  0  0  0  0
 14  8  1  0  0  0  0
 16 12  1  0  0  0  0
 17  3  1  0  0  0  0
 18 19  2  0  0  0  0
 18 17  1  0  0  0  0
 20 17  1  0  0  0  0
 21 24  1  6  0  0  0
 21 18  1  0  0  0  0
 22 21  1  0  0  0  0
 22 25  1  0  0  0  0
 23 27  1  1  0  0  0
 23 22  1  0  0  0  0
 23 21  1  0  0  0  0
 26 22  1  0  0  0  0
 28 23  1  0  0  0  0
 29 28  2  0  0  0  0
 30 28  1  0  0  0  0
 31 32  1  0  0  0  0
 31 30  1  0  0  0  0
 32 30  1  0  0  0  0
M  END
>  <minimizedAffinity>
-4.52015066

>  <minimizedRMSD>
0.1482196

$$$$
