
 OpenBabel03242519283D

 37 40  0  0  0  0  0  0  0  0999 V2000
   47.9070   33.8490   42.8710 C   0  0  0  0  0  0  0  0  0  0  0  0
   48.5620   35.0890   42.6400 C   0  0  0  0  0  0  0  0  0  0  0  0
   49.9270   35.1150   42.3190 C   0  0  0  0  0  0  0  0  0  0  0  0
   50.5510   33.8900   42.2510 N   0  0  0  0  0  0  0  0  0  0  0  0
   49.8730   32.7090   42.4840 C   0  0  0  0  0  0  0  0  0  0  0  0
   48.5920   32.7200   42.7840 N   0  0  0  0  0  0  0  0  0  0  0  0
   48.1350   36.0830   42.6760 H   0  0  0  0  0  0  0  0  0  0  0  0
   50.4710   36.0090   42.1340 H   0  0  0  0  0  0  0  0  0  0  0  0
   46.4740   33.9660   43.2040 C   0  0  0  0  0  0  0  0  0  0  0  0
   45.7620   34.9810   42.4500 C   0  0  0  0  0  0  0  0  0  0  0  0
   45.2890   36.1320   43.2420 C   0  0  0  0  0  0  0  0  0  0  0  0
   44.4500   35.6870   44.4430 C   0  0  0  0  0  0  0  0  0  0  0  0
   44.9830   34.4790   45.1440 C   0  0  0  0  0  0  0  0  0  0  0  0
   46.4190   34.1860   44.7380 C   0  0  0  0  0  0  0  0  0  0  0  0
   46.0230   32.9390   43.0940 H   0  0  0  0  0  0  0  0  0  0  0  0
   44.8670   34.5310   41.9510 H   0  0  0  0  0  0  0  0  0  0  0  0
   46.3960   35.3710   41.6260 H   0  0  0  0  0  0  0  0  0  0  0  0
   46.0290   36.8280   43.6300 H   0  0  0  0  0  0  0  0  0  0  0  0
   44.5960   36.7270   42.5810 H   0  0  0  0  0  0  0  0  0  0  0  0
   44.2640   36.5470   45.0930 H   0  0  0  0  0  0  0  0  0  0  0  0
   43.4600   35.3910   44.0030 H   0  0  0  0  0  0  0  0  0  0  0  0
   45.0380   34.7180   46.2370 H   0  0  0  0  0  0  0  0  0  0  0  0
   44.3570   33.5730   45.0570 H   0  0  0  0  0  0  0  0  0  0  0  0
   46.7730   33.2850   45.2510 H   0  0  0  0  0  0  0  0  0  0  0  0
   47.0460   35.0570   45.0170 H   0  0  0  0  0  0  0  0  0  0  0  0
   50.7070   31.5210   42.3700 C   0  0  0  0  0  0  0  0  0  0  0  0
   51.4520   31.3620   41.2480 N   0  0  0  0  0  0  0  0  0  0  0  0
   52.1460   30.2020   41.3540 C   0  0  0  0  0  0  0  0  0  0  0  0
   51.8200   29.6520   42.5480 N   0  0  0  0  0  0  0  0  0  0  0  0
   50.9420   30.4490   43.1790 N   0  0  0  0  0  0  0  0  0  0  0  0
   52.8390   29.7530   40.6480 H   0  0  0  0  0  0  0  0  0  0  0  0
   52.3160   28.3900   43.1170 C   0  0  0  0  0  0  0  0  0  0  0  0
   53.0540   27.9000   42.4610 H   0  0  0  0  0  0  0  0  0  0  0  0
   51.4410   27.7300   43.2150 H   0  0  0  0  0  0  0  0  0  0  0  0
   52.8910   28.6970   44.4830 C   0  0  0  0  0  0  0  0  0  0  0  0
   54.1580   29.5030   44.5190 C   0  0  0  0  0  0  0  0  0  0  0  0
   54.1800   28.0110   44.8270 C   0  0  0  0  0  0  0  0  0  0  0  0
  1  9  1  0  0  0  0
  2  7  1  0  0  0  0
  2  1  2  0  0  0  0
  3  2  1  0  0  0  0
  4  3  2  0  0  0  0
  4  5  1  0  0  0  0
  5  6  2  0  0  0  0
  6  1  1  0  0  0  0
  8  3  1  0  0  0  0
  9 14  1  0  0  0  0
 10  9  1  0  0  0  0
 10 11  1  0  0  0  0
 11 18  1  0  0  0  0
 11 12  1  0  0  0  0
 12 20  1  0  0  0  0
 12 13  1  0  0  0  0
 13 22  1  0  0  0  0
 14 25  1  0  0  0  0
 14 13  1  0  0  0  0
 14 24  1  0  0  0  0
 15  9  1  0  0  0  0
 16 10  1  0  0  0  0
 17 10  1  0  0  0  0
 19 11  1  0  0  0  0
 21 12  1  0  0  0  0
 23 13  1  0  0  0  0
 26  5  1  0  0  0  0
 26 30  2  0  0  0  0
 27 28  2  0  0  0  0
 27 26  1  0  0  0  0
 28 29  1  0  0  0  0
 29 32  1  0  0  0  0
 29 30  1  0  0  0  0
 31 28  1  0  0  0  0
 32 34  1  0  0  0  0
 32 35  1  0  0  0  0
 33 32  1  0  0  0  0
 35 36  1  0  0  0  0
 35 37  1  0  0  0  0
 36 37  1  0  0  0  0
M  END
>  <minimizedAffinity>
-4.0824585

>  <minimizedRMSD>
1.90359211

$$$$
