
 OpenBabel03252509083D

 35 38  0  0  0  0  0  0  0  0999 V2000
   45.3280   35.2640   43.1740 Cl  0  0  0  0  0  0  0  0  0  0  0  0
   45.1940   34.5220   41.6020 C   0  0  0  0  0  0  0  0  0  0  0  0
   46.2850   34.1340   40.9060 C   0  0  0  0  0  0  0  0  0  0  0  0
   46.0790   33.5630   39.6640 C   0  0  0  0  0  0  0  0  0  0  0  0
   44.8240   33.3900   39.1360 C   0  0  0  0  0  0  0  0  0  0  0  0
   43.7360   33.7840   39.8440 C   0  0  0  0  0  0  0  0  0  0  0  0
   43.9280   34.3530   41.0870 C   0  0  0  0  0  0  0  0  0  0  0  0
   44.7180   32.9410   38.1610 H   0  0  0  0  0  0  0  0  0  0  0  0
   42.7390   33.6640   39.4680 H   0  0  0  0  0  0  0  0  0  0  0  0
   43.0550   34.6650   41.6500 H   0  0  0  0  0  0  0  0  0  0  0  0
   47.7600   31.8590   38.9380 C   0  0  0  0  0  0  0  0  0  0  0  0
   47.2330   33.1130   38.8870 C   0  0  0  0  0  0  0  0  0  0  0  0
   47.8080   34.0500   38.0490 C   0  0  0  0  0  0  0  0  0  0  0  0
   48.8960   33.7160   37.2770 C   0  0  0  0  0  0  0  0  0  0  0  0
   49.4470   32.4420   37.3120 C   0  0  0  0  0  0  0  0  0  0  0  0
   48.8620   31.5070   38.1590 C   0  0  0  0  0  0  0  0  0  0  0  0
   47.4180   35.0480   37.9870 H   0  0  0  0  0  0  0  0  0  0  0  0
   49.3210   34.4640   36.6360 H   0  0  0  0  0  0  0  0  0  0  0  0
   50.2900   32.1820   36.7120 H   0  0  0  0  0  0  0  0  0  0  0  0
   49.3010   30.5310   38.1730 H   0  0  0  0  0  0  0  0  0  0  0  0
   47.0860   30.6630   39.9080 S   0  0  0  0  0  0  0  0  0  0  0  0
   46.8500   29.3590   39.1880 O   0  0  0  0  0  0  0  0  0  0  0  0
   48.2100   30.3070   40.9270 O   0  0  0  0  0  0  0  0  0  0  0  0
   45.7720   30.8490   40.9820 C   0  0  0  0  0  3  0  0  0  0  0  0
   45.5030   29.5330   41.7560 C   0  0  0  0  0  2  0  0  0  0  0  0
   45.8150   30.7550   42.4730 C   0  0  0  0  0  2  0  0  0  0  0  0
   49.5610   35.7400   41.9180 C   0  0  0  0  0  0  0  0  0  0  0  0
   48.2950   35.5460   41.3540 C   0  0  0  0  0  0  0  0  0  0  0  0
   47.6040   34.3460   41.4900 C   0  0  0  0  0  0  0  0  0  0  0  0
   48.2430   33.4060   42.1930 N   0  0  0  0  0  0  0  0  0  0  0  0
   49.4530   33.5810   42.7360 C   0  0  0  0  0  0  0  0  0  0  0  0
   50.1050   34.7370   42.5990 N   0  0  0  0  0  0  0  0  0  0  0  0
   50.0270   36.7090   41.7620 H   0  0  0  0  0  0  0  0  0  0  0  0
   47.8250   36.3470   40.7930 H   0  0  0  0  0  0  0  0  0  0  0  0
   49.9560   32.8020   43.3060 H   0  0  0  0  0  0  0  0  0  0  0  0
  2  1  1  0  0  0  0
  3 29  1  0  0  0  0
  3  2  2  0  0  0  0
  4  3  1  0  0  0  0
  5  4  2  0  0  0  0
  5  6  1  0  0  0  0
  6  7  2  0  0  0  0
  7  2  1  0  0  0  0
  7 10  1  0  0  0  0
  8  5  1  0  0  0  0
  9  6  1  0  0  0  0
 11 21  1  0  0  0  0
 12 11  1  0  0  0  0
 12  4  1  0  0  0  0
 13 12  2  0  0  0  0
 14 15  2  0  0  0  0
 14 13  1  0  0  0  0
 15 16  1  0  0  0  0
 16 20  1  0  0  0  0
 16 11  2  0  0  0  0
 17 13  1  0  0  0  0
 18 14  1  0  0  0  0
 19 15  1  0  0  0  0
 21 23  2  0  0  0  0
 21 24  1  0  0  0  0
 22 21  2  0  0  0  0
 24 25  1  0  0  0  0
 24 26  1  0  0  0  0
 25 26  1  0  0  0  0
 27 32  1  0  0  0  0
 28 29  1  0  0  0  0
 28 27  2  0  0  0  0
 29 30  2  0  0  0  0
 30 31  1  0  0  0  0
 31 35  1  0  0  0  0
 32 31  2  0  0  0  0
 33 27  1  0  0  0  0
 34 28  1  0  0  0  0
M  END
>  <minimizedAffinity>
-4.45845461

>  <minimizedRMSD>
0.184064209

$$$$
