
 OpenBabel03242510223D

 32 35  0  0  1  0  0  0  0  0999 V2000
   46.3010   32.1130   44.4750 C   0  0  1  0  0  0  0  0  0  0  0  0
   46.4090   31.3650   43.2950 C   0  0  0  0  0  0  0  0  0  0  0  0
   47.6530   32.1090   43.8760 C   0  0  1  0  0  0  0  0  0  0  0  0
   46.1500   31.6540   45.4760 H   0  0  0  0  0  0  0  0  0  0  0  0
   46.1260   31.6250   42.2570 H   0  0  0  0  0  0  0  0  0  0  0  0
   46.4840   30.2380   43.3860 H   0  0  0  0  0  0  0  0  0  0  0  0
   48.4160   31.4050   44.2360 H   0  0  0  0  0  0  0  0  0  0  0  0
   45.0410   33.9890   43.1710 C   0  0  0  0  0  0  0  0  0  0  0  0
   45.5420   33.4520   44.4010 C   0  0  0  0  0  0  0  0  0  0  0  0
   45.3460   34.1940   45.5470 C   0  0  0  0  0  0  0  0  0  0  0  0
   44.7020   35.3760   45.4620 N   0  0  0  0  0  0  0  0  0  0  0  0
   44.2320   35.8750   44.2850 C   0  0  0  0  0  0  0  0  0  0  0  0
   44.4140   35.1470   43.1060 N   0  0  0  0  0  0  0  0  0  0  0  0
   45.1830   33.3890   42.2930 H   0  0  0  0  0  0  0  0  0  0  0  0
   45.6980   33.8490   46.5110 H   0  0  0  0  0  0  0  0  0  0  0  0
   43.7170   36.8220   44.2230 H   0  0  0  0  0  0  0  0  0  0  0  0
   48.0140   33.2440   43.1060 N   0  0  0  0  0  0  0  0  0  0  0  0
   49.2190   33.3460   42.4190 C   0  0  0  0  0  0  0  0  0  0  0  0
   50.3870   33.0190   42.7500 O   0  0  0  0  0  0  0  0  0  0  0  0
   47.4280   34.1000   42.9810 H   0  0  0  0  0  0  0  0  0  0  0  0
   49.2190   33.9370   41.0160 C   0  0  2  0  0  0  0  0  0  0  0  0
   48.6370   35.3900   40.8750 C   0  0  0  0  0  0  0  0  0  0  0  0
   47.9740   34.1750   40.2890 C   0  0  1  0  0  0  0  0  0  0  0  0
   50.1680   33.8780   40.4460 H   0  0  0  0  0  0  0  0  0  0  0  0
   48.2010   35.7860   41.8200 H   0  0  0  0  0  0  0  0  0  0  0  0
   49.0990   36.0630   40.1620 H   0  0  0  0  0  0  0  0  0  0  0  0
   47.0990   33.6670   40.7590 H   0  0  0  0  0  0  0  0  0  0  0  0
   48.0010   34.0440   38.7870 C   0  0  0  0  0  0  0  0  0  0  0  0
   48.5440   34.8930   38.0930 O   0  0  0  0  0  0  0  0  0  0  0  0
   47.3590   32.8660   38.1210 C   0  0  0  0  0  3  0  0  0  0  0  0
   46.2830   32.1090   38.7900 C   0  0  0  0  0  2  0  0  0  0  0  0
   45.9180   33.1020   37.7140 C   0  0  0  0  0  2  0  0  0  0  0  0
  1  4  1  1  0  0  0
  2  6  1  0  0  0  0
  2  3  1  0  0  0  0
  2  1  1  0  0  0  0
  3  7  1  1  0  0  0
  3  1  1  0  0  0  0
  5  2  1  0  0  0  0
  8  9  1  0  0  0  0
  9  1  1  0  0  0  0
  9 10  2  0  0  0  0
 10 15  1  0  0  0  0
 11 10  1  0  0  0  0
 12 11  2  0  0  0  0
 13  8  2  0  0  0  0
 13 12  1  0  0  0  0
 14  8  1  0  0  0  0
 16 12  1  0  0  0  0
 17  3  1  0  0  0  0
 18 19  2  0  0  0  0
 18 17  1  0  0  0  0
 20 17  1  0  0  0  0
 21 24  1  6  0  0  0
 21 18  1  0  0  0  0
 22 21  1  0  0  0  0
 22 25  1  0  0  0  0
 23 27  1  1  0  0  0
 23 22  1  0  0  0  0
 23 21  1  0  0  0  0
 26 22  1  0  0  0  0
 28 23  1  0  0  0  0
 29 28  2  0  0  0  0
 30 28  1  0  0  0  0
 30 31  1  0  0  0  0
 32 30  1  0  0  0  0
 32 31  1  0  0  0  0
M  END
>  <minimizedAffinity>
-4.4106288

>  <minimizedRMSD>
0.398904085

$$$$
