
 OpenBabel03242514213D

 43 45  0  0  0  0  0  0  0  0999 V2000
   37.9750   27.4040   42.0000 C   0  0  0  0  0  0  0  0  0  0  0  0
   37.6130   28.7300   42.0020 C   0  0  0  0  0  0  0  0  0  0  0  0
   38.5530   29.6260   42.4380 C   0  0  0  0  0  0  0  0  0  0  0  0
   39.7680   29.1900   42.8380 N   0  0  0  0  0  0  0  0  0  0  0  0
   40.1160   27.9060   42.8340 C   0  0  0  0  0  0  0  0  0  0  0  0
   39.2080   27.0460   42.4150 N   0  0  0  0  0  0  0  0  0  0  0  0
   38.4690   30.7000   42.5170 H   0  0  0  0  0  0  0  0  0  0  0  0
   41.0810   27.5300   43.1480 H   0  0  0  0  0  0  0  0  0  0  0  0
   36.9950   26.4480   41.4720 C   0  0  0  0  0  0  0  0  0  0  0  0
   36.9580   25.1900   42.2920 C   0  0  0  0  0  0  0  0  0  0  0  0
   37.3800   24.0130   41.5350 C   0  0  0  0  0  0  0  0  0  0  0  0
   36.5730   23.8340   40.2670 C   0  0  0  0  0  0  0  0  0  0  0  0
   36.3670   25.0890   39.5120 C   0  0  0  0  0  0  0  0  0  0  0  0
   37.2470   26.2030   40.0270 C   0  0  0  0  0  0  0  0  0  0  0  0
   35.9820   26.8630   41.6330 H   0  0  0  0  0  0  0  0  0  0  0  0
   37.6520   25.3300   43.1460 H   0  0  0  0  0  0  0  0  0  0  0  0
   35.9710   24.9960   42.7470 H   0  0  0  0  0  0  0  0  0  0  0  0
   38.4500   24.1060   41.2370 H   0  0  0  0  0  0  0  0  0  0  0  0
   37.1880   23.1000   42.1380 H   0  0  0  0  0  0  0  0  0  0  0  0
   35.5980   23.3370   40.4870 H   0  0  0  0  0  0  0  0  0  0  0  0
   37.1340   23.0860   39.6410 H   0  0  0  0  0  0  0  0  0  0  0  0
   36.6370   24.9300   38.4410 H   0  0  0  0  0  0  0  0  0  0  0  0
   35.2900   25.3980   39.4850 H   0  0  0  0  0  0  0  0  0  0  0  0
   38.2930   25.8740   39.8570 H   0  0  0  0  0  0  0  0  0  0  0  0
   37.0060   27.1310   39.4580 H   0  0  0  0  0  0  0  0  0  0  0  0
   36.4850   29.3470   41.6520 O   0  0  0  0  0  0  0  0  0  0  0  0
   35.9120   29.6830   40.4570 C   0  0  0  0  0  0  0  0  0  0  0  0
   36.0910   28.8320   39.7360 H   0  0  0  0  0  0  0  0  0  0  0  0
   34.8330   29.8550   40.4150 H   0  0  0  0  0  0  0  0  0  0  0  0
   36.5610   30.8800   39.7840 C   0  0  0  0  0  0  0  0  0  0  0  0
   37.6420   30.6900   39.5760 H   0  0  0  0  0  0  0  0  0  0  0  0
   36.0850   31.0820   38.8160 H   0  0  0  0  0  0  0  0  0  0  0  0
   36.5300   32.0590   40.6230 N   0  0  0  0  0  0  0  0  0  0  0  0
   36.7410   31.9010   41.6110 H   0  0  0  0  0  0  0  0  0  0  0  0
   37.6590   33.2000   39.9450 S   0  0  0  0  0  0  0  0  0  0  0  0
   38.3840   33.9370   41.0310 O   0  0  0  0  0  0  0  0  0  0  0  0
   38.4770   34.9380   41.0730 H   0  0  0  0  0  0  0  0  0  0  0  0
   36.8640   34.1600   39.1060 O   0  0  0  0  0  0  0  0  0  0  0  0
   36.7690   35.1140   39.4010 H   0  0  0  0  0  0  0  0  0  0  0  0
   38.7590   32.4400   38.9400 O   0  0  0  0  0  0  0  0  0  0  0  0
   40.0200   32.3660   39.5070 C   0  0  0  0  0  3  0  0  0  0  0  0
   40.5500   30.9230   39.5690 C   0  0  0  0  0  2  0  0  0  0  0  0
   41.1040   31.8510   38.5670 C   0  0  0  0  0  2  0  0  0  0  0  0
  1  2  2  0  0  0  0
  1  6  1  0  0  0  0
  2  3  1  0  0  0  0
  3  7  1  0  0  0  0
  3  4  2  0  0  0  0
  5  4  1  0  0  0  0
  5  8  1  0  0  0  0
  6  5  2  0  0  0  0
  9 15  1  0  0  0  0
  9  1  1  0  0  0  0
  9 10  1  0  0  0  0
 10 17  1  0  0  0  0
 10 16  1  0  0  0  0
 11 19  1  0  0  0  0
 11 10  1  0  0  0  0
 12 20  1  0  0  0  0
 12 11  1  0  0  0  0
 13 14  1  0  0  0  0
 13 12  1  0  0  0  0
 14  9  1  0  0  0  0
 18 11  1  0  0  0  0
 21 12  1  0  0  0  0
 22 13  1  0  0  0  0
 23 13  1  0  0  0  0
 24 14  1  0  0  0  0
 25 14  1  0  0  0  0
 26  2  1  0  0  0  0
 27 26  1  0  0  0  0
 28 27  1  0  0  0  0
 29 27  1  0  0  0  0
 30 27  1  0  0  0  0
 30 33  1  0  0  0  0
 31 30  1  0  0  0  0
 32 30  1  0  0  0  0
 33 34  1  0  0  0  0
 35 33  1  0  0  0  0
 35 36  1  0  0  0  0
 36 37  1  0  0  0  0
 38 39  1  0  0  0  0
 38 35  1  0  0  0  0
 40 41  1  0  0  0  0
 40 35  1  0  0  0  0
 41 42  1  0  0  0  0
 43 41  1  0  0  0  0
 43 42  1  0  0  0  0
M  END
>  <minimizedAffinity>
-5.47436237

$$$$

 OpenBabel03242514213D

 43 45  0  0  0  0  0  0  0  0999 V2000
   36.8880   29.3770   41.1380 C   0  0  0  0  0  0  0  0  0  0  0  0
   37.9110   30.1310   41.6620 C   0  0  0  0  0  0  0  0  0  0  0  0
   38.5130   29.6520   42.7960 C   0  0  0  0  0  0  0  0  0  0  0  0
   38.0950   28.4890   43.3430 N   0  0  0  0  0  0  0  0  0  0  0  0
   37.1050   27.7610   42.8330 C   0  0  0  0  0  0  0  0  0  0  0  0
   36.5270   28.2260   41.7420 N   0  0  0  0  0  0  0  0  0  0  0  0
   39.3250   30.0880   43.3590 H   0  0  0  0  0  0  0  0  0  0  0  0
   36.7510   26.8280   43.2500 H   0  0  0  0  0  0  0  0  0  0  0  0
   36.2850   29.8520   39.8870 C   0  0  0  0  0  0  0  0  0  0  0  0
   34.8630   29.3870   39.7520 C   0  0  0  0  0  0  0  0  0  0  0  0
   34.6720   28.4890   38.6140 C   0  0  0  0  0  0  0  0  0  0  0  0
   35.1450   29.1090   37.3160 C   0  0  0  0  0  0  0  0  0  0  0  0
   36.4500   29.7950   37.4270 C   0  0  0  0  0  0  0  0  0  0  0  0
   37.1420   29.4760   38.7320 C   0  0  0  0  0  0  0  0  0  0  0  0
   36.1680   30.9500   39.9530 H   0  0  0  0  0  0  0  0  0  0  0  0
   34.6020   28.8420   40.6820 H   0  0  0  0  0  0  0  0  0  0  0  0
   34.1380   30.2180   39.6870 H   0  0  0  0  0  0  0  0  0  0  0  0
   35.2480   27.5470   38.7620 H   0  0  0  0  0  0  0  0  0  0  0  0
   33.5860   28.3020   38.4730 H   0  0  0  0  0  0  0  0  0  0  0  0
   34.3680   29.7940   36.9000 H   0  0  0  0  0  0  0  0  0  0  0  0
   35.2040   28.2670   36.5710 H   0  0  0  0  0  0  0  0  0  0  0  0
   37.1250   29.4500   36.6080 H   0  0  0  0  0  0  0  0  0  0  0  0
   36.3640   30.9020   37.2710 H   0  0  0  0  0  0  0  0  0  0  0  0
   37.3350   28.3840   38.7190 H   0  0  0  0  0  0  0  0  0  0  0  0
   38.0880   30.0640   38.7790 H   0  0  0  0  0  0  0  0  0  0  0  0
   38.4580   31.2830   41.2760 O   0  0  0  0  0  0  0  0  0  0  0  0
   39.6320   31.6240   40.6640 C   0  0  0  0  0  0  0  0  0  0  0  0
   40.1780   32.3450   41.3410 H   0  0  0  0  0  0  0  0  0  0  0  0
   40.3650   30.8420   40.4480 H   0  0  0  0  0  0  0  0  0  0  0  0
   39.4450   32.4010   39.3720 C   0  0  0  0  0  0  0  0  0  0  0  0
   39.3000   31.7130   38.5040 H   0  0  0  0  0  0  0  0  0  0  0  0
   38.5490   33.0310   39.4280 H   0  0  0  0  0  0  0  0  0  0  0  0
   40.6080   33.1970   39.0440 N   0  0  0  0  0  0  0  0  0  0  0  0
   41.3580   33.1890   39.7390 H   0  0  0  0  0  0  0  0  0  0  0  0
   41.2070   32.6240   37.5110 S   0  0  0  0  0  0  0  0  0  0  0  0
   42.0810   33.6540   36.8640 O   0  0  0  0  0  0  0  0  0  0  0  0
   41.9800   33.9660   35.9120 H   0  0  0  0  0  0  0  0  0  0  0  0
   40.0090   32.3400   36.6500 O   0  0  0  0  0  0  0  0  0  0  0  0
   39.8260   32.9190   35.8510 H   0  0  0  0  0  0  0  0  0  0  0  0
   42.0520   31.1910   37.6900 O   0  0  0  0  0  0  0  0  0  0  0  0
   42.7410   30.8440   36.5400 C   0  0  0  0  0  3  0  0  0  0  0  0
   43.7960   29.7550   36.7960 C   0  0  0  0  0  2  0  0  0  0  0  0
   42.5470   29.3980   36.1000 C   0  0  0  0  0  2  0  0  0  0  0  0
  1  2  2  0  0  0  0
  1  6  1  0  0  0  0
  2  3  1  0  0  0  0
  3  4  2  0  0  0  0
  3  7  1  0  0  0  0
  5  8  1  0  0  0  0
  5  4  1  0  0  0  0
  6  5  2  0  0  0  0
  9 15  1  0  0  0  0
  9  1  1  0  0  0  0
 10  9  1  0  0  0  0
 10 16  1  0  0  0  0
 11 18  1  0  0  0  0
 11 10  1  0  0  0  0
 12 13  1  0  0  0  0
 12 11  1  0  0  0  0
 13 14  1  0  0  0  0
 14 25  1  0  0  0  0
 14  9  1  0  0  0  0
 17 10  1  0  0  0  0
 19 11  1  0  0  0  0
 20 12  1  0  0  0  0
 21 12  1  0  0  0  0
 22 13  1  0  0  0  0
 23 13  1  0  0  0  0
 24 14  1  0  0  0  0
 26  2  1  0  0  0  0
 27 26  1  0  0  0  0
 27 28  1  0  0  0  0
 29 27  1  0  0  0  0
 30 32  1  0  0  0  0
 30 27  1  0  0  0  0
 31 30  1  0  0  0  0
 33 30  1  0  0  0  0
 33 34  1  0  0  0  0
 35 40  1  0  0  0  0
 35 33  1  0  0  0  0
 36 35  1  0  0  0  0
 37 36  1  0  0  0  0
 38 35  1  0  0  0  0
 39 38  1  0  0  0  0
 41 42  1  0  0  0  0
 41 40  1  0  0  0  0
 43 41  1  0  0  0  0
 43 42  1  0  0  0  0
M  END
>  <minimizedAffinity>
-5.31554127

$$$$

 OpenBabel03242514213D

 43 45  0  0  0  0  0  0  0  0999 V2000
   38.0080   25.4840   41.7610 C   0  0  0  0  0  0  0  0  0  0  0  0
   38.3160   26.7690   42.1400 C   0  0  0  0  0  0  0  0  0  0  0  0
   39.3330   26.9190   43.0450 C   0  0  0  0  0  0  0  0  0  0  0  0
   39.9820   25.8320   43.5190 N   0  0  0  0  0  0  0  0  0  0  0  0
   39.6810   24.5890   43.1500 C   0  0  0  0  0  0  0  0  0  0  0  0
   38.7010   24.4490   42.2800 N   0  0  0  0  0  0  0  0  0  0  0  0
   39.7250   27.8330   43.4670 H   0  0  0  0  0  0  0  0  0  0  0  0
   40.1840   23.7020   43.5140 H   0  0  0  0  0  0  0  0  0  0  0  0
   36.9630   25.3230   40.7430 C   0  0  0  0  0  0  0  0  0  0  0  0
   36.2540   24.0070   40.8870 C   0  0  0  0  0  0  0  0  0  0  0  0
   36.4510   23.1330   39.7320 C   0  0  0  0  0  0  0  0  0  0  0  0
   36.0470   23.8050   38.4360 C   0  0  0  0  0  0  0  0  0  0  0  0
   36.5200   25.2020   38.3200 C   0  0  0  0  0  0  0  0  0  0  0  0
   37.5330   25.5410   39.3880 C   0  0  0  0  0  0  0  0  0  0  0  0
   36.1560   26.0490   40.9550 H   0  0  0  0  0  0  0  0  0  0  0  0
   36.6660   23.5040   41.7860 H   0  0  0  0  0  0  0  0  0  0  0  0
   35.1720   24.1140   41.0830 H   0  0  0  0  0  0  0  0  0  0  0  0
   37.5240   22.8490   39.6380 H   0  0  0  0  0  0  0  0  0  0  0  0
   35.7870   22.2480   39.8240 H   0  0  0  0  0  0  0  0  0  0  0  0
   34.9420   23.7450   38.2880 H   0  0  0  0  0  0  0  0  0  0  0  0
   36.4760   23.1740   37.6090 H   0  0  0  0  0  0  0  0  0  0  0  0
   37.0230   25.3450   37.3350 H   0  0  0  0  0  0  0  0  0  0  0  0
   35.6740   25.9380   38.3110 H   0  0  0  0  0  0  0  0  0  0  0  0
   38.4020   24.8750   39.2100 H   0  0  0  0  0  0  0  0  0  0  0  0
   37.8070   26.6170   39.2810 H   0  0  0  0  0  0  0  0  0  0  0  0
   37.8020   27.9480   41.7920 O   0  0  0  0  0  0  0  0  0  0  0  0
   36.6990   28.6590   42.1740 C   0  0  0  0  0  0  0  0  0  0  0  0
   35.9320   27.9260   42.5610 H   0  0  0  0  0  0  0  0  0  0  0  0
   36.7950   29.4010   42.9700 H   0  0  0  0  0  0  0  0  0  0  0  0
   35.9940   29.3580   41.0240 C   0  0  0  0  0  0  0  0  0  0  0  0
   36.5730   29.2570   40.0740 H   0  0  0  0  0  0  0  0  0  0  0  0
   35.0110   28.9050   40.8440 H   0  0  0  0  0  0  0  0  0  0  0  0
   35.8650   30.7820   41.2490 N   0  0  0  0  0  0  0  0  0  0  0  0
   36.0000   31.0880   42.2160 H   0  0  0  0  0  0  0  0  0  0  0  0
   37.0150   31.5720   40.2060 S   0  0  0  0  0  0  0  0  0  0  0  0
   36.9520   33.0600   40.3780 O   0  0  0  0  0  0  0  0  0  0  0  0
   36.8720   33.7160   39.6180 H   0  0  0  0  0  0  0  0  0  0  0  0
   36.6600   31.1950   38.7960 O   0  0  0  0  0  0  0  0  0  0  0  0
   36.2960   31.8930   38.1730 H   0  0  0  0  0  0  0  0  0  0  0  0
   38.5700   31.0310   40.4980 O   0  0  0  0  0  0  0  0  0  0  0  0
   39.1800   31.7240   41.5300 C   0  0  0  0  0  3  0  0  0  0  0  0
   39.8620   30.7880   42.5420 C   0  0  0  0  0  2  0  0  0  0  0  0
   40.6930   31.5550   41.5970 C   0  0  0  0  0  2  0  0  0  0  0  0
  1  2  2  0  0  0  0
  1  6  1  0  0  0  0
  2  3  1  0  0  0  0
  3  7  1  0  0  0  0
  3  4  2  0  0  0  0
  5  8  1  0  0  0  0
  5  4  1  0  0  0  0
  6  5  2  0  0  0  0
  9 10  1  0  0  0  0
  9 15  1  0  0  0  0
  9  1  1  0  0  0  0
 10 17  1  0  0  0  0
 10 16  1  0  0  0  0
 11 19  1  0  0  0  0
 11 10  1  0  0  0  0
 12 11  1  0  0  0  0
 13 12  1  0  0  0  0
 13 14  1  0  0  0  0
 14  9  1  0  0  0  0
 18 11  1  0  0  0  0
 20 12  1  0  0  0  0
 21 12  1  0  0  0  0
 22 13  1  0  0  0  0
 23 13  1  0  0  0  0
 24 14  1  0  0  0  0
 25 14  1  0  0  0  0
 26  2  1  0  0  0  0
 26 27  1  0  0  0  0
 27 28  1  0  0  0  0
 27 29  1  0  0  0  0
 30 33  1  0  0  0  0
 30 27  1  0  0  0  0
 31 30  1  0  0  0  0
 32 30  1  0  0  0  0
 33 34  1  0  0  0  0
 35 36  1  0  0  0  0
 35 40  1  0  0  0  0
 35 33  1  0  0  0  0
 37 36  1  0  0  0  0
 38 35  1  0  0  0  0
 39 38  1  0  0  0  0
 40 41  1  0  0  0  0
 41 43  1  0  0  0  0
 41 42  1  0  0  0  0
 43 42  1  0  0  0  0
M  END
>  <minimizedAffinity>
-5.25166225

$$$$

 OpenBabel03242514213D

 43 45  0  0  0  0  0  0  0  0999 V2000
   38.1810   25.5790   42.1400 C   0  0  0  0  0  0  0  0  0  0  0  0
   38.3710   26.7370   42.8550 C   0  0  0  0  0  0  0  0  0  0  0  0
   39.4930   26.8030   43.6380 C   0  0  0  0  0  0  0  0  0  0  0  0
   40.3510   25.7590   43.6790 N   0  0  0  0  0  0  0  0  0  0  0  0
   40.1640   24.6390   42.9860 C   0  0  0  0  0  0  0  0  0  0  0  0
   39.0820   24.5790   42.2340 N   0  0  0  0  0  0  0  0  0  0  0  0
   39.8220   27.6150   44.2700 H   0  0  0  0  0  0  0  0  0  0  0  0
   40.8340   23.7890   43.0000 H   0  0  0  0  0  0  0  0  0  0  0  0
   37.0150   25.5300   41.2500 C   0  0  0  0  0  0  0  0  0  0  0  0
   36.4290   24.1480   41.1880 C   0  0  0  0  0  0  0  0  0  0  0  0
   36.5200   23.5580   39.8540 C   0  0  0  0  0  0  0  0  0  0  0  0
   35.8880   24.4410   38.7990 C   0  0  0  0  0  0  0  0  0  0  0  0
   36.2390   25.8720   38.9340 C   0  0  0  0  0  0  0  0  0  0  0  0
   37.3690   26.0810   39.9150 C   0  0  0  0  0  0  0  0  0  0  0  0
   36.1980   26.1120   41.7150 H   0  0  0  0  0  0  0  0  0  0  0  0
   37.0000   23.5140   41.8970 H   0  0  0  0  0  0  0  0  0  0  0  0
   35.3820   24.1040   41.5360 H   0  0  0  0  0  0  0  0  0  0  0  0
   37.5860   23.4080   39.5680 H   0  0  0  0  0  0  0  0  0  0  0  0
   35.9390   22.6110   39.8310 H   0  0  0  0  0  0  0  0  0  0  0  0
   34.7800   24.3030   38.7800 H   0  0  0  0  0  0  0  0  0  0  0  0
   36.2380   24.0420   37.8060 H   0  0  0  0  0  0  0  0  0  0  0  0
   36.5850   26.2660   37.9500 H   0  0  0  0  0  0  0  0  0  0  0  0
   35.3510   26.5060   39.1920 H   0  0  0  0  0  0  0  0  0  0  0  0
   38.2480   25.5560   39.4890 H   0  0  0  0  0  0  0  0  0  0  0  0
   37.5480   27.1770   40.0140 H   0  0  0  0  0  0  0  0  0  0  0  0
   37.6530   27.8570   42.9450 O   0  0  0  0  0  0  0  0  0  0  0  0
   37.9340   29.1430   43.3150 C   0  0  0  0  0  0  0  0  0  0  0  0
   37.0120   29.5690   43.8080 H   0  0  0  0  0  0  0  0  0  0  0  0
   38.7380   29.3250   44.0320 H   0  0  0  0  0  0  0  0  0  0  0  0
   38.1890   30.0740   42.1420 C   0  0  0  0  0  0  0  0  0  0  0  0
   37.6000   31.0190   42.2400 H   0  0  0  0  0  0  0  0  0  0  0  0
   39.2460   30.3640   42.1040 H   0  0  0  0  0  0  0  0  0  0  0  0
   37.7760   29.4900   40.8840 N   0  0  0  0  0  0  0  0  0  0  0  0
   37.8840   28.4760   40.8130 H   0  0  0  0  0  0  0  0  0  0  0  0
   36.1080   29.9320   40.6370 S   0  0  0  0  0  0  0  0  0  0  0  0
   35.7560   31.1450   41.4420 O   0  0  0  0  0  0  0  0  0  0  0  0
   34.9530   31.2120   42.0460 H   0  0  0  0  0  0  0  0  0  0  0  0
   35.2740   28.7590   41.0690 O   0  0  0  0  0  0  0  0  0  0  0  0
   34.7030   28.8340   41.8900 H   0  0  0  0  0  0  0  0  0  0  0  0
   35.7890   30.2100   39.0190 O   0  0  0  0  0  0  0  0  0  0  0  0
   36.5620   29.4150   38.1890 C   0  0  0  0  0  3  0  0  0  0  0  0
   35.8200   29.0160   36.9030 C   0  0  0  0  0  2  0  0  0  0  0  0
   36.8800   30.0370   36.8350 C   0  0  0  0  0  2  0  0  0  0  0  0
  1  6  2  0  0  0  0
  1  2  1  0  0  0  0
  2 26  1  0  0  0  0
  2  3  2  0  0  0  0
  3  4  1  0  0  0  0
  3  7  1  0  0  0  0
  5  8  1  0  0  0  0
  5  4  2  0  0  0  0
  6  5  1  0  0  0  0
  9 15  1  0  0  0  0
  9  1  1  0  0  0  0
 10  9  1  0  0  0  0
 10 17  1  0  0  0  0
 10 16  1  0  0  0  0
 11 10  1  0  0  0  0
 12 13  1  0  0  0  0
 12 11  1  0  0  0  0
 13 23  1  0  0  0  0
 13 14  1  0  0  0  0
 14 25  1  0  0  0  0
 14  9  1  0  0  0  0
 18 11  1  0  0  0  0
 19 11  1  0  0  0  0
 20 12  1  0  0  0  0
 21 12  1  0  0  0  0
 22 13  1  0  0  0  0
 24 14  1  0  0  0  0
 26 27  1  0  0  0  0
 27 28  1  0  0  0  0
 27 29  1  0  0  0  0
 30 31  1  0  0  0  0
 30 27  1  0  0  0  0
 32 30  1  0  0  0  0
 33 30  1  0  0  0  0
 34 33  1  0  0  0  0
 35 33  1  0  0  0  0
 35 38  1  0  0  0  0
 35 36  1  0  0  0  0
 36 37  1  0  0  0  0
 38 39  1  0  0  0  0
 40 35  1  0  0  0  0
 41 40  1  0  0  0  0
 42 41  1  0  0  0  0
 43 42  1  0  0  0  0
 43 41  1  0  0  0  0
M  END
>  <minimizedAffinity>
-5.23487997

$$$$

 OpenBabel03242514213D

 43 45  0  0  0  0  0  0  0  0999 V2000
   36.6670   28.5960   39.7050 C   0  0  0  0  0  0  0  0  0  0  0  0
   37.2700   29.1980   38.6260 C   0  0  0  0  0  0  0  0  0  0  0  0
   36.4450   29.6460   37.6280 C   0  0  0  0  0  0  0  0  0  0  0  0
   35.1070   29.4880   37.7350 N   0  0  0  0  0  0  0  0  0  0  0  0
   34.5260   28.9050   38.7800 C   0  0  0  0  0  0  0  0  0  0  0  0
   35.3240   28.4740   39.7380 N   0  0  0  0  0  0  0  0  0  0  0  0
   36.7160   30.1410   36.7070 H   0  0  0  0  0  0  0  0  0  0  0  0
   33.4590   28.7650   38.8910 H   0  0  0  0  0  0  0  0  0  0  0  0
   37.5410   28.1740   40.8060 C   0  0  0  0  0  0  0  0  0  0  0  0
   36.9930   26.9650   41.5090 C   0  0  0  0  0  0  0  0  0  0  0  0
   36.6410   27.2360   42.9020 C   0  0  0  0  0  0  0  0  0  0  0  0
   37.8060   27.8100   43.6800 C   0  0  0  0  0  0  0  0  0  0  0  0
   38.5480   28.8610   42.9490 C   0  0  0  0  0  0  0  0  0  0  0  0
   37.8030   29.3180   41.7170 C   0  0  0  0  0  0  0  0  0  0  0  0
   38.4830   27.7870   40.3730 H   0  0  0  0  0  0  0  0  0  0  0  0
   36.0770   26.6520   40.9660 H   0  0  0  0  0  0  0  0  0  0  0  0
   37.6700   26.0930   41.4670 H   0  0  0  0  0  0  0  0  0  0  0  0
   35.8100   27.9760   42.9550 H   0  0  0  0  0  0  0  0  0  0  0  0
   36.3900   26.2810   43.4090 H   0  0  0  0  0  0  0  0  0  0  0  0
   38.4950   26.9980   44.0160 H   0  0  0  0  0  0  0  0  0  0  0  0
   37.3730   28.2240   44.6320 H   0  0  0  0  0  0  0  0  0  0  0  0
   38.6720   29.7550   43.6050 H   0  0  0  0  0  0  0  0  0  0  0  0
   39.5950   28.5490   42.7010 H   0  0  0  0  0  0  0  0  0  0  0  0
   36.8540   29.7640   42.0790 H   0  0  0  0  0  0  0  0  0  0  0  0
   38.4350   30.0660   41.1830 H   0  0  0  0  0  0  0  0  0  0  0  0
   38.5490   29.4430   38.3420 O   0  0  0  0  0  0  0  0  0  0  0  0
   39.1890   30.1910   37.3940 C   0  0  0  0  0  0  0  0  0  0  0  0
   40.2150   29.7460   37.2370 H   0  0  0  0  0  0  0  0  0  0  0  0
   38.7610   30.2550   36.3900 H   0  0  0  0  0  0  0  0  0  0  0  0
   39.4690   31.6200   37.8290 C   0  0  0  0  0  0  0  0  0  0  0  0
   38.5200   32.1880   37.9860 H   0  0  0  0  0  0  0  0  0  0  0  0
   40.0060   31.6320   38.7860 H   0  0  0  0  0  0  0  0  0  0  0  0
   40.2020   32.3600   36.8240 N   0  0  0  0  0  0  0  0  0  0  0  0
   39.7230   33.1810   36.4450 H   0  0  0  0  0  0  0  0  0  0  0  0
   41.7200   32.8310   37.5400 S   0  0  0  0  0  0  0  0  0  0  0  0
   41.5300   33.2330   38.9710 O   0  0  0  0  0  0  0  0  0  0  0  0
   41.8790   34.0880   39.3710 H   0  0  0  0  0  0  0  0  0  0  0  0
   42.2420   33.9900   36.7380 O   0  0  0  0  0  0  0  0  0  0  0  0
   42.2790   34.9020   37.1530 H   0  0  0  0  0  0  0  0  0  0  0  0
   42.8450   31.5980   37.4390 O   0  0  0  0  0  0  0  0  0  0  0  0
   42.6490   30.8010   36.3240 C   0  0  0  0  0  3  0  0  0  0  0  0
   43.9730   30.3640   35.6750 C   0  0  0  0  0  2  0  0  0  0  0  0
   43.1960   29.3850   36.4550 C   0  0  0  0  0  2  0  0  0  0  0  0
  1  6  1  0  0  0  0
  1  9  1  0  0  0  0
  2  1  2  0  0  0  0
  3  4  2  0  0  0  0
  3  2  1  0  0  0  0
  4  5  1  0  0  0  0
  5  8  1  0  0  0  0
  5  6  2  0  0  0  0
  7  3  1  0  0  0  0
  9 10  1  0  0  0  0
  9 14  1  0  0  0  0
 10 11  1  0  0  0  0
 11 18  1  0  0  0  0
 11 19  1  0  0  0  0
 11 12  1  0  0  0  0
 12 20  1  0  0  0  0
 12 21  1  0  0  0  0
 13 22  1  0  0  0  0
 13 12  1  0  0  0  0
 14 24  1  0  0  0  0
 14 13  1  0  0  0  0
 15  9  1  0  0  0  0
 16 10  1  0  0  0  0
 17 10  1  0  0  0  0
 23 13  1  0  0  0  0
 25 14  1  0  0  0  0
 26  2  1  0  0  0  0
 27 30  1  0  0  0  0
 27 26  1  0  0  0  0
 28 27  1  0  0  0  0
 29 27  1  0  0  0  0
 30 31  1  0  0  0  0
 30 32  1  0  0  0  0
 33 35  1  0  0  0  0
 33 30  1  0  0  0  0
 34 33  1  0  0  0  0
 35 36  1  0  0  0  0
 36 37  1  0  0  0  0
 38 39  1  0  0  0  0
 38 35  1  0  0  0  0
 40 35  1  0  0  0  0
 41 43  1  0  0  0  0
 41 40  1  0  0  0  0
 42 41  1  0  0  0  0
 42 43  1  0  0  0  0
M  END
>  <minimizedAffinity>
-5.19621134

$$$$

 OpenBabel03242514213D

 43 45  0  0  0  0  0  0  0  0999 V2000
   37.1900   29.6060   40.2880 C   0  0  0  0  0  0  0  0  0  0  0  0
   37.2100   30.9250   39.9000 C   0  0  0  0  0  0  0  0  0  0  0  0
   36.8980   31.1880   38.5920 C   0  0  0  0  0  0  0  0  0  0  0  0
   36.5890   30.1750   37.7530 N   0  0  0  0  0  0  0  0  0  0  0  0
   36.5710   28.9000   38.1310 C   0  0  0  0  0  0  0  0  0  0  0  0
   36.8720   28.6500   39.3910 N   0  0  0  0  0  0  0  0  0  0  0  0
   36.8570   32.1460   38.0940 H   0  0  0  0  0  0  0  0  0  0  0  0
   36.3280   28.0700   37.4810 H   0  0  0  0  0  0  0  0  0  0  0  0
   37.4590   29.3250   41.7030 C   0  0  0  0  0  0  0  0  0  0  0  0
   38.9290   29.1580   41.9600 C   0  0  0  0  0  0  0  0  0  0  0  0
   39.2710   27.8110   42.4120 C   0  0  0  0  0  0  0  0  0  0  0  0
   38.4780   27.4040   43.6360 C   0  0  0  0  0  0  0  0  0  0  0  0
   37.0410   27.7480   43.5530 C   0  0  0  0  0  0  0  0  0  0  0  0
   36.6450   28.1660   42.1560 C   0  0  0  0  0  0  0  0  0  0  0  0
   37.2190   30.2310   42.2890 H   0  0  0  0  0  0  0  0  0  0  0  0
   39.4580   29.3560   41.0050 H   0  0  0  0  0  0  0  0  0  0  0  0
   39.3320   29.8960   42.6750 H   0  0  0  0  0  0  0  0  0  0  0  0
   39.0540   27.0660   41.6130 H   0  0  0  0  0  0  0  0  0  0  0  0
   40.3350   27.7900   42.7310 H   0  0  0  0  0  0  0  0  0  0  0  0
   38.9360   27.8270   44.5620 H   0  0  0  0  0  0  0  0  0  0  0  0
   38.6110   26.2910   43.7400 H   0  0  0  0  0  0  0  0  0  0  0  0
   36.4270   26.8540   43.8130 H   0  0  0  0  0  0  0  0  0  0  0  0
   36.7440   28.5200   44.3100 H   0  0  0  0  0  0  0  0  0  0  0  0
   36.8180   27.2810   41.5100 H   0  0  0  0  0  0  0  0  0  0  0  0
   35.5710   28.4650   42.1720 H   0  0  0  0  0  0  0  0  0  0  0  0
   37.4830   32.0460   40.5670 O   0  0  0  0  0  0  0  0  0  0  0  0
   38.2700   33.1360   40.3180 C   0  0  0  0  0  0  0  0  0  0  0  0
   37.9080   33.6120   39.3600 H   0  0  0  0  0  0  0  0  0  0  0  0
   38.2860   33.9550   41.0420 H   0  0  0  0  0  0  0  0  0  0  0  0
   39.7210   32.7900   40.0330 C   0  0  0  0  0  0  0  0  0  0  0  0
   40.3860   33.1150   40.8700 H   0  0  0  0  0  0  0  0  0  0  0  0
   39.8460   31.7040   39.9350 H   0  0  0  0  0  0  0  0  0  0  0  0
   40.2210   33.4680   38.8570 N   0  0  0  0  0  0  0  0  0  0  0  0
   41.0730   34.0170   38.9930 H   0  0  0  0  0  0  0  0  0  0  0  0
   40.4830   32.2520   37.6360 S   0  0  0  0  0  0  0  0  0  0  0  0
   39.4370   32.3410   36.5660 O   0  0  0  0  0  0  0  0  0  0  0  0
   38.9000   31.5580   36.2320 H   0  0  0  0  0  0  0  0  0  0  0  0
   40.4140   30.9180   38.3230 O   0  0  0  0  0  0  0  0  0  0  0  0
   39.6460   30.3020   38.1310 H   0  0  0  0  0  0  0  0  0  0  0  0
   42.0050   32.3940   36.9570 O   0  0  0  0  0  0  0  0  0  0  0  0
   42.8480   31.3670   37.3450 C   0  0  0  0  0  3  0  0  0  0  0  0
   43.6230   30.7670   36.1600 C   0  0  0  0  0  2  0  0  0  0  0  0
   44.3290   31.6430   37.1120 C   0  0  0  0  0  2  0  0  0  0  0  0
  1  9  1  0  0  0  0
  2  1  1  0  0  0  0
  2 26  1  0  0  0  0
  3  2  2  0  0  0  0
  4  5  2  0  0  0  0
  4  3  1  0  0  0  0
  5  6  1  0  0  0  0
  6  1  2  0  0  0  0
  7  3  1  0  0  0  0
  8  5  1  0  0  0  0
  9 10  1  0  0  0  0
  9 14  1  0  0  0  0
  9 15  1  0  0  0  0
 10 11  1  0  0  0  0
 10 17  1  0  0  0  0
 11 19  1  0  0  0  0
 11 12  1  0  0  0  0
 12 21  1  0  0  0  0
 12 20  1  0  0  0  0
 13 12  1  0  0  0  0
 13 22  1  0  0  0  0
 13 23  1  0  0  0  0
 14 25  1  0  0  0  0
 14 13  1  0  0  0  0
 16 10  1  0  0  0  0
 18 11  1  0  0  0  0
 24 14  1  0  0  0  0
 27 26  1  0  0  0  0
 27 29  1  0  0  0  0
 28 27  1  0  0  0  0
 30 27  1  0  0  0  0
 30 31  1  0  0  0  0
 32 30  1  0  0  0  0
 33 34  1  0  0  0  0
 33 30  1  0  0  0  0
 35 38  1  0  0  0  0
 35 33  1  0  0  0  0
 36 35  1  0  0  0  0
 37 36  1  0  0  0  0
 39 38  1  0  0  0  0
 40 41  1  0  0  0  0
 40 35  1  0  0  0  0
 42 43  1  0  0  0  0
 42 41  1  0  0  0  0
 43 41  1  0  0  0  0
M  END
>  <minimizedAffinity>
-5.19318724

$$$$

 OpenBabel03242514213D

 43 45  0  0  0  0  0  0  0  0999 V2000
   37.7110   28.7710   41.3450 C   0  0  0  0  0  0  0  0  0  0  0  0
   37.8900   30.1290   41.2250 C   0  0  0  0  0  0  0  0  0  0  0  0
   36.7920   30.8670   40.8690 C   0  0  0  0  0  0  0  0  0  0  0  0
   35.6060   30.2550   40.6560 N   0  0  0  0  0  0  0  0  0  0  0  0
   35.4360   28.9410   40.7730 C   0  0  0  0  0  0  0  0  0  0  0  0
   36.4960   28.2330   41.1150 N   0  0  0  0  0  0  0  0  0  0  0  0
   36.7220   31.9350   40.7230 H   0  0  0  0  0  0  0  0  0  0  0  0
   34.4990   28.4250   40.6090 H   0  0  0  0  0  0  0  0  0  0  0  0
   38.8680   27.9850   41.7900 C   0  0  0  0  0  0  0  0  0  0  0  0
   39.0540   26.7560   40.9470 C   0  0  0  0  0  0  0  0  0  0  0  0
   38.8810   25.5200   41.7090 C   0  0  0  0  0  0  0  0  0  0  0  0
   39.7910   25.4670   42.9170 C   0  0  0  0  0  0  0  0  0  0  0  0
   39.8410   26.7330   43.6800 C   0  0  0  0  0  0  0  0  0  0  0  0
   38.7570   27.6920   43.2430 C   0  0  0  0  0  0  0  0  0  0  0  0
   39.7860   28.5620   41.5700 H   0  0  0  0  0  0  0  0  0  0  0  0
   38.2900   26.7860   40.1430 H   0  0  0  0  0  0  0  0  0  0  0  0
   40.0260   26.7290   40.4240 H   0  0  0  0  0  0  0  0  0  0  0  0
   37.8330   25.4350   42.0780 H   0  0  0  0  0  0  0  0  0  0  0  0
   39.1780   24.6560   41.0780 H   0  0  0  0  0  0  0  0  0  0  0  0
   40.8170   25.1380   42.6250 H   0  0  0  0  0  0  0  0  0  0  0  0
   39.4030   24.6320   43.5650 H   0  0  0  0  0  0  0  0  0  0  0  0
   39.6740   26.5250   44.7620 H   0  0  0  0  0  0  0  0  0  0  0  0
   40.8520   27.2150   43.6400 H   0  0  0  0  0  0  0  0  0  0  0  0
   37.7940   27.1950   43.4770 H   0  0  0  0  0  0  0  0  0  0  0  0
   38.8820   28.6430   43.8120 H   0  0  0  0  0  0  0  0  0  0  0  0
   38.9610   30.9050   41.3900 O   0  0  0  0  0  0  0  0  0  0  0  0
   39.1870   32.2500   41.2990 C   0  0  0  0  0  0  0  0  0  0  0  0
   38.1860   32.7630   41.2030 H   0  0  0  0  0  0  0  0  0  0  0  0
   39.6800   32.7630   42.1290 H   0  0  0  0  0  0  0  0  0  0  0  0
   39.9340   32.6600   40.0420 C   0  0  0  0  0  0  0  0  0  0  0  0
   40.5720   33.5590   40.2250 H   0  0  0  0  0  0  0  0  0  0  0  0
   40.6070   31.8580   39.7150 H   0  0  0  0  0  0  0  0  0  0  0  0
   39.0340   33.0370   38.9730 N   0  0  0  0  0  0  0  0  0  0  0  0
   39.2490   33.9210   38.5070 H   0  0  0  0  0  0  0  0  0  0  0  0
   39.0380   31.7340   37.8160 S   0  0  0  0  0  0  0  0  0  0  0  0
   39.8520   30.5810   38.3180 O   0  0  0  0  0  0  0  0  0  0  0  0
   40.5720   30.1200   37.7850 H   0  0  0  0  0  0  0  0  0  0  0  0
   39.6290   32.2770   36.5460 O   0  0  0  0  0  0  0  0  0  0  0  0
   40.5270   31.9510   36.2390 H   0  0  0  0  0  0  0  0  0  0  0  0
   37.4820   31.2250   37.4720 O   0  0  0  0  0  0  0  0  0  0  0  0
   37.3690   29.8460   37.4790 C   0  0  0  0  0  3  0  0  0  0  0  0
   35.9670   29.3700   37.0650 C   0  0  0  0  0  2  0  0  0  0  0  0
   37.0850   29.2280   36.1150 C   0  0  0  0  0  2  0  0  0  0  0  0
  1  9  1  0  0  0  0
  2  1  1  0  0  0  0
  2 26  1  0  0  0  0
  3  2  2  0  0  0  0
  4  5  2  0  0  0  0
  4  3  1  0  0  0  0
  5  6  1  0  0  0  0
  6  1  2  0  0  0  0
  7  3  1  0  0  0  0
  8  5  1  0  0  0  0
  9 14  1  0  0  0  0
 10 11  1  0  0  0  0
 10  9  1  0  0  0  0
 11 18  1  0  0  0  0
 11 12  1  0  0  0  0
 12 21  1  0  0  0  0
 12 13  1  0  0  0  0
 13 22  1  0  0  0  0
 14 24  1  0  0  0  0
 14 13  1  0  0  0  0
 14 25  1  0  0  0  0
 15  9  1  0  0  0  0
 16 10  1  0  0  0  0
 17 10  1  0  0  0  0
 19 11  1  0  0  0  0
 20 12  1  0  0  0  0
 23 13  1  0  0  0  0
 27 26  1  0  0  0  0
 27 29  1  0  0  0  0
 28 27  1  0  0  0  0
 30 31  1  0  0  0  0
 30 27  1  0  0  0  0
 32 30  1  0  0  0  0
 33 30  1  0  0  0  0
 34 33  1  0  0  0  0
 35 36  1  0  0  0  0
 35 33  1  0  0  0  0
 37 36  1  0  0  0  0
 38 35  1  0  0  0  0
 39 38  1  0  0  0  0
 40 41  1  0  0  0  0
 40 35  1  0  0  0  0
 42 41  1  0  0  0  0
 43 42  1  0  0  0  0
 43 41  1  0  0  0  0
M  END
>  <minimizedAffinity>
-5.08131027

$$$$

 OpenBabel03242514213D

 43 45  0  0  0  0  0  0  0  0999 V2000
   36.9150   26.0210   40.3840 C   0  0  0  0  0  0  0  0  0  0  0  0
   36.6580   26.3900   39.0850 C   0  0  0  0  0  0  0  0  0  0  0  0
   36.1020   25.4370   38.2720 C   0  0  0  0  0  0  0  0  0  0  0  0
   35.8320   24.2060   38.7590 N   0  0  0  0  0  0  0  0  0  0  0  0
   36.0820   23.8530   40.0170 C   0  0  0  0  0  0  0  0  0  0  0  0
   36.6180   24.7720   40.7970 N   0  0  0  0  0  0  0  0  0  0  0  0
   35.8260   25.5240   37.2310 H   0  0  0  0  0  0  0  0  0  0  0  0
   35.8760   22.8750   40.4330 H   0  0  0  0  0  0  0  0  0  0  0  0
   37.4500   27.0580   41.2760 C   0  0  0  0  0  0  0  0  0  0  0  0
   38.9460   27.1440   41.1830 C   0  0  0  0  0  0  0  0  0  0  0  0
   39.6080   26.7940   42.4380 C   0  0  0  0  0  0  0  0  0  0  0  0
   39.1070   27.6320   43.5960 C   0  0  0  0  0  0  0  0  0  0  0  0
   37.6370   27.7870   43.6240 C   0  0  0  0  0  0  0  0  0  0  0  0
   36.9560   26.8430   42.6610 C   0  0  0  0  0  0  0  0  0  0  0  0
   37.1330   28.0450   40.8900 H   0  0  0  0  0  0  0  0  0  0  0  0
   39.2720   26.4290   40.3990 H   0  0  0  0  0  0  0  0  0  0  0  0
   39.3050   28.1310   40.8440 H   0  0  0  0  0  0  0  0  0  0  0  0
   39.4180   25.7270   42.6940 H   0  0  0  0  0  0  0  0  0  0  0  0
   40.6920   27.0220   42.3570 H   0  0  0  0  0  0  0  0  0  0  0  0
   39.6140   28.6270   43.6110 H   0  0  0  0  0  0  0  0  0  0  0  0
   39.4670   27.1200   44.5310 H   0  0  0  0  0  0  0  0  0  0  0  0
   37.2550   27.5450   44.6430 H   0  0  0  0  0  0  0  0  0  0  0  0
   37.3170   28.8480   43.4510 H   0  0  0  0  0  0  0  0  0  0  0  0
   37.1940   25.8190   43.0140 H   0  0  0  0  0  0  0  0  0  0  0  0
   35.8600   27.0470   42.6880 H   0  0  0  0  0  0  0  0  0  0  0  0
   36.8490   27.5330   38.4280 O   0  0  0  0  0  0  0  0  0  0  0  0
   36.0180   28.5010   37.9350 C   0  0  0  0  0  0  0  0  0  0  0  0
   36.5390   28.9910   37.0610 H   0  0  0  0  0  0  0  0  0  0  0  0
   35.0390   28.2110   37.5440 H   0  0  0  0  0  0  0  0  0  0  0  0
   35.7690   29.6440   38.9040 C   0  0  0  0  0  0  0  0  0  0  0  0
   34.9870   30.3410   38.5140 H   0  0  0  0  0  0  0  0  0  0  0  0
   35.3990   29.2610   39.8640 H   0  0  0  0  0  0  0  0  0  0  0  0
   36.9490   30.4580   39.1000 N   0  0  0  0  0  0  0  0  0  0  0  0
   37.0960   31.1950   38.4070 H   0  0  0  0  0  0  0  0  0  0  0  0
   36.8340   31.1520   40.6950 S   0  0  0  0  0  0  0  0  0  0  0  0
   35.5230   30.8050   41.3310 O   0  0  0  0  0  0  0  0  0  0  0  0
   34.9060   31.4740   41.7600 H   0  0  0  0  0  0  0  0  0  0  0  0
   36.9590   32.6400   40.5350 O   0  0  0  0  0  0  0  0  0  0  0  0
   36.1640   33.2250   40.7150 H   0  0  0  0  0  0  0  0  0  0  0  0
   38.0940   30.6400   41.6690 O   0  0  0  0  0  0  0  0  0  0  0  0
   39.2660   31.3310   41.4140 C   0  0  0  0  0  3  0  0  0  0  0  0
   40.4610   30.7670   42.2010 C   0  0  0  0  0  2  0  0  0  0  0  0
   40.3600   30.4980   40.7550 C   0  0  0  0  0  2  0  0  0  0  0  0
  1  6  1  0  0  0  0
  1  9  1  0  0  0  0
  2  1  2  0  0  0  0
  3  4  2  0  0  0  0
  3  2  1  0  0  0  0
  4  5  1  0  0  0  0
  5  8  1  0  0  0  0
  5  6  2  0  0  0  0
  7  3  1  0  0  0  0
  9 14  1  0  0  0  0
 10  9  1  0  0  0  0
 10 11  1  0  0  0  0
 11 18  1  0  0  0  0
 11 12  1  0  0  0  0
 12 20  1  0  0  0  0
 12 13  1  0  0  0  0
 12 21  1  0  0  0  0
 13 22  1  0  0  0  0
 14 25  1  0  0  0  0
 14 24  1  0  0  0  0
 14 13  1  0  0  0  0
 15  9  1  0  0  0  0
 16 10  1  0  0  0  0
 17 10  1  0  0  0  0
 19 11  1  0  0  0  0
 23 13  1  0  0  0  0
 26  2  1  0  0  0  0
 27 26  1  0  0  0  0
 27 30  1  0  0  0  0
 28 27  1  0  0  0  0
 29 27  1  0  0  0  0
 30 33  1  0  0  0  0
 30 32  1  0  0  0  0
 31 30  1  0  0  0  0
 33 35  1  0  0  0  0
 34 33  1  0  0  0  0
 35 36  1  0  0  0  0
 35 40  1  0  0  0  0
 36 37  1  0  0  0  0
 38 35  1  0  0  0  0
 38 39  1  0  0  0  0
 41 40  1  0  0  0  0
 41 42  1  0  0  0  0
 43 41  1  0  0  0  0
 43 42  1  0  0  0  0
M  END
>  <minimizedAffinity>
-5.06533909

$$$$

 OpenBabel03242514213D

 43 45  0  0  0  0  0  0  0  0999 V2000
   37.4030   28.2740   39.4430 C   0  0  0  0  0  0  0  0  0  0  0  0
   38.2100   28.1890   38.3330 C   0  0  0  0  0  0  0  0  0  0  0  0
   37.6820   28.6340   37.1500 C   0  0  0  0  0  0  0  0  0  0  0  0
   36.4250   29.1280   37.1140 N   0  0  0  0  0  0  0  0  0  0  0  0
   35.6460   29.2100   38.1900 C   0  0  0  0  0  0  0  0  0  0  0  0
   36.1580   28.7800   39.3270 N   0  0  0  0  0  0  0  0  0  0  0  0
   38.1460   28.6530   36.1740 H   0  0  0  0  0  0  0  0  0  0  0  0
   34.6380   29.6010   38.1900 H   0  0  0  0  0  0  0  0  0  0  0  0
   37.9880   27.8600   40.7240 C   0  0  0  0  0  0  0  0  0  0  0  0
   37.0400   26.9970   41.5060 C   0  0  0  0  0  0  0  0  0  0  0  0
   36.6240   27.6160   42.7630 C   0  0  0  0  0  0  0  0  0  0  0  0
   37.8080   28.0050   43.6240 C   0  0  0  0  0  0  0  0  0  0  0  0
   38.8980   28.6630   42.8710 C   0  0  0  0  0  0  0  0  0  0  0  0
   38.4610   29.0500   41.4770 C   0  0  0  0  0  0  0  0  0  0  0  0
   38.8220   27.1640   40.5160 H   0  0  0  0  0  0  0  0  0  0  0  0
   36.1410   26.8350   40.8760 H   0  0  0  0  0  0  0  0  0  0  0  0
   37.4380   25.9870   41.7110 H   0  0  0  0  0  0  0  0  0  0  0  0
   36.0390   28.5430   42.5650 H   0  0  0  0  0  0  0  0  0  0  0  0
   36.0530   26.8770   43.3650 H   0  0  0  0  0  0  0  0  0  0  0  0
   38.1910   27.1220   44.1900 H   0  0  0  0  0  0  0  0  0  0  0  0
   37.4050   28.6940   44.4170 H   0  0  0  0  0  0  0  0  0  0  0  0
   39.1980   29.6020   43.3910 H   0  0  0  0  0  0  0  0  0  0  0  0
   39.8330   28.0450   42.8480 H   0  0  0  0  0  0  0  0  0  0  0  0
   37.6450   29.7900   41.6050 H   0  0  0  0  0  0  0  0  0  0  0  0
   39.3380   29.4880   40.9450 H   0  0  0  0  0  0  0  0  0  0  0  0
   39.4540   27.7400   38.1680 O   0  0  0  0  0  0  0  0  0  0  0  0
   40.6120   28.2910   37.6930 C   0  0  0  0  0  0  0  0  0  0  0  0
   41.4740   27.6820   38.0930 H   0  0  0  0  0  0  0  0  0  0  0  0
   40.7790   28.3270   36.6130 H   0  0  0  0  0  0  0  0  0  0  0  0
   40.8790   29.6940   38.2120 C   0  0  0  0  0  0  0  0  0  0  0  0
   40.0490   30.0460   38.8720 H   0  0  0  0  0  0  0  0  0  0  0  0
   41.7940   29.7120   38.8180 H   0  0  0  0  0  0  0  0  0  0  0  0
   40.9590   30.6640   37.1400 N   0  0  0  0  0  0  0  0  0  0  0  0
   40.7320   30.3090   36.2080 H   0  0  0  0  0  0  0  0  0  0  0  0
   39.8910   31.9760   37.5560 S   0  0  0  0  0  0  0  0  0  0  0  0
   38.9650   32.2880   36.4200 O   0  0  0  0  0  0  0  0  0  0  0  0
   38.8140   33.2110   36.0480 H   0  0  0  0  0  0  0  0  0  0  0  0
   40.7560   33.1650   37.8650 O   0  0  0  0  0  0  0  0  0  0  0  0
   40.7510   33.9540   37.2460 H   0  0  0  0  0  0  0  0  0  0  0  0
   39.0060   31.6240   38.9310 O   0  0  0  0  0  0  0  0  0  0  0  0
   37.7160   32.1240   38.8650 C   0  0  0  0  0  3  0  0  0  0  0  0
   37.0210   32.1320   40.2370 C   0  0  0  0  0  2  0  0  0  0  0  0
   37.4940   33.4040   39.6630 C   0  0  0  0  0  2  0  0  0  0  0  0
  1  9  1  0  0  0  0
  2  1  2  0  0  0  0
  3  2  1  0  0  0  0
  4  3  2  0  0  0  0
  4  5  1  0  0  0  0
  5  6  2  0  0  0  0
  6  1  1  0  0  0  0
  7  3  1  0  0  0  0
  8  5  1  0  0  0  0
  9 14  1  0  0  0  0
  9 10  1  0  0  0  0
 10 17  1  0  0  0  0
 10 11  1  0  0  0  0
 11 19  1  0  0  0  0
 11 12  1  0  0  0  0
 12 20  1  0  0  0  0
 12 21  1  0  0  0  0
 13 22  1  0  0  0  0
 13 12  1  0  0  0  0
 14 24  1  0  0  0  0
 14 13  1  0  0  0  0
 15  9  1  0  0  0  0
 16 10  1  0  0  0  0
 18 11  1  0  0  0  0
 23 13  1  0  0  0  0
 25 14  1  0  0  0  0
 26  2  1  0  0  0  0
 27 28  1  0  0  0  0
 27 26  1  0  0  0  0
 27 30  1  0  0  0  0
 29 27  1  0  0  0  0
 30 32  1  0  0  0  0
 30 31  1  0  0  0  0
 33 35  1  0  0  0  0
 33 30  1  0  0  0  0
 34 33  1  0  0  0  0
 35 38  1  0  0  0  0
 35 40  1  0  0  0  0
 36 35  1  0  0  0  0
 37 36  1  0  0  0  0
 39 38  1  0  0  0  0
 41 40  1  0  0  0  0
 41 43  1  0  0  0  0
 41 42  1  0  0  0  0
 43 42  1  0  0  0  0
M  END
>  <minimizedAffinity>
-4.88451767

$$$$
