
 OpenBabel03252508523D

 22 24  0  0  0  0  0  0  0  0999 V2000
   36.3950   29.7960   40.4750 C   0  0  0  0  0  0  0  0  0  0  0  0
   36.9040   30.6730   39.5220 C   0  0  0  0  0  0  0  0  0  0  0  0
   36.5950   30.4110   38.1760 C   0  0  0  0  0  0  0  0  0  0  0  0
   35.8210   29.3220   37.8940 N   0  0  0  0  0  0  0  0  0  0  0  0
   35.3550   28.5080   38.8600 C   0  0  0  0  0  0  0  0  0  0  0  0
   35.6330   28.7290   40.1610 N   0  0  0  0  0  0  0  0  0  0  0  0
   36.9840   31.0840   37.4220 H   0  0  0  0  0  0  0  0  0  0  0  0
   34.7410   27.6510   38.5780 H   0  0  0  0  0  0  0  0  0  0  0  0
   37.7200   31.8040   39.9280 C   0  0  0  0  0  0  0  0  0  0  0  0
   39.0980   31.7570   39.9820 C   0  0  0  0  0  0  0  0  0  0  0  0
   39.4520   33.0180   40.4060 C   0  0  0  0  0  0  0  0  0  0  0  0
   38.3590   33.7880   40.6010 N   0  0  0  0  0  0  0  0  0  0  0  0
   37.3270   33.0320   40.3060 N   0  0  0  0  0  0  0  0  0  0  0  0
   39.7500   30.9200   39.7440 H   0  0  0  0  0  0  0  0  0  0  0  0
   40.4940   33.3310   40.5590 H   0  0  0  0  0  0  0  0  0  0  0  0
   38.3420   34.7950   40.9250 H   0  0  0  0  0  0  0  0  0  0  0  0
   36.6940   30.0450   41.8080 O   0  0  0  0  0  0  0  0  0  0  0  0
   37.6350   29.3940   42.5580 C   0  0  0  0  0  0  0  0  0  0  0  0
   38.8290   29.7520   42.8170 O   0  0  0  0  0  0  0  0  0  0  0  0
   37.6890   28.1000   43.3390 C   0  0  0  0  0  3  0  0  0  0  0  0
   36.3930   27.4130   43.6800 C   0  0  0  0  0  2  0  0  0  0  0  0
   37.3540   26.8330   42.6900 C   0  0  0  0  0  2  0  0  0  0  0  0
  1 17  1  0  0  0  0
  2  9  1  0  0  0  0
  2  1  2  0  0  0  0
  3  2  1  0  0  0  0
  4  3  2  0  0  0  0
  4  5  1  0  0  0  0
  5  6  2  0  0  0  0
  6  1  1  0  0  0  0
  7  3  1  0  0  0  0
  8  5  1  0  0  0  0
  9 10  1  0  0  0  0
  9 13  2  0  0  0  0
 10 11  2  0  0  0  0
 11 15  1  0  0  0  0
 11 12  1  0  0  0  0
 12 16  1  0  0  0  0
 13 12  1  0  0  0  0
 14 10  1  0  0  0  0
 17 18  1  0  0  0  0
 18 19  2  0  0  0  0
 18 20  1  0  0  0  0
 20 21  1  0  0  0  0
 22 20  1  0  0  0  0
 22 21  1  0  0  0  0
M  END
>  <minimizedAffinity>
-4.65702868

$$$$

 OpenBabel03252508523D

 22 24  0  0  0  0  0  0  0  0999 V2000
   39.3870   30.6800   41.9820 C   0  0  0  0  0  0  0  0  0  0  0  0
   38.6510   30.9220   40.8270 C   0  0  0  0  0  0  0  0  0  0  0  0
   39.2520   31.7160   39.8360 C   0  0  0  0  0  0  0  0  0  0  0  0
   40.5100   32.1940   40.0690 N   0  0  0  0  0  0  0  0  0  0  0  0
   41.1750   31.9260   41.2080 C   0  0  0  0  0  0  0  0  0  0  0  0
   40.6280   31.1680   42.1800 N   0  0  0  0  0  0  0  0  0  0  0  0
   38.6920   31.9140   38.9300 H   0  0  0  0  0  0  0  0  0  0  0  0
   42.1790   32.3330   41.3430 H   0  0  0  0  0  0  0  0  0  0  0  0
   37.3170   30.3650   40.6780 C   0  0  0  0  0  0  0  0  0  0  0  0
   37.0560   29.2220   39.9500 C   0  0  0  0  0  0  0  0  0  0  0  0
   35.6940   29.0610   40.0720 C   0  0  0  0  0  0  0  0  0  0  0  0
   35.1560   30.0440   40.8270 N   0  0  0  0  0  0  0  0  0  0  0  0
   36.1560   30.8170   41.1800 N   0  0  0  0  0  0  0  0  0  0  0  0
   37.7610   28.5970   39.4080 H   0  0  0  0  0  0  0  0  0  0  0  0
   35.1420   28.2330   39.6060 H   0  0  0  0  0  0  0  0  0  0  0  0
   34.1360   30.1620   41.0810 H   0  0  0  0  0  0  0  0  0  0  0  0
   38.8030   29.8950   42.9690 O   0  0  0  0  0  0  0  0  0  0  0  0
   38.9730   28.5470   43.1320 C   0  0  0  0  0  0  0  0  0  0  0  0
   40.0270   27.8550   42.9630 O   0  0  0  0  0  0  0  0  0  0  0  0
   38.0900   27.3890   43.5410 C   0  0  0  0  0  3  0  0  0  0  0  0
   36.5980   27.5450   43.4160 C   0  0  0  0  0  2  0  0  0  0  0  0
   37.3690   26.6180   42.5290 C   0  0  0  0  0  2  0  0  0  0  0  0
  1  6  1  0  0  0  0
  1 17  1  0  0  0  0
  2  1  2  0  0  0  0
  3  4  2  0  0  0  0
  3  2  1  0  0  0  0
  4  5  1  0  0  0  0
  5  8  1  0  0  0  0
  5  6  2  0  0  0  0
  7  3  1  0  0  0  0
  9  2  1  0  0  0  0
  9 13  2  0  0  0  0
 10 11  2  0  0  0  0
 10  9  1  0  0  0  0
 11 12  1  0  0  0  0
 12 16  1  0  0  0  0
 12 13  1  0  0  0  0
 14 10  1  0  0  0  0
 15 11  1  0  0  0  0
 17 18  1  0  0  0  0
 18 20  1  0  0  0  0
 19 18  2  0  0  0  0
 21 20  1  0  0  0  0
 22 21  1  0  0  0  0
 22 20  1  0  0  0  0
M  END
>  <minimizedAffinity>
-4.6286006

$$$$

 OpenBabel03252508523D

 22 24  0  0  0  0  0  0  0  0999 V2000
   37.3090   27.0900   39.5260 C   0  0  0  0  0  0  0  0  0  0  0  0
   36.3140   28.0020   39.1900 C   0  0  0  0  0  0  0  0  0  0  0  0
   35.3760   27.6030   38.2230 C   0  0  0  0  0  0  0  0  0  0  0  0
   35.5000   26.3560   37.6810 N   0  0  0  0  0  0  0  0  0  0  0  0
   36.4860   25.5150   38.0460 C   0  0  0  0  0  0  0  0  0  0  0  0
   37.4040   25.8650   38.9700 N   0  0  0  0  0  0  0  0  0  0  0  0
   34.5940   28.3020   37.9500 H   0  0  0  0  0  0  0  0  0  0  0  0
   36.5390   24.5290   37.5810 H   0  0  0  0  0  0  0  0  0  0  0  0
   36.2700   29.3070   39.8280 C   0  0  0  0  0  0  0  0  0  0  0  0
   37.0020   30.3880   39.3810 C   0  0  0  0  0  0  0  0  0  0  0  0
   36.6650   31.3950   40.2560 C   0  0  0  0  0  0  0  0  0  0  0  0
   35.7820   30.9590   41.1810 N   0  0  0  0  0  0  0  0  0  0  0  0
   35.5600   29.6960   40.9000 N   0  0  0  0  0  0  0  0  0  0  0  0
   37.6850   30.4310   38.5360 H   0  0  0  0  0  0  0  0  0  0  0  0
   37.0760   32.4120   40.1890 H   0  0  0  0  0  0  0  0  0  0  0  0
   35.3580   31.5230   41.9690 H   0  0  0  0  0  0  0  0  0  0  0  0
   38.2420   27.4730   40.4810 O   0  0  0  0  0  0  0  0  0  0  0  0
   38.4680   26.8540   41.6800 C   0  0  0  0  0  0  0  0  0  0  0  0
   39.2450   25.8790   41.9350 O   0  0  0  0  0  0  0  0  0  0  0  0
   37.9600   27.0210   43.0950 C   0  0  0  0  0  3  0  0  0  0  0  0
   37.6160   28.4060   43.5760 C   0  0  0  0  0  2  0  0  0  0  0  0
   36.5610   27.3700   43.3410 C   0  0  0  0  0  2  0  0  0  0  0  0
  1 17  1  0  0  0  0
  2  1  1  0  0  0  0
  2  9  1  0  0  0  0
  3  2  2  0  0  0  0
  4  5  2  0  0  0  0
  4  3  1  0  0  0  0
  5  6  1  0  0  0  0
  6  1  2  0  0  0  0
  7  3  1  0  0  0  0
  8  5  1  0  0  0  0
  9 13  2  0  0  0  0
 10  9  1  0  0  0  0
 10 11  2  0  0  0  0
 11 12  1  0  0  0  0
 12 16  1  0  0  0  0
 13 12  1  0  0  0  0
 14 10  1  0  0  0  0
 15 11  1  0  0  0  0
 17 18  1  0  0  0  0
 18 19  2  0  0  0  0
 18 20  1  0  0  0  0
 20 22  1  0  0  0  0
 20 21  1  0  0  0  0
 22 21  1  0  0  0  0
M  END
>  <minimizedAffinity>
-4.51939487

$$$$

 OpenBabel03252508523D

 22 24  0  0  0  0  0  0  0  0999 V2000
   37.4540   27.9760   40.8430 C   0  0  0  0  0  0  0  0  0  0  0  0
   37.3910   29.0430   41.7330 C   0  0  0  0  0  0  0  0  0  0  0  0
   37.2990   28.7340   43.1010 C   0  0  0  0  0  0  0  0  0  0  0  0
   37.2780   27.4190   43.4640 N   0  0  0  0  0  0  0  0  0  0  0  0
   37.3420   26.4260   42.5560 C   0  0  0  0  0  0  0  0  0  0  0  0
   37.4310   26.6870   41.2360 N   0  0  0  0  0  0  0  0  0  0  0  0
   37.2500   29.5540   43.8080 H   0  0  0  0  0  0  0  0  0  0  0  0
   37.3220   25.3910   42.9020 H   0  0  0  0  0  0  0  0  0  0  0  0
   37.4210   30.4100   41.2420 C   0  0  0  0  0  0  0  0  0  0  0  0
   38.5920   31.1030   41.0140 C   0  0  0  0  0  0  0  0  0  0  0  0
   38.1630   32.3310   40.5650 C   0  0  0  0  0  0  0  0  0  0  0  0
   36.8140   32.3870   40.5210 N   0  0  0  0  0  0  0  0  0  0  0  0
   36.3910   31.2160   40.9350 N   0  0  0  0  0  0  0  0  0  0  0  0
   39.6130   30.7570   41.1570 H   0  0  0  0  0  0  0  0  0  0  0  0
   38.8490   33.1430   40.2860 H   0  0  0  0  0  0  0  0  0  0  0  0
   36.2230   33.2090   40.2150 H   0  0  0  0  0  0  0  0  0  0  0  0
   37.5450   28.2680   39.4880 O   0  0  0  0  0  0  0  0  0  0  0  0
   36.4950   28.4690   38.6340 C   0  0  0  0  0  0  0  0  0  0  0  0
   35.5190   27.6920   38.3830 O   0  0  0  0  0  0  0  0  0  0  0  0
   36.0560   29.5760   37.7020 C   0  0  0  0  0  3  0  0  0  0  0  0
   37.0610   30.6290   37.3150 C   0  0  0  0  0  2  0  0  0  0  0  0
   36.5530   29.6240   36.3280 C   0  0  0  0  0  2  0  0  0  0  0  0
  1  6  2  0  0  0  0
  1  2  1  0  0  0  0
  2  3  2  0  0  0  0
  3  4  1  0  0  0  0
  3  7  1  0  0  0  0
  5  8  1  0  0  0  0
  5  4  2  0  0  0  0
  6  5  1  0  0  0  0
  9  2  1  0  0  0  0
 10 14  1  0  0  0  0
 10  9  1  0  0  0  0
 11 10  2  0  0  0  0
 12 11  1  0  0  0  0
 12 13  1  0  0  0  0
 13  9  2  0  0  0  0
 15 11  1  0  0  0  0
 16 12  1  0  0  0  0
 17  1  1  0  0  0  0
 18 17  1  0  0  0  0
 19 18  2  0  0  0  0
 20 18  1  0  0  0  0
 21 20  1  0  0  0  0
 22 21  1  0  0  0  0
 22 20  1  0  0  0  0
M  END
>  <minimizedAffinity>
-4.38004827

$$$$

 OpenBabel03252508523D

 22 24  0  0  0  0  0  0  0  0999 V2000
   37.4340   28.3050   39.9270 C   0  0  0  0  0  0  0  0  0  0  0  0
   36.5980   29.2270   39.3060 C   0  0  0  0  0  0  0  0  0  0  0  0
   35.5860   28.7200   38.4730 C   0  0  0  0  0  0  0  0  0  0  0  0
   35.4890   27.3660   38.3290 N   0  0  0  0  0  0  0  0  0  0  0  0
   36.3280   26.5200   38.9570 C   0  0  0  0  0  0  0  0  0  0  0  0
   37.3100   26.9720   39.7630 N   0  0  0  0  0  0  0  0  0  0  0  0
   34.9260   29.4250   37.9810 H   0  0  0  0  0  0  0  0  0  0  0  0
   36.2060   25.4460   38.8070 H   0  0  0  0  0  0  0  0  0  0  0  0
   36.7860   30.6510   39.5250 C   0  0  0  0  0  0  0  0  0  0  0  0
   37.3280   31.4930   38.5760 C   0  0  0  0  0  0  0  0  0  0  0  0
   37.3210   32.7260   39.1900 C   0  0  0  0  0  0  0  0  0  0  0  0
   36.8070   32.6420   40.4380 N   0  0  0  0  0  0  0  0  0  0  0  0
   36.4920   31.3800   40.6150 N   0  0  0  0  0  0  0  0  0  0  0  0
   37.6770   31.2420   37.5780 H   0  0  0  0  0  0  0  0  0  0  0  0
   37.6900   33.6410   38.7070 H   0  0  0  0  0  0  0  0  0  0  0  0
   36.6850   33.4350   41.1270 H   0  0  0  0  0  0  0  0  0  0  0  0
   38.4370   28.7950   40.7530 O   0  0  0  0  0  0  0  0  0  0  0  0
   38.4500   28.7460   42.1200 C   0  0  0  0  0  0  0  0  0  0  0  0
   38.3540   29.7080   42.9480 O   0  0  0  0  0  0  0  0  0  0  0  0
   38.5700   27.6560   43.1620 C   0  0  0  0  0  3  0  0  0  0  0  0
   39.0790   26.3060   42.7320 C   0  0  0  0  0  2  0  0  0  0  0  0
   39.8870   27.2080   43.6120 C   0  0  0  0  0  2  0  0  0  0  0  0
  1 17  1  0  0  0  0
  2  9  1  0  0  0  0
  2  1  2  0  0  0  0
  3  2  1  0  0  0  0
  4  3  2  0  0  0  0
  4  5  1  0  0  0  0
  5  6  2  0  0  0  0
  6  1  1  0  0  0  0
  7  3  1  0  0  0  0
  8  5  1  0  0  0  0
  9 13  2  0  0  0  0
 10 11  2  0  0  0  0
 10  9  1  0  0  0  0
 11 12  1  0  0  0  0
 12 13  1  0  0  0  0
 12 16  1  0  0  0  0
 14 10  1  0  0  0  0
 15 11  1  0  0  0  0
 17 18  1  0  0  0  0
 18 19  2  0  0  0  0
 18 20  1  0  0  0  0
 20 22  1  0  0  0  0
 21 20  1  0  0  0  0
 21 22  1  0  0  0  0
M  END
>  <minimizedAffinity>
-4.36793756

$$$$

 OpenBabel03252508523D

 22 24  0  0  0  0  0  0  0  0999 V2000
   38.6330   29.9900   39.7660 C   0  0  0  0  0  0  0  0  0  0  0  0
   37.5570   30.4490   39.0120 C   0  0  0  0  0  0  0  0  0  0  0  0
   37.8190   31.4520   38.0630 C   0  0  0  0  0  0  0  0  0  0  0  0
   39.1010   31.9050   37.9420 N   0  0  0  0  0  0  0  0  0  0  0  0
   40.1040   31.4210   38.7000 C   0  0  0  0  0  0  0  0  0  0  0  0
   39.8880   30.4600   39.6210 N   0  0  0  0  0  0  0  0  0  0  0  0
   36.9920   31.8210   37.4680 H   0  0  0  0  0  0  0  0  0  0  0  0
   41.1100   31.8190   38.5620 H   0  0  0  0  0  0  0  0  0  0  0  0
   36.2290   29.9000   39.2190 C   0  0  0  0  0  0  0  0  0  0  0  0
   35.5440   29.2000   38.2460 C   0  0  0  0  0  0  0  0  0  0  0  0
   34.3540   28.8710   38.8560 C   0  0  0  0  0  0  0  0  0  0  0  0
   34.3130   29.3410   40.1230 N   0  0  0  0  0  0  0  0  0  0  0  0
   35.4560   29.9570   40.3160 N   0  0  0  0  0  0  0  0  0  0  0  0
   35.8690   28.9650   37.2360 H   0  0  0  0  0  0  0  0  0  0  0  0
   33.5590   28.3020   38.3560 H   0  0  0  0  0  0  0  0  0  0  0  0
   33.5200   29.2310   40.8140 H   0  0  0  0  0  0  0  0  0  0  0  0
   38.3860   28.9980   40.7070 O   0  0  0  0  0  0  0  0  0  0  0  0
   38.4420   29.1460   42.0660 C   0  0  0  0  0  0  0  0  0  0  0  0
   38.8490   30.1470   42.7380 O   0  0  0  0  0  0  0  0  0  0  0  0
   38.0870   28.2900   43.2610 C   0  0  0  0  0  3  0  0  0  0  0  0
   36.7510   27.5970   43.2760 C   0  0  0  0  0  2  0  0  0  0  0  0
   38.0310   26.8340   43.1360 C   0  0  0  0  0  2  0  0  0  0  0  0
  1 17  1  0  0  0  0
  2  9  1  0  0  0  0
  2  1  2  0  0  0  0
  3  2  1  0  0  0  0
  4  3  2  0  0  0  0
  4  5  1  0  0  0  0
  5  6  2  0  0  0  0
  6  1  1  0  0  0  0
  7  3  1  0  0  0  0
  8  5  1  0  0  0  0
  9 13  2  0  0  0  0
 10 11  2  0  0  0  0
 10  9  1  0  0  0  0
 11 12  1  0  0  0  0
 12 13  1  0  0  0  0
 12 16  1  0  0  0  0
 14 10  1  0  0  0  0
 15 11  1  0  0  0  0
 17 18  1  0  0  0  0
 18 19  2  0  0  0  0
 18 20  1  0  0  0  0
 20 21  1  0  0  0  0
 22 20  1  0  0  0  0
 22 21  1  0  0  0  0
M  END
>  <minimizedAffinity>
-4.29674578

$$$$

 OpenBabel03252508523D

 22 24  0  0  0  0  0  0  0  0999 V2000
   35.9040   27.1990   38.7660 C   0  0  0  0  0  0  0  0  0  0  0  0
   35.2220   28.4100   38.7060 C   0  0  0  0  0  0  0  0  0  0  0  0
   34.1290   28.4900   37.8250 C   0  0  0  0  0  0  0  0  0  0  0  0
   33.8110   27.3830   37.0920 N   0  0  0  0  0  0  0  0  0  0  0  0
   34.5090   26.2360   37.1920 C   0  0  0  0  0  0  0  0  0  0  0  0
   35.5630   26.1250   38.0270 N   0  0  0  0  0  0  0  0  0  0  0  0
   33.5870   29.4260   37.7670 H   0  0  0  0  0  0  0  0  0  0  0  0
   34.2120   25.3810   36.5830 H   0  0  0  0  0  0  0  0  0  0  0  0
   35.6420   29.5300   39.5300 C   0  0  0  0  0  0  0  0  0  0  0  0
   36.5690   30.4640   39.1140 C   0  0  0  0  0  0  0  0  0  0  0  0
   36.6660   31.3270   40.1830 C   0  0  0  0  0  0  0  0  0  0  0  0
   35.8500   30.9450   41.1900 N   0  0  0  0  0  0  0  0  0  0  0  0
   35.2440   29.8590   40.7710 N   0  0  0  0  0  0  0  0  0  0  0  0
   37.0970   30.5070   38.1650 H   0  0  0  0  0  0  0  0  0  0  0  0
   37.3280   32.2040   40.1900 H   0  0  0  0  0  0  0  0  0  0  0  0
   35.7270   31.4260   42.1230 H   0  0  0  0  0  0  0  0  0  0  0  0
   36.9850   27.1080   39.6330 O   0  0  0  0  0  0  0  0  0  0  0  0
   36.9830   26.5080   40.8630 C   0  0  0  0  0  0  0  0  0  0  0  0
   36.8340   27.0460   42.0070 O   0  0  0  0  0  0  0  0  0  0  0  0
   37.1380   25.0940   41.3750 C   0  0  0  0  0  3  0  0  0  0  0  0
   36.3120   24.0070   40.7420 C   0  0  0  0  0  2  0  0  0  0  0  0
   37.7950   24.0790   40.5530 C   0  0  0  0  0  2  0  0  0  0  0  0
  1 17  1  0  0  0  0
  2  1  1  0  0  0  0
  2  9  1  0  0  0  0
  3  2  2  0  0  0  0
  4  5  2  0  0  0  0
  4  3  1  0  0  0  0
  5  6  1  0  0  0  0
  6  1  2  0  0  0  0
  7  3  1  0  0  0  0
  8  5  1  0  0  0  0
  9 13  2  0  0  0  0
 10  9  1  0  0  0  0
 10 11  2  0  0  0  0
 11 15  1  0  0  0  0
 11 12  1  0  0  0  0
 12 16  1  0  0  0  0
 13 12  1  0  0  0  0
 14 10  1  0  0  0  0
 17 18  1  0  0  0  0
 18 20  1  0  0  0  0
 18 19  2  0  0  0  0
 21 20  1  0  0  0  0
 22 21  1  0  0  0  0
 22 20  1  0  0  0  0
M  END
>  <minimizedAffinity>
-4.24204731

$$$$

 OpenBabel03252508523D

 22 24  0  0  0  0  0  0  0  0999 V2000
   37.0310   30.8040   40.3590 C   0  0  0  0  0  0  0  0  0  0  0  0
   37.1180   30.1470   39.1360 C   0  0  0  0  0  0  0  0  0  0  0  0
   37.3710   30.9350   38.0000 C   0  0  0  0  0  0  0  0  0  0  0  0
   37.5150   32.2810   38.1690 N   0  0  0  0  0  0  0  0  0  0  0  0
   37.4210   32.8630   39.3800 C   0  0  0  0  0  0  0  0  0  0  0  0
   37.1780   32.1380   40.4910 N   0  0  0  0  0  0  0  0  0  0  0  0
   37.4420   30.4380   37.0390 H   0  0  0  0  0  0  0  0  0  0  0  0
   37.5440   33.9440   39.4580 H   0  0  0  0  0  0  0  0  0  0  0  0
   36.9490   28.7060   39.0640 C   0  0  0  0  0  0  0  0  0  0  0  0
   38.0090   27.8290   38.9550 C   0  0  0  0  0  0  0  0  0  0  0  0
   37.4060   26.5910   38.9190 C   0  0  0  0  0  0  0  0  0  0  0  0
   36.0620   26.7040   39.0000 N   0  0  0  0  0  0  0  0  0  0  0  0
   35.8130   27.9900   39.0870 N   0  0  0  0  0  0  0  0  0  0  0  0
   39.0700   28.0620   38.9090 H   0  0  0  0  0  0  0  0  0  0  0  0
   37.9680   25.6510   38.8350 H   0  0  0  0  0  0  0  0  0  0  0  0
   35.3580   25.9150   38.9960 H   0  0  0  0  0  0  0  0  0  0  0  0
   36.7820   30.0360   41.4890 O   0  0  0  0  0  0  0  0  0  0  0  0
   37.7190   29.3780   42.2390 C   0  0  0  0  0  0  0  0  0  0  0  0
   38.9240   29.7120   42.4730 O   0  0  0  0  0  0  0  0  0  0  0  0
   37.7540   28.0980   43.0440 C   0  0  0  0  0  3  0  0  0  0  0  0
   36.4770   27.6120   43.6750 C   0  0  0  0  0  2  0  0  0  0  0  0
   37.1150   26.8860   42.5320 C   0  0  0  0  0  2  0  0  0  0  0  0
  1  6  1  0  0  0  0
  1 17  1  0  0  0  0
  2  1  2  0  0  0  0
  3  4  2  0  0  0  0
  3  2  1  0  0  0  0
  4  5  1  0  0  0  0
  5  8  1  0  0  0  0
  5  6  2  0  0  0  0
  7  3  1  0  0  0  0
  9 13  2  0  0  0  0
  9  2  1  0  0  0  0
 10  9  1  0  0  0  0
 11 10  2  0  0  0  0
 11 12  1  0  0  0  0
 12 13  1  0  0  0  0
 14 10  1  0  0  0  0
 15 11  1  0  0  0  0
 16 12  1  0  0  0  0
 17 18  1  0  0  0  0
 18 19  2  0  0  0  0
 18 20  1  0  0  0  0
 20 21  1  0  0  0  0
 22 20  1  0  0  0  0
 22 21  1  0  0  0  0
M  END
>  <minimizedAffinity>
-4.17173862

$$$$

 OpenBabel03252508523D

 22 24  0  0  0  0  0  0  0  0999 V2000
   37.6710   30.5550   40.0950 C   0  0  0  0  0  0  0  0  0  0  0  0
   37.2090   30.9970   38.8600 C   0  0  0  0  0  0  0  0  0  0  0  0
   37.3320   32.3690   38.5800 C   0  0  0  0  0  0  0  0  0  0  0  0
   37.8930   33.1720   39.5310 N   0  0  0  0  0  0  0  0  0  0  0  0
   38.3240   32.6870   40.7110 C   0  0  0  0  0  0  0  0  0  0  0  0
   38.2210   31.3760   41.0120 N   0  0  0  0  0  0  0  0  0  0  0  0
   36.9770   32.7300   37.6220 H   0  0  0  0  0  0  0  0  0  0  0  0
   38.7660   33.3730   41.4350 H   0  0  0  0  0  0  0  0  0  0  0  0
   36.6260   30.0590   37.9160 C   0  0  0  0  0  0  0  0  0  0  0  0
   37.3210   29.5400   36.8430 C   0  0  0  0  0  0  0  0  0  0  0  0
   36.4070   28.7130   36.2300 C   0  0  0  0  0  0  0  0  0  0  0  0
   35.2260   28.7260   36.8860 N   0  0  0  0  0  0  0  0  0  0  0  0
   35.3840   29.5450   37.8990 N   0  0  0  0  0  0  0  0  0  0  0  0
   38.3500   29.7390   36.5530 H   0  0  0  0  0  0  0  0  0  0  0  0
   36.6340   28.1310   35.3260 H   0  0  0  0  0  0  0  0  0  0  0  0
   34.3540   28.1840   36.6320 H   0  0  0  0  0  0  0  0  0  0  0  0
   37.5540   29.2010   40.3820 O   0  0  0  0  0  0  0  0  0  0  0  0
   36.6490   28.6340   41.2360 C   0  0  0  0  0  0  0  0  0  0  0  0
   35.3820   28.5830   41.1280 O   0  0  0  0  0  0  0  0  0  0  0  0
   36.7220   27.8900   42.5510 C   0  0  0  0  0  3  0  0  0  0  0  0
   38.0120   27.2050   42.9170 C   0  0  0  0  0  2  0  0  0  0  0  0
   37.5270   28.4160   43.6530 C   0  0  0  0  0  2  0  0  0  0  0  0
  1 17  1  0  0  0  0
  1  6  1  0  0  0  0
  2  1  2  0  0  0  0
  3  2  1  0  0  0  0
  3  4  2  0  0  0  0
  4  5  1  0  0  0  0
  5  6  2  0  0  0  0
  5  8  1  0  0  0  0
  7  3  1  0  0  0  0
  9  2  1  0  0  0  0
 10  9  1  0  0  0  0
 11 10  2  0  0  0  0
 11 12  1  0  0  0  0
 12 13  1  0  0  0  0
 13  9  2  0  0  0  0
 14 10  1  0  0  0  0
 15 11  1  0  0  0  0
 16 12  1  0  0  0  0
 17 18  1  0  0  0  0
 18 20  1  0  0  0  0
 19 18  2  0  0  0  0
 20 21  1  0  0  0  0
 20 22  1  0  0  0  0
 21 22  1  0  0  0  0
M  END
>  <minimizedAffinity>
-4.15996313

$$$$
