
 OpenBabel03252509083D

 35 38  0  0  0  0  0  0  0  0999 V2000
   45.3830   35.3100   43.2460 Cl  0  0  0  0  0  0  0  0  0  0  0  0
   45.2060   34.5550   41.6840 C   0  0  0  0  0  0  0  0  0  0  0  0
   46.2760   34.1510   40.9670 C   0  0  0  0  0  0  0  0  0  0  0  0
   46.0360   33.5710   39.7340 C   0  0  0  0  0  0  0  0  0  0  0  0
   44.7680   33.4040   39.2380 C   0  0  0  0  0  0  0  0  0  0  0  0
   43.7000   33.8150   39.9680 C   0  0  0  0  0  0  0  0  0  0  0  0
   43.9270   34.3940   41.2000 C   0  0  0  0  0  0  0  0  0  0  0  0
   44.6350   32.9480   38.2690 H   0  0  0  0  0  0  0  0  0  0  0  0
   42.6930   33.7010   39.6150 H   0  0  0  0  0  0  0  0  0  0  0  0
   43.0700   34.7190   41.7800 H   0  0  0  0  0  0  0  0  0  0  0  0
   47.5980   31.8120   38.8830 C   0  0  0  0  0  0  0  0  0  0  0  0
   47.1670   33.1030   38.9360 C   0  0  0  0  0  0  0  0  0  0  0  0
   47.8260   34.0620   38.1890 C   0  0  0  0  0  0  0  0  0  0  0  0
   48.9000   33.7130   37.4040 C   0  0  0  0  0  0  0  0  0  0  0  0
   49.3540   32.4030   37.3340 C   0  0  0  0  0  0  0  0  0  0  0  0
   48.6850   31.4460   38.0900 C   0  0  0  0  0  0  0  0  0  0  0  0
   47.5120   35.0880   38.2090 H   0  0  0  0  0  0  0  0  0  0  0  0
   49.3910   34.4790   36.8350 H   0  0  0  0  0  0  0  0  0  0  0  0
   50.1860   32.1320   36.7240 H   0  0  0  0  0  0  0  0  0  0  0  0
   49.0500   30.4420   38.0240 H   0  0  0  0  0  0  0  0  0  0  0  0
   46.8190   30.5920   39.7370 S   0  0  0  0  0  0  0  0  0  0  0  0
   47.4710   29.2400   39.5950 O   0  0  0  0  0  0  0  0  0  0  0  0
   47.0630   30.9470   41.2350 O   0  0  0  0  0  0  0  0  0  0  0  0
   45.1380   30.2990   39.7810 C   0  0  0  0  0  3  0  0  0  0  0  0
   44.6000   29.9730   38.3630 C   0  0  0  0  0  2  0  0  0  0  0  0
   44.4430   29.0200   39.4470 C   0  0  0  0  0  2  0  0  0  0  0  0
   49.5760   35.7460   41.9160 C   0  0  0  0  0  0  0  0  0  0  0  0
   48.2950   35.5590   41.3840 C   0  0  0  0  0  0  0  0  0  0  0  0
   47.6110   34.3550   41.5170 C   0  0  0  0  0  0  0  0  0  0  0  0
   48.2710   33.4040   42.1860 N   0  0  0  0  0  0  0  0  0  0  0  0
   49.4940   33.5720   42.6980 C   0  0  0  0  0  0  0  0  0  0  0  0
   50.1410   34.7330   42.5640 N   0  0  0  0  0  0  0  0  0  0  0  0
   50.0360   36.7200   41.7650 H   0  0  0  0  0  0  0  0  0  0  0  0
   47.8080   36.3690   40.8510 H   0  0  0  0  0  0  0  0  0  0  0  0
   50.0140   32.7850   43.2390 H   0  0  0  0  0  0  0  0  0  0  0  0
  2  1  1  0  0  0  0
  3 29  1  0  0  0  0
  3  2  2  0  0  0  0
  4  3  1  0  0  0  0
  5  4  2  0  0  0  0
  5  6  1  0  0  0  0
  6  7  2  0  0  0  0
  7  2  1  0  0  0  0
  7 10  1  0  0  0  0
  8  5  1  0  0  0  0
  9  6  1  0  0  0  0
 11 12  1  0  0  0  0
 11 21  1  0  0  0  0
 12  4  1  0  0  0  0
 13 17  1  0  0  0  0
 13 12  2  0  0  0  0
 14 13  1  0  0  0  0
 15 14  2  0  0  0  0
 15 16  1  0  0  0  0
 16 11  2  0  0  0  0
 18 14  1  0  0  0  0
 19 15  1  0  0  0  0
 20 16  1  0  0  0  0
 21 24  1  0  0  0  0
 21 23  2  0  0  0  0
 22 21  2  0  0  0  0
 25 26  1  0  0  0  0
 25 24  1  0  0  0  0
 26 24  1  0  0  0  0
 27 32  1  0  0  0  0
 28 29  1  0  0  0  0
 28 27  2  0  0  0  0
 29 30  2  0  0  0  0
 30 31  1  0  0  0  0
 31 35  1  0  0  0  0
 32 31  2  0  0  0  0
 33 27  1  0  0  0  0
 34 28  1  0  0  0  0
M  END
>  <minimizedAffinity>
-4.4246912

>  <minimizedRMSD>
1.04017043

$$$$
