
 OpenBabel03252509293D

 15 16  0  0  0  0  0  0  0  0999 V2000
   44.5940   35.9460   44.4920 C   0  0  0  0  0  0  0  0  0  0  0  0
   45.3840   35.6570   43.3640 C   0  0  0  0  0  0  0  0  0  0  0  0
   46.2080   34.5410   43.4440 C   0  0  0  0  0  0  0  0  0  0  0  0
   46.2150   33.7940   44.5770 N   0  0  0  0  0  0  0  0  0  0  0  0
   45.4400   34.1040   45.6390 C   0  0  0  0  0  0  0  0  0  0  0  0
   44.6360   35.1830   45.5800 N   0  0  0  0  0  0  0  0  0  0  0  0
   43.9300   36.8030   44.4920 H   0  0  0  0  0  0  0  0  0  0  0  0
   45.2950   36.3150   42.5310 H   0  0  0  0  0  0  0  0  0  0  0  0
   45.4160   33.5370   46.5570 H   0  0  0  0  0  0  0  0  0  0  0  0
   47.0270   34.2480   42.2670 C   0  0  0  0  0  0  0  0  0  0  0  0
   46.3820   33.9130   41.4330 H   0  0  0  0  0  0  0  0  0  0  0  0
   47.6470   33.3500   42.5290 H   0  0  0  0  0  0  0  0  0  0  0  0
   47.8850   35.4260   41.9130 C   0  0  0  0  0  3  0  0  0  0  0  0
   49.3680   35.2000   42.1020 C   0  0  0  0  0  2  0  0  0  0  0  0
   48.7660   35.4180   40.7250 C   0  0  0  0  0  2  0  0  0  0  0  0
  1  7  1  0  0  0  0
  1  6  1  0  0  0  0
  2  3  1  0  0  0  0
  2  1  2  0  0  0  0
  3  4  2  0  0  0  0
  4  5  1  0  0  0  0
  5  9  1  0  0  0  0
  6  5  2  0  0  0  0
  8  2  1  0  0  0  0
 10 12  1  0  0  0  0
 10  3  1  0  0  0  0
 11 10  1  0  0  0  0
 13 14  1  0  0  0  0
 13 10  1  0  0  0  0
 15 13  1  0  0  0  0
 15 14  1  0  0  0  0
M  END
>  <minimizedAffinity>
-4.14671326

>  <minimizedRMSD>
1.64136708

$$$$
