
 OpenBabel03242523173D

 21 24  0  0  1  0  0  0  0  0999 V2000
   36.5790   27.3770   41.1000 C   0  0  0  0  0  0  0  0  0  0  0  0
   36.0830   28.2820   40.2160 C   0  0  0  0  0  0  0  0  0  0  0  0
   35.9900   27.8610   38.9020 C   0  0  0  0  0  0  0  0  0  0  0  0
   36.4060   26.5670   38.5960 N   0  0  0  0  0  0  0  0  0  0  0  0
   36.8850   25.7260   39.5050 C   0  0  0  0  0  0  0  0  0  0  0  0
   36.9910   26.1120   40.8210 N   0  0  0  0  0  0  0  0  0  0  0  0
   35.6120   28.4910   38.1120 H   0  0  0  0  0  0  0  0  0  0  0  0
   37.1450   24.7800   39.0420 H   0  0  0  0  0  0  0  0  0  0  0  0
   35.7320   29.6190   40.5220 C   0  0  0  0  0  0  0  0  0  0  0  0
   36.3740   30.5720   41.2440 C   0  0  0  0  0  0  0  0  0  0  0  0
   36.4510   30.8010   39.7390 C   0  0  0  0  0  0  0  0  0  0  0  0
   34.6510   29.8060   40.0840 H   0  0  0  0  0  0  0  0  0  0  0  0
   35.8600   31.3690   41.8570 H   0  0  0  0  0  0  0  0  0  0  0  0
   37.4070   30.4140   41.6620 H   0  0  0  0  0  0  0  0  0  0  0  0
   37.3490   30.4900   39.1790 H   0  0  0  0  0  0  0  0  0  0  0  0
   35.8710   31.6440   39.4010 H   0  0  0  0  0  0  0  0  0  0  0  0
   36.6900   27.5100   42.5300 C   0  0  2  0  0  3  0  0  0  0  0  0
   36.2920   27.4730   43.6800 O   0  0  0  0  0  0  0  0  0  0  0  0
   37.7360   27.8970   43.5310 C   0  0  0  0  0  0  0  0  0  0  0  0
   38.9750   28.5040   42.9280 C   0  0  0  0  0  2  0  0  0  0  0  0
   39.0300   27.2060   43.6280 C   0  0  0  0  0  2  0  0  0  0  0  0
  2  9  1  0  0  0  0
  2  1  2  0  0  0  0
  3  2  1  0  0  0  0
  4  3  2  0  0  0  0
  4  5  1  0  0  0  0
  5  6  2  0  0  0  0
  6  1  1  0  0  0  0
  7  3  1  0  0  0  0
  8  5  1  0  0  0  0
  9 10  1  0  0  0  0
 10 14  1  0  0  0  0
 10 13  1  0  0  0  0
 11  9  1  0  0  0  0
 11 10  1  0  0  0  0
 12  9  1  0  0  0  0
 15 11  1  0  0  0  0
 16 11  1  0  0  0  0
 17  1  1  6  0  0  0
 17 19  1  0  0  0  0
 17 18  1  0  0  0  0
 19 21  1  0  0  0  0
 19 18  1  0  0  0  0
 20 19  1  0  0  0  0
 20 21  1  0  0  0  0
M  END
>  <minimizedAffinity>
-4.15185547

$$$$

 OpenBabel03242523173D

 21 24  0  0  1  0  0  0  0  0999 V2000
   38.5420   26.3890   43.0290 C   0  0  0  0  0  0  0  0  0  0  0  0
   38.7590   25.0860   42.7140 C   0  0  0  0  0  0  0  0  0  0  0  0
   40.0540   24.6280   42.8790 C   0  0  0  0  0  0  0  0  0  0  0  0
   41.0140   25.5240   43.3450 N   0  0  0  0  0  0  0  0  0  0  0  0
   40.7400   26.7900   43.6360 C   0  0  0  0  0  0  0  0  0  0  0  0
   39.4640   27.2780   43.4830 N   0  0  0  0  0  0  0  0  0  0  0  0
   40.3460   23.6120   42.6610 H   0  0  0  0  0  0  0  0  0  0  0  0
   41.6360   27.2980   43.9790 H   0  0  0  0  0  0  0  0  0  0  0  0
   37.7950   24.2020   42.1710 C   0  0  0  0  0  0  0  0  0  0  0  0
   36.8490   24.3840   41.2160 C   0  0  0  0  0  0  0  0  0  0  0  0
   38.0480   23.5790   40.7300 C   0  0  0  0  0  0  0  0  0  0  0  0
   37.8740   23.1880   42.7710 H   0  0  0  0  0  0  0  0  0  0  0  0
   35.8450   23.8670   41.1990 H   0  0  0  0  0  0  0  0  0  0  0  0
   36.7650   25.3410   40.6290 H   0  0  0  0  0  0  0  0  0  0  0  0
   38.8520   24.0760   40.1590 H   0  0  0  0  0  0  0  0  0  0  0  0
   37.8270   22.5400   40.5550 H   0  0  0  0  0  0  0  0  0  0  0  0
   37.2860   27.0940   43.0490 C   0  0  2  0  0  3  0  0  0  0  0  0
   36.2330   27.4680   43.5330 O   0  0  0  0  0  0  0  0  0  0  0  0
   36.4890   27.9670   42.1290 C   0  0  0  0  0  0  0  0  0  0  0  0
   37.0700   28.1040   40.7470 C   0  0  0  0  0  2  0  0  0  0  0  0
   36.9810   29.2670   41.6500 C   0  0  0  0  0  2  0  0  0  0  0  0
  1  6  1  0  0  0  0
  2  3  1  0  0  0  0
  2  1  2  0  0  0  0
  3  4  2  0  0  0  0
  4  5  1  0  0  0  0
  5  8  1  0  0  0  0
  6  5  2  0  0  0  0
  7  3  1  0  0  0  0
  9  2  1  0  0  0  0
  9 12  1  0  0  0  0
 10  9  1  0  0  0  0
 11 10  1  0  0  0  0
 11  9  1  0  0  0  0
 13 10  1  0  0  0  0
 14 10  1  0  0  0  0
 15 11  1  0  0  0  0
 16 11  1  0  0  0  0
 17  1  1  6  0  0  0
 17 18  1  0  0  0  0
 19 17  1  0  0  0  0
 19 18  1  0  0  0  0
 20 21  1  0  0  0  0
 20 19  1  0  0  0  0
 21 19  1  0  0  0  0
M  END
>  <minimizedAffinity>
-4.1342721

$$$$

 OpenBabel03242523173D

 21 24  0  0  1  0  0  0  0  0999 V2000
   36.8140   28.9280   41.7880 C   0  0  0  0  0  0  0  0  0  0  0  0
   37.7330   29.9260   41.8290 C   0  0  0  0  0  0  0  0  0  0  0  0
   37.5380   30.9710   40.9440 C   0  0  0  0  0  0  0  0  0  0  0  0
   36.4350   30.9140   40.0940 N   0  0  0  0  0  0  0  0  0  0  0  0
   35.5690   29.9080   40.0990 C   0  0  0  0  0  0  0  0  0  0  0  0
   35.7330   28.8540   40.9670 N   0  0  0  0  0  0  0  0  0  0  0  0
   38.2030   31.8190   40.8850 H   0  0  0  0  0  0  0  0  0  0  0  0
   34.7940   30.0760   39.3580 H   0  0  0  0  0  0  0  0  0  0  0  0
   38.8920   29.9410   42.6440 C   0  0  0  0  0  0  0  0  0  0  0  0
   39.9880   29.1410   42.6570 C   0  0  0  0  0  0  0  0  0  0  0  0
   40.2480   30.5110   42.0410 C   0  0  0  0  0  0  0  0  0  0  0  0
   38.7400   30.7870   43.4530 H   0  0  0  0  0  0  0  0  0  0  0  0
   40.5780   28.8760   43.5820 H   0  0  0  0  0  0  0  0  0  0  0  0
   40.1530   28.3360   41.8880 H   0  0  0  0  0  0  0  0  0  0  0  0
   40.2380   30.6320   40.9440 H   0  0  0  0  0  0  0  0  0  0  0  0
   40.8740   31.1440   42.6470 H   0  0  0  0  0  0  0  0  0  0  0  0
   36.7160   27.7830   42.6560 C   0  0  2  0  0  3  0  0  0  0  0  0
   36.2690   27.1290   43.5810 O   0  0  0  0  0  0  0  0  0  0  0  0
   37.3840   26.4510   42.8170 C   0  0  0  0  0  0  0  0  0  0  0  0
   38.2000   26.0210   41.6270 C   0  0  0  0  0  2  0  0  0  0  0  0
   36.9950   25.2720   42.0300 C   0  0  0  0  0  2  0  0  0  0  0  0
  1  2  1  0  0  0  0
  2  9  1  0  0  0  0
  3  2  2  0  0  0  0
  4  5  2  0  0  0  0
  4  3  1  0  0  0  0
  5  6  1  0  0  0  0
  6  1  2  0  0  0  0
  7  3  1  0  0  0  0
  8  5  1  0  0  0  0
  9 10  1  0  0  0  0
  9 12  1  0  0  0  0
 10 13  1  0  0  0  0
 11  9  1  0  0  0  0
 11 16  1  0  0  0  0
 11 10  1  0  0  0  0
 14 10  1  0  0  0  0
 15 11  1  0  0  0  0
 17  1  1  1  0  0  0
 17 19  1  0  0  0  0
 17 18  1  0  0  0  0
 19 18  1  0  0  0  0
 20 21  1  0  0  0  0
 20 19  1  0  0  0  0
 21 19  1  0  0  0  0
M  END
>  <minimizedAffinity>
-4.09225512

$$$$

 OpenBabel03242523173D

 21 24  0  0  1  0  0  0  0  0999 V2000
   38.5050   29.8260   41.5700 C   0  0  0  0  0  0  0  0  0  0  0  0
   38.3810   31.0850   41.0770 C   0  0  0  0  0  0  0  0  0  0  0  0
   39.4510   31.9340   41.3000 C   0  0  0  0  0  0  0  0  0  0  0  0
   40.5480   31.4380   42.0000 N   0  0  0  0  0  0  0  0  0  0  0  0
   40.6110   30.1940   42.4590 C   0  0  0  0  0  0  0  0  0  0  0  0
   39.5660   29.3230   42.2550 N   0  0  0  0  0  0  0  0  0  0  0  0
   39.4660   32.9570   40.9560 H   0  0  0  0  0  0  0  0  0  0  0  0
   41.5540   30.0290   42.9710 H   0  0  0  0  0  0  0  0  0  0  0  0
   37.2320   31.6040   40.4320 C   0  0  0  0  0  0  0  0  0  0  0  0
   37.0680   32.6760   39.6180 C   0  0  0  0  0  0  0  0  0  0  0  0
   37.0430   31.3460   38.8740 C   0  0  0  0  0  0  0  0  0  0  0  0
   36.3100   30.9560   40.7870 H   0  0  0  0  0  0  0  0  0  0  0  0
   36.1340   33.3080   39.5670 H   0  0  0  0  0  0  0  0  0  0  0  0
   37.9370   33.2980   39.2620 H   0  0  0  0  0  0  0  0  0  0  0  0
   37.9520   30.9820   38.3640 H   0  0  0  0  0  0  0  0  0  0  0  0
   36.0710   31.0830   38.4940 H   0  0  0  0  0  0  0  0  0  0  0  0
   37.6010   28.7180   41.3970 C   0  0  2  0  0  3  0  0  0  0  0  0
   37.0570   27.8170   40.7860 O   0  0  0  0  0  0  0  0  0  0  0  0
   36.5950   27.9690   42.2170 C   0  0  0  0  0  0  0  0  0  0  0  0
   36.9450   27.8590   43.6780 C   0  0  0  0  0  2  0  0  0  0  0  0
   36.8860   26.6600   42.8210 C   0  0  0  0  0  2  0  0  0  0  0  0
  1  6  1  0  0  0  0
  2  3  1  0  0  0  0
  2  1  2  0  0  0  0
  3  4  2  0  0  0  0
  4  5  1  0  0  0  0
  5  8  1  0  0  0  0
  6  5  2  0  0  0  0
  7  3  1  0  0  0  0
  9 12  1  0  0  0  0
  9  2  1  0  0  0  0
 10  9  1  0  0  0  0
 11 10  1  0  0  0  0
 11  9  1  0  0  0  0
 13 10  1  0  0  0  0
 14 10  1  0  0  0  0
 15 11  1  0  0  0  0
 16 11  1  0  0  0  0
 17  1  1  6  0  0  0
 17 19  1  0  0  0  0
 18 17  1  0  0  0  0
 18 19  1  0  0  0  0
 19 21  1  0  0  0  0
 19 20  1  0  0  0  0
 21 20  1  0  0  0  0
M  END
>  <minimizedAffinity>
-4.01100779

$$$$

 OpenBabel03242523173D

 21 24  0  0  1  0  0  0  0  0999 V2000
   36.9590   26.4620   40.3760 C   0  0  0  0  0  0  0  0  0  0  0  0
   37.1980   25.9730   41.6200 C   0  0  0  0  0  0  0  0  0  0  0  0
   36.9700   24.6200   41.7960 C   0  0  0  0  0  0  0  0  0  0  0  0
   36.5190   23.8830   40.7040 N   0  0  0  0  0  0  0  0  0  0  0  0
   36.3030   24.4180   39.5090 C   0  0  0  0  0  0  0  0  0  0  0  0
   36.5200   25.7600   39.2980 N   0  0  0  0  0  0  0  0  0  0  0  0
   37.1240   24.1200   42.7400 H   0  0  0  0  0  0  0  0  0  0  0  0
   35.9570   23.6600   38.8130 H   0  0  0  0  0  0  0  0  0  0  0  0
   37.5840   26.7440   42.7440 C   0  0  0  0  0  0  0  0  0  0  0  0
   37.7400   28.0820   42.9030 C   0  0  0  0  0  0  0  0  0  0  0  0
   36.4690   27.5430   43.5480 C   0  0  0  0  0  0  0  0  0  0  0  0
   37.8570   25.9870   43.6090 H   0  0  0  0  0  0  0  0  0  0  0  0
   38.4970   28.5640   43.5880 H   0  0  0  0  0  0  0  0  0  0  0  0
   37.4770   28.8170   42.0910 H   0  0  0  0  0  0  0  0  0  0  0  0
   35.5040   27.6250   43.0180 H   0  0  0  0  0  0  0  0  0  0  0  0
   36.4950   27.5520   44.6240 H   0  0  0  0  0  0  0  0  0  0  0  0
   37.2070   27.7950   39.8900 C   0  0  2  0  0  3  0  0  0  0  0  0
   37.8810   28.7020   39.4370 O   0  0  0  0  0  0  0  0  0  0  0  0
   36.4330   29.0610   39.6790 C   0  0  0  0  0  0  0  0  0  0  0  0
   35.0990   29.0950   40.3780 C   0  0  0  0  0  2  0  0  0  0  0  0
   35.1830   29.1040   38.9050 C   0  0  0  0  0  2  0  0  0  0  0  0
  1  2  1  0  0  0  0
  2  3  2  0  0  0  0
  2  9  1  0  0  0  0
  3  7  1  0  0  0  0
  4  3  1  0  0  0  0
  5  4  2  0  0  0  0
  6  5  1  0  0  0  0
  6  1  2  0  0  0  0
  8  5  1  0  0  0  0
  9 10  1  0  0  0  0
  9 11  1  0  0  0  0
  9 12  1  0  0  0  0
 10 11  1  0  0  0  0
 10 13  1  0  0  0  0
 11 16  1  0  0  0  0
 14 10  1  0  0  0  0
 15 11  1  0  0  0  0
 17  1  1  1  0  0  0
 18 19  1  0  0  0  0
 18 17  1  0  0  0  0
 19 17  1  0  0  0  0
 19 20  1  0  0  0  0
 21 19  1  0  0  0  0
 21 20  1  0  0  0  0
M  END
>  <minimizedAffinity>
-4.00944948

$$$$

 OpenBabel03242523173D

 21 24  0  0  1  0  0  0  0  0999 V2000
   38.2440   29.8270   41.6860 C   0  0  0  0  0  0  0  0  0  0  0  0
   38.3450   28.5640   42.1730 C   0  0  0  0  0  0  0  0  0  0  0  0
   39.5660   28.2190   42.7230 C   0  0  0  0  0  0  0  0  0  0  0  0
   40.5770   29.1770   42.7300 N   0  0  0  0  0  0  0  0  0  0  0  0
   40.4190   30.3990   42.2370 C   0  0  0  0  0  0  0  0  0  0  0  0
   39.2180   30.7760   41.6830 N   0  0  0  0  0  0  0  0  0  0  0  0
   39.7650   27.2430   43.1400 H   0  0  0  0  0  0  0  0  0  0  0  0
   41.3350   30.9720   42.3500 H   0  0  0  0  0  0  0  0  0  0  0  0
   37.3370   27.5720   42.0940 C   0  0  0  0  0  0  0  0  0  0  0  0
   37.2770   26.3120   42.5950 C   0  0  0  0  0  0  0  0  0  0  0  0
   36.4160   27.3090   43.3630 C   0  0  0  0  0  0  0  0  0  0  0  0
   36.4840   27.9960   41.3960 H   0  0  0  0  0  0  0  0  0  0  0  0
   36.7430   25.4490   42.1010 H   0  0  0  0  0  0  0  0  0  0  0  0
   38.0770   25.8960   43.2690 H   0  0  0  0  0  0  0  0  0  0  0  0
   36.7950   27.7600   44.2960 H   0  0  0  0  0  0  0  0  0  0  0  0
   35.3580   27.1570   43.2300 H   0  0  0  0  0  0  0  0  0  0  0  0
   37.0730   30.4780   41.1580 C   0  0  2  0  0  3  0  0  0  0  0  0
   36.0930   31.2000   41.1990 O   0  0  0  0  0  0  0  0  0  0  0  0
   36.3230   30.5330   39.8610 C   0  0  0  0  0  0  0  0  0  0  0  0
   36.8410   29.5910   38.8070 C   0  0  0  0  0  2  0  0  0  0  0  0
   36.9230   31.0520   38.6230 C   0  0  0  0  0  2  0  0  0  0  0  0
  1  2  1  0  0  0  0
  2  3  2  0  0  0  0
  3  4  1  0  0  0  0
  3  7  1  0  0  0  0
  5  8  1  0  0  0  0
  5  4  2  0  0  0  0
  6  1  2  0  0  0  0
  6  5  1  0  0  0  0
  9  2  1  0  0  0  0
  9 10  1  0  0  0  0
  9 11  1  0  0  0  0
 10 14  1  0  0  0  0
 10 11  1  0  0  0  0
 11 15  1  0  0  0  0
 12  9  1  0  0  0  0
 13 10  1  0  0  0  0
 16 11  1  0  0  0  0
 17 18  1  0  0  0  0
 17  1  1  1  0  0  0
 19 17  1  0  0  0  0
 19 18  1  0  0  0  0
 20 19  1  0  0  0  0
 21 20  1  0  0  0  0
 21 19  1  0  0  0  0
M  END
>  <minimizedAffinity>
-3.97947264

$$$$

 OpenBabel03242523173D

 21 24  0  0  1  0  0  0  0  0999 V2000
   37.4210   29.2260   42.0980 C   0  0  0  0  0  0  0  0  0  0  0  0
   38.6940   29.3310   42.5580 C   0  0  0  0  0  0  0  0  0  0  0  0
   39.2200   28.2010   43.1580 C   0  0  0  0  0  0  0  0  0  0  0  0
   38.4150   27.0670   43.2410 N   0  0  0  0  0  0  0  0  0  0  0  0
   37.1740   27.0240   42.7720 C   0  0  0  0  0  0  0  0  0  0  0  0
   36.6200   28.1300   42.1700 N   0  0  0  0  0  0  0  0  0  0  0  0
   40.2200   28.1650   43.5620 H   0  0  0  0  0  0  0  0  0  0  0  0
   36.7390   26.0450   42.9460 H   0  0  0  0  0  0  0  0  0  0  0  0
   39.4790   30.5100   42.5360 C   0  0  0  0  0  0  0  0  0  0  0  0
   40.8190   30.6970   42.6320 C   0  0  0  0  0  0  0  0  0  0  0  0
   40.2850   30.8720   41.2150 C   0  0  0  0  0  0  0  0  0  0  0  0
   38.7330   31.4250   42.4930 H   0  0  0  0  0  0  0  0  0  0  0  0
   41.3100   31.5940   43.1080 H   0  0  0  0  0  0  0  0  0  0  0  0
   41.5440   29.8360   42.6650 H   0  0  0  0  0  0  0  0  0  0  0  0
   40.3600   30.0420   40.4910 H   0  0  0  0  0  0  0  0  0  0  0  0
   40.3080   31.8920   40.8700 H   0  0  0  0  0  0  0  0  0  0  0  0
   36.6700   30.2010   41.3500 C   0  0  2  0  0  3  0  0  0  0  0  0
   35.9560   31.1760   41.2050 O   0  0  0  0  0  0  0  0  0  0  0  0
   36.3580   30.4980   39.9140 C   0  0  0  0  0  0  0  0  0  0  0  0
   37.3970   30.0100   38.9400 C   0  0  0  0  0  2  0  0  0  0  0  0
   37.1430   31.4520   39.1160 C   0  0  0  0  0  2  0  0  0  0  0  0
  1  6  2  0  0  0  0
  1  2  1  0  0  0  0
  2  3  2  0  0  0  0
  3  4  1  0  0  0  0
  3  7  1  0  0  0  0
  5  8  1  0  0  0  0
  5  4  2  0  0  0  0
  6  5  1  0  0  0  0
  9  2  1  0  0  0  0
  9 10  1  0  0  0  0
 10 14  1  0  0  0  0
 10 13  1  0  0  0  0
 11  9  1  0  0  0  0
 11 10  1  0  0  0  0
 12  9  1  0  0  0  0
 15 11  1  0  0  0  0
 16 11  1  0  0  0  0
 17  1  1  1  0  0  0
 18 17  1  0  0  0  0
 19 18  1  0  0  0  0
 19 17  1  0  0  0  0
 20 21  1  0  0  0  0
 20 19  1  0  0  0  0
 21 19  1  0  0  0  0
M  END
>  <minimizedAffinity>
-3.9481957

$$$$

 OpenBabel03242523173D

 21 24  0  0  1  0  0  0  0  0999 V2000
   36.7810   27.0470   41.1680 C   0  0  0  0  0  0  0  0  0  0  0  0
   36.9720   25.8250   40.6080 C   0  0  0  0  0  0  0  0  0  0  0  0
   36.9200   25.7740   39.2270 C   0  0  0  0  0  0  0  0  0  0  0  0
   36.6790   26.9580   38.5340 N   0  0  0  0  0  0  0  0  0  0  0  0
   36.4990   28.1260   39.1390 C   0  0  0  0  0  0  0  0  0  0  0  0
   36.5440   28.2130   40.5110 N   0  0  0  0  0  0  0  0  0  0  0  0
   37.0570   24.8590   38.6700 H   0  0  0  0  0  0  0  0  0  0  0  0
   36.3270   28.9070   38.4050 H   0  0  0  0  0  0  0  0  0  0  0  0
   37.1420   24.6140   41.3220 C   0  0  0  0  0  0  0  0  0  0  0  0
   37.4760   23.3670   40.9050 C   0  0  0  0  0  0  0  0  0  0  0  0
   38.6160   24.0920   41.6100 C   0  0  0  0  0  0  0  0  0  0  0  0
   36.8540   24.8280   42.4470 H   0  0  0  0  0  0  0  0  0  0  0  0
   37.1070   22.4110   41.3790 H   0  0  0  0  0  0  0  0  0  0  0  0
   37.7610   23.1470   39.8380 H   0  0  0  0  0  0  0  0  0  0  0  0
   39.3970   24.5990   41.0170 H   0  0  0  0  0  0  0  0  0  0  0  0
   38.8550   23.6820   42.5770 H   0  0  0  0  0  0  0  0  0  0  0  0
   36.8820   27.4050   42.5600 C   0  0  2  0  0  3  0  0  0  0  0  0
   36.4580   27.6440   43.6760 O   0  0  0  0  0  0  0  0  0  0  0  0
   37.9590   27.7620   43.5380 C   0  0  0  0  0  0  0  0  0  0  0  0
   39.2430   28.2280   42.9040 C   0  0  0  0  0  2  0  0  0  0  0  0
   39.1920   26.9730   43.6780 C   0  0  0  0  0  2  0  0  0  0  0  0
  2  1  1  0  0  0  0
  2  9  1  0  0  0  0
  3  2  2  0  0  0  0
  4  5  2  0  0  0  0
  4  3  1  0  0  0  0
  5  6  1  0  0  0  0
  6  1  2  0  0  0  0
  7  3  1  0  0  0  0
  8  5  1  0  0  0  0
  9 11  1  0  0  0  0
  9 12  1  0  0  0  0
 10  9  1  0  0  0  0
 10 13  1  0  0  0  0
 10 11  1  0  0  0  0
 11 16  1  0  0  0  0
 14 10  1  0  0  0  0
 15 11  1  0  0  0  0
 17  1  1  6  0  0  0
 17 19  1  0  0  0  0
 17 18  1  0  0  0  0
 19 18  1  0  0  0  0
 19 21  1  0  0  0  0
 20 19  1  0  0  0  0
 20 21  1  0  0  0  0
M  END
>  <minimizedAffinity>
-3.93552041

$$$$

 OpenBabel03242523173D

 21 24  0  0  1  0  0  0  0  0999 V2000
   37.6350   29.2890   42.2710 C   0  0  0  0  0  0  0  0  0  0  0  0
   37.0870   29.8650   41.1700 C   0  0  0  0  0  0  0  0  0  0  0  0
   37.7450   30.9750   40.6730 C   0  0  0  0  0  0  0  0  0  0  0  0
   38.8940   31.4070   41.3310 N   0  0  0  0  0  0  0  0  0  0  0  0
   39.3830   30.8010   42.4060 C   0  0  0  0  0  0  0  0  0  0  0  0
   38.7550   29.6940   42.9270 N   0  0  0  0  0  0  0  0  0  0  0  0
   37.4030   31.5170   39.8040 H   0  0  0  0  0  0  0  0  0  0  0  0
   40.2810   31.3080   42.7480 H   0  0  0  0  0  0  0  0  0  0  0  0
   35.8770   29.4640   40.5520 C   0  0  0  0  0  0  0  0  0  0  0  0
   35.4270   29.6140   39.2810 C   0  0  0  0  0  0  0  0  0  0  0  0
   35.8850   28.1940   39.5960 C   0  0  0  0  0  0  0  0  0  0  0  0
   35.1940   28.9940   41.3930 H   0  0  0  0  0  0  0  0  0  0  0  0
   34.3440   29.7500   38.9950 H   0  0  0  0  0  0  0  0  0  0  0  0
   36.0680   30.0520   38.4650 H   0  0  0  0  0  0  0  0  0  0  0  0
   36.8950   27.8620   39.2980 H   0  0  0  0  0  0  0  0  0  0  0  0
   35.0780   27.4830   39.6510 H   0  0  0  0  0  0  0  0  0  0  0  0
   37.2230   28.0760   42.9300 C   0  0  2  0  0  3  0  0  0  0  0  0
   36.5440   27.3980   43.6790 O   0  0  0  0  0  0  0  0  0  0  0  0
   37.6320   26.6350   42.9590 C   0  0  0  0  0  0  0  0  0  0  0  0
   38.3500   26.1700   41.7200 C   0  0  0  0  0  2  0  0  0  0  0  0
   37.0270   25.6240   42.0790 C   0  0  0  0  0  2  0  0  0  0  0  0
  1  6  1  0  0  0  0
  2  1  2  0  0  0  0
  3  2  1  0  0  0  0
  3  4  2  0  0  0  0
  4  5  1  0  0  0  0
  5  8  1  0  0  0  0
  5  6  2  0  0  0  0
  7  3  1  0  0  0  0
  9  2  1  0  0  0  0
  9 12  1  0  0  0  0
 10 11  1  0  0  0  0
 10  9  1  0  0  0  0
 11 16  1  0  0  0  0
 11  9  1  0  0  0  0
 13 10  1  0  0  0  0
 14 10  1  0  0  0  0
 15 11  1  0  0  0  0
 17  1  1  1  0  0  0
 17 19  1  0  0  0  0
 17 18  1  0  0  0  0
 19 18  1  0  0  0  0
 20 21  1  0  0  0  0
 20 19  1  0  0  0  0
 21 19  1  0  0  0  0
M  END
>  <minimizedAffinity>
-3.9180994

$$$$
