
 OpenBabel03252503173D

 30 33  0  0  0  0  0  0  0  0999 V2000
   35.4180   27.1900   38.0550 C   0  0  0  0  0  0  0  0  0  0  0  0
   35.8790   27.7150   39.2680 C   0  0  0  0  0  0  0  0  0  0  0  0
   36.5840   26.8370   40.0590 C   0  0  0  0  0  0  0  0  0  0  0  0
   36.8170   25.5610   39.6950 N   0  0  0  0  0  0  0  0  0  0  0  0
   36.3470   25.0970   38.5030 C   0  0  0  0  0  0  0  0  0  0  0  0
   35.6480   25.9220   37.6910 N   0  0  0  0  0  0  0  0  0  0  0  0
   34.8530   27.7810   37.3510 H   0  0  0  0  0  0  0  0  0  0  0  0
   36.5690   24.0600   38.2700 H   0  0  0  0  0  0  0  0  0  0  0  0
   37.0850   27.2840   41.3060 C   0  0  0  0  0  0  0  0  0  0  0  0
   36.5710   27.4190   42.5590 C   0  0  0  0  0  0  0  0  0  0  0  0
   37.2830   27.8730   43.5710 C   0  0  0  0  0  0  0  0  0  0  0  0
   38.5650   28.2050   43.3110 C   0  0  0  0  0  0  0  0  0  0  0  0
   38.7610   27.8460   41.5200 S   0  0  0  0  0  0  0  0  0  0  0  0
   35.5070   27.1130   42.6400 H   0  0  0  0  0  0  0  0  0  0  0  0
   36.9300   28.0030   44.5870 H   0  0  0  0  0  0  0  0  0  0  0  0
   39.3700   28.6150   44.0150 H   0  0  0  0  0  0  0  0  0  0  0  0
   35.6090   29.0720   39.6140 C   0  0  0  0  0  0  0  0  0  0  0  0
   34.5520   29.2710   40.2880 O   0  0  0  0  0  0  0  0  0  0  0  0
   36.5590   30.1610   39.1770 C   0  0  0  0  0  0  0  0  0  0  0  0
   37.3020   30.9760   40.0100 C   0  0  0  0  0  0  0  0  0  0  0  0
   37.9870   31.7770   39.1780 N   0  0  0  0  0  0  0  0  0  0  0  0
   37.6840   31.4760   37.9020 C   0  0  0  0  0  0  0  0  0  0  0  0
   36.7850   30.4580   37.8890 N   0  0  0  0  0  0  0  0  0  0  0  0
   38.1330   32.0250   36.6610 N   0  0  0  0  0  0  0  0  0  0  0  0
   37.3100   30.9500   41.0690 H   0  0  0  0  0  0  0  0  0  0  0  0
   38.0460   33.0120   36.3340 H   0  0  0  0  0  0  0  0  0  0  0  0
   38.6120   31.4150   35.9600 H   0  0  0  0  0  0  0  0  0  0  0  0
   38.9220   32.8250   39.5440 C   0  0  0  0  0  3  0  0  0  0  0  0
   39.0170   33.2320   40.9840 C   0  0  0  0  0  2  0  0  0  0  0  0
   38.3970   34.1610   40.0140 C   0  0  0  0  0  2  0  0  0  0  0  0
  1  2  1  0  0  0  0
  2 17  1  0  0  0  0
  2  3  2  0  0  0  0
  3  9  1  0  0  0  0
  4  3  1  0  0  0  0
  5  4  2  0  0  0  0
  6  1  2  0  0  0  0
  6  5  1  0  0  0  0
  7  1  1  0  0  0  0
  8  5  1  0  0  0  0
  9 13  1  0  0  0  0
  9 10  2  0  0  0  0
 10 14  1  0  0  0  0
 10 11  1  0  0  0  0
 11 15  1  0  0  0  0
 12 11  2  0  0  0  0
 12 16  1  0  0  0  0
 13 12  1  0  0  0  0
 17 18  2  0  0  0  0
 19 17  1  0  0  0  0
 19 20  2  0  0  0  0
 20 25  1  0  0  0  0
 21 28  1  0  0  0  0
 21 20  1  0  0  0  0
 22 21  1  0  0  0  0
 23 22  2  0  0  0  0
 23 19  1  0  0  0  0
 24 22  1  0  0  0  0
 26 24  1  0  0  0  0
 27 24  1  0  0  0  0
 28 30  1  0  0  0  0
 28 29  1  0  0  0  0
 30 29  1  0  0  0  0
M  END
>  <minimizedAffinity>
-5.39365005

$$$$

 OpenBabel03252503173D

 30 33  0  0  0  0  0  0  0  0999 V2000
   39.4430   27.7820   43.3660 C   0  0  0  0  0  0  0  0  0  0  0  0
   38.4520   27.1380   42.6170 C   0  0  0  0  0  0  0  0  0  0  0  0
   38.8310   25.9480   42.0390 C   0  0  0  0  0  0  0  0  0  0  0  0
   40.0690   25.4360   42.1820 N   0  0  0  0  0  0  0  0  0  0  0  0
   41.0000   26.1010   42.9230 C   0  0  0  0  0  0  0  0  0  0  0  0
   40.6740   27.2740   43.5110 N   0  0  0  0  0  0  0  0  0  0  0  0
   39.2650   28.7210   43.8670 H   0  0  0  0  0  0  0  0  0  0  0  0
   41.9760   25.6340   42.9990 H   0  0  0  0  0  0  0  0  0  0  0  0
   37.8910   25.2300   41.2610 C   0  0  0  0  0  0  0  0  0  0  0  0
   36.8540   24.3920   41.5320 C   0  0  0  0  0  0  0  0  0  0  0  0
   36.1180   23.8470   40.5850 C   0  0  0  0  0  0  0  0  0  0  0  0
   36.4370   24.1580   39.3110 C   0  0  0  0  0  0  0  0  0  0  0  0
   37.8710   25.2940   39.4820 S   0  0  0  0  0  0  0  0  0  0  0  0
   36.6940   24.2160   42.6170 H   0  0  0  0  0  0  0  0  0  0  0  0
   35.2820   23.1740   40.7390 H   0  0  0  0  0  0  0  0  0  0  0  0
   35.9530   23.8170   38.3320 H   0  0  0  0  0  0  0  0  0  0  0  0
   37.1540   27.7170   42.4920 C   0  0  0  0  0  0  0  0  0  0  0  0
   36.2700   27.2670   43.2840 O   0  0  0  0  0  0  0  0  0  0  0  0
   36.9080   28.7930   41.4620 C   0  0  0  0  0  0  0  0  0  0  0  0
   36.6370   28.5920   40.1220 C   0  0  0  0  0  0  0  0  0  0  0  0
   36.4940   29.8280   39.6160 N   0  0  0  0  0  0  0  0  0  0  0  0
   36.6660   30.7420   40.5880 C   0  0  0  0  0  0  0  0  0  0  0  0
   36.9280   30.1010   41.7570 N   0  0  0  0  0  0  0  0  0  0  0  0
   36.6190   32.1700   40.5720 N   0  0  0  0  0  0  0  0  0  0  0  0
   36.5650   27.6560   39.6310 H   0  0  0  0  0  0  0  0  0  0  0  0
   37.2090   32.8200   40.0070 H   0  0  0  0  0  0  0  0  0  0  0  0
   35.9340   32.6800   41.1740 H   0  0  0  0  0  0  0  0  0  0  0  0
   36.1990   30.1810   38.2400 C   0  0  0  0  0  3  0  0  0  0  0  0
   36.4230   29.1530   37.1710 C   0  0  0  0  0  2  0  0  0  0  0  0
   37.3310   30.3190   37.2480 C   0  0  0  0  0  2  0  0  0  0  0  0
  1  6  1  0  0  0  0
  1  7  1  0  0  0  0
  2  1  2  0  0  0  0
  3  4  2  0  0  0  0
  3  2  1  0  0  0  0
  4  5  1  0  0  0  0
  5  8  1  0  0  0  0
  5  6  2  0  0  0  0
  9 10  2  0  0  0  0
  9  3  1  0  0  0  0
 10 14  1  0  0  0  0
 11 15  1  0  0  0  0
 11 10  1  0  0  0  0
 12 13  1  0  0  0  0
 12 11  2  0  0  0  0
 13  9  1  0  0  0  0
 16 12  1  0  0  0  0
 17  2  1  0  0  0  0
 17 18  2  0  0  0  0
 19 23  1  0  0  0  0
 19 17  1  0  0  0  0
 20 19  2  0  0  0  0
 21 20  1  0  0  0  0
 21 22  1  0  0  0  0
 22 23  2  0  0  0  0
 24 22  1  0  0  0  0
 24 27  1  0  0  0  0
 25 20  1  0  0  0  0
 26 24  1  0  0  0  0
 28 21  1  0  0  0  0
 29 30  1  0  0  0  0
 29 28  1  0  0  0  0
 30 28  1  0  0  0  0
M  END
>  <minimizedAffinity>
-5.3890872

$$$$

 OpenBabel03252503173D

 30 33  0  0  0  0  0  0  0  0999 V2000
   35.6790   29.3990   38.3580 C   0  0  0  0  0  0  0  0  0  0  0  0
   36.4360   29.3890   39.5340 C   0  0  0  0  0  0  0  0  0  0  0  0
   36.6750   28.1450   40.0710 C   0  0  0  0  0  0  0  0  0  0  0  0
   36.2140   27.0130   39.5070 N   0  0  0  0  0  0  0  0  0  0  0  0
   35.4800   27.0740   38.3590 C   0  0  0  0  0  0  0  0  0  0  0  0
   35.2200   28.2740   37.7940 N   0  0  0  0  0  0  0  0  0  0  0  0
   35.4260   30.3130   37.8440 H   0  0  0  0  0  0  0  0  0  0  0  0
   35.1400   26.1260   37.9560 H   0  0  0  0  0  0  0  0  0  0  0  0
   37.4320   28.0430   41.2640 C   0  0  0  0  0  0  0  0  0  0  0  0
   37.1390   28.0310   42.5930 C   0  0  0  0  0  0  0  0  0  0  0  0
   38.0670   27.9190   43.5210 C   0  0  0  0  0  0  0  0  0  0  0  0
   39.3440   27.8160   43.0950 C   0  0  0  0  0  0  0  0  0  0  0  0
   39.2050   27.8810   41.2640 S   0  0  0  0  0  0  0  0  0  0  0  0
   36.0540   28.1240   42.8120 H   0  0  0  0  0  0  0  0  0  0  0  0
   37.8970   27.9040   44.5910 H   0  0  0  0  0  0  0  0  0  0  0  0
   40.3100   27.7090   43.7000 H   0  0  0  0  0  0  0  0  0  0  0  0
   36.9050   30.6130   40.0980 C   0  0  0  0  0  0  0  0  0  0  0  0
   36.1980   31.0940   41.0370 O   0  0  0  0  0  0  0  0  0  0  0  0
   38.1680   31.2490   39.5700 C   0  0  0  0  0  0  0  0  0  0  0  0
   39.2400   31.6810   40.3270 C   0  0  0  0  0  0  0  0  0  0  0  0
   40.1140   32.1680   39.4300 N   0  0  0  0  0  0  0  0  0  0  0  0
   39.6100   32.0440   38.1890 C   0  0  0  0  0  0  0  0  0  0  0  0
   38.3840   31.4660   38.2640 N   0  0  0  0  0  0  0  0  0  0  0  0
   40.1340   32.4030   36.9080 N   0  0  0  0  0  0  0  0  0  0  0  0
   39.3260   31.6260   41.3810 H   0  0  0  0  0  0  0  0  0  0  0  0
   40.4180   33.3520   36.5810 H   0  0  0  0  0  0  0  0  0  0  0  0
   40.2710   31.6730   36.1740 H   0  0  0  0  0  0  0  0  0  0  0  0
   41.4150   32.7500   39.7030 C   0  0  0  0  0  3  0  0  0  0  0  0
   41.8890   32.8140   41.1250 C   0  0  0  0  0  2  0  0  0  0  0  0
   41.5020   34.0670   40.4380 C   0  0  0  0  0  2  0  0  0  0  0  0
  1  2  1  0  0  0  0
  2  3  2  0  0  0  0
  2 17  1  0  0  0  0
  3  9  1  0  0  0  0
  4  3  1  0  0  0  0
  5  4  2  0  0  0  0
  6  1  2  0  0  0  0
  6  5  1  0  0  0  0
  7  1  1  0  0  0  0
  8  5  1  0  0  0  0
  9 10  2  0  0  0  0
 10 14  1  0  0  0  0
 10 11  1  0  0  0  0
 11 15  1  0  0  0  0
 12 11  2  0  0  0  0
 12 16  1  0  0  0  0
 13  9  1  0  0  0  0
 13 12  1  0  0  0  0
 17 18  2  0  0  0  0
 19 17  1  0  0  0  0
 19 20  2  0  0  0  0
 20 25  1  0  0  0  0
 21 28  1  0  0  0  0
 21 20  1  0  0  0  0
 22 23  2  0  0  0  0
 22 21  1  0  0  0  0
 23 19  1  0  0  0  0
 24 22  1  0  0  0  0
 26 24  1  0  0  0  0
 27 24  1  0  0  0  0
 28 30  1  0  0  0  0
 28 29  1  0  0  0  0
 30 29  1  0  0  0  0
M  END
>  <minimizedAffinity>
-5.13591528

$$$$

 OpenBabel03252503173D

 30 33  0  0  0  0  0  0  0  0999 V2000
   36.0030   29.3880   38.2690 C   0  0  0  0  0  0  0  0  0  0  0  0
   36.7090   30.2650   39.1000 C   0  0  0  0  0  0  0  0  0  0  0  0
   37.4910   31.1920   38.4500 C   0  0  0  0  0  0  0  0  0  0  0  0
   37.5740   31.2540   37.1070 N   0  0  0  0  0  0  0  0  0  0  0  0
   36.8660   30.3780   36.3400 C   0  0  0  0  0  0  0  0  0  0  0  0
   36.0830   29.4490   36.9330 N   0  0  0  0  0  0  0  0  0  0  0  0
   35.3560   28.6190   38.6610 H   0  0  0  0  0  0  0  0  0  0  0  0
   36.9760   30.4830   35.2650 H   0  0  0  0  0  0  0  0  0  0  0  0
   38.2430   32.1160   39.2150 C   0  0  0  0  0  0  0  0  0  0  0  0
   38.0110   33.3520   39.7340 C   0  0  0  0  0  0  0  0  0  0  0  0
   38.9160   34.0090   40.4310 C   0  0  0  0  0  0  0  0  0  0  0  0
   40.1050   33.3960   40.6140 C   0  0  0  0  0  0  0  0  0  0  0  0
   39.9130   31.7920   39.7400 S   0  0  0  0  0  0  0  0  0  0  0  0
   36.9970   33.7460   39.5130 H   0  0  0  0  0  0  0  0  0  0  0  0
   38.7900   34.9930   40.8680 H   0  0  0  0  0  0  0  0  0  0  0  0
   41.0340   33.7580   41.1770 H   0  0  0  0  0  0  0  0  0  0  0  0
   36.5920   30.1620   40.5180 C   0  0  0  0  0  0  0  0  0  0  0  0
   35.9400   31.0910   41.0870 O   0  0  0  0  0  0  0  0  0  0  0  0
   37.2260   28.9990   41.2420 C   0  0  0  0  0  0  0  0  0  0  0  0
   36.6910   27.7310   41.3710 C   0  0  0  0  0  0  0  0  0  0  0  0
   37.6030   27.0510   42.0850 N   0  0  0  0  0  0  0  0  0  0  0  0
   38.6420   27.8520   42.3830 C   0  0  0  0  0  0  0  0  0  0  0  0
   38.4150   29.0830   41.8560 N   0  0  0  0  0  0  0  0  0  0  0  0
   39.8480   27.6170   43.1110 N   0  0  0  0  0  0  0  0  0  0  0  0
   35.7650   27.3990   40.9800 H   0  0  0  0  0  0  0  0  0  0  0  0
   39.9420   27.3100   44.1040 H   0  0  0  0  0  0  0  0  0  0  0  0
   40.7750   27.7510   42.6480 H   0  0  0  0  0  0  0  0  0  0  0  0
   37.5290   25.6620   42.5020 C   0  0  0  0  0  3  0  0  0  0  0  0
   38.4170   24.6610   41.8250 C   0  0  0  0  0  2  0  0  0  0  0  0
   36.9620   24.6300   41.5540 C   0  0  0  0  0  2  0  0  0  0  0  0
  1  7  1  0  0  0  0
  1  2  1  0  0  0  0
  2 17  1  0  0  0  0
  3  2  2  0  0  0  0
  3  9  1  0  0  0  0
  4  3  1  0  0  0  0
  5  6  1  0  0  0  0
  5  4  2  0  0  0  0
  6  1  2  0  0  0  0
  8  5  1  0  0  0  0
  9 10  2  0  0  0  0
  9 13  1  0  0  0  0
 10 11  1  0  0  0  0
 11 12  2  0  0  0  0
 11 15  1  0  0  0  0
 12 16  1  0  0  0  0
 13 12  1  0  0  0  0
 14 10  1  0  0  0  0
 17 18  2  0  0  0  0
 17 19  1  0  0  0  0
 19 20  2  0  0  0  0
 19 23  1  0  0  0  0
 20 21  1  0  0  0  0
 21 22  1  0  0  0  0
 21 28  1  0  0  0  0
 22 24  1  0  0  0  0
 23 22  2  0  0  0  0
 24 26  1  0  0  0  0
 25 20  1  0  0  0  0
 27 24  1  0  0  0  0
 29 28  1  0  0  0  0
 30 29  1  0  0  0  0
 30 28  1  0  0  0  0
M  END
>  <minimizedAffinity>
-5.11597538

$$$$

 OpenBabel03252503173D

 30 33  0  0  0  0  0  0  0  0999 V2000
   36.7670   24.9460   41.7450 C   0  0  0  0  0  0  0  0  0  0  0  0
   37.5540   26.0740   41.9990 C   0  0  0  0  0  0  0  0  0  0  0  0
   38.9050   25.9090   41.7880 C   0  0  0  0  0  0  0  0  0  0  0  0
   39.4340   24.7450   41.3670 N   0  0  0  0  0  0  0  0  0  0  0  0
   38.6250   23.6730   41.1320 C   0  0  0  0  0  0  0  0  0  0  0  0
   37.2910   23.7870   41.3250 N   0  0  0  0  0  0  0  0  0  0  0  0
   35.6950   24.9520   41.8740 H   0  0  0  0  0  0  0  0  0  0  0  0
   39.1140   22.7660   40.7940 H   0  0  0  0  0  0  0  0  0  0  0  0
   39.7760   26.9990   42.0240 C   0  0  0  0  0  0  0  0  0  0  0  0
   40.3890   27.5240   43.1200 C   0  0  0  0  0  0  0  0  0  0  0  0
   41.1770   28.5780   43.0540 C   0  0  0  0  0  0  0  0  0  0  0  0
   41.3550   29.1280   41.8340 C   0  0  0  0  0  0  0  0  0  0  0  0
   40.3400   28.0760   40.7230 S   0  0  0  0  0  0  0  0  0  0  0  0
   40.1610   26.9820   44.0620 H   0  0  0  0  0  0  0  0  0  0  0  0
   41.6910   29.0410   43.8890 H   0  0  0  0  0  0  0  0  0  0  0  0
   41.9840   30.0340   41.5260 H   0  0  0  0  0  0  0  0  0  0  0  0
   36.9510   27.2870   42.4450 C   0  0  0  0  0  0  0  0  0  0  0  0
   36.6620   27.3390   43.6800 O   0  0  0  0  0  0  0  0  0  0  0  0
   36.6980   28.4050   41.4630 C   0  0  0  0  0  0  0  0  0  0  0  0
   36.4230   28.2600   40.1170 C   0  0  0  0  0  0  0  0  0  0  0  0
   36.2740   29.5160   39.6640 N   0  0  0  0  0  0  0  0  0  0  0  0
   36.4470   30.3890   40.6730 C   0  0  0  0  0  0  0  0  0  0  0  0
   36.7140   29.7000   41.8130 N   0  0  0  0  0  0  0  0  0  0  0  0
   36.3950   31.8160   40.7170 N   0  0  0  0  0  0  0  0  0  0  0  0
   36.3520   27.3460   39.5860 H   0  0  0  0  0  0  0  0  0  0  0  0
   36.9810   32.4910   40.1790 H   0  0  0  0  0  0  0  0  0  0  0  0
   35.7100   32.2970   41.3430 H   0  0  0  0  0  0  0  0  0  0  0  0
   35.9730   29.9260   38.3050 C   0  0  0  0  0  3  0  0  0  0  0  0
   36.0380   28.8990   37.2130 C   0  0  0  0  0  2  0  0  0  0  0  0
   37.0770   29.9510   37.2730 C   0  0  0  0  0  2  0  0  0  0  0  0
  1  7  1  0  0  0  0
  1  2  1  0  0  0  0
  2 17  1  0  0  0  0
  3  2  2  0  0  0  0
  3  9  1  0  0  0  0
  4  3  1  0  0  0  0
  5  6  1  0  0  0  0
  5  4  2  0  0  0  0
  6  1  2  0  0  0  0
  8  5  1  0  0  0  0
  9 10  2  0  0  0  0
 10 14  1  0  0  0  0
 11 10  1  0  0  0  0
 11 15  1  0  0  0  0
 12 11  2  0  0  0  0
 13 12  1  0  0  0  0
 13  9  1  0  0  0  0
 16 12  1  0  0  0  0
 17 18  2  0  0  0  0
 19 23  1  0  0  0  0
 19 17  1  0  0  0  0
 20 19  2  0  0  0  0
 21 20  1  0  0  0  0
 21 22  1  0  0  0  0
 22 24  1  0  0  0  0
 22 23  2  0  0  0  0
 24 27  1  0  0  0  0
 25 20  1  0  0  0  0
 26 24  1  0  0  0  0
 28 21  1  0  0  0  0
 29 30  1  0  0  0  0
 29 28  1  0  0  0  0
 30 28  1  0  0  0  0
M  END
>  <minimizedAffinity>
-5.0722127

$$$$

 OpenBabel03252503173D

 30 33  0  0  0  0  0  0  0  0999 V2000
   35.5520   26.7940   37.9320 C   0  0  0  0  0  0  0  0  0  0  0  0
   36.3120   27.8730   38.3950 C   0  0  0  0  0  0  0  0  0  0  0  0
   35.7450   29.1140   38.2140 C   0  0  0  0  0  0  0  0  0  0  0  0
   34.5420   29.2820   37.6320 N   0  0  0  0  0  0  0  0  0  0  0  0
   33.8390   28.1980   37.1970 C   0  0  0  0  0  0  0  0  0  0  0  0
   34.3550   26.9590   37.3530 N   0  0  0  0  0  0  0  0  0  0  0  0
   35.8910   25.7730   38.0170 H   0  0  0  0  0  0  0  0  0  0  0  0
   32.8770   28.4030   36.7380 H   0  0  0  0  0  0  0  0  0  0  0  0
   36.4480   30.2630   38.6510 C   0  0  0  0  0  0  0  0  0  0  0  0
   37.3320   31.1270   38.0810 C   0  0  0  0  0  0  0  0  0  0  0  0
   37.8480   32.1470   38.7370 C   0  0  0  0  0  0  0  0  0  0  0  0
   37.4580   32.3050   40.0190 C   0  0  0  0  0  0  0  0  0  0  0  0
   36.2880   30.9160   40.2990 S   0  0  0  0  0  0  0  0  0  0  0  0
   37.5720   30.8880   37.0240 H   0  0  0  0  0  0  0  0  0  0  0  0
   38.5540   32.8660   38.3390 H   0  0  0  0  0  0  0  0  0  0  0  0
   37.7610   33.1040   40.7820 H   0  0  0  0  0  0  0  0  0  0  0  0
   37.5830   27.6500   39.0050 C   0  0  0  0  0  0  0  0  0  0  0  0
   38.5720   27.5840   38.2120 O   0  0  0  0  0  0  0  0  0  0  0  0
   37.6810   27.5090   40.5050 C   0  0  0  0  0  0  0  0  0  0  0  0
   38.8380   27.2920   41.2280 C   0  0  0  0  0  0  0  0  0  0  0  0
   38.4330   27.2370   42.5070 N   0  0  0  0  0  0  0  0  0  0  0  0
   37.1000   27.4110   42.5720 C   0  0  0  0  0  0  0  0  0  0  0  0
   36.6150   27.5840   41.3150 N   0  0  0  0  0  0  0  0  0  0  0  0
   36.1950   27.4380   43.6780 N   0  0  0  0  0  0  0  0  0  0  0  0
   39.8160   27.1940   40.8320 H   0  0  0  0  0  0  0  0  0  0  0  0
   36.0210   26.6810   44.3750 H   0  0  0  0  0  0  0  0  0  0  0  0
   35.6150   28.2870   43.8610 H   0  0  0  0  0  0  0  0  0  0  0  0
   39.2620   27.0260   43.6800 C   0  0  0  0  0  3  0  0  0  0  0  0
   40.7280   27.3250   43.5860 C   0  0  0  0  0  2  0  0  0  0  0  0
   40.2870   25.9150   43.6760 C   0  0  0  0  0  2  0  0  0  0  0  0
  1  7  1  0  0  0  0
  1  2  1  0  0  0  0
  2 17  1  0  0  0  0
  3  2  2  0  0  0  0
  3  9  1  0  0  0  0
  4  3  1  0  0  0  0
  5  6  1  0  0  0  0
  5  4  2  0  0  0  0
  6  1  2  0  0  0  0
  8  5  1  0  0  0  0
  9 13  1  0  0  0  0
 10  9  2  0  0  0  0
 10 11  1  0  0  0  0
 11 12  2  0  0  0  0
 12 13  1  0  0  0  0
 12 16  1  0  0  0  0
 14 10  1  0  0  0  0
 15 11  1  0  0  0  0
 17 19  1  0  0  0  0
 18 17  2  0  0  0  0
 19 20  2  0  0  0  0
 19 23  1  0  0  0  0
 20 21  1  0  0  0  0
 21 22  1  0  0  0  0
 21 28  1  0  0  0  0
 22 24  1  0  0  0  0
 23 22  2  0  0  0  0
 24 27  1  0  0  0  0
 24 26  1  0  0  0  0
 25 20  1  0  0  0  0
 29 30  1  0  0  0  0
 29 28  1  0  0  0  0
 30 28  1  0  0  0  0
M  END
>  <minimizedAffinity>
-5.04510498

$$$$

 OpenBabel03252503173D

 30 33  0  0  0  0  0  0  0  0999 V2000
   37.0210   25.4650   41.9940 C   0  0  0  0  0  0  0  0  0  0  0  0
   38.3400   25.9340   41.9980 C   0  0  0  0  0  0  0  0  0  0  0  0
   39.2590   25.1120   41.3860 C   0  0  0  0  0  0  0  0  0  0  0  0
   38.9170   23.9380   40.8220 N   0  0  0  0  0  0  0  0  0  0  0  0
   37.6180   23.5240   40.8430 C   0  0  0  0  0  0  0  0  0  0  0  0
   36.6790   24.2980   41.4330 N   0  0  0  0  0  0  0  0  0  0  0  0
   36.2120   26.0210   42.4430 H   0  0  0  0  0  0  0  0  0  0  0  0
   37.4100   22.5700   40.3710 H   0  0  0  0  0  0  0  0  0  0  0  0
   40.6180   25.5070   41.3480 C   0  0  0  0  0  0  0  0  0  0  0  0
   41.7090   25.2840   42.1280 C   0  0  0  0  0  0  0  0  0  0  0  0
   42.8940   25.7890   41.8500 C   0  0  0  0  0  0  0  0  0  0  0  0
   42.9850   26.5510   40.7400 C   0  0  0  0  0  0  0  0  0  0  0  0
   41.2790   26.5410   40.0580 S   0  0  0  0  0  0  0  0  0  0  0  0
   41.5030   24.6430   43.0120 H   0  0  0  0  0  0  0  0  0  0  0  0
   43.7980   25.6470   42.4320 H   0  0  0  0  0  0  0  0  0  0  0  0
   43.8920   27.0900   40.2950 H   0  0  0  0  0  0  0  0  0  0  0  0
   38.6570   27.1840   42.6080 C   0  0  0  0  0  0  0  0  0  0  0  0
   39.3350   27.1180   43.6800 O   0  0  0  0  0  0  0  0  0  0  0  0
   38.1900   28.4700   41.9720 C   0  0  0  0  0  0  0  0  0  0  0  0
   38.9470   29.3060   41.1740 C   0  0  0  0  0  0  0  0  0  0  0  0
   38.1150   30.3090   40.8480 N   0  0  0  0  0  0  0  0  0  0  0  0
   36.9110   30.1040   41.4120 C   0  0  0  0  0  0  0  0  0  0  0  0
   36.9460   28.9480   42.1230 N   0  0  0  0  0  0  0  0  0  0  0  0
   35.7010   30.8640   41.3760 N   0  0  0  0  0  0  0  0  0  0  0  0
   39.9590   29.1620   40.8970 H   0  0  0  0  0  0  0  0  0  0  0  0
   35.5590   31.8490   41.6890 H   0  0  0  0  0  0  0  0  0  0  0  0
   34.8240   30.4360   41.0030 H   0  0  0  0  0  0  0  0  0  0  0  0
   38.4160   31.4610   40.0180 C   0  0  0  0  0  3  0  0  0  0  0  0
   39.8270   31.9670   39.9760 C   0  0  0  0  0  2  0  0  0  0  0  0
   38.7950   32.7700   40.6700 C   0  0  0  0  0  2  0  0  0  0  0  0
  1  2  1  0  0  0  0
  1  7  1  0  0  0  0
  2 17  1  0  0  0  0
  3  2  2  0  0  0  0
  4  5  2  0  0  0  0
  4  3  1  0  0  0  0
  5  6  1  0  0  0  0
  6  1  2  0  0  0  0
  8  5  1  0  0  0  0
  9  3  1  0  0  0  0
  9 10  2  0  0  0  0
 10 14  1  0  0  0  0
 11 10  1  0  0  0  0
 11 15  1  0  0  0  0
 12 11  2  0  0  0  0
 13 12  1  0  0  0  0
 13  9  1  0  0  0  0
 16 12  1  0  0  0  0
 17 18  2  0  0  0  0
 19 23  1  0  0  0  0
 19 17  1  0  0  0  0
 20 19  2  0  0  0  0
 21 20  1  0  0  0  0
 21 22  1  0  0  0  0
 22 23  2  0  0  0  0
 24 22  1  0  0  0  0
 24 26  1  0  0  0  0
 25 20  1  0  0  0  0
 27 24  1  0  0  0  0
 28 30  1  0  0  0  0
 28 21  1  0  0  0  0
 29 28  1  0  0  0  0
 29 30  1  0  0  0  0
M  END
>  <minimizedAffinity>
-5.04274607

$$$$

 OpenBabel03252503173D

 30 33  0  0  0  0  0  0  0  0999 V2000
   37.4650   31.5780   39.1380 C   0  0  0  0  0  0  0  0  0  0  0  0
   38.5820   31.1280   39.8500 C   0  0  0  0  0  0  0  0  0  0  0  0
   39.2280   32.0860   40.5990 C   0  0  0  0  0  0  0  0  0  0  0  0
   38.8160   33.3670   40.6460 N   0  0  0  0  0  0  0  0  0  0  0  0
   37.7200   33.7560   39.9340 C   0  0  0  0  0  0  0  0  0  0  0  0
   37.0530   32.8520   39.1840 N   0  0  0  0  0  0  0  0  0  0  0  0
   36.8780   30.9210   38.5150 H   0  0  0  0  0  0  0  0  0  0  0  0
   37.4410   34.8020   40.0160 H   0  0  0  0  0  0  0  0  0  0  0  0
   40.3710   31.7170   41.3490 C   0  0  0  0  0  0  0  0  0  0  0  0
   40.5830   31.1650   42.5740 C   0  0  0  0  0  0  0  0  0  0  0  0
   41.7900   30.9190   43.0410 C   0  0  0  0  0  0  0  0  0  0  0  0
   42.8290   31.2420   42.2410 C   0  0  0  0  0  0  0  0  0  0  0  0
   42.0290   31.9360   40.7400 S   0  0  0  0  0  0  0  0  0  0  0  0
   39.6490   30.9460   43.1340 H   0  0  0  0  0  0  0  0  0  0  0  0
   42.0220   30.4820   44.0060 H   0  0  0  0  0  0  0  0  0  0  0  0
   43.9540   31.1260   42.4210 H   0  0  0  0  0  0  0  0  0  0  0  0
   38.9840   29.7610   39.7710 C   0  0  0  0  0  0  0  0  0  0  0  0
   39.8130   29.4820   38.8510 O   0  0  0  0  0  0  0  0  0  0  0  0
   38.4250   28.7560   40.7480 C   0  0  0  0  0  0  0  0  0  0  0  0
   38.7700   27.4210   40.8310 C   0  0  0  0  0  0  0  0  0  0  0  0
   38.0220   26.9390   41.8370 N   0  0  0  0  0  0  0  0  0  0  0  0
   37.2560   27.9200   42.3470 C   0  0  0  0  0  0  0  0  0  0  0  0
   37.5010   29.0710   41.6690 N   0  0  0  0  0  0  0  0  0  0  0  0
   36.3000   27.9280   43.4100 N   0  0  0  0  0  0  0  0  0  0  0  0
   39.4750   26.9170   40.2220 H   0  0  0  0  0  0  0  0  0  0  0  0
   35.4300   27.3580   43.4870 H   0  0  0  0  0  0  0  0  0  0  0  0
   36.4370   28.5570   44.2340 H   0  0  0  0  0  0  0  0  0  0  0  0
   38.0010   25.5770   42.3370 C   0  0  0  0  0  3  0  0  0  0  0  0
   38.3270   24.4590   41.3920 C   0  0  0  0  0  2  0  0  0  0  0  0
   36.9320   24.6230   41.8580 C   0  0  0  0  0  2  0  0  0  0  0  0
  1  6  2  0  0  0  0
  1  2  1  0  0  0  0
  2  3  2  0  0  0  0
  3  4  1  0  0  0  0
  3  9  1  0  0  0  0
  5  8  1  0  0  0  0
  5  4  2  0  0  0  0
  6  5  1  0  0  0  0
  7  1  1  0  0  0  0
  9 10  2  0  0  0  0
 10 11  1  0  0  0  0
 10 14  1  0  0  0  0
 11 15  1  0  0  0  0
 12 16  1  0  0  0  0
 12 11  2  0  0  0  0
 13  9  1  0  0  0  0
 13 12  1  0  0  0  0
 17  2  1  0  0  0  0
 17 19  1  0  0  0  0
 18 17  2  0  0  0  0
 19 20  2  0  0  0  0
 19 23  1  0  0  0  0
 20 21  1  0  0  0  0
 21 28  1  0  0  0  0
 21 22  1  0  0  0  0
 22 24  1  0  0  0  0
 23 22  2  0  0  0  0
 24 26  1  0  0  0  0
 24 27  1  0  0  0  0
 25 20  1  0  0  0  0
 29 30  1  0  0  0  0
 29 28  1  0  0  0  0
 30 28  1  0  0  0  0
M  END
>  <minimizedAffinity>
-5.00753164

$$$$

 OpenBabel03252503173D

 30 33  0  0  0  0  0  0  0  0999 V2000
   38.1380   27.2040   41.2340 C   0  0  0  0  0  0  0  0  0  0  0  0
   38.2820   28.4930   40.7100 C   0  0  0  0  0  0  0  0  0  0  0  0
   37.8890   29.5160   41.5430 C   0  0  0  0  0  0  0  0  0  0  0  0
   37.3990   29.2950   42.7780 N   0  0  0  0  0  0  0  0  0  0  0  0
   37.2780   28.0200   43.2440 C   0  0  0  0  0  0  0  0  0  0  0  0
   37.6520   26.9820   42.4620 N   0  0  0  0  0  0  0  0  0  0  0  0
   38.4120   26.3230   40.6760 H   0  0  0  0  0  0  0  0  0  0  0  0
   36.8780   27.9110   44.2470 H   0  0  0  0  0  0  0  0  0  0  0  0
   37.9980   30.8530   41.0910 C   0  0  0  0  0  0  0  0  0  0  0  0
   37.1720   31.7250   40.4520 C   0  0  0  0  0  0  0  0  0  0  0  0
   37.5390   32.9520   40.1420 C   0  0  0  0  0  0  0  0  0  0  0  0
   38.7920   33.3170   40.4890 C   0  0  0  0  0  0  0  0  0  0  0  0
   39.4780   31.8200   41.3040 S   0  0  0  0  0  0  0  0  0  0  0  0
   36.1710   31.3040   40.2210 H   0  0  0  0  0  0  0  0  0  0  0  0
   36.9280   33.6900   39.6350 H   0  0  0  0  0  0  0  0  0  0  0  0
   39.3330   34.3140   40.3320 H   0  0  0  0  0  0  0  0  0  0  0  0
   38.8060   28.6810   39.3950 C   0  0  0  0  0  0  0  0  0  0  0  0
   40.0670   28.7990   39.3150 O   0  0  0  0  0  0  0  0  0  0  0  0
   37.8680   28.7290   38.2130 C   0  0  0  0  0  0  0  0  0  0  0  0
   36.4890   28.7740   38.2690 C   0  0  0  0  0  0  0  0  0  0  0  0
   36.0980   28.8050   36.9840 N   0  0  0  0  0  0  0  0  0  0  0  0
   37.1760   28.7800   36.1790 C   0  0  0  0  0  0  0  0  0  0  0  0
   38.2970   28.7320   36.9430 N   0  0  0  0  0  0  0  0  0  0  0  0
   37.3010   28.7950   34.7550 N   0  0  0  0  0  0  0  0  0  0  0  0
   35.8970   28.7820   39.1480 H   0  0  0  0  0  0  0  0  0  0  0  0
   36.9130   28.1050   34.0760 H   0  0  0  0  0  0  0  0  0  0  0  0
   37.8320   29.5610   34.2840 H   0  0  0  0  0  0  0  0  0  0  0  0
   34.7360   28.8570   36.4850 C   0  0  0  0  0  3  0  0  0  0  0  0
   33.6070   28.7220   37.4620 C   0  0  0  0  0  2  0  0  0  0  0  0
   33.8810   27.6120   36.5240 C   0  0  0  0  0  2  0  0  0  0  0  0
  1  6  1  0  0  0  0
  2  1  2  0  0  0  0
  2  3  1  0  0  0  0
  3  4  2  0  0  0  0
  4  5  1  0  0  0  0
  5  8  1  0  0  0  0
  6  5  2  0  0  0  0
  7  1  1  0  0  0  0
  9 13  1  0  0  0  0
  9  3  1  0  0  0  0
 10  9  2  0  0  0  0
 11 10  1  0  0  0  0
 11 12  2  0  0  0  0
 12 13  1  0  0  0  0
 14 10  1  0  0  0  0
 15 11  1  0  0  0  0
 16 12  1  0  0  0  0
 17  2  1  0  0  0  0
 18 17  2  0  0  0  0
 19 20  2  0  0  0  0
 19 17  1  0  0  0  0
 20 25  1  0  0  0  0
 21 20  1  0  0  0  0
 22 23  2  0  0  0  0
 22 21  1  0  0  0  0
 23 19  1  0  0  0  0
 24 22  1  0  0  0  0
 26 24  1  0  0  0  0
 27 24  1  0  0  0  0
 28 30  1  0  0  0  0
 28 21  1  0  0  0  0
 28 29  1  0  0  0  0
 30 29  1  0  0  0  0
M  END
>  <minimizedAffinity>
-4.94190264

$$$$
