
 OpenBabel03252504183D

 32 34  0  0  0  0  0  0  0  0999 V2000
   46.7810   34.1440   43.0120 C   0  0  0  0  0  0  0  0  0  0  0  0
   45.6270   33.7190   42.3640 C   0  0  0  0  0  0  0  0  0  0  0  0
   44.8940   32.6740   42.9760 C   0  0  0  0  0  0  0  0  0  0  0  0
   45.3320   32.1470   44.1280 N   0  0  0  0  0  0  0  0  0  0  0  0
   46.4580   32.5930   44.7190 C   0  0  0  0  0  0  0  0  0  0  0  0
   47.1790   33.5880   44.1630 N   0  0  0  0  0  0  0  0  0  0  0  0
   43.9960   32.3390   42.4760 H   0  0  0  0  0  0  0  0  0  0  0  0
   47.6030   30.0030   44.9090 F   0  0  0  0  0  0  0  0  0  0  0  0
   47.4990   30.7710   46.0560 C   0  0  0  0  0  0  0  0  0  0  0  0
   46.9510   32.0270   45.9890 C   0  0  0  0  0  0  0  0  0  0  0  0
   46.8870   32.7220   47.1820 C   0  0  0  0  0  0  0  0  0  0  0  0
   47.3440   32.1780   48.3580 C   0  0  0  0  0  0  0  0  0  0  0  0
   47.8840   30.9090   48.3620 C   0  0  0  0  0  0  0  0  0  0  0  0
   47.9730   30.1670   47.1850 C   0  0  0  0  0  0  0  0  0  0  0  0
   46.4580   33.7260   47.1850 H   0  0  0  0  0  0  0  0  0  0  0  0
   47.3090   32.6880   49.3070 H   0  0  0  0  0  0  0  0  0  0  0  0
   48.2630   30.4290   49.2580 H   0  0  0  0  0  0  0  0  0  0  0  0
   48.5620   28.7900   47.1750 C   0  0  0  0  0  0  0  0  0  0  0  0
   47.8090   28.0900   47.5610 H   0  0  0  0  0  0  0  0  0  0  0  0
   48.7000   28.5240   46.0880 H   0  0  0  0  0  0  0  0  0  0  0  0
   49.8790   28.7000   47.8760 C   0  0  0  0  0  0  0  0  0  0  0  0
   50.9170   27.8390   47.0900 C   0  0  0  0  0  0  0  0  0  0  0  0
   51.1150   29.2920   47.3680 C   0  0  0  0  0  0  0  0  0  0  0  0
   45.2190   34.3460   41.1080 C   0  0  0  0  0  0  0  0  0  0  0  0
   44.9530   35.6830   41.3040 F   0  0  0  0  0  0  0  0  0  0  0  0
   46.3110   34.2940   40.2270 F   0  0  0  0  0  0  0  0  0  0  0  0
   44.1540   33.7990   40.4950 F   0  0  0  0  0  0  0  0  0  0  0  0
   47.4860   35.1450   42.4280 O   0  0  0  0  0  0  0  0  0  0  0  0
   48.8150   35.0650   41.9280 C   0  0  0  0  0  0  0  0  0  0  0  0
   49.6800   35.3080   42.9780 F   0  0  0  0  0  0  0  0  0  0  0  0
   49.0110   33.8400   41.3380 F   0  0  0  0  0  0  0  0  0  0  0  0
   49.0210   36.1040   41.0370 F   0  0  0  0  0  0  0  0  0  0  0  0
  1  6  1  0  0  0  0
  2  3  1  0  0  0  0
  2  1  2  0  0  0  0
  3  4  2  0  0  0  0
  4  5  1  0  0  0  0
  5 10  1  0  0  0  0
  6  5  2  0  0  0  0
  7  3  1  0  0  0  0
  8  9  1  0  0  0  0
  9 14  1  0  0  0  0
 10  9  2  0  0  0  0
 10 11  1  0  0  0  0
 11 15  1  0  0  0  0
 11 12  2  0  0  0  0
 12 13  1  0  0  0  0
 12 16  1  0  0  0  0
 13 17  1  0  0  0  0
 14 13  2  0  0  0  0
 18 14  1  0  0  0  0
 18 19  1  0  0  0  0
 18 21  1  0  0  0  0
 20 18  1  0  0  0  0
 22 23  1  0  0  0  0
 22 21  1  0  0  0  0
 23 21  1  0  0  0  0
 24 25  1  0  0  0  0
 24  2  1  0  0  0  0
 26 24  1  0  0  0  0
 27 24  1  0  0  0  0
 28  1  1  0  0  0  0
 29 28  1  0  0  0  0
 29 30  1  0  0  0  0
 31 29  1  0  0  0  0
 32 29  1  0  0  0  0
M  END
>  <minimizedAffinity>
-5.32789469

>  <minimizedRMSD>
0.631575763

$$$$
