
 OpenBabel03242520033D

 19 21  0  0  0  0  0  0  0  0999 V2000
   37.5380   30.6940   40.8780 C   0  0  0  0  0  0  0  0  0  0  0  0
   36.2160   30.5170   40.4440 C   0  0  0  0  0  0  0  0  0  0  0  0
   35.8240   29.2710   40.8770 C   0  0  0  0  0  0  0  0  0  0  0  0
   36.8710   28.7150   41.5490 N   0  0  0  0  0  0  0  0  0  0  0  0
   37.8980   29.5920   41.5370 N   0  0  0  0  0  0  0  0  0  0  0  0
   35.6400   31.2410   39.8760 H   0  0  0  0  0  0  0  0  0  0  0  0
   34.8490   28.8420   40.6970 H   0  0  0  0  0  0  0  0  0  0  0  0
   38.3460   34.1600   40.0120 C   0  0  0  0  0  0  0  0  0  0  0  0
   39.7670   34.1610   40.1080 C   0  0  0  0  0  0  0  0  0  0  0  0
   40.4360   32.9800   40.4650 C   0  0  0  0  0  0  0  0  0  0  0  0
   39.6370   31.9170   40.6930 N   0  0  0  0  0  0  0  0  0  0  0  0
   38.3070   31.9030   40.6080 C   0  0  0  0  0  0  0  0  0  0  0  0
   37.6450   33.0330   40.2630 N   0  0  0  0  0  0  0  0  0  0  0  0
   37.8830   35.1010   39.7320 H   0  0  0  0  0  0  0  0  0  0  0  0
   40.3510   35.0550   39.9090 H   0  0  0  0  0  0  0  0  0  0  0  0
   41.5080   32.9460   40.5460 H   0  0  0  0  0  0  0  0  0  0  0  0
   36.8380   27.4110   42.1500 C   0  0  0  0  0  3  0  0  0  0  0  0
   37.7680   26.9720   43.1960 C   0  0  0  0  0  2  0  0  0  0  0  0
   36.4390   27.4130   43.6120 C   0  0  0  0  0  2  0  0  0  0  0  0
  1  5  2  0  0  0  0
  2  3  2  0  0  0  0
  2  1  1  0  0  0  0
  3  4  1  0  0  0  0
  4 17  1  0  0  0  0
  5  4  1  0  0  0  0
  6  2  1  0  0  0  0
  7  3  1  0  0  0  0
  8  9  2  0  0  0  0
  8 13  1  0  0  0  0
  9 10  1  0  0  0  0
 10 16  1  0  0  0  0
 10 11  2  0  0  0  0
 12 11  1  0  0  0  0
 12  1  1  0  0  0  0
 13 12  2  0  0  0  0
 14  8  1  0  0  0  0
 15  9  1  0  0  0  0
 17 18  1  0  0  0  0
 17 19  1  0  0  0  0
 18 19  1  0  0  0  0
M  END
>  <minimizedAffinity>
-4.28824568

$$$$

 OpenBabel03242520033D

 19 21  0  0  0  0  0  0  0  0999 V2000
   39.3450   30.3970   41.9560 C   0  0  0  0  0  0  0  0  0  0  0  0
   40.5030   29.6500   42.2200 C   0  0  0  0  0  0  0  0  0  0  0  0
   40.0920   28.5060   42.8670 C   0  0  0  0  0  0  0  0  0  0  0  0
   38.7360   28.5600   42.9880 N   0  0  0  0  0  0  0  0  0  0  0  0
   38.3050   29.7130   42.4320 N   0  0  0  0  0  0  0  0  0  0  0  0
   41.5130   29.9440   41.9540 H   0  0  0  0  0  0  0  0  0  0  0  0
   40.7580   27.7250   43.2040 H   0  0  0  0  0  0  0  0  0  0  0  0
   40.5990   33.5050   40.4780 C   0  0  0  0  0  0  0  0  0  0  0  0
   39.3990   34.1050   39.9990 C   0  0  0  0  0  0  0  0  0  0  0  0
   38.1750   33.4460   40.1850 C   0  0  0  0  0  0  0  0  0  0  0  0
   38.2550   32.2600   40.8250 N   0  0  0  0  0  0  0  0  0  0  0  0
   39.3710   31.6870   41.2770 C   0  0  0  0  0  0  0  0  0  0  0  0
   40.5610   32.3110   41.1070 N   0  0  0  0  0  0  0  0  0  0  0  0
   41.5160   34.0610   40.3060 H   0  0  0  0  0  0  0  0  0  0  0  0
   39.4060   35.0650   39.4910 H   0  0  0  0  0  0  0  0  0  0  0  0
   37.2510   33.8700   39.8370 H   0  0  0  0  0  0  0  0  0  0  0  0
   37.9450   27.5380   43.6140 C   0  0  0  0  0  3  0  0  0  0  0  0
   36.4800   27.4840   43.5450 C   0  0  0  0  0  2  0  0  0  0  0  0
   37.2340   26.6220   42.6380 C   0  0  0  0  0  2  0  0  0  0  0  0
  1  2  1  0  0  0  0
  1  5  2  0  0  0  0
  2  3  2  0  0  0  0
  3  4  1  0  0  0  0
  3  7  1  0  0  0  0
  4 17  1  0  0  0  0
  5  4  1  0  0  0  0
  6  2  1  0  0  0  0
  8 13  1  0  0  0  0
  9 10  1  0  0  0  0
  9  8  2  0  0  0  0
 10 11  2  0  0  0  0
 11 12  1  0  0  0  0
 12  1  1  0  0  0  0
 13 12  2  0  0  0  0
 14  8  1  0  0  0  0
 15  9  1  0  0  0  0
 16 10  1  0  0  0  0
 18 17  1  0  0  0  0
 19 18  1  0  0  0  0
 19 17  1  0  0  0  0
M  END
>  <minimizedAffinity>
-4.2180953

$$$$

 OpenBabel03242520033D

 19 21  0  0  0  0  0  0  0  0999 V2000
   37.9740   31.2690   41.0900 C   0  0  0  0  0  0  0  0  0  0  0  0
   37.0730   31.9280   40.2410 C   0  0  0  0  0  0  0  0  0  0  0  0
   37.7050   33.0740   39.8130 C   0  0  0  0  0  0  0  0  0  0  0  0
   38.9420   33.1050   40.3830 N   0  0  0  0  0  0  0  0  0  0  0  0
   39.0840   32.0040   41.1520 N   0  0  0  0  0  0  0  0  0  0  0  0
   36.0770   31.5790   39.9890 H   0  0  0  0  0  0  0  0  0  0  0  0
   37.2650   33.7990   39.1430 H   0  0  0  0  0  0  0  0  0  0  0  0
   38.1260   28.4610   43.4380 C   0  0  0  0  0  0  0  0  0  0  0  0
   37.0670   27.6320   42.9700 C   0  0  0  0  0  0  0  0  0  0  0  0
   36.3120   28.0370   41.8580 C   0  0  0  0  0  0  0  0  0  0  0  0
   36.6760   29.2190   41.3190 N   0  0  0  0  0  0  0  0  0  0  0  0
   37.6640   30.0040   41.7480 C   0  0  0  0  0  0  0  0  0  0  0  0
   38.4040   29.6290   42.8190 N   0  0  0  0  0  0  0  0  0  0  0  0
   38.6750   28.0980   44.3010 H   0  0  0  0  0  0  0  0  0  0  0  0
   36.8260   26.6890   43.4520 H   0  0  0  0  0  0  0  0  0  0  0  0
   35.5060   27.4340   41.4790 H   0  0  0  0  0  0  0  0  0  0  0  0
   39.8980   34.1560   40.1710 C   0  0  0  0  0  3  0  0  0  0  0  0
   41.3260   34.0360   40.4880 C   0  0  0  0  0  2  0  0  0  0  0  0
   40.9220   33.8540   39.0950 C   0  0  0  0  0  2  0  0  0  0  0  0
  1  5  2  0  0  0  0
  1 12  1  0  0  0  0
  2  1  1  0  0  0  0
  3  2  2  0  0  0  0
  3  4  1  0  0  0  0
  4  5  1  0  0  0  0
  6  2  1  0  0  0  0
  7  3  1  0  0  0  0
  8 14  1  0  0  0  0
  9  8  1  0  0  0  0
  9 15  1  0  0  0  0
 10  9  2  0  0  0  0
 11 12  2  0  0  0  0
 11 10  1  0  0  0  0
 12 13  1  0  0  0  0
 13  8  2  0  0  0  0
 16 10  1  0  0  0  0
 17  4  1  0  0  0  0
 17 18  1  0  0  0  0
 19 17  1  0  0  0  0
 19 18  1  0  0  0  0
M  END
>  <minimizedAffinity>
-4.1693759

$$$$

 OpenBabel03242520033D

 19 21  0  0  0  0  0  0  0  0999 V2000
   38.8820   31.1320   41.5380 C   0  0  0  0  0  0  0  0  0  0  0  0
   37.6290   30.9420   40.9370 C   0  0  0  0  0  0  0  0  0  0  0  0
   37.0000   29.9470   41.6510 C   0  0  0  0  0  0  0  0  0  0  0  0
   37.8430   29.5520   42.6460 N   0  0  0  0  0  0  0  0  0  0  0  0
   38.9760   30.2810   42.5590 N   0  0  0  0  0  0  0  0  0  0  0  0
   37.2560   31.4880   40.0770 H   0  0  0  0  0  0  0  0  0  0  0  0
   36.0110   29.5720   41.4320 H   0  0  0  0  0  0  0  0  0  0  0  0
   42.0600   32.8640   40.9660 C   0  0  0  0  0  0  0  0  0  0  0  0
   41.6530   33.9580   40.1500 C   0  0  0  0  0  0  0  0  0  0  0  0
   40.3000   34.0960   39.8030 C   0  0  0  0  0  0  0  0  0  0  0  0
   39.4830   33.1410   40.2960 N   0  0  0  0  0  0  0  0  0  0  0  0
   39.8510   32.1120   41.0590 C   0  0  0  0  0  0  0  0  0  0  0  0
   41.1530   31.9640   41.4040 N   0  0  0  0  0  0  0  0  0  0  0  0
   43.1180   32.8070   41.2020 H   0  0  0  0  0  0  0  0  0  0  0  0
   42.3660   34.6930   39.7870 H   0  0  0  0  0  0  0  0  0  0  0  0
   39.9600   34.9100   39.1900 H   0  0  0  0  0  0  0  0  0  0  0  0
   37.5310   28.5260   43.6020 C   0  0  0  0  0  3  0  0  0  0  0  0
   36.6260   27.4040   43.3280 C   0  0  0  0  0  2  0  0  0  0  0  0
   38.0630   27.1550   43.2340 C   0  0  0  0  0  2  0  0  0  0  0  0
  1  5  2  0  0  0  0
  2  1  1  0  0  0  0
  2  3  2  0  0  0  0
  3  4  1  0  0  0  0
  4 17  1  0  0  0  0
  5  4  1  0  0  0  0
  6  2  1  0  0  0  0
  7  3  1  0  0  0  0
  8 14  1  0  0  0  0
  8 13  1  0  0  0  0
  9  8  2  0  0  0  0
 10  9  1  0  0  0  0
 10 11  2  0  0  0  0
 11 12  1  0  0  0  0
 12 13  2  0  0  0  0
 12  1  1  0  0  0  0
 15  9  1  0  0  0  0
 16 10  1  0  0  0  0
 18 17  1  0  0  0  0
 19 18  1  0  0  0  0
 19 17  1  0  0  0  0
M  END
>  <minimizedAffinity>
-4.12447309

$$$$

 OpenBabel03242520033D

 19 21  0  0  0  0  0  0  0  0999 V2000
   37.8110   30.7910   41.1100 C   0  0  0  0  0  0  0  0  0  0  0  0
   36.8570   31.4680   40.3370 C   0  0  0  0  0  0  0  0  0  0  0  0
   37.4410   32.6500   39.9410 C   0  0  0  0  0  0  0  0  0  0  0  0
   38.7020   32.6850   40.4550 N   0  0  0  0  0  0  0  0  0  0  0  0
   38.9050   31.5510   41.1600 N   0  0  0  0  0  0  0  0  0  0  0  0
   35.8590   31.1060   40.1120 H   0  0  0  0  0  0  0  0  0  0  0  0
   36.9540   33.3950   39.3290 H   0  0  0  0  0  0  0  0  0  0  0  0
   36.9250   27.2540   41.4710 C   0  0  0  0  0  0  0  0  0  0  0  0
   37.1010   27.0510   42.8690 C   0  0  0  0  0  0  0  0  0  0  0  0
   37.5190   28.1210   43.6760 C   0  0  0  0  0  0  0  0  0  0  0  0
   37.7220   29.2840   43.0230 N   0  0  0  0  0  0  0  0  0  0  0  0
   37.5620   29.4870   41.7160 C   0  0  0  0  0  0  0  0  0  0  0  0
   37.1580   28.4670   40.9220 N   0  0  0  0  0  0  0  0  0  0  0  0
   36.6010   26.3920   40.8970 H   0  0  0  0  0  0  0  0  0  0  0  0
   36.9190   26.0850   43.3320 H   0  0  0  0  0  0  0  0  0  0  0  0
   37.6610   28.0010   44.7350 H   0  0  0  0  0  0  0  0  0  0  0  0
   39.6220   33.7690   40.2550 C   0  0  0  0  0  3  0  0  0  0  0  0
   41.0630   33.6760   40.5150 C   0  0  0  0  0  2  0  0  0  0  0  0
   40.6130   33.5410   39.1310 C   0  0  0  0  0  2  0  0  0  0  0  0
  1  5  2  0  0  0  0
  1 12  1  0  0  0  0
  2  1  1  0  0  0  0
  3  2  2  0  0  0  0
  3  4  1  0  0  0  0
  4  5  1  0  0  0  0
  6  2  1  0  0  0  0
  7  3  1  0  0  0  0
  8  9  1  0  0  0  0
  9 15  1  0  0  0  0
  9 10  2  0  0  0  0
 10 16  1  0  0  0  0
 11 10  1  0  0  0  0
 12 11  2  0  0  0  0
 13  8  2  0  0  0  0
 13 12  1  0  0  0  0
 14  8  1  0  0  0  0
 17  4  1  0  0  0  0
 17 18  1  0  0  0  0
 19 17  1  0  0  0  0
 19 18  1  0  0  0  0
M  END
>  <minimizedAffinity>
-4.12103748

$$$$

 OpenBabel03242520033D

 19 21  0  0  0  0  0  0  0  0999 V2000
   37.7030   29.0770   42.0690 C   0  0  0  0  0  0  0  0  0  0  0  0
   37.9300   28.8610   43.4360 C   0  0  0  0  0  0  0  0  0  0  0  0
   37.7060   27.5210   43.6620 C   0  0  0  0  0  0  0  0  0  0  0  0
   37.3570   26.9510   42.4750 N   0  0  0  0  0  0  0  0  0  0  0  0
   37.3600   27.9100   41.5240 N   0  0  0  0  0  0  0  0  0  0  0  0
   38.2240   29.6210   44.1520 H   0  0  0  0  0  0  0  0  0  0  0  0
   37.8000   27.0420   44.6260 H   0  0  0  0  0  0  0  0  0  0  0  0
   36.9340   32.0640   40.0910 C   0  0  0  0  0  0  0  0  0  0  0  0
   38.1130   32.8430   40.2700 C   0  0  0  0  0  0  0  0  0  0  0  0
   39.1590   32.3430   41.0610 C   0  0  0  0  0  0  0  0  0  0  0  0
   38.9380   31.1250   41.5970 N   0  0  0  0  0  0  0  0  0  0  0  0
   37.8400   30.3870   41.4390 C   0  0  0  0  0  0  0  0  0  0  0  0
   36.8210   30.8530   40.6780 N   0  0  0  0  0  0  0  0  0  0  0  0
   36.1590   32.5010   39.4700 H   0  0  0  0  0  0  0  0  0  0  0  0
   38.2260   33.8190   39.8060 H   0  0  0  0  0  0  0  0  0  0  0  0
   40.0620   32.9050   41.2150 H   0  0  0  0  0  0  0  0  0  0  0  0
   37.0450   25.5580   42.3150 C   0  0  0  0  0  3  0  0  0  0  0  0
   36.9750   24.8820   41.0140 C   0  0  0  0  0  2  0  0  0  0  0  0
   38.1980   24.7210   41.7980 C   0  0  0  0  0  2  0  0  0  0  0  0
  1  2  1  0  0  0  0
  2  3  2  0  0  0  0
  2  6  1  0  0  0  0
  3  7  1  0  0  0  0
  4  3  1  0  0  0  0
  5  1  2  0  0  0  0
  5  4  1  0  0  0  0
  8  9  2  0  0  0  0
  8 13  1  0  0  0  0
  9 10  1  0  0  0  0
 10 16  1  0  0  0  0
 10 11  2  0  0  0  0
 12 11  1  0  0  0  0
 12  1  1  0  0  0  0
 13 12  2  0  0  0  0
 14  8  1  0  0  0  0
 15  9  1  0  0  0  0
 17  4  1  0  0  0  0
 18 19  1  0  0  0  0
 18 17  1  0  0  0  0
 19 17  1  0  0  0  0
M  END
>  <minimizedAffinity>
-4.10820103

$$$$

 OpenBabel03242520033D

 19 21  0  0  0  0  0  0  0  0999 V2000
   37.1590   28.4260   41.3640 C   0  0  0  0  0  0  0  0  0  0  0  0
   37.4990   28.4740   42.7240 C   0  0  0  0  0  0  0  0  0  0  0  0
   37.4300   27.1800   43.1900 C   0  0  0  0  0  0  0  0  0  0  0  0
   37.0620   26.3810   42.1490 N   0  0  0  0  0  0  0  0  0  0  0  0
   36.9020   27.1550   41.0540 N   0  0  0  0  0  0  0  0  0  0  0  0
   37.7610   29.3710   43.2740 H   0  0  0  0  0  0  0  0  0  0  0  0
   37.6380   26.8880   44.2090 H   0  0  0  0  0  0  0  0  0  0  0  0
   37.1470   31.9380   40.3210 C   0  0  0  0  0  0  0  0  0  0  0  0
   37.0410   31.8210   38.9050 C   0  0  0  0  0  0  0  0  0  0  0  0
   36.9730   30.5480   38.3200 C   0  0  0  0  0  0  0  0  0  0  0  0
   37.0180   29.5160   39.1880 N   0  0  0  0  0  0  0  0  0  0  0  0
   37.1180   29.6110   40.5140 C   0  0  0  0  0  0  0  0  0  0  0  0
   37.1830   30.8330   41.0960 N   0  0  0  0  0  0  0  0  0  0  0  0
   37.1950   32.9470   40.7170 H   0  0  0  0  0  0  0  0  0  0  0  0
   37.0090   32.6970   38.2630 H   0  0  0  0  0  0  0  0  0  0  0  0
   36.8920   30.4240   37.2550 H   0  0  0  0  0  0  0  0  0  0  0  0
   36.8840   24.9600   42.2520 C   0  0  0  0  0  3  0  0  0  0  0  0
   36.6720   24.0790   41.0980 C   0  0  0  0  0  2  0  0  0  0  0  0
   38.0200   24.1500   41.6580 C   0  0  0  0  0  2  0  0  0  0  0  0
  1  2  1  0  0  0  0
  2  3  2  0  0  0  0
  2  6  1  0  0  0  0
  3  7  1  0  0  0  0
  4 17  1  0  0  0  0
  4  3  1  0  0  0  0
  5  1  2  0  0  0  0
  5  4  1  0  0  0  0
  8 14  1  0  0  0  0
  8 13  1  0  0  0  0
  9  8  2  0  0  0  0
 10  9  1  0  0  0  0
 10 11  2  0  0  0  0
 11 12  1  0  0  0  0
 12 13  2  0  0  0  0
 12  1  1  0  0  0  0
 15  9  1  0  0  0  0
 16 10  1  0  0  0  0
 18 19  1  0  0  0  0
 18 17  1  0  0  0  0
 19 17  1  0  0  0  0
M  END
>  <minimizedAffinity>
-4.02699757

$$$$

 OpenBabel03242520033D

 19 21  0  0  0  0  0  0  0  0999 V2000
   37.6320   28.0960   41.7580 C   0  0  0  0  0  0  0  0  0  0  0  0
   36.3440   27.8080   41.2810 C   0  0  0  0  0  0  0  0  0  0  0  0
   35.8210   28.9980   40.8270 C   0  0  0  0  0  0  0  0  0  0  0  0
   36.7580   29.9670   41.0210 N   0  0  0  0  0  0  0  0  0  0  0  0
   37.8460   29.4000   41.5870 N   0  0  0  0  0  0  0  0  0  0  0  0
   35.8780   26.8280   41.2840 H   0  0  0  0  0  0  0  0  0  0  0  0
   34.8360   29.1050   40.3970 H   0  0  0  0  0  0  0  0  0  0  0  0
   40.3400   26.5470   43.6790 C   0  0  0  0  0  0  0  0  0  0  0  0
   40.1510   25.1650   43.3870 C   0  0  0  0  0  0  0  0  0  0  0  0
   39.1040   24.7750   42.5380 C   0  0  0  0  0  0  0  0  0  0  0  0
   38.3470   25.7860   42.0610 N   0  0  0  0  0  0  0  0  0  0  0  0
   38.5120   27.0810   42.3270 C   0  0  0  0  0  0  0  0  0  0  0  0
   39.5180   27.4760   43.1440 N   0  0  0  0  0  0  0  0  0  0  0  0
   41.1640   26.7890   44.3420 H   0  0  0  0  0  0  0  0  0  0  0  0
   40.8000   24.4010   43.8060 H   0  0  0  0  0  0  0  0  0  0  0  0
   38.9340   23.7410   42.2970 H   0  0  0  0  0  0  0  0  0  0  0  0
   36.5710   31.3470   40.6680 C   0  0  0  0  0  3  0  0  0  0  0  0
   37.6730   32.2680   40.3660 C   0  0  0  0  0  2  0  0  0  0  0  0
   36.9530   31.6780   39.2390 C   0  0  0  0  0  2  0  0  0  0  0  0
  1 12  1  0  0  0  0
  2  6  1  0  0  0  0
  2  1  1  0  0  0  0
  3  4  1  0  0  0  0
  3  2  2  0  0  0  0
  4  5  1  0  0  0  0
  5  1  2  0  0  0  0
  7  3  1  0  0  0  0
  8 14  1  0  0  0  0
  9  8  1  0  0  0  0
  9 15  1  0  0  0  0
 10  9  2  0  0  0  0
 11 12  2  0  0  0  0
 11 10  1  0  0  0  0
 12 13  1  0  0  0  0
 13  8  2  0  0  0  0
 16 10  1  0  0  0  0
 17  4  1  0  0  0  0
 18 17  1  0  0  0  0
 19 18  1  0  0  0  0
 19 17  1  0  0  0  0
M  END
>  <minimizedAffinity>
-4.01934385

$$$$

 OpenBabel03242520033D

 19 21  0  0  0  0  0  0  0  0999 V2000
   38.4510   29.1810   42.3210 C   0  0  0  0  0  0  0  0  0  0  0  0
   37.5040   28.6240   43.1920 C   0  0  0  0  0  0  0  0  0  0  0  0
   38.0540   27.4580   43.6750 C   0  0  0  0  0  0  0  0  0  0  0  0
   39.2890   27.3180   43.1160 N   0  0  0  0  0  0  0  0  0  0  0  0
   39.5090   28.3700   42.2990 N   0  0  0  0  0  0  0  0  0  0  0  0
   36.5330   29.0520   43.4210 H   0  0  0  0  0  0  0  0  0  0  0  0
   37.5640   26.7970   44.3740 H   0  0  0  0  0  0  0  0  0  0  0  0
   36.8670   31.7410   40.2330 C   0  0  0  0  0  0  0  0  0  0  0  0
   37.8350   32.7860   40.2680 C   0  0  0  0  0  0  0  0  0  0  0  0
   39.0180   32.6080   41.0010 C   0  0  0  0  0  0  0  0  0  0  0  0
   39.1290   31.4170   41.6280 N   0  0  0  0  0  0  0  0  0  0  0  0
   38.2310   30.4320   41.6040 C   0  0  0  0  0  0  0  0  0  0  0  0
   37.0840   30.5870   40.9000 N   0  0  0  0  0  0  0  0  0  0  0  0
   35.9720   31.9340   39.6500 H   0  0  0  0  0  0  0  0  0  0  0  0
   37.6810   33.7210   39.7380 H   0  0  0  0  0  0  0  0  0  0  0  0
   39.7690   33.3750   41.0480 H   0  0  0  0  0  0  0  0  0  0  0  0
   40.1700   26.2150   43.3830 C   0  0  0  0  0  3  0  0  0  0  0  0
   39.7730   24.8070   43.2640 C   0  0  0  0  0  2  0  0  0  0  0  0
   40.5240   25.3960   42.1580 C   0  0  0  0  0  2  0  0  0  0  0  0
  1  2  1  0  0  0  0
  2  6  1  0  0  0  0
  2  3  2  0  0  0  0
  3  7  1  0  0  0  0
  4 17  1  0  0  0  0
  4  3  1  0  0  0  0
  5  1  2  0  0  0  0
  5  4  1  0  0  0  0
  8  9  2  0  0  0  0
  8 13  1  0  0  0  0
  9 10  1  0  0  0  0
 10 16  1  0  0  0  0
 10 11  2  0  0  0  0
 12 11  1  0  0  0  0
 12  1  1  0  0  0  0
 13 12  2  0  0  0  0
 14  8  1  0  0  0  0
 15  9  1  0  0  0  0
 18 17  1  0  0  0  0
 19 18  1  0  0  0  0
 19 17  1  0  0  0  0
M  END
>  <minimizedAffinity>
-4.00667477

$$$$
