
 OpenBabel03242510223D

 32 35  0  0  1  0  0  0  0  0999 V2000
   46.3060   32.1200   44.4740 C   0  0  1  0  0  0  0  0  0  0  0  0
   46.4020   31.3730   43.2920 C   0  0  0  0  0  0  0  0  0  0  0  0
   47.6500   32.1200   43.8590 C   0  0  1  0  0  0  0  0  0  0  0  0
   46.1690   31.6600   45.4770 H   0  0  0  0  0  0  0  0  0  0  0  0
   46.1050   31.6320   42.2580 H   0  0  0  0  0  0  0  0  0  0  0  0
   46.4800   30.2460   43.3820 H   0  0  0  0  0  0  0  0  0  0  0  0
   48.4200   31.4180   44.2090 H   0  0  0  0  0  0  0  0  0  0  0  0
   45.0360   34.0000   43.1850 C   0  0  0  0  0  0  0  0  0  0  0  0
   45.5430   33.4570   44.4100 C   0  0  0  0  0  0  0  0  0  0  0  0
   45.3480   34.1920   45.5610 C   0  0  0  0  0  0  0  0  0  0  0  0
   44.6990   35.3720   45.4850 N   0  0  0  0  0  0  0  0  0  0  0  0
   44.2240   35.8760   44.3120 C   0  0  0  0  0  0  0  0  0  0  0  0
   44.4050   35.1560   43.1290 N   0  0  0  0  0  0  0  0  0  0  0  0
   45.1770   33.4060   42.3030 H   0  0  0  0  0  0  0  0  0  0  0  0
   45.7030   33.8420   46.5230 H   0  0  0  0  0  0  0  0  0  0  0  0
   43.7060   36.8220   44.2580 H   0  0  0  0  0  0  0  0  0  0  0  0
   47.9990   33.2570   43.0840 N   0  0  0  0  0  0  0  0  0  0  0  0
   49.2110   33.3780   42.4140 C   0  0  0  0  0  0  0  0  0  0  0  0
   50.3800   33.0790   42.7640 O   0  0  0  0  0  0  0  0  0  0  0  0
   47.3970   34.0990   42.9450 H   0  0  0  0  0  0  0  0  0  0  0  0
   49.2190   33.9580   41.0070 C   0  0  2  0  0  0  0  0  0  0  0  0
   48.6450   35.4130   40.8520 C   0  0  0  0  0  0  0  0  0  0  0  0
   47.9780   34.1970   40.2730 C   0  0  1  0  0  0  0  0  0  0  0  0
   50.1700   33.8890   40.4400 H   0  0  0  0  0  0  0  0  0  0  0  0
   48.2080   35.8180   41.7920 H   0  0  0  0  0  0  0  0  0  0  0  0
   49.1130   36.0770   40.1350 H   0  0  0  0  0  0  0  0  0  0  0  0
   47.0990   33.6970   40.7440 H   0  0  0  0  0  0  0  0  0  0  0  0
   48.0090   34.0540   38.7720 C   0  0  0  0  0  0  0  0  0  0  0  0
   48.5590   34.8940   38.0740 O   0  0  0  0  0  0  0  0  0  0  0  0
   47.3620   32.8740   38.1130 C   0  0  0  0  0  3  0  0  0  0  0  0
   46.1930   32.2100   38.7230 C   0  0  0  0  0  2  0  0  0  0  0  0
   45.9750   33.1600   37.5720 C   0  0  0  0  0  2  0  0  0  0  0  0
  1  4  1  1  0  0  0
  2  6  1  0  0  0  0
  2  3  1  0  0  0  0
  2  1  1  0  0  0  0
  3  7  1  1  0  0  0
  3  1  1  0  0  0  0
  5  2  1  0  0  0  0
  8  9  1  0  0  0  0
  9  1  1  0  0  0  0
  9 10  2  0  0  0  0
 10 15  1  0  0  0  0
 11 10  1  0  0  0  0
 12 11  2  0  0  0  0
 13  8  2  0  0  0  0
 13 12  1  0  0  0  0
 14  8  1  0  0  0  0
 16 12  1  0  0  0  0
 17  3  1  0  0  0  0
 18 19  2  0  0  0  0
 18 17  1  0  0  0  0
 20 17  1  0  0  0  0
 21 24  1  6  0  0  0
 21 18  1  0  0  0  0
 22 21  1  0  0  0  0
 22 25  1  0  0  0  0
 23 27  1  1  0  0  0
 23 22  1  0  0  0  0
 23 21  1  0  0  0  0
 26 22  1  0  0  0  0
 28 23  1  0  0  0  0
 29 28  2  0  0  0  0
 30 31  1  0  0  0  0
 30 28  1  0  0  0  0
 32 30  1  0  0  0  0
 32 31  1  0  0  0  0
M  END
>  <minimizedAffinity>
-4.42124414

>  <minimizedRMSD>
0.43685782

$$$$
