
 OpenBabel03242510223D

 32 35  0  0  1  0  0  0  0  0999 V2000
   46.3130   32.1220   44.5260 C   0  0  1  0  0  0  0  0  0  0  0  0
   46.4520   31.3690   43.3510 C   0  0  0  0  0  0  0  0  0  0  0  0
   47.6790   32.1200   43.9600 C   0  0  1  0  0  0  0  0  0  0  0  0
   46.1390   31.6660   45.5240 H   0  0  0  0  0  0  0  0  0  0  0  0
   46.1940   31.6240   42.3060 H   0  0  0  0  0  0  0  0  0  0  0  0
   46.5280   30.2430   43.4490 H   0  0  0  0  0  0  0  0  0  0  0  0
   48.4350   31.4200   44.3420 H   0  0  0  0  0  0  0  0  0  0  0  0
   45.0660   33.9810   43.1860 C   0  0  0  0  0  0  0  0  0  0  0  0
   45.5510   33.4570   44.4280 C   0  0  0  0  0  0  0  0  0  0  0  0
   45.3380   34.2110   45.5640 C   0  0  0  0  0  0  0  0  0  0  0  0
   44.6910   35.3890   45.4580 N   0  0  0  0  0  0  0  0  0  0  0  0
   44.2360   35.8760   44.2700 C   0  0  0  0  0  0  0  0  0  0  0  0
   44.4360   35.1370   43.1010 N   0  0  0  0  0  0  0  0  0  0  0  0
   45.2210   33.3730   42.3160 H   0  0  0  0  0  0  0  0  0  0  0  0
   45.6760   33.8760   46.5360 H   0  0  0  0  0  0  0  0  0  0  0  0
   43.7200   36.8200   44.1920 H   0  0  0  0  0  0  0  0  0  0  0  0
   48.0550   33.2540   43.1950 N   0  0  0  0  0  0  0  0  0  0  0  0
   49.2250   33.3110   42.4460 C   0  0  0  0  0  0  0  0  0  0  0  0
   50.3910   32.9210   42.7060 O   0  0  0  0  0  0  0  0  0  0  0  0
   47.5070   34.1390   43.1200 H   0  0  0  0  0  0  0  0  0  0  0  0
   49.1800   33.9340   41.0580 C   0  0  2  0  0  0  0  0  0  0  0  0
   48.6900   35.4250   40.9810 C   0  0  0  0  0  0  0  0  0  0  0  0
   47.9120   34.2720   40.4140 C   0  0  1  0  0  0  0  0  0  0  0  0
   50.0870   33.8260   40.4290 H   0  0  0  0  0  0  0  0  0  0  0  0
   48.3400   35.8270   41.9580 H   0  0  0  0  0  0  0  0  0  0  0  0
   49.1530   36.0830   40.2530 H   0  0  0  0  0  0  0  0  0  0  0  0
   47.0350   33.8120   40.9270 H   0  0  0  0  0  0  0  0  0  0  0  0
   47.8390   34.1740   38.9110 C   0  0  0  0  0  0  0  0  0  0  0  0
   48.5830   34.8390   38.2020 O   0  0  0  0  0  0  0  0  0  0  0  0
   46.8480   33.2580   38.2610 C   0  0  0  0  0  3  0  0  0  0  0  0
   46.9070   32.9810   36.8120 C   0  0  0  0  0  2  0  0  0  0  0  0
   47.4470   31.9540   37.7750 C   0  0  0  0  0  2  0  0  0  0  0  0
  1  4  1  1  0  0  0
  2  6  1  0  0  0  0
  2  3  1  0  0  0  0
  2  1  1  0  0  0  0
  3  7  1  1  0  0  0
  3  1  1  0  0  0  0
  5  2  1  0  0  0  0
  8  9  1  0  0  0  0
  9  1  1  0  0  0  0
  9 10  2  0  0  0  0
 10 15  1  0  0  0  0
 11 10  1  0  0  0  0
 12 11  2  0  0  0  0
 13  8  2  0  0  0  0
 13 12  1  0  0  0  0
 14  8  1  0  0  0  0
 16 12  1  0  0  0  0
 17  3  1  0  0  0  0
 18 19  2  0  0  0  0
 18 17  1  0  0  0  0
 20 17  1  0  0  0  0
 21 24  1  6  0  0  0
 21 18  1  0  0  0  0
 22 21  1  0  0  0  0
 22 25  1  0  0  0  0
 23 27  1  1  0  0  0
 23 22  1  0  0  0  0
 23 21  1  0  0  0  0
 26 22  1  0  0  0  0
 28 23  1  0  0  0  0
 29 28  2  0  0  0  0
 30 28  1  0  0  0  0
 31 32  1  0  0  0  0
 31 30  1  0  0  0  0
 32 30  1  0  0  0  0
M  END
>  <minimizedAffinity>
-4.52030945

>  <minimizedRMSD>
0.128282949

$$$$
