
 OpenBabel03252503343D

 16 17  0  0  0  0  0  0  0  0999 V2000
   44.6340   36.0950   44.3590 C   0  0  0  0  0  0  0  0  0  0  0  0
   45.4950   35.8260   43.2650 C   0  0  0  0  0  0  0  0  0  0  0  0
   46.3060   34.6890   43.3350 C   0  0  0  0  0  0  0  0  0  0  0  0
   46.2370   33.9070   44.4270 N   0  0  0  0  0  0  0  0  0  0  0  0
   45.4120   34.1710   45.4670 C   0  0  0  0  0  0  0  0  0  0  0  0
   44.6180   35.2610   45.4240 N   0  0  0  0  0  0  0  0  0  0  0  0
   43.9730   36.9740   44.3610 H   0  0  0  0  0  0  0  0  0  0  0  0
   45.5040   36.4920   42.4180 H   0  0  0  0  0  0  0  0  0  0  0  0
   45.4660   33.4530   46.2720 H   0  0  0  0  0  0  0  0  0  0  0  0
   46.7340   33.6430   41.1170 C   0  0  0  0  0  0  0  0  0  0  0  0
   45.4920   33.3680   41.1320 O   0  0  0  0  0  0  0  0  0  0  0  0
   47.1830   34.3760   42.2700 N   0  0  0  0  0  0  0  0  0  0  0  0
   48.2020   34.6710   42.2820 H   0  0  0  0  0  0  0  0  0  0  0  0
   47.7200   33.2890   40.0640 C   0  0  0  0  0  3  0  0  0  0  0  0
   47.3440   33.3910   38.6110 C   0  0  0  0  0  2  0  0  0  0  0  0
   48.1670   34.4890   39.1930 C   0  0  0  0  0  2  0  0  0  0  0  0
  1  7  1  0  0  0  0
  1  6  1  0  0  0  0
  2  3  1  0  0  0  0
  2  1  2  0  0  0  0
  3  4  2  0  0  0  0
  4  5  1  0  0  0  0
  5  9  1  0  0  0  0
  6  5  2  0  0  0  0
  8  2  1  0  0  0  0
 10 11  2  0  0  0  0
 10 12  1  0  0  0  0
 12 13  1  0  0  0  0
 12  3  1  0  0  0  0
 14 10  1  0  0  0  0
 15 16  1  0  0  0  0
 15 14  1  0  0  0  0
 16 14  1  0  0  0  0
M  END
>  <minimizedAffinity>
-3.60786533

>  <minimizedRMSD>
0.721781254

$$$$
