
 OpenBabel03252509343D

 37 39  0  0  1  0  0  0  0  0999 V2000
   45.8590   33.5790   41.7390 C   0  0  1  0  0  0  0  0  0  0  0  0
   44.8710   34.0770   40.7080 C   0  0  0  0  0  0  0  0  0  0  0  0
   45.0840   33.0820   39.5970 C   0  0  0  0  0  0  0  0  0  0  0  0
   46.5050   32.5730   39.7490 C   0  0  0  0  0  0  0  0  0  0  0  0
   47.1130   33.4040   40.8790 C   0  0  1  0  0  0  0  0  0  0  0  0
   45.5300   32.6030   42.0900 H   0  0  0  0  0  0  0  0  0  0  0  0
   43.8270   33.8680   41.0910 H   0  0  0  0  0  0  0  0  0  0  0  0
   45.0020   35.1190   40.4340 H   0  0  0  0  0  0  0  0  0  0  0  0
   44.9730   33.6110   38.6290 H   0  0  0  0  0  0  0  0  0  0  0  0
   44.3570   32.2430   39.6110 H   0  0  0  0  0  0  0  0  0  0  0  0
   47.0240   32.5760   38.8240 H   0  0  0  0  0  0  0  0  0  0  0  0
   46.4510   31.5320   40.2050 H   0  0  0  0  0  0  0  0  0  0  0  0
   47.8050   32.8150   41.4870 H   0  0  0  0  0  0  0  0  0  0  0  0
   47.6980   34.7030   40.4540 C   0  0  0  0  0  0  0  0  0  0  0  0
   46.9950   35.5200   40.8150 H   0  0  0  0  0  0  0  0  0  0  0  0
   47.7250   34.8030   39.3340 H   0  0  0  0  0  0  0  0  0  0  0  0
   49.0210   34.9750   41.0730 C   0  0  0  0  0  3  0  0  0  0  0  0
   49.3720   36.1600   41.8670 C   0  0  0  0  0  2  0  0  0  0  0  0
   49.4010   34.7390   42.4610 C   0  0  0  0  0  2  0  0  0  0  0  0
   46.0680   34.4990   42.7610 O   0  0  0  0  0  0  0  0  0  0  0  0
   44.7870   34.9370   44.9780 O   0  0  0  0  0  0  0  0  0  0  0  0
   45.5200   33.8700   44.2220 P   0  0  1  0  0  0  0  0  0  0  0  0
   44.5570   32.5120   43.9590 O   0  0  0  0  0  0  0  0  0  0  0  0
   43.8270   32.7900   43.3730 H   0  0  0  0  0  0  0  0  0  0  0  0
   46.8420   33.3200   45.1070 O   0  0  0  0  0  0  0  0  0  0  0  0
   46.7420   31.9870   45.2770 C   0  0  0  0  0  0  0  0  0  0  0  0
   46.1710   31.3990   44.5660 H   0  0  0  0  0  0  0  0  0  0  0  0
   47.7900   31.5690   45.2170 H   0  0  0  0  0  0  0  0  0  0  0  0
   46.1250   32.0740   48.9470 C   0  0  0  0  0  0  0  0  0  0  0  0
   46.5860   32.4330   47.6710 C   0  0  0  0  0  0  0  0  0  0  0  0
   46.2580   31.6140   46.6180 C   0  0  0  0  0  0  0  0  0  0  0  0
   45.5070   30.5030   46.8690 N   0  0  0  0  0  0  0  0  0  0  0  0
   45.0770   30.1780   48.0950 C   0  0  0  0  0  0  0  0  0  0  0  0
   45.3870   30.9620   49.1210 N   0  0  0  0  0  0  0  0  0  0  0  0
   46.4110   32.7540   49.7450 H   0  0  0  0  0  0  0  0  0  0  0  0
   47.1830   33.3370   47.5470 H   0  0  0  0  0  0  0  0  0  0  0  0
   44.4810   29.2930   48.2830 H   0  0  0  0  0  0  0  0  0  0  0  0
  1  6  1  1  0  0  0
  1 20  1  0  0  0  0
  2  7  1  0  0  0  0
  2  1  1  0  0  0  0
  3 10  1  0  0  0  0
  3  4  1  0  0  0  0
  3  2  1  0  0  0  0
  4 12  1  0  0  0  0
  4  5  1  0  0  0  0
  5 13  1  1  0  0  0
  5  1  1  0  0  0  0
  8  2  1  0  0  0  0
  9  3  1  0  0  0  0
 11  4  1  0  0  0  0
 14 15  1  0  0  0  0
 14  5  1  0  0  0  0
 14 17  1  0  0  0  0
 16 14  1  0  0  0  0
 17 18  1  0  0  0  0
 17 19  1  0  0  0  0
 18 19  1  0  0  0  0
 20 22  1  0  0  0  0
 22 21  2  1  0  0  0
 22 25  1  0  0  0  0
 23 22  1  0  0  0  0
 24 23  1  0  0  0  0
 25 26  1  0  0  0  0
 26 31  1  0  0  0  0
 27 26  1  0  0  0  0
 28 26  1  0  0  0  0
 29 34  1  0  0  0  0
 29 35  1  0  0  0  0
 30 29  2  0  0  0  0
 31 32  2  0  0  0  0
 31 30  1  0  0  0  0
 32 33  1  0  0  0  0
 33 37  1  0  0  0  0
 33 34  2  0  0  0  0
 36 30  1  0  0  0  0
M  END
>  <minimizedAffinity>
-4.99328089

>  <minimizedRMSD>
1.31700718

$$$$
