
 OpenBabel03252501483D

 27 29  0  0  0  0  0  0  0  0999 V2000
   43.9800   33.4820   41.0710 C   0  0  0  0  0  0  0  0  0  0  0  0
   44.3330   34.7320   41.6450 C   0  0  0  0  0  0  0  0  0  0  0  0
   43.4320   35.7940   41.5570 C   0  0  0  0  0  0  0  0  0  0  0  0
   42.2510   35.5640   40.9150 N   0  0  0  0  0  0  0  0  0  0  0  0
   41.9530   34.3700   40.3860 C   0  0  0  0  0  0  0  0  0  0  0  0
   42.8100   33.3350   40.4620 N   0  0  0  0  0  0  0  0  0  0  0  0
   44.6570   32.6370   41.1230 H   0  0  0  0  0  0  0  0  0  0  0  0
   43.6590   36.7550   41.9770 H   0  0  0  0  0  0  0  0  0  0  0  0
   39.6620   33.7180   41.8170 F   0  0  0  0  0  0  0  0  0  0  0  0
   39.5390   33.8620   40.4650 C   0  0  0  0  0  0  0  0  0  0  0  0
   40.6710   34.1890   39.7130 C   0  0  0  0  0  0  0  0  0  0  0  0
   40.6030   34.3450   38.3550 C   0  0  0  0  0  0  0  0  0  0  0  0
   39.3610   34.1660   37.7460 C   0  0  0  0  0  0  0  0  0  0  0  0
   38.2140   33.8370   38.4780 C   0  0  0  0  0  0  0  0  0  0  0  0
   38.3090   33.6830   39.8620 C   0  0  0  0  0  0  0  0  0  0  0  0
   41.4660   34.5990   37.7560 H   0  0  0  0  0  0  0  0  0  0  0  0
   39.2110   34.2680   36.6820 H   0  0  0  0  0  0  0  0  0  0  0  0
   37.2610   33.7030   37.9820 H   0  0  0  0  0  0  0  0  0  0  0  0
   37.4580   33.4320   40.4740 H   0  0  0  0  0  0  0  0  0  0  0  0
   45.6190   34.8910   42.3150 C   0  0  0  0  0  0  0  0  0  0  0  0
   46.6690   34.1070   42.1450 C   0  0  0  0  0  0  0  0  0  0  0  0
   47.9580   34.3460   42.8790 C   0  0  0  0  0  0  0  0  0  0  0  0
   47.7610   35.1470   43.6190 H   0  0  0  0  0  0  0  0  0  0  0  0
   48.2500   33.4310   43.4420 H   0  0  0  0  0  0  0  0  0  0  0  0
   49.0570   34.8320   41.9720 C   0  0  0  0  0  0  0  0  0  0  0  0
   48.7310   35.2720   40.6010 C   0  0  0  0  0  0  0  0  0  0  0  0
   49.2430   36.2660   41.6480 C   0  0  0  0  0  0  0  0  0  0  0  0
  1  7  1  0  0  0  0
  1  2  1  0  0  0  0
  2 20  1  0  0  0  0
  3  2  2  0  0  0  0
  3  8  1  0  0  0  0
  4  3  1  0  0  0  0
  5  6  1  0  0  0  0
  5  4  2  0  0  0  0
  6  1  2  0  0  0  0
 10  9  1  0  0  0  0
 11  5  1  0  0  0  0
 11 10  2  0  0  0  0
 12 11  1  0  0  0  0
 13 12  2  0  0  0  0
 13 14  1  0  0  0  0
 14 15  2  0  0  0  0
 15 10  1  0  0  0  0
 15 19  1  0  0  0  0
 16 12  1  0  0  0  0
 17 13  1  0  0  0  0
 18 14  1  0  0  0  0
 21 20  2  0  0  0  0
 21 22  1  0  0  0  0
 22 24  1  0  0  0  0
 22 23  1  0  0  0  0
 25 22  1  0  0  0  0
 26 27  1  0  0  0  0
 26 25  1  0  0  0  0
 27 25  1  0  0  0  0
M  END
>  <minimizedAffinity>
-6.01112843

>  <minimizedRMSD>
0.593631923

$$$$
