
 OpenBabel03252508343D

 29 31  0  0  1  0  0  0  0  0999 V2000
   45.3060   34.2650   41.7520 N   0  0  0  0  0  0  0  0  0  0  0  0
   46.6200   33.9230   41.2630 C   0  0  1  0  0  0  0  0  0  0  0  0
   46.6830   33.6920   39.8020 C   0  0  0  0  0  0  0  0  0  0  0  0
   45.5930   33.0150   39.2280 N   0  0  0  0  0  0  0  0  0  0  0  0
   44.3290   33.1740   39.8110 C   0  0  0  0  0  0  0  0  0  0  0  0
   44.3000   34.3760   40.7370 C   0  0  0  0  0  0  0  0  0  0  0  0
   46.9240   32.9870   41.7740 H   0  0  0  0  0  0  0  0  0  0  0  0
   47.6320   33.1460   39.5670 H   0  0  0  0  0  0  0  0  0  0  0  0
   46.7820   34.6850   39.2990 H   0  0  0  0  0  0  0  0  0  0  0  0
   45.8350   32.0380   38.9450 H   0  0  0  0  0  0  0  0  0  0  0  0
   44.1160   32.2890   40.4630 H   0  0  0  0  0  0  0  0  0  0  0  0
   43.4780   33.2540   39.0950 H   0  0  0  0  0  0  0  0  0  0  0  0
   44.3850   35.2810   40.1020 H   0  0  0  0  0  0  0  0  0  0  0  0
   43.3190   34.3630   41.2580 H   0  0  0  0  0  0  0  0  0  0  0  0
   44.5590   35.6520   43.5240 C   0  0  0  0  0  0  0  0  0  0  0  0
   45.1570   34.4480   43.1340 C   0  0  0  0  0  0  0  0  0  0  0  0
   45.5430   33.5580   44.1350 C   0  0  0  0  0  0  0  0  0  0  0  0
   45.3300   33.8800   45.4370 N   0  0  0  0  0  0  0  0  0  0  0  0
   44.7500   35.0490   45.7770 C   0  0  0  0  0  0  0  0  0  0  0  0
   44.3710   35.9190   44.8480 N   0  0  0  0  0  0  0  0  0  0  0  0
   44.2310   36.3970   42.7860 H   0  0  0  0  0  0  0  0  0  0  0  0
   45.9940   32.6540   43.8100 H   0  0  0  0  0  0  0  0  0  0  0  0
   44.5500   35.3710   46.7870 H   0  0  0  0  0  0  0  0  0  0  0  0
   47.5560   35.0660   41.5880 C   0  0  0  0  0  0  0  0  0  0  0  0
   47.4310   35.2610   42.6890 H   0  0  0  0  0  0  0  0  0  0  0  0
   47.2800   35.9400   40.9900 H   0  0  0  0  0  0  0  0  0  0  0  0
   49.0020   34.7420   41.3670 C   0  0  0  0  0  3  0  0  0  0  0  0
   49.8930   35.0880   42.5740 C   0  0  0  0  0  2  0  0  0  0  0  0
   49.6920   33.6730   42.1140 C   0  0  0  0  0  2  0  0  0  0  0  0
  1 16  1  0  0  0  0
  2 24  1  0  0  0  0
  2  1  1  0  0  0  0
  2  7  1  1  0  0  0
  3  2  1  0  0  0  0
  4  3  1  0  0  0  0
  4  5  1  0  0  0  0
  5 11  1  0  0  0  0
  5  6  1  0  0  0  0
  6 14  1  0  0  0  0
  6  1  1  0  0  0  0
  8  3  1  0  0  0  0
  9  3  1  0  0  0  0
 10  4  1  0  0  0  0
 12  5  1  0  0  0  0
 13  6  1  0  0  0  0
 15 20  1  0  0  0  0
 16 15  2  0  0  0  0
 16 17  1  0  0  0  0
 17 18  2  0  0  0  0
 18 19  1  0  0  0  0
 19 23  1  0  0  0  0
 20 19  2  0  0  0  0
 21 15  1  0  0  0  0
 22 17  1  0  0  0  0
 24 25  1  0  0  0  0
 26 24  1  0  0  0  0
 27 24  1  0  0  0  0
 27 29  1  0  0  0  0
 27 28  1  0  0  0  0
 29 28  1  0  0  0  0
M  END
>  <minimizedAffinity>
-4.55693674

>  <minimizedRMSD>
0.87535584

$$$$
