
 OpenBabel03242519553D

 34 36  0  0  1  0  0  0  0  0999 V2000
   37.9610   30.2160   41.2490 C   0  0  2  0  0  0  0  0  0  0  0  0
   38.8150   29.2710   40.4970 C   0  0  0  0  0  0  0  0  0  0  0  0
   38.0200   28.3480   39.6320 C   0  0  0  0  0  0  0  0  0  0  0  0
   36.9620   27.5850   40.3810 C   0  0  0  0  0  0  0  0  0  0  0  0
   36.2950   28.3710   41.4720 C   0  0  2  0  0  0  0  0  0  0  0  0
   36.5140   29.8590   41.2930 C   0  0  0  0  0  0  0  0  0  0  0  0
   38.3480   30.1940   42.3170 H   0  0  0  0  0  0  0  0  0  0  0  0
   39.4890   28.6770   41.1450 H   0  0  0  0  0  0  0  0  0  0  0  0
   39.4720   29.8580   39.8020 H   0  0  0  0  0  0  0  0  0  0  0  0
   38.7260   27.5770   39.2270 H   0  0  0  0  0  0  0  0  0  0  0  0
   37.6330   28.8740   38.7310 H   0  0  0  0  0  0  0  0  0  0  0  0
   37.3230   26.5930   40.7590 H   0  0  0  0  0  0  0  0  0  0  0  0
   36.1850   27.3230   39.6230 H   0  0  0  0  0  0  0  0  0  0  0  0
   35.1730   28.2360   41.4190 H   0  0  0  0  0  0  0  0  0  0  0  0
   36.0480   30.3320   42.2140 H   0  0  0  0  0  0  0  0  0  0  0  0
   35.8790   30.1500   40.4740 H   0  0  0  0  0  0  0  0  0  0  0  0
   38.1080   31.6160   40.8220 C   0  0  0  0  0  0  0  0  0  0  0  0
   37.1390   32.0310   39.9110 C   0  0  0  0  0  0  0  0  0  0  0  0
   37.1420   33.3460   39.4410 C   0  0  0  0  0  0  0  0  0  0  0  0
   38.1460   34.1600   39.9340 N   0  0  0  0  0  0  0  0  0  0  0  0
   39.0670   33.7240   40.8110 C   0  0  0  0  0  0  0  0  0  0  0  0
   39.0370   32.4600   41.2440 N   0  0  0  0  0  0  0  0  0  0  0  0
   36.2990   31.5890   39.3960 H   0  0  0  0  0  0  0  0  0  0  0  0
   36.5170   33.8720   38.7640 H   0  0  0  0  0  0  0  0  0  0  0  0
   39.8380   34.3680   41.1820 H   0  0  0  0  0  0  0  0  0  0  0  0
   36.7380   27.8520   42.7830 C   0  0  0  0  0  0  0  0  0  0  0  0
   35.8640   27.7270   43.4530 H   0  0  0  0  0  0  0  0  0  0  0  0
   37.3240   28.6890   43.2670 H   0  0  0  0  0  0  0  0  0  0  0  0
   37.6320   26.6680   42.7680 C   0  0  0  0  0  0  0  0  0  0  0  0
   37.7850   26.2290   41.7640 H   0  0  0  0  0  0  0  0  0  0  0  0
   37.1380   25.8680   43.3640 H   0  0  0  0  0  0  0  0  0  0  0  0
   38.9760   26.8920   43.3820 C   0  0  0  0  0  3  0  0  0  0  0  0
   40.1270   26.4800   42.4510 C   0  0  0  0  0  2  0  0  0  0  0  0
   39.8740   25.7140   43.6700 C   0  0  0  0  0  2  0  0  0  0  0  0
  1  6  1  0  0  0  0
  1  7  1  1  0  0  0
  2  8  1  0  0  0  0
  2  1  1  0  0  0  0
  3  4  1  0  0  0  0
  3  2  1  0  0  0  0
  4 12  1  0  0  0  0
  4  5  1  0  0  0  0
  5 14  1  6  0  0  0
  5 26  1  0  0  0  0
  6  5  1  0  0  0  0
  6 15  1  0  0  0  0
  9  2  1  0  0  0  0
 10  3  1  0  0  0  0
 11  3  1  0  0  0  0
 13  4  1  0  0  0  0
 16  6  1  0  0  0  0
 17 22  1  0  0  0  0
 17  1  1  0  0  0  0
 18 17  2  0  0  0  0
 19 18  1  0  0  0  0
 19 20  2  0  0  0  0
 20 21  1  0  0  0  0
 21 25  1  0  0  0  0
 21 22  2  0  0  0  0
 23 18  1  0  0  0  0
 24 19  1  0  0  0  0
 26 28  1  0  0  0  0
 26 27  1  0  0  0  0
 29 26  1  0  0  0  0
 29 31  1  0  0  0  0
 29 32  1  0  0  0  0
 30 29  1  0  0  0  0
 32 34  1  0  0  0  0
 33 32  1  0  0  0  0
 33 34  1  0  0  0  0
M  END
>  <minimizedAffinity>
-4.78263283

$$$$

 OpenBabel03242519553D

 34 36  0  0  1  0  0  0  0  0999 V2000
   37.6980   30.3720   40.0730 C   0  0  2  0  0  0  0  0  0  0  0  0
   37.4730   29.8490   38.7080 C   0  0  0  0  0  0  0  0  0  0  0  0
   36.0260   29.8270   38.3370 C   0  0  0  0  0  0  0  0  0  0  0  0
   35.1670   29.0710   39.3150 C   0  0  0  0  0  0  0  0  0  0  0  0
   35.5840   29.2290   40.7480 C   0  0  2  0  0  0  0  0  0  0  0  0
   36.4810   30.4370   40.9320 C   0  0  0  0  0  0  0  0  0  0  0  0
   38.4210   29.6460   40.5630 H   0  0  0  0  0  0  0  0  0  0  0  0
   37.9090   28.8450   38.5450 H   0  0  0  0  0  0  0  0  0  0  0  0
   37.9690   30.5380   37.9750 H   0  0  0  0  0  0  0  0  0  0  0  0
   35.9370   29.2780   37.3640 H   0  0  0  0  0  0  0  0  0  0  0  0
   35.6500   30.8510   38.1170 H   0  0  0  0  0  0  0  0  0  0  0  0
   35.0440   27.9900   39.0450 H   0  0  0  0  0  0  0  0  0  0  0  0
   34.1410   29.4980   39.2080 H   0  0  0  0  0  0  0  0  0  0  0  0
   34.6820   29.4390   41.3960 H   0  0  0  0  0  0  0  0  0  0  0  0
   36.7990   30.3960   42.0210 H   0  0  0  0  0  0  0  0  0  0  0  0
   35.8340   31.2930   40.8580 H   0  0  0  0  0  0  0  0  0  0  0  0
   38.3880   31.6710   40.1040 C   0  0  0  0  0  0  0  0  0  0  0  0
   37.5330   32.7660   39.9920 C   0  0  0  0  0  0  0  0  0  0  0  0
   38.0510   34.0620   40.0330 C   0  0  0  0  0  0  0  0  0  0  0  0
   39.4230   34.1580   40.1840 N   0  0  0  0  0  0  0  0  0  0  0  0
   40.2190   33.0780   40.2860 C   0  0  0  0  0  0  0  0  0  0  0  0
   39.6930   31.8510   40.2450 N   0  0  0  0  0  0  0  0  0  0  0  0
   36.4740   32.9300   39.8600 H   0  0  0  0  0  0  0  0  0  0  0  0
   37.6020   35.0210   39.9710 H   0  0  0  0  0  0  0  0  0  0  0  0
   41.2790   33.1720   40.4010 H   0  0  0  0  0  0  0  0  0  0  0  0
   36.1800   27.9610   41.2210 C   0  0  0  0  0  0  0  0  0  0  0  0
   36.9560   27.6220   40.5070 H   0  0  0  0  0  0  0  0  0  0  0  0
   35.3690   27.1800   41.1210 H   0  0  0  0  0  0  0  0  0  0  0  0
   36.6320   27.9190   42.6340 C   0  0  0  0  0  0  0  0  0  0  0  0
   35.9020   27.4610   43.3290 H   0  0  0  0  0  0  0  0  0  0  0  0
   36.7440   28.9710   42.9800 H   0  0  0  0  0  0  0  0  0  0  0  0
   37.9530   27.2530   42.8480 C   0  0  0  0  0  3  0  0  0  0  0  0
   39.0780   28.2570   43.1480 C   0  0  0  0  0  2  0  0  0  0  0  0
   39.0870   27.5140   41.8890 C   0  0  0  0  0  2  0  0  0  0  0  0
  1 17  1  0  0  0  0
  1  7  1  1  0  0  0
  1  6  1  0  0  0  0
  2  1  1  0  0  0  0
  3  2  1  0  0  0  0
  3  4  1  0  0  0  0
  4  5  1  0  0  0  0
  5  6  1  0  0  0  0
  5 26  1  0  0  0  0
  5 14  1  1  0  0  0
  6 15  1  0  0  0  0
  8  2  1  0  0  0  0
  9  2  1  0  0  0  0
 10  3  1  0  0  0  0
 11  3  1  0  0  0  0
 12  4  1  0  0  0  0
 13  4  1  0  0  0  0
 16  6  1  0  0  0  0
 17 22  1  0  0  0  0
 18 19  1  0  0  0  0
 18 17  2  0  0  0  0
 19 20  2  0  0  0  0
 20 21  1  0  0  0  0
 21 25  1  0  0  0  0
 22 21  2  0  0  0  0
 23 18  1  0  0  0  0
 24 19  1  0  0  0  0
 26 29  1  0  0  0  0
 27 26  1  0  0  0  0
 28 26  1  0  0  0  0
 29 32  1  0  0  0  0
 29 31  1  0  0  0  0
 29 30  1  0  0  0  0
 32 33  1  0  0  0  0
 34 32  1  0  0  0  0
 34 33  1  0  0  0  0
M  END
>  <minimizedAffinity>
-4.70893621

$$$$

 OpenBabel03242519553D

 34 36  0  0  1  0  0  0  0  0999 V2000
   38.0780   29.1960   40.8410 C   0  0  2  0  0  0  0  0  0  0  0  0
   37.1570   28.0390   40.8360 C   0  0  0  0  0  0  0  0  0  0  0  0
   36.2960   27.9900   42.0570 C   0  0  0  0  0  0  0  0  0  0  0  0
   37.0770   28.0060   43.3430 C   0  0  0  0  0  0  0  0  0  0  0  0
   38.3000   28.8760   43.3070 C   0  0  2  0  0  0  0  0  0  0  0  0
   38.2390   29.8680   42.1630 C   0  0  0  0  0  0  0  0  0  0  0  0
   39.0940   28.7790   40.5470 H   0  0  0  0  0  0  0  0  0  0  0  0
   37.6720   27.0680   40.7100 H   0  0  0  0  0  0  0  0  0  0  0  0
   36.4550   28.1460   39.9670 H   0  0  0  0  0  0  0  0  0  0  0  0
   35.7500   27.0110   42.0420 H   0  0  0  0  0  0  0  0  0  0  0  0
   35.4940   28.7600   42.0150 H   0  0  0  0  0  0  0  0  0  0  0  0
   37.3210   26.9790   43.7200 H   0  0  0  0  0  0  0  0  0  0  0  0
   36.3830   28.4230   44.1120 H   0  0  0  0  0  0  0  0  0  0  0  0
   38.3520   29.5140   44.2390 H   0  0  0  0  0  0  0  0  0  0  0  0
   39.2440   30.3960   42.1850 H   0  0  0  0  0  0  0  0  0  0  0  0
   37.5220   30.6120   42.4620 H   0  0  0  0  0  0  0  0  0  0  0  0
   37.7710   30.2040   39.8140 C   0  0  0  0  0  0  0  0  0  0  0  0
   37.4910   31.4670   40.3310 C   0  0  0  0  0  0  0  0  0  0  0  0
   37.2070   32.5270   39.4670 C   0  0  0  0  0  0  0  0  0  0  0  0
   37.2260   32.2250   38.1170 N   0  0  0  0  0  0  0  0  0  0  0  0
   37.4990   30.9920   37.6540 C   0  0  0  0  0  0  0  0  0  0  0  0
   37.7670   29.9990   38.5060 N   0  0  0  0  0  0  0  0  0  0  0  0
   37.4080   31.9190   41.3080 H   0  0  0  0  0  0  0  0  0  0  0  0
   36.9720   33.5480   39.6300 H   0  0  0  0  0  0  0  0  0  0  0  0
   37.5080   30.7760   36.6050 H   0  0  0  0  0  0  0  0  0  0  0  0
   39.5040   28.0170   43.2940 C   0  0  0  0  0  0  0  0  0  0  0  0
   40.3250   28.5140   43.8480 H   0  0  0  0  0  0  0  0  0  0  0  0
   39.8710   28.0130   42.2250 H   0  0  0  0  0  0  0  0  0  0  0  0
   39.3180   26.5970   43.6800 C   0  0  0  0  0  0  0  0  0  0  0  0
   38.3040   26.3570   44.0510 H   0  0  0  0  0  0  0  0  0  0  0  0
   39.9980   26.3920   44.5370 H   0  0  0  0  0  0  0  0  0  0  0  0
   39.6640   25.6090   42.6120 C   0  0  0  0  0  3  0  0  0  0  0  0
   38.5120   24.6380   42.3110 C   0  0  0  0  0  2  0  0  0  0  0  0
   39.7310   24.1400   42.9450 C   0  0  0  0  0  2  0  0  0  0  0  0
  1  7  1  6  0  0  0
  1  6  1  0  0  0  0
  2  1  1  0  0  0  0
  2  3  1  0  0  0  0
  3  4  1  0  0  0  0
  4 12  1  0  0  0  0
  4 13  1  0  0  0  0
  5  4  1  0  0  0  0
  5 14  1  1  0  0  0
  6 15  1  0  0  0  0
  6 16  1  0  0  0  0
  6  5  1  0  0  0  0
  8  2  1  0  0  0  0
  9  2  1  0  0  0  0
 10  3  1  0  0  0  0
 11  3  1  0  0  0  0
 17 18  1  0  0  0  0
 17  1  1  0  0  0  0
 18 23  1  0  0  0  0
 19 24  1  0  0  0  0
 19 18  2  0  0  0  0
 20 19  1  0  0  0  0
 21 20  2  0  0  0  0
 21 22  1  0  0  0  0
 22 17  2  0  0  0  0
 25 21  1  0  0  0  0
 26  5  1  0  0  0  0
 26 29  1  0  0  0  0
 26 27  1  0  0  0  0
 28 26  1  0  0  0  0
 29 30  1  0  0  0  0
 29 31  1  0  0  0  0
 32 34  1  0  0  0  0
 32 29  1  0  0  0  0
 33 32  1  0  0  0  0
 33 34  1  0  0  0  0
M  END
>  <minimizedAffinity>
-4.70666838

$$$$

 OpenBabel03242519553D

 34 36  0  0  1  0  0  0  0  0999 V2000
   37.1520   27.2530   41.9340 C   0  0  2  0  0  0  0  0  0  0  0  0
   37.4570   27.4280   43.3700 C   0  0  0  0  0  0  0  0  0  0  0  0
   38.9010   27.1990   43.6790 C   0  0  0  0  0  0  0  0  0  0  0  0
   39.4090   25.8600   43.2160 C   0  0  0  0  0  0  0  0  0  0  0  0
   38.8270   25.4010   41.9110 C   0  0  2  0  0  0  0  0  0  0  0  0
   38.2090   26.5540   41.1460 C   0  0  0  0  0  0  0  0  0  0  0  0
   36.2180   26.6060   41.8960 H   0  0  0  0  0  0  0  0  0  0  0  0
   36.8350   26.7940   44.0320 H   0  0  0  0  0  0  0  0  0  0  0  0
   37.2450   28.4930   43.6530 H   0  0  0  0  0  0  0  0  0  0  0  0
   39.0090   27.1980   44.7950 H   0  0  0  0  0  0  0  0  0  0  0  0
   39.5260   28.0530   43.3380 H   0  0  0  0  0  0  0  0  0  0  0  0
   39.3230   25.0640   44.0010 H   0  0  0  0  0  0  0  0  0  0  0  0
   40.5090   25.9880   43.0740 H   0  0  0  0  0  0  0  0  0  0  0  0
   39.6450   25.0120   41.2340 H   0  0  0  0  0  0  0  0  0  0  0  0
   37.7290   26.0730   40.2370 H   0  0  0  0  0  0  0  0  0  0  0  0
   39.0360   27.1240   40.7610 H   0  0  0  0  0  0  0  0  0  0  0  0
   36.7770   28.5000   41.2510 C   0  0  0  0  0  0  0  0  0  0  0  0
   36.3530   28.3170   39.9360 C   0  0  0  0  0  0  0  0  0  0  0  0
   35.9410   29.4140   39.1770 C   0  0  0  0  0  0  0  0  0  0  0  0
   35.9920   30.6410   39.8140 N   0  0  0  0  0  0  0  0  0  0  0  0
   36.4100   30.7810   41.0850 C   0  0  0  0  0  0  0  0  0  0  0  0
   36.7960   29.7110   41.7860 N   0  0  0  0  0  0  0  0  0  0  0  0
   36.2440   27.4900   39.2500 H   0  0  0  0  0  0  0  0  0  0  0  0
   35.5860   29.5110   38.1820 H   0  0  0  0  0  0  0  0  0  0  0  0
   36.4440   31.7390   41.5620 H   0  0  0  0  0  0  0  0  0  0  0  0
   37.8960   24.2810   42.1640 C   0  0  0  0  0  0  0  0  0  0  0  0
   37.0440   24.6320   42.7790 H   0  0  0  0  0  0  0  0  0  0  0  0
   38.4430   23.5700   42.8520 H   0  0  0  0  0  0  0  0  0  0  0  0
   37.4720   23.4830   40.9870 C   0  0  0  0  0  0  0  0  0  0  0  0
   37.5360   22.3880   41.1350 H   0  0  0  0  0  0  0  0  0  0  0  0
   38.1810   23.7070   40.1590 H   0  0  0  0  0  0  0  0  0  0  0  0
   36.1030   23.7990   40.4780 C   0  0  0  0  0  3  0  0  0  0  0  0
   35.7330   22.9820   39.2300 C   0  0  0  0  0  2  0  0  0  0  0  0
   35.9370   24.4250   39.1160 C   0  0  0  0  0  2  0  0  0  0  0  0
  1  7  1  6  0  0  0
  1  2  1  0  0  0  0
  2  9  1  0  0  0  0
  2  3  1  0  0  0  0
  2  8  1  0  0  0  0
  3 10  1  0  0  0  0
  4  3  1  0  0  0  0
  4 12  1  0  0  0  0
  5 14  1  6  0  0  0
  5 26  1  0  0  0  0
  5  4  1  0  0  0  0
  6  5  1  0  0  0  0
  6  1  1  0  0  0  0
 11  3  1  0  0  0  0
 13  4  1  0  0  0  0
 15  6  1  0  0  0  0
 16  6  1  0  0  0  0
 17 22  1  0  0  0  0
 17  1  1  0  0  0  0
 18 17  2  0  0  0  0
 19 20  2  0  0  0  0
 19 18  1  0  0  0  0
 20 21  1  0  0  0  0
 21 25  1  0  0  0  0
 21 22  2  0  0  0  0
 23 18  1  0  0  0  0
 24 19  1  0  0  0  0
 26 27  1  0  0  0  0
 26 28  1  0  0  0  0
 29 30  1  0  0  0  0
 29 26  1  0  0  0  0
 31 29  1  0  0  0  0
 32 29  1  0  0  0  0
 33 32  1  0  0  0  0
 34 33  1  0  0  0  0
 34 32  1  0  0  0  0
M  END
>  <minimizedAffinity>
-4.66100454

$$$$

 OpenBabel03242519553D

 34 36  0  0  1  0  0  0  0  0999 V2000
   37.3050   28.9700   41.4300 C   0  0  2  0  0  0  0  0  0  0  0  0
   37.7670   29.3010   42.7950 C   0  0  0  0  0  0  0  0  0  0  0  0
   39.0990   28.7020   43.1080 C   0  0  0  0  0  0  0  0  0  0  0  0
   39.1490   27.2110   42.9070 C   0  0  0  0  0  0  0  0  0  0  0  0
   38.3510   26.7230   41.7340 C   0  0  2  0  0  0  0  0  0  0  0  0
   38.0390   27.8500   40.7710 C   0  0  0  0  0  0  0  0  0  0  0  0
   36.2220   28.6440   41.5440 H   0  0  0  0  0  0  0  0  0  0  0  0
   37.0430   29.0200   43.5840 H   0  0  0  0  0  0  0  0  0  0  0  0
   37.9030   30.4130   42.8660 H   0  0  0  0  0  0  0  0  0  0  0  0
   39.2950   28.8710   44.1980 H   0  0  0  0  0  0  0  0  0  0  0  0
   39.9180   29.2470   42.5880 H   0  0  0  0  0  0  0  0  0  0  0  0
   38.8980   26.6360   43.8360 H   0  0  0  0  0  0  0  0  0  0  0  0
   40.2220   26.9690   42.7160 H   0  0  0  0  0  0  0  0  0  0  0  0
   38.9580   25.9860   41.1280 H   0  0  0  0  0  0  0  0  0  0  0  0
   37.3640   27.3820   39.9870 H   0  0  0  0  0  0  0  0  0  0  0  0
   38.9620   28.0600   40.2600 H   0  0  0  0  0  0  0  0  0  0  0  0
   37.2590   30.1260   40.5210 C   0  0  0  0  0  0  0  0  0  0  0  0
   37.0910   29.7840   39.1820 C   0  0  0  0  0  0  0  0  0  0  0  0
   37.0040   30.7840   38.2110 C   0  0  0  0  0  0  0  0  0  0  0  0
   37.0980   32.0840   38.6770 N   0  0  0  0  0  0  0  0  0  0  0  0
   37.2620   32.3780   39.9790 C   0  0  0  0  0  0  0  0  0  0  0  0
   37.3400   31.3970   40.8830 N   0  0  0  0  0  0  0  0  0  0  0  0
   37.0090   28.8750   38.6040 H   0  0  0  0  0  0  0  0  0  0  0  0
   36.8780   30.7600   37.1590 H   0  0  0  0  0  0  0  0  0  0  0  0
   37.3330   33.3900   40.3210 H   0  0  0  0  0  0  0  0  0  0  0  0
   37.1550   26.0070   42.2270 C   0  0  0  0  0  0  0  0  0  0  0  0
   36.2390   26.4940   41.8380 H   0  0  0  0  0  0  0  0  0  0  0  0
   37.1090   26.2060   43.3390 H   0  0  0  0  0  0  0  0  0  0  0  0
   37.1430   24.5320   42.0650 C   0  0  0  0  0  0  0  0  0  0  0  0
   36.8290   23.9790   42.9700 H   0  0  0  0  0  0  0  0  0  0  0  0
   38.1900   24.2080   41.8740 H   0  0  0  0  0  0  0  0  0  0  0  0
   36.3250   24.0370   40.9160 C   0  0  0  0  0  3  0  0  0  0  0  0
   37.0920   23.0410   40.0310 C   0  0  0  0  0  2  0  0  0  0  0  0
   36.7440   24.3600   39.5040 C   0  0  0  0  0  2  0  0  0  0  0  0
  1  7  1  1  0  0  0
  1  2  1  0  0  0  0
  2  9  1  0  0  0  0
  2  3  1  0  0  0  0
  2  8  1  0  0  0  0
  3 10  1  0  0  0  0
  4  3  1  0  0  0  0
  4 12  1  0  0  0  0
  5 14  1  6  0  0  0
  5 26  1  0  0  0  0
  5  4  1  0  0  0  0
  6  1  1  0  0  0  0
  6  5  1  0  0  0  0
 11  3  1  0  0  0  0
 13  4  1  0  0  0  0
 15  6  1  0  0  0  0
 16  6  1  0  0  0  0
 17 22  1  0  0  0  0
 17  1  1  0  0  0  0
 18 17  2  0  0  0  0
 19 20  2  0  0  0  0
 19 18  1  0  0  0  0
 20 21  1  0  0  0  0
 21 25  1  0  0  0  0
 21 22  2  0  0  0  0
 23 18  1  0  0  0  0
 24 19  1  0  0  0  0
 26 28  1  0  0  0  0
 27 26  1  0  0  0  0
 29 26  1  0  0  0  0
 29 30  1  0  0  0  0
 31 29  1  0  0  0  0
 32 29  1  0  0  0  0
 33 32  1  0  0  0  0
 34 33  1  0  0  0  0
 34 32  1  0  0  0  0
M  END
>  <minimizedAffinity>
-4.53341293

$$$$

 OpenBabel03242519553D

 34 36  0  0  1  0  0  0  0  0999 V2000
   37.2120   27.9940   40.7600 C   0  0  2  0  0  0  0  0  0  0  0  0
   36.9730   26.7920   41.5870 C   0  0  0  0  0  0  0  0  0  0  0  0
   36.6020   27.1330   42.9940 C   0  0  0  0  0  0  0  0  0  0  0  0
   37.6010   28.0250   43.6790 C   0  0  0  0  0  0  0  0  0  0  0  0
   38.2160   29.0590   42.7830 C   0  0  2  0  0  0  0  0  0  0  0  0
   37.3940   29.2610   41.5260 C   0  0  0  0  0  0  0  0  0  0  0  0
   38.1820   27.7930   40.2030 H   0  0  0  0  0  0  0  0  0  0  0  0
   37.8250   26.0860   41.5930 H   0  0  0  0  0  0  0  0  0  0  0  0
   36.0960   26.2350   41.1620 H   0  0  0  0  0  0  0  0  0  0  0  0
   36.5930   26.1760   43.5790 H   0  0  0  0  0  0  0  0  0  0  0  0
   35.5560   27.5080   43.0550 H   0  0  0  0  0  0  0  0  0  0  0  0
   38.3860   27.4540   44.2390 H   0  0  0  0  0  0  0  0  0  0  0  0
   37.0300   28.5600   44.4770 H   0  0  0  0  0  0  0  0  0  0  0  0
   38.2160   30.0680   43.2930 H   0  0  0  0  0  0  0  0  0  0  0  0
   38.0000   29.9850   40.8980 H   0  0  0  0  0  0  0  0  0  0  0  0
   36.5240   29.8140   41.8350 H   0  0  0  0  0  0  0  0  0  0  0  0
   36.2060   28.2000   39.7060 C   0  0  0  0  0  0  0  0  0  0  0  0
   35.0870   28.9140   40.1280 C   0  0  0  0  0  0  0  0  0  0  0  0
   34.0630   29.2040   39.2240 C   0  0  0  0  0  0  0  0  0  0  0  0
   34.2490   28.7390   37.9340 N   0  0  0  0  0  0  0  0  0  0  0  0
   35.3430   28.0500   37.5620 C   0  0  0  0  0  0  0  0  0  0  0  0
   36.3060   27.7890   38.4510 N   0  0  0  0  0  0  0  0  0  0  0  0
   34.7300   29.3500   41.0490 H   0  0  0  0  0  0  0  0  0  0  0  0
   33.1420   29.7220   39.3170 H   0  0  0  0  0  0  0  0  0  0  0  0
   35.4700   27.6980   36.5600 H   0  0  0  0  0  0  0  0  0  0  0  0
   39.6270   28.6970   42.5240 C   0  0  0  0  0  0  0  0  0  0  0  0
   40.2570   29.6080   42.5410 H   0  0  0  0  0  0  0  0  0  0  0  0
   39.6700   28.3650   41.4450 H   0  0  0  0  0  0  0  0  0  0  0  0
   40.1920   27.5850   43.3290 C   0  0  0  0  0  0  0  0  0  0  0  0
   39.5800   27.3060   44.2080 H   0  0  0  0  0  0  0  0  0  0  0  0
   41.1620   27.9340   43.7470 H   0  0  0  0  0  0  0  0  0  0  0  0
   40.4820   26.3390   42.5550 C   0  0  0  0  0  3  0  0  0  0  0  0
   40.0070   25.0700   43.2800 C   0  0  0  0  0  2  0  0  0  0  0  0
   41.4390   25.3170   43.1140 C   0  0  0  0  0  2  0  0  0  0  0  0
  1  7  1  6  0  0  0
  1  6  1  0  0  0  0
  1  2  1  0  0  0  0
  2  8  1  0  0  0  0
  2  3  1  0  0  0  0
  3 11  1  0  0  0  0
  3 10  1  0  0  0  0
  3  4  1  0  0  0  0
  4 12  1  0  0  0  0
  4 13  1  0  0  0  0
  5 14  1  1  0  0  0
  5  4  1  0  0  0  0
  6 16  1  0  0  0  0
  6  5  1  0  0  0  0
  9  2  1  0  0  0  0
 15  6  1  0  0  0  0
 17 18  1  0  0  0  0
 17  1  1  0  0  0  0
 18 23  1  0  0  0  0
 19 24  1  0  0  0  0
 19 18  2  0  0  0  0
 20 19  1  0  0  0  0
 21 20  2  0  0  0  0
 21 22  1  0  0  0  0
 22 17  2  0  0  0  0
 25 21  1  0  0  0  0
 26 27  1  0  0  0  0
 26  5  1  0  0  0  0
 26 29  1  0  0  0  0
 28 26  1  0  0  0  0
 29 31  1  0  0  0  0
 29 30  1  0  0  0  0
 32 34  1  0  0  0  0
 32 33  1  0  0  0  0
 32 29  1  0  0  0  0
 34 33  1  0  0  0  0
M  END
>  <minimizedAffinity>
-4.47516203

$$$$

 OpenBabel03242519553D

 34 36  0  0  1  0  0  0  0  0999 V2000
   36.9930   29.1450   41.0460 C   0  0  2  0  0  0  0  0  0  0  0  0
   35.6120   28.8580   40.6000 C   0  0  0  0  0  0  0  0  0  0  0  0
   35.4930   28.8040   39.1120 C   0  0  0  0  0  0  0  0  0  0  0  0
   35.9970   30.0430   38.4230 C   0  0  0  0  0  0  0  0  0  0  0  0
   37.2050   30.6550   39.0690 C   0  0  2  0  0  0  0  0  0  0  0  0
   37.9010   29.6690   39.9850 C   0  0  0  0  0  0  0  0  0  0  0  0
   36.8960   29.9540   41.8380 H   0  0  0  0  0  0  0  0  0  0  0  0
   34.8640   29.5680   41.0030 H   0  0  0  0  0  0  0  0  0  0  0  0
   35.3220   27.8400   40.9720 H   0  0  0  0  0  0  0  0  0  0  0  0
   34.4010   28.7380   38.8660 H   0  0  0  0  0  0  0  0  0  0  0  0
   35.9280   27.8630   38.7070 H   0  0  0  0  0  0  0  0  0  0  0  0
   35.1940   30.8080   38.2570 H   0  0  0  0  0  0  0  0  0  0  0  0
   36.2850   29.7200   37.3940 H   0  0  0  0  0  0  0  0  0  0  0  0
   37.9780   30.9130   38.2840 H   0  0  0  0  0  0  0  0  0  0  0  0
   38.7310   30.2670   40.4760 H   0  0  0  0  0  0  0  0  0  0  0  0
   38.4020   28.9720   39.3350 H   0  0  0  0  0  0  0  0  0  0  0  0
   37.6410   28.0180   41.7330 C   0  0  0  0  0  0  0  0  0  0  0  0
   38.6890   28.3960   42.5700 C   0  0  0  0  0  0  0  0  0  0  0  0
   39.3780   27.4290   43.3050 C   0  0  0  0  0  0  0  0  0  0  0  0
   38.9490   26.1240   43.1350 N   0  0  0  0  0  0  0  0  0  0  0  0
   37.9340   25.7960   42.3160 C   0  0  0  0  0  0  0  0  0  0  0  0
   37.2940   26.7440   41.6270 N   0  0  0  0  0  0  0  0  0  0  0  0
   39.1890   29.3130   42.8430 H   0  0  0  0  0  0  0  0  0  0  0  0
   40.1860   27.4830   43.9890 H   0  0  0  0  0  0  0  0  0  0  0  0
   37.6170   24.7800   42.1960 H   0  0  0  0  0  0  0  0  0  0  0  0
   36.8130   31.9170   39.7320 C   0  0  0  0  0  0  0  0  0  0  0  0
   36.6230   31.7320   40.8080 H   0  0  0  0  0  0  0  0  0  0  0  0
   35.7920   32.1780   39.3240 H   0  0  0  0  0  0  0  0  0  0  0  0
   37.6770   33.0980   39.4900 C   0  0  0  0  0  0  0  0  0  0  0  0
   37.1240   34.0140   39.2090 H   0  0  0  0  0  0  0  0  0  0  0  0
   38.3220   32.8660   38.6130 H   0  0  0  0  0  0  0  0  0  0  0  0
   38.5960   33.4430   40.6180 C   0  0  0  0  0  3  0  0  0  0  0  0
   39.8720   34.1560   40.1430 C   0  0  0  0  0  2  0  0  0  0  0  0
   39.9600   32.8040   40.6940 C   0  0  0  0  0  2  0  0  0  0  0  0
  1 17  1  0  0  0  0
  1  7  1  1  0  0  0
  2  9  1  0  0  0  0
  2  8  1  0  0  0  0
  2  1  1  0  0  0  0
  3  2  1  0  0  0  0
  4  5  1  0  0  0  0
  4  3  1  0  0  0  0
  5 14  1  6  0  0  0
  5 26  1  0  0  0  0
  5  6  1  0  0  0  0
  6 15  1  0  0  0  0
  6  1  1  0  0  0  0
 10  3  1  0  0  0  0
 11  3  1  0  0  0  0
 12  4  1  0  0  0  0
 13  4  1  0  0  0  0
 16  6  1  0  0  0  0
 17 18  1  0  0  0  0
 18 23  1  0  0  0  0
 18 19  2  0  0  0  0
 19 24  1  0  0  0  0
 20 19  1  0  0  0  0
 21 20  2  0  0  0  0
 22 17  2  0  0  0  0
 22 21  1  0  0  0  0
 25 21  1  0  0  0  0
 26 27  1  0  0  0  0
 28 26  1  0  0  0  0
 29 26  1  0  0  0  0
 29 32  1  0  0  0  0
 30 29  1  0  0  0  0
 31 29  1  0  0  0  0
 32 34  1  0  0  0  0
 33 32  1  0  0  0  0
 33 34  1  0  0  0  0
M  END
>  <minimizedAffinity>
-4.46476793

$$$$

 OpenBabel03242519553D

 34 36  0  0  1  0  0  0  0  0999 V2000
   37.7480   30.5330   39.9980 C   0  0  2  0  0  0  0  0  0  0  0  0
   37.6340   30.0360   38.6100 C   0  0  0  0  0  0  0  0  0  0  0  0
   36.2180   29.9790   38.1380 C   0  0  0  0  0  0  0  0  0  0  0  0
   35.3180   29.1750   39.0370 C   0  0  0  0  0  0  0  0  0  0  0  0
   35.6290   29.3110   40.4980 C   0  0  2  0  0  0  0  0  0  0  0  0
   36.4720   30.5400   40.7710 C   0  0  0  0  0  0  0  0  0  0  0  0
   38.4580   29.8170   40.5220 H   0  0  0  0  0  0  0  0  0  0  0  0
   38.1130   29.0490   38.4560 H   0  0  0  0  0  0  0  0  0  0  0  0
   38.1590   30.7570   37.9280 H   0  0  0  0  0  0  0  0  0  0  0  0
   36.2150   29.4510   37.1490 H   0  0  0  0  0  0  0  0  0  0  0  0
   35.8270   30.9970   37.9140 H   0  0  0  0  0  0  0  0  0  0  0  0
   35.2480   28.0970   38.7350 H   0  0  0  0  0  0  0  0  0  0  0  0
   34.2880   29.5730   38.8670 H   0  0  0  0  0  0  0  0  0  0  0  0
   34.6780   29.4780   41.0860 H   0  0  0  0  0  0  0  0  0  0  0  0
   36.7150   30.4840   41.8780 H   0  0  0  0  0  0  0  0  0  0  0  0
   35.8050   31.3790   40.6700 H   0  0  0  0  0  0  0  0  0  0  0  0
   38.3930   31.8510   40.1050 C   0  0  0  0  0  0  0  0  0  0  0  0
   39.7840   31.8020   40.0650 C   0  0  0  0  0  0  0  0  0  0  0  0
   40.5260   32.9830   40.1310 C   0  0  0  0  0  0  0  0  0  0  0  0
   39.7910   34.1510   40.2370 N   0  0  0  0  0  0  0  0  0  0  0  0
   38.4470   34.1600   40.2760 C   0  0  0  0  0  0  0  0  0  0  0  0
   37.7660   33.0130   40.2090 N   0  0  0  0  0  0  0  0  0  0  0  0
   40.5460   31.0390   40.0000 H   0  0  0  0  0  0  0  0  0  0  0  0
   41.5670   33.1840   40.1160 H   0  0  0  0  0  0  0  0  0  0  0  0
   37.8940   35.0730   40.3590 H   0  0  0  0  0  0  0  0  0  0  0  0
   36.2310   28.0510   40.9840 C   0  0  0  0  0  0  0  0  0  0  0  0
   35.7450   27.7450   41.9320 H   0  0  0  0  0  0  0  0  0  0  0  0
   37.2850   28.3100   41.2990 H   0  0  0  0  0  0  0  0  0  0  0  0
   36.3450   26.9420   40.0050 C   0  0  0  0  0  0  0  0  0  0  0  0
   36.5890   27.2690   38.9770 H   0  0  0  0  0  0  0  0  0  0  0  0
   35.3460   26.4580   39.9290 H   0  0  0  0  0  0  0  0  0  0  0  0
   37.3130   25.8680   40.3880 C   0  0  0  0  0  3  0  0  0  0  0  0
   36.6140   24.5600   40.7910 C   0  0  0  0  0  2  0  0  0  0  0  0
   37.3260   25.3410   41.8010 C   0  0  0  0  0  2  0  0  0  0  0  0
  1 17  1  0  0  0  0
  1  7  1  1  0  0  0
  1  6  1  0  0  0  0
  2  1  1  0  0  0  0
  3  2  1  0  0  0  0
  3  4  1  0  0  0  0
  4  5  1  0  0  0  0
  5  6  1  0  0  0  0
  5 26  1  0  0  0  0
  5 14  1  1  0  0  0
  6 15  1  0  0  0  0
  8  2  1  0  0  0  0
  9  2  1  0  0  0  0
 10  3  1  0  0  0  0
 11  3  1  0  0  0  0
 12  4  1  0  0  0  0
 13  4  1  0  0  0  0
 16  6  1  0  0  0  0
 17 22  1  0  0  0  0
 18 17  2  0  0  0  0
 18 19  1  0  0  0  0
 19 20  2  0  0  0  0
 20 21  1  0  0  0  0
 21 25  1  0  0  0  0
 22 21  2  0  0  0  0
 23 18  1  0  0  0  0
 24 19  1  0  0  0  0
 26 28  1  0  0  0  0
 26 27  1  0  0  0  0
 29 32  1  0  0  0  0
 29 26  1  0  0  0  0
 30 29  1  0  0  0  0
 31 29  1  0  0  0  0
 32 33  1  0  0  0  0
 32 34  1  0  0  0  0
 33 34  1  0  0  0  0
M  END
>  <minimizedAffinity>
-4.41786623

$$$$

 OpenBabel03242519553D

 34 36  0  0  1  0  0  0  0  0999 V2000
   38.9450   31.0940   40.0510 C   0  0  2  0  0  0  0  0  0  0  0  0
   38.6480   30.5120   38.7250 C   0  0  0  0  0  0  0  0  0  0  0  0
   37.2700   30.8420   38.2530 C   0  0  0  0  0  0  0  0  0  0  0  0
   36.1920   30.4510   39.2280 C   0  0  0  0  0  0  0  0  0  0  0  0
   36.5690   30.6400   40.6680 C   0  0  2  0  0  0  0  0  0  0  0  0
   37.7540   31.5740   40.8100 C   0  0  0  0  0  0  0  0  0  0  0  0
   39.4170   30.2550   40.6550 H   0  0  0  0  0  0  0  0  0  0  0  0
   38.7980   29.4160   38.6830 H   0  0  0  0  0  0  0  0  0  0  0  0
   39.3490   30.9610   37.9720 H   0  0  0  0  0  0  0  0  0  0  0  0
   37.0790   30.2380   37.3280 H   0  0  0  0  0  0  0  0  0  0  0  0
   37.2010   31.9000   37.9160 H   0  0  0  0  0  0  0  0  0  0  0  0
   35.7890   29.4210   39.0450 H   0  0  0  0  0  0  0  0  0  0  0  0
   35.3290   31.1260   39.0090 H   0  0  0  0  0  0  0  0  0  0  0  0
   35.7310   31.1520   41.2270 H   0  0  0  0  0  0  0  0  0  0  0  0
   37.9980   31.5630   41.9190 H   0  0  0  0  0  0  0  0  0  0  0  0
   37.3720   32.5600   40.6140 H   0  0  0  0  0  0  0  0  0  0  0  0
   39.9640   32.1550   40.0180 C   0  0  0  0  0  0  0  0  0  0  0  0
   40.9520   32.0180   40.9910 C   0  0  0  0  0  0  0  0  0  0  0  0
   41.9970   32.9410   41.0590 C   0  0  0  0  0  0  0  0  0  0  0  0
   41.9650   33.9580   40.1210 N   0  0  0  0  0  0  0  0  0  0  0  0
   40.9930   34.0610   39.1960 C   0  0  0  0  0  0  0  0  0  0  0  0
   40.0070   33.1600   39.1570 N   0  0  0  0  0  0  0  0  0  0  0  0
   41.1700   31.3420   41.8040 H   0  0  0  0  0  0  0  0  0  0  0  0
   42.8390   33.0330   41.6970 H   0  0  0  0  0  0  0  0  0  0  0  0
   40.9840   34.8540   38.4780 H   0  0  0  0  0  0  0  0  0  0  0  0
   36.7710   29.3150   41.2930 C   0  0  0  0  0  0  0  0  0  0  0  0
   37.2530   28.6280   40.5690 H   0  0  0  0  0  0  0  0  0  0  0  0
   35.7380   28.8750   41.4270 H   0  0  0  0  0  0  0  0  0  0  0  0
   37.4130   29.2960   42.6300 C   0  0  0  0  0  0  0  0  0  0  0  0
   37.1320   30.1460   43.2800 H   0  0  0  0  0  0  0  0  0  0  0  0
   38.5110   29.3970   42.4750 H   0  0  0  0  0  0  0  0  0  0  0  0
   37.2040   28.0350   43.4060 C   0  0  0  0  0  3  0  0  0  0  0  0
   38.5090   27.2540   43.6260 C   0  0  0  0  0  2  0  0  0  0  0  0
   37.4740   26.7020   42.7540 C   0  0  0  0  0  2  0  0  0  0  0  0
  1  7  1  1  0  0  0
  1  6  1  0  0  0  0
  2  1  1  0  0  0  0
  3  2  1  0  0  0  0
  3  4  1  0  0  0  0
  4  5  1  0  0  0  0
  5  6  1  0  0  0  0
  5 14  1  1  0  0  0
  5 26  1  0  0  0  0
  6 15  1  0  0  0  0
  8  2  1  0  0  0  0
  9  2  1  0  0  0  0
 10  3  1  0  0  0  0
 11  3  1  0  0  0  0
 12  4  1  0  0  0  0
 13  4  1  0  0  0  0
 16  6  1  0  0  0  0
 17  1  1  0  0  0  0
 17 18  1  0  0  0  0
 18 19  2  0  0  0  0
 18 23  1  0  0  0  0
 19 24  1  0  0  0  0
 20 19  1  0  0  0  0
 21 20  2  0  0  0  0
 22 21  1  0  0  0  0
 22 17  2  0  0  0  0
 25 21  1  0  0  0  0
 26 28  1  0  0  0  0
 26 29  1  0  0  0  0
 27 26  1  0  0  0  0
 29 30  1  0  0  0  0
 29 32  1  0  0  0  0
 31 29  1  0  0  0  0
 32 33  1  0  0  0  0
 34 32  1  0  0  0  0
 34 33  1  0  0  0  0
M  END
>  <minimizedAffinity>
-4.41579342

$$$$
