
 OpenBabel03242517543D

 32 34  0  0  0  0  0  0  0  0999 V2000
   39.7530   31.3410   41.9570 C   0  0  0  0  0  0  0  0  0  0  0  0
   38.7430   31.6910   41.0280 C   0  0  0  0  0  0  0  0  0  0  0  0
   37.6080   30.9050   40.9470 C   0  0  0  0  0  0  0  0  0  0  0  0
   37.5570   29.8550   41.7740 N   0  0  0  0  0  0  0  0  0  0  0  0
   38.4970   29.5300   42.6390 C   0  0  0  0  0  0  0  0  0  0  0  0
   39.5980   30.2760   42.7290 N   0  0  0  0  0  0  0  0  0  0  0  0
   40.6390   31.9820   41.9960 H   0  0  0  0  0  0  0  0  0  0  0  0
   38.8220   32.5460   40.3790 H   0  0  0  0  0  0  0  0  0  0  0  0
   36.4960   31.1780   40.0160 C   0  0  0  0  0  0  0  0  0  0  0  0
   36.4190   32.2420   39.8310 H   0  0  0  0  0  0  0  0  0  0  0  0
   35.5660   30.8580   40.5450 H   0  0  0  0  0  0  0  0  0  0  0  0
   36.5920   30.3450   38.7490 C   0  0  0  0  0  0  0  0  0  0  0  0
   36.2910   30.9290   37.8600 H   0  0  0  0  0  0  0  0  0  0  0  0
   37.6550   30.0590   38.6050 H   0  0  0  0  0  0  0  0  0  0  0  0
   35.7860   29.0870   38.8350 C   0  0  0  0  0  3  0  0  0  0  0  0
   34.4480   28.9600   38.2290 C   0  0  0  0  0  2  0  0  0  0  0  0
   34.5680   29.0730   39.7420 C   0  0  0  0  0  2  0  0  0  0  0  0
   38.4090   28.4320   43.4790 O   0  0  0  0  0  0  0  0  0  0  0  0
   39.4610   26.2160   43.0540 C   0  0  0  0  0  0  0  0  0  0  0  0
   38.4160   27.1030   43.0760 C   0  0  0  0  0  0  0  0  0  0  0  0
   37.1780   26.6470   42.6450 C   0  0  0  0  0  0  0  0  0  0  0  0
   36.9910   25.3500   42.2060 C   0  0  0  0  0  0  0  0  0  0  0  0
   38.0660   24.4800   42.1970 C   0  0  0  0  0  0  0  0  0  0  0  0
   39.3090   24.9320   42.6280 C   0  0  0  0  0  0  0  0  0  0  0  0
   36.2890   27.2650   42.6230 H   0  0  0  0  0  0  0  0  0  0  0  0
   36.0280   24.9880   41.8690 H   0  0  0  0  0  0  0  0  0  0  0  0
   38.0350   23.4630   41.8800 H   0  0  0  0  0  0  0  0  0  0  0  0
   40.2190   24.3400   42.6640 H   0  0  0  0  0  0  0  0  0  0  0  0
   40.9740   26.8710   43.6120 S   0  0  0  0  0  0  0  0  0  0  0  0
   41.6570   27.6950   42.5440 O   0  0  0  0  0  0  0  0  0  0  0  0
   41.9230   25.7000   43.8670 O   0  0  0  0  0  0  0  0  0  0  0  0
   40.8650   27.6390   44.7180 H   0  0  0  0  0  0  0  0  0  0  0  0
  1  7  1  0  0  0  0
  1  6  1  0  0  0  0
  2  1  2  0  0  0  0
  3  2  1  0  0  0  0
  3  4  2  0  0  0  0
  4  5  1  0  0  0  0
  5  6  2  0  0  0  0
  5 18  1  0  0  0  0
  8  2  1  0  0  0  0
  9 11  1  0  0  0  0
  9  3  1  0  0  0  0
 10  9  1  0  0  0  0
 12 15  1  0  0  0  0
 12  9  1  0  0  0  0
 13 12  1  0  0  0  0
 14 12  1  0  0  0  0
 15 17  1  0  0  0  0
 16 15  1  0  0  0  0
 16 17  1  0  0  0  0
 19 20  1  0  0  0  0
 19 29  1  0  0  0  0
 20 18  1  0  0  0  0
 21 20  2  0  0  0  0
 22 21  1  0  0  0  0
 23 22  2  0  0  0  0
 23 24  1  0  0  0  0
 24 28  1  0  0  0  0
 24 19  2  0  0  0  0
 25 21  1  0  0  0  0
 26 22  1  0  0  0  0
 27 23  1  0  0  0  0
 29 31  2  0  0  0  0
 29 32  1  0  0  0  0
 30 29  2  0  0  0  0
M  END
>  <minimizedAffinity>
-5.12862206

$$$$

 OpenBabel03242517543D

 32 34  0  0  0  0  0  0  0  0999 V2000
   38.1580   28.9590   43.3300 C   0  0  0  0  0  0  0  0  0  0  0  0
   37.9680   27.5570   43.3870 C   0  0  0  0  0  0  0  0  0  0  0  0
   37.0880   26.9670   42.4970 C   0  0  0  0  0  0  0  0  0  0  0  0
   36.4770   27.7890   41.6370 N   0  0  0  0  0  0  0  0  0  0  0  0
   36.6560   29.0950   41.5850 C   0  0  0  0  0  0  0  0  0  0  0  0
   37.4990   29.6790   42.4360 N   0  0  0  0  0  0  0  0  0  0  0  0
   38.8600   29.3960   44.0480 H   0  0  0  0  0  0  0  0  0  0  0  0
   38.4790   26.9290   44.0940 H   0  0  0  0  0  0  0  0  0  0  0  0
   36.8150   25.5170   42.4670 C   0  0  0  0  0  0  0  0  0  0  0  0
   35.7980   25.3240   42.7870 H   0  0  0  0  0  0  0  0  0  0  0  0
   37.4990   25.0590   43.2200 H   0  0  0  0  0  0  0  0  0  0  0  0
   37.1580   24.8960   41.1230 C   0  0  0  0  0  0  0  0  0  0  0  0
   36.3370   24.2540   40.7560 H   0  0  0  0  0  0  0  0  0  0  0  0
   37.2810   25.7180   40.3870 H   0  0  0  0  0  0  0  0  0  0  0  0
   38.4380   24.1230   41.1660 C   0  0  0  0  0  3  0  0  0  0  0  0
   39.4050   24.2530   42.2720 C   0  0  0  0  0  2  0  0  0  0  0  0
   39.7380   24.8680   40.9200 C   0  0  0  0  0  2  0  0  0  0  0  0
   36.0030   29.9140   40.6800 O   0  0  0  0  0  0  0  0  0  0  0  0
   37.0950   31.3250   38.9420 C   0  0  0  0  0  0  0  0  0  0  0  0
   36.4400   30.2080   39.3940 C   0  0  0  0  0  0  0  0  0  0  0  0
   36.1580   29.2110   38.4710 C   0  0  0  0  0  0  0  0  0  0  0  0
   36.5170   29.3270   37.1410 C   0  0  0  0  0  0  0  0  0  0  0  0
   37.1770   30.4660   36.7170 C   0  0  0  0  0  0  0  0  0  0  0  0
   37.4620   31.4680   37.6400 C   0  0  0  0  0  0  0  0  0  0  0  0
   35.6460   28.2920   38.7230 H   0  0  0  0  0  0  0  0  0  0  0  0
   36.3000   28.5530   36.4150 H   0  0  0  0  0  0  0  0  0  0  0  0
   37.4990   30.6580   35.7200 H   0  0  0  0  0  0  0  0  0  0  0  0
   37.9730   32.4010   37.4200 H   0  0  0  0  0  0  0  0  0  0  0  0
   37.4080   32.5220   40.1670 S   0  0  0  0  0  0  0  0  0  0  0  0
   37.3430   33.9250   39.6100 O   0  0  0  0  0  0  0  0  0  0  0  0
   38.8570   32.3510   40.6250 O   0  0  0  0  0  0  0  0  0  0  0  0
   36.5700   32.4580   41.2240 H   0  0  0  0  0  0  0  0  0  0  0  0
  1  2  1  0  0  0  0
  1  7  1  0  0  0  0
  2  8  1  0  0  0  0
  3  2  2  0  0  0  0
  4  3  1  0  0  0  0
  5  4  2  0  0  0  0
  5  6  1  0  0  0  0
  6  1  2  0  0  0  0
  9  3  1  0  0  0  0
  9 10  1  0  0  0  0
  9 11  1  0  0  0  0
 12 15  1  0  0  0  0
 12  9  1  0  0  0  0
 13 12  1  0  0  0  0
 14 12  1  0  0  0  0
 15 16  1  0  0  0  0
 17 15  1  0  0  0  0
 17 16  1  0  0  0  0
 18  5  1  0  0  0  0
 19 20  1  0  0  0  0
 19 29  1  0  0  0  0
 20 18  1  0  0  0  0
 21 25  1  0  0  0  0
 21 20  2  0  0  0  0
 22 21  1  0  0  0  0
 23 22  2  0  0  0  0
 23 24  1  0  0  0  0
 24 19  2  0  0  0  0
 26 22  1  0  0  0  0
 27 23  1  0  0  0  0
 28 24  1  0  0  0  0
 29 31  2  0  0  0  0
 29 32  1  0  0  0  0
 30 29  2  0  0  0  0
M  END
>  <minimizedAffinity>
-5.11461735

$$$$

 OpenBabel03242517543D

 32 34  0  0  0  0  0  0  0  0999 V2000
   40.2160   25.6900   43.8330 C   0  0  0  0  0  0  0  0  0  0  0  0
   39.7120   24.6110   43.0670 C   0  0  0  0  0  0  0  0  0  0  0  0
   38.5330   24.7860   42.3640 C   0  0  0  0  0  0  0  0  0  0  0  0
   37.9550   25.9860   42.4690 N   0  0  0  0  0  0  0  0  0  0  0  0
   38.4260   26.9910   43.1830 C   0  0  0  0  0  0  0  0  0  0  0  0
   39.5590   26.8390   43.8670 N   0  0  0  0  0  0  0  0  0  0  0  0
   41.1490   25.5210   44.3790 H   0  0  0  0  0  0  0  0  0  0  0  0
   40.2080   23.6580   43.0070 H   0  0  0  0  0  0  0  0  0  0  0  0
   37.9190   23.7310   41.5340 C   0  0  0  0  0  0  0  0  0  0  0  0
   37.9150   22.7910   42.0710 H   0  0  0  0  0  0  0  0  0  0  0  0
   38.5850   23.6110   40.6460 H   0  0  0  0  0  0  0  0  0  0  0  0
   36.5530   24.1370   41.0090 C   0  0  0  0  0  0  0  0  0  0  0  0
   35.7520   23.8710   41.7230 H   0  0  0  0  0  0  0  0  0  0  0  0
   36.5400   25.2420   40.9030 H   0  0  0  0  0  0  0  0  0  0  0  0
   36.2620   23.5440   39.6660 C   0  0  0  0  0  3  0  0  0  0  0  0
   35.4630   24.2490   38.6460 C   0  0  0  0  0  2  0  0  0  0  0  0
   34.8480   23.0660   39.3810 C   0  0  0  0  0  2  0  0  0  0  0  0
   37.7960   28.2210   43.2680 O   0  0  0  0  0  0  0  0  0  0  0  0
   37.2990   29.7170   41.3400 C   0  0  0  0  0  0  0  0  0  0  0  0
   38.0230   29.3060   42.4290 C   0  0  0  0  0  0  0  0  0  0  0  0
   39.1430   30.0490   42.7740 C   0  0  0  0  0  0  0  0  0  0  0  0
   39.5270   31.1650   42.0540 C   0  0  0  0  0  0  0  0  0  0  0  0
   38.7740   31.5540   40.9610 C   0  0  0  0  0  0  0  0  0  0  0  0
   37.6520   30.8110   40.6120 C   0  0  0  0  0  0  0  0  0  0  0  0
   39.7820   29.8110   43.6150 H   0  0  0  0  0  0  0  0  0  0  0  0
   40.3990   31.7500   42.3180 H   0  0  0  0  0  0  0  0  0  0  0  0
   38.9790   32.3940   40.3380 H   0  0  0  0  0  0  0  0  0  0  0  0
   36.9890   31.0220   39.7760 H   0  0  0  0  0  0  0  0  0  0  0  0
   35.9120   28.7270   40.9810 S   0  0  0  0  0  0  0  0  0  0  0  0
   36.2660   27.5740   40.0710 O   0  0  0  0  0  0  0  0  0  0  0  0
   34.9330   29.5760   40.1710 O   0  0  0  0  0  0  0  0  0  0  0  0
   35.3040   28.2190   42.0740 H   0  0  0  0  0  0  0  0  0  0  0  0
  1  6  1  0  0  0  0
  1  7  1  0  0  0  0
  2  1  2  0  0  0  0
  3  4  2  0  0  0  0
  3  2  1  0  0  0  0
  4  5  1  0  0  0  0
  5 18  1  0  0  0  0
  5  6  2  0  0  0  0
  8  2  1  0  0  0  0
  9 10  1  0  0  0  0
  9  3  1  0  0  0  0
 11  9  1  0  0  0  0
 12  9  1  0  0  0  0
 12 13  1  0  0  0  0
 14 12  1  0  0  0  0
 15 12  1  0  0  0  0
 16 17  1  0  0  0  0
 16 15  1  0  0  0  0
 17 15  1  0  0  0  0
 19 20  1  0  0  0  0
 20 21  2  0  0  0  0
 20 18  1  0  0  0  0
 21 25  1  0  0  0  0
 22 26  1  0  0  0  0
 22 21  1  0  0  0  0
 23 22  2  0  0  0  0
 24 23  1  0  0  0  0
 24 19  2  0  0  0  0
 27 23  1  0  0  0  0
 28 24  1  0  0  0  0
 29 19  1  0  0  0  0
 29 32  1  0  0  0  0
 30 29  2  0  0  0  0
 31 29  2  0  0  0  0
M  END
>  <minimizedAffinity>
-5.05666161

$$$$

 OpenBabel03242517543D

 32 34  0  0  0  0  0  0  0  0999 V2000
   37.4600   28.7150   43.7160 C   0  0  0  0  0  0  0  0  0  0  0  0
   37.5320   27.3070   43.5860 C   0  0  0  0  0  0  0  0  0  0  0  0
   38.1770   26.7710   42.4850 C   0  0  0  0  0  0  0  0  0  0  0  0
   38.6900   27.6480   41.6160 N   0  0  0  0  0  0  0  0  0  0  0  0
   38.6230   28.9600   41.7390 C   0  0  0  0  0  0  0  0  0  0  0  0
   38.0050   29.4920   42.7930 N   0  0  0  0  0  0  0  0  0  0  0  0
   36.9430   29.1090   44.5970 H   0  0  0  0  0  0  0  0  0  0  0  0
   37.1060   26.6340   44.3080 H   0  0  0  0  0  0  0  0  0  0  0  0
   38.3110   25.3210   42.2500 C   0  0  0  0  0  0  0  0  0  0  0  0
   38.9390   24.8770   43.0130 H   0  0  0  0  0  0  0  0  0  0  0  0
   38.8390   25.2140   41.2720 H   0  0  0  0  0  0  0  0  0  0  0  0
   36.9620   24.6370   42.0990 C   0  0  0  0  0  0  0  0  0  0  0  0
   36.8410   23.8200   42.8340 H   0  0  0  0  0  0  0  0  0  0  0  0
   36.1720   25.3860   42.3140 H   0  0  0  0  0  0  0  0  0  0  0  0
   36.7410   24.1200   40.7130 C   0  0  0  0  0  3  0  0  0  0  0  0
   37.7110   24.3340   39.6230 C   0  0  0  0  0  2  0  0  0  0  0  0
   36.4060   25.1180   39.6170 C   0  0  0  0  0  2  0  0  0  0  0  0
   39.1670   29.8370   40.8160 O   0  0  0  0  0  0  0  0  0  0  0  0
   37.5430   31.2740   39.5920 C   0  0  0  0  0  0  0  0  0  0  0  0
   38.6090   31.0480   40.4240 C   0  0  0  0  0  0  0  0  0  0  0  0
   39.2430   32.1540   40.9710 C   0  0  0  0  0  0  0  0  0  0  0  0
   38.8260   33.4430   40.6950 C   0  0  0  0  0  0  0  0  0  0  0  0
   37.7480   33.6370   39.8520 C   0  0  0  0  0  0  0  0  0  0  0  0
   37.1100   32.5310   39.3010 C   0  0  0  0  0  0  0  0  0  0  0  0
   40.0910   32.0860   41.6390 H   0  0  0  0  0  0  0  0  0  0  0  0
   39.3160   34.3100   41.1190 H   0  0  0  0  0  0  0  0  0  0  0  0
   37.3450   34.5830   39.5720 H   0  0  0  0  0  0  0  0  0  0  0  0
   36.2560   32.5630   38.6290 H   0  0  0  0  0  0  0  0  0  0  0  0
   36.8090   29.8300   38.9520 S   0  0  0  0  0  0  0  0  0  0  0  0
   36.2830   30.0420   37.5510 O   0  0  0  0  0  0  0  0  0  0  0  0
   35.5680   29.5280   39.7920 O   0  0  0  0  0  0  0  0  0  0  0  0
   37.6330   28.7610   38.9270 H   0  0  0  0  0  0  0  0  0  0  0  0
  1  7  1  0  0  0  0
  2  1  1  0  0  0  0
  2  8  1  0  0  0  0
  3  2  2  0  0  0  0
  4  5  2  0  0  0  0
  4  3  1  0  0  0  0
  5  6  1  0  0  0  0
  6  1  2  0  0  0  0
  9  3  1  0  0  0  0
  9 10  1  0  0  0  0
 11  9  1  0  0  0  0
 12  9  1  0  0  0  0
 12 14  1  0  0  0  0
 12 13  1  0  0  0  0
 15 12  1  0  0  0  0
 16 15  1  0  0  0  0
 17 16  1  0  0  0  0
 17 15  1  0  0  0  0
 18  5  1  0  0  0  0
 19 20  1  0  0  0  0
 20 18  1  0  0  0  0
 20 21  2  0  0  0  0
 21 25  1  0  0  0  0
 22 21  1  0  0  0  0
 22 26  1  0  0  0  0
 23 22  2  0  0  0  0
 24 19  2  0  0  0  0
 24 23  1  0  0  0  0
 27 23  1  0  0  0  0
 28 24  1  0  0  0  0
 29 19  1  0  0  0  0
 29 31  2  0  0  0  0
 30 29  2  0  0  0  0
 32 29  1  0  0  0  0
M  END
>  <minimizedAffinity>
-4.93831015

$$$$

 OpenBabel03242517543D

 32 34  0  0  0  0  0  0  0  0999 V2000
   37.5070   30.5320   37.4760 C   0  0  0  0  0  0  0  0  0  0  0  0
   37.6770   31.8870   37.8510 C   0  0  0  0  0  0  0  0  0  0  0  0
   37.3040   32.2790   39.1240 C   0  0  0  0  0  0  0  0  0  0  0  0
   36.8040   31.3230   39.9140 N   0  0  0  0  0  0  0  0  0  0  0  0
   36.6460   30.0610   39.5640 C   0  0  0  0  0  0  0  0  0  0  0  0
   36.9990   29.6670   38.3400 N   0  0  0  0  0  0  0  0  0  0  0  0
   37.8090   30.2530   36.4620 H   0  0  0  0  0  0  0  0  0  0  0  0
   38.0840   32.6270   37.1850 H   0  0  0  0  0  0  0  0  0  0  0  0
   37.4380   33.6620   39.6190 C   0  0  0  0  0  0  0  0  0  0  0  0
   36.5040   33.9920   40.0580 H   0  0  0  0  0  0  0  0  0  0  0  0
   37.6310   34.2940   38.7200 H   0  0  0  0  0  0  0  0  0  0  0  0
   38.6350   33.8290   40.5410 C   0  0  0  0  0  0  0  0  0  0  0  0
   38.3610   34.3800   41.4590 H   0  0  0  0  0  0  0  0  0  0  0  0
   38.9680   32.8180   40.8560 H   0  0  0  0  0  0  0  0  0  0  0  0
   39.7850   34.5000   39.8600 C   0  0  0  0  0  3  0  0  0  0  0  0
   40.8290   33.7470   39.1400 C   0  0  0  0  0  2  0  0  0  0  0  0
   41.1640   34.3750   40.4860 C   0  0  0  0  0  2  0  0  0  0  0  0
   36.1220   29.0980   40.4110 O   0  0  0  0  0  0  0  0  0  0  0  0
   37.2240   27.0760   41.3580 C   0  0  0  0  0  0  0  0  0  0  0  0
   36.8360   28.3910   41.3710 C   0  0  0  0  0  0  0  0  0  0  0  0
   37.1850   29.1530   42.4760 C   0  0  0  0  0  0  0  0  0  0  0  0
   37.8980   28.6190   43.5330 C   0  0  0  0  0  0  0  0  0  0  0  0
   38.2750   27.2890   43.4890 C   0  0  0  0  0  0  0  0  0  0  0  0
   37.9260   26.5220   42.3830 C   0  0  0  0  0  0  0  0  0  0  0  0
   36.9280   30.1990   42.5850 H   0  0  0  0  0  0  0  0  0  0  0  0
   38.1740   29.2090   44.3990 H   0  0  0  0  0  0  0  0  0  0  0  0
   38.8230   26.7780   44.2470 H   0  0  0  0  0  0  0  0  0  0  0  0
   38.1680   25.4720   42.2420 H   0  0  0  0  0  0  0  0  0  0  0  0
   36.7440   26.1960   39.9340 S   0  0  0  0  0  0  0  0  0  0  0  0
   36.6950   24.7070   40.1850 O   0  0  0  0  0  0  0  0  0  0  0  0
   37.8390   26.3790   38.8830 O   0  0  0  0  0  0  0  0  0  0  0  0
   35.5460   26.5700   39.4360 H   0  0  0  0  0  0  0  0  0  0  0  0
  1  2  2  0  0  0  0
  1  6  1  0  0  0  0
  2  3  1  0  0  0  0
  3  9  1  0  0  0  0
  3  4  2  0  0  0  0
  5  4  1  0  0  0  0
  5 18  1  0  0  0  0
  6  5  2  0  0  0  0
  7  1  1  0  0  0  0
  8  2  1  0  0  0  0
  9 10  1  0  0  0  0
  9 12  1  0  0  0  0
 11  9  1  0  0  0  0
 12 14  1  0  0  0  0
 12 13  1  0  0  0  0
 15 17  1  0  0  0  0
 15 12  1  0  0  0  0
 16 15  1  0  0  0  0
 16 17  1  0  0  0  0
 18 20  1  0  0  0  0
 19 20  2  0  0  0  0
 19 24  1  0  0  0  0
 20 21  1  0  0  0  0
 21 25  1  0  0  0  0
 21 22  2  0  0  0  0
 22 26  1  0  0  0  0
 23 22  1  0  0  0  0
 23 27  1  0  0  0  0
 24 23  2  0  0  0  0
 28 24  1  0  0  0  0
 29 30  2  0  0  0  0
 29 19  1  0  0  0  0
 31 29  2  0  0  0  0
 32 29  1  0  0  0  0
M  END
>  <minimizedAffinity>
-4.91934776

$$$$

 OpenBabel03242517543D

 32 34  0  0  0  0  0  0  0  0999 V2000
   37.1150   30.3400   38.5700 C   0  0  0  0  0  0  0  0  0  0  0  0
   37.2380   31.7490   38.5070 C   0  0  0  0  0  0  0  0  0  0  0  0
   37.5080   32.4480   39.6700 C   0  0  0  0  0  0  0  0  0  0  0  0
   37.6350   31.7180   40.7820 N   0  0  0  0  0  0  0  0  0  0  0  0
   37.5210   30.4050   40.8400 C   0  0  0  0  0  0  0  0  0  0  0  0
   37.2600   29.7170   39.7290 N   0  0  0  0  0  0  0  0  0  0  0  0
   36.9000   29.8160   37.6340 H   0  0  0  0  0  0  0  0  0  0  0  0
   37.1290   32.3020   37.5910 H   0  0  0  0  0  0  0  0  0  0  0  0
   37.6560   33.9160   39.7190 C   0  0  0  0  0  0  0  0  0  0  0  0
   36.7090   34.3770   39.9680 H   0  0  0  0  0  0  0  0  0  0  0  0
   37.9250   34.2330   38.6830 H   0  0  0  0  0  0  0  0  0  0  0  0
   38.7990   34.3470   40.6230 C   0  0  0  0  0  0  0  0  0  0  0  0
   38.5470   35.2680   41.1790 H   0  0  0  0  0  0  0  0  0  0  0  0
   38.9620   33.5470   41.3750 H   0  0  0  0  0  0  0  0  0  0  0  0
   40.0780   34.5350   39.8690 C   0  0  0  0  0  3  0  0  0  0  0  0
   40.8150   33.4090   39.2650 C   0  0  0  0  0  2  0  0  0  0  0  0
   41.3710   34.0710   40.5180 C   0  0  0  0  0  2  0  0  0  0  0  0
   37.6590   29.6820   42.0130 O   0  0  0  0  0  0  0  0  0  0  0  0
   38.9590   27.7140   42.8110 C   0  0  0  0  0  0  0  0  0  0  0  0
   38.8090   29.0220   42.4270 C   0  0  0  0  0  0  0  0  0  0  0  0
   39.9380   29.8290   42.4370 C   0  0  0  0  0  0  0  0  0  0  0  0
   41.1760   29.3450   42.8200 C   0  0  0  0  0  0  0  0  0  0  0  0
   41.2930   28.0200   43.2020 C   0  0  0  0  0  0  0  0  0  0  0  0
   40.1640   27.2090   43.1920 C   0  0  0  0  0  0  0  0  0  0  0  0
   39.9290   30.8720   42.1530 H   0  0  0  0  0  0  0  0  0  0  0  0
   42.0610   29.9680   42.8300 H   0  0  0  0  0  0  0  0  0  0  0  0
   42.1950   27.5460   43.5130 H   0  0  0  0  0  0  0  0  0  0  0  0
   40.1390   26.1590   43.4710 H   0  0  0  0  0  0  0  0  0  0  0  0
   37.4930   26.7770   42.7660 S   0  0  0  0  0  0  0  0  0  0  0  0
   36.8800   26.7580   41.3850 O   0  0  0  0  0  0  0  0  0  0  0  0
   36.4600   27.4860   43.6420 O   0  0  0  0  0  0  0  0  0  0  0  0
   37.6490   25.4960   43.1660 H   0  0  0  0  0  0  0  0  0  0  0  0
  1  6  1  0  0  0  0
  2  1  2  0  0  0  0
  2  3  1  0  0  0  0
  3  9  1  0  0  0  0
  3  4  2  0  0  0  0
  4  5  1  0  0  0  0
  5 18  1  0  0  0  0
  6  5  2  0  0  0  0
  7  1  1  0  0  0  0
  8  2  1  0  0  0  0
  9 10  1  0  0  0  0
  9 12  1  0  0  0  0
 11  9  1  0  0  0  0
 12 13  1  0  0  0  0
 12 14  1  0  0  0  0
 15 17  1  0  0  0  0
 15 12  1  0  0  0  0
 16 15  1  0  0  0  0
 16 17  1  0  0  0  0
 18 20  1  0  0  0  0
 19 24  1  0  0  0  0
 20 21  1  0  0  0  0
 20 19  2  0  0  0  0
 21 22  2  0  0  0  0
 22 26  1  0  0  0  0
 22 23  1  0  0  0  0
 23 27  1  0  0  0  0
 24 23  2  0  0  0  0
 24 28  1  0  0  0  0
 25 21  1  0  0  0  0
 29 19  1  0  0  0  0
 29 32  1  0  0  0  0
 29 31  2  0  0  0  0
 30 29  2  0  0  0  0
M  END
>  <minimizedAffinity>
-4.88900423

$$$$

 OpenBabel03242517543D

 32 34  0  0  0  0  0  0  0  0999 V2000
   37.0230   30.6600   38.5320 C   0  0  0  0  0  0  0  0  0  0  0  0
   37.2790   32.0520   38.4820 C   0  0  0  0  0  0  0  0  0  0  0  0
   37.4400   32.7440   39.6690 C   0  0  0  0  0  0  0  0  0  0  0  0
   37.3380   32.0240   40.7910 N   0  0  0  0  0  0  0  0  0  0  0  0
   37.1000   30.7270   40.8360 C   0  0  0  0  0  0  0  0  0  0  0  0
   36.9420   30.0460   39.7020 N   0  0  0  0  0  0  0  0  0  0  0  0
   36.9000   30.1410   37.5770 H   0  0  0  0  0  0  0  0  0  0  0  0
   37.3540   32.5970   37.5580 H   0  0  0  0  0  0  0  0  0  0  0  0
   37.7090   34.1930   39.7340 C   0  0  0  0  0  0  0  0  0  0  0  0
   36.8280   34.7210   40.0770 H   0  0  0  0  0  0  0  0  0  0  0  0
   37.9110   34.5160   38.6850 H   0  0  0  0  0  0  0  0  0  0  0  0
   38.9580   34.5090   40.5400 C   0  0  0  0  0  0  0  0  0  0  0  0
   38.9200   35.5320   40.9560 H   0  0  0  0  0  0  0  0  0  0  0  0
   38.9960   33.8090   41.4020 H   0  0  0  0  0  0  0  0  0  0  0  0
   40.2100   34.3230   39.7420 C   0  0  0  0  0  3  0  0  0  0  0  0
   41.1060   33.1670   39.9320 C   0  0  0  0  0  2  0  0  0  0  0  0
   41.5440   34.5350   40.4370 C   0  0  0  0  0  2  0  0  0  0  0  0
   37.0010   30.0150   42.0200 O   0  0  0  0  0  0  0  0  0  0  0  0
   38.8660   28.3960   42.3420 C   0  0  0  0  0  0  0  0  0  0  0  0
   37.5460   28.7590   42.2560 C   0  0  0  0  0  0  0  0  0  0  0  0
   36.5940   27.7630   42.4250 C   0  0  0  0  0  0  0  0  0  0  0  0
   36.9490   26.4500   42.6700 C   0  0  0  0  0  0  0  0  0  0  0  0
   38.2890   26.1170   42.7500 C   0  0  0  0  0  0  0  0  0  0  0  0
   39.2460   27.1120   42.5820 C   0  0  0  0  0  0  0  0  0  0  0  0
   35.5280   27.9430   42.3770 H   0  0  0  0  0  0  0  0  0  0  0  0
   36.2110   25.6680   42.8030 H   0  0  0  0  0  0  0  0  0  0  0  0
   38.6720   25.1400   42.9340 H   0  0  0  0  0  0  0  0  0  0  0  0
   40.3230   26.9660   42.6240 H   0  0  0  0  0  0  0  0  0  0  0  0
   39.9900   29.7070   42.1180 S   0  0  0  0  0  0  0  0  0  0  0  0
   40.4290   29.8310   40.6780 O   0  0  0  0  0  0  0  0  0  0  0  0
   41.2650   29.3620   42.8870 O   0  0  0  0  0  0  0  0  0  0  0  0
   39.5150   30.9090   42.5090 H   0  0  0  0  0  0  0  0  0  0  0  0
  1  6  1  0  0  0  0
  2  1  2  0  0  0  0
  2  3  1  0  0  0  0
  3  9  1  0  0  0  0
  3  4  2  0  0  0  0
  4  5  1  0  0  0  0
  5 18  1  0  0  0  0
  6  5  2  0  0  0  0
  7  1  1  0  0  0  0
  8  2  1  0  0  0  0
  9 10  1  0  0  0  0
  9 12  1  0  0  0  0
 11  9  1  0  0  0  0
 12 13  1  0  0  0  0
 12 14  1  0  0  0  0
 15 16  1  0  0  0  0
 15 17  1  0  0  0  0
 15 12  1  0  0  0  0
 16 17  1  0  0  0  0
 18 20  1  0  0  0  0
 19 24  1  0  0  0  0
 20 19  2  0  0  0  0
 20 21  1  0  0  0  0
 21 22  2  0  0  0  0
 22 23  1  0  0  0  0
 22 26  1  0  0  0  0
 23 27  1  0  0  0  0
 24 28  1  0  0  0  0
 24 23  2  0  0  0  0
 25 21  1  0  0  0  0
 29 19  1  0  0  0  0
 29 32  1  0  0  0  0
 29 31  2  0  0  0  0
 30 29  2  0  0  0  0
M  END
>  <minimizedAffinity>
-4.86200571

$$$$

 OpenBabel03242517543D

 32 34  0  0  0  0  0  0  0  0999 V2000
   36.9700   29.7970   37.4450 C   0  0  0  0  0  0  0  0  0  0  0  0
   35.7260   29.3040   36.9830 C   0  0  0  0  0  0  0  0  0  0  0  0
   34.7220   29.0590   37.9020 C   0  0  0  0  0  0  0  0  0  0  0  0
   35.0160   29.3160   39.1810 N   0  0  0  0  0  0  0  0  0  0  0  0
   36.1760   29.7750   39.6100 C   0  0  0  0  0  0  0  0  0  0  0  0
   37.1540   30.0150   38.7380 N   0  0  0  0  0  0  0  0  0  0  0  0
   37.7450   29.9790   36.6940 H   0  0  0  0  0  0  0  0  0  0  0  0
   35.5270   29.1100   35.9430 H   0  0  0  0  0  0  0  0  0  0  0  0
   33.3890   28.5460   37.5310 C   0  0  0  0  0  0  0  0  0  0  0  0
   32.7480   28.5100   38.4030 H   0  0  0  0  0  0  0  0  0  0  0  0
   33.5480   27.4970   37.1850 H   0  0  0  0  0  0  0  0  0  0  0  0
   32.7850   29.3090   36.3640 C   0  0  0  0  0  0  0  0  0  0  0  0
   33.3160   30.2630   36.1890 H   0  0  0  0  0  0  0  0  0  0  0  0
   32.9130   28.6940   35.4490 H   0  0  0  0  0  0  0  0  0  0  0  0
   31.3220   29.5610   36.5480 C   0  0  0  0  0  3  0  0  0  0  0  0
   30.7570   30.9210   36.6340 C   0  0  0  0  0  2  0  0  0  0  0  0
   30.8430   30.0730   37.8950 C   0  0  0  0  0  2  0  0  0  0  0  0
   36.4440   30.0280   40.9450 O   0  0  0  0  0  0  0  0  0  0  0  0
   38.4160   29.3510   42.3060 C   0  0  0  0  0  0  0  0  0  0  0  0
   37.1520   29.1920   41.8000 C   0  0  0  0  0  0  0  0  0  0  0  0
   36.4500   28.0540   42.1700 C   0  0  0  0  0  0  0  0  0  0  0  0
   36.9940   27.1060   43.0170 C   0  0  0  0  0  0  0  0  0  0  0  0
   38.2720   27.2960   43.5100 C   0  0  0  0  0  0  0  0  0  0  0  0
   38.9790   28.4360   43.1410 C   0  0  0  0  0  0  0  0  0  0  0  0
   35.4480   27.8330   41.8280 H   0  0  0  0  0  0  0  0  0  0  0  0
   36.4520   26.2160   43.3100 H   0  0  0  0  0  0  0  0  0  0  0  0
   38.7860   26.6320   44.1670 H   0  0  0  0  0  0  0  0  0  0  0  0
   39.9850   28.6880   43.4660 H   0  0  0  0  0  0  0  0  0  0  0  0
   39.2220   30.8060   41.7900 S   0  0  0  0  0  0  0  0  0  0  0  0
   40.0040   30.5930   40.5150 O   0  0  0  0  0  0  0  0  0  0  0  0
   40.2760   31.1520   42.8420 O   0  0  0  0  0  0  0  0  0  0  0  0
   38.3910   31.8530   41.5940 H   0  0  0  0  0  0  0  0  0  0  0  0
  1  6  1  0  0  0  0
  2  1  2  0  0  0  0
  2  3  1  0  0  0  0
  3  4  2  0  0  0  0
  4  5  1  0  0  0  0
  5 18  1  0  0  0  0
  6  5  2  0  0  0  0
  7  1  1  0  0  0  0
  8  2  1  0  0  0  0
  9  3  1  0  0  0  0
  9 10  1  0  0  0  0
 11  9  1  0  0  0  0
 12 15  1  0  0  0  0
 12  9  1  0  0  0  0
 13 12  1  0  0  0  0
 14 12  1  0  0  0  0
 15 16  1  0  0  0  0
 15 17  1  0  0  0  0
 16 17  1  0  0  0  0
 18 20  1  0  0  0  0
 19 24  1  0  0  0  0
 20 21  1  0  0  0  0
 20 19  2  0  0  0  0
 21 22  2  0  0  0  0
 22 26  1  0  0  0  0
 22 23  1  0  0  0  0
 23 27  1  0  0  0  0
 24 28  1  0  0  0  0
 24 23  2  0  0  0  0
 25 21  1  0  0  0  0
 29 19  1  0  0  0  0
 29 31  2  0  0  0  0
 30 29  2  0  0  0  0
 32 29  1  0  0  0  0
M  END
>  <minimizedAffinity>
-4.86062956

$$$$

 OpenBabel03242517543D

 32 34  0  0  0  0  0  0  0  0999 V2000
   36.5690   28.7100   38.4830 C   0  0  0  0  0  0  0  0  0  0  0  0
   36.6730   30.0850   38.8070 C   0  0  0  0  0  0  0  0  0  0  0  0
   36.7340   30.4540   40.1390 C   0  0  0  0  0  0  0  0  0  0  0  0
   36.6890   29.4580   41.0310 N   0  0  0  0  0  0  0  0  0  0  0  0
   36.5920   28.1780   40.7280 C   0  0  0  0  0  0  0  0  0  0  0  0
   36.5310   27.8060   39.4500 N   0  0  0  0  0  0  0  0  0  0  0  0
   36.5210   28.4510   37.4210 H   0  0  0  0  0  0  0  0  0  0  0  0
   36.7070   30.8580   38.0600 H   0  0  0  0  0  0  0  0  0  0  0  0
   36.8430   31.8550   40.5890 C   0  0  0  0  0  0  0  0  0  0  0  0
   37.4840   31.9160   41.4600 H   0  0  0  0  0  0  0  0  0  0  0  0
   35.8160   32.1590   40.9020 H   0  0  0  0  0  0  0  0  0  0  0  0
   37.2570   32.7880   39.4630 C   0  0  0  0  0  0  0  0  0  0  0  0
   37.3280   32.2500   38.5010 H   0  0  0  0  0  0  0  0  0  0  0  0
   36.4650   33.5570   39.3480 H   0  0  0  0  0  0  0  0  0  0  0  0
   38.5440   33.4930   39.7550 C   0  0  0  0  0  3  0  0  0  0  0  0
   39.8590   32.8930   39.4650 C   0  0  0  0  0  2  0  0  0  0  0  0
   39.3930   32.9920   40.9110 C   0  0  0  0  0  2  0  0  0  0  0  0
   36.5470   27.1740   41.6810 O   0  0  0  0  0  0  0  0  0  0  0  0
   38.1550   25.2980   41.9920 C   0  0  0  0  0  0  0  0  0  0  0  0
   37.6500   26.5470   42.2480 C   0  0  0  0  0  0  0  0  0  0  0  0
   38.3020   27.3220   43.1950 C   0  0  0  0  0  0  0  0  0  0  0  0
   39.4220   26.8650   43.8660 C   0  0  0  0  0  0  0  0  0  0  0  0
   39.9060   25.6000   43.5840 C   0  0  0  0  0  0  0  0  0  0  0  0
   39.2540   24.8200   42.6350 C   0  0  0  0  0  0  0  0  0  0  0  0
   37.9860   28.3200   43.4700 H   0  0  0  0  0  0  0  0  0  0  0  0
   39.9360   27.4640   44.6060 H   0  0  0  0  0  0  0  0  0  0  0  0
   40.7580   25.1500   44.0400 H   0  0  0  0  0  0  0  0  0  0  0  0
   39.5450   23.8160   42.3350 H   0  0  0  0  0  0  0  0  0  0  0  0
   37.2750   24.3970   40.7900 S   0  0  0  0  0  0  0  0  0  0  0  0
   37.5030   22.9090   40.9250 O   0  0  0  0  0  0  0  0  0  0  0  0
   37.8530   24.7580   39.4220 O   0  0  0  0  0  0  0  0  0  0  0  0
   35.9420   24.6130   40.8100 H   0  0  0  0  0  0  0  0  0  0  0  0
  1  2  2  0  0  0  0
  1  6  1  0  0  0  0
  2  3  1  0  0  0  0
  3  9  1  0  0  0  0
  3  4  2  0  0  0  0
  5  4  1  0  0  0  0
  5 18  1  0  0  0  0
  6  5  2  0  0  0  0
  7  1  1  0  0  0  0
  8  2  1  0  0  0  0
  9 11  1  0  0  0  0
  9 10  1  0  0  0  0
 12 15  1  0  0  0  0
 12  9  1  0  0  0  0
 13 12  1  0  0  0  0
 14 12  1  0  0  0  0
 15 17  1  0  0  0  0
 16 15  1  0  0  0  0
 16 17  1  0  0  0  0
 18 20  1  0  0  0  0
 19 20  2  0  0  0  0
 19 24  1  0  0  0  0
 20 21  1  0  0  0  0
 21 25  1  0  0  0  0
 21 22  2  0  0  0  0
 22 26  1  0  0  0  0
 23 22  1  0  0  0  0
 23 27  1  0  0  0  0
 24 23  2  0  0  0  0
 28 24  1  0  0  0  0
 29 32  1  0  0  0  0
 29 30  2  0  0  0  0
 29 19  1  0  0  0  0
 31 29  2  0  0  0  0
M  END
>  <minimizedAffinity>
-4.76333666

$$$$
