
 OpenBabel03252504303D

 27 28  0  0  0  0  0  0  0  0999 V2000
   43.8760   35.2300   41.1930 C   0  0  0  0  0  3  0  0  0  0  0  0
   43.9520   35.5780   42.4850 C   0  0  0  0  0  3  0  0  0  0  0  0
   45.2170   35.5410   43.3180 C   0  0  0  0  0  0  0  0  0  0  0  0
   45.9830   35.1140   42.6210 H   0  0  0  0  0  0  0  0  0  0  0  0
   45.5300   36.5420   43.6070 H   0  0  0  0  0  0  0  0  0  0  0  0
   45.0020   34.6470   44.3460 O   0  0  0  0  0  0  0  0  0  0  0  0
   45.7070   32.4950   42.9540 O   0  0  0  0  0  0  0  0  0  0  0  0
   46.0150   33.2940   44.1860 P   0  0  1  0  0  0  0  0  0  0  0  0
   47.6350   33.7820   44.0960 O   0  0  0  0  0  0  0  0  0  0  0  0
   48.2200   33.2570   44.6830 H   0  0  0  0  0  0  0  0  0  0  0  0
   45.8420   32.3290   45.5730 O   0  0  0  0  0  0  0  0  0  0  0  0
   46.2190   32.9820   46.7170 C   0  0  0  0  0  3  0  0  0  0  0  0
   47.0610   32.3370   47.7530 C   0  0  0  0  0  2  0  0  0  0  0  0
   45.5700   32.4240   47.9820 C   0  0  0  0  0  2  0  0  0  0  0  0
   42.6240   35.3310   40.6000 O   0  0  0  0  0  0  0  0  0  0  0  0
   41.4430   35.6480   41.2270 C   0  0  0  0  0  0  0  0  0  0  0  0
   41.5920   35.4210   42.3290 H   0  0  0  0  0  0  0  0  0  0  0  0
   41.1720   36.6980   41.1140 H   0  0  0  0  0  0  0  0  0  0  0  0
   40.2760   33.5600   41.5860 C   0  0  0  0  0  0  0  0  0  0  0  0
   40.3120   34.7600   40.8430 C   0  0  0  0  0  0  0  0  0  0  0  0
   39.3420   34.9410   39.9110 C   0  0  0  0  0  0  0  0  0  0  0  0
   38.4360   33.9730   39.7700 N   0  0  0  0  0  0  0  0  0  0  0  0
   38.4000   32.8490   40.4630 C   0  0  0  0  0  0  0  0  0  0  0  0
   39.3590   32.5870   41.4400 N   0  0  0  0  0  0  0  0  0  0  0  0
   41.0020   33.3150   42.3550 H   0  0  0  0  0  0  0  0  0  0  0  0
   39.4250   35.8780   39.3770 H   0  0  0  0  0  0  0  0  0  0  0  0
   37.6330   32.1050   40.2970 H   0  0  0  0  0  0  0  0  0  0  0  0
  1  2  2  0  0  0  0
  2  3  1  0  0  0  0
  3  5  1  0  0  0  0
  3  6  1  0  0  0  0
  4  3  1  0  0  0  0
  8  7  2  6  0  0  0
  8  6  1  0  0  0  0
  8 11  1  0  0  0  0
  9  8  1  0  0  0  0
  9 10  1  0  0  0  0
 11 12  1  0  0  0  0
 12 13  1  0  0  0  0
 12 14  1  0  0  0  0
 13 14  1  0  0  0  0
 15  1  1  0  0  0  0
 15 16  1  0  0  0  0
 16 17  1  0  0  0  0
 18 16  1  0  0  0  0
 19 25  1  0  0  0  0
 20 16  1  0  0  0  0
 20 19  2  0  0  0  0
 21 20  1  0  0  0  0
 22 21  2  0  0  0  0
 22 23  1  0  0  0  0
 23 24  2  0  0  0  0
 24 19  1  0  0  0  0
 26 21  1  0  0  0  0
 27 23  1  0  0  0  0
M  END
>  <minimizedAffinity>
-4.60771084

>  <minimizedRMSD>
1.21076381

$$$$
