
 OpenBabel03252509323D

 21 22  0  0  0  0  0  0  0  0999 V2000
   47.1400   33.6580   42.8680 C   0  0  0  0  0  0  0  0  0  0  0  0
   46.9630   34.1270   41.8740 H   0  0  0  0  0  0  0  0  0  0  0  0
   46.8700   32.5760   42.7650 H   0  0  0  0  0  0  0  0  0  0  0  0
   45.1510   34.2620   45.9760 C   0  0  0  0  0  0  0  0  0  0  0  0
   46.0400   33.6660   45.0730 C   0  0  0  0  0  0  0  0  0  0  0  0
   46.2200   34.2600   43.8280 C   0  0  0  0  0  0  0  0  0  0  0  0
   45.5160   35.4100   43.5360 N   0  0  0  0  0  0  0  0  0  0  0  0
   44.6670   35.9540   44.4370 C   0  0  0  0  0  0  0  0  0  0  0  0
   44.4850   35.3930   45.6360 N   0  0  0  0  0  0  0  0  0  0  0  0
   45.0840   33.7230   46.9130 H   0  0  0  0  0  0  0  0  0  0  0  0
   46.5870   32.7720   45.3010 H   0  0  0  0  0  0  0  0  0  0  0  0
   44.1080   36.8560   44.2250 H   0  0  0  0  0  0  0  0  0  0  0  0
   48.4620   33.8020   43.2900 O   0  0  0  0  0  0  0  0  0  0  0  0
   50.7790   33.4850   42.1120 O   0  0  0  0  0  0  0  0  0  0  0  0
   49.3990   34.0710   41.9060 P   0  0  2  0  0  0  0  0  0  0  0  0
   49.4230   35.7230   41.6200 O   0  0  0  0  0  0  0  0  0  0  0  0
   50.0490   36.1440   42.2550 H   0  0  0  0  0  0  0  0  0  0  0  0
   48.6770   33.2500   40.6250 O   0  0  0  0  0  0  0  0  0  0  0  0
   48.1550   34.0740   39.6620 C   0  0  0  0  0  3  0  0  0  0  0  0
   46.9860   33.5110   38.8920 C   0  0  0  0  0  2  0  0  0  0  0  0
   48.3260   33.5210   38.2480 C   0  0  0  0  0  2  0  0  0  0  0  0
  1 13  1  0  0  0  0
  1  6  1  0  0  0  0
  2  1  1  0  0  0  0
  3  1  1  0  0  0  0
  4 10  1  0  0  0  0
  5 11  1  0  0  0  0
  5  4  2  0  0  0  0
  6  5  1  0  0  0  0
  7  6  2  0  0  0  0
  7  8  1  0  0  0  0
  8  9  2  0  0  0  0
  9  4  1  0  0  0  0
 12  8  1  0  0  0  0
 15 14  2  1  0  0  0
 15 13  1  0  0  0  0
 16 15  1  0  0  0  0
 16 17  1  0  0  0  0
 18 15  1  0  0  0  0
 19 18  1  0  0  0  0
 20 19  1  0  0  0  0
 21 20  1  0  0  0  0
 21 19  1  0  0  0  0
M  END
>  <minimizedAffinity>
-3.92639184

>  <minimizedRMSD>
1.66621554

$$$$
