
 OpenBabel03242521293D

 29 31  0  0  1  0  0  0  0  0999 V2000
   37.3430   29.7070   41.8260 C   0  0  1  0  0  0  0  0  0  0  0  0
   37.8300   28.5120   41.0450 C   0  0  2  0  0  0  0  0  0  0  0  0
   36.7920   27.8620   40.4010 O   0  0  0  0  0  0  0  0  0  0  0  0
   36.3860   28.7010   39.3760 C   0  0  0  0  0  0  0  0  0  0  0  0
   35.6290   29.8560   39.9890 C   0  0  2  0  0  0  0  0  0  0  0  0
   36.3390   30.5390   41.1070 C   0  0  2  0  0  0  0  0  0  0  0  0
   38.2540   30.3530   42.0030 H   0  0  0  0  0  0  0  0  0  0  0  0
   38.5930   28.9050   40.3390 H   0  0  0  0  0  0  0  0  0  0  0  0
   35.6490   28.1790   38.7120 H   0  0  0  0  0  0  0  0  0  0  0  0
   37.2500   29.0680   38.7950 H   0  0  0  0  0  0  0  0  0  0  0  0
   35.3960   30.5990   39.2030 H   0  0  0  0  0  0  0  0  0  0  0  0
   35.5470   30.8180   41.8540 H   0  0  0  0  0  0  0  0  0  0  0  0
   38.9430   25.2980   42.7180 C   0  0  0  0  0  0  0  0  0  0  0  0
   38.2620   26.1590   41.8430 C   0  0  0  0  0  0  0  0  0  0  0  0
   38.5250   27.5560   41.9290 C   0  0  0  0  0  0  0  0  0  0  0  0
   39.4190   27.9990   42.8480 N   0  0  0  0  0  0  0  0  0  0  0  0
   40.0580   27.1150   43.6800 C   0  0  0  0  0  0  0  0  0  0  0  0
   39.8160   25.7800   43.6090 N   0  0  0  0  0  0  0  0  0  0  0  0
   38.6300   24.2830   42.5220 H   0  0  0  0  0  0  0  0  0  0  0  0
   37.5380   25.8700   41.0900 H   0  0  0  0  0  0  0  0  0  0  0  0
   40.7710   27.4530   44.4150 H   0  0  0  0  0  0  0  0  0  0  0  0
   36.9320   29.3610   43.1190 O   0  0  0  0  0  0  0  0  0  0  0  0
   36.8190   28.3650   43.1310 H   0  0  0  0  0  0  0  0  0  0  0  0
   34.3990   29.3300   40.4000 O   0  0  0  0  0  0  0  0  0  0  0  0
   33.6290   29.8870   40.1250 H   0  0  0  0  0  0  0  0  0  0  0  0
   36.8760   31.7830   40.7240 O   0  0  0  0  0  0  0  0  0  0  0  0
   38.2580   31.8260   40.8700 C   0  0  0  0  0  3  0  0  0  0  0  0
   39.1310   32.2300   39.7470 C   0  0  0  0  0  2  0  0  0  0  0  0
   38.8510   33.2430   40.7670 C   0  0  0  0  0  2  0  0  0  0  0  0
  1  7  1  1  0  0  0
  1 22  1  0  0  0  0
  2  8  1  6  0  0  0
  2  1  1  0  0  0  0
  2 15  1  0  0  0  0
  3  2  1  0  0  0  0
  4  5  1  0  0  0  0
  4  3  1  0  0  0  0
  5 11  1  6  0  0  0
  5 24  1  0  0  0  0
  5  6  1  0  0  0  0
  6  1  1  0  0  0  0
  6 12  1  1  0  0  0
  9  4  1  0  0  0  0
 10  4  1  0  0  0  0
 13 18  1  0  0  0  0
 14 15  1  0  0  0  0
 14 13  2  0  0  0  0
 15 16  2  0  0  0  0
 16 17  1  0  0  0  0
 17 21  1  0  0  0  0
 18 17  2  0  0  0  0
 19 13  1  0  0  0  0
 20 14  1  0  0  0  0
 22 23  1  0  0  0  0
 25 24  1  0  0  0  0
 26 27  1  0  0  0  0
 26  6  1  0  0  0  0
 28 29  1  0  0  0  0
 28 27  1  0  0  0  0
 29 27  1  0  0  0  0
M  END
>  <minimizedAffinity>
-5.11924934

$$$$

 OpenBabel03242521293D

 29 31  0  0  1  0  0  0  0  0999 V2000
   35.7570   29.1560   40.3640 C   0  0  1  0  0  0  0  0  0  0  0  0
   36.3060   29.1140   38.9600 C   0  0  2  0  0  0  0  0  0  0  0  0
   36.5940   30.3800   38.4830 O   0  0  0  0  0  0  0  0  0  0  0  0
   37.7030   30.8170   39.1890 C   0  0  0  0  0  0  0  0  0  0  0  0
   37.2600   31.1620   40.5910 C   0  0  2  0  0  0  0  0  0  0  0  0
   36.4710   30.0960   41.2720 C   0  0  2  0  0  0  0  0  0  0  0  0
   35.8930   28.1140   40.7810 H   0  0  0  0  0  0  0  0  0  0  0  0
   37.2030   28.4600   39.0080 H   0  0  0  0  0  0  0  0  0  0  0  0
   38.0910   31.7750   38.7540 H   0  0  0  0  0  0  0  0  0  0  0  0
   38.4920   30.0450   39.2100 H   0  0  0  0  0  0  0  0  0  0  0  0
   38.1470   31.4010   41.2080 H   0  0  0  0  0  0  0  0  0  0  0  0
   35.6860   30.6280   41.8760 H   0  0  0  0  0  0  0  0  0  0  0  0
   34.4410   26.4750   36.9790 C   0  0  0  0  0  0  0  0  0  0  0  0
   35.3620   27.0440   37.8730 C   0  0  0  0  0  0  0  0  0  0  0  0
   35.3530   28.4570   38.0440 C   0  0  0  0  0  0  0  0  0  0  0  0
   34.4580   29.1960   37.3400 N   0  0  0  0  0  0  0  0  0  0  0  0
   33.5790   28.5900   36.4800 C   0  0  0  0  0  0  0  0  0  0  0  0
   33.5780   27.2430   36.3060 N   0  0  0  0  0  0  0  0  0  0  0  0
   34.5820   25.4030   36.9680 H   0  0  0  0  0  0  0  0  0  0  0  0
   36.1010   26.5110   38.4620 H   0  0  0  0  0  0  0  0  0  0  0  0
   32.8630   29.1650   35.9140 H   0  0  0  0  0  0  0  0  0  0  0  0
   34.3680   29.3350   40.3830 O   0  0  0  0  0  0  0  0  0  0  0  0
   34.1040   29.6490   39.4680 H   0  0  0  0  0  0  0  0  0  0  0  0
   36.5340   32.3530   40.4790 O   0  0  0  0  0  0  0  0  0  0  0  0
   36.7980   33.0310   41.1500 H   0  0  0  0  0  0  0  0  0  0  0  0
   37.2200   29.4080   42.2450 O   0  0  0  0  0  0  0  0  0  0  0  0
   36.9270   28.0500   42.2700 C   0  0  0  0  0  3  0  0  0  0  0  0
   37.8190   27.0900   42.9540 C   0  0  0  0  0  2  0  0  0  0  0  0
   36.6160   27.5060   43.6760 C   0  0  0  0  0  2  0  0  0  0  0  0
  1 22  1  0  0  0  0
  1  7  1  1  0  0  0
  1  6  1  0  0  0  0
  2  8  1  1  0  0  0
  2  1  1  0  0  0  0
  3  2  1  0  0  0  0
  3  4  1  0  0  0  0
  4 10  1  0  0  0  0
  4  5  1  0  0  0  0
  5 11  1  1  0  0  0
  5  6  1  0  0  0  0
  6 12  1  1  0  0  0
  6 26  1  0  0  0  0
  9  4  1  0  0  0  0
 13 14  1  0  0  0  0
 14 15  2  0  0  0  0
 14 20  1  0  0  0  0
 15  2  1  0  0  0  0
 16 15  1  0  0  0  0
 17 16  2  0  0  0  0
 18 17  1  0  0  0  0
 18 13  2  0  0  0  0
 19 13  1  0  0  0  0
 21 17  1  0  0  0  0
 23 22  1  0  0  0  0
 24  5  1  0  0  0  0
 24 25  1  0  0  0  0
 26 27  1  0  0  0  0
 27 28  1  0  0  0  0
 27 29  1  0  0  0  0
 28 29  1  0  0  0  0
M  END
>  <minimizedAffinity>
-4.99369287

$$$$

 OpenBabel03242521293D

 29 31  0  0  1  0  0  0  0  0999 V2000
   39.1780   31.8100   38.2500 C   0  0  1  0  0  0  0  0  0  0  0  0
   40.1530   32.4410   39.2130 C   0  0  2  0  0  0  0  0  0  0  0  0
   39.6710   33.6320   39.7260 O   0  0  0  0  0  0  0  0  0  0  0  0
   38.6340   33.2940   40.5810 C   0  0  0  0  0  0  0  0  0  0  0  0
   37.4510   32.8740   39.7400 C   0  0  2  0  0  0  0  0  0  0  0  0
   37.7600   31.8490   38.7030 C   0  0  2  0  0  0  0  0  0  0  0  0
   39.4790   30.7230   38.1740 H   0  0  0  0  0  0  0  0  0  0  0  0
   40.3350   31.6770   40.0000 H   0  0  0  0  0  0  0  0  0  0  0  0
   38.2900   34.1930   41.1530 H   0  0  0  0  0  0  0  0  0  0  0  0
   38.9310   32.4800   41.2660 H   0  0  0  0  0  0  0  0  0  0  0  0
   36.6510   32.4880   40.4000 H   0  0  0  0  0  0  0  0  0  0  0  0
   37.1360   32.1170   37.8070 H   0  0  0  0  0  0  0  0  0  0  0  0
   43.2760   34.1610   37.9250 C   0  0  0  0  0  0  0  0  0  0  0  0
   42.0450   33.9820   38.5770 C   0  0  0  0  0  0  0  0  0  0  0  0
   41.4520   32.6880   38.5570 C   0  0  0  0  0  0  0  0  0  0  0  0
   42.0950   31.6830   37.9110 N   0  0  0  0  0  0  0  0  0  0  0  0
   43.2960   31.9110   37.2900 C   0  0  0  0  0  0  0  0  0  0  0  0
   43.8730   33.1410   37.3010 N   0  0  0  0  0  0  0  0  0  0  0  0
   43.5820   35.1920   38.0370 H   0  0  0  0  0  0  0  0  0  0  0  0
   41.4820   34.7410   39.1090 H   0  0  0  0  0  0  0  0  0  0  0  0
   43.8180   31.1220   36.7720 H   0  0  0  0  0  0  0  0  0  0  0  0
   39.3420   32.2870   36.9430 O   0  0  0  0  0  0  0  0  0  0  0  0
   39.8960   33.1200   37.0070 H   0  0  0  0  0  0  0  0  0  0  0  0
   36.9500   34.0510   39.1730 O   0  0  0  0  0  0  0  0  0  0  0  0
   35.9680   34.1330   39.2580 H   0  0  0  0  0  0  0  0  0  0  0  0
   37.2920   30.5690   39.0540 O   0  0  0  0  0  0  0  0  0  0  0  0
   36.2350   30.6250   39.9540 C   0  0  0  0  0  3  0  0  0  0  0  0
   35.2420   29.5320   40.0340 C   0  0  0  0  0  2  0  0  0  0  0  0
   36.2940   29.5460   41.0520 C   0  0  0  0  0  2  0  0  0  0  0  0
  1  7  1  6  0  0  0
  1  6  1  0  0  0  0
  1  2  1  0  0  0  0
  2  3  1  0  0  0  0
  2  8  1  1  0  0  0
  3  4  1  0  0  0  0
  4  9  1  0  0  0  0
  4 10  1  0  0  0  0
  5 11  1  1  0  0  0
  5  4  1  0  0  0  0
  6 12  1  6  0  0  0
  6 26  1  0  0  0  0
  6  5  1  0  0  0  0
 13 19  1  0  0  0  0
 13 14  1  0  0  0  0
 14 20  1  0  0  0  0
 15 14  2  0  0  0  0
 15  2  1  0  0  0  0
 16 15  1  0  0  0  0
 17 18  1  0  0  0  0
 17 16  2  0  0  0  0
 18 13  2  0  0  0  0
 21 17  1  0  0  0  0
 22 23  1  0  0  0  0
 22  1  1  0  0  0  0
 24 25  1  0  0  0  0
 24  5  1  0  0  0  0
 26 27  1  0  0  0  0
 27 28  1  0  0  0  0
 27 29  1  0  0  0  0
 28 29  1  0  0  0  0
M  END
>  <minimizedAffinity>
-4.98470354

$$$$

 OpenBabel03242521293D

 29 31  0  0  1  0  0  0  0  0999 V2000
   38.4030   29.3810   41.9040 C   0  0  1  0  0  0  0  0  0  0  0  0
   37.9520   28.3360   40.9130 C   0  0  2  0  0  0  0  0  0  0  0  0
   36.6230   28.4990   40.5630 O   0  0  0  0  0  0  0  0  0  0  0  0
   36.5660   29.6440   39.7860 C   0  0  0  0  0  0  0  0  0  0  0  0
   36.7440   30.8380   40.6950 C   0  0  2  0  0  0  0  0  0  0  0  0
   37.9280   30.7580   41.5970 C   0  0  2  0  0  0  0  0  0  0  0  0
   39.5320   29.3920   41.8490 H   0  0  0  0  0  0  0  0  0  0  0  0
   38.6390   28.4290   40.0440 H   0  0  0  0  0  0  0  0  0  0  0  0
   35.5460   29.7610   39.3360 H   0  0  0  0  0  0  0  0  0  0  0  0
   37.3440   29.6340   39.0030 H   0  0  0  0  0  0  0  0  0  0  0  0
   36.8200   31.7560   40.0840 H   0  0  0  0  0  0  0  0  0  0  0  0
   37.6080   31.2190   42.5710 H   0  0  0  0  0  0  0  0  0  0  0  0
   37.3080   24.7720   42.0320 C   0  0  0  0  0  0  0  0  0  0  0  0
   37.0700   26.0440   41.4890 C   0  0  0  0  0  0  0  0  0  0  0  0
   38.1440   26.9780   41.4600 C   0  0  0  0  0  0  0  0  0  0  0  0
   39.3500   26.6040   41.9570 N   0  0  0  0  0  0  0  0  0  0  0  0
   39.5300   25.3480   42.4760 C   0  0  0  0  0  0  0  0  0  0  0  0
   38.5130   24.4470   42.5100 N   0  0  0  0  0  0  0  0  0  0  0  0
   36.3970   24.1930   41.9770 H   0  0  0  0  0  0  0  0  0  0  0  0
   36.1330   26.4040   41.0780 H   0  0  0  0  0  0  0  0  0  0  0  0
   40.4830   25.0370   42.8740 H   0  0  0  0  0  0  0  0  0  0  0  0
   38.1440   29.0010   43.2270 O   0  0  0  0  0  0  0  0  0  0  0  0
   37.4910   28.2420   43.1880 H   0  0  0  0  0  0  0  0  0  0  0  0
   35.5500   30.9490   41.4160 O   0  0  0  0  0  0  0  0  0  0  0  0
   35.1960   31.8730   41.4350 H   0  0  0  0  0  0  0  0  0  0  0  0
   38.9840   31.5880   41.1750 O   0  0  0  0  0  0  0  0  0  0  0  0
   38.5360   32.6640   40.4180 C   0  0  0  0  0  3  0  0  0  0  0  0
   38.9830   34.0420   40.7110 C   0  0  0  0  0  2  0  0  0  0  0  0
   39.6430   33.3540   39.6000 C   0  0  0  0  0  2  0  0  0  0  0  0
  1  7  1  6  0  0  0
  1 22  1  0  0  0  0
  2  8  1  6  0  0  0
  2 15  1  0  0  0  0
  2  1  1  0  0  0  0
  3  2  1  0  0  0  0
  4  3  1  0  0  0  0
  4  5  1  0  0  0  0
  5 11  1  6  0  0  0
  5 24  1  0  0  0  0
  5  6  1  0  0  0  0
  6  1  1  0  0  0  0
  6 12  1  1  0  0  0
  9  4  1  0  0  0  0
 10  4  1  0  0  0  0
 13 18  1  0  0  0  0
 14 13  2  0  0  0  0
 15 14  1  0  0  0  0
 15 16  2  0  0  0  0
 16 17  1  0  0  0  0
 17 18  2  0  0  0  0
 17 21  1  0  0  0  0
 19 13  1  0  0  0  0
 20 14  1  0  0  0  0
 23 22  1  0  0  0  0
 24 25  1  0  0  0  0
 26  6  1  0  0  0  0
 27 28  1  0  0  0  0
 27 26  1  0  0  0  0
 29 27  1  0  0  0  0
 29 28  1  0  0  0  0
M  END
>  <minimizedAffinity>
-4.8990159

$$$$

 OpenBabel03242521293D

 29 31  0  0  1  0  0  0  0  0999 V2000
   37.3820   27.7880   40.7720 C   0  0  1  0  0  0  0  0  0  0  0  0
   37.9850   29.1170   41.1550 C   0  0  2  0  0  0  0  0  0  0  0  0
   37.4210   29.6220   42.3130 O   0  0  0  0  0  0  0  0  0  0  0  0
   37.8730   28.8180   43.3460 C   0  0  0  0  0  0  0  0  0  0  0  0
   37.1500   27.4940   43.2600 C   0  0  2  0  0  0  0  0  0  0  0  0
   37.1850   26.8550   41.9140 C   0  0  2  0  0  0  0  0  0  0  0  0
   38.1200   27.3060   40.0640 H   0  0  0  0  0  0  0  0  0  0  0  0
   39.0770   28.9340   41.2540 H   0  0  0  0  0  0  0  0  0  0  0  0
   37.5830   29.2530   44.3370 H   0  0  0  0  0  0  0  0  0  0  0  0
   38.9650   28.6670   43.2860 H   0  0  0  0  0  0  0  0  0  0  0  0
   37.5780   26.7940   44.0020 H   0  0  0  0  0  0  0  0  0  0  0  0
   36.1800   26.3710   41.7740 H   0  0  0  0  0  0  0  0  0  0  0  0
   37.0620   32.2530   39.2360 C   0  0  0  0  0  0  0  0  0  0  0  0
   37.2060   31.3620   40.3120 C   0  0  0  0  0  0  0  0  0  0  0  0
   37.8180   30.1010   40.0660 C   0  0  0  0  0  0  0  0  0  0  0  0
   38.2370   29.8100   38.8090 N   0  0  0  0  0  0  0  0  0  0  0  0
   38.0740   30.7160   37.7940 C   0  0  0  0  0  0  0  0  0  0  0  0
   37.4900   31.9230   38.0140 N   0  0  0  0  0  0  0  0  0  0  0  0
   36.5830   33.1550   39.5920 H   0  0  0  0  0  0  0  0  0  0  0  0
   36.8920   31.5340   41.3360 H   0  0  0  0  0  0  0  0  0  0  0  0
   38.4020   30.4980   36.7900 H   0  0  0  0  0  0  0  0  0  0  0  0
   36.2290   27.9370   39.9890 O   0  0  0  0  0  0  0  0  0  0  0  0
   35.9360   28.8900   40.0840 H   0  0  0  0  0  0  0  0  0  0  0  0
   35.8390   27.7480   43.6800 O   0  0  0  0  0  0  0  0  0  0  0  0
   35.5090   27.0880   44.3370 H   0  0  0  0  0  0  0  0  0  0  0  0
   38.0790   25.7680   41.8560 O   0  0  0  0  0  0  0  0  0  0  0  0
   37.4310   24.5470   41.9930 C   0  0  0  0  0  3  0  0  0  0  0  0
   36.5140   24.0490   40.9450 C   0  0  0  0  0  2  0  0  0  0  0  0
   37.8680   23.4910   40.9610 C   0  0  0  0  0  2  0  0  0  0  0  0
  1  7  1  6  0  0  0
  1  2  1  0  0  0  0
  1  6  1  0  0  0  0
  2  8  1  1  0  0  0
  2  3  1  0  0  0  0
  3  4  1  0  0  0  0
  4  9  1  0  0  0  0
  5  4  1  0  0  0  0
  5 24  1  0  0  0  0
  5 11  1  1  0  0  0
  6 12  1  6  0  0  0
  6  5  1  0  0  0  0
 10  4  1  0  0  0  0
 13 19  1  0  0  0  0
 13 14  1  0  0  0  0
 14 20  1  0  0  0  0
 15 14  2  0  0  0  0
 15  2  1  0  0  0  0
 16 15  1  0  0  0  0
 17 18  1  0  0  0  0
 17 16  2  0  0  0  0
 18 13  2  0  0  0  0
 21 17  1  0  0  0  0
 22 23  1  0  0  0  0
 22  1  1  0  0  0  0
 24 25  1  0  0  0  0
 26  6  1  0  0  0  0
 26 27  1  0  0  0  0
 28 29  1  0  0  0  0
 28 27  1  0  0  0  0
 29 27  1  0  0  0  0
M  END
>  <minimizedAffinity>
-4.87593365

$$$$

 OpenBabel03242521293D

 29 31  0  0  1  0  0  0  0  0999 V2000
   37.7250   31.2660   38.7550 C   0  0  1  0  0  0  0  0  0  0  0  0
   38.9020   31.1800   39.6950 C   0  0  2  0  0  0  0  0  0  0  0  0
   38.5150   31.3170   41.0160 O   0  0  0  0  0  0  0  0  0  0  0  0
   37.8300   30.1570   41.3410 C   0  0  0  0  0  0  0  0  0  0  0  0
   36.4780   30.2080   40.6670 C   0  0  2  0  0  0  0  0  0  0  0  0
   36.5230   30.5150   39.2100 C   0  0  2  0  0  0  0  0  0  0  0  0
   38.0700   30.7990   37.7850 H   0  0  0  0  0  0  0  0  0  0  0  0
   39.3800   30.1980   39.4880 H   0  0  0  0  0  0  0  0  0  0  0  0
   37.6150   30.1250   42.4400 H   0  0  0  0  0  0  0  0  0  0  0  0
   38.3890   29.2600   41.0220 H   0  0  0  0  0  0  0  0  0  0  0  0
   35.9590   29.2420   40.8150 H   0  0  0  0  0  0  0  0  0  0  0  0
   35.6310   31.1660   39.0020 H   0  0  0  0  0  0  0  0  0  0  0  0
   41.2270   34.1600   39.9760 C   0  0  0  0  0  0  0  0  0  0  0  0
   40.2770   33.1930   40.3400 C   0  0  0  0  0  0  0  0  0  0  0  0
   39.9050   32.2140   39.3750 C   0  0  0  0  0  0  0  0  0  0  0  0
   40.4810   32.2540   38.1470 N   0  0  0  0  0  0  0  0  0  0  0  0
   41.4040   33.2210   37.8420 C   0  0  0  0  0  0  0  0  0  0  0  0
   41.7670   34.1610   38.7540 N   0  0  0  0  0  0  0  0  0  0  0  0
   41.3930   34.8200   40.8170 H   0  0  0  0  0  0  0  0  0  0  0  0
   39.7810   33.1070   41.3010 H   0  0  0  0  0  0  0  0  0  0  0  0
   41.8690   33.2650   36.8700 H   0  0  0  0  0  0  0  0  0  0  0  0
   37.4330   32.5880   38.3950 O   0  0  0  0  0  0  0  0  0  0  0  0
   37.9120   33.1790   39.0480 H   0  0  0  0  0  0  0  0  0  0  0  0
   35.7350   31.1590   41.3750 O   0  0  0  0  0  0  0  0  0  0  0  0
   34.8260   30.8450   41.6060 H   0  0  0  0  0  0  0  0  0  0  0  0
   36.2900   29.3780   38.4120 O   0  0  0  0  0  0  0  0  0  0  0  0
   35.1330   28.7050   38.7830 C   0  0  0  0  0  3  0  0  0  0  0  0
   33.8580   28.9260   38.0670 C   0  0  0  0  0  2  0  0  0  0  0  0
   34.6140   27.7230   37.7170 C   0  0  0  0  0  2  0  0  0  0  0  0
  1  7  1  6  0  0  0
  1  6  1  0  0  0  0
  1  2  1  0  0  0  0
  2  8  1  6  0  0  0
  2  3  1  0  0  0  0
  3  4  1  0  0  0  0
  4  9  1  0  0  0  0
  5 11  1  1  0  0  0
  5  4  1  0  0  0  0
  5 24  1  0  0  0  0
  6 12  1  6  0  0  0
  6  5  1  0  0  0  0
 10  4  1  0  0  0  0
 13 14  1  0  0  0  0
 13 19  1  0  0  0  0
 14 20  1  0  0  0  0
 15  2  1  0  0  0  0
 15 14  2  0  0  0  0
 16 15  1  0  0  0  0
 17 16  2  0  0  0  0
 17 18  1  0  0  0  0
 18 13  2  0  0  0  0
 21 17  1  0  0  0  0
 22  1  1  0  0  0  0
 22 23  1  0  0  0  0
 24 25  1  0  0  0  0
 26 27  1  0  0  0  0
 26  6  1  0  0  0  0
 28 27  1  0  0  0  0
 29 28  1  0  0  0  0
 29 27  1  0  0  0  0
M  END
>  <minimizedAffinity>
-4.80178785

$$$$

 OpenBabel03242521293D

 29 31  0  0  1  0  0  0  0  0999 V2000
   37.3200   29.1450   41.4210 C   0  0  1  0  0  0  0  0  0  0  0  0
   38.4400   29.7170   40.5870 C   0  0  2  0  0  0  0  0  0  0  0  0
   39.6740   29.5190   41.1790 O   0  0  0  0  0  0  0  0  0  0  0  0
   39.9370   28.1620   41.0830 C   0  0  0  0  0  0  0  0  0  0  0  0
   39.0530   27.4420   42.0750 C   0  0  2  0  0  0  0  0  0  0  0  0
   37.6090   27.8020   41.9940 C   0  0  2  0  0  0  0  0  0  0  0  0
   36.4390   29.0310   40.7200 H   0  0  0  0  0  0  0  0  0  0  0  0
   38.3570   29.2230   39.5940 H   0  0  0  0  0  0  0  0  0  0  0  0
   40.9880   27.9430   41.4050 H   0  0  0  0  0  0  0  0  0  0  0  0
   39.7520   27.7920   40.0590 H   0  0  0  0  0  0  0  0  0  0  0  0
   39.1600   26.3500   41.9350 H   0  0  0  0  0  0  0  0  0  0  0  0
   37.2320   27.8080   43.0530 H   0  0  0  0  0  0  0  0  0  0  0  0
   37.1950   33.0080   39.1770 C   0  0  0  0  0  0  0  0  0  0  0  0
   37.3370   31.6220   39.3580 C   0  0  0  0  0  0  0  0  0  0  0  0
   38.2380   31.1610   40.3590 C   0  0  0  0  0  0  0  0  0  0  0  0
   38.9220   32.0730   41.0950 N   0  0  0  0  0  0  0  0  0  0  0  0
   38.7460   33.4160   40.8780 C   0  0  0  0  0  0  0  0  0  0  0  0
   37.8900   33.8690   39.9260 N   0  0  0  0  0  0  0  0  0  0  0  0
   36.4800   33.1840   38.3860 H   0  0  0  0  0  0  0  0  0  0  0  0
   36.8230   30.8450   38.8040 H   0  0  0  0  0  0  0  0  0  0  0  0
   39.2830   34.1510   41.4560 H   0  0  0  0  0  0  0  0  0  0  0  0
   36.8580   30.0550   42.3800 O   0  0  0  0  0  0  0  0  0  0  0  0
   37.5520   30.7750   42.4540 H   0  0  0  0  0  0  0  0  0  0  0  0
   39.5890   27.7240   43.3360 O   0  0  0  0  0  0  0  0  0  0  0  0
   39.6850   26.9190   43.9030 H   0  0  0  0  0  0  0  0  0  0  0  0
   36.8370   26.7980   41.3800 O   0  0  0  0  0  0  0  0  0  0  0  0
   37.4690   25.5610   41.4040 C   0  0  0  0  0  3  0  0  0  0  0  0
   36.8600   24.4070   42.1000 C   0  0  0  0  0  2  0  0  0  0  0  0
   36.7080   24.4580   40.6450 C   0  0  0  0  0  2  0  0  0  0  0  0
  1  7  1  6  0  0  0
  1  6  1  0  0  0  0
  1 22  1  0  0  0  0
  2  8  1  6  0  0  0
  2  3  1  0  0  0  0
  2  1  1  0  0  0  0
  4  3  1  0  0  0  0
  4  9  1  0  0  0  0
  4  5  1  0  0  0  0
  5 11  1  6  0  0  0
  5 24  1  0  0  0  0
  6  5  1  0  0  0  0
  6 12  1  1  0  0  0
 10  4  1  0  0  0  0
 13 14  2  0  0  0  0
 13 18  1  0  0  0  0
 14 15  1  0  0  0  0
 15  2  1  0  0  0  0
 15 16  2  0  0  0  0
 17 16  1  0  0  0  0
 17 21  1  0  0  0  0
 18 17  2  0  0  0  0
 19 13  1  0  0  0  0
 20 14  1  0  0  0  0
 22 23  1  0  0  0  0
 24 25  1  0  0  0  0
 26 27  1  0  0  0  0
 26  6  1  0  0  0  0
 27 28  1  0  0  0  0
 29 27  1  0  0  0  0
 29 28  1  0  0  0  0
M  END
>  <minimizedAffinity>
-4.75745773

$$$$

 OpenBabel03242521293D

 29 31  0  0  1  0  0  0  0  0999 V2000
   37.6360   28.3020   40.7810 C   0  0  1  0  0  0  0  0  0  0  0  0
   38.4360   29.3410   41.5280 C   0  0  2  0  0  0  0  0  0  0  0  0
   37.9100   29.5900   42.7830 O   0  0  0  0  0  0  0  0  0  0  0  0
   38.1680   28.4600   43.5420 C   0  0  0  0  0  0  0  0  0  0  0  0
   37.2360   27.3630   43.0810 C   0  0  2  0  0  0  0  0  0  0  0  0
   37.2280   27.1340   41.6090 C   0  0  2  0  0  0  0  0  0  0  0  0
   38.3160   27.9170   39.9640 H   0  0  0  0  0  0  0  0  0  0  0  0
   39.4750   28.9480   41.5680 H   0  0  0  0  0  0  0  0  0  0  0  0
   37.9070   28.6420   44.6160 H   0  0  0  0  0  0  0  0  0  0  0  0
   39.2210   28.1430   43.4390 H   0  0  0  0  0  0  0  0  0  0  0  0
   37.5030   26.4180   43.5910 H   0  0  0  0  0  0  0  0  0  0  0  0
   36.1640   26.8950   41.3370 H   0  0  0  0  0  0  0  0  0  0  0  0
   39.6370   32.1570   39.2920 C   0  0  0  0  0  0  0  0  0  0  0  0
   39.6340   30.9350   39.9840 C   0  0  0  0  0  0  0  0  0  0  0  0
   38.4920   30.6050   40.7670 C   0  0  0  0  0  0  0  0  0  0  0  0
   37.4560   31.4800   40.8150 N   0  0  0  0  0  0  0  0  0  0  0  0
   37.5090   32.6610   40.1200 C   0  0  0  0  0  0  0  0  0  0  0  0
   38.5930   32.9880   39.3690 N   0  0  0  0  0  0  0  0  0  0  0  0
   40.5690   32.2490   38.7520 H   0  0  0  0  0  0  0  0  0  0  0  0
   40.4270   30.1950   39.9880 H   0  0  0  0  0  0  0  0  0  0  0  0
   36.6930   33.3650   40.1480 H   0  0  0  0  0  0  0  0  0  0  0  0
   36.5650   28.8660   40.0760 O   0  0  0  0  0  0  0  0  0  0  0  0
   36.4330   29.7900   40.4410 H   0  0  0  0  0  0  0  0  0  0  0  0
   35.9690   27.7160   43.5590 O   0  0  0  0  0  0  0  0  0  0  0  0
   35.5000   26.9650   44.0000 H   0  0  0  0  0  0  0  0  0  0  0  0
   37.9280   25.9690   41.2410 O   0  0  0  0  0  0  0  0  0  0  0  0
   37.3090   24.8160   41.7080 C   0  0  0  0  0  3  0  0  0  0  0  0
   36.5160   23.9550   40.8040 C   0  0  0  0  0  2  0  0  0  0  0  0
   37.8790   23.5170   41.1100 C   0  0  0  0  0  2  0  0  0  0  0  0
  1  7  1  6  0  0  0
  1  2  1  0  0  0  0
  1  6  1  0  0  0  0
  2  8  1  1  0  0  0
  2  3  1  0  0  0  0
  3  4  1  0  0  0  0
  4  9  1  0  0  0  0
  5  4  1  0  0  0  0
  5 24  1  0  0  0  0
  5 11  1  1  0  0  0
  6 12  1  6  0  0  0
  6  5  1  0  0  0  0
 10  4  1  0  0  0  0
 13 18  2  0  0  0  0
 13 14  1  0  0  0  0
 14 20  1  0  0  0  0
 14 15  2  0  0  0  0
 15 16  1  0  0  0  0
 15  2  1  0  0  0  0
 17 21  1  0  0  0  0
 17 16  2  0  0  0  0
 18 17  1  0  0  0  0
 19 13  1  0  0  0  0
 22 23  1  0  0  0  0
 22  1  1  0  0  0  0
 24 25  1  0  0  0  0
 26  6  1  0  0  0  0
 26 27  1  0  0  0  0
 28 29  1  0  0  0  0
 28 27  1  0  0  0  0
 29 27  1  0  0  0  0
M  END
>  <minimizedAffinity>
-4.65064573

$$$$

 OpenBabel03242521293D

 29 31  0  0  1  0  0  0  0  0999 V2000
   37.4150   30.1720   39.7350 C   0  0  1  0  0  0  0  0  0  0  0  0
   38.2970   30.5160   38.5600 C   0  0  2  0  0  0  0  0  0  0  0  0
   38.2980   31.8750   38.2990 O   0  0  0  0  0  0  0  0  0  0  0  0
   38.9950   32.4680   39.3390 C   0  0  0  0  0  0  0  0  0  0  0  0
   38.1180   32.4400   40.5690 C   0  0  2  0  0  0  0  0  0  0  0  0
   37.5440   31.1020   40.8900 C   0  0  2  0  0  0  0  0  0  0  0  0
   37.7500   29.1500   40.0840 H   0  0  0  0  0  0  0  0  0  0  0  0
   39.3060   30.1290   38.8190 H   0  0  0  0  0  0  0  0  0  0  0  0
   39.1710   33.5540   39.1220 H   0  0  0  0  0  0  0  0  0  0  0  0
   39.9480   31.9440   39.5300 H   0  0  0  0  0  0  0  0  0  0  0  0
   38.6960   32.8010   41.4400 H   0  0  0  0  0  0  0  0  0  0  0  0
   36.5060   31.2940   41.2750 H   0  0  0  0  0  0  0  0  0  0  0  0
   37.9710   27.8790   35.8570 C   0  0  0  0  0  0  0  0  0  0  0  0
   38.4110   28.5170   37.0280 C   0  0  0  0  0  0  0  0  0  0  0  0
   37.8630   29.7910   37.3500 C   0  0  0  0  0  0  0  0  0  0  0  0
   36.9430   30.3370   36.5160 N   0  0  0  0  0  0  0  0  0  0  0  0
   36.5470   29.6730   35.3850 C   0  0  0  0  0  0  0  0  0  0  0  0
   37.0620   28.4560   35.0660 N   0  0  0  0  0  0  0  0  0  0  0  0
   38.4810   26.9310   35.7640 H   0  0  0  0  0  0  0  0  0  0  0  0
   39.1420   28.1360   37.7330 H   0  0  0  0  0  0  0  0  0  0  0  0
   35.8160   30.0950   34.7130 H   0  0  0  0  0  0  0  0  0  0  0  0
   36.0830   29.9650   39.3530 O   0  0  0  0  0  0  0  0  0  0  0  0
   35.9840   30.3460   38.4310 H   0  0  0  0  0  0  0  0  0  0  0  0
   37.1190   33.3930   40.3460 O   0  0  0  0  0  0  0  0  0  0  0  0
   36.9790   33.9940   41.1190 H   0  0  0  0  0  0  0  0  0  0  0  0
   38.1870   30.4880   41.9810 O   0  0  0  0  0  0  0  0  0  0  0  0
   37.8230   29.1540   42.1210 C   0  0  0  0  0  3  0  0  0  0  0  0
   38.7490   28.1700   42.7220 C   0  0  0  0  0  2  0  0  0  0  0  0
   37.6890   28.6950   43.5850 C   0  0  0  0  0  2  0  0  0  0  0  0
  1  7  1  1  0  0  0
  1  6  1  0  0  0  0
  2  8  1  1  0  0  0
  2  1  1  0  0  0  0
  3  2  1  0  0  0  0
  3  4  1  0  0  0  0
  4 10  1  0  0  0  0
  4  5  1  0  0  0  0
  5  6  1  0  0  0  0
  5 11  1  1  0  0  0
  6 12  1  1  0  0  0
  6 26  1  0  0  0  0
  9  4  1  0  0  0  0
 13 14  1  0  0  0  0
 14 15  2  0  0  0  0
 14 20  1  0  0  0  0
 15  2  1  0  0  0  0
 16 15  1  0  0  0  0
 17 16  2  0  0  0  0
 18 17  1  0  0  0  0
 18 13  2  0  0  0  0
 19 13  1  0  0  0  0
 21 17  1  0  0  0  0
 22  1  1  0  0  0  0
 23 22  1  0  0  0  0
 24  5  1  0  0  0  0
 24 25  1  0  0  0  0
 26 27  1  0  0  0  0
 27 28  1  0  0  0  0
 27 29  1  0  0  0  0
 28 29  1  0  0  0  0
M  END
>  <minimizedAffinity>
-4.5398798

$$$$
