
 OpenBabel03242516343D

 38 41  0  0  1  0  0  0  0  0999 V2000
   48.0400   34.6430   41.9830 C   0  0  2  0  0  0  0  0  0  0  0  0
   46.7220   33.8730   42.2560 C   0  0  1  0  0  0  0  0  0  0  0  0
   47.2420   32.6530   42.5740 O   0  0  0  0  0  0  0  0  0  0  0  0
   48.1230   32.3730   41.5090 C   0  0  0  0  0  0  0  0  0  0  0  0
   48.5240   33.7230   40.8830 C   0  0  1  0  0  0  0  0  0  0  0  0
   47.8510   35.6630   41.6450 H   0  0  0  0  0  0  0  0  0  0  0  0
   46.1780   33.9440   41.2910 H   0  0  0  0  0  0  0  0  0  0  0  0
   48.9990   31.7990   41.8470 H   0  0  0  0  0  0  0  0  0  0  0  0
   47.5840   31.7980   40.7440 H   0  0  0  0  0  0  0  0  0  0  0  0
   49.6130   33.8130   40.7390 H   0  0  0  0  0  0  0  0  0  0  0  0
   44.5200   36.0660   44.4470 C   0  0  0  0  0  0  0  0  0  0  0  0
   45.1880   35.6710   43.2870 C   0  0  0  0  0  0  0  0  0  0  0  0
   45.9460   34.5220   43.3190 C   0  0  0  0  0  0  0  0  0  0  0  0
   45.9920   33.8320   44.5120 N   0  0  0  0  0  0  0  0  0  0  0  0
   45.3370   34.2340   45.6140 C   0  0  0  0  0  0  0  0  0  0  0  0
   44.6000   35.3550   45.5760 N   0  0  0  0  0  0  0  0  0  0  0  0
   43.9530   36.9950   44.2900 H   0  0  0  0  0  0  0  0  0  0  0  0
   45.2030   36.1480   42.3310 H   0  0  0  0  0  0  0  0  0  0  0  0
   45.4050   33.6550   46.5300 H   0  0  0  0  0  0  0  0  0  0  0  0
   48.9150   34.4960   43.0240 O   0  0  0  0  0  0  0  0  0  0  0  0
   48.5300   34.7060   43.9090 H   0  0  0  0  0  0  0  0  0  0  0  0
   47.7820   33.8900   39.7530 O   0  0  0  0  0  0  0  0  0  0  0  0
   49.1600   32.9090   38.1100 C   0  0  1  0  0  0  0  0  0  0  0  0
   48.4840   34.2840   38.6160 C   0  0  1  0  0  0  0  0  0  0  0  0
   47.6290   34.4620   37.5950 O   0  0  0  0  0  0  0  0  0  0  0  0
   46.8830   33.2530   37.6930 C   0  0  0  0  0  0  0  0  0  0  0  0
   47.9700   32.2180   37.5190 C   0  0  1  0  0  0  0  0  0  0  0  0
   49.6540   32.4340   38.9360 H   0  0  0  0  0  0  0  0  0  0  0  0
   49.3790   34.8690   38.7830 H   0  0  0  0  0  0  0  0  0  0  0  0
   46.1940   33.2710   36.8100 H   0  0  0  0  0  0  0  0  0  0  0  0
   46.3660   33.2220   38.6480 H   0  0  0  0  0  0  0  0  0  0  0  0
   47.6800   31.3110   38.0910 H   0  0  0  0  0  0  0  0  0  0  0  0
   49.9850   33.3090   37.0480 O   0  0  0  0  0  0  0  0  0  0  0  0
   49.3720   33.6050   36.3250 H   0  0  0  0  0  0  0  0  0  0  0  0
   48.1310   31.9560   36.1730 O   0  0  0  0  0  0  0  0  0  0  0  0
   46.8470   31.7700   35.6520 C   0  0  0  0  0  0  0  0  0  0  0  0
   46.5440   30.5420   34.8620 C   0  0  0  0  0  0  0  0  0  0  0  0
   46.6210   31.8730   34.1680 C   0  0  0  0  0  0  0  0  0  0  0  0
  1  6  1  6  0  0  0
  1  2  1  0  0  0  0
  1 20  1  0  0  0  0
  2  7  1  6  0  0  0
  2  3  1  0  0  0  0
  2 13  1  0  0  0  0
  4  8  1  0  0  0  0
  4  3  1  0  0  0  0
  5 10  1  6  0  0  0
  5  4  1  0  0  0  0
  5  1  1  0  0  0  0
  9  4  1  0  0  0  0
 11 16  1  0  0  0  0
 12 13  1  0  0  0  0
 12 11  2  0  0  0  0
 13 14  2  0  0  0  0
 14 15  1  0  0  0  0
 15 19  1  0  0  0  0
 16 15  2  0  0  0  0
 17 11  1  0  0  0  0
 18 12  1  0  0  0  0
 20 21  1  0  0  0  0
 22  5  1  0  0  0  0
 23 24  1  0  0  0  0
 23 28  1  1  0  0  0
 24 29  1  1  0  0  0
 24 22  1  0  0  0  0
 25 26  1  0  0  0  0
 25 24  1  0  0  0  0
 26 31  1  0  0  0  0
 27 26  1  0  0  0  0
 27 32  1  1  0  0  0
 27 23  1  0  0  0  0
 30 26  1  0  0  0  0
 33 23  1  0  0  0  0
 34 33  1  0  0  0  0
 35 27  1  0  0  0  0
 36 35  1  0  0  0  0
 37 36  1  0  0  0  0
 38 37  1  0  0  0  0
 38 36  1  0  0  0  0
M  END
>  <minimizedAffinity>
-5.10156965

>  <minimizedRMSD>
1.00001931

$$$$
