
 OpenBabel03252509313D

 21 22  0  0  0  0  0  0  0  0999 V2000
   47.1400   33.6570   42.8670 C   0  0  0  0  0  0  0  0  0  0  0  0
   46.9630   34.1270   41.8730 H   0  0  0  0  0  0  0  0  0  0  0  0
   46.8690   32.5750   42.7630 H   0  0  0  0  0  0  0  0  0  0  0  0
   45.1520   34.2610   45.9750 C   0  0  0  0  0  0  0  0  0  0  0  0
   46.0400   33.6650   45.0720 C   0  0  0  0  0  0  0  0  0  0  0  0
   46.2200   34.2600   43.8270 C   0  0  0  0  0  0  0  0  0  0  0  0
   45.5170   35.4090   43.5350 N   0  0  0  0  0  0  0  0  0  0  0  0
   44.6680   35.9540   44.4360 C   0  0  0  0  0  0  0  0  0  0  0  0
   44.4860   35.3930   45.6350 N   0  0  0  0  0  0  0  0  0  0  0  0
   45.0840   33.7230   46.9120 H   0  0  0  0  0  0  0  0  0  0  0  0
   46.5870   32.7710   45.2990 H   0  0  0  0  0  0  0  0  0  0  0  0
   44.1080   36.8560   44.2240 H   0  0  0  0  0  0  0  0  0  0  0  0
   48.4620   33.8000   43.2890 O   0  0  0  0  0  0  0  0  0  0  0  0
   50.7790   33.4840   42.1110 O   0  0  0  0  0  0  0  0  0  0  0  0
   49.3990   34.0700   41.9060 P   0  0  2  0  0  0  0  0  0  0  0  0
   49.4230   35.7230   41.6200 O   0  0  0  0  0  0  0  0  0  0  0  0
   50.0490   36.1430   42.2550 H   0  0  0  0  0  0  0  0  0  0  0  0
   48.6780   33.2490   40.6240 O   0  0  0  0  0  0  0  0  0  0  0  0
   48.1560   34.0740   39.6610 C   0  0  0  0  0  3  0  0  0  0  0  0
   46.9850   33.5110   38.8930 C   0  0  0  0  0  2  0  0  0  0  0  0
   48.3250   33.5190   38.2470 C   0  0  0  0  0  2  0  0  0  0  0  0
  1 13  1  0  0  0  0
  1  6  1  0  0  0  0
  2  1  1  0  0  0  0
  3  1  1  0  0  0  0
  4 10  1  0  0  0  0
  5 11  1  0  0  0  0
  5  4  2  0  0  0  0
  6  5  1  0  0  0  0
  7  6  2  0  0  0  0
  7  8  1  0  0  0  0
  8  9  2  0  0  0  0
  9  4  1  0  0  0  0
 12  8  1  0  0  0  0
 15 14  2  1  0  0  0
 15 13  1  0  0  0  0
 16 15  1  0  0  0  0
 16 17  1  0  0  0  0
 18 15  1  0  0  0  0
 19 18  1  0  0  0  0
 20 19  1  0  0  0  0
 21 20  1  0  0  0  0
 21 19  1  0  0  0  0
M  END
>  <minimizedAffinity>
-3.9264133

>  <minimizedRMSD>
1.64056849

$$$$
