
 OpenBabel03242516303D

 40 44  0  0  0  0  0  0  0  0999 V2000
   37.8960   28.7850   43.2050 S   0  0  0  0  0  0  0  0  0  0  0  0
   37.0270   29.2730   41.8020 C   0  0  0  0  0  0  0  0  0  0  0  0
   35.8520   28.6710   41.4370 N   0  0  0  0  0  0  0  0  0  0  0  0
   35.1640   28.9850   40.3470 C   0  0  0  0  0  0  0  0  0  0  0  0
   35.6580   29.9510   39.5670 N   0  0  0  0  0  0  0  0  0  0  0  0
   36.8040   30.5960   39.8470 C   0  0  0  0  0  0  0  0  0  0  0  0
   37.3020   31.5950   39.0260 C   0  0  0  0  0  0  0  0  0  0  0  0
   38.4750   32.2370   39.3400 C   0  0  0  0  0  0  0  0  0  0  0  0
   39.1600   31.8970   40.4660 C   0  0  0  0  0  0  0  0  0  0  0  0
   38.6900   30.8990   41.3150 C   0  0  0  0  0  0  0  0  0  0  0  0
   37.5270   30.2630   40.9990 C   0  0  0  0  0  0  0  0  0  0  0  0
   34.2470   28.4880   40.0990 H   0  0  0  0  0  0  0  0  0  0  0  0
   36.7050   31.8010   38.1640 H   0  0  0  0  0  0  0  0  0  0  0  0
   38.7560   32.9880   38.6280 H   0  0  0  0  0  0  0  0  0  0  0  0
   40.0530   32.4950   40.5720 H   0  0  0  0  0  0  0  0  0  0  0  0
   39.4960   30.6280   42.5150 C   0  0  0  0  0  0  0  0  0  0  0  0
   39.5390   29.5470   42.7770 H   0  0  0  0  0  0  0  0  0  0  0  0
   39.4280   31.3460   43.3240 H   0  0  0  0  0  0  0  0  0  0  0  0
   41.0050   30.7660   42.1910 C   0  0  0  0  0  3  0  0  0  0  0  0
   41.8610   29.6970   42.8500 C   0  0  0  0  0  2  0  0  0  0  0  0
   41.9970   31.1500   43.1790 C   0  0  0  0  0  2  0  0  0  0  0  0
   38.4380   24.9900   42.0680 C   0  0  0  0  0  0  0  0  0  0  0  0
   37.9630   26.2860   42.1960 C   0  0  0  0  0  0  0  0  0  0  0  0
   38.5610   27.1700   43.0660 C   0  0  0  0  0  0  0  0  0  0  0  0
   39.6420   26.7830   43.8260 C   0  0  0  0  0  0  0  0  0  0  0  0
   40.1390   25.5200   43.7310 C   0  0  0  0  0  0  0  0  0  0  0  0
   39.5340   24.6470   42.8590 C   0  0  0  0  0  0  0  0  0  0  0  0
   37.1130   26.5610   41.5860 H   0  0  0  0  0  0  0  0  0  0  0  0
   40.0670   27.5320   44.4920 H   0  0  0  0  0  0  0  0  0  0  0  0
   40.9900   25.2360   44.3350 H   0  0  0  0  0  0  0  0  0  0  0  0
   39.9000   23.6350   42.7560 H   0  0  0  0  0  0  0  0  0  0  0  0
   35.8790   23.5590   39.8930 C   0  0  0  0  0  0  0  0  0  0  0  0
   36.4990   22.3740   39.4010 C   0  0  0  0  0  0  0  0  0  0  0  0
   37.7860   22.0840   39.8250 C   0  0  0  0  0  0  0  0  0  0  0  0
   38.4360   22.9200   40.6920 N   0  0  0  0  0  0  0  0  0  0  0  0
   37.7960   24.0540   41.1400 C   0  0  0  0  0  0  0  0  0  0  0  0
   36.5360   24.3660   40.7450 N   0  0  0  0  0  0  0  0  0  0  0  0
   34.8750   23.8330   39.5960 H   0  0  0  0  0  0  0  0  0  0  0  0
   35.9290   21.7760   38.7320 H   0  0  0  0  0  0  0  0  0  0  0  0
   38.2690   21.1880   39.4600 H   0  0  0  0  0  0  0  0  0  0  0  0
  2  1  1  0  0  0  0
  3  2  1  0  0  0  0
  4  3  2  0  0  0  0
  5  6  2  0  0  0  0
  5  4  1  0  0  0  0
  6 11  1  0  0  0  0
  7  8  2  0  0  0  0
  7  6  1  0  0  0  0
  8  9  1  0  0  0  0
  9 15  1  0  0  0  0
  9 10  2  0  0  0  0
 10 16  1  0  0  0  0
 11 10  1  0  0  0  0
 11  2  2  0  0  0  0
 12  4  1  0  0  0  0
 13  7  1  0  0  0  0
 14  8  1  0  0  0  0
 16 17  1  0  0  0  0
 16 18  1  0  0  0  0
 19 16  1  0  0  0  0
 19 20  1  0  0  0  0
 19 21  1  0  0  0  0
 20 21  1  0  0  0  0
 22 23  2  0  0  0  0
 22 27  1  0  0  0  0
 23 24  1  0  0  0  0
 24  1  1  0  0  0  0
 24 25  2  0  0  0  0
 25 29  1  0  0  0  0
 26 25  1  0  0  0  0
 26 30  1  0  0  0  0
 27 26  2  0  0  0  0
 28 23  1  0  0  0  0
 31 27  1  0  0  0  0
 32 37  1  0  0  0  0
 33 34  1  0  0  0  0
 33 32  2  0  0  0  0
 34 35  2  0  0  0  0
 35 36  1  0  0  0  0
 36 22  1  0  0  0  0
 37 36  2  0  0  0  0
 38 32  1  0  0  0  0
 39 33  1  0  0  0  0
 40 34  1  0  0  0  0
M  END
>  <minimizedAffinity>
-6.3178668

$$$$

 OpenBabel03242516303D

 40 44  0  0  0  0  0  0  0  0999 V2000
   35.8180   28.4400   40.1110 S   0  0  0  0  0  0  0  0  0  0  0  0
   36.8370   28.0750   41.4490 C   0  0  0  0  0  0  0  0  0  0  0  0
   37.0850   28.9920   42.4360 N   0  0  0  0  0  0  0  0  0  0  0  0
   37.8900   28.7710   43.4670 C   0  0  0  0  0  0  0  0  0  0  0  0
   38.4870   27.5780   43.5360 N   0  0  0  0  0  0  0  0  0  0  0  0
   38.3010   26.6180   42.6120 C   0  0  0  0  0  0  0  0  0  0  0  0
   38.9290   25.3870   42.6990 C   0  0  0  0  0  0  0  0  0  0  0  0
   38.7190   24.4260   41.7400 C   0  0  0  0  0  0  0  0  0  0  0  0
   37.8860   24.6760   40.6940 C   0  0  0  0  0  0  0  0  0  0  0  0
   37.2370   25.9020   40.5740 C   0  0  0  0  0  0  0  0  0  0  0  0
   37.4510   26.8540   41.5260 C   0  0  0  0  0  0  0  0  0  0  0  0
   38.0560   29.5180   44.2190 H   0  0  0  0  0  0  0  0  0  0  0  0
   39.5660   25.2700   43.5500 H   0  0  0  0  0  0  0  0  0  0  0  0
   39.2610   23.5180   41.9180 H   0  0  0  0  0  0  0  0  0  0  0  0
   37.8230   23.8230   40.0350 H   0  0  0  0  0  0  0  0  0  0  0  0
   36.3420   26.0580   39.4170 C   0  0  0  0  0  0  0  0  0  0  0  0
   36.7870   26.6710   38.6000 H   0  0  0  0  0  0  0  0  0  0  0  0
   35.2860   26.1800   39.6260 H   0  0  0  0  0  0  0  0  0  0  0  0
   36.2810   24.7410   38.6040 C   0  0  0  0  0  3  0  0  0  0  0  0
   35.4050   24.8390   37.3650 C   0  0  0  0  0  2  0  0  0  0  0  0
   35.0850   23.9240   38.5040 C   0  0  0  0  0  2  0  0  0  0  0  0
   37.8230   31.5680   38.6300 C   0  0  0  0  0  0  0  0  0  0  0  0
   37.2440   30.6420   39.4830 C   0  0  0  0  0  0  0  0  0  0  0  0
   36.5540   29.5600   38.9810 C   0  0  0  0  0  0  0  0  0  0  0  0
   36.4280   29.3780   37.6230 C   0  0  0  0  0  0  0  0  0  0  0  0
   36.9820   30.2640   36.7510 C   0  0  0  0  0  0  0  0  0  0  0  0
   37.6670   31.3400   37.2640 C   0  0  0  0  0  0  0  0  0  0  0  0
   37.3590   30.8110   40.5460 H   0  0  0  0  0  0  0  0  0  0  0  0
   35.8730   28.5020   37.2930 H   0  0  0  0  0  0  0  0  0  0  0  0
   36.8740   30.1030   35.6870 H   0  0  0  0  0  0  0  0  0  0  0  0
   38.1210   32.0650   36.6030 H   0  0  0  0  0  0  0  0  0  0  0  0
   40.6370   33.7590   39.4120 C   0  0  0  0  0  0  0  0  0  0  0  0
   40.0260   34.8220   40.1390 C   0  0  0  0  0  0  0  0  0  0  0  0
   38.6570   34.7690   40.3510 C   0  0  0  0  0  0  0  0  0  0  0  0
   37.9210   33.7200   39.8690 N   0  0  0  0  0  0  0  0  0  0  0  0
   38.5550   32.7170   39.1720 C   0  0  0  0  0  0  0  0  0  0  0  0
   39.8930   32.7390   38.9480 N   0  0  0  0  0  0  0  0  0  0  0  0
   41.7010   33.7490   39.2180 H   0  0  0  0  0  0  0  0  0  0  0  0
   40.6650   35.5990   40.4800 H   0  0  0  0  0  0  0  0  0  0  0  0
   38.1800   35.5680   40.9010 H   0  0  0  0  0  0  0  0  0  0  0  0
  1  2  1  0  0  0  0
  2 11  2  0  0  0  0
  2  3  1  0  0  0  0
  3  4  2  0  0  0  0
  4  5  1  0  0  0  0
  4 12  1  0  0  0  0
  6  7  1  0  0  0  0
  6  5  2  0  0  0  0
  7 13  1  0  0  0  0
  8 14  1  0  0  0  0
  8  7  2  0  0  0  0
  9  8  1  0  0  0  0
 10  9  2  0  0  0  0
 10 11  1  0  0  0  0
 11  6  1  0  0  0  0
 15  9  1  0  0  0  0
 16 18  1  0  0  0  0
 16 10  1  0  0  0  0
 17 16  1  0  0  0  0
 19 16  1  0  0  0  0
 20 21  1  0  0  0  0
 20 19  1  0  0  0  0
 21 19  1  0  0  0  0
 22 36  1  0  0  0  0
 22 23  1  0  0  0  0
 23 28  1  0  0  0  0
 24 23  2  0  0  0  0
 24  1  1  0  0  0  0
 25 24  1  0  0  0  0
 26 27  1  0  0  0  0
 26 25  2  0  0  0  0
 27 22  2  0  0  0  0
 29 25  1  0  0  0  0
 30 26  1  0  0  0  0
 31 27  1  0  0  0  0
 32 33  1  0  0  0  0
 33 34  2  0  0  0  0
 33 39  1  0  0  0  0
 34 40  1  0  0  0  0
 35 34  1  0  0  0  0
 36 35  2  0  0  0  0
 37 36  1  0  0  0  0
 37 32  2  0  0  0  0
 38 32  1  0  0  0  0
M  END
>  <minimizedAffinity>
-6.3162632

$$$$

 OpenBabel03242516303D

 40 44  0  0  0  0  0  0  0  0999 V2000
   38.0200   29.2420   42.7960 S   0  0  0  0  0  0  0  0  0  0  0  0
   39.2360   30.3260   42.2410 C   0  0  0  0  0  0  0  0  0  0  0  0
   40.5270   30.2500   42.6910 N   0  0  0  0  0  0  0  0  0  0  0  0
   41.4910   31.0840   42.3230 C   0  0  0  0  0  0  0  0  0  0  0  0
   41.1690   32.0510   41.4590 N   0  0  0  0  0  0  0  0  0  0  0  0
   39.9270   32.2010   40.9660 C   0  0  0  0  0  0  0  0  0  0  0  0
   39.6110   33.2100   40.0710 C   0  0  0  0  0  0  0  0  0  0  0  0
   38.3330   33.3360   39.5830 C   0  0  0  0  0  0  0  0  0  0  0  0
   37.3630   32.4660   39.9750 C   0  0  0  0  0  0  0  0  0  0  0  0
   37.6440   31.4390   40.8720 C   0  0  0  0  0  0  0  0  0  0  0  0
   38.9130   31.3180   41.3560 C   0  0  0  0  0  0  0  0  0  0  0  0
   42.4900   30.9880   42.7000 H   0  0  0  0  0  0  0  0  0  0  0  0
   40.4280   33.8500   39.8150 H   0  0  0  0  0  0  0  0  0  0  0  0
   38.2140   34.1550   38.9010 H   0  0  0  0  0  0  0  0  0  0  0  0
   36.4210   32.6950   39.5010 H   0  0  0  0  0  0  0  0  0  0  0  0
   36.5280   30.5420   41.2100 C   0  0  0  0  0  0  0  0  0  0  0  0
   35.6430   31.0810   41.6180 H   0  0  0  0  0  0  0  0  0  0  0  0
   36.7840   29.5830   41.6450 H   0  0  0  0  0  0  0  0  0  0  0  0
   35.8260   30.0490   39.9210 C   0  0  0  0  0  3  0  0  0  0  0  0
   34.7650   28.9920   40.1810 C   0  0  0  0  0  2  0  0  0  0  0  0
   36.0000   28.7110   39.3850 C   0  0  0  0  0  2  0  0  0  0  0  0
   38.3230   25.3410   41.9700 C   0  0  0  0  0  0  0  0  0  0  0  0
   37.9500   26.6760   41.9700 C   0  0  0  0  0  0  0  0  0  0  0  0
   38.5550   27.5730   42.8220 C   0  0  0  0  0  0  0  0  0  0  0  0
   39.5420   27.1610   43.6880 C   0  0  0  0  0  0  0  0  0  0  0  0
   39.9380   25.8590   43.7190 C   0  0  0  0  0  0  0  0  0  0  0  0
   39.3260   24.9730   42.8650 C   0  0  0  0  0  0  0  0  0  0  0  0
   37.1710   26.9700   41.2780 H   0  0  0  0  0  0  0  0  0  0  0  0
   39.9800   27.9220   44.3320 H   0  0  0  0  0  0  0  0  0  0  0  0
   40.7160   25.5560   44.4060 H   0  0  0  0  0  0  0  0  0  0  0  0
   39.6130   23.9310   42.8600 H   0  0  0  0  0  0  0  0  0  0  0  0
   37.7760   22.2790   40.0570 C   0  0  0  0  0  0  0  0  0  0  0  0
   36.5490   22.5360   39.3810 C   0  0  0  0  0  0  0  0  0  0  0  0
   35.9280   23.7570   39.5900 C   0  0  0  0  0  0  0  0  0  0  0  0
   36.4870   24.6850   40.4280 N   0  0  0  0  0  0  0  0  0  0  0  0
   37.6740   24.3910   41.0610 C   0  0  0  0  0  0  0  0  0  0  0  0
   38.3060   23.2050   40.8760 N   0  0  0  0  0  0  0  0  0  0  0  0
   38.3030   21.3430   39.9300 H   0  0  0  0  0  0  0  0  0  0  0  0
   36.1800   21.7670   38.7470 H   0  0  0  0  0  0  0  0  0  0  0  0
   34.9960   23.9660   39.0830 H   0  0  0  0  0  0  0  0  0  0  0  0
  1 24  1  0  0  0  0
  2  3  1  0  0  0  0
  2  1  1  0  0  0  0
  4  3  2  0  0  0  0
  4 12  1  0  0  0  0
  5  4  1  0  0  0  0
  6 11  1  0  0  0  0
  6  5  2  0  0  0  0
  7  6  1  0  0  0  0
  8  9  1  0  0  0  0
  8  7  2  0  0  0  0
  9 10  2  0  0  0  0
 10 16  1  0  0  0  0
 10 11  1  0  0  0  0
 11  2  2  0  0  0  0
 13  7  1  0  0  0  0
 14  8  1  0  0  0  0
 15  9  1  0  0  0  0
 16 17  1  0  0  0  0
 16 18  1  0  0  0  0
 19 20  1  0  0  0  0
 19 16  1  0  0  0  0
 21 19  1  0  0  0  0
 21 20  1  0  0  0  0
 22 27  1  0  0  0  0
 23 22  2  0  0  0  0
 23 24  1  0  0  0  0
 24 25  2  0  0  0  0
 25 26  1  0  0  0  0
 25 29  1  0  0  0  0
 26 30  1  0  0  0  0
 27 26  2  0  0  0  0
 28 23  1  0  0  0  0
 31 27  1  0  0  0  0
 32 37  1  0  0  0  0
 33 34  1  0  0  0  0
 33 32  2  0  0  0  0
 34 35  2  0  0  0  0
 35 36  1  0  0  0  0
 36 22  1  0  0  0  0
 37 36  2  0  0  0  0
 38 32  1  0  0  0  0
 39 33  1  0  0  0  0
 40 34  1  0  0  0  0
M  END
>  <minimizedAffinity>
-6.26054525

$$$$

 OpenBabel03242516303D

 40 44  0  0  0  0  0  0  0  0999 V2000
   35.4180   28.9430   40.6180 S   0  0  0  0  0  0  0  0  0  0  0  0
   36.6930   30.0790   40.8350 C   0  0  0  0  0  0  0  0  0  0  0  0
   36.6080   31.3560   40.3470 N   0  0  0  0  0  0  0  0  0  0  0  0
   37.5770   32.2570   40.4560 C   0  0  0  0  0  0  0  0  0  0  0  0
   38.6960   31.8820   41.0830 N   0  0  0  0  0  0  0  0  0  0  0  0
   38.8650   30.6490   41.5930 C   0  0  0  0  0  0  0  0  0  0  0  0
   40.0320   30.2780   42.2390 C   0  0  0  0  0  0  0  0  0  0  0  0
   40.1760   29.0110   42.7510 C   0  0  0  0  0  0  0  0  0  0  0  0
   39.1660   28.1070   42.6280 C   0  0  0  0  0  0  0  0  0  0  0  0
   37.9780   28.4450   41.9850 C   0  0  0  0  0  0  0  0  0  0  0  0
   37.8410   29.7020   41.4770 C   0  0  0  0  0  0  0  0  0  0  0  0
   37.4690   33.2470   40.0600 H   0  0  0  0  0  0  0  0  0  0  0  0
   40.7750   31.0460   42.2930 H   0  0  0  0  0  0  0  0  0  0  0  0
   41.1220   28.8460   43.2260 H   0  0  0  0  0  0  0  0  0  0  0  0
   39.4300   27.1650   43.0850 H   0  0  0  0  0  0  0  0  0  0  0  0
   36.9450   27.3990   41.9290 C   0  0  0  0  0  0  0  0  0  0  0  0
   36.4110   27.3640   40.9520 H   0  0  0  0  0  0  0  0  0  0  0  0
   36.3670   27.2320   42.8310 H   0  0  0  0  0  0  0  0  0  0  0  0
   37.6010   26.0030   41.7950 C   0  0  0  0  0  3  0  0  0  0  0  0
   36.9590   25.1380   40.7210 C   0  0  0  0  0  2  0  0  0  0  0  0
   36.9310   24.7710   42.1710 C   0  0  0  0  0  2  0  0  0  0  0  0
   32.8830   29.2680   37.5430 C   0  0  0  0  0  0  0  0  0  0  0  0
   33.4460   29.2740   38.8090 C   0  0  0  0  0  0  0  0  0  0  0  0
   34.7720   28.9470   38.9890 C   0  0  0  0  0  0  0  0  0  0  0  0
   35.5620   28.6090   37.9150 C   0  0  0  0  0  0  0  0  0  0  0  0
   35.0490   28.5920   36.6550 C   0  0  0  0  0  0  0  0  0  0  0  0
   33.7250   28.9200   36.4880 C   0  0  0  0  0  0  0  0  0  0  0  0
   32.8000   29.5430   39.6350 H   0  0  0  0  0  0  0  0  0  0  0  0
   36.6020   28.3640   38.1270 H   0  0  0  0  0  0  0  0  0  0  0  0
   35.6870   28.3250   35.8230 H   0  0  0  0  0  0  0  0  0  0  0  0
   33.2800   28.9170   35.5020 H   0  0  0  0  0  0  0  0  0  0  0  0
   29.6940   29.8010   35.8470 C   0  0  0  0  0  0  0  0  0  0  0  0
   28.8390   30.2420   36.8980 C   0  0  0  0  0  0  0  0  0  0  0  0
   29.3710   30.3510   38.1730 C   0  0  0  0  0  0  0  0  0  0  0  0
   30.6830   30.0390   38.4060 N   0  0  0  0  0  0  0  0  0  0  0  0
   31.4710   29.6170   37.3590 C   0  0  0  0  0  0  0  0  0  0  0  0
   30.9800   29.5010   36.0990 N   0  0  0  0  0  0  0  0  0  0  0  0
   29.3310   29.6990   34.8330 H   0  0  0  0  0  0  0  0  0  0  0  0
   27.8330   30.4650   36.6370 H   0  0  0  0  0  0  0  0  0  0  0  0
   28.7340   30.6840   38.9810 H   0  0  0  0  0  0  0  0  0  0  0  0
  1  2  1  0  0  0  0
  2 11  1  0  0  0  0
  3  4  1  0  0  0  0
  3  2  2  0  0  0  0
  4  5  2  0  0  0  0
  5  6  1  0  0  0  0
  6  7  1  0  0  0  0
  7 13  1  0  0  0  0
  7  8  2  0  0  0  0
  8 14  1  0  0  0  0
  9  8  1  0  0  0  0
  9 15  1  0  0  0  0
 10  9  2  0  0  0  0
 11  6  2  0  0  0  0
 11 10  1  0  0  0  0
 12  4  1  0  0  0  0
 16 10  1  0  0  0  0
 16 18  1  0  0  0  0
 17 16  1  0  0  0  0
 19 16  1  0  0  0  0
 19 21  1  0  0  0  0
 20 19  1  0  0  0  0
 20 21  1  0  0  0  0
 22 23  1  0  0  0  0
 23 24  2  0  0  0  0
 23 28  1  0  0  0  0
 24  1  1  0  0  0  0
 25 29  1  0  0  0  0
 25 24  1  0  0  0  0
 26 25  2  0  0  0  0
 27 26  1  0  0  0  0
 27 22  2  0  0  0  0
 30 26  1  0  0  0  0
 31 27  1  0  0  0  0
 32 37  2  0  0  0  0
 32 33  1  0  0  0  0
 33 34  2  0  0  0  0
 34 35  1  0  0  0  0
 34 40  1  0  0  0  0
 36 22  1  0  0  0  0
 36 35  2  0  0  0  0
 37 36  1  0  0  0  0
 38 32  1  0  0  0  0
 39 33  1  0  0  0  0
M  END
>  <minimizedAffinity>
-6.04628897

$$$$

 OpenBabel03242516303D

 40 44  0  0  0  0  0  0  0  0999 V2000
   36.1790   30.2880   40.8910 S   0  0  0  0  0  0  0  0  0  0  0  0
   36.7660   28.8940   41.7120 C   0  0  0  0  0  0  0  0  0  0  0  0
   37.2400   28.9610   42.9950 N   0  0  0  0  0  0  0  0  0  0  0  0
   37.7360   27.9240   43.6580 C   0  0  0  0  0  0  0  0  0  0  0  0
   37.7680   26.7490   43.0230 N   0  0  0  0  0  0  0  0  0  0  0  0
   37.3240   26.5910   41.7640 C   0  0  0  0  0  0  0  0  0  0  0  0
   37.3660   25.3650   41.1220 C   0  0  0  0  0  0  0  0  0  0  0  0
   36.9040   25.2340   39.8340 C   0  0  0  0  0  0  0  0  0  0  0  0
   36.3970   26.3130   39.1780 C   0  0  0  0  0  0  0  0  0  0  0  0
   36.3390   27.5610   39.7920 C   0  0  0  0  0  0  0  0  0  0  0  0
   36.8010   27.6870   41.0680 C   0  0  0  0  0  0  0  0  0  0  0  0
   38.0970   28.0210   44.6630 H   0  0  0  0  0  0  0  0  0  0  0  0
   37.7780   24.5690   41.7060 H   0  0  0  0  0  0  0  0  0  0  0  0
   36.9900   24.2380   39.4470 H   0  0  0  0  0  0  0  0  0  0  0  0
   36.0730   26.0450   38.1830 H   0  0  0  0  0  0  0  0  0  0  0  0
   35.7520   28.6530   39.0000 C   0  0  0  0  0  0  0  0  0  0  0  0
   36.1390   29.6570   39.2860 H   0  0  0  0  0  0  0  0  0  0  0  0
   34.7010   28.5660   38.7480 H   0  0  0  0  0  0  0  0  0  0  0  0
   36.3480   28.6600   37.5710 C   0  0  0  0  0  3  0  0  0  0  0  0
   36.8080   30.0370   37.1180 C   0  0  0  0  0  2  0  0  0  0  0  0
   35.6960   29.2990   36.4410 C   0  0  0  0  0  2  0  0  0  0  0  0
   39.6630   32.2450   41.0430 C   0  0  0  0  0  0  0  0  0  0  0  0
   38.6560   31.3070   41.2060 C   0  0  0  0  0  0  0  0  0  0  0  0
   37.4220   31.4950   40.6230 C   0  0  0  0  0  0  0  0  0  0  0  0
   37.1660   32.6160   39.8680 C   0  0  0  0  0  0  0  0  0  0  0  0
   38.1280   33.5610   39.6830 C   0  0  0  0  0  0  0  0  0  0  0  0
   39.3550   33.3630   40.2690 C   0  0  0  0  0  0  0  0  0  0  0  0
   38.8860   30.4360   41.8050 H   0  0  0  0  0  0  0  0  0  0  0  0
   36.1710   32.7010   39.4340 H   0  0  0  0  0  0  0  0  0  0  0  0
   37.9090   34.4350   39.0850 H   0  0  0  0  0  0  0  0  0  0  0  0
   40.1450   34.0910   40.1460 H   0  0  0  0  0  0  0  0  0  0  0  0
   43.2290   32.6650   41.7050 C   0  0  0  0  0  0  0  0  0  0  0  0
   43.4730   31.7380   42.7590 C   0  0  0  0  0  0  0  0  0  0  0  0
   42.4090   30.9810   43.2260 C   0  0  0  0  0  0  0  0  0  0  0  0
   41.1620   31.1300   42.6830 N   0  0  0  0  0  0  0  0  0  0  0  0
   40.9740   32.0390   41.6660 C   0  0  0  0  0  0  0  0  0  0  0  0
   41.9950   32.7930   41.1860 N   0  0  0  0  0  0  0  0  0  0  0  0
   44.0230   33.2800   41.3020 H   0  0  0  0  0  0  0  0  0  0  0  0
   44.4680   31.6800   43.1280 H   0  0  0  0  0  0  0  0  0  0  0  0
   42.5790   30.2740   44.0260 H   0  0  0  0  0  0  0  0  0  0  0  0
  1  2  1  0  0  0  0
  2  3  1  0  0  0  0
  3  4  2  0  0  0  0
  4 12  1  0  0  0  0
  5  4  1  0  0  0  0
  6  5  2  0  0  0  0
  7 13  1  0  0  0  0
  7  6  1  0  0  0  0
  8  7  2  0  0  0  0
  9 10  2  0  0  0  0
  9  8  1  0  0  0  0
 10 11  1  0  0  0  0
 11  2  2  0  0  0  0
 11  6  1  0  0  0  0
 14  8  1  0  0  0  0
 15  9  1  0  0  0  0
 16 17  1  0  0  0  0
 16 10  1  0  0  0  0
 18 16  1  0  0  0  0
 19 16  1  0  0  0  0
 20 19  1  0  0  0  0
 21 20  1  0  0  0  0
 21 19  1  0  0  0  0
 22 23  1  0  0  0  0
 22 36  1  0  0  0  0
 23 28  1  0  0  0  0
 24  1  1  0  0  0  0
 24 23  2  0  0  0  0
 25 24  1  0  0  0  0
 26 25  2  0  0  0  0
 26 27  1  0  0  0  0
 27 22  2  0  0  0  0
 29 25  1  0  0  0  0
 30 26  1  0  0  0  0
 31 27  1  0  0  0  0
 32 33  1  0  0  0  0
 33 39  1  0  0  0  0
 33 34  2  0  0  0  0
 34 40  1  0  0  0  0
 35 34  1  0  0  0  0
 36 35  2  0  0  0  0
 37 36  1  0  0  0  0
 37 32  2  0  0  0  0
 38 32  1  0  0  0  0
M  END
>  <minimizedAffinity>
-6.03125334

$$$$

 OpenBabel03242516303D

 40 44  0  0  0  0  0  0  0  0999 V2000
   37.1190   30.8820   40.5800 S   0  0  0  0  0  0  0  0  0  0  0  0
   36.9630   29.9860   39.1180 C   0  0  0  0  0  0  0  0  0  0  0  0
   36.9420   30.6030   37.8950 N   0  0  0  0  0  0  0  0  0  0  0  0
   36.7870   29.9620   36.7440 C   0  0  0  0  0  0  0  0  0  0  0  0
   36.6460   28.6340   36.7950 N   0  0  0  0  0  0  0  0  0  0  0  0
   36.6560   27.9460   37.9510 C   0  0  0  0  0  0  0  0  0  0  0  0
   36.5080   26.5700   37.9850 C   0  0  0  0  0  0  0  0  0  0  0  0
   36.5230   25.8940   39.1810 C   0  0  0  0  0  0  0  0  0  0  0  0
   36.6860   26.5760   40.3480 C   0  0  0  0  0  0  0  0  0  0  0  0
   36.8380   27.9590   40.3520 C   0  0  0  0  0  0  0  0  0  0  0  0
   36.8200   28.6260   39.1640 C   0  0  0  0  0  0  0  0  0  0  0  0
   36.7760   30.4840   35.8080 H   0  0  0  0  0  0  0  0  0  0  0  0
   36.3860   26.1100   37.0270 H   0  0  0  0  0  0  0  0  0  0  0  0
   36.3990   24.8340   39.0770 H   0  0  0  0  0  0  0  0  0  0  0  0
   36.6810   25.9040   41.1940 H   0  0  0  0  0  0  0  0  0  0  0  0
   37.0290   28.5920   41.6670 C   0  0  0  0  0  0  0  0  0  0  0  0
   36.0970   29.0450   42.0740 H   0  0  0  0  0  0  0  0  0  0  0  0
   37.9630   29.1200   41.8250 H   0  0  0  0  0  0  0  0  0  0  0  0
   37.1680   27.5110   42.7670 C   0  0  0  0  0  3  0  0  0  0  0  0
   37.0650   28.0730   44.1770 C   0  0  0  0  0  2  0  0  0  0  0  0
   38.3120   27.4280   43.6580 C   0  0  0  0  0  2  0  0  0  0  0  0
   40.2890   33.3190   40.5440 C   0  0  0  0  0  0  0  0  0  0  0  0
   39.4650   32.2100   40.6500 C   0  0  0  0  0  0  0  0  0  0  0  0
   38.1140   32.3130   40.3990 C   0  0  0  0  0  0  0  0  0  0  0  0
   37.5590   33.5180   40.0360 C   0  0  0  0  0  0  0  0  0  0  0  0
   38.3340   34.6310   39.9190 C   0  0  0  0  0  0  0  0  0  0  0  0
   39.6790   34.5160   40.1730 C   0  0  0  0  0  0  0  0  0  0  0  0
   39.9290   31.2760   40.9380 H   0  0  0  0  0  0  0  0  0  0  0  0
   36.4860   33.5290   39.8500 H   0  0  0  0  0  0  0  0  0  0  0  0
   37.8790   35.5690   39.6320 H   0  0  0  0  0  0  0  0  0  0  0  0
   40.3270   35.3780   40.0920 H   0  0  0  0  0  0  0  0  0  0  0  0
   43.8750   33.9520   40.2670 C   0  0  0  0  0  0  0  0  0  0  0  0
   44.4340   33.0680   41.2350 C   0  0  0  0  0  0  0  0  0  0  0  0
   43.5710   32.2670   41.9670 C   0  0  0  0  0  0  0  0  0  0  0  0
   42.2200   32.3320   41.7590 N   0  0  0  0  0  0  0  0  0  0  0  0
   41.7260   33.2020   40.8140 C   0  0  0  0  0  0  0  0  0  0  0  0
   42.5430   33.9980   40.0800 N   0  0  0  0  0  0  0  0  0  0  0  0
   44.5010   34.5980   39.6680 H   0  0  0  0  0  0  0  0  0  0  0  0
   45.4920   33.0750   41.3370 H   0  0  0  0  0  0  0  0  0  0  0  0
   43.9820   31.5920   42.7050 H   0  0  0  0  0  0  0  0  0  0  0  0
  2 11  1  0  0  0  0
  2  1  1  0  0  0  0
  3  2  2  0  0  0  0
  4  5  2  0  0  0  0
  4  3  1  0  0  0  0
  5  6  1  0  0  0  0
  6  7  2  0  0  0  0
  6 11  1  0  0  0  0
  7  8  1  0  0  0  0
  8  9  2  0  0  0  0
  9 10  1  0  0  0  0
  9 15  1  0  0  0  0
 10 16  1  0  0  0  0
 11 10  2  0  0  0  0
 12  4  1  0  0  0  0
 13  7  1  0  0  0  0
 14  8  1  0  0  0  0
 16 18  1  0  0  0  0
 16 17  1  0  0  0  0
 16 19  1  0  0  0  0
 19 21  1  0  0  0  0
 19 20  1  0  0  0  0
 21 20  1  0  0  0  0
 22 23  1  0  0  0  0
 22 36  1  0  0  0  0
 23 28  1  0  0  0  0
 24  1  1  0  0  0  0
 24 23  2  0  0  0  0
 25 24  1  0  0  0  0
 26 25  2  0  0  0  0
 26 27  1  0  0  0  0
 27 22  2  0  0  0  0
 29 25  1  0  0  0  0
 30 26  1  0  0  0  0
 31 27  1  0  0  0  0
 32 33  1  0  0  0  0
 33 39  1  0  0  0  0
 33 34  2  0  0  0  0
 34 40  1  0  0  0  0
 35 34  1  0  0  0  0
 36 35  2  0  0  0  0
 37 32  2  0  0  0  0
 37 36  1  0  0  0  0
 38 32  1  0  0  0  0
M  END
>  <minimizedAffinity>
-6.01656532

$$$$

 OpenBabel03242516303D

 40 44  0  0  0  0  0  0  0  0999 V2000
   36.1670   27.8160   38.2520 S   0  0  0  0  0  0  0  0  0  0  0  0
   36.4120   28.8440   39.6110 C   0  0  0  0  0  0  0  0  0  0  0  0
   36.2950   30.2060   39.5130 N   0  0  0  0  0  0  0  0  0  0  0  0
   36.5100   31.0420   40.5200 C   0  0  0  0  0  0  0  0  0  0  0  0
   36.8590   30.5110   41.6960 N   0  0  0  0  0  0  0  0  0  0  0  0
   36.9970   29.1870   41.8820 C   0  0  0  0  0  0  0  0  0  0  0  0
   37.3600   28.6540   43.1080 C   0  0  0  0  0  0  0  0  0  0  0  0
   37.4910   27.2950   43.2680 C   0  0  0  0  0  0  0  0  0  0  0  0
   37.2630   26.4590   42.2190 C   0  0  0  0  0  0  0  0  0  0  0  0
   36.8960   26.9580   40.9730 C   0  0  0  0  0  0  0  0  0  0  0  0
   36.7690   28.3060   40.8180 C   0  0  0  0  0  0  0  0  0  0  0  0
   36.4070   32.1030   40.4000 H   0  0  0  0  0  0  0  0  0  0  0  0
   37.5210   29.3770   43.8790 H   0  0  0  0  0  0  0  0  0  0  0  0
   37.7770   27.0070   44.2600 H   0  0  0  0  0  0  0  0  0  0  0  0
   37.4020   25.4270   42.5080 H   0  0  0  0  0  0  0  0  0  0  0  0
   36.6510   25.9650   39.9160 C   0  0  0  0  0  0  0  0  0  0  0  0
   37.5570   25.7420   39.3080 H   0  0  0  0  0  0  0  0  0  0  0  0
   35.6970   26.0160   39.4060 H   0  0  0  0  0  0  0  0  0  0  0  0
   36.5260   24.5480   40.5300 C   0  0  0  0  0  3  0  0  0  0  0  0
   37.2520   23.4790   39.7280 C   0  0  0  0  0  2  0  0  0  0  0  0
   35.7670   23.4780   39.9080 C   0  0  0  0  0  2  0  0  0  0  0  0
   32.7450   29.1050   36.6330 C   0  0  0  0  0  0  0  0  0  0  0  0
   33.7010   28.6180   37.5100 C   0  0  0  0  0  0  0  0  0  0  0  0
   35.0100   28.4650   37.1070 C   0  0  0  0  0  0  0  0  0  0  0  0
   35.3920   28.7950   35.8270 C   0  0  0  0  0  0  0  0  0  0  0  0
   34.4840   29.2770   34.9350 C   0  0  0  0  0  0  0  0  0  0  0  0
   33.1820   29.4240   35.3480 C   0  0  0  0  0  0  0  0  0  0  0  0
   33.3720   28.3670   38.5090 H   0  0  0  0  0  0  0  0  0  0  0  0
   36.4410   28.6520   35.5750 H   0  0  0  0  0  0  0  0  0  0  0  0
   34.8040   29.5310   33.9340 H   0  0  0  0  0  0  0  0  0  0  0  0
   32.4310   29.8040   34.6680 H   0  0  0  0  0  0  0  0  0  0  0  0
   29.9110   30.1590   38.6800 C   0  0  0  0  0  0  0  0  0  0  0  0
   28.7910   29.6270   37.9780 C   0  0  0  0  0  0  0  0  0  0  0  0
   29.0260   28.9130   36.8130 C   0  0  0  0  0  0  0  0  0  0  0  0
   30.3030   28.7320   36.3570 N   0  0  0  0  0  0  0  0  0  0  0  0
   31.3540   29.2650   37.0680 C   0  0  0  0  0  0  0  0  0  0  0  0
   31.1580   29.9670   38.2130 N   0  0  0  0  0  0  0  0  0  0  0  0
   29.7850   30.7230   39.5940 H   0  0  0  0  0  0  0  0  0  0  0  0
   27.8310   29.8100   38.3960 H   0  0  0  0  0  0  0  0  0  0  0  0
   28.1850   28.5040   36.2700 H   0  0  0  0  0  0  0  0  0  0  0  0
  1  2  1  0  0  0  0
  2 11  1  0  0  0  0
  3  2  2  0  0  0  0
  3  4  1  0  0  0  0
  4  5  2  0  0  0  0
  5  6  1  0  0  0  0
  6  7  1  0  0  0  0
  7  8  2  0  0  0  0
  7 13  1  0  0  0  0
  8 14  1  0  0  0  0
  9 15  1  0  0  0  0
  9  8  1  0  0  0  0
 10  9  2  0  0  0  0
 11 10  1  0  0  0  0
 11  6  2  0  0  0  0
 12  4  1  0  0  0  0
 16 19  1  0  0  0  0
 16 10  1  0  0  0  0
 17 16  1  0  0  0  0
 18 16  1  0  0  0  0
 20 21  1  0  0  0  0
 20 19  1  0  0  0  0
 21 19  1  0  0  0  0
 22 36  1  0  0  0  0
 22 23  1  0  0  0  0
 23 28  1  0  0  0  0
 24 23  2  0  0  0  0
 24  1  1  0  0  0  0
 25 24  1  0  0  0  0
 26 27  1  0  0  0  0
 26 25  2  0  0  0  0
 27 22  2  0  0  0  0
 29 25  1  0  0  0  0
 30 26  1  0  0  0  0
 31 27  1  0  0  0  0
 32 38  1  0  0  0  0
 33 39  1  0  0  0  0
 33 32  2  0  0  0  0
 34 33  1  0  0  0  0
 35 34  2  0  0  0  0
 35 36  1  0  0  0  0
 36 37  2  0  0  0  0
 37 32  1  0  0  0  0
 40 34  1  0  0  0  0
M  END
>  <minimizedAffinity>
-6.00391912

$$$$

 OpenBabel03242516303D

 40 44  0  0  0  0  0  0  0  0999 V2000
   37.8660   29.0630   39.3160 S   0  0  0  0  0  0  0  0  0  0  0  0
   37.8120   28.2400   40.8260 C   0  0  0  0  0  0  0  0  0  0  0  0
   38.2170   28.8410   41.9880 N   0  0  0  0  0  0  0  0  0  0  0  0
   38.2290   28.2380   43.1700 C   0  0  0  0  0  0  0  0  0  0  0  0
   37.8170   26.9670   43.2150 N   0  0  0  0  0  0  0  0  0  0  0  0
   37.4020   26.2990   42.1240 C   0  0  0  0  0  0  0  0  0  0  0  0
   36.9790   24.9820   42.1900 C   0  0  0  0  0  0  0  0  0  0  0  0
   36.5590   24.3260   41.0580 C   0  0  0  0  0  0  0  0  0  0  0  0
   36.5540   24.9690   39.8580 C   0  0  0  0  0  0  0  0  0  0  0  0
   36.9720   26.2920   39.7550 C   0  0  0  0  0  0  0  0  0  0  0  0
   37.3900   26.9390   40.8790 C   0  0  0  0  0  0  0  0  0  0  0  0
   38.5540   28.7460   44.0560 H   0  0  0  0  0  0  0  0  0  0  0  0
   37.0130   24.5510   43.1670 H   0  0  0  0  0  0  0  0  0  0  0  0
   36.2570   23.3130   41.2370 H   0  0  0  0  0  0  0  0  0  0  0  0
   36.1930   24.3210   39.0720 H   0  0  0  0  0  0  0  0  0  0  0  0
   36.9040   26.8960   38.4150 C   0  0  0  0  0  0  0  0  0  0  0  0
   37.4050   26.2820   37.6330 H   0  0  0  0  0  0  0  0  0  0  0  0
   37.0050   27.9740   38.3570 H   0  0  0  0  0  0  0  0  0  0  0  0
   35.4770   26.7520   37.8320 C   0  0  0  0  0  3  0  0  0  0  0  0
   35.2590   27.5640   36.5650 C   0  0  0  0  0  2  0  0  0  0  0  0
   34.5060   27.8320   37.8300 C   0  0  0  0  0  2  0  0  0  0  0  0
   39.6760   32.6290   39.3340 C   0  0  0  0  0  0  0  0  0  0  0  0
   39.3980   31.2790   39.1910 C   0  0  0  0  0  0  0  0  0  0  0  0
   38.1470   30.7850   39.4880 C   0  0  0  0  0  0  0  0  0  0  0  0
   37.1490   31.6220   39.9310 C   0  0  0  0  0  0  0  0  0  0  0  0
   37.3800   32.9550   40.0840 C   0  0  0  0  0  0  0  0  0  0  0  0
   38.6320   33.4360   39.7860 C   0  0  0  0  0  0  0  0  0  0  0  0
   40.2020   30.6450   38.8420 H   0  0  0  0  0  0  0  0  0  0  0  0
   36.1840   31.1670   40.1450 H   0  0  0  0  0  0  0  0  0  0  0  0
   36.5830   33.5970   40.4320 H   0  0  0  0  0  0  0  0  0  0  0  0
   38.8550   34.4880   39.8960 H   0  0  0  0  0  0  0  0  0  0  0  0
   42.5350   33.6890   37.3260 C   0  0  0  0  0  0  0  0  0  0  0  0
   43.4810   34.1060   38.3060 C   0  0  0  0  0  0  0  0  0  0  0  0
   43.1230   34.0160   39.6420 C   0  0  0  0  0  0  0  0  0  0  0  0
   41.8910   33.5390   40.0000 N   0  0  0  0  0  0  0  0  0  0  0  0
   41.0100   33.1480   39.0170 C   0  0  0  0  0  0  0  0  0  0  0  0
   41.3300   33.2230   37.7010 N   0  0  0  0  0  0  0  0  0  0  0  0
   42.7620   33.7370   36.2690 H   0  0  0  0  0  0  0  0  0  0  0  0
   44.4160   34.4640   37.9500 H   0  0  0  0  0  0  0  0  0  0  0  0
   43.8310   34.3300   40.3970 H   0  0  0  0  0  0  0  0  0  0  0  0
  1 24  1  0  0  0  0
  1  2  1  0  0  0  0
  2 11  2  0  0  0  0
  2  3  1  0  0  0  0
  3  4  2  0  0  0  0
  4  5  1  0  0  0  0
  4 12  1  0  0  0  0
  6  7  1  0  0  0  0
  6  5  2  0  0  0  0
  7 13  1  0  0  0  0
  8 14  1  0  0  0  0
  8  7  2  0  0  0  0
  9  8  1  0  0  0  0
 10  9  2  0  0  0  0
 10 11  1  0  0  0  0
 11  6  1  0  0  0  0
 15  9  1  0  0  0  0
 16 10  1  0  0  0  0
 17 16  1  0  0  0  0
 18 16  1  0  0  0  0
 19 16  1  0  0  0  0
 20 21  1  0  0  0  0
 20 19  1  0  0  0  0
 21 19  1  0  0  0  0
 22 27  1  0  0  0  0
 23 22  2  0  0  0  0
 23 24  1  0  0  0  0
 24 25  2  0  0  0  0
 25 26  1  0  0  0  0
 25 29  1  0  0  0  0
 26 30  1  0  0  0  0
 27 31  1  0  0  0  0
 27 26  2  0  0  0  0
 28 23  1  0  0  0  0
 32 37  2  0  0  0  0
 32 33  1  0  0  0  0
 33 34  2  0  0  0  0
 34 35  1  0  0  0  0
 34 40  1  0  0  0  0
 36 22  1  0  0  0  0
 36 35  2  0  0  0  0
 37 36  1  0  0  0  0
 38 32  1  0  0  0  0
 39 33  1  0  0  0  0
M  END
>  <minimizedAffinity>
-5.98564959

$$$$

 OpenBabel03242516303D

 40 44  0  0  0  0  0  0  0  0999 V2000
   38.4500   27.5740   38.7930 S   0  0  0  0  0  0  0  0  0  0  0  0
   39.4550   27.5490   40.1900 C   0  0  0  0  0  0  0  0  0  0  0  0
   40.8220   27.5340   40.0930 N   0  0  0  0  0  0  0  0  0  0  0  0
   41.6380   27.4770   41.1370 C   0  0  0  0  0  0  0  0  0  0  0  0
   41.0810   27.4350   42.3510 N   0  0  0  0  0  0  0  0  0  0  0  0
   39.7490   27.4470   42.5400 C   0  0  0  0  0  0  0  0  0  0  0  0
   39.1890   27.4030   43.8060 C   0  0  0  0  0  0  0  0  0  0  0  0
   37.8250   27.4170   43.9670 C   0  0  0  0  0  0  0  0  0  0  0  0
   37.0090   27.4780   42.8790 C   0  0  0  0  0  0  0  0  0  0  0  0
   37.5370   27.5240   41.5920 C   0  0  0  0  0  0  0  0  0  0  0  0
   38.8900   27.5070   41.4360 C   0  0  0  0  0  0  0  0  0  0  0  0
   42.7030   27.4670   41.0170 H   0  0  0  0  0  0  0  0  0  0  0  0
   39.8970   27.3570   44.6050 H   0  0  0  0  0  0  0  0  0  0  0  0
   37.5140   27.3780   44.9920 H   0  0  0  0  0  0  0  0  0  0  0  0
   35.9700   27.4880   43.1730 H   0  0  0  0  0  0  0  0  0  0  0  0
   36.5660   27.6110   40.4900 C   0  0  0  0  0  0  0  0  0  0  0  0
   35.8940   26.7260   40.4290 H   0  0  0  0  0  0  0  0  0  0  0  0
   36.9150   28.0490   39.5620 H   0  0  0  0  0  0  0  0  0  0  0  0
   35.4500   28.6270   40.8370 C   0  0  0  0  0  3  0  0  0  0  0  0
   34.7050   29.1430   39.6150 C   0  0  0  0  0  2  0  0  0  0  0  0
   35.5240   30.0360   40.4930 C   0  0  0  0  0  2  0  0  0  0  0  0
   38.5310   31.5550   38.4220 C   0  0  0  0  0  0  0  0  0  0  0  0
   38.7480   30.2540   38.8470 C   0  0  0  0  0  0  0  0  0  0  0  0
   38.1610   29.1940   38.1910 C   0  0  0  0  0  0  0  0  0  0  0  0
   37.3490   29.4080   37.1010 C   0  0  0  0  0  0  0  0  0  0  0  0
   37.1090   30.6700   36.6520 C   0  0  0  0  0  0  0  0  0  0  0  0
   37.7000   31.7190   37.3150 C   0  0  0  0  0  0  0  0  0  0  0  0
   39.3910   30.1160   39.7060 H   0  0  0  0  0  0  0  0  0  0  0  0
   36.9180   28.5270   36.6280 H   0  0  0  0  0  0  0  0  0  0  0  0
   36.4690   30.8180   35.7930 H   0  0  0  0  0  0  0  0  0  0  0  0
   37.5340   32.7370   36.9880 H   0  0  0  0  0  0  0  0  0  0  0  0
   38.8240   34.5490   40.4920 C   0  0  0  0  0  0  0  0  0  0  0  0
   40.2240   34.8120   40.4820 C   0  0  0  0  0  0  0  0  0  0  0  0
   41.0460   33.9580   39.7640 C   0  0  0  0  0  0  0  0  0  0  0  0
   40.5180   32.8920   39.0870 N   0  0  0  0  0  0  0  0  0  0  0  0
   39.1590   32.6780   39.1260 C   0  0  0  0  0  0  0  0  0  0  0  0
   38.3270   33.4960   39.8190 N   0  0  0  0  0  0  0  0  0  0  0  0
   38.1370   35.1830   41.0360 H   0  0  0  0  0  0  0  0  0  0  0  0
   40.5580   35.6580   41.0320 H   0  0  0  0  0  0  0  0  0  0  0  0
   42.1110   34.1450   39.7480 H   0  0  0  0  0  0  0  0  0  0  0  0
  1  2  1  0  0  0  0
  2 11  1  0  0  0  0
  3  2  2  0  0  0  0
  3  4  1  0  0  0  0
  4  5  2  0  0  0  0
  5  6  1  0  0  0  0
  6  7  1  0  0  0  0
  7  8  2  0  0  0  0
  7 13  1  0  0  0  0
  8 14  1  0  0  0  0
  9 15  1  0  0  0  0
  9  8  1  0  0  0  0
 10  9  2  0  0  0  0
 11 10  1  0  0  0  0
 11  6  2  0  0  0  0
 12  4  1  0  0  0  0
 16 19  1  0  0  0  0
 16 10  1  0  0  0  0
 17 16  1  0  0  0  0
 18 16  1  0  0  0  0
 20 21  1  0  0  0  0
 20 19  1  0  0  0  0
 21 19  1  0  0  0  0
 22 23  1  0  0  0  0
 22 36  1  0  0  0  0
 23 28  1  0  0  0  0
 24  1  1  0  0  0  0
 24 23  2  0  0  0  0
 25 24  1  0  0  0  0
 26 25  2  0  0  0  0
 26 27  1  0  0  0  0
 27 22  2  0  0  0  0
 29 25  1  0  0  0  0
 30 26  1  0  0  0  0
 31 27  1  0  0  0  0
 32 38  1  0  0  0  0
 33 32  1  0  0  0  0
 33 39  1  0  0  0  0
 34 33  2  0  0  0  0
 35 36  2  0  0  0  0
 35 34  1  0  0  0  0
 36 37  1  0  0  0  0
 37 32  2  0  0  0  0
 40 34  1  0  0  0  0
M  END
>  <minimizedAffinity>
-5.93770266

$$$$
