
 OpenBabel03252508153D

 31 34  0  0  1  0  0  0  0  0999 V2000
   47.2260   31.2030   46.7300 C   0  0  0  0  0  0  0  0  0  0  0  0
   46.6190   30.2920   46.5470 H   0  0  0  0  0  0  0  0  0  0  0  0
   48.3010   31.0260   46.6740 H   0  0  0  0  0  0  0  0  0  0  0  0
   46.8290   31.7360   48.0870 C   0  0  1  0  0  0  0  0  0  0  0  0
   46.2330   30.7520   49.0310 C   0  0  0  0  0  0  0  0  0  0  0  0
   47.5600   31.2740   49.2910 C   0  0  1  0  0  0  0  0  0  0  0  0
   46.4720   32.7860   48.1250 H   0  0  0  0  0  0  0  0  0  0  0  0
   46.1070   29.7010   48.6920 H   0  0  0  0  0  0  0  0  0  0  0  0
   45.3580   31.0930   49.6450 H   0  0  0  0  0  0  0  0  0  0  0  0
   47.6150   32.0030   50.1590 H   0  0  0  0  0  0  0  0  0  0  0  0
   48.8270   30.5320   49.0960 C   0  0  0  0  0  0  0  0  0  0  0  0
   49.6260   30.2770   50.4000 C   0  0  0  0  0  0  0  0  0  0  0  0
   50.1230   31.2830   49.4370 C   0  0  0  0  0  0  0  0  0  0  0  0
   48.9020   29.7490   48.3140 H   0  0  0  0  0  0  0  0  0  0  0  0
   49.1280   30.5290   51.3450 H   0  0  0  0  0  0  0  0  0  0  0  0
   50.1670   29.2970   50.4070 H   0  0  0  0  0  0  0  0  0  0  0  0
   49.9770   32.3450   49.7830 H   0  0  0  0  0  0  0  0  0  0  0  0
   51.0050   31.0450   48.8300 H   0  0  0  0  0  0  0  0  0  0  0  0
   45.9860   33.0970   46.0290 C   0  0  0  0  0  3  0  0  0  0  0  0
   46.7850   32.1780   45.6460 C   0  0  0  0  0  3  0  0  0  0  0  0
   44.4210   36.0580   44.4980 C   0  0  0  0  0  0  0  0  0  0  0  0
   44.5700   35.8320   43.1360 C   0  0  0  0  0  0  0  0  0  0  0  0
   45.2200   34.6650   42.7720 C   0  0  0  0  0  0  0  0  0  0  0  0
   45.6540   33.8410   43.7340 N   0  0  0  0  0  0  0  0  0  0  0  0
   45.5060   34.0640   45.0470 C   0  0  0  0  0  0  0  0  0  0  0  0
   44.8860   35.1800   45.4020 N   0  0  0  0  0  0  0  0  0  0  0  0
   43.9150   36.9670   44.7940 H   0  0  0  0  0  0  0  0  0  0  0  0
   44.2140   36.5070   42.3900 H   0  0  0  0  0  0  0  0  0  0  0  0
   45.4200   34.3540   41.3130 C   0  0  0  0  0  3  0  0  0  0  0  0
   44.8220   32.9670   40.9280 C   0  0  0  0  0  2  0  0  0  0  0  0
   44.2850   34.2790   40.3920 C   0  0  0  0  0  2  0  0  0  0  0  0
  1  4  1  0  0  0  0
  2  1  1  0  0  0  0
  3  1  1  0  0  0  0
  4  7  1  1  0  0  0
  4  5  1  0  0  0  0
  4  6  1  0  0  0  0
  5  6  1  0  0  0  0
  5  9  1  0  0  0  0
  6 10  1  1  0  0  0
  8  5  1  0  0  0  0
 11  6  1  0  0  0  0
 11 13  1  0  0  0  0
 11 12  1  0  0  0  0
 12 16  1  0  0  0  0
 12 15  1  0  0  0  0
 13 17  1  0  0  0  0
 13 12  1  0  0  0  0
 14 11  1  0  0  0  0
 18 13  1  0  0  0  0
 20 19  2  0  0  0  0
 20  1  1  0  0  0  0
 21 27  1  0  0  0  0
 21 26  1  0  0  0  0
 22 21  2  0  0  0  0
 23 22  1  0  0  0  0
 23 24  2  0  0  0  0
 24 25  1  0  0  0  0
 25 26  2  0  0  0  0
 25 19  1  0  0  0  0
 28 22  1  0  0  0  0
 29 23  1  0  0  0  0
 30 29  1  0  0  0  0
 31 30  1  0  0  0  0
 31 29  1  0  0  0  0
M  END
>  <minimizedAffinity>
-4.74505424

>  <minimizedRMSD>
0.840908945

$$$$
