
 OpenBabel03242511093D

 37 41  0  0  1  0  0  0  0  0999 V2000
   45.9240   32.4740   42.7900 C   0  0  0  0  0  0  0  0  0  0  0  0
   46.5800   31.4340   43.4370 C   0  0  0  0  0  0  0  0  0  0  0  0
   46.7730   31.3950   44.8120 C   0  0  0  0  0  0  0  0  0  0  0  0
   46.3050   32.4180   45.6040 C   0  0  0  0  0  0  0  0  0  0  0  0
   45.6540   33.4570   44.9980 C   0  0  0  0  0  0  0  0  0  0  0  0
   45.1890   34.4850   45.7890 C   0  0  0  0  0  0  0  0  0  0  0  0
   44.5260   35.5720   45.2450 C   0  0  0  0  0  0  0  0  0  0  0  0
   44.3570   35.5680   43.8760 C   0  0  0  0  0  0  0  0  0  0  0  0
   44.8210   34.5380   43.0810 C   0  0  0  0  0  0  0  0  0  0  0  0
   45.4780   33.4660   43.6270 C   0  0  0  0  0  0  0  0  0  0  0  0
   46.9960   30.5580   42.9610 H   0  0  0  0  0  0  0  0  0  0  0  0
   47.2800   30.5960   45.3340 H   0  0  0  0  0  0  0  0  0  0  0  0
   46.4500   32.3990   46.6760 H   0  0  0  0  0  0  0  0  0  0  0  0
   45.3580   34.4200   46.8570 H   0  0  0  0  0  0  0  0  0  0  0  0
   44.2050   36.3190   45.9540 H   0  0  0  0  0  0  0  0  0  0  0  0
   43.8350   36.4780   43.5930 H   0  0  0  0  0  0  0  0  0  0  0  0
   44.5440   34.7030   41.6320 C   0  0  0  0  0  0  0  0  0  0  0  0
   43.2680   34.3820   40.9800 C   0  0  0  0  0  0  0  0  0  0  0  0
   43.4530   35.7790   41.3180 C   0  0  0  0  0  0  0  0  0  0  0  0
   45.7790   32.4160   41.4010 N   0  0  0  0  0  0  0  0  0  0  0  0
   44.8170   32.4350   40.9970 H   0  0  0  0  0  0  0  0  0  0  0  0
   48.1300   33.0520   40.6750 C   0  0  1  0  0  0  0  0  0  0  0  0
   47.1890   33.3980   39.5370 C   0  0  0  0  0  0  0  0  0  0  0  0
   46.9160   32.2760   40.5300 C   0  0  2  0  0  0  0  0  0  0  0  0
   48.2010   33.8870   41.4010 H   0  0  0  0  0  0  0  0  0  0  0  0
   46.5330   34.2730   39.6030 H   0  0  0  0  0  0  0  0  0  0  0  0
   47.5330   33.1150   38.5170 H   0  0  0  0  0  0  0  0  0  0  0  0
   47.0150   31.2470   40.0880 H   0  0  0  0  0  0  0  0  0  0  0  0
   50.8620   31.3960   38.7840 C   0  0  0  0  0  0  0  0  0  0  0  0
   51.8840   31.3190   39.7780 C   0  0  0  0  0  0  0  0  0  0  0  0
   51.6060   31.8460   41.0650 C   0  0  0  0  0  0  0  0  0  0  0  0
   50.4110   32.3930   41.3060 N   0  0  0  0  0  0  0  0  0  0  0  0
   49.4590   32.4530   40.3400 C   0  0  0  0  0  0  0  0  0  0  0  0
   49.6930   31.9560   39.0970 N   0  0  0  0  0  0  0  0  0  0  0  0
   51.0370   31.0040   37.7930 H   0  0  0  0  0  0  0  0  0  0  0  0
   52.8210   30.8690   39.5230 H   0  0  0  0  0  0  0  0  0  0  0  0
   52.3950   31.7840   41.8230 H   0  0  0  0  0  0  0  0  0  0  0  0
  1  2  2  0  0  0  0
  1 10  1  0  0  0  0
  2  3  1  0  0  0  0
  3 12  1  0  0  0  0
  3  4  2  0  0  0  0
  4 13  1  0  0  0  0
  5  4  1  0  0  0  0
  5  6  1  0  0  0  0
  6 14  1  0  0  0  0
  7  6  2  0  0  0  0
  7 15  1  0  0  0  0
  8  7  1  0  0  0  0
  9 10  1  0  0  0  0
  9  8  2  0  0  0  0
 10  5  2  0  0  0  0
 11  2  1  0  0  0  0
 16  8  1  0  0  0  0
 17  9  1  0  0  0  0
 18 19  1  0  0  0  0
 18 17  1  0  0  0  0
 19 17  1  0  0  0  0
 20  1  1  0  0  0  0
 21 20  1  0  0  0  0
 22 25  1  1  0  0  0
 23 26  1  0  0  0  0
 23 24  1  0  0  0  0
 23 22  1  0  0  0  0
 24 28  1  6  0  0  0
 24 22  1  0  0  0  0
 24 20  1  0  0  0  0
 27 23  1  0  0  0  0
 29 34  2  0  0  0  0
 29 30  1  0  0  0  0
 30 31  2  0  0  0  0
 31 32  1  0  0  0  0
 31 37  1  0  0  0  0
 33 22  1  0  0  0  0
 33 32  2  0  0  0  0
 34 33  1  0  0  0  0
 35 29  1  0  0  0  0
 36 30  1  0  0  0  0
M  END
>  <minimizedAffinity>
-5.00287199

>  <minimizedRMSD>
1.93659532

$$$$
