
 OpenBabel03242511103D

 37 41  0  0  1  0  0  0  0  0999 V2000
   36.5810   29.4720   41.3870 C   0  0  0  0  0  0  0  0  0  0  0  0
   36.4260   28.2490   42.0290 C   0  0  0  0  0  0  0  0  0  0  0  0
   37.4050   27.6840   42.8370 C   0  0  0  0  0  0  0  0  0  0  0  0
   38.5990   28.3370   43.0340 C   0  0  0  0  0  0  0  0  0  0  0  0
   38.7840   29.5440   42.4170 C   0  0  0  0  0  0  0  0  0  0  0  0
   39.9810   30.1980   42.6090 C   0  0  0  0  0  0  0  0  0  0  0  0
   40.2410   31.4200   42.0120 C   0  0  0  0  0  0  0  0  0  0  0  0
   39.2400   31.9430   41.2200 C   0  0  0  0  0  0  0  0  0  0  0  0
   38.0390   31.2900   41.0270 C   0  0  0  0  0  0  0  0  0  0  0  0
   37.7900   30.0800   41.6200 C   0  0  0  0  0  0  0  0  0  0  0  0
   35.5490   27.6200   41.9830 H   0  0  0  0  0  0  0  0  0  0  0  0
   37.3030   26.7350   43.3430 H   0  0  0  0  0  0  0  0  0  0  0  0
   39.3690   27.9070   43.6600 H   0  0  0  0  0  0  0  0  0  0  0  0
   40.7200   29.7270   43.2450 H   0  0  0  0  0  0  0  0  0  0  0  0
   41.2090   31.8430   42.2300 H   0  0  0  0  0  0  0  0  0  0  0  0
   39.5860   32.8900   40.8140 H   0  0  0  0  0  0  0  0  0  0  0  0
   37.0820   32.0070   40.1470 C   0  0  0  0  0  3  0  0  0  0  0  0
   37.3160   33.3280   39.5530 C   0  0  0  0  0  2  0  0  0  0  0  0
   37.5970   32.2030   38.6840 C   0  0  0  0  0  2  0  0  0  0  0  0
   35.5330   29.9550   40.5990 N   0  0  0  0  0  0  0  0  0  0  0  0
   34.8490   30.6170   41.0270 H   0  0  0  0  0  0  0  0  0  0  0  0
   34.1650   28.8250   38.7790 C   0  0  1  0  0  0  0  0  0  0  0  0
   35.4410   28.0250   38.9590 C   0  0  0  0  0  0  0  0  0  0  0  0
   35.3500   29.5180   39.2400 C   0  0  2  0  0  0  0  0  0  0  0  0
   33.3800   28.4870   39.4850 H   0  0  0  0  0  0  0  0  0  0  0  0
   35.5720   27.3750   39.8310 H   0  0  0  0  0  0  0  0  0  0  0  0
   35.9500   27.7030   38.0230 H   0  0  0  0  0  0  0  0  0  0  0  0
   35.8960   30.1540   38.4900 H   0  0  0  0  0  0  0  0  0  0  0  0
   34.0620   29.1670   35.0840 C   0  0  0  0  0  0  0  0  0  0  0  0
   32.6870   29.4880   34.8710 C   0  0  0  0  0  0  0  0  0  0  0  0
   31.8350   29.5690   36.0020 C   0  0  0  0  0  0  0  0  0  0  0  0
   32.3400   29.3440   37.2190 N   0  0  0  0  0  0  0  0  0  0  0  0
   33.6510   29.0400   37.3910 C   0  0  0  0  0  0  0  0  0  0  0  0
   34.4930   28.9550   36.3280 N   0  0  0  0  0  0  0  0  0  0  0  0
   34.7390   29.0970   34.2470 H   0  0  0  0  0  0  0  0  0  0  0  0
   32.3430   29.6570   33.8710 H   0  0  0  0  0  0  0  0  0  0  0  0
   30.7820   29.8160   35.8310 H   0  0  0  0  0  0  0  0  0  0  0  0
  1 10  2  0  0  0  0
  1  2  1  0  0  0  0
  2  3  2  0  0  0  0
  3  4  1  0  0  0  0
  3 12  1  0  0  0  0
  4 13  1  0  0  0  0
  5  6  1  0  0  0  0
  5  4  2  0  0  0  0
  6 14  1  0  0  0  0
  7 15  1  0  0  0  0
  7  6  2  0  0  0  0
  8  7  1  0  0  0  0
  9  8  2  0  0  0  0
  9 10  1  0  0  0  0
 10  5  1  0  0  0  0
 11  2  1  0  0  0  0
 16  8  1  0  0  0  0
 17  9  1  0  0  0  0
 18 17  1  0  0  0  0
 19 18  1  0  0  0  0
 19 17  1  0  0  0  0
 20 21  1  0  0  0  0
 20  1  1  0  0  0  0
 22 23  1  0  0  0  0
 22 24  1  0  0  0  0
 22 25  1  1  0  0  0
 23 24  1  0  0  0  0
 23 26  1  0  0  0  0
 24 28  1  6  0  0  0
 24 20  1  0  0  0  0
 27 23  1  0  0  0  0
 29 34  1  0  0  0  0
 30 29  2  0  0  0  0
 30 31  1  0  0  0  0
 31 32  2  0  0  0  0
 32 33  1  0  0  0  0
 33 22  1  0  0  0  0
 34 33  2  0  0  0  0
 35 29  1  0  0  0  0
 36 30  1  0  0  0  0
 37 31  1  0  0  0  0
M  END
>  <minimizedAffinity>
-5.96232128

$$$$

 OpenBabel03242511103D

 37 41  0  0  1  0  0  0  0  0999 V2000
   36.4740   29.9240   40.3750 C   0  0  0  0  0  0  0  0  0  0  0  0
   36.7820   31.1320   40.9900 C   0  0  0  0  0  0  0  0  0  0  0  0
   37.1920   32.2590   40.2900 C   0  0  0  0  0  0  0  0  0  0  0  0
   37.3110   32.2150   38.9200 C   0  0  0  0  0  0  0  0  0  0  0  0
   37.0160   31.0410   38.2840 C   0  0  0  0  0  0  0  0  0  0  0  0
   37.1400   30.9930   36.9130 C   0  0  0  0  0  0  0  0  0  0  0  0
   36.8630   29.8380   36.2020 C   0  0  0  0  0  0  0  0  0  0  0  0
   36.4580   28.7440   36.9380 C   0  0  0  0  0  0  0  0  0  0  0  0
   36.3320   28.7900   38.3130 C   0  0  0  0  0  0  0  0  0  0  0  0
   36.6090   29.9370   39.0090 C   0  0  0  0  0  0  0  0  0  0  0  0
   36.7300   31.3310   42.0500 H   0  0  0  0  0  0  0  0  0  0  0  0
   37.4360   33.2060   40.7490 H   0  0  0  0  0  0  0  0  0  0  0  0
   37.6310   33.0860   38.3640 H   0  0  0  0  0  0  0  0  0  0  0  0
   37.4620   31.8920   36.4010 H   0  0  0  0  0  0  0  0  0  0  0  0
   36.9930   29.9110   35.1330 H   0  0  0  0  0  0  0  0  0  0  0  0
   36.2880   27.9160   36.2550 H   0  0  0  0  0  0  0  0  0  0  0  0
   35.8810   27.5190   38.9340 C   0  0  0  0  0  3  0  0  0  0  0  0
   35.5850   26.2840   38.1970 C   0  0  0  0  0  2  0  0  0  0  0  0
   36.9060   26.3480   38.7870 C   0  0  0  0  0  2  0  0  0  0  0  0
   36.0660   28.8500   41.1710 N   0  0  0  0  0  0  0  0  0  0  0  0
   35.0950   28.4840   41.0590 H   0  0  0  0  0  0  0  0  0  0  0  0
   37.1670   26.8590   42.3040 C   0  0  1  0  0  0  0  0  0  0  0  0
   36.2830   27.5400   43.3300 C   0  0  0  0  0  0  0  0  0  0  0  0
   36.9320   28.2810   42.1700 C   0  0  2  0  0  0  0  0  0  0  0  0
   36.5930   26.1180   41.7120 H   0  0  0  0  0  0  0  0  0  0  0  0
   35.1940   27.4310   43.2860 H   0  0  0  0  0  0  0  0  0  0  0  0
   36.7250   27.6730   44.3430 H   0  0  0  0  0  0  0  0  0  0  0  0
   37.7640   28.9700   42.4820 H   0  0  0  0  0  0  0  0  0  0  0  0
   40.6180   26.7660   43.6690 C   0  0  0  0  0  0  0  0  0  0  0  0
   40.9530   25.3890   43.4930 C   0  0  0  0  0  0  0  0  0  0  0  0
   39.9790   24.5330   42.9170 C   0  0  0  0  0  0  0  0  0  0  0  0
   38.7920   25.0340   42.5630 N   0  0  0  0  0  0  0  0  0  0  0  0
   38.5020   26.3480   42.7440 C   0  0  0  0  0  0  0  0  0  0  0  0
   39.4130   27.1940   43.2920 N   0  0  0  0  0  0  0  0  0  0  0  0
   41.3340   27.4470   44.1030 H   0  0  0  0  0  0  0  0  0  0  0  0
   41.9210   25.0480   43.7970 H   0  0  0  0  0  0  0  0  0  0  0  0
   40.2430   23.4780   42.7840 H   0  0  0  0  0  0  0  0  0  0  0  0
  1  2  1  0  0  0  0
  1 20  1  0  0  0  0
  2 11  1  0  0  0  0
  3 12  1  0  0  0  0
  3  2  2  0  0  0  0
  4  3  1  0  0  0  0
  5  4  2  0  0  0  0
  5 10  1  0  0  0  0
  6  5  1  0  0  0  0
  7  6  2  0  0  0  0
  7  8  1  0  0  0  0
  8  9  2  0  0  0  0
  9 17  1  0  0  0  0
  9 10  1  0  0  0  0
 10  1  2  0  0  0  0
 13  4  1  0  0  0  0
 14  6  1  0  0  0  0
 15  7  1  0  0  0  0
 16  8  1  0  0  0  0
 18 19  1  0  0  0  0
 18 17  1  0  0  0  0
 19 17  1  0  0  0  0
 20 24  1  0  0  0  0
 21 20  1  0  0  0  0
 22 25  1  6  0  0  0
 22 33  1  0  0  0  0
 22 23  1  0  0  0  0
 23 27  1  0  0  0  0
 24 22  1  0  0  0  0
 24 28  1  1  0  0  0
 24 23  1  0  0  0  0
 26 23  1  0  0  0  0
 29 35  1  0  0  0  0
 30 29  1  0  0  0  0
 30 36  1  0  0  0  0
 31 30  2  0  0  0  0
 32 33  2  0  0  0  0
 32 31  1  0  0  0  0
 33 34  1  0  0  0  0
 34 29  2  0  0  0  0
 37 31  1  0  0  0  0
M  END
>  <minimizedAffinity>
-5.93458176

$$$$

 OpenBabel03242511103D

 37 41  0  0  1  0  0  0  0  0999 V2000
   37.0410   29.1830   41.4170 C   0  0  0  0  0  0  0  0  0  0  0  0
   37.5930   29.2800   42.6890 C   0  0  0  0  0  0  0  0  0  0  0  0
   37.9800   28.1740   43.4370 C   0  0  0  0  0  0  0  0  0  0  0  0
   37.8230   26.9060   42.9260 C   0  0  0  0  0  0  0  0  0  0  0  0
   37.2830   26.7760   41.6770 C   0  0  0  0  0  0  0  0  0  0  0  0
   37.1200   25.5080   41.1660 C   0  0  0  0  0  0  0  0  0  0  0  0
   36.5760   25.2980   39.9100 C   0  0  0  0  0  0  0  0  0  0  0  0
   36.2070   26.4240   39.2030 C   0  0  0  0  0  0  0  0  0  0  0  0
   36.3710   27.6970   39.7130 C   0  0  0  0  0  0  0  0  0  0  0  0
   36.9090   27.8960   40.9570 C   0  0  0  0  0  0  0  0  0  0  0  0
   37.7890   30.1980   43.2230 H   0  0  0  0  0  0  0  0  0  0  0  0
   38.4100   28.2290   44.4260 H   0  0  0  0  0  0  0  0  0  0  0  0
   38.1190   26.0390   43.5000 H   0  0  0  0  0  0  0  0  0  0  0  0
   37.4330   24.6700   41.7770 H   0  0  0  0  0  0  0  0  0  0  0  0
   36.4940   24.2650   39.6090 H   0  0  0  0  0  0  0  0  0  0  0  0
   35.7910   26.1080   38.2500 H   0  0  0  0  0  0  0  0  0  0  0  0
   35.9220   28.7860   38.8080 C   0  0  0  0  0  3  0  0  0  0  0  0
   35.1820   28.5850   37.5570 C   0  0  0  0  0  2  0  0  0  0  0  0
   34.3670   28.9200   38.7070 C   0  0  0  0  0  2  0  0  0  0  0  0
   36.6890   30.3570   40.7460 N   0  0  0  0  0  0  0  0  0  0  0  0
   35.6790   30.6070   40.6700 H   0  0  0  0  0  0  0  0  0  0  0  0
   38.1800   32.4150   40.7030 C   0  0  1  0  0  0  0  0  0  0  0  0
   37.2190   32.5200   39.5350 C   0  0  0  0  0  0  0  0  0  0  0  0
   37.6790   31.1900   40.1160 C   0  0  2  0  0  0  0  0  0  0  0  0
   37.7350   32.8400   41.6250 H   0  0  0  0  0  0  0  0  0  0  0  0
   36.1690   32.7820   39.7000 H   0  0  0  0  0  0  0  0  0  0  0  0
   37.6630   32.8440   38.5670 H   0  0  0  0  0  0  0  0  0  0  0  0
   38.3780   30.6210   39.4440 H   0  0  0  0  0  0  0  0  0  0  0  0
   41.1680   34.1610   39.3600 C   0  0  0  0  0  0  0  0  0  0  0  0
   42.2150   33.5370   40.1030 C   0  0  0  0  0  0  0  0  0  0  0  0
   41.8620   32.5400   41.0490 C   0  0  0  0  0  0  0  0  0  0  0  0
   40.5750   32.2210   41.2140 N   0  0  0  0  0  0  0  0  0  0  0  0
   39.6010   32.8330   40.4940 C   0  0  0  0  0  0  0  0  0  0  0  0
   39.9060   33.7900   39.5800 N   0  0  0  0  0  0  0  0  0  0  0  0
   41.3990   34.9230   38.6310 H   0  0  0  0  0  0  0  0  0  0  0  0
   43.2270   33.8370   39.9240 H   0  0  0  0  0  0  0  0  0  0  0  0
   42.6710   32.0660   41.6150 H   0  0  0  0  0  0  0  0  0  0  0  0
  1  2  1  0  0  0  0
  2 11  1  0  0  0  0
  2  3  2  0  0  0  0
  3 12  1  0  0  0  0
  4  3  1  0  0  0  0
  4 13  1  0  0  0  0
  5  4  2  0  0  0  0
  6  5  1  0  0  0  0
  6 14  1  0  0  0  0
  7  6  2  0  0  0  0
  8  9  2  0  0  0  0
  8  7  1  0  0  0  0
  9 10  1  0  0  0  0
 10  1  2  0  0  0  0
 10  5  1  0  0  0  0
 15  7  1  0  0  0  0
 16  8  1  0  0  0  0
 17  9  1  0  0  0  0
 18 19  1  0  0  0  0
 18 17  1  0  0  0  0
 19 17  1  0  0  0  0
 20  1  1  0  0  0  0
 21 20  1  0  0  0  0
 22 25  1  1  0  0  0
 23 26  1  0  0  0  0
 23 24  1  0  0  0  0
 23 22  1  0  0  0  0
 24 28  1  6  0  0  0
 24 22  1  0  0  0  0
 24 20  1  0  0  0  0
 27 23  1  0  0  0  0
 29 34  2  0  0  0  0
 29 30  1  0  0  0  0
 30 31  2  0  0  0  0
 31 32  1  0  0  0  0
 31 37  1  0  0  0  0
 33 22  1  0  0  0  0
 33 32  2  0  0  0  0
 34 33  1  0  0  0  0
 35 29  1  0  0  0  0
 36 30  1  0  0  0  0
M  END
>  <minimizedAffinity>
-5.92697334

$$$$

 OpenBabel03242511103D

 37 41  0  0  1  0  0  0  0  0999 V2000
   36.8280   28.2050   40.5690 C   0  0  0  0  0  0  0  0  0  0  0  0
   36.9770   28.9590   41.7270 C   0  0  0  0  0  0  0  0  0  0  0  0
   37.1200   28.3950   42.9890 C   0  0  0  0  0  0  0  0  0  0  0  0
   37.1190   27.0270   43.1380 C   0  0  0  0  0  0  0  0  0  0  0  0
   36.9740   26.2560   42.0180 C   0  0  0  0  0  0  0  0  0  0  0  0
   36.9680   24.8870   42.1650 C   0  0  0  0  0  0  0  0  0  0  0  0
   36.8210   24.0430   41.0770 C   0  0  0  0  0  0  0  0  0  0  0  0
   36.6830   24.6470   39.8440 C   0  0  0  0  0  0  0  0  0  0  0  0
   36.6900   26.0190   39.6940 C   0  0  0  0  0  0  0  0  0  0  0  0
   36.8350   26.8480   40.7760 C   0  0  0  0  0  0  0  0  0  0  0  0
   37.0070   30.0370   41.7780 H   0  0  0  0  0  0  0  0  0  0  0  0
   37.2360   28.9630   43.9000 H   0  0  0  0  0  0  0  0  0  0  0  0
   37.2290   26.5770   44.1150 H   0  0  0  0  0  0  0  0  0  0  0  0
   37.0820   24.4830   43.1630 H   0  0  0  0  0  0  0  0  0  0  0  0
   36.8290   22.9890   41.3060 H   0  0  0  0  0  0  0  0  0  0  0  0
   36.5670   23.8690   39.0940 H   0  0  0  0  0  0  0  0  0  0  0  0
   36.5340   26.4880   38.2940 C   0  0  0  0  0  3  0  0  0  0  0  0
   36.3210   25.6110   37.1350 C   0  0  0  0  0  2  0  0  0  0  0  0
   35.1200   26.2030   37.6890 C   0  0  0  0  0  2  0  0  0  0  0  0
   36.6940   28.8700   39.3470 N   0  0  0  0  0  0  0  0  0  0  0  0
   35.9330   28.5750   38.6980 H   0  0  0  0  0  0  0  0  0  0  0  0
   37.3030   31.3160   39.0240 C   0  0  1  0  0  0  0  0  0  0  0  0
   37.3140   30.6560   37.6590 C   0  0  0  0  0  0  0  0  0  0  0  0
   37.6120   29.9040   38.9490 C   0  0  2  0  0  0  0  0  0  0  0  0
   36.2870   31.6730   39.2860 H   0  0  0  0  0  0  0  0  0  0  0  0
   36.3740   30.4020   37.1570 H   0  0  0  0  0  0  0  0  0  0  0  0
   38.1720   30.9160   37.0000 H   0  0  0  0  0  0  0  0  0  0  0  0
   38.6920   29.6090   39.0600 H   0  0  0  0  0  0  0  0  0  0  0  0
   39.1040   34.1610   40.5880 C   0  0  0  0  0  0  0  0  0  0  0  0
   40.3320   34.1500   39.8600 C   0  0  0  0  0  0  0  0  0  0  0  0
   40.5070   33.1600   38.8590 C   0  0  0  0  0  0  0  0  0  0  0  0
   39.5290   32.2780   38.6310 N   0  0  0  0  0  0  0  0  0  0  0  0
   38.3730   32.3130   39.3410 C   0  0  0  0  0  0  0  0  0  0  0  0
   38.1740   33.2480   40.3060 N   0  0  0  0  0  0  0  0  0  0  0  0
   38.9350   34.9000   41.3570 H   0  0  0  0  0  0  0  0  0  0  0  0
   41.0760   34.8840   40.0890 H   0  0  0  0  0  0  0  0  0  0  0  0
   41.4510   33.1580   38.3040 H   0  0  0  0  0  0  0  0  0  0  0  0
  1 10  2  0  0  0  0
  1  2  1  0  0  0  0
  2 11  1  0  0  0  0
  2  3  2  0  0  0  0
  3  4  1  0  0  0  0
  3 12  1  0  0  0  0
  4 13  1  0  0  0  0
  5  6  1  0  0  0  0
  5  4  2  0  0  0  0
  6 14  1  0  0  0  0
  7 15  1  0  0  0  0
  7  6  2  0  0  0  0
  8  7  1  0  0  0  0
  9  8  2  0  0  0  0
  9 10  1  0  0  0  0
 10  5  1  0  0  0  0
 16  8  1  0  0  0  0
 17  9  1  0  0  0  0
 18 19  1  0  0  0  0
 18 17  1  0  0  0  0
 19 17  1  0  0  0  0
 20  1  1  0  0  0  0
 21 20  1  0  0  0  0
 22 25  1  1  0  0  0
 22 33  1  0  0  0  0
 23 24  1  0  0  0  0
 23 22  1  0  0  0  0
 24 22  1  0  0  0  0
 24 28  1  1  0  0  0
 24 20  1  0  0  0  0
 26 23  1  0  0  0  0
 27 23  1  0  0  0  0
 29 35  1  0  0  0  0
 30 36  1  0  0  0  0
 30 29  2  0  0  0  0
 31 30  1  0  0  0  0
 32 31  2  0  0  0  0
 32 33  1  0  0  0  0
 33 34  2  0  0  0  0
 34 29  1  0  0  0  0
 37 31  1  0  0  0  0
M  END
>  <minimizedAffinity>
-5.84841251

$$$$

 OpenBabel03242511103D

 37 41  0  0  1  0  0  0  0  0999 V2000
   36.6460   30.5650   40.9620 C   0  0  0  0  0  0  0  0  0  0  0  0
   36.6270   31.8250   40.3770 C   0  0  0  0  0  0  0  0  0  0  0  0
   37.7320   32.6670   40.3480 C   0  0  0  0  0  0  0  0  0  0  0  0
   38.9200   32.2680   40.9160 C   0  0  0  0  0  0  0  0  0  0  0  0
   38.9720   31.0330   41.5010 C   0  0  0  0  0  0  0  0  0  0  0  0
   40.1580   30.6330   42.0750 C   0  0  0  0  0  0  0  0  0  0  0  0
   40.2840   29.3980   42.6890 C   0  0  0  0  0  0  0  0  0  0  0  0
   39.1620   28.5960   42.6940 C   0  0  0  0  0  0  0  0  0  0  0  0
   37.9720   28.9940   42.1170 C   0  0  0  0  0  0  0  0  0  0  0  0
   37.8550   30.2180   41.5120 C   0  0  0  0  0  0  0  0  0  0  0  0
   35.7800   32.2790   39.8830 H   0  0  0  0  0  0  0  0  0  0  0  0
   37.7370   33.6500   39.8980 H   0  0  0  0  0  0  0  0  0  0  0  0
   39.7860   32.9150   40.9000 H   0  0  0  0  0  0  0  0  0  0  0  0
   40.9980   31.3160   42.0330 H   0  0  0  0  0  0  0  0  0  0  0  0
   41.2570   29.1870   43.1060 H   0  0  0  0  0  0  0  0  0  0  0  0
   39.4050   27.6730   43.2140 H   0  0  0  0  0  0  0  0  0  0  0  0
   36.8760   27.9980   42.2150 C   0  0  0  0  0  3  0  0  0  0  0  0
   37.0400   26.6120   42.6720 C   0  0  0  0  0  2  0  0  0  0  0  0
   36.5680   27.5410   43.6790 C   0  0  0  0  0  2  0  0  0  0  0  0
   35.4810   29.7940   40.9350 N   0  0  0  0  0  0  0  0  0  0  0  0
   34.8320   29.8380   41.7520 H   0  0  0  0  0  0  0  0  0  0  0  0
   35.3630   29.2770   38.4490 C   0  0  1  0  0  0  0  0  0  0  0  0
   33.9530   29.2030   39.0010 C   0  0  0  0  0  0  0  0  0  0  0  0
   35.1900   28.9090   39.8390 C   0  0  2  0  0  0  0  0  0  0  0  0
   35.6210   30.3130   38.1530 H   0  0  0  0  0  0  0  0  0  0  0  0
   33.4050   30.1180   39.2520 H   0  0  0  0  0  0  0  0  0  0  0  0
   33.3410   28.3390   38.6580 H   0  0  0  0  0  0  0  0  0  0  0  0
   35.3100   27.8220   40.1000 H   0  0  0  0  0  0  0  0  0  0  0  0
   36.2970   26.0270   36.9170 C   0  0  0  0  0  0  0  0  0  0  0  0
   36.6090   26.4260   35.5820 C   0  0  0  0  0  0  0  0  0  0  0  0
   36.4810   27.7990   35.2470 C   0  0  0  0  0  0  0  0  0  0  0  0
   36.0760   28.6660   36.1790 N   0  0  0  0  0  0  0  0  0  0  0  0
   35.7860   28.2570   37.4400 C   0  0  0  0  0  0  0  0  0  0  0  0
   35.8990   26.9500   37.7940 N   0  0  0  0  0  0  0  0  0  0  0  0
   36.3840   24.9920   37.2090 H   0  0  0  0  0  0  0  0  0  0  0  0
   36.9280   25.6830   34.8810 H   0  0  0  0  0  0  0  0  0  0  0  0
   36.7220   28.0970   34.2210 H   0  0  0  0  0  0  0  0  0  0  0  0
  1 10  1  0  0  0  0
  2  1  2  0  0  0  0
  3  2  1  0  0  0  0
  3  4  2  0  0  0  0
  4  5  1  0  0  0  0
  5 10  2  0  0  0  0
  5  6  1  0  0  0  0
  6  7  2  0  0  0  0
  7  8  1  0  0  0  0
  7 15  1  0  0  0  0
  8 16  1  0  0  0  0
  9 17  1  0  0  0  0
  9  8  2  0  0  0  0
 10  9  1  0  0  0  0
 11  2  1  0  0  0  0
 12  3  1  0  0  0  0
 13  4  1  0  0  0  0
 14  6  1  0  0  0  0
 17 18  1  0  0  0  0
 17 19  1  0  0  0  0
 18 19  1  0  0  0  0
 20  1  1  0  0  0  0
 20 21  1  0  0  0  0
 22 25  1  6  0  0  0
 22 23  1  0  0  0  0
 22 24  1  0  0  0  0
 23 26  1  0  0  0  0
 23 24  1  0  0  0  0
 24 28  1  1  0  0  0
 24 20  1  0  0  0  0
 27 23  1  0  0  0  0
 29 35  1  0  0  0  0
 29 34  1  0  0  0  0
 30 29  2  0  0  0  0
 31 30  1  0  0  0  0
 31 32  2  0  0  0  0
 32 33  1  0  0  0  0
 33 34  2  0  0  0  0
 33 22  1  0  0  0  0
 36 30  1  0  0  0  0
 37 31  1  0  0  0  0
M  END
>  <minimizedAffinity>
-5.83735752

$$$$

 OpenBabel03242511103D

 37 41  0  0  1  0  0  0  0  0999 V2000
   36.4910   29.3730   41.3850 C   0  0  0  0  0  0  0  0  0  0  0  0
   36.3440   28.1930   42.1050 C   0  0  0  0  0  0  0  0  0  0  0  0
   37.3070   27.7140   42.9860 C   0  0  0  0  0  0  0  0  0  0  0  0
   38.4740   28.4160   43.1810 C   0  0  0  0  0  0  0  0  0  0  0  0
   38.6500   29.5820   42.4880 C   0  0  0  0  0  0  0  0  0  0  0  0
   39.8190   30.2830   42.6780 C   0  0  0  0  0  0  0  0  0  0  0  0
   40.0690   31.4680   42.0070 C   0  0  0  0  0  0  0  0  0  0  0  0
   39.0860   31.9060   41.1440 C   0  0  0  0  0  0  0  0  0  0  0  0
   37.9120   31.2050   40.9530 C   0  0  0  0  0  0  0  0  0  0  0  0
   37.6730   30.0320   41.6190 C   0  0  0  0  0  0  0  0  0  0  0  0
   35.4880   27.5360   42.0710 H   0  0  0  0  0  0  0  0  0  0  0  0
   37.2110   26.8000   43.5530 H   0  0  0  0  0  0  0  0  0  0  0  0
   39.2300   28.0530   43.8640 H   0  0  0  0  0  0  0  0  0  0  0  0
   40.5460   29.8800   43.3730 H   0  0  0  0  0  0  0  0  0  0  0  0
   41.0160   31.9340   42.2300 H   0  0  0  0  0  0  0  0  0  0  0  0
   39.4220   32.8320   40.6860 H   0  0  0  0  0  0  0  0  0  0  0  0
   36.9700   31.8300   39.9900 C   0  0  0  0  0  3  0  0  0  0  0  0
   37.2310   33.0680   39.2450 C   0  0  0  0  0  2  0  0  0  0  0  0
   37.4940   31.8440   38.5160 C   0  0  0  0  0  2  0  0  0  0  0  0
   35.4620   29.7690   40.5270 N   0  0  0  0  0  0  0  0  0  0  0  0
   35.0700   30.7310   40.6260 H   0  0  0  0  0  0  0  0  0  0  0  0
   35.6940   28.1760   38.5600 C   0  0  1  0  0  0  0  0  0  0  0  0
   34.8290   29.3380   38.1100 C   0  0  0  0  0  0  0  0  0  0  0  0
   34.9020   28.8660   39.5560 C   0  0  2  0  0  0  0  0  0  0  0  0
   36.7700   28.4010   38.4170 H   0  0  0  0  0  0  0  0  0  0  0  0
   35.2770   30.3150   37.8970 H   0  0  0  0  0  0  0  0  0  0  0  0
   33.9230   29.0710   37.5230 H   0  0  0  0  0  0  0  0  0  0  0  0
   33.9660   28.3540   39.9120 H   0  0  0  0  0  0  0  0  0  0  0  0
   33.9230   25.3940   36.8570 C   0  0  0  0  0  0  0  0  0  0  0  0
   34.6340   24.2610   37.3560 C   0  0  0  0  0  0  0  0  0  0  0  0
   35.7060   24.4880   38.2570 C   0  0  0  0  0  0  0  0  0  0  0  0
   36.0150   25.7410   38.6060 N   0  0  0  0  0  0  0  0  0  0  0  0
   35.3210   26.7980   38.1130 C   0  0  0  0  0  0  0  0  0  0  0  0
   34.2880   26.6140   37.2490 N   0  0  0  0  0  0  0  0  0  0  0  0
   33.1010   25.2590   36.1700 H   0  0  0  0  0  0  0  0  0  0  0  0
   34.3380   23.2820   37.0390 H   0  0  0  0  0  0  0  0  0  0  0  0
   36.2470   23.6140   38.6370 H   0  0  0  0  0  0  0  0  0  0  0  0
  1 10  2  0  0  0  0
  1  2  1  0  0  0  0
  2  3  2  0  0  0  0
  3  4  1  0  0  0  0
  3 12  1  0  0  0  0
  4 13  1  0  0  0  0
  5  6  1  0  0  0  0
  5  4  2  0  0  0  0
  6 14  1  0  0  0  0
  7 15  1  0  0  0  0
  7  6  2  0  0  0  0
  8  7  1  0  0  0  0
  9  8  2  0  0  0  0
  9 10  1  0  0  0  0
 10  5  1  0  0  0  0
 11  2  1  0  0  0  0
 16  8  1  0  0  0  0
 17  9  1  0  0  0  0
 18 17  1  0  0  0  0
 19 18  1  0  0  0  0
 19 17  1  0  0  0  0
 20 21  1  0  0  0  0
 20  1  1  0  0  0  0
 22 25  1  1  0  0  0
 22 24  1  0  0  0  0
 23 22  1  0  0  0  0
 23 24  1  0  0  0  0
 24 28  1  1  0  0  0
 24 20  1  0  0  0  0
 26 23  1  0  0  0  0
 27 23  1  0  0  0  0
 29 34  2  0  0  0  0
 29 30  1  0  0  0  0
 30 31  2  0  0  0  0
 31 32  1  0  0  0  0
 31 37  1  0  0  0  0
 33 22  1  0  0  0  0
 33 32  2  0  0  0  0
 34 33  1  0  0  0  0
 35 29  1  0  0  0  0
 36 30  1  0  0  0  0
M  END
>  <minimizedAffinity>
-5.73040295

$$$$

 OpenBabel03242511103D

 37 41  0  0  1  0  0  0  0  0999 V2000
   36.3960   28.2040   39.4800 C   0  0  0  0  0  0  0  0  0  0  0  0
   36.1220   28.0460   38.1260 C   0  0  0  0  0  0  0  0  0  0  0  0
   36.0550   26.8060   37.5030 C   0  0  0  0  0  0  0  0  0  0  0  0
   36.2660   25.6560   38.2290 C   0  0  0  0  0  0  0  0  0  0  0  0
   36.5390   25.7770   39.5640 C   0  0  0  0  0  0  0  0  0  0  0  0
   36.7550   24.6280   40.2920 C   0  0  0  0  0  0  0  0  0  0  0  0
   37.0410   24.6730   41.6460 C   0  0  0  0  0  0  0  0  0  0  0  0
   37.0960   25.9250   42.2220 C   0  0  0  0  0  0  0  0  0  0  0  0
   36.8780   27.0780   41.4950 C   0  0  0  0  0  0  0  0  0  0  0  0
   36.5970   27.0260   40.1550 C   0  0  0  0  0  0  0  0  0  0  0  0
   35.9250   28.8440   37.4260 H   0  0  0  0  0  0  0  0  0  0  0  0
   35.8440   26.6630   36.4540 H   0  0  0  0  0  0  0  0  0  0  0  0
   36.2180   24.6860   37.7550 H   0  0  0  0  0  0  0  0  0  0  0  0
   36.6950   23.6800   39.7720 H   0  0  0  0  0  0  0  0  0  0  0  0
   37.1930   23.7150   42.1170 H   0  0  0  0  0  0  0  0  0  0  0  0
   37.3370   25.8060   43.2750 H   0  0  0  0  0  0  0  0  0  0  0  0
   36.9730   28.3330   42.2840 C   0  0  0  0  0  3  0  0  0  0  0  0
   37.4300   28.4140   43.6770 C   0  0  0  0  0  2  0  0  0  0  0  0
   38.4360   28.7170   42.6800 C   0  0  0  0  0  2  0  0  0  0  0  0
   36.4370   29.4970   40.0110 N   0  0  0  0  0  0  0  0  0  0  0  0
   35.6950   29.7840   40.6860 H   0  0  0  0  0  0  0  0  0  0  0  0
   37.6210   31.7330   40.2430 C   0  0  1  0  0  0  0  0  0  0  0  0
   36.9740   31.6960   38.8720 C   0  0  0  0  0  0  0  0  0  0  0  0
   37.4390   30.4460   39.6060 C   0  0  2  0  0  0  0  0  0  0  0  0
   36.9120   32.1050   41.0090 H   0  0  0  0  0  0  0  0  0  0  0  0
   35.8910   31.8200   38.7650 H   0  0  0  0  0  0  0  0  0  0  0  0
   37.6000   32.0660   38.0290 H   0  0  0  0  0  0  0  0  0  0  0  0
   38.3490   29.9660   39.1500 H   0  0  0  0  0  0  0  0  0  0  0  0
   40.4900   34.0550   39.8430 C   0  0  0  0  0  0  0  0  0  0  0  0
   41.5060   33.3750   40.5790 C   0  0  0  0  0  0  0  0  0  0  0  0
   41.1730   32.1420   41.1970 C   0  0  0  0  0  0  0  0  0  0  0  0
   39.9320   31.6620   41.0740 N   0  0  0  0  0  0  0  0  0  0  0  0
   38.9860   32.3320   40.3690 C   0  0  0  0  0  0  0  0  0  0  0  0
   39.2740   33.5140   39.7640 N   0  0  0  0  0  0  0  0  0  0  0  0
   40.7070   34.9950   39.3590 H   0  0  0  0  0  0  0  0  0  0  0  0
   42.4820   33.8110   40.6410 H   0  0  0  0  0  0  0  0  0  0  0  0
   41.9580   31.6260   41.7600 H   0  0  0  0  0  0  0  0  0  0  0  0
  1 20  1  0  0  0  0
  1 10  1  0  0  0  0
  2  1  2  0  0  0  0
  3  2  1  0  0  0  0
  3  4  2  0  0  0  0
  4  5  1  0  0  0  0
  5 10  2  0  0  0  0
  5  6  1  0  0  0  0
  6  7  2  0  0  0  0
  7 15  1  0  0  0  0
  7  8  1  0  0  0  0
  8 16  1  0  0  0  0
  9  8  2  0  0  0  0
  9 17  1  0  0  0  0
 10  9  1  0  0  0  0
 11  2  1  0  0  0  0
 12  3  1  0  0  0  0
 13  4  1  0  0  0  0
 14  6  1  0  0  0  0
 17 19  1  0  0  0  0
 17 18  1  0  0  0  0
 19 18  1  0  0  0  0
 20 21  1  0  0  0  0
 22 33  1  0  0  0  0
 22 25  1  1  0  0  0
 23 24  1  0  0  0  0
 23 22  1  0  0  0  0
 24 28  1  6  0  0  0
 24 20  1  0  0  0  0
 24 22  1  0  0  0  0
 26 23  1  0  0  0  0
 27 23  1  0  0  0  0
 29 30  1  0  0  0  0
 30 36  1  0  0  0  0
 30 31  2  0  0  0  0
 31 37  1  0  0  0  0
 32 31  1  0  0  0  0
 33 32  2  0  0  0  0
 34 29  2  0  0  0  0
 34 33  1  0  0  0  0
 35 29  1  0  0  0  0
M  END
>  <minimizedAffinity>
-5.7195549

$$$$

 OpenBabel03242511103D

 37 41  0  0  1  0  0  0  0  0999 V2000
   37.7340   29.1770   42.2160 C   0  0  0  0  0  0  0  0  0  0  0  0
   36.7260   28.2380   42.3930 C   0  0  0  0  0  0  0  0  0  0  0  0
   36.9510   26.9690   42.9120 C   0  0  0  0  0  0  0  0  0  0  0  0
   38.2210   26.5890   43.2800 C   0  0  0  0  0  0  0  0  0  0  0  0
   39.2370   27.4900   43.1190 C   0  0  0  0  0  0  0  0  0  0  0  0
   40.5100   27.1110   43.4820 C   0  0  0  0  0  0  0  0  0  0  0  0
   41.5870   27.9690   43.3430 C   0  0  0  0  0  0  0  0  0  0  0  0
   41.3170   29.2180   42.8240 C   0  0  0  0  0  0  0  0  0  0  0  0
   40.0410   29.6010   42.4610 C   0  0  0  0  0  0  0  0  0  0  0  0
   38.9800   28.7460   42.6000 C   0  0  0  0  0  0  0  0  0  0  0  0
   35.6810   28.3830   42.1630 H   0  0  0  0  0  0  0  0  0  0  0  0
   36.1810   26.2250   43.0570 H   0  0  0  0  0  0  0  0  0  0  0  0
   38.4080   25.6030   43.6850 H   0  0  0  0  0  0  0  0  0  0  0  0
   40.6470   26.1140   43.8830 H   0  0  0  0  0  0  0  0  0  0  0  0
   42.5390   27.5690   43.6580 H   0  0  0  0  0  0  0  0  0  0  0  0
   42.2500   29.7720   42.7640 H   0  0  0  0  0  0  0  0  0  0  0  0
   39.9410   30.9830   41.9260 C   0  0  0  0  0  3  0  0  0  0  0  0
   41.0870   31.8300   41.5710 C   0  0  0  0  0  2  0  0  0  0  0  0
   40.4700   31.1310   40.4620 C   0  0  0  0  0  2  0  0  0  0  0  0
   37.4020   30.4280   41.6890 N   0  0  0  0  0  0  0  0  0  0  0  0
   37.7570   31.2840   42.1690 H   0  0  0  0  0  0  0  0  0  0  0  0
   36.9370   30.1660   39.2040 C   0  0  1  0  0  0  0  0  0  0  0  0
   36.8750   31.6460   39.5290 C   0  0  0  0  0  0  0  0  0  0  0  0
   36.5440   30.5580   40.5410 C   0  0  2  0  0  0  0  0  0  0  0  0
   37.9740   29.8510   38.9740 H   0  0  0  0  0  0  0  0  0  0  0  0
   37.7930   32.2140   39.7120 H   0  0  0  0  0  0  0  0  0  0  0  0
   36.0280   32.2080   39.0760 H   0  0  0  0  0  0  0  0  0  0  0  0
   35.4500   30.4930   40.7930 H   0  0  0  0  0  0  0  0  0  0  0  0
   35.3020   29.1030   36.0450 C   0  0  0  0  0  0  0  0  0  0  0  0
   34.0480   28.6180   36.5280 C   0  0  0  0  0  0  0  0  0  0  0  0
   33.8060   28.6630   37.9250 C   0  0  0  0  0  0  0  0  0  0  0  0
   34.7480   29.1520   38.7370 N   0  0  0  0  0  0  0  0  0  0  0  0
   35.9310   29.6050   38.2500 C   0  0  0  0  0  0  0  0  0  0  0  0
   36.1930   29.5760   36.9170 N   0  0  0  0  0  0  0  0  0  0  0  0
   35.5200   29.0840   34.9880 H   0  0  0  0  0  0  0  0  0  0  0  0
   33.3350   28.2380   35.8260 H   0  0  0  0  0  0  0  0  0  0  0  0
   32.8430   28.2900   38.2880 H   0  0  0  0  0  0  0  0  0  0  0  0
  1  2  2  0  0  0  0
  1 10  1  0  0  0  0
  2  3  1  0  0  0  0
  3 12  1  0  0  0  0
  3  4  2  0  0  0  0
  4 13  1  0  0  0  0
  5  4  1  0  0  0  0
  5  6  1  0  0  0  0
  6 14  1  0  0  0  0
  7  6  2  0  0  0  0
  7 15  1  0  0  0  0
  8  7  1  0  0  0  0
  9 10  1  0  0  0  0
  9  8  2  0  0  0  0
 10  5  2  0  0  0  0
 11  2  1  0  0  0  0
 16  8  1  0  0  0  0
 17  9  1  0  0  0  0
 18 17  1  0  0  0  0
 19 18  1  0  0  0  0
 19 17  1  0  0  0  0
 20 21  1  0  0  0  0
 20  1  1  0  0  0  0
 22 25  1  6  0  0  0
 22 23  1  0  0  0  0
 22 24  1  0  0  0  0
 23 26  1  0  0  0  0
 23 24  1  0  0  0  0
 24 28  1  1  0  0  0
 24 20  1  0  0  0  0
 27 23  1  0  0  0  0
 29 30  2  0  0  0  0
 29 34  1  0  0  0  0
 30 31  1  0  0  0  0
 31 37  1  0  0  0  0
 31 32  2  0  0  0  0
 33 32  1  0  0  0  0
 33 22  1  0  0  0  0
 34 33  2  0  0  0  0
 35 29  1  0  0  0  0
 36 30  1  0  0  0  0
M  END
>  <minimizedAffinity>
-5.59097385

$$$$

 OpenBabel03242511103D

 37 41  0  0  1  0  0  0  0  0999 V2000
   37.5290   26.8250   41.9910 C   0  0  0  0  0  0  0  0  0  0  0  0
   36.9570   25.5730   41.8010 C   0  0  0  0  0  0  0  0  0  0  0  0
   37.5930   24.3860   42.1440 C   0  0  0  0  0  0  0  0  0  0  0  0
   38.8510   24.4120   42.7000 C   0  0  0  0  0  0  0  0  0  0  0  0
   39.4420   25.6290   42.9000 C   0  0  0  0  0  0  0  0  0  0  0  0
   40.7030   25.6580   43.4530 C   0  0  0  0  0  0  0  0  0  0  0  0
   41.3660   26.8530   43.6800 C   0  0  0  0  0  0  0  0  0  0  0  0
   40.6960   28.0050   43.3250 C   0  0  0  0  0  0  0  0  0  0  0  0
   39.4310   27.9790   42.7730 C   0  0  0  0  0  0  0  0  0  0  0  0
   38.7830   26.7920   42.5500 C   0  0  0  0  0  0  0  0  0  0  0  0
   35.9770   25.3830   41.3870 H   0  0  0  0  0  0  0  0  0  0  0  0
   37.1650   23.4030   42.0040 H   0  0  0  0  0  0  0  0  0  0  0  0
   39.3560   23.4950   42.9700 H   0  0  0  0  0  0  0  0  0  0  0  0
   41.1680   24.7130   43.7070 H   0  0  0  0  0  0  0  0  0  0  0  0
   42.3490   26.7600   44.1150 H   0  0  0  0  0  0  0  0  0  0  0  0
   41.3360   28.8550   43.5490 H   0  0  0  0  0  0  0  0  0  0  0  0
   38.8670   29.3160   42.4590 C   0  0  0  0  0  3  0  0  0  0  0  0
   39.5770   30.5880   42.6360 C   0  0  0  0  0  2  0  0  0  0  0  0
   39.6010   30.0510   41.2910 C   0  0  0  0  0  2  0  0  0  0  0  0
   36.8030   27.9590   41.6160 N   0  0  0  0  0  0  0  0  0  0  0  0
   36.6500   28.7120   42.3220 H   0  0  0  0  0  0  0  0  0  0  0  0
   36.4830   29.1970   39.4190 C   0  0  1  0  0  0  0  0  0  0  0  0
   35.1340   29.1280   40.1090 C   0  0  0  0  0  0  0  0  0  0  0  0
   36.2220   28.0810   40.3050 C   0  0  2  0  0  0  0  0  0  0  0  0
   37.0580   30.0820   39.7570 H   0  0  0  0  0  0  0  0  0  0  0  0
   34.9160   29.7670   40.9710 H   0  0  0  0  0  0  0  0  0  0  0  0
   34.2690   28.8610   39.4610 H   0  0  0  0  0  0  0  0  0  0  0  0
   35.9880   27.0910   39.8270 H   0  0  0  0  0  0  0  0  0  0  0  0
   37.7260   28.3060   36.0370 C   0  0  0  0  0  0  0  0  0  0  0  0
   36.6160   28.6830   35.2220 C   0  0  0  0  0  0  0  0  0  0  0  0
   35.4710   29.2250   35.8600 C   0  0  0  0  0  0  0  0  0  0  0  0
   35.4650   29.3630   37.1890 N   0  0  0  0  0  0  0  0  0  0  0  0
   36.5350   28.9940   37.9380 C   0  0  0  0  0  0  0  0  0  0  0  0
   37.6480   28.4730   37.3570 N   0  0  0  0  0  0  0  0  0  0  0  0
   38.6150   27.8920   35.5850 H   0  0  0  0  0  0  0  0  0  0  0  0
   36.6820   28.5480   34.1620 H   0  0  0  0  0  0  0  0  0  0  0  0
   34.6230   29.5120   35.2290 H   0  0  0  0  0  0  0  0  0  0  0  0
  1 10  1  0  0  0  0
  2  1  2  0  0  0  0
  2  3  1  0  0  0  0
  3  4  2  0  0  0  0
  4  5  1  0  0  0  0
  4 13  1  0  0  0  0
  5  6  1  0  0  0  0
  6  7  2  0  0  0  0
  6 14  1  0  0  0  0
  7 15  1  0  0  0  0
  8 16  1  0  0  0  0
  8  7  1  0  0  0  0
  9  8  2  0  0  0  0
 10  9  1  0  0  0  0
 10  5  2  0  0  0  0
 11  2  1  0  0  0  0
 12  3  1  0  0  0  0
 17 18  1  0  0  0  0
 17  9  1  0  0  0  0
 19 17  1  0  0  0  0
 19 18  1  0  0  0  0
 20  1  1  0  0  0  0
 20 21  1  0  0  0  0
 22 25  1  1  0  0  0
 22 23  1  0  0  0  0
 22 24  1  0  0  0  0
 23 24  1  0  0  0  0
 23 26  1  0  0  0  0
 24 28  1  6  0  0  0
 24 20  1  0  0  0  0
 27 23  1  0  0  0  0
 29 34  1  0  0  0  0
 30 31  1  0  0  0  0
 30 29  2  0  0  0  0
 31 32  2  0  0  0  0
 32 33  1  0  0  0  0
 33 22  1  0  0  0  0
 34 33  2  0  0  0  0
 35 29  1  0  0  0  0
 36 30  1  0  0  0  0
 37 31  1  0  0  0  0
M  END
>  <minimizedAffinity>
-5.5649991

$$$$
