
 OpenBabel03242510183D

 23 25  0  0  1  0  0  0  0  0999 V2000
   46.2540   32.1310   44.4400 C   0  0  1  0  0  0  0  0  0  0  0  0
   46.5920   31.5000   43.1990 C   0  0  0  0  0  0  0  0  0  0  0  0
   47.6980   32.1330   44.0060 C   0  0  1  0  0  0  0  0  0  0  0  0
   45.9850   31.5420   45.3340 H   0  0  0  0  0  0  0  0  0  0  0  0
   46.3990   32.0090   42.2260 H   0  0  0  0  0  0  0  0  0  0  0  0
   46.5540   30.4060   43.0890 H   0  0  0  0  0  0  0  0  0  0  0  0
   48.4030   31.3980   44.3670 H   0  0  0  0  0  0  0  0  0  0  0  0
   45.0370   34.0270   43.1930 C   0  0  0  0  0  0  0  0  0  0  0  0
   45.5300   33.4680   44.4040 C   0  0  0  0  0  0  0  0  0  0  0  0
   45.3460   34.1650   45.5700 C   0  0  0  0  0  0  0  0  0  0  0  0
   44.7020   35.3570   45.5280 N   0  0  0  0  0  0  0  0  0  0  0  0
   44.2310   35.8940   44.3850 C   0  0  0  0  0  0  0  0  0  0  0  0
   44.4040   35.2100   43.1910 N   0  0  0  0  0  0  0  0  0  0  0  0
   45.1880   33.4750   42.2970 H   0  0  0  0  0  0  0  0  0  0  0  0
   45.7150   33.7590   46.5030 H   0  0  0  0  0  0  0  0  0  0  0  0
   43.7390   36.8490   44.4990 H   0  0  0  0  0  0  0  0  0  0  0  0
   48.2130   33.3880   43.5600 N   0  0  0  0  0  0  0  0  0  0  0  0
   49.2390   33.4930   42.6180 C   0  0  0  0  0  0  0  0  0  0  0  0
   50.3680   32.8970   42.6010 O   0  0  0  0  0  0  0  0  0  0  0  0
   47.8730   34.3430   43.8910 H   0  0  0  0  0  0  0  0  0  0  0  0
   49.1470   34.3910   41.4010 C   0  0  0  0  0  0  0  0  0  0  0  0
   49.1190   35.9120   41.6660 C   0  0  0  0  0  0  0  0  0  0  0  0
   47.9120   35.1740   41.1580 C   0  0  0  0  0  0  0  0  0  0  0  0
  1  4  1  1  0  0  0
  2  3  1  0  0  0  0
  2  1  1  0  0  0  0
  3  7  1  1  0  0  0
  3  1  1  0  0  0  0
  5  2  1  0  0  0  0
  6  2  1  0  0  0  0
  8  9  1  0  0  0  0
  9  1  1  0  0  0  0
  9 10  2  0  0  0  0
 10 15  1  0  0  0  0
 11 10  1  0  0  0  0
 12 16  1  0  0  0  0
 12 11  2  0  0  0  0
 13  8  2  0  0  0  0
 13 12  1  0  0  0  0
 14  8  1  0  0  0  0
 17 20  1  0  0  0  0
 17  3  1  0  0  0  0
 18 17  1  0  0  0  0
 19 18  2  0  0  0  0
 21 22  1  0  0  0  0
 21 18  1  0  0  0  0
 23 21  1  0  0  0  0
 23 22  1  0  0  0  0
M  END
>  <minimizedAffinity>
-4.3805995

>  <minimizedRMSD>
2.09126425

$$$$
