
 OpenBabel03242519483D

 32 34  0  0  1  0  0  0  0  0999 V2000
   37.3790   29.2860   42.5140 C   0  0  2  0  0  0  0  0  0  0  0  0
   38.4730   29.6690   41.5940 C   0  0  1  0  0  0  0  0  0  0  0  0
   39.0500   28.3810   41.1850 O   0  0  0  0  0  0  0  0  0  0  0  0
   39.3010   27.9090   42.4900 C   0  0  0  0  0  0  0  0  0  0  0  0
   37.8460   27.9450   43.0610 C   0  0  2  0  0  0  0  0  0  0  0  0
   37.1920   30.0120   43.3270 H   0  0  0  0  0  0  0  0  0  0  0  0
   39.3080   30.1900   42.1280 H   0  0  0  0  0  0  0  0  0  0  0  0
   39.7280   26.9200   42.5060 H   0  0  0  0  0  0  0  0  0  0  0  0
   39.9420   28.6210   43.0290 H   0  0  0  0  0  0  0  0  0  0  0  0
   37.9470   27.9190   44.1630 H   0  0  0  0  0  0  0  0  0  0  0  0
   37.3370   32.5100   39.6240 C   0  0  0  0  0  0  0  0  0  0  0  0
   37.3300   32.0290   38.3080 C   0  0  0  0  0  0  0  0  0  0  0  0
   37.7140   30.6970   38.0790 C   0  0  0  0  0  0  0  0  0  0  0  0
   38.0750   29.9360   39.1460 N   0  0  0  0  0  0  0  0  0  0  0  0
   38.0720   30.4240   40.4060 C   0  0  0  0  0  0  0  0  0  0  0  0
   37.7040   31.7110   40.6590 N   0  0  0  0  0  0  0  0  0  0  0  0
   37.0360   32.6660   37.4930 H   0  0  0  0  0  0  0  0  0  0  0  0
   37.7270   30.2830   37.0990 H   0  0  0  0  0  0  0  0  0  0  0  0
   36.9640   33.8310   39.8960 O   0  0  0  0  0  0  0  0  0  0  0  0
   37.7380   34.4290   40.2020 H   0  0  0  0  0  0  0  0  0  0  0  0
   36.1780   29.0630   41.7630 O   0  0  0  0  0  0  0  0  0  0  0  0
   35.9800   28.1200   41.6650 H   0  0  0  0  0  0  0  0  0  0  0  0
   37.2090   26.9010   42.4760 O   0  0  0  0  0  0  0  0  0  0  0  0
   37.8100   25.6710   42.4450 C   0  0  0  0  0  0  0  0  0  0  0  0
   38.8380   25.6650   42.0710 H   0  0  0  0  0  0  0  0  0  0  0  0
   38.0240   25.4730   43.5930 H   0  0  0  0  0  0  0  0  0  0  0  0
   36.9300   24.5350   42.0870 C   0  0  0  0  0  0  0  0  0  0  0  0
   37.1680   23.5920   42.6160 H   0  0  0  0  0  0  0  0  0  0  0  0
   35.8620   24.8600   42.2250 H   0  0  0  0  0  0  0  0  0  0  0  0
   37.0860   24.1490   40.6070 C   0  0  0  0  0  3  0  0  0  0  0  0
   35.7780   23.6710   40.0060 C   0  0  0  0  0  2  0  0  0  0  0  0
   36.4310   24.9240   39.5490 C   0  0  0  0  0  2  0  0  0  0  0  0
  1  5  1  0  0  0  0
  1  6  1  1  0  0  0
  2  7  1  1  0  0  0
  2  1  1  0  0  0  0
  3  2  1  0  0  0  0
  3  4  1  0  0  0  0
  4  8  1  0  0  0  0
  4  9  1  0  0  0  0
  4  5  1  0  0  0  0
  5 10  1  1  0  0  0
 11 19  1  0  0  0  0
 11 16  1  0  0  0  0
 12 11  2  0  0  0  0
 13 12  1  0  0  0  0
 13 14  2  0  0  0  0
 14 15  1  0  0  0  0
 15 16  2  0  0  0  0
 15  2  1  0  0  0  0
 17 12  1  0  0  0  0
 18 13  1  0  0  0  0
 19 20  1  0  0  0  0
 21  1  1  0  0  0  0
 22 21  1  0  0  0  0
 23  5  1  0  0  0  0
 24 23  1  0  0  0  0
 24 26  1  0  0  0  0
 25 24  1  0  0  0  0
 27 29  1  0  0  0  0
 27 24  1  0  0  0  0
 27 28  1  0  0  0  0
 30 27  1  0  0  0  0
 31 30  1  0  0  0  0
 32 31  1  0  0  0  0
 32 30  1  0  0  0  0
M  END
>  <minimizedAffinity>
-5.03413677

$$$$

 OpenBabel03242519483D

 32 34  0  0  1  0  0  0  0  0999 V2000
   38.8620   31.0850   38.9940 C   0  0  2  0  0  0  0  0  0  0  0  0
   39.0210   32.5140   39.3410 C   0  0  1  0  0  0  0  0  0  0  0  0
   38.4770   32.6050   40.7030 O   0  0  0  0  0  0  0  0  0  0  0  0
   37.2190   32.0440   40.3980 C   0  0  0  0  0  0  0  0  0  0  0  0
   37.6820   30.6540   39.8530 C   0  0  2  0  0  0  0  0  0  0  0  0
   38.6730   30.8940   37.9210 H   0  0  0  0  0  0  0  0  0  0  0  0
   38.3520   33.1720   38.7310 H   0  0  0  0  0  0  0  0  0  0  0  0
   36.5760   31.9600   41.2580 H   0  0  0  0  0  0  0  0  0  0  0  0
   36.7340   32.6260   39.6010 H   0  0  0  0  0  0  0  0  0  0  0  0
   36.8290   30.2510   39.2750 H   0  0  0  0  0  0  0  0  0  0  0  0
   42.1170   33.8420   37.9620 C   0  0  0  0  0  0  0  0  0  0  0  0
   42.9290   34.0440   39.0860 C   0  0  0  0  0  0  0  0  0  0  0  0
   42.4170   33.7130   40.3520 C   0  0  0  0  0  0  0  0  0  0  0  0
   41.1560   33.2120   40.4280 N   0  0  0  0  0  0  0  0  0  0  0  0
   40.3930   33.0250   39.3280 C   0  0  0  0  0  0  0  0  0  0  0  0
   40.8630   33.3360   38.0880 N   0  0  0  0  0  0  0  0  0  0  0  0
   43.9220   34.4430   38.9800 H   0  0  0  0  0  0  0  0  0  0  0  0
   42.9920   33.8480   41.2370 H   0  0  0  0  0  0  0  0  0  0  0  0
   42.5870   34.1610   36.6830 O   0  0  0  0  0  0  0  0  0  0  0  0
   42.1210   34.9670   36.2560 H   0  0  0  0  0  0  0  0  0  0  0  0
   40.0170   30.3550   39.4310 O   0  0  0  0  0  0  0  0  0  0  0  0
   39.8400   29.8400   40.2320 H   0  0  0  0  0  0  0  0  0  0  0  0
   38.0710   29.9550   40.9470 O   0  0  0  0  0  0  0  0  0  0  0  0
   37.1580   29.6650   41.9250 C   0  0  0  0  0  0  0  0  0  0  0  0
   37.4440   29.9750   42.9350 H   0  0  0  0  0  0  0  0  0  0  0  0
   36.3080   30.4620   41.7150 H   0  0  0  0  0  0  0  0  0  0  0  0
   36.4340   28.3820   41.7680 C   0  0  0  0  0  0  0  0  0  0  0  0
   35.3310   28.4760   41.8020 H   0  0  0  0  0  0  0  0  0  0  0  0
   36.8050   27.8810   40.8320 H   0  0  0  0  0  0  0  0  0  0  0  0
   36.7350   27.4220   42.9300 C   0  0  0  0  0  3  0  0  0  0  0  0
   37.2960   26.1000   42.4420 C   0  0  0  0  0  2  0  0  0  0  0  0
   38.1100   27.0360   43.2580 C   0  0  0  0  0  2  0  0  0  0  0  0
  1  6  1  6  0  0  0
  1  2  1  0  0  0  0
  1 21  1  0  0  0  0
  1  5  1  0  0  0  0
  2  7  1  6  0  0  0
  2  3  1  0  0  0  0
  4  3  1  0  0  0  0
  4  8  1  0  0  0  0
  5 10  1  6  0  0  0
  5  4  1  0  0  0  0
  5 23  1  0  0  0  0
  9  4  1  0  0  0  0
 11 16  2  0  0  0  0
 11 12  1  0  0  0  0
 12 13  2  0  0  0  0
 13 14  1  0  0  0  0
 13 18  1  0  0  0  0
 15  2  1  0  0  0  0
 15 14  2  0  0  0  0
 16 15  1  0  0  0  0
 17 12  1  0  0  0  0
 19 11  1  0  0  0  0
 20 19  1  0  0  0  0
 21 22  1  0  0  0  0
 23 24  1  0  0  0  0
 24 25  1  0  0  0  0
 26 24  1  0  0  0  0
 27 28  1  0  0  0  0
 27 24  1  0  0  0  0
 27 30  1  0  0  0  0
 29 27  1  0  0  0  0
 30 32  1  0  0  0  0
 31 30  1  0  0  0  0
 31 32  1  0  0  0  0
M  END
>  <minimizedAffinity>
-4.96861172

$$$$

 OpenBabel03242519483D

 32 34  0  0  1  0  0  0  0  0999 V2000
   36.4740   28.9210   41.2480 C   0  0  2  0  0  0  0  0  0  0  0  0
   37.2810   29.9610   41.9250 C   0  0  1  0  0  0  0  0  0  0  0  0
   38.2900   29.1910   42.6650 O   0  0  0  0  0  0  0  0  0  0  0  0
   37.3750   28.3800   43.3660 C   0  0  0  0  0  0  0  0  0  0  0  0
   36.6440   27.7120   42.1570 C   0  0  2  0  0  0  0  0  0  0  0  0
   35.4080   29.1830   41.1180 H   0  0  0  0  0  0  0  0  0  0  0  0
   36.6990   30.4920   42.7210 H   0  0  0  0  0  0  0  0  0  0  0  0
   37.8550   27.6610   44.0090 H   0  0  0  0  0  0  0  0  0  0  0  0
   36.6770   29.0100   43.9360 H   0  0  0  0  0  0  0  0  0  0  0  0
   35.6910   27.3130   42.5560 H   0  0  0  0  0  0  0  0  0  0  0  0
   37.6570   32.8800   39.7840 C   0  0  0  0  0  0  0  0  0  0  0  0
   39.0110   32.8620   39.4220 C   0  0  0  0  0  0  0  0  0  0  0  0
   39.8220   31.8230   39.9100 C   0  0  0  0  0  0  0  0  0  0  0  0
   39.2550   30.8840   40.7130 N   0  0  0  0  0  0  0  0  0  0  0  0
   37.9470   30.9230   41.0470 C   0  0  0  0  0  0  0  0  0  0  0  0
   37.1360   31.9170   40.5880 N   0  0  0  0  0  0  0  0  0  0  0  0
   39.4170   33.6260   38.7830 H   0  0  0  0  0  0  0  0  0  0  0  0
   40.8560   31.7640   39.6650 H   0  0  0  0  0  0  0  0  0  0  0  0
   36.8140   33.8970   39.3230 O   0  0  0  0  0  0  0  0  0  0  0  0
   36.5050   34.5470   40.0520 H   0  0  0  0  0  0  0  0  0  0  0  0
   37.0670   28.6070   39.9800 O   0  0  0  0  0  0  0  0  0  0  0  0
   37.5380   27.7610   39.9990 H   0  0  0  0  0  0  0  0  0  0  0  0
   37.5280   26.8140   41.6590 O   0  0  0  0  0  0  0  0  0  0  0  0
   37.5330   25.5310   42.1360 C   0  0  0  0  0  0  0  0  0  0  0  0
   36.9780   25.3790   43.0680 H   0  0  0  0  0  0  0  0  0  0  0  0
   36.7970   24.9860   41.3860 H   0  0  0  0  0  0  0  0  0  0  0  0
   38.7940   24.7780   41.9440 C   0  0  0  0  0  0  0  0  0  0  0  0
   38.6530   23.6950   41.7650 H   0  0  0  0  0  0  0  0  0  0  0  0
   39.3870   25.2860   41.1350 H   0  0  0  0  0  0  0  0  0  0  0  0
   39.6630   24.8070   43.2120 C   0  0  0  0  0  3  0  0  0  0  0  0
   41.1170   25.1030   42.8950 C   0  0  0  0  0  2  0  0  0  0  0  0
   40.2840   26.0510   43.6770 C   0  0  0  0  0  2  0  0  0  0  0  0
  1  6  1  6  0  0  0
  1  2  1  0  0  0  0
  1  5  1  0  0  0  0
  2  3  1  0  0  0  0
  2  7  1  1  0  0  0
  3  4  1  0  0  0  0
  4  9  1  0  0  0  0
  4  8  1  0  0  0  0
  5 10  1  1  0  0  0
  5  4  1  0  0  0  0
 11 16  1  0  0  0  0
 12 11  2  0  0  0  0
 12 13  1  0  0  0  0
 13 14  2  0  0  0  0
 14 15  1  0  0  0  0
 15  2  1  0  0  0  0
 16 15  2  0  0  0  0
 17 12  1  0  0  0  0
 18 13  1  0  0  0  0
 19 11  1  0  0  0  0
 19 20  1  0  0  0  0
 21 22  1  0  0  0  0
 21  1  1  0  0  0  0
 23 24  1  0  0  0  0
 23  5  1  0  0  0  0
 24 25  1  0  0  0  0
 26 24  1  0  0  0  0
 27 24  1  0  0  0  0
 27 30  1  0  0  0  0
 28 27  1  0  0  0  0
 29 27  1  0  0  0  0
 30 32  1  0  0  0  0
 31 30  1  0  0  0  0
 31 32  1  0  0  0  0
M  END
>  <minimizedAffinity>
-4.86861849

$$$$

 OpenBabel03242519483D

 32 34  0  0  1  0  0  0  0  0999 V2000
   36.9990   28.2370   41.3400 C   0  0  2  0  0  0  0  0  0  0  0  0
   37.3020   29.4600   42.1160 C   0  0  1  0  0  0  0  0  0  0  0  0
   38.1800   28.9810   43.1920 O   0  0  0  0  0  0  0  0  0  0  0  0
   37.3000   27.9890   43.6730 C   0  0  0  0  0  0  0  0  0  0  0  0
   37.1480   27.1310   42.3760 C   0  0  2  0  0  0  0  0  0  0  0  0
   35.9950   28.2260   40.8780 H   0  0  0  0  0  0  0  0  0  0  0  0
   36.4000   29.8540   42.6490 H   0  0  0  0  0  0  0  0  0  0  0  0
   37.7080   27.4280   44.4970 H   0  0  0  0  0  0  0  0  0  0  0  0
   36.3370   28.4450   43.9470 H   0  0  0  0  0  0  0  0  0  0  0  0
   36.2340   26.5220   42.5160 H   0  0  0  0  0  0  0  0  0  0  0  0
   37.6570   32.5680   40.2550 C   0  0  0  0  0  0  0  0  0  0  0  0
   39.0340   32.6630   40.0140 C   0  0  0  0  0  0  0  0  0  0  0  0
   39.8700   31.6380   40.4870 C   0  0  0  0  0  0  0  0  0  0  0  0
   39.3040   30.6010   41.1600 N   0  0  0  0  0  0  0  0  0  0  0  0
   37.9730   30.5320   41.3790 C   0  0  0  0  0  0  0  0  0  0  0  0
   37.1370   31.5110   40.9310 N   0  0  0  0  0  0  0  0  0  0  0  0
   39.4390   33.5010   39.4760 H   0  0  0  0  0  0  0  0  0  0  0  0
   40.9220   31.6620   40.3310 H   0  0  0  0  0  0  0  0  0  0  0  0
   36.7890   33.5680   39.8040 O   0  0  0  0  0  0  0  0  0  0  0  0
   36.3760   34.1330   40.5520 H   0  0  0  0  0  0  0  0  0  0  0  0
   38.0080   28.0430   40.3400 O   0  0  0  0  0  0  0  0  0  0  0  0
   38.6280   27.3390   40.5800 H   0  0  0  0  0  0  0  0  0  0  0  0
   38.3200   26.4630   42.2520 O   0  0  0  0  0  0  0  0  0  0  0  0
   38.3320   25.0960   42.3150 C   0  0  0  0  0  0  0  0  0  0  0  0
   39.2810   24.6260   42.0370 H   0  0  0  0  0  0  0  0  0  0  0  0
   38.3590   24.9030   43.4830 H   0  0  0  0  0  0  0  0  0  0  0  0
   37.0750   24.4230   41.9130 C   0  0  0  0  0  0  0  0  0  0  0  0
   36.8920   23.4590   42.4250 H   0  0  0  0  0  0  0  0  0  0  0  0
   36.2300   25.1550   42.0350 H   0  0  0  0  0  0  0  0  0  0  0  0
   37.1030   24.0250   40.4280 C   0  0  0  0  0  3  0  0  0  0  0  0
   35.7340   23.5970   39.9320 C   0  0  0  0  0  2  0  0  0  0  0  0
   36.4010   24.8200   39.4170 C   0  0  0  0  0  2  0  0  0  0  0  0
  1  6  1  6  0  0  0
  1  2  1  0  0  0  0
  1  5  1  0  0  0  0
  2  7  1  1  0  0  0
  2  3  1  0  0  0  0
  3  4  1  0  0  0  0
  4  9  1  0  0  0  0
  4  8  1  0  0  0  0
  5 10  1  1  0  0  0
  5  4  1  0  0  0  0
 11 16  1  0  0  0  0
 12 11  2  0  0  0  0
 12 13  1  0  0  0  0
 13 14  2  0  0  0  0
 14 15  1  0  0  0  0
 15  2  1  0  0  0  0
 16 15  2  0  0  0  0
 17 12  1  0  0  0  0
 18 13  1  0  0  0  0
 19 11  1  0  0  0  0
 19 20  1  0  0  0  0
 21 22  1  0  0  0  0
 21  1  1  0  0  0  0
 23 24  1  0  0  0  0
 23  5  1  0  0  0  0
 24 26  1  0  0  0  0
 25 24  1  0  0  0  0
 27 29  1  0  0  0  0
 27 24  1  0  0  0  0
 27 28  1  0  0  0  0
 30 27  1  0  0  0  0
 31 30  1  0  0  0  0
 32 31  1  0  0  0  0
 32 30  1  0  0  0  0
M  END
>  <minimizedAffinity>
-4.85390329

$$$$

 OpenBabel03242519483D

 32 34  0  0  1  0  0  0  0  0999 V2000
   37.9370   29.7480   39.7700 C   0  0  2  0  0  0  0  0  0  0  0  0
   37.5440   31.1700   39.6610 C   0  0  1  0  0  0  0  0  0  0  0  0
   36.7280   31.3990   40.8610 O   0  0  0  0  0  0  0  0  0  0  0  0
   35.8150   30.3500   40.6230 C   0  0  0  0  0  0  0  0  0  0  0  0
   36.8100   29.1450   40.5970 C   0  0  2  0  0  0  0  0  0  0  0  0
   38.0500   29.2300   38.8000 H   0  0  0  0  0  0  0  0  0  0  0  0
   36.8400   31.3480   38.8090 H   0  0  0  0  0  0  0  0  0  0  0  0
   35.0700   30.2570   41.3950 H   0  0  0  0  0  0  0  0  0  0  0  0
   35.3450   30.4810   39.6370 H   0  0  0  0  0  0  0  0  0  0  0  0
   36.2770   28.3170   40.0910 H   0  0  0  0  0  0  0  0  0  0  0  0
   40.3710   33.0220   38.3100 C   0  0  0  0  0  0  0  0  0  0  0  0
   40.7200   33.9060   39.3390 C   0  0  0  0  0  0  0  0  0  0  0  0
   39.9810   33.8700   40.5340 C   0  0  0  0  0  0  0  0  0  0  0  0
   38.9600   32.9780   40.6350 N   0  0  0  0  0  0  0  0  0  0  0  0
   38.6440   32.1350   39.6280 C   0  0  0  0  0  0  0  0  0  0  0  0
   39.3430   32.1470   38.4580 N   0  0  0  0  0  0  0  0  0  0  0  0
   41.5360   34.5960   39.2160 H   0  0  0  0  0  0  0  0  0  0  0  0
   40.2050   34.5210   41.3460 H   0  0  0  0  0  0  0  0  0  0  0  0
   41.0780   33.0270   37.1030 O   0  0  0  0  0  0  0  0  0  0  0  0
   40.5420   33.3810   36.3050 H   0  0  0  0  0  0  0  0  0  0  0  0
   39.1480   29.6440   40.5320 O   0  0  0  0  0  0  0  0  0  0  0  0
   38.9850   29.3250   41.4320 H   0  0  0  0  0  0  0  0  0  0  0  0
   37.1670   28.9510   41.8890 O   0  0  0  0  0  0  0  0  0  0  0  0
   37.0710   27.7000   42.4390 C   0  0  0  0  0  0  0  0  0  0  0  0
   37.5010   27.5980   43.4400 H   0  0  0  0  0  0  0  0  0  0  0  0
   35.9220   27.6410   42.7180 H   0  0  0  0  0  0  0  0  0  0  0  0
   37.2240   26.5700   41.4940 C   0  0  0  0  0  0  0  0  0  0  0  0
   36.4820   26.5600   40.6720 H   0  0  0  0  0  0  0  0  0  0  0  0
   38.2880   26.5600   41.1270 H   0  0  0  0  0  0  0  0  0  0  0  0
   36.9860   25.2200   42.1900 C   0  0  0  0  0  3  0  0  0  0  0  0
   36.5870   24.1380   41.2050 C   0  0  0  0  0  2  0  0  0  0  0  0
   37.8700   24.0770   41.9500 C   0  0  0  0  0  2  0  0  0  0  0  0
  1  6  1  6  0  0  0
  1 21  1  0  0  0  0
  1  5  1  0  0  0  0
  2  7  1  6  0  0  0
  2  1  1  0  0  0  0
  2  3  1  0  0  0  0
  4  3  1  0  0  0  0
  4  8  1  0  0  0  0
  5 10  1  6  0  0  0
  5  4  1  0  0  0  0
  5 23  1  0  0  0  0
  9  4  1  0  0  0  0
 11 16  2  0  0  0  0
 11 12  1  0  0  0  0
 12 13  2  0  0  0  0
 13 14  1  0  0  0  0
 13 18  1  0  0  0  0
 15  2  1  0  0  0  0
 15 14  2  0  0  0  0
 16 15  1  0  0  0  0
 17 12  1  0  0  0  0
 19 11  1  0  0  0  0
 20 19  1  0  0  0  0
 21 22  1  0  0  0  0
 23 24  1  0  0  0  0
 24 26  1  0  0  0  0
 24 25  1  0  0  0  0
 27 30  1  0  0  0  0
 27 24  1  0  0  0  0
 28 27  1  0  0  0  0
 29 27  1  0  0  0  0
 31 32  1  0  0  0  0
 31 30  1  0  0  0  0
 32 30  1  0  0  0  0
M  END
>  <minimizedAffinity>
-4.71493816

$$$$

 OpenBabel03242519483D

 32 34  0  0  1  0  0  0  0  0999 V2000
   35.7570   29.8970   40.0470 C   0  0  2  0  0  0  0  0  0  0  0  0
   36.6030   30.4600   41.1210 C   0  0  1  0  0  0  0  0  0  0  0  0
   37.5000   29.3510   41.4760 O   0  0  0  0  0  0  0  0  0  0  0  0
   36.4800   28.4130   41.7400 C   0  0  0  0  0  0  0  0  0  0  0  0
   35.7710   28.4050   40.3480 C   0  0  2  0  0  0  0  0  0  0  0  0
   34.7260   30.2950   40.0220 H   0  0  0  0  0  0  0  0  0  0  0  0
   36.0200   30.6550   42.0570 H   0  0  0  0  0  0  0  0  0  0  0  0
   36.8610   27.4450   42.0190 H   0  0  0  0  0  0  0  0  0  0  0  0
   35.8030   28.8060   42.5130 H   0  0  0  0  0  0  0  0  0  0  0  0
   34.7670   27.9710   40.5170 H   0  0  0  0  0  0  0  0  0  0  0  0
   39.5030   32.6530   40.9520 C   0  0  0  0  0  0  0  0  0  0  0  0
   39.0730   33.7220   40.1550 C   0  0  0  0  0  0  0  0  0  0  0  0
   37.7560   33.7060   39.6650 C   0  0  0  0  0  0  0  0  0  0  0  0
   36.9600   32.6530   39.9870 N   0  0  0  0  0  0  0  0  0  0  0  0
   37.3980   31.6340   40.7580 C   0  0  0  0  0  0  0  0  0  0  0  0
   38.6690   31.6220   41.2480 N   0  0  0  0  0  0  0  0  0  0  0  0
   39.7380   34.5350   39.9250 H   0  0  0  0  0  0  0  0  0  0  0  0
   37.3810   34.4930   39.0550 H   0  0  0  0  0  0  0  0  0  0  0  0
   40.8080   32.6270   41.4580 O   0  0  0  0  0  0  0  0  0  0  0  0
   41.4040   31.9060   41.0410 H   0  0  0  0  0  0  0  0  0  0  0  0
   36.3960   30.0980   38.7790 O   0  0  0  0  0  0  0  0  0  0  0  0
   36.7950   29.2830   38.4400 H   0  0  0  0  0  0  0  0  0  0  0  0
   36.6070   27.7230   39.5280 O   0  0  0  0  0  0  0  0  0  0  0  0
   36.3000   26.4400   39.1600 C   0  0  0  0  0  0  0  0  0  0  0  0
   35.2370   26.1840   39.2100 H   0  0  0  0  0  0  0  0  0  0  0  0
   36.4300   26.4830   37.9840 H   0  0  0  0  0  0  0  0  0  0  0  0
   37.2860   25.4060   39.5500 C   0  0  0  0  0  0  0  0  0  0  0  0
   37.5720   24.7190   38.7310 H   0  0  0  0  0  0  0  0  0  0  0  0
   38.1680   25.9210   40.0220 H   0  0  0  0  0  0  0  0  0  0  0  0
   36.7110   24.4550   40.6130 C   0  0  0  0  0  3  0  0  0  0  0  0
   37.8040   23.7100   41.3560 C   0  0  0  0  0  2  0  0  0  0  0  0
   36.9300   24.6940   42.0420 C   0  0  0  0  0  2  0  0  0  0  0  0
  1  6  1  1  0  0  0
  1  5  1  0  0  0  0
  1  2  1  0  0  0  0
  2  3  1  0  0  0  0
  2  7  1  1  0  0  0
  3  4  1  0  0  0  0
  4  8  1  0  0  0  0
  4  9  1  0  0  0  0
  5 10  1  1  0  0  0
  5  4  1  0  0  0  0
 11 16  1  0  0  0  0
 11 19  1  0  0  0  0
 12 11  2  0  0  0  0
 13 14  2  0  0  0  0
 13 12  1  0  0  0  0
 14 15  1  0  0  0  0
 15  2  1  0  0  0  0
 15 16  2  0  0  0  0
 17 12  1  0  0  0  0
 18 13  1  0  0  0  0
 20 19  1  0  0  0  0
 21  1  1  0  0  0  0
 22 21  1  0  0  0  0
 23  5  1  0  0  0  0
 24 25  1  0  0  0  0
 24 23  1  0  0  0  0
 24 27  1  0  0  0  0
 26 24  1  0  0  0  0
 27 29  1  0  0  0  0
 27 30  1  0  0  0  0
 28 27  1  0  0  0  0
 30 31  1  0  0  0  0
 30 32  1  0  0  0  0
 31 32  1  0  0  0  0
M  END
>  <minimizedAffinity>
-4.59202957

$$$$

 OpenBabel03242519483D

 32 34  0  0  1  0  0  0  0  0999 V2000
   35.8160   30.0230   40.4560 C   0  0  2  0  0  0  0  0  0  0  0  0
   36.4170   30.4700   39.1800 C   0  0  1  0  0  0  0  0  0  0  0  0
   37.8590   30.2740   39.3880 O   0  0  0  0  0  0  0  0  0  0  0  0
   37.9460   31.0440   40.5660 C   0  0  0  0  0  0  0  0  0  0  0  0
   36.9340   30.2580   41.4610 C   0  0  2  0  0  0  0  0  0  0  0  0
   34.8950   30.5640   40.7400 H   0  0  0  0  0  0  0  0  0  0  0  0
   36.3070   31.5730   39.0270 H   0  0  0  0  0  0  0  0  0  0  0  0
   38.9390   31.0650   40.9830 H   0  0  0  0  0  0  0  0  0  0  0  0
   37.5790   32.0630   40.3760 H   0  0  0  0  0  0  0  0  0  0  0  0
   36.6580   30.9420   42.2870 H   0  0  0  0  0  0  0  0  0  0  0  0
   36.7050   28.8530   35.9320 C   0  0  0  0  0  0  0  0  0  0  0  0
   35.4190   28.3520   35.6880 C   0  0  0  0  0  0  0  0  0  0  0  0
   34.4190   28.5750   36.6490 C   0  0  0  0  0  0  0  0  0  0  0  0
   34.7450   29.2670   37.7730 N   0  0  0  0  0  0  0  0  0  0  0  0
   35.9930   29.7410   37.9840 C   0  0  0  0  0  0  0  0  0  0  0  0
   36.9830   29.5400   37.0700 N   0  0  0  0  0  0  0  0  0  0  0  0
   35.2050   27.8100   34.7840 H   0  0  0  0  0  0  0  0  0  0  0  0
   33.4270   28.2160   36.5130 H   0  0  0  0  0  0  0  0  0  0  0  0
   37.7310   28.6500   35.0030 O   0  0  0  0  0  0  0  0  0  0  0  0
   38.4620   28.0070   35.3210 H   0  0  0  0  0  0  0  0  0  0  0  0
   35.5640   28.6120   40.3970 O   0  0  0  0  0  0  0  0  0  0  0  0
   36.2130   28.1060   40.9070 H   0  0  0  0  0  0  0  0  0  0  0  0
   37.5730   29.1120   41.7980 O   0  0  0  0  0  0  0  0  0  0  0  0
   37.8170   28.8330   43.1160 C   0  0  0  0  0  0  0  0  0  0  0  0
   38.4400   29.5660   43.6380 H   0  0  0  0  0  0  0  0  0  0  0  0
   36.7730   29.0800   43.6180 H   0  0  0  0  0  0  0  0  0  0  0  0
   37.9960   27.4010   43.4480 C   0  0  0  0  0  0  0  0  0  0  0  0
   39.0010   27.1470   43.8360 H   0  0  0  0  0  0  0  0  0  0  0  0
   37.1660   27.0930   44.1410 H   0  0  0  0  0  0  0  0  0  0  0  0
   37.8750   26.5160   42.1960 C   0  0  0  0  0  3  0  0  0  0  0  0
   38.5120   25.1550   42.4030 C   0  0  0  0  0  2  0  0  0  0  0  0
   37.0490   25.3050   42.2010 C   0  0  0  0  0  2  0  0  0  0  0  0
  1  6  1  1  0  0  0
  1  5  1  0  0  0  0
  2  7  1  6  0  0  0
  2  3  1  0  0  0  0
  2  1  1  0  0  0  0
  3  4  1  0  0  0  0
  4  8  1  0  0  0  0
  4  5  1  0  0  0  0
  5 23  1  0  0  0  0
  5 10  1  1  0  0  0
  9  4  1  0  0  0  0
 11 16  1  0  0  0  0
 12 11  2  0  0  0  0
 12 13  1  0  0  0  0
 13 14  2  0  0  0  0
 14 15  1  0  0  0  0
 15  2  1  0  0  0  0
 16 15  2  0  0  0  0
 17 12  1  0  0  0  0
 18 13  1  0  0  0  0
 19 20  1  0  0  0  0
 19 11  1  0  0  0  0
 21  1  1  0  0  0  0
 21 22  1  0  0  0  0
 23 24  1  0  0  0  0
 24 27  1  0  0  0  0
 24 26  1  0  0  0  0
 24 25  1  0  0  0  0
 27 28  1  0  0  0  0
 27 29  1  0  0  0  0
 30 32  1  0  0  0  0
 30 31  1  0  0  0  0
 30 27  1  0  0  0  0
 32 31  1  0  0  0  0
M  END
>  <minimizedAffinity>
-4.52721453

$$$$

 OpenBabel03242519483D

 32 34  0  0  1  0  0  0  0  0999 V2000
   36.5600   29.0400   41.5520 C   0  0  2  0  0  0  0  0  0  0  0  0
   37.5680   28.1350   40.9580 C   0  0  1  0  0  0  0  0  0  0  0  0
   38.4000   29.0280   40.1410 O   0  0  0  0  0  0  0  0  0  0  0  0
   37.3400   29.5670   39.3830 C   0  0  0  0  0  0  0  0  0  0  0  0
   36.4800   30.1730   40.5380 C   0  0  2  0  0  0  0  0  0  0  0  0
   35.5710   28.5760   41.7190 H   0  0  0  0  0  0  0  0  0  0  0  0
   37.1140   27.4260   40.2200 H   0  0  0  0  0  0  0  0  0  0  0  0
   37.6640   30.3100   38.6730 H   0  0  0  0  0  0  0  0  0  0  0  0
   36.7910   28.7580   38.8790 H   0  0  0  0  0  0  0  0  0  0  0  0
   35.4670   30.3290   40.1180 H   0  0  0  0  0  0  0  0  0  0  0  0
   38.9430   25.2980   42.7770 C   0  0  0  0  0  0  0  0  0  0  0  0
   39.9320   25.8640   43.5920 C   0  0  0  0  0  0  0  0  0  0  0  0
   40.1360   27.2530   43.5310 C   0  0  0  0  0  0  0  0  0  0  0  0
   39.3640   27.9840   42.6830 N   0  0  0  0  0  0  0  0  0  0  0  0
   38.4150   27.4130   41.9090 C   0  0  0  0  0  0  0  0  0  0  0  0
   38.1940   26.0690   41.9460 N   0  0  0  0  0  0  0  0  0  0  0  0
   40.5200   25.2480   44.2480 H   0  0  0  0  0  0  0  0  0  0  0  0
   40.8750   27.7330   44.1280 H   0  0  0  0  0  0  0  0  0  0  0  0
   38.7080   23.9180   42.8040 O   0  0  0  0  0  0  0  0  0  0  0  0
   38.9900   23.4300   41.9490 H   0  0  0  0  0  0  0  0  0  0  0  0
   37.0670   29.5820   42.7800 O   0  0  0  0  0  0  0  0  0  0  0  0
   37.3520   30.5020   42.6810 H   0  0  0  0  0  0  0  0  0  0  0  0
   37.1560   31.2750   40.9440 O   0  0  0  0  0  0  0  0  0  0  0  0
   37.1670   32.3930   40.1530 C   0  0  0  0  0  0  0  0  0  0  0  0
   36.5050   32.3530   39.2820 H   0  0  0  0  0  0  0  0  0  0  0  0
   36.5650   33.1690   40.8140 H   0  0  0  0  0  0  0  0  0  0  0  0
   38.4810   33.0590   40.0010 C   0  0  0  0  0  0  0  0  0  0  0  0
   38.8460   33.1110   38.9570 H   0  0  0  0  0  0  0  0  0  0  0  0
   38.4250   34.0660   40.4990 H   0  0  0  0  0  0  0  0  0  0  0  0
   39.5940   32.2750   40.7160 C   0  0  0  0  0  3  0  0  0  0  0  0
   40.6540   31.7870   39.7480 C   0  0  0  0  0  2  0  0  0  0  0  0
   40.9610   32.7980   40.7910 C   0  0  0  0  0  2  0  0  0  0  0  0
  1  6  1  1  0  0  0
  1 21  1  0  0  0  0
  2  7  1  6  0  0  0
  2  1  1  0  0  0  0
  2 15  1  0  0  0  0
  3  2  1  0  0  0  0
  4  3  1  0  0  0  0
  4  5  1  0  0  0  0
  5 10  1  6  0  0  0
  5 23  1  0  0  0  0
  5  1  1  0  0  0  0
  8  4  1  0  0  0  0
  9  4  1  0  0  0  0
 11 19  1  0  0  0  0
 11 12  1  0  0  0  0
 12 17  1  0  0  0  0
 13 12  2  0  0  0  0
 13 18  1  0  0  0  0
 14 13  1  0  0  0  0
 15 16  1  0  0  0  0
 15 14  2  0  0  0  0
 16 11  2  0  0  0  0
 20 19  1  0  0  0  0
 22 21  1  0  0  0  0
 24 26  1  0  0  0  0
 24 23  1  0  0  0  0
 25 24  1  0  0  0  0
 27 24  1  0  0  0  0
 27 29  1  0  0  0  0
 27 30  1  0  0  0  0
 28 27  1  0  0  0  0
 30 32  1  0  0  0  0
 31 30  1  0  0  0  0
 31 32  1  0  0  0  0
M  END
>  <minimizedAffinity>
-4.49422503

$$$$

 OpenBabel03242519483D

 32 34  0  0  1  0  0  0  0  0999 V2000
   37.0100   30.7440   41.1790 C   0  0  2  0  0  0  0  0  0  0  0  0
   38.3160   30.3150   40.6330 C   0  0  1  0  0  0  0  0  0  0  0  0
   37.9530   29.4140   39.5300 O   0  0  0  0  0  0  0  0  0  0  0  0
   37.1450   28.5520   40.3010 C   0  0  0  0  0  0  0  0  0  0  0  0
   36.0920   29.5840   40.8200 C   0  0  2  0  0  0  0  0  0  0  0  0
   37.0120   30.9370   42.2680 H   0  0  0  0  0  0  0  0  0  0  0  0
   38.8780   29.6630   41.3490 H   0  0  0  0  0  0  0  0  0  0  0  0
   36.7000   27.7610   39.7220 H   0  0  0  0  0  0  0  0  0  0  0  0
   37.7280   28.1440   41.1400 H   0  0  0  0  0  0  0  0  0  0  0  0
   35.6030   29.1110   41.6940 H   0  0  0  0  0  0  0  0  0  0  0  0
   40.0490   32.3820   38.1890 C   0  0  0  0  0  0  0  0  0  0  0  0
   40.7120   33.3410   38.9660 C   0  0  0  0  0  0  0  0  0  0  0  0
   40.5760   33.2830   40.3640 C   0  0  0  0  0  0  0  0  0  0  0  0
   39.8060   32.2980   40.8970 N   0  0  0  0  0  0  0  0  0  0  0  0
   39.1780   31.3840   40.1260 C   0  0  0  0  0  0  0  0  0  0  0  0
   39.2920   31.4140   38.7680 N   0  0  0  0  0  0  0  0  0  0  0  0
   41.3110   34.1030   38.5010 H   0  0  0  0  0  0  0  0  0  0  0  0
   41.0570   33.9880   40.9990 H   0  0  0  0  0  0  0  0  0  0  0  0
   40.1560   32.4040   36.7940 O   0  0  0  0  0  0  0  0  0  0  0  0
   39.2910   32.6670   36.3130 H   0  0  0  0  0  0  0  0  0  0  0  0
   36.5530   31.9040   40.4710 O   0  0  0  0  0  0  0  0  0  0  0  0
   35.8480   31.6920   39.8420 H   0  0  0  0  0  0  0  0  0  0  0  0
   35.3080   29.8600   39.7500 O   0  0  0  0  0  0  0  0  0  0  0  0
   34.2270   29.0650   39.4780 C   0  0  0  0  0  0  0  0  0  0  0  0
   33.9030   28.4220   40.3020 H   0  0  0  0  0  0  0  0  0  0  0  0
   33.3380   29.8460   39.4850 H   0  0  0  0  0  0  0  0  0  0  0  0
   34.1600   28.5220   38.1010 C   0  0  0  0  0  0  0  0  0  0  0  0
   34.4310   27.4510   38.0220 H   0  0  0  0  0  0  0  0  0  0  0  0
   33.1420   28.7510   37.6820 H   0  0  0  0  0  0  0  0  0  0  0  0
   35.1810   29.2060   37.1770 C   0  0  0  0  0  3  0  0  0  0  0  0
   36.0350   28.1970   36.4330 C   0  0  0  0  0  2  0  0  0  0  0  0
   35.0840   29.0860   35.7200 C   0  0  0  0  0  2  0  0  0  0  0  0
  1  6  1  1  0  0  0
  2  1  1  0  0  0  0
  2  7  1  1  0  0  0
  3  4  1  0  0  0  0
  3  2  1  0  0  0  0
  4  5  1  0  0  0  0
  4  9  1  0  0  0  0
  5  1  1  0  0  0  0
  5 10  1  1  0  0  0
  8  4  1  0  0  0  0
 11 16  2  0  0  0  0
 11 12  1  0  0  0  0
 12 13  2  0  0  0  0
 13 14  1  0  0  0  0
 13 18  1  0  0  0  0
 15  2  1  0  0  0  0
 15 14  2  0  0  0  0
 16 15  1  0  0  0  0
 17 12  1  0  0  0  0
 19 11  1  0  0  0  0
 20 19  1  0  0  0  0
 21  1  1  0  0  0  0
 22 21  1  0  0  0  0
 23  5  1  0  0  0  0
 24 26  1  0  0  0  0
 24 23  1  0  0  0  0
 24 25  1  0  0  0  0
 27 24  1  0  0  0  0
 28 27  1  0  0  0  0
 29 27  1  0  0  0  0
 30 27  1  0  0  0  0
 31 30  1  0  0  0  0
 32 31  1  0  0  0  0
 32 30  1  0  0  0  0
M  END
>  <minimizedAffinity>
-4.46218681

$$$$
