
 OpenBabel03252508433D

 25 27  0  0  0  0  0  0  0  0999 V2000
   45.4040   34.0490   41.4720 C   0  0  0  0  0  0  0  0  0  0  0  0
   46.6840   33.6470   41.1560 C   0  0  0  0  0  0  0  0  0  0  0  0
   46.9680   33.1630   39.9030 C   0  0  0  0  0  0  0  0  0  0  0  0
   45.9420   33.0890   38.9760 C   0  0  0  0  0  0  0  0  0  0  0  0
   44.6650   33.4750   39.2480 C   0  0  0  0  0  0  0  0  0  0  0  0
   44.4220   33.9640   40.5410 C   0  0  0  0  0  0  0  0  0  0  0  0
   47.9750   32.8390   39.6340 H   0  0  0  0  0  0  0  0  0  0  0  0
   46.2110   32.7020   38.0010 H   0  0  0  0  0  0  0  0  0  0  0  0
   43.8780   33.3980   38.5060 H   0  0  0  0  0  0  0  0  0  0  0  0
   43.4130   34.2740   40.7640 H   0  0  0  0  0  0  0  0  0  0  0  0
   44.6520   36.2080   44.4840 C   0  0  0  0  0  0  0  0  0  0  0  0
   44.8330   35.8470   43.1350 C   0  0  0  0  0  0  0  0  0  0  0  0
   45.1860   34.5470   42.8240 C   0  0  0  0  0  0  0  0  0  0  0  0
   45.3300   33.7180   43.8670 N   0  0  0  0  0  0  0  0  0  0  0  0
   45.1610   34.0440   45.1600 C   0  0  0  0  0  0  0  0  0  0  0  0
   44.8190   35.3060   45.4650 N   0  0  0  0  0  0  0  0  0  0  0  0
   44.3760   37.2380   44.7340 H   0  0  0  0  0  0  0  0  0  0  0  0
   44.7030   36.5430   42.3390 H   0  0  0  0  0  0  0  0  0  0  0  0
   45.3250   33.2200   45.8430 H   0  0  0  0  0  0  0  0  0  0  0  0
   47.7740   33.7330   42.1860 C   0  0  0  0  0  0  0  0  0  0  0  0
   48.0250   32.7490   42.6100 H   0  0  0  0  0  0  0  0  0  0  0  0
   47.3970   34.3620   43.0060 H   0  0  0  0  0  0  0  0  0  0  0  0
   48.9410   34.4480   41.5560 C   0  0  0  0  0  3  0  0  0  0  0  0
   48.9840   35.9190   41.5030 C   0  0  0  0  0  2  0  0  0  0  0  0
   49.9020   35.1560   42.4300 C   0  0  0  0  0  2  0  0  0  0  0  0
  1 13  1  0  0  0  0
  2  1  1  0  0  0  0
  2 20  1  0  0  0  0
  3  2  2  0  0  0  0
  4  5  2  0  0  0  0
  4  3  1  0  0  0  0
  5  6  1  0  0  0  0
  6 10  1  0  0  0  0
  6  1  2  0  0  0  0
  7  3  1  0  0  0  0
  8  4  1  0  0  0  0
  9  5  1  0  0  0  0
 11 17  1  0  0  0  0
 11 16  1  0  0  0  0
 12 11  2  0  0  0  0
 13 12  1  0  0  0  0
 13 14  2  0  0  0  0
 14 15  1  0  0  0  0
 15 16  2  0  0  0  0
 15 19  1  0  0  0  0
 18 12  1  0  0  0  0
 20 21  1  0  0  0  0
 20 22  1  0  0  0  0
 23 20  1  0  0  0  0
 23 25  1  0  0  0  0
 24 23  1  0  0  0  0
 24 25  1  0  0  0  0
M  END
>  <minimizedAffinity>
-4.7647872

>  <minimizedRMSD>
1.62416828

$$$$
