
 OpenBabel03252505113D

 38 41  0  0  1  0  0  0  0  0999 V2000
   44.5710   35.5890   44.6080 C   0  0  0  0  0  0  0  0  0  0  0  0
   45.2310   35.5960   43.3580 C   0  0  0  0  0  0  0  0  0  0  0  0
   46.3070   34.6950   43.1790 C   0  0  0  0  0  0  0  0  0  0  0  0
   46.6740   33.8590   44.1970 N   0  0  0  0  0  0  0  0  0  0  0  0
   46.0130   33.8920   45.3690 C   0  0  0  0  0  0  0  0  0  0  0  0
   44.9620   34.7510   45.5860 N   0  0  0  0  0  0  0  0  0  0  0  0
   43.7510   36.2500   44.8010 H   0  0  0  0  0  0  0  0  0  0  0  0
   44.9230   36.2610   42.5780 H   0  0  0  0  0  0  0  0  0  0  0  0
   46.4350   32.9740   46.4660 C   0  0  2  0  0  0  0  0  0  0  0  0
   46.9620   31.7410   45.7630 C   0  0  0  0  0  0  0  0  0  0  0  0
   46.0870   30.5600   45.7790 C   0  0  0  0  0  0  0  0  0  0  0  0
   45.8170   30.2900   47.2570 C   0  0  0  0  0  0  0  0  0  0  0  0
   45.0170   31.3660   47.8670 C   0  0  0  0  0  0  0  0  0  0  0  0
   45.3880   32.7320   47.4150 C   0  0  0  0  0  0  0  0  0  0  0  0
   47.2850   33.4990   46.9610 H   0  0  0  0  0  0  0  0  0  0  0  0
   47.9170   31.4600   46.2540 H   0  0  0  0  0  0  0  0  0  0  0  0
   47.2490   31.9380   44.7030 H   0  0  0  0  0  0  0  0  0  0  0  0
   46.6860   29.6920   45.4390 H   0  0  0  0  0  0  0  0  0  0  0  0
   45.1650   30.6140   45.1880 H   0  0  0  0  0  0  0  0  0  0  0  0
   46.7770   30.1650   47.7610 H   0  0  0  0  0  0  0  0  0  0  0  0
   45.1760   29.3990   47.2720 H   0  0  0  0  0  0  0  0  0  0  0  0
   44.2070   31.3470   48.5840 H   0  0  0  0  0  0  0  0  0  0  0  0
   44.6830   33.8740   47.9280 N   0  0  0  0  0  0  0  0  0  0  0  0
   45.1130   34.3380   48.7390 H   0  0  0  0  0  0  0  0  0  0  0  0
   43.7950   34.3360   47.6290 H   0  0  0  0  0  0  0  0  0  0  0  0
   47.0010   34.6770   41.9000 C   0  0  0  0  0  0  0  0  0  0  0  0
   48.1430   35.3820   41.7690 C   0  0  0  0  0  0  0  0  0  0  0  0
   48.7650   35.3200   40.5060 C   0  0  0  0  0  0  0  0  0  0  0  0
   48.1650   34.5620   39.5370 C   0  0  0  0  0  0  0  0  0  0  0  0
   47.0180   33.8540   39.6710 C   0  0  0  0  0  0  0  0  0  0  0  0
   46.4450   33.9410   40.9130 N   0  0  0  0  0  0  0  0  0  0  0  0
   48.5580   35.9560   42.5680 H   0  0  0  0  0  0  0  0  0  0  0  0
   49.6760   35.8600   40.3380 H   0  0  0  0  0  0  0  0  0  0  0  0
   48.6700   34.5390   38.5810 H   0  0  0  0  0  0  0  0  0  0  0  0
   46.4410   33.0900   38.6530 O   0  0  0  0  0  0  0  0  0  0  0  0
   45.1350   32.6140   38.8490 C   0  0  0  0  0  0  0  0  0  0  0  0
   44.4120   32.0030   37.6140 C   0  0  0  0  0  0  0  0  0  0  0  0
   43.9860   33.3120   38.2440 C   0  0  0  0  0  0  0  0  0  0  0  0
  1  7  1  0  0  0  0
  1  6  1  0  0  0  0
  2  1  2  0  0  0  0
  3  2  1  0  0  0  0
  3  4  2  0  0  0  0
  4  5  1  0  0  0  0
  5  6  2  0  0  0  0
  5  9  1  0  0  0  0
  8  2  1  0  0  0  0
  9 15  1  1  0  0  0
  9 14  1  0  0  0  0
 10 11  1  0  0  0  0
 10 16  1  0  0  0  0
 10  9  1  0  0  0  0
 11 12  1  0  0  0  0
 12 21  1  0  0  0  0
 12 20  1  0  0  0  0
 12 13  1  0  0  0  0
 13 22  1  0  0  0  0
 14 13  2  0  0  0  0
 14 23  1  0  0  0  0
 17 10  1  0  0  0  0
 18 11  1  0  0  0  0
 19 11  1  0  0  0  0
 23 24  1  0  0  0  0
 25 23  1  0  0  0  0
 26  3  1  0  0  0  0
 27 26  1  0  0  0  0
 27 32  1  0  0  0  0
 28 27  2  0  0  0  0
 29 30  2  0  0  0  0
 29 28  1  0  0  0  0
 30 31  1  0  0  0  0
 31 26  2  0  0  0  0
 33 28  1  0  0  0  0
 34 29  1  0  0  0  0
 35 36  1  0  0  0  0
 35 30  1  0  0  0  0
 37 38  1  0  0  0  0
 37 36  1  0  0  0  0
 38 36  1  0  0  0  0
M  END
>  <minimizedAffinity>
-6.72273445

>  <minimizedRMSD>
0.698918223

$$$$
