
 OpenBabel03242522343D

 27 29  0  0  0  0  0  0  0  0999 V2000
   47.0130   32.5820   45.4660 C   0  0  0  0  0  0  0  0  0  0  0  0
   47.3940   32.6990   44.1370 C   0  0  0  0  0  0  0  0  0  0  0  0
   47.6510   31.5420   43.4430 C   0  0  0  0  0  0  0  0  0  0  0  0
   47.5520   30.2690   43.9940 C   0  0  0  0  0  0  0  0  0  0  0  0
   47.1730   30.1830   45.3150 C   0  0  0  0  0  0  0  0  0  0  0  0
   46.9090   31.3210   46.0340 C   0  0  0  0  0  0  0  0  0  0  0  0
   47.9480   31.6370   42.4080 H   0  0  0  0  0  0  0  0  0  0  0  0
   47.7720   29.3960   43.3820 H   0  0  0  0  0  0  0  0  0  0  0  0
   47.1120   29.1750   45.6910 H   0  0  0  0  0  0  0  0  0  0  0  0
   47.5310   34.0100   43.4540 C   0  0  0  0  0  0  0  0  0  0  0  0
   47.8880   34.7180   44.2550 H   0  0  0  0  0  0  0  0  0  0  0  0
   48.2760   33.9680   42.6630 H   0  0  0  0  0  0  0  0  0  0  0  0
   44.2270   35.7000   43.3100 C   0  0  0  0  0  0  0  0  0  0  0  0
   43.8270   35.4260   42.0110 C   0  0  0  0  0  0  0  0  0  0  0  0
   44.6900   34.6710   41.2120 C   0  0  0  0  0  0  0  0  0  0  0  0
   45.8740   34.2360   41.7210 N   0  0  0  0  0  0  0  0  0  0  0  0
   46.2240   34.5350   43.0140 C   0  0  0  0  0  0  0  0  0  0  0  0
   45.3900   35.2560   43.7620 N   0  0  0  0  0  0  0  0  0  0  0  0
   43.6240   36.2820   44.0150 H   0  0  0  0  0  0  0  0  0  0  0  0
   42.8750   35.8080   41.6890 H   0  0  0  0  0  0  0  0  0  0  0  0
   44.3850   34.4530   40.1940 H   0  0  0  0  0  0  0  0  0  0  0  0
   46.7500   33.7170   46.1870 O   0  0  0  0  0  0  0  0  0  0  0  0
   45.7950   34.0330   46.2630 H   0  0  0  0  0  0  0  0  0  0  0  0
   46.5330   31.2340   47.3470 O   0  0  0  0  0  0  0  0  0  0  0  0
   45.2770   30.9940   47.8790 C   0  0  0  0  0  0  0  0  0  0  0  0
   45.1600   31.2750   49.3950 C   0  0  0  0  0  0  0  0  0  0  0  0
   45.0360   29.9120   48.8730 C   0  0  0  0  0  0  0  0  0  0  0  0
  1  6  1  0  0  0  0
  1 22  1  0  0  0  0
  2  1  2  0  0  0  0
  3  4  2  0  0  0  0
  3  2  1  0  0  0  0
  4  5  1  0  0  0  0
  5  9  1  0  0  0  0
  5  6  2  0  0  0  0
  6 24  1  0  0  0  0
  7  3  1  0  0  0  0
  8  4  1  0  0  0  0
 10  2  1  0  0  0  0
 10 11  1  0  0  0  0
 12 10  1  0  0  0  0
 13 18  1  0  0  0  0
 13 19  1  0  0  0  0
 14 13  2  0  0  0  0
 15 16  2  0  0  0  0
 15 14  1  0  0  0  0
 16 17  1  0  0  0  0
 17 10  1  0  0  0  0
 17 18  2  0  0  0  0
 20 14  1  0  0  0  0
 21 15  1  0  0  0  0
 22 23  1  0  0  0  0
 24 25  1  0  0  0  0
 25 27  1  0  0  0  0
 25 26  1  0  0  0  0
 27 26  1  0  0  0  0
M  END
>  <minimizedAffinity>
-4.69219065

>  <minimizedRMSD>
2.68298316

$$$$
