
 OpenBabel03252503343D

 16 17  0  0  0  0  0  0  0  0999 V2000
   44.9480   36.0670   43.4830 C   0  0  0  0  0  0  0  0  0  0  0  0
   46.0350   35.3960   42.8650 C   0  0  0  0  0  0  0  0  0  0  0  0
   46.6120   34.3200   43.5450 C   0  0  0  0  0  0  0  0  0  0  0  0
   46.1190   33.9690   44.7460 N   0  0  0  0  0  0  0  0  0  0  0  0
   45.0810   34.6140   45.3300 C   0  0  0  0  0  0  0  0  0  0  0  0
   44.5060   35.6560   44.6940 N   0  0  0  0  0  0  0  0  0  0  0  0
   44.4540   36.9200   42.9970 H   0  0  0  0  0  0  0  0  0  0  0  0
   46.3840   35.7260   41.9000 H   0  0  0  0  0  0  0  0  0  0  0  0
   44.7950   34.2190   46.2930 H   0  0  0  0  0  0  0  0  0  0  0  0
   47.4940   32.4340   42.1800 C   0  0  0  0  0  0  0  0  0  0  0  0
   46.2700   32.1320   42.0080 O   0  0  0  0  0  0  0  0  0  0  0  0
   47.6980   33.6180   42.9710 N   0  0  0  0  0  0  0  0  0  0  0  0
   48.7010   33.9390   43.1030 H   0  0  0  0  0  0  0  0  0  0  0  0
   48.6810   31.7060   41.6610 C   0  0  0  0  0  3  0  0  0  0  0  0
   50.0190   31.8690   42.3280 C   0  0  0  0  0  2  0  0  0  0  0  0
   49.2370   30.6380   42.6320 C   0  0  0  0  0  2  0  0  0  0  0  0
  1  6  1  0  0  0  0
  2  1  2  0  0  0  0
  2  3  1  0  0  0  0
  3  4  2  0  0  0  0
  4  5  1  0  0  0  0
  5  9  1  0  0  0  0
  6  5  2  0  0  0  0
  7  1  1  0  0  0  0
  8  2  1  0  0  0  0
 10 12  1  0  0  0  0
 11 10  2  0  0  0  0
 12 13  1  0  0  0  0
 12  3  1  0  0  0  0
 14 10  1  0  0  0  0
 14 15  1  0  0  0  0
 14 16  1  0  0  0  0
 15 16  1  0  0  0  0
M  END
>  <minimizedAffinity>
-3.14036727

>  <minimizedRMSD>
2.79149342

$$$$
