
 OpenBabel03242523523D

 37 40  0  0  1  0  0  0  0  0999 V2000
   38.7650   31.4690   39.9830 C   0  0  1  0  0  0  0  0  0  0  0  0
   39.6160   32.2180   41.0070 C   0  0  1  0  0  0  0  0  0  0  0  0
   39.1010   33.5190   41.1670 O   0  0  0  0  0  0  0  0  0  0  0  0
   38.5740   34.0460   39.9870 C   0  0  0  0  0  0  0  0  0  0  0  0
   37.2980   33.3260   39.5950 C   0  0  2  0  0  0  0  0  0  0  0  0
   37.3440   31.9270   40.2460 C   0  0  1  0  0  0  0  0  0  0  0  0
   38.9060   30.3960   40.1980 H   0  0  0  0  0  0  0  0  0  0  0  0
   40.6500   32.2360   40.6540 H   0  0  0  0  0  0  0  0  0  0  0  0
   39.2950   34.1390   39.1690 H   0  0  0  0  0  0  0  0  0  0  0  0
   38.2680   35.0790   40.2570 H   0  0  0  0  0  0  0  0  0  0  0  0
   36.3890   33.8510   39.9060 H   0  0  0  0  0  0  0  0  0  0  0  0
   37.1830   32.0810   41.3330 H   0  0  0  0  0  0  0  0  0  0  0  0
   39.1390   31.8090   38.6860 O   0  0  0  0  0  0  0  0  0  0  0  0
   39.6220   31.0170   38.2970 H   0  0  0  0  0  0  0  0  0  0  0  0
   37.3400   33.0560   38.2200 O   0  0  0  0  0  0  0  0  0  0  0  0
   36.4940   33.3320   37.7820 H   0  0  0  0  0  0  0  0  0  0  0  0
   39.3900   31.5990   42.2370 O   0  0  0  0  0  0  0  0  0  0  0  0
   39.6810   30.3280   42.5310 C   0  0  0  0  0  0  0  0  0  0  0  0
   38.6790   29.4200   42.8670 C   0  0  0  0  0  0  0  0  0  0  0  0
   39.0360   28.1130   43.1610 C   0  0  0  0  0  0  0  0  0  0  0  0
   40.3670   27.7430   43.1130 N   0  0  0  0  0  0  0  0  0  0  0  0
   41.3080   28.6470   42.7840 C   0  0  0  0  0  0  0  0  0  0  0  0
   40.9770   29.9310   42.4940 N   0  0  0  0  0  0  0  0  0  0  0  0
   37.6290   29.6840   42.9120 H   0  0  0  0  0  0  0  0  0  0  0  0
   42.3500   28.3800   42.7410 H   0  0  0  0  0  0  0  0  0  0  0  0
   38.0010   27.0970   43.5480 C   0  0  0  0  0  0  0  0  0  0  0  0
   36.5480   27.4980   43.4320 C   0  0  0  0  0  0  0  0  0  0  0  0
   37.2140   26.4480   42.5330 C   0  0  0  0  0  0  0  0  0  0  0  0
   38.3060   26.5420   44.4600 H   0  0  0  0  0  0  0  0  0  0  0  0
   35.8960   27.0710   44.2190 H   0  0  0  0  0  0  0  0  0  0  0  0
   36.3800   28.5090   43.0610 H   0  0  0  0  0  0  0  0  0  0  0  0
   36.8370   25.4140   42.5840 H   0  0  0  0  0  0  0  0  0  0  0  0
   37.2510   26.8070   41.4720 H   0  0  0  0  0  0  0  0  0  0  0  0
   36.3750   31.1110   39.7200 O   0  0  0  0  0  0  0  0  0  0  0  0
   36.0250   30.0240   40.4950 C   0  0  0  0  0  3  0  0  0  0  0  0
   36.1620   28.6800   39.7630 C   0  0  0  0  0  2  0  0  0  0  0  0
   34.8390   29.1930   40.1710 C   0  0  0  0  0  2  0  0  0  0  0  0
  1  7  1  1  0  0  0
  1  6  1  0  0  0  0
  1  2  1  0  0  0  0
  2  8  1  6  0  0  0
  2  3  1  0  0  0  0
  2 17  1  0  0  0  0
  4 10  1  0  0  0  0
  4  3  1  0  0  0  0
  5 11  1  1  0  0  0
  5  4  1  0  0  0  0
  5  6  1  0  0  0  0
  6 12  1  1  0  0  0
  9  4  1  0  0  0  0
 13  1  1  0  0  0  0
 14 13  1  0  0  0  0
 15  5  1  0  0  0  0
 16 15  1  0  0  0  0
 17 18  1  0  0  0  0
 18 19  1  0  0  0  0
 19 24  1  0  0  0  0
 19 20  2  0  0  0  0
 20 26  1  0  0  0  0
 21 20  1  0  0  0  0
 22 21  2  0  0  0  0
 23 18  2  0  0  0  0
 23 22  1  0  0  0  0
 25 22  1  0  0  0  0
 26 29  1  0  0  0  0
 27 26  1  0  0  0  0
 27 30  1  0  0  0  0
 28 32  1  0  0  0  0
 28 27  1  0  0  0  0
 28 26  1  0  0  0  0
 31 27  1  0  0  0  0
 33 28  1  0  0  0  0
 34  6  1  0  0  0  0
 34 35  1  0  0  0  0
 36 37  1  0  0  0  0
 36 35  1  0  0  0  0
 37 35  1  0  0  0  0
M  END
>  <minimizedAffinity>
-5.6757741

$$$$

 OpenBabel03242523523D

 37 40  0  0  1  0  0  0  0  0999 V2000
   37.5520   29.4740   42.3380 C   0  0  1  0  0  0  0  0  0  0  0  0
   39.0630   29.6360   42.5000 C   0  0  1  0  0  0  0  0  0  0  0  0
   39.6470   28.3630   42.6460 O   0  0  0  0  0  0  0  0  0  0  0  0
   38.8340   27.4660   43.3400 C   0  0  0  0  0  0  0  0  0  0  0  0
   37.6220   27.0830   42.5120 C   0  0  2  0  0  0  0  0  0  0  0  0
   37.3820   28.2230   41.4990 C   0  0  1  0  0  0  0  0  0  0  0  0
   37.2050   30.3810   41.8140 H   0  0  0  0  0  0  0  0  0  0  0  0
   39.2540   30.2680   43.3700 H   0  0  0  0  0  0  0  0  0  0  0  0
   38.5890   27.7710   44.3620 H   0  0  0  0  0  0  0  0  0  0  0  0
   39.4460   26.5440   43.4240 H   0  0  0  0  0  0  0  0  0  0  0  0
   37.7400   26.1330   41.9810 H   0  0  0  0  0  0  0  0  0  0  0  0
   38.1930   28.1490   40.7460 H   0  0  0  0  0  0  0  0  0  0  0  0
   36.9380   29.3020   43.5740 O   0  0  0  0  0  0  0  0  0  0  0  0
   36.4400   30.1510   43.7820 H   0  0  0  0  0  0  0  0  0  0  0  0
   36.4870   27.1220   43.3340 O   0  0  0  0  0  0  0  0  0  0  0  0
   35.9500   26.2950   43.2310 H   0  0  0  0  0  0  0  0  0  0  0  0
   39.5440   30.1030   41.2750 O   0  0  0  0  0  0  0  0  0  0  0  0
   39.6620   31.3880   40.9270 C   0  0  0  0  0  0  0  0  0  0  0  0
   40.8800   32.0550   41.0410 C   0  0  0  0  0  0  0  0  0  0  0  0
   40.9470   33.3870   40.6640 C   0  0  0  0  0  0  0  0  0  0  0  0
   39.8130   34.0180   40.1860 N   0  0  0  0  0  0  0  0  0  0  0  0
   38.6540   33.3430   40.0890 C   0  0  0  0  0  0  0  0  0  0  0  0
   38.5700   32.0370   40.4540 N   0  0  0  0  0  0  0  0  0  0  0  0
   41.7820   31.5840   41.4120 H   0  0  0  0  0  0  0  0  0  0  0  0
   37.7590   33.8140   39.7200 H   0  0  0  0  0  0  0  0  0  0  0  0
   42.2270   34.1610   40.7830 C   0  0  0  0  0  0  0  0  0  0  0  0
   43.2160   33.7210   41.8390 C   0  0  0  0  0  0  0  0  0  0  0  0
   43.4650   33.5800   40.3320 C   0  0  0  0  0  0  0  0  0  0  0  0
   42.0480   35.2510   40.6740 H   0  0  0  0  0  0  0  0  0  0  0  0
   43.7730   34.5530   42.3130 H   0  0  0  0  0  0  0  0  0  0  0  0
   42.9050   32.8560   42.4260 H   0  0  0  0  0  0  0  0  0  0  0  0
   44.3080   34.1390   39.8950 H   0  0  0  0  0  0  0  0  0  0  0  0
   43.5100   32.4980   40.0410 H   0  0  0  0  0  0  0  0  0  0  0  0
   36.1520   28.0980   40.9040 O   0  0  0  0  0  0  0  0  0  0  0  0
   35.6050   29.2650   40.4110 C   0  0  0  0  0  3  0  0  0  0  0  0
   34.5360   29.0340   39.3330 C   0  0  0  0  0  2  0  0  0  0  0  0
   35.8190   29.6850   39.0050 C   0  0  0  0  0  2  0  0  0  0  0  0
  1  7  1  6  0  0  0
  1  2  1  0  0  0  0
  1 13  1  0  0  0  0
  2  3  1  0  0  0  0
  2  8  1  1  0  0  0
  3  4  1  0  0  0  0
  4 10  1  0  0  0  0
  4  9  1  0  0  0  0
  5 11  1  6  0  0  0
  5 15  1  0  0  0  0
  5  4  1  0  0  0  0
  6 12  1  6  0  0  0
  6  1  1  0  0  0  0
  6  5  1  0  0  0  0
 13 14  1  0  0  0  0
 16 15  1  0  0  0  0
 17  2  1  0  0  0  0
 18 19  1  0  0  0  0
 18 17  1  0  0  0  0
 19 24  1  0  0  0  0
 20 26  1  0  0  0  0
 20 19  2  0  0  0  0
 21 20  1  0  0  0  0
 22 21  2  0  0  0  0
 22 23  1  0  0  0  0
 23 18  2  0  0  0  0
 25 22  1  0  0  0  0
 26 27  1  0  0  0  0
 27 30  1  0  0  0  0
 27 31  1  0  0  0  0
 28 26  1  0  0  0  0
 28 27  1  0  0  0  0
 29 26  1  0  0  0  0
 32 28  1  0  0  0  0
 33 28  1  0  0  0  0
 34  6  1  0  0  0  0
 35 34  1  0  0  0  0
 36 35  1  0  0  0  0
 37 36  1  0  0  0  0
 37 35  1  0  0  0  0
M  END
>  <minimizedAffinity>
-5.33965158

$$$$

 OpenBabel03242523523D

 37 40  0  0  1  0  0  0  0  0999 V2000
   38.5080   29.7610   37.7980 C   0  0  1  0  0  0  0  0  0  0  0  0
   38.5130   29.8410   39.3230 C   0  0  1  0  0  0  0  0  0  0  0  0
   38.2210   31.1620   39.7140 O   0  0  0  0  0  0  0  0  0  0  0  0
   38.7340   32.1170   38.8360 C   0  0  0  0  0  0  0  0  0  0  0  0
   37.9950   32.0870   37.5120 C   0  0  2  0  0  0  0  0  0  0  0  0
   37.3810   30.6770   37.3630 C   0  0  1  0  0  0  0  0  0  0  0  0
   38.3080   28.7050   37.5500 H   0  0  0  0  0  0  0  0  0  0  0  0
   39.4940   29.5220   39.6860 H   0  0  0  0  0  0  0  0  0  0  0  0
   39.8240   32.1000   38.7320 H   0  0  0  0  0  0  0  0  0  0  0  0
   38.4770   33.0910   39.3030 H   0  0  0  0  0  0  0  0  0  0  0  0
   37.2090   32.8440   37.4340 H   0  0  0  0  0  0  0  0  0  0  0  0
   36.5400   30.6240   38.0840 H   0  0  0  0  0  0  0  0  0  0  0  0
   39.7150   30.2140   37.2750 O   0  0  0  0  0  0  0  0  0  0  0  0
   40.2140   29.4100   36.9340 H   0  0  0  0  0  0  0  0  0  0  0  0
   38.9340   32.1530   36.4730 O   0  0  0  0  0  0  0  0  0  0  0  0
   38.6740   32.8410   35.8070 H   0  0  0  0  0  0  0  0  0  0  0  0
   37.4170   29.0960   39.7620 O   0  0  0  0  0  0  0  0  0  0  0  0
   37.3520   28.4130   40.9090 C   0  0  0  0  0  0  0  0  0  0  0  0
   37.1810   27.0300   40.9140 C   0  0  0  0  0  0  0  0  0  0  0  0
   37.1230   26.3710   42.1320 C   0  0  0  0  0  0  0  0  0  0  0  0
   37.2360   27.0950   43.3040 N   0  0  0  0  0  0  0  0  0  0  0  0
   37.4000   28.4290   43.2620 C   0  0  0  0  0  0  0  0  0  0  0  0
   37.4590   29.0920   42.0780 N   0  0  0  0  0  0  0  0  0  0  0  0
   37.0910   26.4400   40.0090 H   0  0  0  0  0  0  0  0  0  0  0  0
   37.4890   29.0120   44.1630 H   0  0  0  0  0  0  0  0  0  0  0  0
   36.9210   24.8850   42.1980 C   0  0  0  0  0  0  0  0  0  0  0  0
   36.6240   24.1600   40.9050 C   0  0  0  0  0  0  0  0  0  0  0  0
   37.9330   23.9970   41.6880 C   0  0  0  0  0  0  0  0  0  0  0  0
   36.3260   24.6010   43.0910 H   0  0  0  0  0  0  0  0  0  0  0  0
   35.9230   23.3090   41.0140 H   0  0  0  0  0  0  0  0  0  0  0  0
   36.5900   24.7960   40.0200 H   0  0  0  0  0  0  0  0  0  0  0  0
   38.1680   23.0010   42.0950 H   0  0  0  0  0  0  0  0  0  0  0  0
   38.7960   24.4020   41.0980 H   0  0  0  0  0  0  0  0  0  0  0  0
   36.9390   30.4700   36.0810 O   0  0  0  0  0  0  0  0  0  0  0  0
   36.2840   29.2750   35.8620 C   0  0  0  0  0  3  0  0  0  0  0  0
   36.2590   28.8510   34.3850 C   0  0  0  0  0  2  0  0  0  0  0  0
   35.0170   29.2180   35.0930 C   0  0  0  0  0  2  0  0  0  0  0  0
  1  7  1  6  0  0  0
  1  2  1  0  0  0  0
  2  8  1  1  0  0  0
  2  3  1  0  0  0  0
  2 17  1  0  0  0  0
  4 10  1  0  0  0  0
  4  3  1  0  0  0  0
  5 11  1  6  0  0  0
  5  4  1  0  0  0  0
  6  5  1  0  0  0  0
  6  1  1  0  0  0  0
  6 12  1  1  0  0  0
  9  4  1  0  0  0  0
 13  1  1  0  0  0  0
 14 13  1  0  0  0  0
 15  5  1  0  0  0  0
 16 15  1  0  0  0  0
 17 18  1  0  0  0  0
 18 19  2  0  0  0  0
 18 23  1  0  0  0  0
 19 20  1  0  0  0  0
 20 26  1  0  0  0  0
 20 21  2  0  0  0  0
 22 21  1  0  0  0  0
 22 25  1  0  0  0  0
 23 22  2  0  0  0  0
 24 19  1  0  0  0  0
 26 29  1  0  0  0  0
 27 30  1  0  0  0  0
 27 28  1  0  0  0  0
 27 26  1  0  0  0  0
 28 32  1  0  0  0  0
 28 26  1  0  0  0  0
 31 27  1  0  0  0  0
 33 28  1  0  0  0  0
 34  6  1  0  0  0  0
 35 34  1  0  0  0  0
 36 37  1  0  0  0  0
 36 35  1  0  0  0  0
 37 35  1  0  0  0  0
M  END
>  <minimizedAffinity>
-5.32863712

$$$$

 OpenBabel03242523523D

 37 40  0  0  1  0  0  0  0  0999 V2000
   37.5920   32.1330   40.5500 C   0  0  1  0  0  0  0  0  0  0  0  0
   36.9040   30.8250   40.9330 C   0  0  1  0  0  0  0  0  0  0  0  0
   36.8350   29.9930   39.7990 O   0  0  0  0  0  0  0  0  0  0  0  0
   36.6550   30.7040   38.6120 C   0  0  0  0  0  0  0  0  0  0  0  0
   37.9010   31.4920   38.2590 C   0  0  2  0  0  0  0  0  0  0  0  0
   38.6780   31.7300   39.5720 C   0  0  1  0  0  0  0  0  0  0  0  0
   38.0040   32.5450   41.4870 H   0  0  0  0  0  0  0  0  0  0  0  0
   35.9090   31.0560   41.3230 H   0  0  0  0  0  0  0  0  0  0  0  0
   35.7340   31.2940   38.5710 H   0  0  0  0  0  0  0  0  0  0  0  0
   36.5620   29.9200   37.8310 H   0  0  0  0  0  0  0  0  0  0  0  0
   38.5450   30.9880   37.5320 H   0  0  0  0  0  0  0  0  0  0  0  0
   39.1140   30.7510   39.8600 H   0  0  0  0  0  0  0  0  0  0  0  0
   36.6970   33.0000   39.9310 O   0  0  0  0  0  0  0  0  0  0  0  0
   36.4980   33.7400   40.5830 H   0  0  0  0  0  0  0  0  0  0  0  0
   37.5180   32.7810   37.8600 O   0  0  0  0  0  0  0  0  0  0  0  0
   37.9630   33.0330   37.0100 H   0  0  0  0  0  0  0  0  0  0  0  0
   37.7720   30.1610   41.8020 O   0  0  0  0  0  0  0  0  0  0  0  0
   38.2050   28.9040   41.6550 C   0  0  0  0  0  0  0  0  0  0  0  0
   37.3890   27.8210   41.9730 C   0  0  0  0  0  0  0  0  0  0  0  0
   37.8870   26.5390   41.8000 C   0  0  0  0  0  0  0  0  0  0  0  0
   39.1720   26.3670   41.3190 N   0  0  0  0  0  0  0  0  0  0  0  0
   39.9320   27.4360   41.0230 C   0  0  0  0  0  0  0  0  0  0  0  0
   39.4600   28.6990   41.1860 N   0  0  0  0  0  0  0  0  0  0  0  0
   36.3790   27.9290   42.3510 H   0  0  0  0  0  0  0  0  0  0  0  0
   40.9350   27.3250   40.6480 H   0  0  0  0  0  0  0  0  0  0  0  0
   37.0600   25.3350   42.1440 C   0  0  0  0  0  0  0  0  0  0  0  0
   36.6860   24.3970   41.0200 C   0  0  0  0  0  0  0  0  0  0  0  0
   37.6590   24.0260   42.1460 C   0  0  0  0  0  0  0  0  0  0  0  0
   36.2690   25.5900   42.8810 H   0  0  0  0  0  0  0  0  0  0  0  0
   35.6810   23.9440   41.1230 H   0  0  0  0  0  0  0  0  0  0  0  0
   37.0670   24.6830   40.0380 H   0  0  0  0  0  0  0  0  0  0  0  0
   37.3770   23.1990   42.8170 H   0  0  0  0  0  0  0  0  0  0  0  0
   38.6920   23.8760   41.7380 H   0  0  0  0  0  0  0  0  0  0  0  0
   39.6630   32.6690   39.3940 O   0  0  0  0  0  0  0  0  0  0  0  0
   40.2650   33.1280   40.5480 C   0  0  0  0  0  3  0  0  0  0  0  0
   41.3830   34.1510   40.2910 C   0  0  0  0  0  2  0  0  0  0  0  0
   41.6830   32.8200   40.8540 C   0  0  0  0  0  2  0  0  0  0  0  0
  1  2  1  0  0  0  0
  1  7  1  1  0  0  0
  2  8  1  1  0  0  0
  2 17  1  0  0  0  0
  3  2  1  0  0  0  0
  4  3  1  0  0  0  0
  5 11  1  6  0  0  0
  5  4  1  0  0  0  0
  5  6  1  0  0  0  0
  6 12  1  1  0  0  0
  6  1  1  0  0  0  0
  9  4  1  0  0  0  0
 10  4  1  0  0  0  0
 13  1  1  0  0  0  0
 13 14  1  0  0  0  0
 15  5  1  0  0  0  0
 16 15  1  0  0  0  0
 18 17  1  0  0  0  0
 18 19  1  0  0  0  0
 19 24  1  0  0  0  0
 20 19  2  0  0  0  0
 20 26  1  0  0  0  0
 21 20  1  0  0  0  0
 22 23  1  0  0  0  0
 22 21  2  0  0  0  0
 23 18  2  0  0  0  0
 25 22  1  0  0  0  0
 26 28  1  0  0  0  0
 26 29  1  0  0  0  0
 27 30  1  0  0  0  0
 27 26  1  0  0  0  0
 27 28  1  0  0  0  0
 28 32  1  0  0  0  0
 31 27  1  0  0  0  0
 33 28  1  0  0  0  0
 34  6  1  0  0  0  0
 34 35  1  0  0  0  0
 35 37  1  0  0  0  0
 36 35  1  0  0  0  0
 36 37  1  0  0  0  0
M  END
>  <minimizedAffinity>
-5.32628632

$$$$

 OpenBabel03242523523D

 37 40  0  0  1  0  0  0  0  0999 V2000
   38.3250   30.4440   39.4540 C   0  0  1  0  0  0  0  0  0  0  0  0
   38.7430   30.9840   40.8200 C   0  0  1  0  0  0  0  0  0  0  0  0
   38.2650   32.3010   40.9580 O   0  0  0  0  0  0  0  0  0  0  0  0
   38.2650   33.0100   39.7550 C   0  0  0  0  0  0  0  0  0  0  0  0
   37.2110   32.4670   38.8090 C   0  0  2  0  0  0  0  0  0  0  0  0
   36.9370   31.0040   39.2200 C   0  0  1  0  0  0  0  0  0  0  0  0
   38.3230   29.3440   39.5500 H   0  0  0  0  0  0  0  0  0  0  0  0
   39.8320   30.9410   40.8940 H   0  0  0  0  0  0  0  0  0  0  0  0
   39.2510   33.1250   39.2960 H   0  0  0  0  0  0  0  0  0  0  0  0
   37.9240   34.0290   40.0340 H   0  0  0  0  0  0  0  0  0  0  0  0
   36.2770   33.0380   38.8230 H   0  0  0  0  0  0  0  0  0  0  0  0
   36.3720   31.0470   40.1740 H   0  0  0  0  0  0  0  0  0  0  0  0
   39.1900   30.8920   38.4600 O   0  0  0  0  0  0  0  0  0  0  0  0
   39.7500   30.1070   38.1740 H   0  0  0  0  0  0  0  0  0  0  0  0
   37.7730   32.3540   37.5290 O   0  0  0  0  0  0  0  0  0  0  0  0
   37.1780   32.7590   36.8470 H   0  0  0  0  0  0  0  0  0  0  0  0
   38.0270   30.2520   41.7700 O   0  0  0  0  0  0  0  0  0  0  0  0
   38.3410   29.0260   42.2020 C   0  0  0  0  0  0  0  0  0  0  0  0
   37.5020   27.9410   41.9590 C   0  0  0  0  0  0  0  0  0  0  0  0
   37.8760   26.6920   42.4280 C   0  0  0  0  0  0  0  0  0  0  0  0
   39.0650   26.5520   43.1200 N   0  0  0  0  0  0  0  0  0  0  0  0
   39.8510   27.6220   43.3370 C   0  0  0  0  0  0  0  0  0  0  0  0
   39.4990   28.8540   42.8850 N   0  0  0  0  0  0  0  0  0  0  0  0
   36.5660   28.0240   41.4190 H   0  0  0  0  0  0  0  0  0  0  0  0
   40.7800   27.5360   43.8740 H   0  0  0  0  0  0  0  0  0  0  0  0
   37.0020   25.4910   42.2110 C   0  0  0  0  0  0  0  0  0  0  0  0
   36.8510   24.9800   40.7970 C   0  0  0  0  0  0  0  0  0  0  0  0
   37.5940   24.2160   41.9000 C   0  0  0  0  0  0  0  0  0  0  0  0
   36.0850   25.5450   42.8360 H   0  0  0  0  0  0  0  0  0  0  0  0
   35.8450   24.5760   40.5660 H   0  0  0  0  0  0  0  0  0  0  0  0
   37.4100   25.5390   40.0450 H   0  0  0  0  0  0  0  0  0  0  0  0
   37.1930   23.2370   42.2070 H   0  0  0  0  0  0  0  0  0  0  0  0
   38.6860   24.1430   41.6590 H   0  0  0  0  0  0  0  0  0  0  0  0
   36.2130   30.3520   38.2530 O   0  0  0  0  0  0  0  0  0  0  0  0
   35.7030   29.1230   38.6180 C   0  0  0  0  0  3  0  0  0  0  0  0
   34.2400   28.9170   38.1970 C   0  0  0  0  0  2  0  0  0  0  0  0
   34.6170   29.0030   39.6210 C   0  0  0  0  0  2  0  0  0  0  0  0
  1  7  1  1  0  0  0
  1  2  1  0  0  0  0
  2  8  1  1  0  0  0
  2  3  1  0  0  0  0
  2 17  1  0  0  0  0
  4 10  1  0  0  0  0
  4  3  1  0  0  0  0
  5 11  1  1  0  0  0
  5  6  1  0  0  0  0
  5  4  1  0  0  0  0
  6  1  1  0  0  0  0
  6 12  1  1  0  0  0
  9  4  1  0  0  0  0
 13  1  1  0  0  0  0
 14 13  1  0  0  0  0
 15  5  1  0  0  0  0
 16 15  1  0  0  0  0
 17 18  1  0  0  0  0
 18 23  1  0  0  0  0
 19 18  2  0  0  0  0
 19 20  1  0  0  0  0
 20 21  2  0  0  0  0
 21 22  1  0  0  0  0
 22 25  1  0  0  0  0
 23 22  2  0  0  0  0
 24 19  1  0  0  0  0
 26 20  1  0  0  0  0
 26 29  1  0  0  0  0
 27 28  1  0  0  0  0
 27 26  1  0  0  0  0
 28 32  1  0  0  0  0
 28 26  1  0  0  0  0
 30 27  1  0  0  0  0
 31 27  1  0  0  0  0
 33 28  1  0  0  0  0
 34 35  1  0  0  0  0
 34  6  1  0  0  0  0
 35 37  1  0  0  0  0
 36 35  1  0  0  0  0
 36 37  1  0  0  0  0
M  END
>  <minimizedAffinity>
-5.32320929

$$$$

 OpenBabel03242523523D

 37 40  0  0  1  0  0  0  0  0999 V2000
   38.7240   30.4850   40.0520 C   0  0  1  0  0  0  0  0  0  0  0  0
   39.4310   30.9410   41.3270 C   0  0  1  0  0  0  0  0  0  0  0  0
   39.3520   32.3430   41.4190 O   0  0  0  0  0  0  0  0  0  0  0  0
   39.4040   32.9750   40.1750 C   0  0  0  0  0  0  0  0  0  0  0  0
   38.1380   32.7120   39.3820 C   0  0  2  0  0  0  0  0  0  0  0  0
   37.5240   31.4020   39.9210 C   0  0  1  0  0  0  0  0  0  0  0  0
   38.4320   29.4350   40.2250 H   0  0  0  0  0  0  0  0  0  0  0  0
   40.4680   30.5980   41.2920 H   0  0  0  0  0  0  0  0  0  0  0  0
   40.3230   32.7920   39.6110 H   0  0  0  0  0  0  0  0  0  0  0  0
   39.3910   34.0590   40.4140 H   0  0  0  0  0  0  0  0  0  0  0  0
   37.4050   33.5220   39.4500 H   0  0  0  0  0  0  0  0  0  0  0  0
   37.1090   31.6400   40.9220 H   0  0  0  0  0  0  0  0  0  0  0  0
   39.5550   30.6330   38.9460 O   0  0  0  0  0  0  0  0  0  0  0  0
   39.8420   29.7120   38.6610 H   0  0  0  0  0  0  0  0  0  0  0  0
   38.4940   32.3960   38.0630 O   0  0  0  0  0  0  0  0  0  0  0  0
   37.9570   32.9240   37.4180 H   0  0  0  0  0  0  0  0  0  0  0  0
   38.6590   30.4770   42.3940 O   0  0  0  0  0  0  0  0  0  0  0  0
   38.3760   29.1950   42.6470 C   0  0  0  0  0  0  0  0  0  0  0  0
   39.3790   28.2910   42.9870 C   0  0  0  0  0  0  0  0  0  0  0  0
   39.0300   26.9740   43.2420 C   0  0  0  0  0  0  0  0  0  0  0  0
   37.7050   26.5910   43.1540 N   0  0  0  0  0  0  0  0  0  0  0  0
   36.7620   27.4910   42.8220 C   0  0  0  0  0  0  0  0  0  0  0  0
   37.0860   28.7860   42.5690 N   0  0  0  0  0  0  0  0  0  0  0  0
   40.4250   28.5660   43.0640 H   0  0  0  0  0  0  0  0  0  0  0  0
   35.7240   27.2140   42.7470 H   0  0  0  0  0  0  0  0  0  0  0  0
   40.0720   25.9520   43.5940 C   0  0  0  0  0  0  0  0  0  0  0  0
   39.8090   24.5170   43.1990 C   0  0  0  0  0  0  0  0  0  0  0  0
   40.9020   25.3850   42.5640 C   0  0  0  0  0  0  0  0  0  0  0  0
   40.4850   26.1340   44.6090 H   0  0  0  0  0  0  0  0  0  0  0  0
   40.1880   23.7710   43.9240 H   0  0  0  0  0  0  0  0  0  0  0  0
   38.8670   24.3520   42.6740 H   0  0  0  0  0  0  0  0  0  0  0  0
   41.9500   25.0690   42.6940 H   0  0  0  0  0  0  0  0  0  0  0  0
   40.6740   25.5760   41.4840 H   0  0  0  0  0  0  0  0  0  0  0  0
   36.5420   30.9410   39.0820 O   0  0  0  0  0  0  0  0  0  0  0  0
   36.1910   29.6170   39.2450 C   0  0  0  0  0  3  0  0  0  0  0  0
   35.0780   29.1550   38.2910 C   0  0  0  0  0  2  0  0  0  0  0  0
   34.8500   29.2290   39.7480 C   0  0  0  0  0  2  0  0  0  0  0  0
  1  7  1  1  0  0  0
  1  2  1  0  0  0  0
  2  8  1  1  0  0  0
  2  3  1  0  0  0  0
  2 17  1  0  0  0  0
  4 10  1  0  0  0  0
  4  3  1  0  0  0  0
  5 11  1  1  0  0  0
  5  6  1  0  0  0  0
  5  4  1  0  0  0  0
  6  1  1  0  0  0  0
  6 12  1  1  0  0  0
  9  4  1  0  0  0  0
 13  1  1  0  0  0  0
 14 13  1  0  0  0  0
 15  5  1  0  0  0  0
 16 15  1  0  0  0  0
 17 18  1  0  0  0  0
 18 19  1  0  0  0  0
 19 24  1  0  0  0  0
 19 20  2  0  0  0  0
 20 26  1  0  0  0  0
 21 20  1  0  0  0  0
 22 21  2  0  0  0  0
 23 18  2  0  0  0  0
 23 22  1  0  0  0  0
 25 22  1  0  0  0  0
 26 29  1  0  0  0  0
 27 26  1  0  0  0  0
 27 30  1  0  0  0  0
 28 32  1  0  0  0  0
 28 27  1  0  0  0  0
 28 26  1  0  0  0  0
 31 27  1  0  0  0  0
 33 28  1  0  0  0  0
 34 35  1  0  0  0  0
 34  6  1  0  0  0  0
 35 37  1  0  0  0  0
 36 35  1  0  0  0  0
 36 37  1  0  0  0  0
M  END
>  <minimizedAffinity>
-5.24896193

$$$$

 OpenBabel03242523523D

 37 40  0  0  1  0  0  0  0  0999 V2000
   37.2140   31.6780   40.0570 C   0  0  1  0  0  0  0  0  0  0  0  0
   37.4970   31.6730   38.5560 C   0  0  1  0  0  0  0  0  0  0  0  0
   38.8420   32.0290   38.3410 O   0  0  0  0  0  0  0  0  0  0  0  0
   39.3140   32.9600   39.2670 C   0  0  0  0  0  0  0  0  0  0  0  0
   39.4450   32.3360   40.6430 C   0  0  2  0  0  0  0  0  0  0  0  0
   38.4780   31.1340   40.6940 C   0  0  1  0  0  0  0  0  0  0  0  0
   36.3490   31.0100   40.2050 H   0  0  0  0  0  0  0  0  0  0  0  0
   36.8130   32.3750   38.0710 H   0  0  0  0  0  0  0  0  0  0  0  0
   38.7780   33.9140   39.2660 H   0  0  0  0  0  0  0  0  0  0  0  0
   40.3510   33.1800   38.9350 H   0  0  0  0  0  0  0  0  0  0  0  0
   40.4620   32.0050   40.8770 H   0  0  0  0  0  0  0  0  0  0  0  0
   38.9240   30.3450   40.0530 H   0  0  0  0  0  0  0  0  0  0  0  0
   36.9760   32.9720   40.5110 O   0  0  0  0  0  0  0  0  0  0  0  0
   35.9930   33.0420   40.7130 H   0  0  0  0  0  0  0  0  0  0  0  0
   38.9200   33.2270   41.5910 O   0  0  0  0  0  0  0  0  0  0  0  0
   39.5480   33.3440   42.3490 H   0  0  0  0  0  0  0  0  0  0  0  0
   37.4170   30.3420   38.1430 O   0  0  0  0  0  0  0  0  0  0  0  0
   36.5510   29.8580   37.2460 C   0  0  0  0  0  0  0  0  0  0  0  0
   35.2810   29.4340   37.6300 C   0  0  0  0  0  0  0  0  0  0  0  0
   34.4220   28.9430   36.6590 C   0  0  0  0  0  0  0  0  0  0  0  0
   34.8420   28.8870   35.3430 N   0  0  0  0  0  0  0  0  0  0  0  0
   36.0760   29.3050   35.0090 C   0  0  0  0  0  0  0  0  0  0  0  0
   36.9310   29.7890   35.9470 N   0  0  0  0  0  0  0  0  0  0  0  0
   34.9270   29.4680   38.6540 H   0  0  0  0  0  0  0  0  0  0  0  0
   36.4230   29.2700   33.9910 H   0  0  0  0  0  0  0  0  0  0  0  0
   33.0490   28.4540   37.0180 C   0  0  0  0  0  0  0  0  0  0  0  0
   31.9210   29.4600   37.0040 C   0  0  0  0  0  0  0  0  0  0  0  0
   32.0450   28.3120   35.9950 C   0  0  0  0  0  0  0  0  0  0  0  0
   33.0860   27.7410   37.8680 H   0  0  0  0  0  0  0  0  0  0  0  0
   31.1550   29.2930   37.7870 H   0  0  0  0  0  0  0  0  0  0  0  0
   32.2120   30.4720   36.7210 H   0  0  0  0  0  0  0  0  0  0  0  0
   31.2510   27.5480   35.9850 H   0  0  0  0  0  0  0  0  0  0  0  0
   32.2260   28.7130   34.9650 H   0  0  0  0  0  0  0  0  0  0  0  0
   38.3210   30.6860   41.9810 O   0  0  0  0  0  0  0  0  0  0  0  0
   37.5080   29.5820   42.1340 C   0  0  0  0  0  3  0  0  0  0  0  0
   37.7460   28.8210   43.4480 C   0  0  0  0  0  2  0  0  0  0  0  0
   38.0650   28.2070   42.1440 C   0  0  0  0  0  2  0  0  0  0  0  0
  1  7  1  1  0  0  0
  1 13  1  0  0  0  0
  1  6  1  0  0  0  0
  2  8  1  6  0  0  0
  2  1  1  0  0  0  0
  3  2  1  0  0  0  0
  3  4  1  0  0  0  0
  4  5  1  0  0  0  0
  5  6  1  0  0  0  0
  5 11  1  1  0  0  0
  5 15  1  0  0  0  0
  6 12  1  6  0  0  0
  6 34  1  0  0  0  0
  9  4  1  0  0  0  0
 10  4  1  0  0  0  0
 13 14  1  0  0  0  0
 15 16  1  0  0  0  0
 17  2  1  0  0  0  0
 18 19  1  0  0  0  0
 18 17  1  0  0  0  0
 19 24  1  0  0  0  0
 20 26  1  0  0  0  0
 20 19  2  0  0  0  0
 21 20  1  0  0  0  0
 22 21  2  0  0  0  0
 22 23  1  0  0  0  0
 23 18  2  0  0  0  0
 25 22  1  0  0  0  0
 26 29  1  0  0  0  0
 27 26  1  0  0  0  0
 27 30  1  0  0  0  0
 28 27  1  0  0  0  0
 28 26  1  0  0  0  0
 31 27  1  0  0  0  0
 32 28  1  0  0  0  0
 33 28  1  0  0  0  0
 34 35  1  0  0  0  0
 35 37  1  0  0  0  0
 35 36  1  0  0  0  0
 37 36  1  0  0  0  0
M  END
>  <minimizedAffinity>
-5.13826752

$$$$

 OpenBabel03242523523D

 37 40  0  0  1  0  0  0  0  0999 V2000
   37.2340   29.5590   40.9480 C   0  0  1  0  0  0  0  0  0  0  0  0
   38.4340   30.4370   40.5980 C   0  0  1  0  0  0  0  0  0  0  0  0
   39.4180   30.2860   41.5920 O   0  0  0  0  0  0  0  0  0  0  0  0
   38.8820   30.0910   42.8660 C   0  0  0  0  0  0  0  0  0  0  0  0
   38.2200   28.7300   42.9710 C   0  0  2  0  0  0  0  0  0  0  0  0
   37.8320   28.2990   41.5400 C   0  0  1  0  0  0  0  0  0  0  0  0
   36.7100   29.3670   39.9960 H   0  0  0  0  0  0  0  0  0  0  0  0
   38.0960   31.4740   40.5210 H   0  0  0  0  0  0  0  0  0  0  0  0
   38.2570   30.9130   43.2270 H   0  0  0  0  0  0  0  0  0  0  0  0
   39.7670   30.0490   43.5360 H   0  0  0  0  0  0  0  0  0  0  0  0
   38.8590   27.9690   43.4280 H   0  0  0  0  0  0  0  0  0  0  0  0
   38.7800   28.0410   41.0230 H   0  0  0  0  0  0  0  0  0  0  0  0
   36.4220   30.1840   41.8890 O   0  0  0  0  0  0  0  0  0  0  0  0
   35.5840   30.4770   41.4150 H   0  0  0  0  0  0  0  0  0  0  0  0
   36.9860   28.8810   43.6200 O   0  0  0  0  0  0  0  0  0  0  0  0
   36.8860   28.2130   44.3450 H   0  0  0  0  0  0  0  0  0  0  0  0
   39.0070   29.8840   39.4510 O   0  0  0  0  0  0  0  0  0  0  0  0
   39.8880   30.4950   38.6520 C   0  0  0  0  0  0  0  0  0  0  0  0
   41.0100   29.8220   38.1730 C   0  0  0  0  0  0  0  0  0  0  0  0
   41.8900   30.5010   37.3460 C   0  0  0  0  0  0  0  0  0  0  0  0
   41.6370   31.8200   37.0180 N   0  0  0  0  0  0  0  0  0  0  0  0
   40.5440   32.4380   37.4990 C   0  0  0  0  0  0  0  0  0  0  0  0
   39.6700   31.7880   38.3110 N   0  0  0  0  0  0  0  0  0  0  0  0
   41.2310   28.7890   38.4150 H   0  0  0  0  0  0  0  0  0  0  0  0
   40.3270   33.4640   37.2570 H   0  0  0  0  0  0  0  0  0  0  0  0
   43.1250   29.8330   36.8160 C   0  0  0  0  0  0  0  0  0  0  0  0
   43.2570   29.6910   35.3170 C   0  0  0  0  0  0  0  0  0  0  0  0
   44.1430   30.6140   36.1630 C   0  0  0  0  0  0  0  0  0  0  0  0
   43.4050   28.9560   37.4380 H   0  0  0  0  0  0  0  0  0  0  0  0
   43.7570   28.7580   34.9920 H   0  0  0  0  0  0  0  0  0  0  0  0
   42.4270   30.1040   34.7420 H   0  0  0  0  0  0  0  0  0  0  0  0
   45.2240   30.4020   36.1930 H   0  0  0  0  0  0  0  0  0  0  0  0
   43.9540   31.6870   35.9030 H   0  0  0  0  0  0  0  0  0  0  0  0
   36.9830   27.2220   41.5680 O   0  0  0  0  0  0  0  0  0  0  0  0
   37.5900   25.9820   41.5720 C   0  0  0  0  0  3  0  0  0  0  0  0
   36.8660   24.9410   40.7050 C   0  0  0  0  0  2  0  0  0  0  0  0
   36.9290   24.7990   42.1730 C   0  0  0  0  0  2  0  0  0  0  0  0
  1  7  1  6  0  0  0
  1  6  1  0  0  0  0
  1 13  1  0  0  0  0
  2  8  1  6  0  0  0
  2  1  1  0  0  0  0
  2  3  1  0  0  0  0
  3  4  1  0  0  0  0
  4  5  1  0  0  0  0
  4  9  1  0  0  0  0
  4 10  1  0  0  0  0
  5 11  1  1  0  0  0
  5 15  1  0  0  0  0
  6 12  1  6  0  0  0
  6 34  1  0  0  0  0
  6  5  1  0  0  0  0
 14 13  1  0  0  0  0
 15 16  1  0  0  0  0
 17  2  1  0  0  0  0
 18 17  1  0  0  0  0
 19 24  1  0  0  0  0
 19 18  2  0  0  0  0
 20 19  1  0  0  0  0
 21 20  2  0  0  0  0
 21 22  1  0  0  0  0
 22 23  2  0  0  0  0
 23 18  1  0  0  0  0
 25 22  1  0  0  0  0
 26 20  1  0  0  0  0
 26 29  1  0  0  0  0
 27 28  1  0  0  0  0
 27 26  1  0  0  0  0
 28 32  1  0  0  0  0
 28 26  1  0  0  0  0
 30 27  1  0  0  0  0
 31 27  1  0  0  0  0
 33 28  1  0  0  0  0
 34 35  1  0  0  0  0
 35 37  1  0  0  0  0
 36 35  1  0  0  0  0
 36 37  1  0  0  0  0
M  END
>  <minimizedAffinity>
-5.11230707

$$$$

 OpenBabel03242523523D

 37 40  0  0  1  0  0  0  0  0999 V2000
   36.0530   29.0010   40.3190 C   0  0  1  0  0  0  0  0  0  0  0  0
   36.7860   29.7880   39.2330 C   0  0  1  0  0  0  0  0  0  0  0  0
   38.0260   30.2200   39.7390 O   0  0  0  0  0  0  0  0  0  0  0  0
   37.9820   30.5330   41.0990 C   0  0  0  0  0  0  0  0  0  0  0  0
   37.8020   29.2810   41.9360 C   0  0  2  0  0  0  0  0  0  0  0  0
   37.1370   28.2190   41.0330 C   0  0  1  0  0  0  0  0  0  0  0  0
   35.3420   28.3440   39.7890 H   0  0  0  0  0  0  0  0  0  0  0  0
   36.1590   30.6310   38.9310 H   0  0  0  0  0  0  0  0  0  0  0  0
   37.2890   31.3390   41.3570 H   0  0  0  0  0  0  0  0  0  0  0  0
   39.0020   30.9060   41.3310 H   0  0  0  0  0  0  0  0  0  0  0  0
   38.7390   28.8890   42.3420 H   0  0  0  0  0  0  0  0  0  0  0  0
   37.9140   27.8890   40.3130 H   0  0  0  0  0  0  0  0  0  0  0  0
   35.4220   29.8610   41.2120 O   0  0  0  0  0  0  0  0  0  0  0  0
   34.4340   29.8020   41.0370 H   0  0  0  0  0  0  0  0  0  0  0  0
   36.8340   29.5360   42.9190 O   0  0  0  0  0  0  0  0  0  0  0  0
   37.1550   29.2450   43.8110 H   0  0  0  0  0  0  0  0  0  0  0  0
   37.1160   28.8700   38.2340 O   0  0  0  0  0  0  0  0  0  0  0  0
   36.6870   28.9130   36.9690 C   0  0  0  0  0  0  0  0  0  0  0  0
   36.8590   30.0560   36.1900 C   0  0  0  0  0  0  0  0  0  0  0  0
   36.3980   30.0470   34.8830 C   0  0  0  0  0  0  0  0  0  0  0  0
   35.7840   28.9120   34.3860 N   0  0  0  0  0  0  0  0  0  0  0  0
   35.6350   27.8270   35.1660 C   0  0  0  0  0  0  0  0  0  0  0  0
   36.0810   27.8180   36.4490 N   0  0  0  0  0  0  0  0  0  0  0  0
   37.3370   30.9580   36.5570 H   0  0  0  0  0  0  0  0  0  0  0  0
   35.1600   26.9340   34.7990 H   0  0  0  0  0  0  0  0  0  0  0  0
   36.5390   31.2560   34.0050 C   0  0  0  0  0  0  0  0  0  0  0  0
   36.6680   31.0300   32.5160 C   0  0  0  0  0  0  0  0  0  0  0  0
   35.4410   31.6740   33.1740 C   0  0  0  0  0  0  0  0  0  0  0  0
   37.2100   32.0110   34.4670 H   0  0  0  0  0  0  0  0  0  0  0  0
   37.3370   31.7490   32.0050 H   0  0  0  0  0  0  0  0  0  0  0  0
   36.6390   29.9840   32.2070 H   0  0  0  0  0  0  0  0  0  0  0  0
   35.2040   32.7170   32.9090 H   0  0  0  0  0  0  0  0  0  0  0  0
   34.5410   31.0170   33.0520 H   0  0  0  0  0  0  0  0  0  0  0  0
   36.6810   27.1610   41.7780 O   0  0  0  0  0  0  0  0  0  0  0  0
   37.4560   26.0200   41.7290 C   0  0  0  0  0  3  0  0  0  0  0  0
   36.9250   24.9580   40.7540 C   0  0  0  0  0  2  0  0  0  0  0  0
   36.9410   24.7140   42.2090 C   0  0  0  0  0  2  0  0  0  0  0  0
  1  7  1  6  0  0  0
  1  6  1  0  0  0  0
  1 13  1  0  0  0  0
  2  8  1  6  0  0  0
  2  3  1  0  0  0  0
  2  1  1  0  0  0  0
  3  4  1  0  0  0  0
  4 10  1  0  0  0  0
  4  9  1  0  0  0  0
  4  5  1  0  0  0  0
  5 11  1  1  0  0  0
  5 15  1  0  0  0  0
  6 12  1  6  0  0  0
  6 34  1  0  0  0  0
  6  5  1  0  0  0  0
 14 13  1  0  0  0  0
 15 16  1  0  0  0  0
 17  2  1  0  0  0  0
 18 17  1  0  0  0  0
 19 24  1  0  0  0  0
 19 18  2  0  0  0  0
 20 19  1  0  0  0  0
 21 20  2  0  0  0  0
 21 22  1  0  0  0  0
 22 23  2  0  0  0  0
 23 18  1  0  0  0  0
 25 22  1  0  0  0  0
 26 29  1  0  0  0  0
 26 20  1  0  0  0  0
 27 28  1  0  0  0  0
 27 26  1  0  0  0  0
 28 26  1  0  0  0  0
 30 27  1  0  0  0  0
 31 27  1  0  0  0  0
 32 28  1  0  0  0  0
 33 28  1  0  0  0  0
 35 34  1  0  0  0  0
 35 37  1  0  0  0  0
 36 35  1  0  0  0  0
 36 37  1  0  0  0  0
M  END
>  <minimizedAffinity>
-5.10048485

$$$$
