
 OpenBabel03242517123D

 41 44  0  0  1  0  0  0  0  0999 V2000
   38.9410   27.6970   41.9240 C   0  0  2  0  0  0  0  0  0  0  0  0
   38.1170   28.8750   42.3160 C   0  0  2  0  0  0  0  0  0  0  0  0
   37.3130   28.6380   43.5410 C   0  0  0  0  0  0  0  0  0  0  0  0
   36.4800   27.3840   43.5110 C   0  0  0  0  0  0  0  0  0  0  0  0
   37.1250   26.2420   42.7810 C   0  0  0  0  0  0  0  0  0  0  0  0
   38.6260   26.4260   42.6570 C   0  0  0  0  0  0  0  0  0  0  0  0
   38.7710   27.5000   40.8240 H   0  0  0  0  0  0  0  0  0  0  0  0
   38.8010   29.7230   42.5300 H   0  0  0  0  0  0  0  0  0  0  0  0
   36.6300   29.5030   43.7030 H   0  0  0  0  0  0  0  0  0  0  0  0
   37.9570   28.5950   44.4270 H   0  0  0  0  0  0  0  0  0  0  0  0
   36.1370   27.1460   44.5290 H   0  0  0  0  0  0  0  0  0  0  0  0
   35.5600   27.6440   42.9220 H   0  0  0  0  0  0  0  0  0  0  0  0
   36.6360   25.9950   41.8160 H   0  0  0  0  0  0  0  0  0  0  0  0
   36.9830   25.3430   43.4290 H   0  0  0  0  0  0  0  0  0  0  0  0
   39.0630   26.2960   43.6360 H   0  0  0  0  0  0  0  0  0  0  0  0
   38.9540   25.5770   41.9850 H   0  0  0  0  0  0  0  0  0  0  0  0
   36.8820   30.7420   41.1430 C   0  0  1  0  0  0  0  0  0  0  0  0
   37.2390   29.3040   41.1620 C   0  0  1  0  0  0  0  0  0  0  0  0
   37.9000   28.9940   39.9800 O   0  0  0  0  0  0  0  0  0  0  0  0
   38.3760   30.1730   39.4320 C   0  0  0  0  0  0  0  0  0  0  0  0
   37.2060   31.1080   39.6870 C   0  0  2  0  0  0  0  0  0  0  0  0
   37.4640   31.3890   41.8180 H   0  0  0  0  0  0  0  0  0  0  0  0
   36.3090   28.6940   41.2140 H   0  0  0  0  0  0  0  0  0  0  0  0
   38.5550   29.9920   38.3540 H   0  0  0  0  0  0  0  0  0  0  0  0
   39.2510   30.4800   40.0030 H   0  0  0  0  0  0  0  0  0  0  0  0
   36.3710   30.8770   39.0220 H   0  0  0  0  0  0  0  0  0  0  0  0
   35.5460   30.9920   41.3640 O   0  0  0  0  0  0  0  0  0  0  0  0
   35.0640   30.1310   41.1860 H   0  0  0  0  0  0  0  0  0  0  0  0
   37.5750   32.4410   39.6340 O   0  0  0  0  0  0  0  0  0  0  0  0
   38.6340   32.7650   40.4460 C   0  0  0  0  0  3  0  0  0  0  0  0
   39.7270   33.5700   39.7250 C   0  0  0  0  0  2  0  0  0  0  0  0
   38.9430   34.1560   40.8370 C   0  0  0  0  0  2  0  0  0  0  0  0
   40.3900   27.9590   42.0420 C   0  0  0  0  0  0  0  0  0  0  0  0
   40.9290   27.7210   43.3070 C   0  0  0  0  0  0  0  0  0  0  0  0
   42.2960   27.9310   43.5430 C   0  0  0  0  0  0  0  0  0  0  0  0
   43.0330   28.3780   42.4520 N   0  0  0  0  0  0  0  0  0  0  0  0
   42.4710   28.5940   41.2410 C   0  0  0  0  0  0  0  0  0  0  0  0
   41.1490   28.3880   41.0290 N   0  0  0  0  0  0  0  0  0  0  0  0
   40.4930   27.3900   44.2350 H   0  0  0  0  0  0  0  0  0  0  0  0
   42.8370   27.7930   44.4440 H   0  0  0  0  0  0  0  0  0  0  0  0
   43.1510   28.9400   40.4810 H   0  0  0  0  0  0  0  0  0  0  0  0
  1  7  1  6  0  0  0
  1 33  1  0  0  0  0
  1  2  1  0  0  0  0
  1  6  1  0  0  0  0
  2  8  1  1  0  0  0
  2  3  1  0  0  0  0
  3  9  1  0  0  0  0
  3 10  1  0  0  0  0
  4  3  1  0  0  0  0
  4 11  1  0  0  0  0
  5 14  1  0  0  0  0
  5  4  1  0  0  0  0
  6  5  1  0  0  0  0
  6 15  1  0  0  0  0
 12  4  1  0  0  0  0
 13  5  1  0  0  0  0
 16  6  1  0  0  0  0
 17 18  1  0  0  0  0
 17 27  1  0  0  0  0
 17 22  1  1  0  0  0
 18 23  1  1  0  0  0
 18  2  1  0  0  0  0
 19 18  1  0  0  0  0
 20 21  1  0  0  0  0
 20 19  1  0  0  0  0
 20 25  1  0  0  0  0
 21 26  1  6  0  0  0
 21 17  1  0  0  0  0
 24 20  1  0  0  0  0
 28 27  1  0  0  0  0
 29 21  1  0  0  0  0
 29 30  1  0  0  0  0
 30 32  1  0  0  0  0
 31 30  1  0  0  0  0
 31 32  1  0  0  0  0
 33 34  1  0  0  0  0
 34 35  2  0  0  0  0
 34 39  1  0  0  0  0
 35 40  1  0  0  0  0
 36 35  1  0  0  0  0
 37 36  2  0  0  0  0
 38 37  1  0  0  0  0
 38 33  2  0  0  0  0
 41 37  1  0  0  0  0
M  END
>  <minimizedAffinity>
-5.72645617

$$$$

 OpenBabel03242517123D

 41 44  0  0  1  0  0  0  0  0999 V2000
   37.1020   26.6770   41.3570 C   0  0  2  0  0  0  0  0  0  0  0  0
   37.6320   28.0480   41.1120 C   0  0  2  0  0  0  0  0  0  0  0  0
   38.1950   28.6780   42.3320 C   0  0  0  0  0  0  0  0  0  0  0  0
   37.2780   28.6620   43.5260 C   0  0  0  0  0  0  0  0  0  0  0  0
   36.4240   27.4320   43.6200 C   0  0  0  0  0  0  0  0  0  0  0  0
   36.9890   26.2860   42.8020 C   0  0  0  0  0  0  0  0  0  0  0  0
   36.0640   26.6170   40.9130 H   0  0  0  0  0  0  0  0  0  0  0  0
   38.4540   27.9750   40.3690 H   0  0  0  0  0  0  0  0  0  0  0  0
   38.4540   29.7390   42.1090 H   0  0  0  0  0  0  0  0  0  0  0  0
   39.1360   28.1960   42.6210 H   0  0  0  0  0  0  0  0  0  0  0  0
   37.8540   28.8960   44.4340 H   0  0  0  0  0  0  0  0  0  0  0  0
   36.5670   29.5180   43.3760 H   0  0  0  0  0  0  0  0  0  0  0  0
   35.3490   27.6180   43.4210 H   0  0  0  0  0  0  0  0  0  0  0  0
   36.4800   27.0990   44.6850 H   0  0  0  0  0  0  0  0  0  0  0  0
   37.8850   25.9330   43.2910 H   0  0  0  0  0  0  0  0  0  0  0  0
   36.1920   25.4850   42.8570 H   0  0  0  0  0  0  0  0  0  0  0  0
   36.6940   30.3690   40.7630 C   0  0  1  0  0  0  0  0  0  0  0  0
   36.5610   28.9180   40.4930 C   0  0  1  0  0  0  0  0  0  0  0  0
   36.5840   28.7170   39.1180 O   0  0  0  0  0  0  0  0  0  0  0  0
   37.1570   29.8320   38.5310 C   0  0  0  0  0  0  0  0  0  0  0  0
   36.5320   30.9490   39.3500 C   0  0  2  0  0  0  0  0  0  0  0  0
   37.6620   30.6920   41.1780 H   0  0  0  0  0  0  0  0  0  0  0  0
   35.5820   28.5590   40.8830 H   0  0  0  0  0  0  0  0  0  0  0  0
   36.8420   29.8490   37.4690 H   0  0  0  0  0  0  0  0  0  0  0  0
   38.2330   29.7840   38.6960 H   0  0  0  0  0  0  0  0  0  0  0  0
   35.4790   31.0790   39.0910 H   0  0  0  0  0  0  0  0  0  0  0  0
   35.6970   30.8860   41.5590 O   0  0  0  0  0  0  0  0  0  0  0  0
   34.9400   30.2290   41.5270 H   0  0  0  0  0  0  0  0  0  0  0  0
   37.2500   32.1290   39.2670 O   0  0  0  0  0  0  0  0  0  0  0  0
   38.3770   32.1590   40.0500 C   0  0  0  0  0  3  0  0  0  0  0  0
   39.4930   33.0460   39.4740 C   0  0  0  0  0  2  0  0  0  0  0  0
   38.8270   33.3770   40.7550 C   0  0  0  0  0  2  0  0  0  0  0  0
   37.8770   25.6380   40.6500 C   0  0  0  0  0  0  0  0  0  0  0  0
   37.7250   24.3460   41.1540 C   0  0  0  0  0  0  0  0  0  0  0  0
   38.4080   23.2720   40.5630 C   0  0  0  0  0  0  0  0  0  0  0  0
   39.2170   23.5970   39.4790 N   0  0  0  0  0  0  0  0  0  0  0  0
   39.3360   24.8640   39.0220 C   0  0  0  0  0  0  0  0  0  0  0  0
   38.6690   25.8910   39.6030 N   0  0  0  0  0  0  0  0  0  0  0  0
   37.1540   23.9460   41.9750 H   0  0  0  0  0  0  0  0  0  0  0  0
   38.3870   22.2490   40.8370 H   0  0  0  0  0  0  0  0  0  0  0  0
   39.9930   24.9810   38.1770 H   0  0  0  0  0  0  0  0  0  0  0  0
  1  7  1  6  0  0  0
  1  6  1  0  0  0  0
  2  8  1  6  0  0  0
  2  1  1  0  0  0  0
  2  3  1  0  0  0  0
  3 10  1  0  0  0  0
  3  4  1  0  0  0  0
  4  5  1  0  0  0  0
  4 11  1  0  0  0  0
  5 14  1  0  0  0  0
  6 16  1  0  0  0  0
  6 15  1  0  0  0  0
  6  5  1  0  0  0  0
  9  3  1  0  0  0  0
 12  4  1  0  0  0  0
 13  5  1  0  0  0  0
 17 22  1  1  0  0  0
 17 27  1  0  0  0  0
 18 17  1  0  0  0  0
 18 23  1  1  0  0  0
 18  2  1  0  0  0  0
 19 18  1  0  0  0  0
 20 25  1  0  0  0  0
 20 19  1  0  0  0  0
 20 21  1  0  0  0  0
 21 26  1  6  0  0  0
 21 17  1  0  0  0  0
 24 20  1  0  0  0  0
 28 27  1  0  0  0  0
 29 21  1  0  0  0  0
 29 30  1  0  0  0  0
 30 32  1  0  0  0  0
 31 30  1  0  0  0  0
 31 32  1  0  0  0  0
 33 34  1  0  0  0  0
 33  1  1  0  0  0  0
 34 39  1  0  0  0  0
 35 40  1  0  0  0  0
 35 34  2  0  0  0  0
 36 35  1  0  0  0  0
 37 36  2  0  0  0  0
 37 38  1  0  0  0  0
 38 33  2  0  0  0  0
 41 37  1  0  0  0  0
M  END
>  <minimizedAffinity>
-5.71721077

$$$$

 OpenBabel03242517123D

 41 44  0  0  1  0  0  0  0  0999 V2000
   37.2010   30.2960   38.7040 C   0  0  2  0  0  0  0  0  0  0  0  0
   36.7600   30.4900   40.1140 C   0  0  2  0  0  0  0  0  0  0  0  0
   36.5990   31.9200   40.4790 C   0  0  0  0  0  0  0  0  0  0  0  0
   37.7900   32.7850   40.1640 C   0  0  0  0  0  0  0  0  0  0  0  0
   38.5170   32.3880   38.9120 C   0  0  0  0  0  0  0  0  0  0  0  0
   37.6490   31.5430   37.9990 C   0  0  0  0  0  0  0  0  0  0  0  0
   38.0750   29.5800   38.7050 H   0  0  0  0  0  0  0  0  0  0  0  0
   35.7690   30.0050   40.2390 H   0  0  0  0  0  0  0  0  0  0  0  0
   36.3950   31.9970   41.5720 H   0  0  0  0  0  0  0  0  0  0  0  0
   35.7250   32.3530   39.9810 H   0  0  0  0  0  0  0  0  0  0  0  0
   37.4980   33.8450   40.2120 H   0  0  0  0  0  0  0  0  0  0  0  0
   38.5170   32.6210   41.0050 H   0  0  0  0  0  0  0  0  0  0  0  0
   39.5150   31.9420   39.0970 H   0  0  0  0  0  0  0  0  0  0  0  0
   38.7090   33.3360   38.3540 H   0  0  0  0  0  0  0  0  0  0  0  0
   36.8820   32.1780   37.5800 H   0  0  0  0  0  0  0  0  0  0  0  0
   38.3510   31.2120   37.1760 H   0  0  0  0  0  0  0  0  0  0  0  0
   37.0710   28.8660   42.0250 C   0  0  1  0  0  0  0  0  0  0  0  0
   37.7110   29.7890   41.0580 C   0  0  1  0  0  0  0  0  0  0  0  0
   38.6240   29.0720   40.2960 O   0  0  0  0  0  0  0  0  0  0  0  0
   38.3000   27.7290   40.3880 C   0  0  0  0  0  0  0  0  0  0  0  0
   37.9440   27.6130   41.8610 C   0  0  2  0  0  0  0  0  0  0  0  0
   36.0210   28.6060   41.8170 H   0  0  0  0  0  0  0  0  0  0  0  0
   38.2630   30.5800   41.6130 H   0  0  0  0  0  0  0  0  0  0  0  0
   39.2020   27.1480   40.1160 H   0  0  0  0  0  0  0  0  0  0  0  0
   37.4270   27.5500   39.7620 H   0  0  0  0  0  0  0  0  0  0  0  0
   38.8410   27.6680   42.4830 H   0  0  0  0  0  0  0  0  0  0  0  0
   37.1530   29.2800   43.3360 O   0  0  0  0  0  0  0  0  0  0  0  0
   37.8900   29.9590   43.3720 H   0  0  0  0  0  0  0  0  0  0  0  0
   37.1760   26.4950   42.1310 O   0  0  0  0  0  0  0  0  0  0  0  0
   37.4310   25.4230   41.3120 C   0  0  0  0  0  3  0  0  0  0  0  0
   37.7850   24.1410   42.0830 C   0  0  0  0  0  2  0  0  0  0  0  0
   36.5570   24.2330   41.2590 C   0  0  0  0  0  2  0  0  0  0  0  0
   36.1710   29.6350   37.8770 C   0  0  0  0  0  0  0  0  0  0  0  0
   35.0930   29.1090   38.5910 C   0  0  0  0  0  0  0  0  0  0  0  0
   34.0490   28.4590   37.9160 C   0  0  0  0  0  0  0  0  0  0  0  0
   34.1790   28.3870   36.5330 N   0  0  0  0  0  0  0  0  0  0  0  0
   35.2410   28.9110   35.8800 C   0  0  0  0  0  0  0  0  0  0  0  0
   36.2420   29.5360   36.5460 N   0  0  0  0  0  0  0  0  0  0  0  0
   34.8600   29.0780   39.6420 H   0  0  0  0  0  0  0  0  0  0  0  0
   33.1770   28.0170   38.3240 H   0  0  0  0  0  0  0  0  0  0  0  0
   35.2210   28.7880   34.8110 H   0  0  0  0  0  0  0  0  0  0  0  0
  1  7  1  1  0  0  0
  1  2  1  0  0  0  0
  2  8  1  1  0  0  0
  2  3  1  0  0  0  0
  2 18  1  0  0  0  0
  3  9  1  0  0  0  0
  4 11  1  0  0  0  0
  4  3  1  0  0  0  0
  4 12  1  0  0  0  0
  5 13  1  0  0  0  0
  5  4  1  0  0  0  0
  6  1  1  0  0  0  0
  6  5  1  0  0  0  0
 10  3  1  0  0  0  0
 14  5  1  0  0  0  0
 15  6  1  0  0  0  0
 16  6  1  0  0  0  0
 17 22  1  6  0  0  0
 17 27  1  0  0  0  0
 18 23  1  1  0  0  0
 18 17  1  0  0  0  0
 19 20  1  0  0  0  0
 19 18  1  0  0  0  0
 20 21  1  0  0  0  0
 21 17  1  0  0  0  0
 21 29  1  0  0  0  0
 21 26  1  1  0  0  0
 24 20  1  0  0  0  0
 25 20  1  0  0  0  0
 27 28  1  0  0  0  0
 30 31  1  0  0  0  0
 30 29  1  0  0  0  0
 32 30  1  0  0  0  0
 32 31  1  0  0  0  0
 33 34  1  0  0  0  0
 33  1  1  0  0  0  0
 34 39  1  0  0  0  0
 35 40  1  0  0  0  0
 35 34  2  0  0  0  0
 36 35  1  0  0  0  0
 37 36  2  0  0  0  0
 37 38  1  0  0  0  0
 38 33  2  0  0  0  0
 41 37  1  0  0  0  0
M  END
>  <minimizedAffinity>
-5.47470427

$$$$

 OpenBabel03242517123D

 41 44  0  0  1  0  0  0  0  0999 V2000
   36.5920   28.7620   41.4130 C   0  0  2  0  0  0  0  0  0  0  0  0
   37.9840   29.2570   41.2190 C   0  0  2  0  0  0  0  0  0  0  0  0
   39.0020   28.3920   41.8660 C   0  0  0  0  0  0  0  0  0  0  0  0
   38.7370   28.0900   43.3170 C   0  0  0  0  0  0  0  0  0  0  0  0
   37.2810   27.9470   43.6520 C   0  0  0  0  0  0  0  0  0  0  0  0
   36.4420   27.6600   42.4210 C   0  0  0  0  0  0  0  0  0  0  0  0
   35.9580   29.6290   41.7690 H   0  0  0  0  0  0  0  0  0  0  0  0
   38.2020   29.2640   40.1300 H   0  0  0  0  0  0  0  0  0  0  0  0
   39.9990   28.8840   41.7920 H   0  0  0  0  0  0  0  0  0  0  0  0
   39.0990   27.4390   41.3330 H   0  0  0  0  0  0  0  0  0  0  0  0
   39.3700   27.2500   43.6390 H   0  0  0  0  0  0  0  0  0  0  0  0
   39.0960   28.9900   43.8860 H   0  0  0  0  0  0  0  0  0  0  0  0
   36.8800   28.7800   44.2660 H   0  0  0  0  0  0  0  0  0  0  0  0
   37.2010   27.0360   44.2920 H   0  0  0  0  0  0  0  0  0  0  0  0
   36.6610   26.6550   42.0920 H   0  0  0  0  0  0  0  0  0  0  0  0
   35.3760   27.7080   42.7950 H   0  0  0  0  0  0  0  0  0  0  0  0
   39.4470   31.2910   41.5540 C   0  0  1  0  0  0  0  0  0  0  0  0
   38.1000   30.6880   41.6950 C   0  0  1  0  0  0  0  0  0  0  0  0
   37.1910   31.4560   40.9790 O   0  0  0  0  0  0  0  0  0  0  0  0
   37.8970   32.2090   40.0570 C   0  0  0  0  0  0  0  0  0  0  0  0
   39.1020   32.6280   40.8820 C   0  0  2  0  0  0  0  0  0  0  0  0
   40.1550   30.7370   40.9170 H   0  0  0  0  0  0  0  0  0  0  0  0
   37.8010   30.7000   42.7670 H   0  0  0  0  0  0  0  0  0  0  0  0
   37.2570   33.0640   39.7640 H   0  0  0  0  0  0  0  0  0  0  0  0
   38.1940   31.5500   39.2410 H   0  0  0  0  0  0  0  0  0  0  0  0
   38.8240   33.3850   41.6190 H   0  0  0  0  0  0  0  0  0  0  0  0
   40.0710   31.5580   42.7520 O   0  0  0  0  0  0  0  0  0  0  0  0
   39.3520   31.5640   43.4500 H   0  0  0  0  0  0  0  0  0  0  0  0
   40.1700   33.0200   40.0940 O   0  0  0  0  0  0  0  0  0  0  0  0
   40.1170   32.5590   38.8020 C   0  0  0  0  0  3  0  0  0  0  0  0
   41.2530   33.0970   37.9180 C   0  0  0  0  0  2  0  0  0  0  0  0
   41.1380   31.6550   38.2350 C   0  0  0  0  0  2  0  0  0  0  0  0
   35.9660   28.3290   40.1480 C   0  0  0  0  0  0  0  0  0  0  0  0
   34.9050   29.1250   39.7150 C   0  0  0  0  0  0  0  0  0  0  0  0
   34.2300   28.8170   38.5240 C   0  0  0  0  0  0  0  0  0  0  0  0
   34.6930   27.6950   37.8440 N   0  0  0  0  0  0  0  0  0  0  0  0
   35.7260   26.9510   38.2990 C   0  0  0  0  0  0  0  0  0  0  0  0
   36.3670   27.2610   39.4520 N   0  0  0  0  0  0  0  0  0  0  0  0
   34.4340   30.0010   40.1290 H   0  0  0  0  0  0  0  0  0  0  0  0
   33.4160   29.3270   38.0780 H   0  0  0  0  0  0  0  0  0  0  0  0
   35.9850   26.1090   37.6800 H   0  0  0  0  0  0  0  0  0  0  0  0
  1  7  1  1  0  0  0
  1  6  1  0  0  0  0
  2  8  1  6  0  0  0
  2  1  1  0  0  0  0
  2 18  1  0  0  0  0
  2  3  1  0  0  0  0
  3  4  1  0  0  0  0
  4 11  1  0  0  0  0
  4  5  1  0  0  0  0
  4 12  1  0  0  0  0
  5 13  1  0  0  0  0
  5 14  1  0  0  0  0
  6 16  1  0  0  0  0
  6  5  1  0  0  0  0
  9  3  1  0  0  0  0
 10  3  1  0  0  0  0
 15  6  1  0  0  0  0
 17 22  1  6  0  0  0
 17 18  1  0  0  0  0
 17 27  1  0  0  0  0
 18 23  1  1  0  0  0
 19 18  1  0  0  0  0
 20 21  1  0  0  0  0
 20 19  1  0  0  0  0
 21 17  1  0  0  0  0
 21 26  1  1  0  0  0
 24 20  1  0  0  0  0
 25 20  1  0  0  0  0
 27 28  1  0  0  0  0
 29 21  1  0  0  0  0
 30 29  1  0  0  0  0
 31 32  1  0  0  0  0
 31 30  1  0  0  0  0
 32 30  1  0  0  0  0
 33  1  1  0  0  0  0
 34 39  1  0  0  0  0
 34 33  1  0  0  0  0
 35 34  2  0  0  0  0
 36 37  2  0  0  0  0
 36 35  1  0  0  0  0
 37 38  1  0  0  0  0
 38 33  2  0  0  0  0
 40 35  1  0  0  0  0
 41 37  1  0  0  0  0
M  END
>  <minimizedAffinity>
-5.39241695

$$$$

 OpenBabel03242517123D

 41 44  0  0  1  0  0  0  0  0999 V2000
   36.5940   26.0160   39.9660 C   0  0  2  0  0  0  0  0  0  0  0  0
   37.3640   27.1600   40.5310 C   0  0  2  0  0  0  0  0  0  0  0  0
   38.4380   26.7330   41.4620 C   0  0  0  0  0  0  0  0  0  0  0  0
   37.9870   25.7960   42.5520 C   0  0  0  0  0  0  0  0  0  0  0  0
   36.9120   24.8400   42.1260 C   0  0  0  0  0  0  0  0  0  0  0  0
   36.8540   24.6890   40.6170 C   0  0  0  0  0  0  0  0  0  0  0  0
   35.4930   26.2390   40.0890 H   0  0  0  0  0  0  0  0  0  0  0  0
   37.8510   27.7010   39.6920 H   0  0  0  0  0  0  0  0  0  0  0  0
   38.8850   27.6330   41.9430 H   0  0  0  0  0  0  0  0  0  0  0  0
   39.2560   26.2480   40.9170 H   0  0  0  0  0  0  0  0  0  0  0  0
   38.8650   25.3270   43.0190 H   0  0  0  0  0  0  0  0  0  0  0  0
   37.5230   26.4480   43.3400 H   0  0  0  0  0  0  0  0  0  0  0  0
   35.9220   25.0490   42.5800 H   0  0  0  0  0  0  0  0  0  0  0  0
   37.2180   23.8390   42.5180 H   0  0  0  0  0  0  0  0  0  0  0  0
   37.7300   24.1440   40.3000 H   0  0  0  0  0  0  0  0  0  0  0  0
   35.9340   24.0570   40.4370 H   0  0  0  0  0  0  0  0  0  0  0  0
   37.0660   29.3740   41.7140 C   0  0  1  0  0  0  0  0  0  0  0  0
   36.4240   28.1420   41.1960 C   0  0  1  0  0  0  0  0  0  0  0  0
   35.4520   28.5010   40.2710 O   0  0  0  0  0  0  0  0  0  0  0  0
   35.7250   29.7880   39.8390 C   0  0  0  0  0  0  0  0  0  0  0  0
   36.1360   30.4540   41.1410 C   0  0  2  0  0  0  0  0  0  0  0  0
   38.0950   29.5610   41.3670 H   0  0  0  0  0  0  0  0  0  0  0  0
   35.9290   27.6040   42.0350 H   0  0  0  0  0  0  0  0  0  0  0  0
   34.7890   30.2050   39.4190 H   0  0  0  0  0  0  0  0  0  0  0  0
   36.5640   29.7390   39.1450 H   0  0  0  0  0  0  0  0  0  0  0  0
   35.2690   30.6160   41.7860 H   0  0  0  0  0  0  0  0  0  0  0  0
   37.0550   29.4780   43.0870 O   0  0  0  0  0  0  0  0  0  0  0  0
   36.3480   28.8460   43.4130 H   0  0  0  0  0  0  0  0  0  0  0  0
   36.8690   31.6090   40.9340 O   0  0  0  0  0  0  0  0  0  0  0  0
   36.9780   31.9790   39.6170 C   0  0  0  0  0  3  0  0  0  0  0  0
   37.3330   33.4630   39.4300 C   0  0  0  0  0  2  0  0  0  0  0  0
   38.2600   32.3890   39.0070 C   0  0  0  0  0  2  0  0  0  0  0  0
   36.7910   25.8700   38.5100 C   0  0  0  0  0  0  0  0  0  0  0  0
   36.3580   24.6540   37.9780 C   0  0  0  0  0  0  0  0  0  0  0  0
   36.4890   24.3980   36.6050 C   0  0  0  0  0  0  0  0  0  0  0  0
   37.0630   25.4180   35.8540 N   0  0  0  0  0  0  0  0  0  0  0  0
   37.4680   26.5820   36.4100 C   0  0  0  0  0  0  0  0  0  0  0  0
   37.3360   26.8150   37.7380 N   0  0  0  0  0  0  0  0  0  0  0  0
   35.9120   23.7810   38.4230 H   0  0  0  0  0  0  0  0  0  0  0  0
   36.2070   23.5290   36.0680 H   0  0  0  0  0  0  0  0  0  0  0  0
   37.8970   27.2890   35.7200 H   0  0  0  0  0  0  0  0  0  0  0  0
  1  7  1  1  0  0  0
  1  2  1  0  0  0  0
  1  6  1  0  0  0  0
  2  8  1  6  0  0  0
  2 18  1  0  0  0  0
  2  3  1  0  0  0  0
  3  9  1  0  0  0  0
  3  4  1  0  0  0  0
  4 11  1  0  0  0  0
  4 12  1  0  0  0  0
  5 14  1  0  0  0  0
  5  4  1  0  0  0  0
  5 13  1  0  0  0  0
  6  5  1  0  0  0  0
 10  3  1  0  0  0  0
 15  6  1  0  0  0  0
 16  6  1  0  0  0  0
 17 22  1  6  0  0  0
 17 27  1  0  0  0  0
 18 17  1  0  0  0  0
 18 23  1  1  0  0  0
 19 18  1  0  0  0  0
 20 19  1  0  0  0  0
 20 21  1  0  0  0  0
 21 17  1  0  0  0  0
 21 26  1  1  0  0  0
 24 20  1  0  0  0  0
 25 20  1  0  0  0  0
 27 28  1  0  0  0  0
 29 21  1  0  0  0  0
 30 29  1  0  0  0  0
 31 30  1  0  0  0  0
 32 31  1  0  0  0  0
 32 30  1  0  0  0  0
 33  1  1  0  0  0  0
 34 39  1  0  0  0  0
 34 33  1  0  0  0  0
 35 34  2  0  0  0  0
 36 37  2  0  0  0  0
 36 35  1  0  0  0  0
 37 38  1  0  0  0  0
 38 33  2  0  0  0  0
 40 35  1  0  0  0  0
 41 37  1  0  0  0  0
M  END
>  <minimizedAffinity>
-5.27337694

$$$$

 OpenBabel03242517123D

 41 44  0  0  1  0  0  0  0  0999 V2000
   38.2020   30.6680   40.2850 C   0  0  2  0  0  0  0  0  0  0  0  0
   39.5360   31.2330   39.9360 C   0  0  2  0  0  0  0  0  0  0  0  0
   39.6290   32.6930   40.1820 C   0  0  0  0  0  0  0  0  0  0  0  0
   38.5220   33.5050   39.5640 C   0  0  0  0  0  0  0  0  0  0  0  0
   37.1920   32.8110   39.5510 C   0  0  0  0  0  0  0  0  0  0  0  0
   37.1330   31.6830   40.5650 C   0  0  0  0  0  0  0  0  0  0  0  0
   37.8480   30.0400   39.4140 H   0  0  0  0  0  0  0  0  0  0  0  0
   40.3000   30.7410   40.5750 H   0  0  0  0  0  0  0  0  0  0  0  0
   40.5990   33.0700   39.7830 H   0  0  0  0  0  0  0  0  0  0  0  0
   39.6450   32.9070   41.2570 H   0  0  0  0  0  0  0  0  0  0  0  0
   38.5130   34.5120   40.0070 H   0  0  0  0  0  0  0  0  0  0  0  0
   38.8090   33.6390   38.4860 H   0  0  0  0  0  0  0  0  0  0  0  0
   36.8580   32.5020   38.5390 H   0  0  0  0  0  0  0  0  0  0  0  0
   36.4460   33.5670   39.8960 H   0  0  0  0  0  0  0  0  0  0  0  0
   37.1100   32.1200   41.5520 H   0  0  0  0  0  0  0  0  0  0  0  0
   36.1440   31.1750   40.3570 H   0  0  0  0  0  0  0  0  0  0  0  0
   40.4900   32.0060   37.7270 C   0  0  1  0  0  0  0  0  0  0  0  0
   39.8850   30.8970   38.5030 C   0  0  1  0  0  0  0  0  0  0  0  0
   40.7690   29.8260   38.5140 O   0  0  0  0  0  0  0  0  0  0  0  0
   42.0300   30.3070   38.2060 C   0  0  0  0  0  0  0  0  0  0  0  0
   41.7040   31.3010   37.1040 C   0  0  2  0  0  0  0  0  0  0  0  0
   40.8360   32.8700   38.3160 H   0  0  0  0  0  0  0  0  0  0  0  0
   38.9440   30.5700   38.0050 H   0  0  0  0  0  0  0  0  0  0  0  0
   42.6360   29.4520   37.8500 H   0  0  0  0  0  0  0  0  0  0  0  0
   42.4200   30.8180   39.0860 H   0  0  0  0  0  0  0  0  0  0  0  0
   41.4340   30.7820   36.1810 H   0  0  0  0  0  0  0  0  0  0  0  0
   39.6940   32.4780   36.7070 O   0  0  0  0  0  0  0  0  0  0  0  0
   39.0130   31.7650   36.5270 H   0  0  0  0  0  0  0  0  0  0  0  0
   42.7120   32.2300   36.9160 O   0  0  0  0  0  0  0  0  0  0  0  0
   43.3990   32.5560   38.0590 C   0  0  0  0  0  3  0  0  0  0  0  0
   44.6240   33.4460   37.7990 C   0  0  0  0  0  2  0  0  0  0  0  0
   43.4670   33.9350   38.5840 C   0  0  0  0  0  2  0  0  0  0  0  0
   38.2670   29.7310   41.4240 C   0  0  0  0  0  0  0  0  0  0  0  0
   39.5480   29.2730   41.7360 C   0  0  0  0  0  0  0  0  0  0  0  0
   39.7400   28.3800   42.8010 C   0  0  0  0  0  0  0  0  0  0  0  0
   38.5890   28.0070   43.4880 N   0  0  0  0  0  0  0  0  0  0  0  0
   37.3660   28.4760   43.1530 C   0  0  0  0  0  0  0  0  0  0  0  0
   37.1970   29.3370   42.1210 N   0  0  0  0  0  0  0  0  0  0  0  0
   40.5150   29.4590   41.3000 H   0  0  0  0  0  0  0  0  0  0  0  0
   40.6460   27.9540   43.1480 H   0  0  0  0  0  0  0  0  0  0  0  0
   36.5580   28.1100   43.7640 H   0  0  0  0  0  0  0  0  0  0  0  0
  1  7  1  6  0  0  0
  1  6  1  0  0  0  0
  1 33  1  0  0  0  0
  2  3  1  0  0  0  0
  2  1  1  0  0  0  0
  2  8  1  1  0  0  0
  3 10  1  0  0  0  0
  4 11  1  0  0  0  0
  4  3  1  0  0  0  0
  5  4  1  0  0  0  0
  5 14  1  0  0  0  0
  5  6  1  0  0  0  0
  6 15  1  0  0  0  0
  9  3  1  0  0  0  0
 12  4  1  0  0  0  0
 13  5  1  0  0  0  0
 16  6  1  0  0  0  0
 17 22  1  1  0  0  0
 17 18  1  0  0  0  0
 18 23  1  6  0  0  0
 18 19  1  0  0  0  0
 18  2  1  0  0  0  0
 20 19  1  0  0  0  0
 20 25  1  0  0  0  0
 21 26  1  6  0  0  0
 21 17  1  0  0  0  0
 21 20  1  0  0  0  0
 24 20  1  0  0  0  0
 27 17  1  0  0  0  0
 28 27  1  0  0  0  0
 29 21  1  0  0  0  0
 29 30  1  0  0  0  0
 30 32  1  0  0  0  0
 31 30  1  0  0  0  0
 31 32  1  0  0  0  0
 33 34  2  0  0  0  0
 33 38  1  0  0  0  0
 34 35  1  0  0  0  0
 35 40  1  0  0  0  0
 35 36  2  0  0  0  0
 37 36  1  0  0  0  0
 37 41  1  0  0  0  0
 38 37  2  0  0  0  0
 39 34  1  0  0  0  0
M  END
>  <minimizedAffinity>
-5.26462889

$$$$

 OpenBabel03242517123D

 41 44  0  0  1  0  0  0  0  0999 V2000
   39.5620   32.2130   40.6850 C   0  0  2  0  0  0  0  0  0  0  0  0
   38.7050   31.0720   40.2570 C   0  0  2  0  0  0  0  0  0  0  0  0
   37.8960   31.3760   39.0500 C   0  0  0  0  0  0  0  0  0  0  0  0
   37.0950   32.6480   39.1370 C   0  0  0  0  0  0  0  0  0  0  0  0
   37.7740   33.7440   39.9030 C   0  0  0  0  0  0  0  0  0  0  0  0
   39.2710   33.5190   40.0050 C   0  0  0  0  0  0  0  0  0  0  0  0
   39.4070   32.3720   41.7940 H   0  0  0  0  0  0  0  0  0  0  0  0
   39.3660   30.2160   40.0040 H   0  0  0  0  0  0  0  0  0  0  0  0
   37.1900   30.5350   38.8620 H   0  0  0  0  0  0  0  0  0  0  0  0
   38.5320   31.4370   38.1600 H   0  0  0  0  0  0  0  0  0  0  0  0
   36.7480   32.9320   38.1320 H   0  0  0  0  0  0  0  0  0  0  0  0
   36.1730   32.3880   39.7250 H   0  0  0  0  0  0  0  0  0  0  0  0
   37.3010   33.9650   40.8820 H   0  0  0  0  0  0  0  0  0  0  0  0
   37.6490   34.6700   39.2920 H   0  0  0  0  0  0  0  0  0  0  0  0
   39.7020   33.6750   39.0270 H   0  0  0  0  0  0  0  0  0  0  0  0
   39.6270   34.3330   40.7050 H   0  0  0  0  0  0  0  0  0  0  0  0
   36.8420   29.5660   41.0640 C   0  0  1  0  0  0  0  0  0  0  0  0
   37.8270   30.6210   41.4030 C   0  0  1  0  0  0  0  0  0  0  0  0
   38.6510   30.1500   42.4170 O   0  0  0  0  0  0  0  0  0  0  0  0
   38.5650   28.7690   42.4350 C   0  0  0  0  0  0  0  0  0  0  0  0
   37.0770   28.5650   42.2050 C   0  0  2  0  0  0  0  0  0  0  0  0
   36.9970   29.0590   40.0990 H   0  0  0  0  0  0  0  0  0  0  0  0
   37.2890   31.5210   41.7770 H   0  0  0  0  0  0  0  0  0  0  0  0
   38.8960   28.4260   43.4350 H   0  0  0  0  0  0  0  0  0  0  0  0
   39.1450   28.3840   41.5970 H   0  0  0  0  0  0  0  0  0  0  0  0
   36.5050   28.8340   43.0950 H   0  0  0  0  0  0  0  0  0  0  0  0
   35.5310   29.9840   41.1190 O   0  0  0  0  0  0  0  0  0  0  0  0
   35.5240   30.8220   41.6690 H   0  0  0  0  0  0  0  0  0  0  0  0
   36.7830   27.2920   41.7480 O   0  0  0  0  0  0  0  0  0  0  0  0
   37.3670   26.2840   42.4740 C   0  0  0  0  0  3  0  0  0  0  0  0
   36.8120   24.8910   42.1350 C   0  0  0  0  0  2  0  0  0  0  0  0
   38.2220   25.2490   41.8580 C   0  0  0  0  0  2  0  0  0  0  0  0
   41.0020   31.9210   40.5430 C   0  0  0  0  0  0  0  0  0  0  0  0
   41.8420   33.0270   40.6780 C   0  0  0  0  0  0  0  0  0  0  0  0
   43.2320   32.8750   40.5660 C   0  0  0  0  0  0  0  0  0  0  0  0
   43.6790   31.5820   40.3180 N   0  0  0  0  0  0  0  0  0  0  0  0
   42.8300   30.5370   40.1940 C   0  0  0  0  0  0  0  0  0  0  0  0
   41.4890   30.6990   40.3040 N   0  0  0  0  0  0  0  0  0  0  0  0
   41.6500   34.0710   40.8580 H   0  0  0  0  0  0  0  0  0  0  0  0
   43.9840   33.6190   40.6460 H   0  0  0  0  0  0  0  0  0  0  0  0
   43.3020   29.5890   40.0020 H   0  0  0  0  0  0  0  0  0  0  0  0
  1  7  1  1  0  0  0
  2  8  1  6  0  0  0
  2  1  1  0  0  0  0
  2 18  1  0  0  0  0
  3  4  1  0  0  0  0
  3  2  1  0  0  0  0
  4 12  1  0  0  0  0
  4  5  1  0  0  0  0
  5  6  1  0  0  0  0
  5 13  1  0  0  0  0
  6  1  1  0  0  0  0
  6 16  1  0  0  0  0
  9  3  1  0  0  0  0
 10  3  1  0  0  0  0
 11  4  1  0  0  0  0
 14  5  1  0  0  0  0
 15  6  1  0  0  0  0
 17 22  1  6  0  0  0
 17 27  1  0  0  0  0
 17 18  1  0  0  0  0
 17 21  1  0  0  0  0
 18 23  1  1  0  0  0
 18 19  1  0  0  0  0
 19 20  1  0  0  0  0
 20 24  1  0  0  0  0
 21 20  1  0  0  0  0
 21 26  1  1  0  0  0
 25 20  1  0  0  0  0
 27 28  1  0  0  0  0
 29 21  1  0  0  0  0
 29 30  1  0  0  0  0
 31 30  1  0  0  0  0
 32 31  1  0  0  0  0
 32 30  1  0  0  0  0
 33 34  1  0  0  0  0
 33  1  1  0  0  0  0
 34 39  1  0  0  0  0
 35 40  1  0  0  0  0
 35 34  2  0  0  0  0
 36 35  1  0  0  0  0
 37 38  1  0  0  0  0
 37 36  2  0  0  0  0
 38 33  2  0  0  0  0
 41 37  1  0  0  0  0
M  END
>  <minimizedAffinity>
-5.26166582

$$$$

 OpenBabel03242517123D

 41 44  0  0  1  0  0  0  0  0999 V2000
   39.7150   31.9350   39.8690 C   0  0  2  0  0  0  0  0  0  0  0  0
   38.3550   31.3520   39.6960 C   0  0  2  0  0  0  0  0  0  0  0  0
   37.4230   32.2590   38.9800 C   0  0  0  0  0  0  0  0  0  0  0  0
   37.3430   33.6510   39.5470 C   0  0  0  0  0  0  0  0  0  0  0  0
   38.6450   34.1610   40.0930 C   0  0  0  0  0  0  0  0  0  0  0  0
   39.8300   33.3940   39.5380 C   0  0  0  0  0  0  0  0  0  0  0  0
   40.0130   31.8130   40.9530 H   0  0  0  0  0  0  0  0  0  0  0  0
   38.4470   30.4270   39.0890 H   0  0  0  0  0  0  0  0  0  0  0  0
   36.3990   31.8190   38.9980 H   0  0  0  0  0  0  0  0  0  0  0  0
   37.6950   32.3390   37.9220 H   0  0  0  0  0  0  0  0  0  0  0  0
   36.8550   34.3170   38.8200 H   0  0  0  0  0  0  0  0  0  0  0  0
   36.6470   33.5830   40.4260 H   0  0  0  0  0  0  0  0  0  0  0  0
   38.6630   34.2470   41.1990 H   0  0  0  0  0  0  0  0  0  0  0  0
   38.7520   35.2040   39.7080 H   0  0  0  0  0  0  0  0  0  0  0  0
   39.9440   33.6580   38.4970 H   0  0  0  0  0  0  0  0  0  0  0  0
   40.7140   33.7880   40.1230 H   0  0  0  0  0  0  0  0  0  0  0  0
   36.6230   30.0260   40.9740 C   0  0  1  0  0  0  0  0  0  0  0  0
   37.7900   30.9380   41.0370 C   0  0  1  0  0  0  0  0  0  0  0  0
   38.8030   30.3160   41.7570 O   0  0  0  0  0  0  0  0  0  0  0  0
   38.5500   28.9550   41.7670 C   0  0  0  0  0  0  0  0  0  0  0  0
   37.0440   28.9380   41.9740 C   0  0  2  0  0  0  0  0  0  0  0  0
   36.4300   29.5620   39.9940 H   0  0  0  0  0  0  0  0  0  0  0  0
   37.5010   31.8700   41.5730 H   0  0  0  0  0  0  0  0  0  0  0  0
   39.1060   28.5180   42.6190 H   0  0  0  0  0  0  0  0  0  0  0  0
   38.8120   28.5570   40.7870 H   0  0  0  0  0  0  0  0  0  0  0  0
   36.7900   29.2190   42.9990 H   0  0  0  0  0  0  0  0  0  0  0  0
   35.4470   30.5880   41.4180 O   0  0  0  0  0  0  0  0  0  0  0  0
   35.7050   31.3870   41.9660 H   0  0  0  0  0  0  0  0  0  0  0  0
   36.4730   27.7370   41.5930 O   0  0  0  0  0  0  0  0  0  0  0  0
   37.1910   27.0450   40.6490 C   0  0  0  0  0  3  0  0  0  0  0  0
   36.9440   25.5290   40.6900 C   0  0  0  0  0  2  0  0  0  0  0  0
   36.5530   26.3440   39.5170 C   0  0  0  0  0  2  0  0  0  0  0  0
   40.7440   31.1990   39.1090 C   0  0  0  0  0  0  0  0  0  0  0  0
   40.9560   31.6590   37.8090 C   0  0  0  0  0  0  0  0  0  0  0  0
   41.9110   31.0420   36.9880 C   0  0  0  0  0  0  0  0  0  0  0  0
   42.5980   29.9770   37.5590 N   0  0  0  0  0  0  0  0  0  0  0  0
   42.3630   29.5630   38.8250 C   0  0  0  0  0  0  0  0  0  0  0  0
   41.4360   30.1680   39.6060 N   0  0  0  0  0  0  0  0  0  0  0  0
   40.5050   32.4500   37.2330 H   0  0  0  0  0  0  0  0  0  0  0  0
   42.1760   31.2830   35.9900 H   0  0  0  0  0  0  0  0  0  0  0  0
   42.9610   28.7280   39.1470 H   0  0  0  0  0  0  0  0  0  0  0  0
  1  7  1  1  0  0  0
  2  8  1  6  0  0  0
  2  1  1  0  0  0  0
  2 18  1  0  0  0  0
  3  9  1  0  0  0  0
  3  4  1  0  0  0  0
  3  2  1  0  0  0  0
  4  5  1  0  0  0  0
  4 12  1  0  0  0  0
  5 13  1  0  0  0  0
  6  1  1  0  0  0  0
  6  5  1  0  0  0  0
  6 16  1  0  0  0  0
 10  3  1  0  0  0  0
 11  4  1  0  0  0  0
 14  5  1  0  0  0  0
 15  6  1  0  0  0  0
 17 22  1  6  0  0  0
 17 18  1  0  0  0  0
 17 27  1  0  0  0  0
 17 21  1  0  0  0  0
 18 23  1  1  0  0  0
 18 19  1  0  0  0  0
 19 20  1  0  0  0  0
 20 21  1  0  0  0  0
 20 24  1  0  0  0  0
 21 26  1  1  0  0  0
 25 20  1  0  0  0  0
 27 28  1  0  0  0  0
 29 21  1  0  0  0  0
 30 31  1  0  0  0  0
 30 29  1  0  0  0  0
 32 30  1  0  0  0  0
 32 31  1  0  0  0  0
 33 38  1  0  0  0  0
 33  1  1  0  0  0  0
 34 33  2  0  0  0  0
 35 36  2  0  0  0  0
 35 34  1  0  0  0  0
 36 37  1  0  0  0  0
 37 41  1  0  0  0  0
 37 38  2  0  0  0  0
 39 34  1  0  0  0  0
 40 35  1  0  0  0  0
M  END
>  <minimizedAffinity>
-5.25673151

$$$$

 OpenBabel03242517123D

 41 44  0  0  1  0  0  0  0  0999 V2000
   39.6570   31.4260   39.4030 C   0  0  2  0  0  0  0  0  0  0  0  0
   38.2150   31.1970   39.1060 C   0  0  2  0  0  0  0  0  0  0  0  0
   37.4750   32.4510   38.8210 C   0  0  0  0  0  0  0  0  0  0  0  0
   37.6460   33.5290   39.8590 C   0  0  0  0  0  0  0  0  0  0  0  0
   39.0110   33.5650   40.4790 C   0  0  0  0  0  0  0  0  0  0  0  0
   40.0430   32.8600   39.6180 C   0  0  0  0  0  0  0  0  0  0  0  0
   39.9140   30.8650   40.3490 H   0  0  0  0  0  0  0  0  0  0  0  0
   38.1440   30.5590   38.1990 H   0  0  0  0  0  0  0  0  0  0  0  0
   36.3880   32.2230   38.7350 H   0  0  0  0  0  0  0  0  0  0  0  0
   37.7700   32.8660   37.8510 H   0  0  0  0  0  0  0  0  0  0  0  0
   37.2970   34.4900   39.4510 H   0  0  0  0  0  0  0  0  0  0  0  0
   36.9380   33.2650   40.6900 H   0  0  0  0  0  0  0  0  0  0  0  0
   39.0310   33.2340   41.5380 H   0  0  0  0  0  0  0  0  0  0  0  0
   39.3140   34.6400   40.4940 H   0  0  0  0  0  0  0  0  0  0  0  0
   40.2170   33.4640   38.7400 H   0  0  0  0  0  0  0  0  0  0  0  0
   40.9770   32.8500   40.2560 H   0  0  0  0  0  0  0  0  0  0  0  0
   36.0850   30.4290   40.2300 C   0  0  1  0  0  0  0  0  0  0  0  0
   37.5680   30.4240   40.2340 C   0  0  1  0  0  0  0  0  0  0  0  0
   38.0090   29.1090   40.1640 O   0  0  0  0  0  0  0  0  0  0  0  0
   36.9710   28.3330   39.6760 C   0  0  0  0  0  0  0  0  0  0  0  0
   35.7850   28.9340   40.4110 C   0  0  2  0  0  0  0  0  0  0  0  0
   35.6100   30.7850   39.3020 H   0  0  0  0  0  0  0  0  0  0  0  0
   37.9350   30.8680   41.1860 H   0  0  0  0  0  0  0  0  0  0  0  0
   37.1730   27.2840   39.9690 H   0  0  0  0  0  0  0  0  0  0  0  0
   36.8950   28.5100   38.6040 H   0  0  0  0  0  0  0  0  0  0  0  0
   35.7960   28.6500   41.4660 H   0  0  0  0  0  0  0  0  0  0  0  0
   35.5230   31.1140   41.2840 O   0  0  0  0  0  0  0  0  0  0  0  0
   36.2390   31.1960   41.9810 H   0  0  0  0  0  0  0  0  0  0  0  0
   34.5810   28.6430   39.7940 O   0  0  0  0  0  0  0  0  0  0  0  0
   34.5320   28.9810   38.4640 C   0  0  0  0  0  3  0  0  0  0  0  0
   34.2100   27.7910   37.5470 C   0  0  0  0  0  2  0  0  0  0  0  0
   33.2840   28.9400   37.6760 C   0  0  0  0  0  2  0  0  0  0  0  0
   40.5430   30.8530   38.3700 C   0  0  0  0  0  0  0  0  0  0  0  0
   41.4420   31.7550   37.8000 C   0  0  0  0  0  0  0  0  0  0  0  0
   42.3380   31.3280   36.8090 C   0  0  0  0  0  0  0  0  0  0  0  0
   42.2550   29.9840   36.4600 N   0  0  0  0  0  0  0  0  0  0  0  0
   41.3690   29.1430   37.0390 C   0  0  0  0  0  0  0  0  0  0  0  0
   40.5090   29.5700   37.9950 N   0  0  0  0  0  0  0  0  0  0  0  0
   41.6170   32.8060   37.9540 H   0  0  0  0  0  0  0  0  0  0  0  0
   43.0690   31.8970   36.2930 H   0  0  0  0  0  0  0  0  0  0  0  0
   41.4060   28.1290   36.6800 H   0  0  0  0  0  0  0  0  0  0  0  0
  1  6  1  0  0  0  0
  1  7  1  1  0  0  0
  2  8  1  6  0  0  0
  2  1  1  0  0  0  0
  2 18  1  0  0  0  0
  3  2  1  0  0  0  0
  3  4  1  0  0  0  0
  4  5  1  0  0  0  0
  4 12  1  0  0  0  0
  5 14  1  0  0  0  0
  5 13  1  0  0  0  0
  6 16  1  0  0  0  0
  6  5  1  0  0  0  0
  9  3  1  0  0  0  0
 10  3  1  0  0  0  0
 11  4  1  0  0  0  0
 15  6  1  0  0  0  0
 17 22  1  6  0  0  0
 17 18  1  0  0  0  0
 17 21  1  0  0  0  0
 17 27  1  0  0  0  0
 18 23  1  1  0  0  0
 19 18  1  0  0  0  0
 20 24  1  0  0  0  0
 20 19  1  0  0  0  0
 20 21  1  0  0  0  0
 21 26  1  1  0  0  0
 25 20  1  0  0  0  0
 27 28  1  0  0  0  0
 29 21  1  0  0  0  0
 30 29  1  0  0  0  0
 31 32  1  0  0  0  0
 31 30  1  0  0  0  0
 32 30  1  0  0  0  0
 33  1  1  0  0  0  0
 34 39  1  0  0  0  0
 34 33  2  0  0  0  0
 35 34  1  0  0  0  0
 36 35  2  0  0  0  0
 36 37  1  0  0  0  0
 37 38  2  0  0  0  0
 38 33  1  0  0  0  0
 40 35  1  0  0  0  0
 41 37  1  0  0  0  0
M  END
>  <minimizedAffinity>
-5.19605112

$$$$
