
 OpenBabel03252509343D

 37 39  0  0  1  0  0  0  0  0999 V2000
   45.9710   33.7690   41.9830 C   0  0  1  0  0  0  0  0  0  0  0  0
   45.0290   34.4720   41.0320 C   0  0  0  0  0  0  0  0  0  0  0  0
   45.1120   33.5760   39.8240 C   0  0  0  0  0  0  0  0  0  0  0  0
   46.4700   32.9030   39.8870 C   0  0  0  0  0  0  0  0  0  0  0  0
   47.1840   33.5450   41.0760 C   0  0  1  0  0  0  0  0  0  0  0  0
   45.5410   32.8040   42.2450 H   0  0  0  0  0  0  0  0  0  0  0  0
   43.9740   34.3410   41.4200 H   0  0  0  0  0  0  0  0  0  0  0  0
   45.2700   35.5160   40.8580 H   0  0  0  0  0  0  0  0  0  0  0  0
   45.0450   34.2090   38.9160 H   0  0  0  0  0  0  0  0  0  0  0  0
   44.2970   32.8250   39.7740 H   0  0  0  0  0  0  0  0  0  0  0  0
   46.9720   32.9430   38.9530 H   0  0  0  0  0  0  0  0  0  0  0  0
   46.3080   31.8330   40.2410 H   0  0  0  0  0  0  0  0  0  0  0  0
   47.8160   32.8250   41.6060 H   0  0  0  0  0  0  0  0  0  0  0  0
   47.9040   34.8090   40.7660 C   0  0  0  0  0  0  0  0  0  0  0  0
   47.3370   35.6500   41.2790 H   0  0  0  0  0  0  0  0  0  0  0  0
   47.8700   35.0490   39.6680 H   0  0  0  0  0  0  0  0  0  0  0  0
   49.2880   34.8370   41.3040 C   0  0  0  0  0  3  0  0  0  0  0  0
   49.6840   35.3200   42.6340 C   0  0  0  0  0  2  0  0  0  0  0  0
   49.8980   33.8580   42.1970 C   0  0  0  0  0  2  0  0  0  0  0  0
   46.2970   34.5530   43.0840 O   0  0  0  0  0  0  0  0  0  0  0  0
   44.7850   34.9880   45.1510 O   0  0  0  0  0  0  0  0  0  0  0  0
   45.5870   33.9190   44.4720 P   0  0  1  0  0  0  0  0  0  0  0  0
   44.6460   32.5730   44.0940 O   0  0  0  0  0  0  0  0  0  0  0  0
   43.9870   32.8620   43.4340 H   0  0  0  0  0  0  0  0  0  0  0  0
   46.7990   33.3510   45.4920 O   0  0  0  0  0  0  0  0  0  0  0  0
   46.7240   32.0080   45.5690 C   0  0  0  0  0  0  0  0  0  0  0  0
   46.1930   31.4570   44.7990 H   0  0  0  0  0  0  0  0  0  0  0  0
   47.7820   31.6160   45.5220 H   0  0  0  0  0  0  0  0  0  0  0  0
   45.8590   31.8980   49.1880 C   0  0  0  0  0  0  0  0  0  0  0  0
   46.3580   32.3510   47.9570 C   0  0  0  0  0  0  0  0  0  0  0  0
   46.1990   31.5360   46.8620 C   0  0  0  0  0  0  0  0  0  0  0  0
   45.5680   30.3380   47.0310 N   0  0  0  0  0  0  0  0  0  0  0  0
   45.0980   29.9240   48.2160 C   0  0  0  0  0  0  0  0  0  0  0  0
   45.2460   30.7030   49.2810 N   0  0  0  0  0  0  0  0  0  0  0  0
   46.0090   32.5790   50.0210 H   0  0  0  0  0  0  0  0  0  0  0  0
   46.8520   33.3220   47.8990 H   0  0  0  0  0  0  0  0  0  0  0  0
   44.5990   28.9700   48.3380 H   0  0  0  0  0  0  0  0  0  0  0  0
  1  6  1  1  0  0  0
  1 20  1  0  0  0  0
  2  7  1  0  0  0  0
  2  1  1  0  0  0  0
  3  4  1  0  0  0  0
  3  2  1  0  0  0  0
  4 12  1  0  0  0  0
  4  5  1  0  0  0  0
  5 13  1  1  0  0  0
  5  1  1  0  0  0  0
  8  2  1  0  0  0  0
  9  3  1  0  0  0  0
 10  3  1  0  0  0  0
 11  4  1  0  0  0  0
 14  5  1  0  0  0  0
 14 15  1  0  0  0  0
 14 17  1  0  0  0  0
 16 14  1  0  0  0  0
 17 19  1  0  0  0  0
 17 18  1  0  0  0  0
 19 18  1  0  0  0  0
 20 22  1  0  0  0  0
 22 21  2  1  0  0  0
 22 25  1  0  0  0  0
 23 22  1  0  0  0  0
 24 23  1  0  0  0  0
 25 26  1  0  0  0  0
 26 31  1  0  0  0  0
 27 26  1  0  0  0  0
 28 26  1  0  0  0  0
 29 34  1  0  0  0  0
 29 35  1  0  0  0  0
 30 29  2  0  0  0  0
 31 32  2  0  0  0  0
 31 30  1  0  0  0  0
 32 33  1  0  0  0  0
 33 37  1  0  0  0  0
 33 34  2  0  0  0  0
 36 30  1  0  0  0  0
M  END
>  <minimizedAffinity>
-4.99998426

>  <minimizedRMSD>
1.20241904

$$$$
