
 OpenBabel03252509293D

 15 16  0  0  0  0  0  0  0  0999 V2000
   44.5680   35.9910   44.6280 C   0  0  0  0  0  0  0  0  0  0  0  0
   45.0850   35.9840   43.3200 C   0  0  0  0  0  0  0  0  0  0  0  0
   45.9020   34.9160   42.9730 C   0  0  0  0  0  0  0  0  0  0  0  0
   46.1600   33.9460   43.8860 N   0  0  0  0  0  0  0  0  0  0  0  0
   45.6440   33.9880   45.1340 C   0  0  0  0  0  0  0  0  0  0  0  0
   44.8500   35.0170   45.4890 N   0  0  0  0  0  0  0  0  0  0  0  0
   43.9240   36.7970   44.9610 H   0  0  0  0  0  0  0  0  0  0  0  0
   44.8130   36.8000   42.6900 H   0  0  0  0  0  0  0  0  0  0  0  0
   45.8250   33.2390   45.8890 H   0  0  0  0  0  0  0  0  0  0  0  0
   46.4360   34.9170   41.6100 C   0  0  0  0  0  0  0  0  0  0  0  0
   46.1390   35.8470   41.0900 H   0  0  0  0  0  0  0  0  0  0  0  0
   45.9030   34.0970   41.0600 H   0  0  0  0  0  0  0  0  0  0  0  0
   47.9200   34.6980   41.6240 C   0  0  0  0  0  3  0  0  0  0  0  0
   48.6200   35.0760   40.3380 C   0  0  0  0  0  2  0  0  0  0  0  0
   48.8730   35.8280   41.6340 C   0  0  0  0  0  2  0  0  0  0  0  0
  1  7  1  0  0  0  0
  1  6  1  0  0  0  0
  2  1  2  0  0  0  0
  3  2  1  0  0  0  0
  3  4  2  0  0  0  0
  4  5  1  0  0  0  0
  5  6  2  0  0  0  0
  5  9  1  0  0  0  0
  8  2  1  0  0  0  0
 10 13  1  0  0  0  0
 10  3  1  0  0  0  0
 11 10  1  0  0  0  0
 12 10  1  0  0  0  0
 13 15  1  0  0  0  0
 14 13  1  0  0  0  0
 14 15  1  0  0  0  0
M  END
>  <minimizedAffinity>
-4.11196041

>  <minimizedRMSD>
1.51536238

$$$$
