
 OpenBabel03252500523D

 29 31  0  0  0  0  0  0  0  0999 V2000
   35.6340   27.6200   38.3030 C   0  0  0  0  0  0  0  0  0  0  0  0
   34.6710   28.5860   38.4460 C   0  0  0  0  0  0  0  0  0  0  0  0
   34.5060   29.2750   39.6680 C   0  0  0  0  0  0  0  0  0  0  0  0
   35.3540   28.9300   40.6940 N   0  0  0  0  0  0  0  0  0  0  0  0
   36.2800   27.9940   40.5380 C   0  0  0  0  0  0  0  0  0  0  0  0
   36.4230   27.3400   39.3500 N   0  0  0  0  0  0  0  0  0  0  0  0
   35.7240   27.1200   37.3530 H   0  0  0  0  0  0  0  0  0  0  0  0
   33.7510   30.0380   39.7950 H   0  0  0  0  0  0  0  0  0  0  0  0
   37.1710   27.6350   41.6310 C   0  0  0  0  0  0  0  0  0  0  0  0
   37.8880   26.4700   41.6250 C   0  0  0  0  0  0  0  0  0  0  0  0
   38.7360   26.0990   42.6320 C   0  0  0  0  0  0  0  0  0  0  0  0
   38.8380   26.9730   43.6800 N   0  0  0  0  0  0  0  0  0  0  0  0
   38.1430   28.0910   43.6740 C   0  0  0  0  0  0  0  0  0  0  0  0
   37.3030   28.4780   42.6970 N   0  0  0  0  0  0  0  0  0  0  0  0
   37.8170   25.7600   40.7960 H   0  0  0  0  0  0  0  0  0  0  0  0
   39.2890   25.1700   42.5980 H   0  0  0  0  0  0  0  0  0  0  0  0
   38.2830   28.7290   44.5440 H   0  0  0  0  0  0  0  0  0  0  0  0
   33.8090   28.8990   37.3160 C   0  0  0  0  0  0  0  0  0  0  0  0
   34.3200   28.9130   36.1740 O   0  0  0  0  0  0  0  0  0  0  0  0
   32.4830   29.2010   37.2110 O   0  0  0  0  0  0  0  0  0  0  0  0
   31.7270   28.9600   36.0870 C   0  0  0  0  0  0  0  0  0  0  0  0
   31.4960   27.9300   35.8140 H   0  0  0  0  0  0  0  0  0  0  0  0
   32.3600   29.3230   35.2200 H   0  0  0  0  0  0  0  0  0  0  0  0
   30.4940   29.8520   36.0030 C   0  0  0  0  0  0  0  0  0  0  0  0
   30.2430   29.8990   34.9080 H   0  0  0  0  0  0  0  0  0  0  0  0
   29.6320   29.4200   36.5080 H   0  0  0  0  0  0  0  0  0  0  0  0
   30.8810   31.2260   36.4430 C   0  0  0  0  0  3  0  0  0  0  0  0
   29.8470   32.0030   37.1820 C   0  0  0  0  0  2  0  0  0  0  0  0
   30.2340   32.3980   35.7890 C   0  0  0  0  0  2  0  0  0  0  0  0
  1  2  2  0  0  0  0
  1  6  1  0  0  0  0
  2  3  1  0  0  0  0
  3  8  1  0  0  0  0
  3  4  2  0  0  0  0
  5  4  1  0  0  0  0
  5  9  1  0  0  0  0
  6  5  2  0  0  0  0
  7  1  1  0  0  0  0
  9 14  1  0  0  0  0
 10  9  2  0  0  0  0
 10 11  1  0  0  0  0
 11 12  2  0  0  0  0
 13 12  1  0  0  0  0
 13 17  1  0  0  0  0
 14 13  2  0  0  0  0
 15 10  1  0  0  0  0
 16 11  1  0  0  0  0
 18  2  1  0  0  0  0
 19 18  2  0  0  0  0
 20 18  1  0  0  0  0
 21 20  1  0  0  0  0
 22 21  1  0  0  0  0
 23 21  1  0  0  0  0
 24 21  1  0  0  0  0
 24 27  1  0  0  0  0
 24 26  1  0  0  0  0
 25 24  1  0  0  0  0
 27 28  1  0  0  0  0
 29 27  1  0  0  0  0
 29 28  1  0  0  0  0
M  END
>  <minimizedAffinity>
-4.37264585

$$$$

 OpenBabel03252500523D

 29 31  0  0  0  0  0  0  0  0999 V2000
   39.3870   30.6750   38.2750 C   0  0  0  0  0  0  0  0  0  0  0  0
   39.1860   31.7530   39.0970 C   0  0  0  0  0  0  0  0  0  0  0  0
   40.1940   32.7270   39.2810 C   0  0  0  0  0  0  0  0  0  0  0  0
   41.3720   32.5360   38.5980 N   0  0  0  0  0  0  0  0  0  0  0  0
   41.5490   31.4880   37.8070 C   0  0  0  0  0  0  0  0  0  0  0  0
   40.5640   30.5590   37.6430 N   0  0  0  0  0  0  0  0  0  0  0  0
   38.5910   29.9570   38.1650 H   0  0  0  0  0  0  0  0  0  0  0  0
   40.0490   33.5820   39.9250 H   0  0  0  0  0  0  0  0  0  0  0  0
   42.8010   31.2940   37.0900 C   0  0  0  0  0  0  0  0  0  0  0  0
   43.9300   32.0000   37.4050 C   0  0  0  0  0  0  0  0  0  0  0  0
   45.1230   31.8450   36.7560 C   0  0  0  0  0  0  0  0  0  0  0  0
   45.1380   30.9230   35.7450 N   0  0  0  0  0  0  0  0  0  0  0  0
   44.0450   30.2500   35.4520 C   0  0  0  0  0  0  0  0  0  0  0  0
   42.8600   30.3840   36.0740 N   0  0  0  0  0  0  0  0  0  0  0  0
   43.9340   32.7410   38.2090 H   0  0  0  0  0  0  0  0  0  0  0  0
   45.9990   32.4190   37.0280 H   0  0  0  0  0  0  0  0  0  0  0  0
   44.1430   29.5380   34.6360 H   0  0  0  0  0  0  0  0  0  0  0  0
   37.9120   31.8900   39.7880 C   0  0  0  0  0  0  0  0  0  0  0  0
   36.9730   32.4490   39.1810 O   0  0  0  0  0  0  0  0  0  0  0  0
   37.4810   31.5250   41.0290 O   0  0  0  0  0  0  0  0  0  0  0  0
   37.1610   30.2340   41.3820 C   0  0  0  0  0  0  0  0  0  0  0  0
   36.7130   29.5770   40.6370 H   0  0  0  0  0  0  0  0  0  0  0  0
   36.3460   30.3350   42.1640 H   0  0  0  0  0  0  0  0  0  0  0  0
   38.2800   29.5360   42.1470 C   0  0  0  0  0  0  0  0  0  0  0  0
   38.6670   28.7500   41.4430 H   0  0  0  0  0  0  0  0  0  0  0  0
   39.1110   30.2030   42.3680 H   0  0  0  0  0  0  0  0  0  0  0  0
   37.6770   28.8410   43.3230 C   0  0  0  0  0  3  0  0  0  0  0  0
   38.2560   27.5160   43.6800 C   0  0  0  0  0  2  0  0  0  0  0  0
   36.8790   27.6030   43.0940 C   0  0  0  0  0  2  0  0  0  0  0  0
  1  2  1  0  0  0  0
  2  3  2  0  0  0  0
  2 18  1  0  0  0  0
  3  8  1  0  0  0  0
  4  3  1  0  0  0  0
  5  4  2  0  0  0  0
  6  5  1  0  0  0  0
  6  1  2  0  0  0  0
  7  1  1  0  0  0  0
  9 10  1  0  0  0  0
  9  5  1  0  0  0  0
 10 15  1  0  0  0  0
 11 16  1  0  0  0  0
 11 10  2  0  0  0  0
 12 11  1  0  0  0  0
 13 12  2  0  0  0  0
 13 14  1  0  0  0  0
 14  9  2  0  0  0  0
 17 13  1  0  0  0  0
 18 20  1  0  0  0  0
 19 18  2  0  0  0  0
 20 21  1  0  0  0  0
 21 24  1  0  0  0  0
 21 23  1  0  0  0  0
 22 21  1  0  0  0  0
 24 26  1  0  0  0  0
 24 27  1  0  0  0  0
 25 24  1  0  0  0  0
 27 28  1  0  0  0  0
 29 27  1  0  0  0  0
 29 28  1  0  0  0  0
M  END
>  <minimizedAffinity>
-4.36333513

$$$$

 OpenBabel03252500523D

 29 31  0  0  0  0  0  0  0  0999 V2000
   39.4850   27.8460   41.2690 C   0  0  0  0  0  0  0  0  0  0  0  0
   38.7930   27.4350   42.3800 C   0  0  0  0  0  0  0  0  0  0  0  0
   37.9070   28.3080   43.0500 C   0  0  0  0  0  0  0  0  0  0  0  0
   37.7780   29.5760   42.5350 N   0  0  0  0  0  0  0  0  0  0  0  0
   38.4550   29.9570   41.4610 C   0  0  0  0  0  0  0  0  0  0  0  0
   39.3050   29.0990   40.8280 N   0  0  0  0  0  0  0  0  0  0  0  0
   40.1500   27.1470   40.7900 H   0  0  0  0  0  0  0  0  0  0  0  0
   37.3550   27.9980   43.9260 H   0  0  0  0  0  0  0  0  0  0  0  0
   38.3130   31.3030   40.9250 C   0  0  0  0  0  0  0  0  0  0  0  0
   39.2090   32.2940   41.2150 C   0  0  0  0  0  0  0  0  0  0  0  0
   39.1100   33.5690   40.7290 C   0  0  0  0  0  0  0  0  0  0  0  0
   38.0390   33.8160   39.9150 N   0  0  0  0  0  0  0  0  0  0  0  0
   37.1830   32.8530   39.6430 C   0  0  0  0  0  0  0  0  0  0  0  0
   37.2580   31.5930   40.1070 N   0  0  0  0  0  0  0  0  0  0  0  0
   40.0700   32.1130   41.8650 H   0  0  0  0  0  0  0  0  0  0  0  0
   39.8360   34.3320   40.9780 H   0  0  0  0  0  0  0  0  0  0  0  0
   36.3610   33.1340   38.9880 H   0  0  0  0  0  0  0  0  0  0  0  0
   38.9790   26.0770   42.8680 C   0  0  0  0  0  0  0  0  0  0  0  0
   39.9080   25.8680   43.6800 O   0  0  0  0  0  0  0  0  0  0  0  0
   38.3300   24.9030   42.6270 O   0  0  0  0  0  0  0  0  0  0  0  0
   37.0680   24.8200   42.0850 C   0  0  0  0  0  0  0  0  0  0  0  0
   36.5090   25.7370   41.9000 H   0  0  0  0  0  0  0  0  0  0  0  0
   36.4440   24.2880   42.8680 H   0  0  0  0  0  0  0  0  0  0  0  0
   36.9970   23.8690   40.8950 C   0  0  0  0  0  0  0  0  0  0  0  0
   38.0650   23.5840   40.6870 H   0  0  0  0  0  0  0  0  0  0  0  0
   36.4620   22.9500   41.1280 H   0  0  0  0  0  0  0  0  0  0  0  0
   36.4910   24.6340   39.7170 C   0  0  0  0  0  3  0  0  0  0  0  0
   37.5100   25.3540   38.9040 C   0  0  0  0  0  2  0  0  0  0  0  0
   36.5410   26.1230   39.7510 C   0  0  0  0  0  2  0  0  0  0  0  0
  1  2  1  0  0  0  0
  2 18  1  0  0  0  0
  2  3  2  0  0  0  0
  3  8  1  0  0  0  0
  4  3  1  0  0  0  0
  5  4  2  0  0  0  0
  6  1  2  0  0  0  0
  6  5  1  0  0  0  0
  7  1  1  0  0  0  0
  9 10  1  0  0  0  0
  9  5  1  0  0  0  0
 10 15  1  0  0  0  0
 11 16  1  0  0  0  0
 11 10  2  0  0  0  0
 12 11  1  0  0  0  0
 13 12  2  0  0  0  0
 13 14  1  0  0  0  0
 14  9  2  0  0  0  0
 17 13  1  0  0  0  0
 18 19  2  0  0  0  0
 20 18  1  0  0  0  0
 21 20  1  0  0  0  0
 21 23  1  0  0  0  0
 22 21  1  0  0  0  0
 24 26  1  0  0  0  0
 24 21  1  0  0  0  0
 25 24  1  0  0  0  0
 27 29  1  0  0  0  0
 27 24  1  0  0  0  0
 28 27  1  0  0  0  0
 28 29  1  0  0  0  0
M  END
>  <minimizedAffinity>
-4.30829382

$$$$

 OpenBabel03252500523D

 29 31  0  0  0  0  0  0  0  0999 V2000
   37.3510   31.3300   38.4340 C   0  0  0  0  0  0  0  0  0  0  0  0
   37.1770   31.6290   39.7610 C   0  0  0  0  0  0  0  0  0  0  0  0
   36.2680   30.8990   40.5590 C   0  0  0  0  0  0  0  0  0  0  0  0
   35.5760   29.8850   39.9400 N   0  0  0  0  0  0  0  0  0  0  0  0
   35.7560   29.6090   38.6570 C   0  0  0  0  0  0  0  0  0  0  0  0
   36.6380   30.3260   37.9030 N   0  0  0  0  0  0  0  0  0  0  0  0
   38.0550   31.9140   37.8630 H   0  0  0  0  0  0  0  0  0  0  0  0
   36.1220   31.1230   41.6060 H   0  0  0  0  0  0  0  0  0  0  0  0
   35.0170   28.5350   38.0110 C   0  0  0  0  0  0  0  0  0  0  0  0
   33.8660   28.7700   37.3100 C   0  0  0  0  0  0  0  0  0  0  0  0
   33.1450   27.7870   36.6890 C   0  0  0  0  0  0  0  0  0  0  0  0
   33.6420   26.5180   36.8040 N   0  0  0  0  0  0  0  0  0  0  0  0
   34.7510   26.3050   37.4820 C   0  0  0  0  0  0  0  0  0  0  0  0
   35.4770   27.2530   38.1000 N   0  0  0  0  0  0  0  0  0  0  0  0
   33.4550   29.7780   37.2090 H   0  0  0  0  0  0  0  0  0  0  0  0
   32.2370   28.0060   36.1420 H   0  0  0  0  0  0  0  0  0  0  0  0
   35.0770   25.2680   37.5240 H   0  0  0  0  0  0  0  0  0  0  0  0
   37.9460   32.7170   40.3480 C   0  0  0  0  0  0  0  0  0  0  0  0
   37.6280   33.8880   40.0480 O   0  0  0  0  0  0  0  0  0  0  0  0
   39.0030   32.7520   41.2080 O   0  0  0  0  0  0  0  0  0  0  0  0
   39.9020   31.7220   41.3640 C   0  0  0  0  0  0  0  0  0  0  0  0
   40.9620   31.9130   41.1970 H   0  0  0  0  0  0  0  0  0  0  0  0
   39.6410   30.9760   40.5510 H   0  0  0  0  0  0  0  0  0  0  0  0
   39.6700   30.9230   42.6420 C   0  0  0  0  0  0  0  0  0  0  0  0
   40.6890   30.8030   43.0990 H   0  0  0  0  0  0  0  0  0  0  0  0
   39.0590   31.4620   43.3640 H   0  0  0  0  0  0  0  0  0  0  0  0
   39.1760   29.5660   42.2610 C   0  0  0  0  0  3  0  0  0  0  0  0
   38.2720   28.8910   43.2330 C   0  0  0  0  0  2  0  0  0  0  0  0
   39.6670   28.3840   43.0230 C   0  0  0  0  0  2  0  0  0  0  0  0
  1  2  1  0  0  0  0
  2 18  1  0  0  0  0
  2  3  2  0  0  0  0
  3  8  1  0  0  0  0
  4  3  1  0  0  0  0
  5  4  2  0  0  0  0
  6  1  2  0  0  0  0
  6  5  1  0  0  0  0
  7  1  1  0  0  0  0
  9 14  1  0  0  0  0
  9  5  1  0  0  0  0
 10  9  2  0  0  0  0
 11 12  2  0  0  0  0
 11 10  1  0  0  0  0
 12 13  1  0  0  0  0
 13 17  1  0  0  0  0
 13 14  2  0  0  0  0
 15 10  1  0  0  0  0
 16 11  1  0  0  0  0
 18 20  1  0  0  0  0
 19 18  2  0  0  0  0
 20 21  1  0  0  0  0
 21 24  1  0  0  0  0
 22 21  1  0  0  0  0
 23 21  1  0  0  0  0
 24 25  1  0  0  0  0
 24 26  1  0  0  0  0
 27 24  1  0  0  0  0
 27 29  1  0  0  0  0
 27 28  1  0  0  0  0
 29 28  1  0  0  0  0
M  END
>  <minimizedAffinity>
-4.29887962

$$$$

 OpenBabel03252500523D

 29 31  0  0  0  0  0  0  0  0999 V2000
   35.1380   29.1300   40.3180 C   0  0  0  0  0  0  0  0  0  0  0  0
   36.4410   29.4860   40.0790 C   0  0  0  0  0  0  0  0  0  0  0  0
   36.9170   29.6650   38.7610 C   0  0  0  0  0  0  0  0  0  0  0  0
   36.0140   29.4630   37.7430 N   0  0  0  0  0  0  0  0  0  0  0  0
   34.7590   29.1190   37.9920 C   0  0  0  0  0  0  0  0  0  0  0  0
   34.3190   28.9510   39.2720 N   0  0  0  0  0  0  0  0  0  0  0  0
   34.8190   29.0040   41.3400 H   0  0  0  0  0  0  0  0  0  0  0  0
   37.9400   29.9460   38.5570 H   0  0  0  0  0  0  0  0  0  0  0  0
   33.8120   28.9060   36.9080 C   0  0  0  0  0  0  0  0  0  0  0  0
   32.4930   29.2510   37.0220 C   0  0  0  0  0  0  0  0  0  0  0  0
   31.5750   29.0690   36.0260 C   0  0  0  0  0  0  0  0  0  0  0  0
   32.0480   28.5070   34.8720 N   0  0  0  0  0  0  0  0  0  0  0  0
   33.3200   28.1790   34.7740 C   0  0  0  0  0  0  0  0  0  0  0  0
   34.2420   28.3480   35.7390 N   0  0  0  0  0  0  0  0  0  0  0  0
   32.0990   29.7010   37.9380 H   0  0  0  0  0  0  0  0  0  0  0  0
   30.5380   29.3530   36.1480 H   0  0  0  0  0  0  0  0  0  0  0  0
   33.6140   27.7380   33.8240 H   0  0  0  0  0  0  0  0  0  0  0  0
   37.3400   29.6830   41.2070 C   0  0  0  0  0  0  0  0  0  0  0  0
   38.5180   30.0280   40.9640 O   0  0  0  0  0  0  0  0  0  0  0  0
   37.1810   29.5690   42.5560 O   0  0  0  0  0  0  0  0  0  0  0  0
   37.6350   28.5020   43.2960 C   0  0  0  0  0  0  0  0  0  0  0  0
   37.9340   28.6630   44.3310 H   0  0  0  0  0  0  0  0  0  0  0  0
   38.5990   28.1810   42.7930 H   0  0  0  0  0  0  0  0  0  0  0  0
   36.7520   27.2670   43.1520 C   0  0  0  0  0  0  0  0  0  0  0  0
   36.5730   26.9140   44.2040 H   0  0  0  0  0  0  0  0  0  0  0  0
   35.7790   27.4980   42.7240 H   0  0  0  0  0  0  0  0  0  0  0  0
   37.5370   26.2120   42.4440 C   0  0  0  0  0  3  0  0  0  0  0  0
   37.1190   25.8960   41.0500 C   0  0  0  0  0  2  0  0  0  0  0  0
   36.8830   24.9060   42.1500 C   0  0  0  0  0  2  0  0  0  0  0  0
  1  7  1  0  0  0  0
  2  1  1  0  0  0  0
  2 18  1  0  0  0  0
  3  2  2  0  0  0  0
  4  5  2  0  0  0  0
  4  3  1  0  0  0  0
  5  6  1  0  0  0  0
  6  1  2  0  0  0  0
  8  3  1  0  0  0  0
  9 10  1  0  0  0  0
  9  5  1  0  0  0  0
 10 15  1  0  0  0  0
 11 16  1  0  0  0  0
 11 10  2  0  0  0  0
 12 11  1  0  0  0  0
 13 12  2  0  0  0  0
 13 14  1  0  0  0  0
 14  9  2  0  0  0  0
 17 13  1  0  0  0  0
 18 20  1  0  0  0  0
 19 18  2  0  0  0  0
 20 21  1  0  0  0  0
 21 22  1  0  0  0  0
 23 21  1  0  0  0  0
 24 21  1  0  0  0  0
 24 25  1  0  0  0  0
 26 24  1  0  0  0  0
 27 24  1  0  0  0  0
 28 29  1  0  0  0  0
 28 27  1  0  0  0  0
 29 27  1  0  0  0  0
M  END
>  <minimizedAffinity>
-4.28507996

$$$$

 OpenBabel03252500523D

 29 31  0  0  0  0  0  0  0  0999 V2000
   38.0710   27.8700   40.1790 C   0  0  0  0  0  0  0  0  0  0  0  0
   37.5400   27.4370   41.3670 C   0  0  0  0  0  0  0  0  0  0  0  0
   37.1160   28.3550   42.3540 C   0  0  0  0  0  0  0  0  0  0  0  0
   37.2640   29.6900   42.0610 N   0  0  0  0  0  0  0  0  0  0  0  0
   37.7790   30.0920   40.9080 C   0  0  0  0  0  0  0  0  0  0  0  0
   38.1820   29.1900   39.9690 N   0  0  0  0  0  0  0  0  0  0  0  0
   38.3810   27.1340   39.4550 H   0  0  0  0  0  0  0  0  0  0  0  0
   36.6950   28.0280   43.2930 H   0  0  0  0  0  0  0  0  0  0  0  0
   37.9320   31.5080   40.6100 C   0  0  0  0  0  0  0  0  0  0  0  0
   37.1150   32.1520   39.7220 C   0  0  0  0  0  0  0  0  0  0  0  0
   37.2270   33.4800   39.4170 C   0  0  0  0  0  0  0  0  0  0  0  0
   38.2260   34.1590   40.0600 N   0  0  0  0  0  0  0  0  0  0  0  0
   39.0070   33.5270   40.9120 C   0  0  0  0  0  0  0  0  0  0  0  0
   38.9170   32.2240   41.2290 N   0  0  0  0  0  0  0  0  0  0  0  0
   36.3120   31.6240   39.1990 H   0  0  0  0  0  0  0  0  0  0  0  0
   36.5640   33.9610   38.7090 H   0  0  0  0  0  0  0  0  0  0  0  0
   39.7740   34.1400   41.3790 H   0  0  0  0  0  0  0  0  0  0  0  0
   37.4140   26.0070   41.6060 C   0  0  0  0  0  0  0  0  0  0  0  0
   36.8570   25.6360   42.6630 O   0  0  0  0  0  0  0  0  0  0  0  0
   37.7900   24.9060   40.8950 O   0  0  0  0  0  0  0  0  0  0  0  0
   37.0580   24.3730   39.8590 C   0  0  0  0  0  0  0  0  0  0  0  0
   37.5790   23.8690   39.0460 H   0  0  0  0  0  0  0  0  0  0  0  0
   36.5770   25.2630   39.3480 H   0  0  0  0  0  0  0  0  0  0  0  0
   35.8550   23.5690   40.3390 C   0  0  0  0  0  0  0  0  0  0  0  0
   36.2780   22.5820   40.6710 H   0  0  0  0  0  0  0  0  0  0  0  0
   35.3750   24.0160   41.2080 H   0  0  0  0  0  0  0  0  0  0  0  0
   34.9660   23.3150   39.1670 C   0  0  0  0  0  3  0  0  0  0  0  0
   33.6800   22.6170   39.4470 C   0  0  0  0  0  2  0  0  0  0  0  0
   34.7730   21.9120   38.7020 C   0  0  0  0  0  2  0  0  0  0  0  0
  1  2  1  0  0  0  0
  2 18  1  0  0  0  0
  2  3  2  0  0  0  0
  3  8  1  0  0  0  0
  4  3  1  0  0  0  0
  5  4  2  0  0  0  0
  6  1  2  0  0  0  0
  6  5  1  0  0  0  0
  7  1  1  0  0  0  0
  9  5  1  0  0  0  0
  9 14  1  0  0  0  0
 10  9  2  0  0  0  0
 11 10  1  0  0  0  0
 11 12  2  0  0  0  0
 12 13  1  0  0  0  0
 13 14  2  0  0  0  0
 13 17  1  0  0  0  0
 15 10  1  0  0  0  0
 16 11  1  0  0  0  0
 18 19  2  0  0  0  0
 20 18  1  0  0  0  0
 21 24  1  0  0  0  0
 21 20  1  0  0  0  0
 22 21  1  0  0  0  0
 23 21  1  0  0  0  0
 24 25  1  0  0  0  0
 24 26  1  0  0  0  0
 27 28  1  0  0  0  0
 27 24  1  0  0  0  0
 29 27  1  0  0  0  0
 29 28  1  0  0  0  0
M  END
>  <minimizedAffinity>
-4.2592411

$$$$

 OpenBabel03252500523D

 29 31  0  0  0  0  0  0  0  0999 V2000
   36.5930   27.1490   40.1850 C   0  0  0  0  0  0  0  0  0  0  0  0
   36.5170   28.0560   41.2110 C   0  0  0  0  0  0  0  0  0  0  0  0
   35.8080   29.2700   41.0590 C   0  0  0  0  0  0  0  0  0  0  0  0
   35.2080   29.4880   39.8420 N   0  0  0  0  0  0  0  0  0  0  0  0
   35.2920   28.6010   38.8610 C   0  0  0  0  0  0  0  0  0  0  0  0
   35.9810   27.4350   39.0280 N   0  0  0  0  0  0  0  0  0  0  0  0
   37.1450   26.2370   40.3450 H   0  0  0  0  0  0  0  0  0  0  0  0
   35.7390   29.9930   41.8580 H   0  0  0  0  0  0  0  0  0  0  0  0
   34.6540   28.8430   37.5760 C   0  0  0  0  0  0  0  0  0  0  0  0
   35.3780   28.9640   36.4210 C   0  0  0  0  0  0  0  0  0  0  0  0
   34.8140   29.1900   35.1960 C   0  0  0  0  0  0  0  0  0  0  0  0
   33.4500   29.2930   35.1750 N   0  0  0  0  0  0  0  0  0  0  0  0
   32.7650   29.1740   36.2940 C   0  0  0  0  0  0  0  0  0  0  0  0
   33.2940   28.9520   37.5090 N   0  0  0  0  0  0  0  0  0  0  0  0
   36.4690   28.8850   36.4210 H   0  0  0  0  0  0  0  0  0  0  0  0
   35.4150   29.2820   34.3010 H   0  0  0  0  0  0  0  0  0  0  0  0
   31.6860   29.2690   36.1880 H   0  0  0  0  0  0  0  0  0  0  0  0
   37.1780   27.7570   42.4730 C   0  0  0  0  0  0  0  0  0  0  0  0
   36.5500   27.0810   43.3180 O   0  0  0  0  0  0  0  0  0  0  0  0
   38.4060   28.0660   42.9770 O   0  0  0  0  0  0  0  0  0  0  0  0
   39.5590   27.3810   42.6670 C   0  0  0  0  0  0  0  0  0  0  0  0
   40.4510   27.9430   42.3920 H   0  0  0  0  0  0  0  0  0  0  0  0
   39.3150   26.8020   41.7240 H   0  0  0  0  0  0  0  0  0  0  0  0
   39.8770   26.2770   43.6690 C   0  0  0  0  0  0  0  0  0  0  0  0
   40.9100   26.5120   44.0430 H   0  0  0  0  0  0  0  0  0  0  0  0
   39.2140   26.2960   44.5330 H   0  0  0  0  0  0  0  0  0  0  0  0
   39.9410   24.9810   42.9300 C   0  0  0  0  0  3  0  0  0  0  0  0
   39.5920   25.0230   41.4830 C   0  0  0  0  0  2  0  0  0  0  0  0
   38.6710   24.3590   42.4610 C   0  0  0  0  0  2  0  0  0  0  0  0
  1  7  1  0  0  0  0
  1  2  1  0  0  0  0
  2 18  1  0  0  0  0
  3  2  2  0  0  0  0
  3  8  1  0  0  0  0
  4  3  1  0  0  0  0
  5  6  1  0  0  0  0
  5  4  2  0  0  0  0
  6  1  2  0  0  0  0
  9  5  1  0  0  0  0
 10 15  1  0  0  0  0
 10  9  2  0  0  0  0
 11 10  1  0  0  0  0
 12 11  2  0  0  0  0
 12 13  1  0  0  0  0
 13 14  2  0  0  0  0
 14  9  1  0  0  0  0
 16 11  1  0  0  0  0
 17 13  1  0  0  0  0
 18 20  1  0  0  0  0
 18 19  2  0  0  0  0
 21 20  1  0  0  0  0
 21 24  1  0  0  0  0
 22 21  1  0  0  0  0
 23 21  1  0  0  0  0
 24 25  1  0  0  0  0
 24 26  1  0  0  0  0
 27 24  1  0  0  0  0
 28 29  1  0  0  0  0
 28 27  1  0  0  0  0
 29 27  1  0  0  0  0
M  END
>  <minimizedAffinity>
-4.21621895

$$$$

 OpenBabel03252500523D

 29 31  0  0  0  0  0  0  0  0999 V2000
   38.1650   29.8100   39.3830 C   0  0  0  0  0  0  0  0  0  0  0  0
   37.6210   30.0340   40.6220 C   0  0  0  0  0  0  0  0  0  0  0  0
   36.2220   30.0130   40.8190 C   0  0  0  0  0  0  0  0  0  0  0  0
   35.4450   29.7580   39.7130 N   0  0  0  0  0  0  0  0  0  0  0  0
   35.9870   29.5440   38.5230 C   0  0  0  0  0  0  0  0  0  0  0  0
   37.3400   29.5690   38.3540 N   0  0  0  0  0  0  0  0  0  0  0  0
   39.2370   29.8360   39.2800 H   0  0  0  0  0  0  0  0  0  0  0  0
   35.7800   30.1870   41.7890 H   0  0  0  0  0  0  0  0  0  0  0  0
   35.1550   29.2770   37.3590 C   0  0  0  0  0  0  0  0  0  0  0  0
   33.8310   28.9540   37.4760 C   0  0  0  0  0  0  0  0  0  0  0  0
   33.0180   28.6990   36.4070 C   0  0  0  0  0  0  0  0  0  0  0  0
   33.6060   28.7820   35.1750 N   0  0  0  0  0  0  0  0  0  0  0  0
   34.8820   29.0940   35.0750 C   0  0  0  0  0  0  0  0  0  0  0  0
   35.7020   29.3500   36.1100 N   0  0  0  0  0  0  0  0  0  0  0  0
   33.3450   28.8820   38.4540 H   0  0  0  0  0  0  0  0  0  0  0  0
   31.9730   28.4450   36.5330 H   0  0  0  0  0  0  0  0  0  0  0  0
   35.2710   29.1400   34.0600 H   0  0  0  0  0  0  0  0  0  0  0  0
   38.5070   30.2960   41.7470 C   0  0  0  0  0  0  0  0  0  0  0  0
   39.2510   31.3000   41.6860 O   0  0  0  0  0  0  0  0  0  0  0  0
   38.7250   29.6550   42.9300 O   0  0  0  0  0  0  0  0  0  0  0  0
   38.8670   28.2920   43.0510 C   0  0  0  0  0  0  0  0  0  0  0  0
   39.7970   27.8890   43.4520 H   0  0  0  0  0  0  0  0  0  0  0  0
   38.8490   27.8970   41.9890 H   0  0  0  0  0  0  0  0  0  0  0  0
   37.6490   27.6240   43.6800 C   0  0  0  0  0  0  0  0  0  0  0  0
   38.0690   26.8810   44.4100 H   0  0  0  0  0  0  0  0  0  0  0  0
   37.0400   28.3230   44.2510 H   0  0  0  0  0  0  0  0  0  0  0  0
   36.9320   26.8630   42.6130 C   0  0  0  0  0  3  0  0  0  0  0  0
   37.3620   25.4540   42.4000 C   0  0  0  0  0  2  0  0  0  0  0  0
   37.6700   26.4990   41.3710 C   0  0  0  0  0  2  0  0  0  0  0  0
  1  2  1  0  0  0  0
  2  3  2  0  0  0  0
  2 18  1  0  0  0  0
  3  8  1  0  0  0  0
  4  3  1  0  0  0  0
  5  4  2  0  0  0  0
  6  5  1  0  0  0  0
  6  1  2  0  0  0  0
  7  1  1  0  0  0  0
  9 10  1  0  0  0  0
  9  5  1  0  0  0  0
 10 15  1  0  0  0  0
 11 16  1  0  0  0  0
 11 10  2  0  0  0  0
 12 11  1  0  0  0  0
 13 12  2  0  0  0  0
 13 14  1  0  0  0  0
 14  9  2  0  0  0  0
 17 13  1  0  0  0  0
 18 20  1  0  0  0  0
 19 18  2  0  0  0  0
 20 21  1  0  0  0  0
 21 22  1  0  0  0  0
 21 24  1  0  0  0  0
 23 21  1  0  0  0  0
 24 26  1  0  0  0  0
 24 25  1  0  0  0  0
 27 24  1  0  0  0  0
 28 27  1  0  0  0  0
 29 28  1  0  0  0  0
 29 27  1  0  0  0  0
M  END
>  <minimizedAffinity>
-4.19026947

$$$$

 OpenBabel03252500523D

 29 31  0  0  0  0  0  0  0  0999 V2000
   35.9800   29.6060   37.7340 C   0  0  0  0  0  0  0  0  0  0  0  0
   34.7780   29.1450   38.2070 C   0  0  0  0  0  0  0  0  0  0  0  0
   34.5240   29.0670   39.5950 C   0  0  0  0  0  0  0  0  0  0  0  0
   35.5340   29.4750   40.4340 N   0  0  0  0  0  0  0  0  0  0  0  0
   36.6890   29.9180   39.9590 C   0  0  0  0  0  0  0  0  0  0  0  0
   36.9150   29.9850   38.6160 N   0  0  0  0  0  0  0  0  0  0  0  0
   36.1300   29.6470   36.6670 H   0  0  0  0  0  0  0  0  0  0  0  0
   33.5820   28.7070   39.9830 H   0  0  0  0  0  0  0  0  0  0  0  0
   37.7530   30.3450   40.8560 C   0  0  0  0  0  0  0  0  0  0  0  0
   38.0730   29.6410   41.9840 C   0  0  0  0  0  0  0  0  0  0  0  0
   39.0650   30.0090   42.8500 C   0  0  0  0  0  0  0  0  0  0  0  0
   39.7460   31.1510   42.5260 N   0  0  0  0  0  0  0  0  0  0  0  0
   39.4290   31.8200   41.4370 C   0  0  0  0  0  0  0  0  0  0  0  0
   38.4580   31.4790   40.5710 N   0  0  0  0  0  0  0  0  0  0  0  0
   37.5370   28.7270   42.2570 H   0  0  0  0  0  0  0  0  0  0  0  0
   39.2940   29.4310   43.7350 H   0  0  0  0  0  0  0  0  0  0  0  0
   40.0200   32.7150   41.2540 H   0  0  0  0  0  0  0  0  0  0  0  0
   33.7540   28.7310   37.2590 C   0  0  0  0  0  0  0  0  0  0  0  0
   33.5230   27.5070   37.1430 O   0  0  0  0  0  0  0  0  0  0  0  0
   32.9360   29.4180   36.4130 O   0  0  0  0  0  0  0  0  0  0  0  0
   31.7640   28.9140   35.8980 C   0  0  0  0  0  0  0  0  0  0  0  0
   31.5680   27.8440   35.9750 H   0  0  0  0  0  0  0  0  0  0  0  0
   31.8330   29.0860   34.7800 H   0  0  0  0  0  0  0  0  0  0  0  0
   30.5430   29.7380   36.2920 C   0  0  0  0  0  0  0  0  0  0  0  0
   29.8520   29.6740   35.4080 H   0  0  0  0  0  0  0  0  0  0  0  0
   30.0120   29.3150   37.1430 H   0  0  0  0  0  0  0  0  0  0  0  0
   30.9690   31.1620   36.4380 C   0  0  0  0  0  3  0  0  0  0  0  0
   29.9330   32.1200   36.9130 C   0  0  0  0  0  2  0  0  0  0  0  0
   30.4170   32.1770   35.4960 C   0  0  0  0  0  2  0  0  0  0  0  0
  1  2  2  0  0  0  0
  1  6  1  0  0  0  0
  2  3  1  0  0  0  0
  3  8  1  0  0  0  0
  3  4  2  0  0  0  0
  5  4  1  0  0  0  0
  5  9  1  0  0  0  0
  6  5  2  0  0  0  0
  7  1  1  0  0  0  0
  9 10  1  0  0  0  0
 10 15  1  0  0  0  0
 10 11  2  0  0  0  0
 11 16  1  0  0  0  0
 12 11  1  0  0  0  0
 13 12  2  0  0  0  0
 14  9  2  0  0  0  0
 14 13  1  0  0  0  0
 17 13  1  0  0  0  0
 18  2  1  0  0  0  0
 19 18  2  0  0  0  0
 20 18  1  0  0  0  0
 21 22  1  0  0  0  0
 21 24  1  0  0  0  0
 21 20  1  0  0  0  0
 23 21  1  0  0  0  0
 24 27  1  0  0  0  0
 24 26  1  0  0  0  0
 25 24  1  0  0  0  0
 27 28  1  0  0  0  0
 29 27  1  0  0  0  0
 29 28  1  0  0  0  0
M  END
>  <minimizedAffinity>
-4.18764877

$$$$
