
 OpenBabel03242510223D

 32 35  0  0  1  0  0  0  0  0999 V2000
   46.2710   32.1990   44.5820 C   0  0  1  0  0  0  0  0  0  0  0  0
   46.4460   31.3930   43.4490 C   0  0  0  0  0  0  0  0  0  0  0  0
   47.6480   32.1940   44.0430 C   0  0  1  0  0  0  0  0  0  0  0  0
   46.0860   31.7900   45.5990 H   0  0  0  0  0  0  0  0  0  0  0  0
   46.2040   31.5920   42.3880 H   0  0  0  0  0  0  0  0  0  0  0  0
   46.5390   30.2740   43.6030 H   0  0  0  0  0  0  0  0  0  0  0  0
   48.4090   31.5270   44.4730 H   0  0  0  0  0  0  0  0  0  0  0  0
   44.9630   33.9360   43.1410 C   0  0  0  0  0  0  0  0  0  0  0  0
   45.4900   33.5150   44.4050 C   0  0  0  0  0  0  0  0  0  0  0  0
   45.2980   34.3510   45.4850 C   0  0  0  0  0  0  0  0  0  0  0  0
   44.6330   35.5110   45.3080 N   0  0  0  0  0  0  0  0  0  0  0  0
   44.1390   35.8990   44.1000 C   0  0  0  0  0  0  0  0  0  0  0  0
   44.3160   35.0750   42.9860 N   0  0  0  0  0  0  0  0  0  0  0  0
   45.1020   33.2650   42.3150 H   0  0  0  0  0  0  0  0  0  0  0  0
   45.6680   34.0950   46.4700 H   0  0  0  0  0  0  0  0  0  0  0  0
   43.6080   36.8290   43.9650 H   0  0  0  0  0  0  0  0  0  0  0  0
   48.0200   33.2950   43.2300 N   0  0  0  0  0  0  0  0  0  0  0  0
   49.2030   33.3370   42.5000 C   0  0  0  0  0  0  0  0  0  0  0  0
   50.3700   32.9800   42.8010 O   0  0  0  0  0  0  0  0  0  0  0  0
   47.4590   34.1670   43.1010 H   0  0  0  0  0  0  0  0  0  0  0  0
   49.1750   33.8900   41.0830 C   0  0  2  0  0  0  0  0  0  0  0  0
   48.6920   35.3770   40.9270 C   0  0  0  0  0  0  0  0  0  0  0  0
   47.9150   34.2000   40.4100 C   0  0  1  0  0  0  0  0  0  0  0  0
   50.0870   33.7470   40.4690 H   0  0  0  0  0  0  0  0  0  0  0  0
   48.3350   35.8290   41.8800 H   0  0  0  0  0  0  0  0  0  0  0  0
   49.1650   35.9960   40.1720 H   0  0  0  0  0  0  0  0  0  0  0  0
   47.0310   33.7700   40.9370 H   0  0  0  0  0  0  0  0  0  0  0  0
   47.8560   34.0280   38.9130 C   0  0  0  0  0  0  0  0  0  0  0  0
   48.4400   34.8050   38.1700 O   0  0  0  0  0  0  0  0  0  0  0  0
   47.0760   32.8990   38.3130 C   0  0  0  0  0  3  0  0  0  0  0  0
   46.3720   31.9240   39.1680 C   0  0  0  0  0  2  0  0  0  0  0  0
   45.5770   33.0200   38.5040 C   0  0  0  0  0  2  0  0  0  0  0  0
  1  4  1  1  0  0  0
  2  6  1  0  0  0  0
  2  3  1  0  0  0  0
  2  1  1  0  0  0  0
  3  7  1  1  0  0  0
  3  1  1  0  0  0  0
  5  2  1  0  0  0  0
  8  9  1  0  0  0  0
  9  1  1  0  0  0  0
  9 10  2  0  0  0  0
 10 15  1  0  0  0  0
 11 10  1  0  0  0  0
 12 11  2  0  0  0  0
 13  8  2  0  0  0  0
 13 12  1  0  0  0  0
 14  8  1  0  0  0  0
 16 12  1  0  0  0  0
 17  3  1  0  0  0  0
 18 19  2  0  0  0  0
 18 17  1  0  0  0  0
 20 17  1  0  0  0  0
 21 24  1  6  0  0  0
 21 18  1  0  0  0  0
 22 21  1  0  0  0  0
 22 25  1  0  0  0  0
 23 22  1  0  0  0  0
 23 27  1  1  0  0  0
 23 21  1  0  0  0  0
 26 22  1  0  0  0  0
 28 23  1  0  0  0  0
 29 28  2  0  0  0  0
 30 32  1  0  0  0  0
 30 28  1  0  0  0  0
 30 31  1  0  0  0  0
 32 31  1  0  0  0  0
M  END
>  <minimizedAffinity>
-4.35040092

>  <minimizedRMSD>
0.274679929

$$$$
