
 OpenBabel03242517263D

 29 31  0  0  1  0  0  0  0  0999 V2000
   45.0360   34.6610   44.8560 C   0  0  0  0  0  0  0  0  0  0  0  0
   45.9610   34.6180   43.7780 C   0  0  0  0  0  0  0  0  0  0  0  0
   47.0730   33.7650   43.9150 C   0  0  0  0  0  0  0  0  0  0  0  0
   47.1890   33.0470   45.0580 N   0  0  0  0  0  0  0  0  0  0  0  0
   46.3020   33.1090   46.0600 C   0  0  0  0  0  0  0  0  0  0  0  0
   45.2340   33.9190   45.9410 N   0  0  0  0  0  0  0  0  0  0  0  0
   46.5060   32.3340   47.1940 N   0  0  0  0  0  0  0  0  0  0  0  0
   47.7140   32.4780   47.9590 C   0  0  0  0  0  0  0  0  0  0  0  0
   47.9780   31.3640   48.9250 C   0  0  0  0  0  0  0  0  0  0  0  0
   46.8460   30.7020   49.4590 N   0  0  0  0  0  0  0  0  0  0  0  0
   45.6050   31.3300   49.1040 C   0  0  0  0  0  0  0  0  0  0  0  0
   45.5020   31.3620   47.6240 C   0  0  2  0  0  0  0  0  0  0  0  0
   44.1960   35.3290   44.7090 H   0  0  0  0  0  0  0  0  0  0  0  0
   45.8990   35.1720   42.8580 H   0  0  0  0  0  0  0  0  0  0  0  0
   47.8400   33.6460   43.1690 H   0  0  0  0  0  0  0  0  0  0  0  0
   47.7030   33.4760   48.4460 H   0  0  0  0  0  0  0  0  0  0  0  0
   48.5610   32.5040   47.2410 H   0  0  0  0  0  0  0  0  0  0  0  0
   48.5320   31.8340   49.7880 H   0  0  0  0  0  0  0  0  0  0  0  0
   48.6670   30.5760   48.5280 H   0  0  0  0  0  0  0  0  0  0  0  0
   46.8880   30.4710   50.4780 H   0  0  0  0  0  0  0  0  0  0  0  0
   44.7550   30.8840   49.6220 H   0  0  0  0  0  0  0  0  0  0  0  0
   45.7010   32.4010   49.4460 H   0  0  0  0  0  0  0  0  0  0  0  0
   44.5040   31.7530   47.2980 H   0  0  0  0  0  0  0  0  0  0  0  0
   45.7100   30.0260   46.9610 C   0  0  0  0  0  0  0  0  0  0  0  0
   46.6330   29.5370   47.3470 H   0  0  0  0  0  0  0  0  0  0  0  0
   45.8880   30.2050   45.8830 H   0  0  0  0  0  0  0  0  0  0  0  0
   44.4750   29.1820   47.1890 C   0  0  0  0  0  0  0  0  0  0  0  0
   44.5550   27.7100   47.0000 C   0  0  0  0  0  0  0  0  0  0  0  0
   43.9090   28.5620   45.9420 C   0  0  0  0  0  0  0  0  0  0  0  0
  1  6  1  0  0  0  0
  2  3  1  0  0  0  0
  2  1  2  0  0  0  0
  3  4  2  0  0  0  0
  4  5  1  0  0  0  0
  5  7  1  0  0  0  0
  6  5  2  0  0  0  0
  7 12  1  0  0  0  0
  7  8  1  0  0  0  0
  8 16  1  0  0  0  0
  8  9  1  0  0  0  0
  9 10  1  0  0  0  0
  9 18  1  0  0  0  0
 10 20  1  0  0  0  0
 11 22  1  0  0  0  0
 11 10  1  0  0  0  0
 11 21  1  0  0  0  0
 12 23  1  6  0  0  0
 12 11  1  0  0  0  0
 13  1  1  0  0  0  0
 14  2  1  0  0  0  0
 15  3  1  0  0  0  0
 17  8  1  0  0  0  0
 19  9  1  0  0  0  0
 24 27  1  0  0  0  0
 24 25  1  0  0  0  0
 24 12  1  0  0  0  0
 26 24  1  0  0  0  0
 28 27  1  0  0  0  0
 29 28  1  0  0  0  0
 29 27  1  0  0  0  0
M  END
>  <minimizedAffinity>
-4.8755188

>  <minimizedRMSD>
0.792397261

$$$$
