
 OpenBabel03252501193D

 18 19  0  0  0  0  0  0  0  0999 V2000
   45.2640   35.8400   43.4140 C   0  0  0  0  0  0  0  0  0  0  0  0
   46.0610   34.6790   43.3520 C   0  0  0  0  0  0  0  0  0  0  0  0
   46.0720   33.8580   44.4740 C   0  0  0  0  0  0  0  0  0  0  0  0
   45.3220   34.1990   45.5760 N   0  0  0  0  0  0  0  0  0  0  0  0
   44.5750   35.3250   45.5810 C   0  0  0  0  0  0  0  0  0  0  0  0
   44.5420   36.1410   44.5140 N   0  0  0  0  0  0  0  0  0  0  0  0
   45.2250   36.5090   42.5700 H   0  0  0  0  0  0  0  0  0  0  0  0
   44.0280   35.4760   46.5160 H   0  0  0  0  0  0  0  0  0  0  0  0
   46.9020   32.6480   44.3850 C   0  0  0  0  0  0  0  0  0  0  0  0
   47.0400   32.0920   45.6420 F   0  0  0  0  0  0  0  0  0  0  0  0
   48.1680   33.0840   44.0030 F   0  0  0  0  0  0  0  0  0  0  0  0
   46.3920   31.7080   43.5560 F   0  0  0  0  0  0  0  0  0  0  0  0
   46.8410   34.3460   42.1480 C   0  0  0  0  0  0  0  0  0  0  0  0
   47.3840   33.3920   42.2070 H   0  0  0  0  0  0  0  0  0  0  0  0
   46.0750   34.1950   41.3290 H   0  0  0  0  0  0  0  0  0  0  0  0
   47.7230   35.4650   41.6940 C   0  0  0  0  0  0  0  0  0  0  0  0
   49.2010   35.3680   41.7950 C   0  0  0  0  0  0  0  0  0  0  0  0
   48.6090   35.1270   40.4610 C   0  0  0  0  0  0  0  0  0  0  0  0
  1  6  1  0  0  0  0
  2  1  2  0  0  0  0
  2  3  1  0  0  0  0
  3  4  2  0  0  0  0
  4  5  1  0  0  0  0
  5  8  1  0  0  0  0
  6  5  2  0  0  0  0
  7  1  1  0  0  0  0
  9  3  1  0  0  0  0
  9 10  1  0  0  0  0
 11  9  1  0  0  0  0
 12  9  1  0  0  0  0
 13 14  1  0  0  0  0
 13  2  1  0  0  0  0
 15 13  1  0  0  0  0
 16 17  1  0  0  0  0
 16 13  1  0  0  0  0
 18 16  1  0  0  0  0
 18 17  1  0  0  0  0
M  END
>  <minimizedAffinity>
-4.47552252

>  <minimizedRMSD>
3.84379482

$$$$
