
 OpenBabel03242517263D

 29 31  0  0  1  0  0  0  0  0999 V2000
   36.6970   23.6420   40.3920 C   0  0  0  0  0  0  0  0  0  0  0  0
   37.3190   23.6640   39.1150 C   0  0  0  0  0  0  0  0  0  0  0  0
   37.9120   24.8740   38.7060 C   0  0  0  0  0  0  0  0  0  0  0  0
   37.8500   25.9320   39.5500 N   0  0  0  0  0  0  0  0  0  0  0  0
   37.2550   25.8840   40.7500 C   0  0  0  0  0  0  0  0  0  0  0  0
   36.6850   24.7320   41.1520 N   0  0  0  0  0  0  0  0  0  0  0  0
   37.2430   27.0210   41.5460 N   0  0  0  0  0  0  0  0  0  0  0  0
   36.6560   28.2380   41.0570 C   0  0  0  0  0  0  0  0  0  0  0  0
   37.0170   29.4640   41.8400 C   0  0  0  0  0  0  0  0  0  0  0  0
   37.2890   29.2810   43.2180 N   0  0  0  0  0  0  0  0  0  0  0  0
   37.0090   27.9510   43.6790 C   0  0  0  0  0  0  0  0  0  0  0  0
   37.8260   26.9990   42.8870 C   0  0  2  0  0  0  0  0  0  0  0  0
   36.2540   22.6920   40.6670 H   0  0  0  0  0  0  0  0  0  0  0  0
   37.3870   22.8450   38.4210 H   0  0  0  0  0  0  0  0  0  0  0  0
   38.4130   25.0150   37.7630 H   0  0  0  0  0  0  0  0  0  0  0  0
   35.5590   28.0890   40.9730 H   0  0  0  0  0  0  0  0  0  0  0  0
   37.0190   28.3880   40.0180 H   0  0  0  0  0  0  0  0  0  0  0  0
   36.1250   30.1490   41.7610 H   0  0  0  0  0  0  0  0  0  0  0  0
   37.8710   30.0410   41.4060 H   0  0  0  0  0  0  0  0  0  0  0  0
   36.9000   30.0070   43.8630 H   0  0  0  0  0  0  0  0  0  0  0  0
   37.1050   27.8620   44.7620 H   0  0  0  0  0  0  0  0  0  0  0  0
   35.9310   27.7590   43.4050 H   0  0  0  0  0  0  0  0  0  0  0  0
   37.7170   25.9540   43.2760 H   0  0  0  0  0  0  0  0  0  0  0  0
   39.2960   27.3250   42.8530 C   0  0  0  0  0  0  0  0  0  0  0  0
   39.4750   28.3620   43.2180 H   0  0  0  0  0  0  0  0  0  0  0  0
   39.6230   27.3120   41.7950 H   0  0  0  0  0  0  0  0  0  0  0  0
   40.0330   26.2910   43.6760 C   0  0  0  0  0  3  0  0  0  0  0  0
   41.1590   25.5410   43.0630 C   0  0  0  0  0  2  0  0  0  0  0  0
   39.8210   24.8740   43.2250 C   0  0  0  0  0  2  0  0  0  0  0  0
  1 13  1  0  0  0  0
  1  6  1  0  0  0  0
  2  1  2  0  0  0  0
  3  2  1  0  0  0  0
  3  4  2  0  0  0  0
  4  5  1  0  0  0  0
  5  6  2  0  0  0  0
  5  7  1  0  0  0  0
  7 12  1  0  0  0  0
  8  7  1  0  0  0  0
  8  9  1  0  0  0  0
  9 10  1  0  0  0  0
 10 11  1  0  0  0  0
 10 20  1  0  0  0  0
 11 21  1  0  0  0  0
 12 23  1  1  0  0  0
 12 11  1  0  0  0  0
 14  2  1  0  0  0  0
 15  3  1  0  0  0  0
 16  8  1  0  0  0  0
 17  8  1  0  0  0  0
 18  9  1  0  0  0  0
 19  9  1  0  0  0  0
 22 11  1  0  0  0  0
 24 12  1  0  0  0  0
 24 25  1  0  0  0  0
 24 27  1  0  0  0  0
 26 24  1  0  0  0  0
 28 29  1  0  0  0  0
 28 27  1  0  0  0  0
 29 27  1  0  0  0  0
M  END
>  <minimizedAffinity>
-4.58934784

$$$$

 OpenBabel03242517263D

 29 31  0  0  1  0  0  0  0  0999 V2000
   40.1690   26.7270   39.2780 C   0  0  0  0  0  0  0  0  0  0  0  0
   41.4720   27.2480   39.5040 C   0  0  0  0  0  0  0  0  0  0  0  0
   41.5640   28.5350   40.0670 C   0  0  0  0  0  0  0  0  0  0  0  0
   40.4130   29.1900   40.3540 N   0  0  0  0  0  0  0  0  0  0  0  0
   39.1970   28.6750   40.1300 C   0  0  0  0  0  0  0  0  0  0  0  0
   39.0950   27.4450   39.5930 N   0  0  0  0  0  0  0  0  0  0  0  0
   38.0740   29.4230   40.4580 N   0  0  0  0  0  0  0  0  0  0  0  0
   37.8760   30.7210   39.8760 C   0  0  0  0  0  0  0  0  0  0  0  0
   36.8450   31.5640   40.5640 C   0  0  0  0  0  0  0  0  0  0  0  0
   35.7860   30.8760   41.2050 N   0  0  0  0  0  0  0  0  0  0  0  0
   35.7870   29.4660   40.9430 C   0  0  0  0  0  0  0  0  0  0  0  0
   37.0820   28.9050   41.4000 C   0  0  2  0  0  0  0  0  0  0  0  0
   40.1430   25.7350   38.8440 H   0  0  0  0  0  0  0  0  0  0  0  0
   42.4040   26.7570   39.2890 H   0  0  0  0  0  0  0  0  0  0  0  0
   42.4930   29.0360   40.2850 H   0  0  0  0  0  0  0  0  0  0  0  0
   37.6710   30.5920   38.7920 H   0  0  0  0  0  0  0  0  0  0  0  0
   38.8430   31.2640   39.9350 H   0  0  0  0  0  0  0  0  0  0  0  0
   36.3910   32.2080   39.7580 H   0  0  0  0  0  0  0  0  0  0  0  0
   37.2730   32.2820   41.3080 H   0  0  0  0  0  0  0  0  0  0  0  0
   34.8330   31.2930   41.0900 H   0  0  0  0  0  0  0  0  0  0  0  0
   34.8980   28.9730   41.3390 H   0  0  0  0  0  0  0  0  0  0  0  0
   35.7700   29.3690   39.8180 H   0  0  0  0  0  0  0  0  0  0  0  0
   37.0930   27.7880   41.3070 H   0  0  0  0  0  0  0  0  0  0  0  0
   37.4390   29.2510   42.8210 C   0  0  0  0  0  0  0  0  0  0  0  0
   36.7020   29.9700   43.2450 H   0  0  0  0  0  0  0  0  0  0  0  0
   38.4110   29.7820   42.8080 H   0  0  0  0  0  0  0  0  0  0  0  0
   37.5140   27.9680   43.6210 C   0  0  0  0  0  3  0  0  0  0  0  0
   38.7100   27.0970   43.4870 C   0  0  0  0  0  2  0  0  0  0  0  0
   37.4310   26.7170   42.7920 C   0  0  0  0  0  2  0  0  0  0  0  0
  1  2  2  0  0  0  0
  1  6  1  0  0  0  0
  2  3  1  0  0  0  0
  3 15  1  0  0  0  0
  3  4  2  0  0  0  0
  5  4  1  0  0  0  0
  5  7  1  0  0  0  0
  6  5  2  0  0  0  0
  7 12  1  0  0  0  0
  8 17  1  0  0  0  0
  8  7  1  0  0  0  0
  8  9  1  0  0  0  0
  9 10  1  0  0  0  0
  9 19  1  0  0  0  0
 11 10  1  0  0  0  0
 11 21  1  0  0  0  0
 11 12  1  0  0  0  0
 12 23  1  6  0  0  0
 12 24  1  0  0  0  0
 13  1  1  0  0  0  0
 14  2  1  0  0  0  0
 16  8  1  0  0  0  0
 18  9  1  0  0  0  0
 20 10  1  0  0  0  0
 22 11  1  0  0  0  0
 24 25  1  0  0  0  0
 24 27  1  0  0  0  0
 26 24  1  0  0  0  0
 28 27  1  0  0  0  0
 29 28  1  0  0  0  0
 29 27  1  0  0  0  0
M  END
>  <minimizedAffinity>
-4.54137802

$$$$

 OpenBabel03242517263D

 29 31  0  0  1  0  0  0  0  0999 V2000
   39.3040   27.5100   42.0390 C   0  0  0  0  0  0  0  0  0  0  0  0
   38.5410   27.5290   43.2370 C   0  0  0  0  0  0  0  0  0  0  0  0
   37.7530   28.6700   43.4830 C   0  0  0  0  0  0  0  0  0  0  0  0
   37.7740   29.6690   42.5680 N   0  0  0  0  0  0  0  0  0  0  0  0
   38.5050   29.6260   41.4460 C   0  0  0  0  0  0  0  0  0  0  0  0
   39.2610   28.5400   41.1990 N   0  0  0  0  0  0  0  0  0  0  0  0
   38.4600   30.7000   40.5680 N   0  0  0  0  0  0  0  0  0  0  0  0
   38.8240   32.0150   41.0170 C   0  0  0  0  0  0  0  0  0  0  0  0
   38.3990   33.1260   40.1050 C   0  0  0  0  0  0  0  0  0  0  0  0
   38.3140   32.8190   38.7250 N   0  0  0  0  0  0  0  0  0  0  0  0
   38.8160   31.5130   38.4040 C   0  0  0  0  0  0  0  0  0  0  0  0
   38.0440   30.5100   39.1790 C   0  0  2  0  0  0  0  0  0  0  0  0
   39.8950   26.6150   41.8880 H   0  0  0  0  0  0  0  0  0  0  0  0
   38.5000   26.7550   43.9830 H   0  0  0  0  0  0  0  0  0  0  0  0
   37.1320   28.8010   44.3540 H   0  0  0  0  0  0  0  0  0  0  0  0
   39.9140   32.0250   41.2280 H   0  0  0  0  0  0  0  0  0  0  0  0
   38.3270   32.1810   41.9960 H   0  0  0  0  0  0  0  0  0  0  0  0
   39.1800   33.9320   40.2230 H   0  0  0  0  0  0  0  0  0  0  0  0
   37.4330   33.6070   40.3990 H   0  0  0  0  0  0  0  0  0  0  0  0
   38.6780   33.5480   38.0690 H   0  0  0  0  0  0  0  0  0  0  0  0
   38.8580   31.3420   37.3280 H   0  0  0  0  0  0  0  0  0  0  0  0
   39.8710   31.4900   38.8050 H   0  0  0  0  0  0  0  0  0  0  0  0
   38.3320   29.4680   38.8880 H   0  0  0  0  0  0  0  0  0  0  0  0
   36.5500   30.6320   39.0310 C   0  0  0  0  0  0  0  0  0  0  0  0
   36.2890   31.5230   38.4160 H   0  0  0  0  0  0  0  0  0  0  0  0
   36.1230   30.8180   40.0360 H   0  0  0  0  0  0  0  0  0  0  0  0
   36.0230   29.3460   38.4300 C   0  0  0  0  0  3  0  0  0  0  0  0
   34.6360   28.9140   38.7400 C   0  0  0  0  0  2  0  0  0  0  0  0
   35.7950   28.2450   39.4270 C   0  0  0  0  0  2  0  0  0  0  0  0
  1  2  1  0  0  0  0
  2  3  2  0  0  0  0
  2 14  1  0  0  0  0
  3 15  1  0  0  0  0
  4  3  1  0  0  0  0
  5  4  2  0  0  0  0
  6  5  1  0  0  0  0
  6  1  2  0  0  0  0
  7  8  1  0  0  0  0
  7  5  1  0  0  0  0
  8 16  1  0  0  0  0
  8 17  1  0  0  0  0
  9 18  1  0  0  0  0
  9 19  1  0  0  0  0
  9  8  1  0  0  0  0
 10  9  1  0  0  0  0
 11 10  1  0  0  0  0
 11 22  1  0  0  0  0
 11 12  1  0  0  0  0
 12 23  1  6  0  0  0
 12  7  1  0  0  0  0
 13  1  1  0  0  0  0
 20 10  1  0  0  0  0
 21 11  1  0  0  0  0
 24 12  1  0  0  0  0
 24 26  1  0  0  0  0
 25 24  1  0  0  0  0
 27 28  1  0  0  0  0
 27 24  1  0  0  0  0
 27 29  1  0  0  0  0
 28 29  1  0  0  0  0
M  END
>  <minimizedAffinity>
-4.40893364

$$$$

 OpenBabel03242517263D

 29 31  0  0  1  0  0  0  0  0999 V2000
   34.8290   28.9390   38.2610 C   0  0  0  0  0  0  0  0  0  0  0  0
   35.7390   29.2730   37.2230 C   0  0  0  0  0  0  0  0  0  0  0  0
   37.1050   29.3410   37.5580 C   0  0  0  0  0  0  0  0  0  0  0  0
   37.4600   29.0870   38.8400 N   0  0  0  0  0  0  0  0  0  0  0  0
   36.5800   28.7750   39.8010 C   0  0  0  0  0  0  0  0  0  0  0  0
   35.2720   28.7060   39.4930 N   0  0  0  0  0  0  0  0  0  0  0  0
   37.0410   28.5300   41.0880 N   0  0  0  0  0  0  0  0  0  0  0  0
   37.7880   29.5360   41.7910 C   0  0  0  0  0  0  0  0  0  0  0  0
   38.5250   29.0380   42.9960 C   0  0  0  0  0  0  0  0  0  0  0  0
   37.9570   27.9350   43.6780 N   0  0  0  0  0  0  0  0  0  0  0  0
   36.6580   27.5740   43.1870 C   0  0  0  0  0  0  0  0  0  0  0  0
   36.7760   27.2500   41.7440 C   0  0  2  0  0  0  0  0  0  0  0  0
   33.7890   28.8960   37.9610 H   0  0  0  0  0  0  0  0  0  0  0  0
   35.4920   29.4790   36.1960 H   0  0  0  0  0  0  0  0  0  0  0  0
   37.8880   29.5830   36.8600 H   0  0  0  0  0  0  0  0  0  0  0  0
   37.1060   30.3820   42.0220 H   0  0  0  0  0  0  0  0  0  0  0  0
   38.5420   29.9440   41.0840 H   0  0  0  0  0  0  0  0  0  0  0  0
   38.5490   29.9050   43.7180 H   0  0  0  0  0  0  0  0  0  0  0  0
   39.5980   28.7910   42.7990 H   0  0  0  0  0  0  0  0  0  0  0  0
   37.9800   27.9800   44.7240 H   0  0  0  0  0  0  0  0  0  0  0  0
   36.1850   26.8070   43.8010 H   0  0  0  0  0  0  0  0  0  0  0  0
   36.0380   28.5140   43.2590 H   0  0  0  0  0  0  0  0  0  0  0  0
   35.8060   26.8660   41.3360 H   0  0  0  0  0  0  0  0  0  0  0  0
   37.8420   26.2360   41.4220 C   0  0  0  0  0  0  0  0  0  0  0  0
   38.8140   26.5330   41.8790 H   0  0  0  0  0  0  0  0  0  0  0  0
   38.0040   26.2480   40.3270 H   0  0  0  0  0  0  0  0  0  0  0  0
   37.3730   24.8810   41.9030 C   0  0  0  0  0  3  0  0  0  0  0  0
   37.9000   23.6550   41.2500 C   0  0  0  0  0  2  0  0  0  0  0  0
   36.5150   24.1380   40.9170 C   0  0  0  0  0  2  0  0  0  0  0  0
  1  6  1  0  0  0  0
  2  3  1  0  0  0  0
  2  1  2  0  0  0  0
  3  4  2  0  0  0  0
  4  5  1  0  0  0  0
  5  7  1  0  0  0  0
  6  5  2  0  0  0  0
  7 12  1  0  0  0  0
  7  8  1  0  0  0  0
  8 16  1  0  0  0  0
  8  9  1  0  0  0  0
  9 10  1  0  0  0  0
  9 18  1  0  0  0  0
 10 20  1  0  0  0  0
 11 22  1  0  0  0  0
 11 10  1  0  0  0  0
 11 21  1  0  0  0  0
 12 23  1  6  0  0  0
 12 11  1  0  0  0  0
 13  1  1  0  0  0  0
 14  2  1  0  0  0  0
 15  3  1  0  0  0  0
 17  8  1  0  0  0  0
 19  9  1  0  0  0  0
 24 12  1  0  0  0  0
 24 25  1  0  0  0  0
 24 27  1  0  0  0  0
 26 24  1  0  0  0  0
 28 27  1  0  0  0  0
 29 28  1  0  0  0  0
 29 27  1  0  0  0  0
M  END
>  <minimizedAffinity>
-4.36587906

$$$$

 OpenBabel03242517263D

 29 31  0  0  1  0  0  0  0  0999 V2000
   37.4190   27.7300   43.6800 C   0  0  0  0  0  0  0  0  0  0  0  0
   38.8030   27.4690   43.4930 C   0  0  0  0  0  0  0  0  0  0  0  0
   39.2870   27.4650   42.1710 C   0  0  0  0  0  0  0  0  0  0  0  0
   38.4070   27.7070   41.1690 N   0  0  0  0  0  0  0  0  0  0  0  0
   37.1060   27.9500   41.3740 C   0  0  0  0  0  0  0  0  0  0  0  0
   36.6310   27.9570   42.6330 N   0  0  0  0  0  0  0  0  0  0  0  0
   36.2820   28.1880   40.2820 N   0  0  0  0  0  0  0  0  0  0  0  0
   36.1620   27.2060   39.2400 C   0  0  0  0  0  0  0  0  0  0  0  0
   35.5460   27.7140   37.9710 C   0  0  0  0  0  0  0  0  0  0  0  0
   34.6110   28.7690   38.0970 N   0  0  0  0  0  0  0  0  0  0  0  0
   34.2790   29.0730   39.4590 C   0  0  0  0  0  0  0  0  0  0  0  0
   35.5280   29.4360   40.1750 C   0  0  2  0  0  0  0  0  0  0  0  0
   37.0890   27.7250   44.7110 H   0  0  0  0  0  0  0  0  0  0  0  0
   39.5280   27.2740   44.2630 H   0  0  0  0  0  0  0  0  0  0  0  0
   40.3130   27.2810   41.9020 H   0  0  0  0  0  0  0  0  0  0  0  0
   35.6330   26.3210   39.6510 H   0  0  0  0  0  0  0  0  0  0  0  0
   37.1870   26.8550   38.9950 H   0  0  0  0  0  0  0  0  0  0  0  0
   35.0030   26.8330   37.5230 H   0  0  0  0  0  0  0  0  0  0  0  0
   36.2940   28.0220   37.1990 H   0  0  0  0  0  0  0  0  0  0  0  0
   33.7580   28.7010   37.4940 H   0  0  0  0  0  0  0  0  0  0  0  0
   33.4690   29.8000   39.5340 H   0  0  0  0  0  0  0  0  0  0  0  0
   33.9210   28.1000   39.9050 H   0  0  0  0  0  0  0  0  0  0  0  0
   35.3080   29.7780   41.2200 H   0  0  0  0  0  0  0  0  0  0  0  0
   36.3370   30.5120   39.5010 C   0  0  0  0  0  0  0  0  0  0  0  0
   35.7400   31.0080   38.7010 H   0  0  0  0  0  0  0  0  0  0  0  0
   37.1900   30.0260   38.9880 H   0  0  0  0  0  0  0  0  0  0  0  0
   36.8050   31.4910   40.5560 C   0  0  0  0  0  3  0  0  0  0  0  0
   37.5310   32.7180   40.1390 C   0  0  0  0  0  2  0  0  0  0  0  0
   38.2970   31.5600   40.7170 C   0  0  0  0  0  2  0  0  0  0  0  0
  1 13  1  0  0  0  0
  2  1  1  0  0  0  0
  2 14  1  0  0  0  0
  3  2  2  0  0  0  0
  4  5  2  0  0  0  0
  4  3  1  0  0  0  0
  5  6  1  0  0  0  0
  6  1  2  0  0  0  0
  7  5  1  0  0  0  0
  8 16  1  0  0  0  0
  8  7  1  0  0  0  0
  9 10  1  0  0  0  0
  9  8  1  0  0  0  0
 10 11  1  0  0  0  0
 11 21  1  0  0  0  0
 11 22  1  0  0  0  0
 11 12  1  0  0  0  0
 12  7  1  0  0  0  0
 12 23  1  1  0  0  0
 15  3  1  0  0  0  0
 17  8  1  0  0  0  0
 18  9  1  0  0  0  0
 19  9  1  0  0  0  0
 20 10  1  0  0  0  0
 24 12  1  0  0  0  0
 24 27  1  0  0  0  0
 25 24  1  0  0  0  0
 26 24  1  0  0  0  0
 27 29  1  0  0  0  0
 28 27  1  0  0  0  0
 28 29  1  0  0  0  0
M  END
>  <minimizedAffinity>
-4.36040497

$$$$

 OpenBabel03242517263D

 29 31  0  0  1  0  0  0  0  0999 V2000
   37.8880   29.5370   38.6630 C   0  0  0  0  0  0  0  0  0  0  0  0
   36.5860   30.0170   38.3580 C   0  0  0  0  0  0  0  0  0  0  0  0
   35.4940   29.2410   38.7890 C   0  0  0  0  0  0  0  0  0  0  0  0
   35.7530   28.0930   39.4610 N   0  0  0  0  0  0  0  0  0  0  0  0
   36.9920   27.6630   39.7340 C   0  0  0  0  0  0  0  0  0  0  0  0
   38.0440   28.3970   39.3280 N   0  0  0  0  0  0  0  0  0  0  0  0
   37.1570   26.4730   40.4300 N   0  0  0  0  0  0  0  0  0  0  0  0
   36.6080   25.2510   39.9110 C   0  0  0  0  0  0  0  0  0  0  0  0
   36.5360   24.1280   40.9010 C   0  0  0  0  0  0  0  0  0  0  0  0
   37.5170   24.1170   41.9220 N   0  0  0  0  0  0  0  0  0  0  0  0
   38.5360   25.1110   41.7390 C   0  0  0  0  0  0  0  0  0  0  0  0
   37.8860   26.4450   41.6970 C   0  0  2  0  0  0  0  0  0  0  0  0
   38.6990   30.1640   38.3130 H   0  0  0  0  0  0  0  0  0  0  0  0
   36.3450   30.9220   37.8280 H   0  0  0  0  0  0  0  0  0  0  0  0
   34.4620   29.5000   38.6190 H   0  0  0  0  0  0  0  0  0  0  0  0
   37.1680   24.9780   38.9910 H   0  0  0  0  0  0  0  0  0  0  0  0
   35.5710   25.4670   39.5780 H   0  0  0  0  0  0  0  0  0  0  0  0
   36.6660   23.1830   40.2990 H   0  0  0  0  0  0  0  0  0  0  0  0
   35.5390   24.0270   41.3970 H   0  0  0  0  0  0  0  0  0  0  0  0
   37.9230   23.1820   42.1580 H   0  0  0  0  0  0  0  0  0  0  0  0
   39.3460   25.0080   42.4620 H   0  0  0  0  0  0  0  0  0  0  0  0
   38.9580   24.9230   40.7090 H   0  0  0  0  0  0  0  0  0  0  0  0
   38.6500   27.2640   41.6550 H   0  0  0  0  0  0  0  0  0  0  0  0
   36.9760   26.7260   42.8630 C   0  0  0  0  0  0  0  0  0  0  0  0
   36.8690   25.8210   43.5030 H   0  0  0  0  0  0  0  0  0  0  0  0
   35.9650   26.9380   42.4620 H   0  0  0  0  0  0  0  0  0  0  0  0
   37.5310   27.9080   43.6280 C   0  0  0  0  0  3  0  0  0  0  0  0
   37.6430   29.2250   42.9510 C   0  0  0  0  0  2  0  0  0  0  0  0
   38.8730   28.3820   43.1460 C   0  0  0  0  0  2  0  0  0  0  0  0
  1  6  1  0  0  0  0
  2  1  2  0  0  0  0
  2  3  1  0  0  0  0
  3  4  2  0  0  0  0
  4  5  1  0  0  0  0
  5  7  1  0  0  0  0
  6  5  2  0  0  0  0
  7 12  1  0  0  0  0
  8  7  1  0  0  0  0
  8  9  1  0  0  0  0
  9 19  1  0  0  0  0
  9 10  1  0  0  0  0
 10 20  1  0  0  0  0
 11 10  1  0  0  0  0
 11 21  1  0  0  0  0
 12 23  1  6  0  0  0
 12 11  1  0  0  0  0
 12 24  1  0  0  0  0
 13  1  1  0  0  0  0
 14  2  1  0  0  0  0
 15  3  1  0  0  0  0
 16  8  1  0  0  0  0
 17  8  1  0  0  0  0
 18  9  1  0  0  0  0
 22 11  1  0  0  0  0
 24 25  1  0  0  0  0
 24 27  1  0  0  0  0
 26 24  1  0  0  0  0
 28 29  1  0  0  0  0
 28 27  1  0  0  0  0
 29 27  1  0  0  0  0
M  END
>  <minimizedAffinity>
-4.35461521

$$$$

 OpenBabel03242517263D

 29 31  0  0  1  0  0  0  0  0999 V2000
   39.3080   28.5310   37.1990 C   0  0  0  0  0  0  0  0  0  0  0  0
   38.2680   28.0740   36.3460 C   0  0  0  0  0  0  0  0  0  0  0  0
   37.0080   27.8420   36.9300 C   0  0  0  0  0  0  0  0  0  0  0  0
   36.8700   28.0660   38.2590 N   0  0  0  0  0  0  0  0  0  0  0  0
   37.8690   28.4970   39.0410 C   0  0  0  0  0  0  0  0  0  0  0  0
   39.0780   28.7230   38.4950 N   0  0  0  0  0  0  0  0  0  0  0  0
   37.6300   28.6990   40.3940 N   0  0  0  0  0  0  0  0  0  0  0  0
   37.1580   27.6170   41.2130 C   0  0  0  0  0  0  0  0  0  0  0  0
   36.6030   28.0360   42.5410 C   0  0  0  0  0  0  0  0  0  0  0  0
   37.1480   29.2100   43.1160 N   0  0  0  0  0  0  0  0  0  0  0  0
   38.2770   29.7220   42.3950 C   0  0  0  0  0  0  0  0  0  0  0  0
   37.8520   30.0100   41.0020 C   0  0  2  0  0  0  0  0  0  0  0  0
   40.2600   28.6980   36.7100 H   0  0  0  0  0  0  0  0  0  0  0  0
   38.3430   27.8860   35.2890 H   0  0  0  0  0  0  0  0  0  0  0  0
   36.1440   27.4960   36.3880 H   0  0  0  0  0  0  0  0  0  0  0  0
   37.9700   26.8660   41.3040 H   0  0  0  0  0  0  0  0  0  0  0  0
   36.3410   27.1110   40.6560 H   0  0  0  0  0  0  0  0  0  0  0  0
   36.8230   27.1820   43.2450 H   0  0  0  0  0  0  0  0  0  0  0  0
   35.4900   28.1460   42.5500 H   0  0  0  0  0  0  0  0  0  0  0  0
   37.3270   29.1750   44.1470 H   0  0  0  0  0  0  0  0  0  0  0  0
   38.7580   30.5500   42.9170 H   0  0  0  0  0  0  0  0  0  0  0  0
   39.0120   28.8670   42.3390 H   0  0  0  0  0  0  0  0  0  0  0  0
   38.6740   30.5060   40.4240 H   0  0  0  0  0  0  0  0  0  0  0  0
   36.6270   30.8800   40.8970 C   0  0  0  0  0  0  0  0  0  0  0  0
   36.2030   31.0820   41.9070 H   0  0  0  0  0  0  0  0  0  0  0  0
   35.8520   30.3110   40.3480 H   0  0  0  0  0  0  0  0  0  0  0  0
   37.0060   32.1520   40.1690 C   0  0  0  0  0  3  0  0  0  0  0  0
   37.2180   32.1130   38.6990 C   0  0  0  0  0  2  0  0  0  0  0  0
   38.4060   32.1580   39.6210 C   0  0  0  0  0  2  0  0  0  0  0  0
  1  6  1  0  0  0  0
  2  3  1  0  0  0  0
  2  1  2  0  0  0  0
  3  4  2  0  0  0  0
  4  5  1  0  0  0  0
  5  7  1  0  0  0  0
  6  5  2  0  0  0  0
  7 12  1  0  0  0  0
  7  8  1  0  0  0  0
  8 16  1  0  0  0  0
  8  9  1  0  0  0  0
  9 19  1  0  0  0  0
  9 10  1  0  0  0  0
  9 18  1  0  0  0  0
 10 20  1  0  0  0  0
 11 21  1  0  0  0  0
 11 10  1  0  0  0  0
 12 23  1  6  0  0  0
 12 11  1  0  0  0  0
 13  1  1  0  0  0  0
 14  2  1  0  0  0  0
 15  3  1  0  0  0  0
 17  8  1  0  0  0  0
 22 11  1  0  0  0  0
 24 12  1  0  0  0  0
 24 25  1  0  0  0  0
 26 24  1  0  0  0  0
 27 24  1  0  0  0  0
 28 29  1  0  0  0  0
 28 27  1  0  0  0  0
 29 27  1  0  0  0  0
M  END
>  <minimizedAffinity>
-4.24933767

$$$$

 OpenBabel03242517263D

 29 31  0  0  1  0  0  0  0  0999 V2000
   38.4950   26.6930   37.9730 C   0  0  0  0  0  0  0  0  0  0  0  0
   37.3880   25.9130   37.5460 C   0  0  0  0  0  0  0  0  0  0  0  0
   36.2900   25.8150   38.4220 C   0  0  0  0  0  0  0  0  0  0  0  0
   36.3610   26.4650   39.6090 N   0  0  0  0  0  0  0  0  0  0  0  0
   37.4200   27.1940   39.9870 C   0  0  0  0  0  0  0  0  0  0  0  0
   38.4750   27.2960   39.1580 N   0  0  0  0  0  0  0  0  0  0  0  0
   37.4000   27.8250   41.2230 N   0  0  0  0  0  0  0  0  0  0  0  0
   37.2210   27.0560   42.4240 C   0  0  0  0  0  0  0  0  0  0  0  0
   36.8600   27.8630   43.6340 C   0  0  0  0  0  0  0  0  0  0  0  0
   37.3450   29.1930   43.6790 N   0  0  0  0  0  0  0  0  0  0  0  0
   38.2550   29.5000   42.6130 C   0  0  0  0  0  0  0  0  0  0  0  0
   37.5580   29.2760   41.3230 C   0  0  2  0  0  0  0  0  0  0  0  0
   39.3170   26.7430   37.2690 H   0  0  0  0  0  0  0  0  0  0  0  0
   37.2980   25.3850   36.6130 H   0  0  0  0  0  0  0  0  0  0  0  0
   35.3950   25.2540   38.2110 H   0  0  0  0  0  0  0  0  0  0  0  0
   38.1250   26.4300   42.5780 H   0  0  0  0  0  0  0  0  0  0  0  0
   36.3890   26.3430   42.2400 H   0  0  0  0  0  0  0  0  0  0  0  0
   37.3070   27.3120   44.5110 H   0  0  0  0  0  0  0  0  0  0  0  0
   35.7610   27.9020   43.8400 H   0  0  0  0  0  0  0  0  0  0  0  0
   37.7060   29.5190   44.6060 H   0  0  0  0  0  0  0  0  0  0  0  0
   38.7120   30.4830   42.7330 H   0  0  0  0  0  0  0  0  0  0  0  0
   39.0710   28.7230   42.6810 H   0  0  0  0  0  0  0  0  0  0  0  0
   38.1960   29.5970   40.4590 H   0  0  0  0  0  0  0  0  0  0  0  0
   36.2340   29.9830   41.2030 C   0  0  0  0  0  0  0  0  0  0  0  0
   36.0480   30.6190   42.0990 H   0  0  0  0  0  0  0  0  0  0  0  0
   35.4370   29.2150   41.2030 H   0  0  0  0  0  0  0  0  0  0  0  0
   36.2350   30.7860   39.9210 C   0  0  0  0  0  3  0  0  0  0  0  0
   37.4750   30.8500   39.1040 C   0  0  0  0  0  2  0  0  0  0  0  0
   37.0910   32.0210   39.9660 C   0  0  0  0  0  2  0  0  0  0  0  0
  1  6  1  0  0  0  0
  2  1  2  0  0  0  0
  2  3  1  0  0  0  0
  3  4  2  0  0  0  0
  4  5  1  0  0  0  0
  5  7  1  0  0  0  0
  6  5  2  0  0  0  0
  7 12  1  0  0  0  0
  7  8  1  0  0  0  0
  8 16  1  0  0  0  0
  8  9  1  0  0  0  0
  9 10  1  0  0  0  0
  9 19  1  0  0  0  0
  9 18  1  0  0  0  0
 10 20  1  0  0  0  0
 11 22  1  0  0  0  0
 11 21  1  0  0  0  0
 11 10  1  0  0  0  0
 12 23  1  6  0  0  0
 12 11  1  0  0  0  0
 13  1  1  0  0  0  0
 14  2  1  0  0  0  0
 15  3  1  0  0  0  0
 17  8  1  0  0  0  0
 24 12  1  0  0  0  0
 24 25  1  0  0  0  0
 26 24  1  0  0  0  0
 27 29  1  0  0  0  0
 27 24  1  0  0  0  0
 28 27  1  0  0  0  0
 28 29  1  0  0  0  0
M  END
>  <minimizedAffinity>
-4.2414794

$$$$

 OpenBabel03242517263D

 29 31  0  0  1  0  0  0  0  0999 V2000
   36.5880   28.1540   42.4560 C   0  0  0  0  0  0  0  0  0  0  0  0
   37.7570   28.3570   43.2380 C   0  0  0  0  0  0  0  0  0  0  0  0
   38.9350   28.7160   42.5560 C   0  0  0  0  0  0  0  0  0  0  0  0
   38.8780   28.8430   41.2080 N   0  0  0  0  0  0  0  0  0  0  0  0
   37.7620   28.6440   40.4950 C   0  0  0  0  0  0  0  0  0  0  0  0
   36.6290   28.3010   41.1350 N   0  0  0  0  0  0  0  0  0  0  0  0
   37.8020   28.7990   39.1160 N   0  0  0  0  0  0  0  0  0  0  0  0
   38.7100   28.0120   38.3280 C   0  0  0  0  0  0  0  0  0  0  0  0
   38.9180   28.5120   36.9300 C   0  0  0  0  0  0  0  0  0  0  0  0
   37.8340   29.2000   36.3330 N   0  0  0  0  0  0  0  0  0  0  0  0
   36.6360   29.1620   37.1220 C   0  0  0  0  0  0  0  0  0  0  0  0
   36.9280   29.7620   38.4470 C   0  0  2  0  0  0  0  0  0  0  0  0
   35.7040   27.8800   43.0200 H   0  0  0  0  0  0  0  0  0  0  0  0
   37.8370   28.2650   44.3060 H   0  0  0  0  0  0  0  0  0  0  0  0
   39.8820   28.8970   43.0360 H   0  0  0  0  0  0  0  0  0  0  0  0
   38.3770   26.9530   38.3610 H   0  0  0  0  0  0  0  0  0  0  0  0
   39.6960   28.0320   38.8380 H   0  0  0  0  0  0  0  0  0  0  0  0
   39.1190   27.5940   36.3060 H   0  0  0  0  0  0  0  0  0  0  0  0
   39.8260   29.1540   36.8110 H   0  0  0  0  0  0  0  0  0  0  0  0
   37.6460   28.9780   35.3280 H   0  0  0  0  0  0  0  0  0  0  0  0
   35.7820   29.5870   36.5940 H   0  0  0  0  0  0  0  0  0  0  0  0
   36.4280   28.0670   37.3000 H   0  0  0  0  0  0  0  0  0  0  0  0
   35.9970   29.8450   39.0660 H   0  0  0  0  0  0  0  0  0  0  0  0
   37.5600   31.1270   38.3830 C   0  0  0  0  0  0  0  0  0  0  0  0
   37.4290   31.5710   37.3690 H   0  0  0  0  0  0  0  0  0  0  0  0
   38.6510   31.0040   38.5250 H   0  0  0  0  0  0  0  0  0  0  0  0
   36.9490   31.9870   39.4680 C   0  0  0  0  0  3  0  0  0  0  0  0
   37.3240   33.4220   39.5550 C   0  0  0  0  0  2  0  0  0  0  0  0
   37.9220   32.4370   40.5210 C   0  0  0  0  0  2  0  0  0  0  0  0
  1 13  1  0  0  0  0
  1  2  1  0  0  0  0
  2 14  1  0  0  0  0
  3 15  1  0  0  0  0
  3  2  2  0  0  0  0
  4  3  1  0  0  0  0
  5  6  1  0  0  0  0
  5  4  2  0  0  0  0
  6  1  2  0  0  0  0
  7  5  1  0  0  0  0
  8 16  1  0  0  0  0
  8 17  1  0  0  0  0
  8  7  1  0  0  0  0
  9  8  1  0  0  0  0
 10  9  1  0  0  0  0
 10 11  1  0  0  0  0
 11 22  1  0  0  0  0
 11 12  1  0  0  0  0
 12 23  1  1  0  0  0
 12  7  1  0  0  0  0
 18  9  1  0  0  0  0
 19  9  1  0  0  0  0
 20 10  1  0  0  0  0
 21 11  1  0  0  0  0
 24 12  1  0  0  0  0
 24 26  1  0  0  0  0
 24 27  1  0  0  0  0
 25 24  1  0  0  0  0
 27 28  1  0  0  0  0
 27 29  1  0  0  0  0
 28 29  1  0  0  0  0
M  END
>  <minimizedAffinity>
-4.2095046

$$$$
