
 OpenBabel03252501333D

 18 19  0  0  0  0  0  0  0  0999 V2000
   36.3870   28.5580   41.3870 C   0  0  0  0  0  0  0  0  0  0  0  0
   36.8890   28.0920   42.5870 C   0  0  0  0  0  0  0  0  0  0  0  0
   37.2830   26.7590   42.6110 C   0  0  0  0  0  0  0  0  0  0  0  0
   37.1500   26.0360   41.4890 N   0  0  0  0  0  0  0  0  0  0  0  0
   36.6590   26.5190   40.3430 C   0  0  0  0  0  0  0  0  0  0  0  0
   36.2640   27.8120   40.2770 N   0  0  0  0  0  0  0  0  0  0  0  0
   37.6740   26.4090   43.5550 H   0  0  0  0  0  0  0  0  0  0  0  0
   36.6090   25.8210   39.5180 H   0  0  0  0  0  0  0  0  0  0  0  0
   37.0250   30.7210   40.7430 C   0  0  0  0  0  0  0  0  0  0  0  0
   38.1160   30.0460   40.7120 O   0  0  0  0  0  0  0  0  0  0  0  0
   35.9200   29.9130   41.1490 N   0  0  0  0  0  0  0  0  0  0  0  0
   34.9590   30.3110   41.2370 H   0  0  0  0  0  0  0  0  0  0  0  0
   36.8640   32.1630   40.4100 C   0  0  0  0  0  3  0  0  0  0  0  0
   38.0570   33.0060   40.1580 C   0  0  0  0  0  2  0  0  0  0  0  0
   37.2030   32.6200   39.0110 C   0  0  0  0  0  2  0  0  0  0  0  0
   36.9530   29.0160   43.6650 N   0  0  0  0  0  0  0  0  0  0  0  0
   37.6970   29.6690   43.9630 H   0  0  0  0  0  0  0  0  0  0  0  0
   35.9800   28.7710   44.0150 H   0  0  0  0  0  0  0  0  0  0  0  0
  1  2  1  0  0  0  0
  2  3  2  0  0  0  0
  2 16  1  0  0  0  0
  3  7  1  0  0  0  0
  4  3  1  0  0  0  0
  5  4  2  0  0  0  0
  6  5  1  0  0  0  0
  6  1  2  0  0  0  0
  8  5  1  0  0  0  0
  9 11  1  0  0  0  0
 10  9  2  0  0  0  0
 11 12  1  0  0  0  0
 11  1  1  0  0  0  0
 13  9  1  0  0  0  0
 14 13  1  0  0  0  0
 15 14  1  0  0  0  0
 15 13  1  0  0  0  0
 16 17  1  0  0  0  0
 16 18  1  0  0  0  0
M  END
>  <minimizedAffinity>
-4.32468081

$$$$

 OpenBabel03252501333D

 18 19  0  0  0  0  0  0  0  0999 V2000
   37.2300   29.7420   41.8920 C   0  0  0  0  0  0  0  0  0  0  0  0
   36.3920   30.4100   41.0190 C   0  0  0  0  0  0  0  0  0  0  0  0
   36.9180   31.5420   40.4080 C   0  0  0  0  0  0  0  0  0  0  0  0
   38.1780   31.8970   40.7040 N   0  0  0  0  0  0  0  0  0  0  0  0
   38.9630   31.2270   41.5560 C   0  0  0  0  0  0  0  0  0  0  0  0
   38.4880   30.1200   42.1710 N   0  0  0  0  0  0  0  0  0  0  0  0
   36.2530   32.0530   39.7290 H   0  0  0  0  0  0  0  0  0  0  0  0
   39.9570   31.6290   41.6990 H   0  0  0  0  0  0  0  0  0  0  0  0
   37.1900   27.3980   41.8380 C   0  0  0  0  0  0  0  0  0  0  0  0
   37.6780   27.7330   40.6990 O   0  0  0  0  0  0  0  0  0  0  0  0
   36.8770   28.5430   42.6320 N   0  0  0  0  0  0  0  0  0  0  0  0
   36.4620   28.4470   43.5850 H   0  0  0  0  0  0  0  0  0  0  0  0
   36.9570   26.0130   42.3300 C   0  0  0  0  0  3  0  0  0  0  0  0
   36.9860   24.8720   41.3850 C   0  0  0  0  0  2  0  0  0  0  0  0
   38.1150   25.0440   42.3280 C   0  0  0  0  0  2  0  0  0  0  0  0
   35.0890   29.8750   40.8350 N   0  0  0  0  0  0  0  0  0  0  0  0
   34.7230   29.1780   40.1640 H   0  0  0  0  0  0  0  0  0  0  0  0
   34.6710   30.4520   41.6240 H   0  0  0  0  0  0  0  0  0  0  0  0
  1  6  1  0  0  0  0
  1 11  1  0  0  0  0
  2  1  2  0  0  0  0
  3  4  2  0  0  0  0
  3  2  1  0  0  0  0
  4  5  1  0  0  0  0
  5  8  1  0  0  0  0
  5  6  2  0  0  0  0
  7  3  1  0  0  0  0
  9 13  1  0  0  0  0
  9 11  1  0  0  0  0
 10  9  2  0  0  0  0
 11 12  1  0  0  0  0
 14 15  1  0  0  0  0
 14 13  1  0  0  0  0
 15 13  1  0  0  0  0
 16  2  1  0  0  0  0
 16 18  1  0  0  0  0
 17 16  1  0  0  0  0
M  END
>  <minimizedAffinity>
-4.31140852

$$$$

 OpenBabel03252501333D

 18 19  0  0  0  0  0  0  0  0999 V2000
   37.9850   30.1270   40.6580 C   0  0  0  0  0  0  0  0  0  0  0  0
   37.0240   31.1180   40.7260 C   0  0  0  0  0  0  0  0  0  0  0  0
   37.3340   32.3180   40.0980 C   0  0  0  0  0  0  0  0  0  0  0  0
   38.5210   32.4250   39.4830 N   0  0  0  0  0  0  0  0  0  0  0  0
   39.4300   31.4450   39.4360 C   0  0  0  0  0  0  0  0  0  0  0  0
   39.1670   30.2610   40.0350 N   0  0  0  0  0  0  0  0  0  0  0  0
   36.5740   33.0830   40.1590 H   0  0  0  0  0  0  0  0  0  0  0  0
   40.3440   31.6730   38.9040 H   0  0  0  0  0  0  0  0  0  0  0  0
   38.2940   28.8590   42.6060 C   0  0  0  0  0  0  0  0  0  0  0  0
   38.6810   30.0390   42.9300 O   0  0  0  0  0  0  0  0  0  0  0  0
   37.8610   28.8050   41.2460 N   0  0  0  0  0  0  0  0  0  0  0  0
   37.5240   27.9140   40.8190 H   0  0  0  0  0  0  0  0  0  0  0  0
   38.2720   27.6590   43.4860 C   0  0  0  0  0  3  0  0  0  0  0  0
   38.4340   26.3050   42.9040 C   0  0  0  0  0  2  0  0  0  0  0  0
   39.5540   26.8850   43.6800 C   0  0  0  0  0  2  0  0  0  0  0  0
   35.8250   30.8100   41.4240 N   0  0  0  0  0  0  0  0  0  0  0  0
   34.9320   30.3980   41.1040 H   0  0  0  0  0  0  0  0  0  0  0  0
   36.2030   31.1590   42.3550 H   0  0  0  0  0  0  0  0  0  0  0  0
  1  2  1  0  0  0  0
  1 11  1  0  0  0  0
  2 16  1  0  0  0  0
  3  7  1  0  0  0  0
  3  2  2  0  0  0  0
  4  3  1  0  0  0  0
  5  4  2  0  0  0  0
  5  6  1  0  0  0  0
  6  1  2  0  0  0  0
  8  5  1  0  0  0  0
  9 10  2  0  0  0  0
  9 13  1  0  0  0  0
 11  9  1  0  0  0  0
 12 11  1  0  0  0  0
 13 15  1  0  0  0  0
 14 13  1  0  0  0  0
 14 15  1  0  0  0  0
 16 18  1  0  0  0  0
 17 16  1  0  0  0  0
M  END
>  <minimizedAffinity>
-4.27159691

$$$$

 OpenBabel03252501333D

 18 19  0  0  0  0  0  0  0  0999 V2000
   36.7510   30.3560   39.9410 C   0  0  0  0  0  0  0  0  0  0  0  0
   37.0560   31.6650   39.6180 C   0  0  0  0  0  0  0  0  0  0  0  0
   37.3260   31.9200   38.2790 C   0  0  0  0  0  0  0  0  0  0  0  0
   37.2720   30.8970   37.4140 N   0  0  0  0  0  0  0  0  0  0  0  0
   36.9740   29.6400   37.7600 C   0  0  0  0  0  0  0  0  0  0  0  0
   36.7050   29.3490   39.0540 N   0  0  0  0  0  0  0  0  0  0  0  0
   37.5620   32.9470   38.0420 H   0  0  0  0  0  0  0  0  0  0  0  0
   36.9680   28.9160   36.9560 H   0  0  0  0  0  0  0  0  0  0  0  0
   37.6520   29.4890   41.9250 C   0  0  0  0  0  0  0  0  0  0  0  0
   38.6690   29.6520   41.1590 O   0  0  0  0  0  0  0  0  0  0  0  0
   36.4400   29.8790   41.2770 N   0  0  0  0  0  0  0  0  0  0  0  0
   35.5170   29.8000   41.7590 H   0  0  0  0  0  0  0  0  0  0  0  0
   37.6650   28.9690   43.3190 C   0  0  0  0  0  3  0  0  0  0  0  0
   36.8500   27.7850   43.6800 C   0  0  0  0  0  2  0  0  0  0  0  0
   38.3200   27.6340   43.5820 C   0  0  0  0  0  2  0  0  0  0  0  0
   37.0590   32.6100   40.6800 N   0  0  0  0  0  0  0  0  0  0  0  0
   36.3100   33.2070   41.0680 H   0  0  0  0  0  0  0  0  0  0  0  0
   38.0900   32.4590   40.8950 H   0  0  0  0  0  0  0  0  0  0  0  0
  1 11  1  0  0  0  0
  2  1  1  0  0  0  0
  2 16  1  0  0  0  0
  3  2  2  0  0  0  0
  4  5  2  0  0  0  0
  4  3  1  0  0  0  0
  5  6  1  0  0  0  0
  6  1  2  0  0  0  0
  7  3  1  0  0  0  0
  8  5  1  0  0  0  0
  9 13  1  0  0  0  0
 10  9  2  0  0  0  0
 11 12  1  0  0  0  0
 11  9  1  0  0  0  0
 13 15  1  0  0  0  0
 13 14  1  0  0  0  0
 15 14  1  0  0  0  0
 16 18  1  0  0  0  0
 16 17  1  0  0  0  0
M  END
>  <minimizedAffinity>
-4.18239069

$$$$

 OpenBabel03252501333D

 18 19  0  0  0  0  0  0  0  0999 V2000
   41.4060   32.3470   37.1260 C   0  0  0  0  0  0  0  0  0  0  0  0
   42.2080   31.2340   36.9570 C   0  0  0  0  0  0  0  0  0  0  0  0
   43.5720   31.4250   37.1430 C   0  0  0  0  0  0  0  0  0  0  0  0
   44.0030   32.6540   37.4670 N   0  0  0  0  0  0  0  0  0  0  0  0
   43.1990   33.7110   37.6230 C   0  0  0  0  0  0  0  0  0  0  0  0
   41.8650   33.5670   37.4500 N   0  0  0  0  0  0  0  0  0  0  0  0
   44.1850   30.5470   37.0080 H   0  0  0  0  0  0  0  0  0  0  0  0
   43.6860   34.6410   37.8850 H   0  0  0  0  0  0  0  0  0  0  0  0
   39.3620   31.9800   38.2160 C   0  0  0  0  0  0  0  0  0  0  0  0
   40.2490   31.7160   39.1060 O   0  0  0  0  0  0  0  0  0  0  0  0
   39.9620   32.3640   36.9770 N   0  0  0  0  0  0  0  0  0  0  0  0
   39.3800   32.6020   36.1440 H   0  0  0  0  0  0  0  0  0  0  0  0
   37.8850   31.9160   38.3870 C   0  0  0  0  0  3  0  0  0  0  0  0
   37.3030   31.6150   39.7170 C   0  0  0  0  0  2  0  0  0  0  0  0
   37.2080   32.9970   39.1950 C   0  0  0  0  0  2  0  0  0  0  0  0
   41.5610   30.0160   36.6150 N   0  0  0  0  0  0  0  0  0  0  0  0
   41.1680   29.2600   37.2020 H   0  0  0  0  0  0  0  0  0  0  0  0
   41.6430   30.1920   35.5690 H   0  0  0  0  0  0  0  0  0  0  0  0
  1  6  1  0  0  0  0
  2  1  2  0  0  0  0
  2  3  1  0  0  0  0
  3  4  2  0  0  0  0
  4  5  1  0  0  0  0
  5  8  1  0  0  0  0
  6  5  2  0  0  0  0
  7  3  1  0  0  0  0
  9 13  1  0  0  0  0
  9 10  2  0  0  0  0
 11  1  1  0  0  0  0
 11  9  1  0  0  0  0
 12 11  1  0  0  0  0
 13 15  1  0  0  0  0
 13 14  1  0  0  0  0
 15 14  1  0  0  0  0
 16  2  1  0  0  0  0
 16 17  1  0  0  0  0
 18 16  1  0  0  0  0
M  END
>  <minimizedAffinity>
-4.17025137

$$$$

 OpenBabel03252501333D

 18 19  0  0  0  0  0  0  0  0999 V2000
   38.4770   30.6480   40.4720 C   0  0  0  0  0  0  0  0  0  0  0  0
   37.9780   31.8960   40.1490 C   0  0  0  0  0  0  0  0  0  0  0  0
   38.8330   32.7370   39.4480 C   0  0  0  0  0  0  0  0  0  0  0  0
   40.0580   32.2850   39.1410 N   0  0  0  0  0  0  0  0  0  0  0  0
   40.5110   31.0710   39.4700 C   0  0  0  0  0  0  0  0  0  0  0  0
   39.7100   30.2210   40.1530 N   0  0  0  0  0  0  0  0  0  0  0  0
   38.4290   33.7080   39.2020 H   0  0  0  0  0  0  0  0  0  0  0  0
   41.5210   30.8410   39.1570 H   0  0  0  0  0  0  0  0  0  0  0  0
   38.1750   29.6320   42.5640 C   0  0  0  0  0  0  0  0  0  0  0  0
   39.0790   30.5200   42.7700 O   0  0  0  0  0  0  0  0  0  0  0  0
   37.7500   29.6230   41.2000 N   0  0  0  0  0  0  0  0  0  0  0  0
   37.0270   28.9510   40.8620 H   0  0  0  0  0  0  0  0  0  0  0  0
   37.6000   28.7010   43.5730 C   0  0  0  0  0  3  0  0  0  0  0  0
   36.8160   27.5210   43.1350 C   0  0  0  0  0  2  0  0  0  0  0  0
   38.1770   27.3100   43.6800 C   0  0  0  0  0  2  0  0  0  0  0  0
   36.6490   32.1880   40.5610 N   0  0  0  0  0  0  0  0  0  0  0  0
   35.7390   32.0440   40.0930 H   0  0  0  0  0  0  0  0  0  0  0  0
   36.9610   32.5920   41.4950 H   0  0  0  0  0  0  0  0  0  0  0  0
  1 11  1  0  0  0  0
  2  1  2  0  0  0  0
  2 16  1  0  0  0  0
  3  2  1  0  0  0  0
  4  3  2  0  0  0  0
  4  5  1  0  0  0  0
  5  6  2  0  0  0  0
  6  1  1  0  0  0  0
  7  3  1  0  0  0  0
  8  5  1  0  0  0  0
  9 10  2  0  0  0  0
  9 13  1  0  0  0  0
 11  9  1  0  0  0  0
 12 11  1  0  0  0  0
 13 15  1  0  0  0  0
 14 13  1  0  0  0  0
 14 15  1  0  0  0  0
 16 18  1  0  0  0  0
 17 16  1  0  0  0  0
M  END
>  <minimizedAffinity>
-4.12225246

$$$$

 OpenBabel03252501333D

 18 19  0  0  0  0  0  0  0  0999 V2000
   38.7270   32.6430   39.4040 C   0  0  0  0  0  0  0  0  0  0  0  0
   39.3550   33.6320   40.1370 C   0  0  0  0  0  0  0  0  0  0  0  0
   40.6190   34.0110   39.7020 C   0  0  0  0  0  0  0  0  0  0  0  0
   41.1290   33.4000   38.6210 N   0  0  0  0  0  0  0  0  0  0  0  0
   40.4940   32.4450   37.9340 C   0  0  0  0  0  0  0  0  0  0  0  0
   39.2610   32.0470   38.3250 N   0  0  0  0  0  0  0  0  0  0  0  0
   41.0970   34.7850   40.2840 H   0  0  0  0  0  0  0  0  0  0  0  0
   41.0270   32.0410   37.0830 H   0  0  0  0  0  0  0  0  0  0  0  0
   37.5240   31.1130   40.7120 C   0  0  0  0  0  0  0  0  0  0  0  0
   38.7430   30.9610   41.0860 O   0  0  0  0  0  0  0  0  0  0  0  0
   37.4090   32.1030   39.6890 N   0  0  0  0  0  0  0  0  0  0  0  0
   36.4860   32.3420   39.2650 H   0  0  0  0  0  0  0  0  0  0  0  0
   36.3370   30.3850   41.2370 C   0  0  0  0  0  3  0  0  0  0  0  0
   35.3720   29.7620   40.3000 C   0  0  0  0  0  2  0  0  0  0  0  0
   36.2830   28.8850   41.0710 C   0  0  0  0  0  2  0  0  0  0  0  0
   38.6480   34.1590   41.2520 N   0  0  0  0  0  0  0  0  0  0  0  0
   37.9870   34.9500   41.3320 H   0  0  0  0  0  0  0  0  0  0  0  0
   39.0560   33.4460   41.9270 H   0  0  0  0  0  0  0  0  0  0  0  0
  1 11  1  0  0  0  0
  1  2  1  0  0  0  0
  2 16  1  0  0  0  0
  3  2  2  0  0  0  0
  3  7  1  0  0  0  0
  4  3  1  0  0  0  0
  5  6  1  0  0  0  0
  5  4  2  0  0  0  0
  6  1  2  0  0  0  0
  8  5  1  0  0  0  0
  9 10  2  0  0  0  0
  9 13  1  0  0  0  0
 11  9  1  0  0  0  0
 12 11  1  0  0  0  0
 14 15  1  0  0  0  0
 14 13  1  0  0  0  0
 15 13  1  0  0  0  0
 16 17  1  0  0  0  0
 16 18  1  0  0  0  0
M  END
>  <minimizedAffinity>
-3.99682975

$$$$

 OpenBabel03252501333D

 18 19  0  0  0  0  0  0  0  0999 V2000
   36.8590   29.1850   41.8280 C   0  0  0  0  0  0  0  0  0  0  0  0
   38.0390   29.8840   42.0060 C   0  0  0  0  0  0  0  0  0  0  0  0
   38.2020   31.0230   41.2270 C   0  0  0  0  0  0  0  0  0  0  0  0
   37.2200   31.3570   40.3760 N   0  0  0  0  0  0  0  0  0  0  0  0
   36.0900   30.6580   40.2280 C   0  0  0  0  0  0  0  0  0  0  0  0
   35.8920   29.5420   40.9670 N   0  0  0  0  0  0  0  0  0  0  0  0
   39.1280   31.5580   41.3780 H   0  0  0  0  0  0  0  0  0  0  0  0
   35.3860   31.0450   39.5030 H   0  0  0  0  0  0  0  0  0  0  0  0
   37.0620   26.8490   41.8620 C   0  0  0  0  0  0  0  0  0  0  0  0
   37.7190   27.2100   40.8200 O   0  0  0  0  0  0  0  0  0  0  0  0
   36.4940   27.9720   42.5380 N   0  0  0  0  0  0  0  0  0  0  0  0
   35.9190   27.8530   43.4000 H   0  0  0  0  0  0  0  0  0  0  0  0
   36.8780   25.4580   42.3580 C   0  0  0  0  0  3  0  0  0  0  0  0
   36.7970   24.3300   41.3990 C   0  0  0  0  0  2  0  0  0  0  0  0
   38.0250   24.4860   42.2130 C   0  0  0  0  0  2  0  0  0  0  0  0
   38.9570   29.3700   42.9610 N   0  0  0  0  0  0  0  0  0  0  0  0
   39.0620   29.5460   43.9740 H   0  0  0  0  0  0  0  0  0  0  0  0
   39.4620   28.7660   42.2450 H   0  0  0  0  0  0  0  0  0  0  0  0
  1  2  1  0  0  0  0
  1 11  1  0  0  0  0
  2 16  1  0  0  0  0
  3  7  1  0  0  0  0
  3  2  2  0  0  0  0
  4  3  1  0  0  0  0
  5  4  2  0  0  0  0
  5  6  1  0  0  0  0
  6  1  2  0  0  0  0
  8  5  1  0  0  0  0
  9 13  1  0  0  0  0
  9 11  1  0  0  0  0
 10  9  2  0  0  0  0
 11 12  1  0  0  0  0
 14 15  1  0  0  0  0
 14 13  1  0  0  0  0
 15 13  1  0  0  0  0
 16 17  1  0  0  0  0
 18 16  1  0  0  0  0
M  END
>  <minimizedAffinity>
-3.91985226

$$$$

 OpenBabel03252501333D

 18 19  0  0  0  0  0  0  0  0999 V2000
   38.2640   30.8700   41.4340 C   0  0  0  0  0  0  0  0  0  0  0  0
   39.4240   31.5980   41.6200 C   0  0  0  0  0  0  0  0  0  0  0  0
   39.8080   32.4220   40.5690 C   0  0  0  0  0  0  0  0  0  0  0  0
   39.0400   32.4490   39.4700 N   0  0  0  0  0  0  0  0  0  0  0  0
   37.9210   31.7310   39.3210 C   0  0  0  0  0  0  0  0  0  0  0  0
   37.5120   30.9170   40.3220 N   0  0  0  0  0  0  0  0  0  0  0  0
   40.7160   32.9840   40.7290 H   0  0  0  0  0  0  0  0  0  0  0  0
   37.4020   31.8530   38.3800 H   0  0  0  0  0  0  0  0  0  0  0  0
   38.3070   28.6730   42.2540 C   0  0  0  0  0  0  0  0  0  0  0  0
   39.1760   28.6770   41.3090 O   0  0  0  0  0  0  0  0  0  0  0  0
   37.6910   29.9540   42.4040 N   0  0  0  0  0  0  0  0  0  0  0  0
   36.9520   30.1200   43.1220 H   0  0  0  0  0  0  0  0  0  0  0  0
   37.9420   27.5200   43.1200 C   0  0  0  0  0  3  0  0  0  0  0  0
   36.5730   27.4120   43.6800 C   0  0  0  0  0  2  0  0  0  0  0  0
   36.9680   26.4980   42.5840 C   0  0  0  0  0  2  0  0  0  0  0  0
   40.0990   31.4340   42.8600 N   0  0  0  0  0  0  0  0  0  0  0  0
   40.0090   31.9330   43.7610 H   0  0  0  0  0  0  0  0  0  0  0  0
   40.6990   30.6330   42.4990 H   0  0  0  0  0  0  0  0  0  0  0  0
  1  2  1  0  0  0  0
  1 11  1  0  0  0  0
  2 16  1  0  0  0  0
  3  7  1  0  0  0  0
  3  2  2  0  0  0  0
  4  3  1  0  0  0  0
  5  4  2  0  0  0  0
  5  6  1  0  0  0  0
  6  1  2  0  0  0  0
  8  5  1  0  0  0  0
  9 11  1  0  0  0  0
  9 13  1  0  0  0  0
 10  9  2  0  0  0  0
 11 12  1  0  0  0  0
 13 14  1  0  0  0  0
 15 13  1  0  0  0  0
 15 14  1  0  0  0  0
 16 17  1  0  0  0  0
 18 16  1  0  0  0  0
M  END
>  <minimizedAffinity>
-3.87326932

$$$$
