
 OpenBabel03242520473D

 22 23  0  0  0  0  0  0  0  0999 V2000
   37.5030   31.0860   37.1660 C   0  0  0  0  0  0  0  0  0  0  0  0
   37.2880   31.0710   38.5650 C   0  0  0  0  0  0  0  0  0  0  0  0
   36.4270   30.0890   39.0620 C   0  0  0  0  0  0  0  0  0  0  0  0
   35.8490   29.2130   38.2070 N   0  0  0  0  0  0  0  0  0  0  0  0
   36.0990   29.2790   36.8650 C   0  0  0  0  0  0  0  0  0  0  0  0
   36.9100   30.2050   36.3900 N   0  0  0  0  0  0  0  0  0  0  0  0
   38.3870   32.0860   36.6550 N   0  0  0  0  0  0  0  0  0  0  0  0
   37.7790   31.7990   39.1990 H   0  0  0  0  0  0  0  0  0  0  0  0
   35.6200   28.5620   36.2080 H   0  0  0  0  0  0  0  0  0  0  0  0
   37.9330   33.0250   36.4860 H   0  0  0  0  0  0  0  0  0  0  0  0
   39.4140   31.8950   36.4650 H   0  0  0  0  0  0  0  0  0  0  0  0
   36.2250   30.0950   40.4950 C   0  0  0  0  0  0  0  0  0  0  0  0
   36.0880   31.1010   41.2090 O   0  0  0  0  0  0  0  0  0  0  0  0
   36.1980   28.7870   41.0040 O   0  0  0  0  0  0  0  0  0  0  0  0
   38.7250   28.3720   41.8280 O   0  0  0  0  0  0  0  0  0  0  0  0
   37.2830   28.2110   42.1930 P   0  0  1  0  0  0  0  0  0  0  0  0
   37.0030   29.1740   43.5830 O   0  0  0  0  0  0  0  0  0  0  0  0
   36.7070   30.0820   43.3190 H   0  0  0  0  0  0  0  0  0  0  0  0
   36.9000   26.6210   42.5450 O   0  0  0  0  0  0  0  0  0  0  0  0
   37.5180   25.6880   41.7340 C   0  0  0  0  0  3  0  0  0  0  0  0
   36.7670   24.3700   41.6360 C   0  0  0  0  0  2  0  0  0  0  0  0
   38.1040   24.4450   42.2710 C   0  0  0  0  0  2  0  0  0  0  0  0
  1  2  1  0  0  0  0
  2  3  2  0  0  0  0
  2  8  1  0  0  0  0
  3 12  1  0  0  0  0
  4  3  1  0  0  0  0
  5  4  2  0  0  0  0
  6  5  1  0  0  0  0
  6  1  2  0  0  0  0
  7  1  1  0  0  0  0
  9  5  1  0  0  0  0
 10  7  1  0  0  0  0
 11  7  1  0  0  0  0
 12 14  1  0  0  0  0
 12 13  2  0  0  0  0
 14 16  1  0  0  0  0
 16 15  2  6  0  0  0
 16 19  1  0  0  0  0
 16 17  1  0  0  0  0
 18 17  1  0  0  0  0
 20 22  1  0  0  0  0
 20 19  1  0  0  0  0
 21 20  1  0  0  0  0
 21 22  1  0  0  0  0
M  END
>  <minimizedAffinity>
-4.80826044

$$$$

 OpenBabel03242520473D

 22 23  0  0  0  0  0  0  0  0999 V2000
   39.4730   32.1060   38.4330 C   0  0  0  0  0  0  0  0  0  0  0  0
   38.4090   31.3490   38.9780 C   0  0  0  0  0  0  0  0  0  0  0  0
   38.3930   31.1870   40.3660 C   0  0  0  0  0  0  0  0  0  0  0  0
   39.3720   31.7470   41.1150 N   0  0  0  0  0  0  0  0  0  0  0  0
   40.3730   32.4690   40.5270 C   0  0  0  0  0  0  0  0  0  0  0  0
   40.3930   32.6240   39.2170 N   0  0  0  0  0  0  0  0  0  0  0  0
   39.4890   32.2770   37.0140 N   0  0  0  0  0  0  0  0  0  0  0  0
   37.6530   30.9240   38.3270 H   0  0  0  0  0  0  0  0  0  0  0  0
   41.1420   32.9040   41.1550 H   0  0  0  0  0  0  0  0  0  0  0  0
   39.9290   31.4770   36.4830 H   0  0  0  0  0  0  0  0  0  0  0  0
   39.0890   33.1390   36.5400 H   0  0  0  0  0  0  0  0  0  0  0  0
   37.2930   30.4100   40.8970 C   0  0  0  0  0  0  0  0  0  0  0  0
   36.1680   30.8410   41.1890 O   0  0  0  0  0  0  0  0  0  0  0  0
   37.6600   29.0620   41.0490 O   0  0  0  0  0  0  0  0  0  0  0  0
   39.1650   28.0840   43.0520 O   0  0  0  0  0  0  0  0  0  0  0  0
   37.7640   28.2740   42.5620 P   0  0  1  0  0  0  0  0  0  0  0  0
   36.9730   29.3070   43.6790 O   0  0  0  0  0  0  0  0  0  0  0  0
   37.0680   30.2530   43.4000 H   0  0  0  0  0  0  0  0  0  0  0  0
   36.9280   26.8270   42.4730 O   0  0  0  0  0  0  0  0  0  0  0  0
   37.5440   25.8550   41.7070 C   0  0  0  0  0  3  0  0  0  0  0  0
   36.8660   24.4970   41.7810 C   0  0  0  0  0  2  0  0  0  0  0  0
   38.2340   24.7000   42.3110 C   0  0  0  0  0  2  0  0  0  0  0  0
  1  2  2  0  0  0  0
  1  6  1  0  0  0  0
  2  3  1  0  0  0  0
  3 12  1  0  0  0  0
  3  4  2  0  0  0  0
  5  4  1  0  0  0  0
  5  9  1  0  0  0  0
  6  5  2  0  0  0  0
  7  1  1  0  0  0  0
  8  2  1  0  0  0  0
 10  7  1  0  0  0  0
 11  7  1  0  0  0  0
 12 14  1  0  0  0  0
 12 13  2  0  0  0  0
 14 16  1  0  0  0  0
 16 15  2  1  0  0  0
 16 17  1  0  0  0  0
 18 17  1  0  0  0  0
 19 16  1  0  0  0  0
 20 21  1  0  0  0  0
 20 22  1  0  0  0  0
 20 19  1  0  0  0  0
 21 22  1  0  0  0  0
M  END
>  <minimizedAffinity>
-4.76952839

$$$$

 OpenBabel03242520473D

 22 23  0  0  0  0  0  0  0  0999 V2000
   38.3190   24.7980   42.3350 C   0  0  0  0  0  0  0  0  0  0  0  0
   37.6610   26.0330   42.1230 C   0  0  0  0  0  0  0  0  0  0  0  0
   38.2120   27.1580   42.7420 C   0  0  0  0  0  0  0  0  0  0  0  0
   39.3250   27.0250   43.5010 N   0  0  0  0  0  0  0  0  0  0  0  0
   39.9150   25.8030   43.6650 C   0  0  0  0  0  0  0  0  0  0  0  0
   39.3990   24.7370   43.0830 N   0  0  0  0  0  0  0  0  0  0  0  0
   37.7600   23.6470   41.6980 N   0  0  0  0  0  0  0  0  0  0  0  0
   36.7720   26.0780   41.5050 H   0  0  0  0  0  0  0  0  0  0  0  0
   40.8060   25.7300   44.2790 H   0  0  0  0  0  0  0  0  0  0  0  0
   36.9690   23.1940   42.2320 H   0  0  0  0  0  0  0  0  0  0  0  0
   38.1150   23.2840   40.7660 H   0  0  0  0  0  0  0  0  0  0  0  0
   37.5210   28.4080   42.5090 C   0  0  0  0  0  0  0  0  0  0  0  0
   37.8270   29.5120   42.9850 O   0  0  0  0  0  0  0  0  0  0  0  0
   36.4250   28.2230   41.6510 O   0  0  0  0  0  0  0  0  0  0  0  0
   34.5590   29.0790   39.9130 O   0  0  0  0  0  0  0  0  0  0  0  0
   35.8700   29.4090   40.5530 P   0  0  1  0  0  0  0  0  0  0  0  0
   35.6350   30.8300   41.4840 O   0  0  0  0  0  0  0  0  0  0  0  0
   35.3820   30.5950   42.4120 H   0  0  0  0  0  0  0  0  0  0  0  0
   37.0680   29.6930   39.4190 O   0  0  0  0  0  0  0  0  0  0  0  0
   36.7850   29.2140   38.1540 C   0  0  0  0  0  3  0  0  0  0  0  0
   37.9930   29.1720   37.2320 C   0  0  0  0  0  2  0  0  0  0  0  0
   36.8490   30.0730   36.9560 C   0  0  0  0  0  2  0  0  0  0  0  0
  1  6  1  0  0  0  0
  2  1  2  0  0  0  0
  2  3  1  0  0  0  0
  3  4  2  0  0  0  0
  4  5  1  0  0  0  0
  5  9  1  0  0  0  0
  6  5  2  0  0  0  0
  7 10  1  0  0  0  0
  7  1  1  0  0  0  0
  8  2  1  0  0  0  0
 11  7  1  0  0  0  0
 12  3  1  0  0  0  0
 12 13  2  0  0  0  0
 14 12  1  0  0  0  0
 16 15  2  6  0  0  0
 16 17  1  0  0  0  0
 16 14  1  0  0  0  0
 17 18  1  0  0  0  0
 19 16  1  0  0  0  0
 20 19  1  0  0  0  0
 21 20  1  0  0  0  0
 22 21  1  0  0  0  0
 22 20  1  0  0  0  0
M  END
>  <minimizedAffinity>
-4.72038364

$$$$

 OpenBabel03242520473D

 22 23  0  0  0  0  0  0  0  0999 V2000
   36.1460   28.9600   35.5020 C   0  0  0  0  0  0  0  0  0  0  0  0
   36.2910   29.0840   36.9050 C   0  0  0  0  0  0  0  0  0  0  0  0
   35.1160   29.1620   37.6580 C   0  0  0  0  0  0  0  0  0  0  0  0
   33.9170   29.1170   37.0310 N   0  0  0  0  0  0  0  0  0  0  0  0
   33.8450   28.9950   35.6710 C   0  0  0  0  0  0  0  0  0  0  0  0
   34.9510   28.9210   34.9560 N   0  0  0  0  0  0  0  0  0  0  0  0
   37.3460   28.8750   34.7310 N   0  0  0  0  0  0  0  0  0  0  0  0
   37.2780   29.1160   37.3500 H   0  0  0  0  0  0  0  0  0  0  0  0
   32.8690   28.9600   35.2000 H   0  0  0  0  0  0  0  0  0  0  0  0
   37.7810   29.8090   34.4950 H   0  0  0  0  0  0  0  0  0  0  0  0
   37.7610   27.9470   34.4250 H   0  0  0  0  0  0  0  0  0  0  0  0
   35.2920   29.2880   39.0890 C   0  0  0  0  0  0  0  0  0  0  0  0
   34.4130   29.1240   39.9500 O   0  0  0  0  0  0  0  0  0  0  0  0
   36.6170   29.6280   39.4030 O   0  0  0  0  0  0  0  0  0  0  0  0
   37.7750   31.8630   40.3510 O   0  0  0  0  0  0  0  0  0  0  0  0
   37.0530   30.6090   40.7330 P   0  0  1  0  0  0  0  0  0  0  0  0
   35.5770   31.0790   41.4680 O   0  0  0  0  0  0  0  0  0  0  0  0
   34.8580   31.1390   40.7880 H   0  0  0  0  0  0  0  0  0  0  0  0
   37.9310   29.6860   41.8180 O   0  0  0  0  0  0  0  0  0  0  0  0
   37.1620   28.9240   42.6770 C   0  0  0  0  0  3  0  0  0  0  0  0
   37.9430   27.8370   43.3970 C   0  0  0  0  0  2  0  0  0  0  0  0
   36.8780   27.4990   42.4230 C   0  0  0  0  0  2  0  0  0  0  0  0
  1  2  1  0  0  0  0
  2  8  1  0  0  0  0
  2  3  2  0  0  0  0
  3 12  1  0  0  0  0
  4  3  1  0  0  0  0
  5  4  2  0  0  0  0
  6  1  2  0  0  0  0
  6  5  1  0  0  0  0
  7  1  1  0  0  0  0
  9  5  1  0  0  0  0
 10  7  1  0  0  0  0
 11  7  1  0  0  0  0
 12 14  1  0  0  0  0
 12 13  2  0  0  0  0
 14 16  1  0  0  0  0
 16 15  2  6  0  0  0
 16 17  1  0  0  0  0
 16 19  1  0  0  0  0
 18 17  1  0  0  0  0
 19 20  1  0  0  0  0
 20 21  1  0  0  0  0
 22 20  1  0  0  0  0
 22 21  1  0  0  0  0
M  END
>  <minimizedAffinity>
-4.62135363

$$$$

 OpenBabel03242520473D

 22 23  0  0  0  0  0  0  0  0999 V2000
   37.5790   31.9110   38.0270 C   0  0  0  0  0  0  0  0  0  0  0  0
   36.9080   30.7260   38.4130 C   0  0  0  0  0  0  0  0  0  0  0  0
   36.5210   30.6250   39.7520 C   0  0  0  0  0  0  0  0  0  0  0  0
   36.7980   31.6400   40.6050 N   0  0  0  0  0  0  0  0  0  0  0  0
   37.4490   32.7600   40.1700 C   0  0  0  0  0  0  0  0  0  0  0  0
   37.8170   32.8600   38.9060 N   0  0  0  0  0  0  0  0  0  0  0  0
   37.9710   32.0180   36.6570 N   0  0  0  0  0  0  0  0  0  0  0  0
   36.7140   29.9480   37.6850 H   0  0  0  0  0  0  0  0  0  0  0  0
   37.6550   33.5540   40.8780 H   0  0  0  0  0  0  0  0  0  0  0  0
   38.8910   31.5510   36.4280 H   0  0  0  0  0  0  0  0  0  0  0  0
   37.3810   32.5270   35.9350 H   0  0  0  0  0  0  0  0  0  0  0  0
   35.8360   29.4050   40.1200 C   0  0  0  0  0  0  0  0  0  0  0  0
   34.6070   29.2440   40.1700 O   0  0  0  0  0  0  0  0  0  0  0  0
   36.7540   28.3870   40.4240 O   0  0  0  0  0  0  0  0  0  0  0  0
   39.0280   28.6570   41.8350 O   0  0  0  0  0  0  0  0  0  0  0  0
   37.5840   28.2750   41.9140 P   0  0  1  0  0  0  0  0  0  0  0  0
   36.8190   29.4000   42.9580 O   0  0  0  0  0  0  0  0  0  0  0  0
   36.4610   30.1630   42.4380 H   0  0  0  0  0  0  0  0  0  0  0  0
   37.3760   26.7330   42.5310 O   0  0  0  0  0  0  0  0  0  0  0  0
   37.2420   25.7450   41.5730 C   0  0  0  0  0  3  0  0  0  0  0  0
   36.8970   24.3800   42.1460 C   0  0  0  0  0  2  0  0  0  0  0  0
   38.1910   24.6210   41.4650 C   0  0  0  0  0  2  0  0  0  0  0  0
  1  2  2  0  0  0  0
  1  6  1  0  0  0  0
  2  3  1  0  0  0  0
  3 12  1  0  0  0  0
  3  4  2  0  0  0  0
  5  4  1  0  0  0  0
  5  9  1  0  0  0  0
  6  5  2  0  0  0  0
  7  1  1  0  0  0  0
  8  2  1  0  0  0  0
 10  7  1  0  0  0  0
 11  7  1  0  0  0  0
 12 13  2  0  0  0  0
 12 14  1  0  0  0  0
 14 16  1  0  0  0  0
 16 15  2  6  0  0  0
 16 19  1  0  0  0  0
 16 17  1  0  0  0  0
 18 17  1  0  0  0  0
 20 21  1  0  0  0  0
 20 19  1  0  0  0  0
 22 20  1  0  0  0  0
 22 21  1  0  0  0  0
M  END
>  <minimizedAffinity>
-4.60720062

$$$$

 OpenBabel03242520473D

 22 23  0  0  0  0  0  0  0  0999 V2000
   42.0670   32.6200   37.0680 C   0  0  0  0  0  0  0  0  0  0  0  0
   40.8320   32.2470   37.6500 C   0  0  0  0  0  0  0  0  0  0  0  0
   40.6090   30.8800   37.8410 C   0  0  0  0  0  0  0  0  0  0  0  0
   41.5610   29.9910   37.4710 N   0  0  0  0  0  0  0  0  0  0  0  0
   42.7350   30.4160   36.9150 C   0  0  0  0  0  0  0  0  0  0  0  0
   42.9500   31.7050   36.7320 N   0  0  0  0  0  0  0  0  0  0  0  0
   42.2990   34.0170   36.8770 N   0  0  0  0  0  0  0  0  0  0  0  0
   40.1080   33.0050   37.9250 H   0  0  0  0  0  0  0  0  0  0  0  0
   43.4770   29.6790   36.6310 H   0  0  0  0  0  0  0  0  0  0  0  0
   41.8840   34.4110   35.9880 H   0  0  0  0  0  0  0  0  0  0  0  0
   42.8420   34.6050   37.5750 H   0  0  0  0  0  0  0  0  0  0  0  0
   39.3390   30.5260   38.4380 C   0  0  0  0  0  0  0  0  0  0  0  0
   38.9240   29.3750   38.6420 O   0  0  0  0  0  0  0  0  0  0  0  0
   38.6040   31.6750   38.7720 O   0  0  0  0  0  0  0  0  0  0  0  0
   39.2240   32.7090   41.1760 O   0  0  0  0  0  0  0  0  0  0  0  0
   38.1400   32.0690   40.3690 P   0  0  1  0  0  0  0  0  0  0  0  0
   36.8780   33.2200   40.2150 O   0  0  0  0  0  0  0  0  0  0  0  0
   37.0020   33.7590   39.3930 H   0  0  0  0  0  0  0  0  0  0  0  0
   37.5350   30.6950   41.1080 O   0  0  0  0  0  0  0  0  0  0  0  0
   36.1800   30.4940   40.9260 C   0  0  0  0  0  3  0  0  0  0  0  0
   35.7780   29.0280   40.8910 C   0  0  0  0  0  2  0  0  0  0  0  0
   35.6340   29.8910   39.6950 C   0  0  0  0  0  2  0  0  0  0  0  0
  1  2  1  0  0  0  0
  2  3  2  0  0  0  0
  2  8  1  0  0  0  0
  3 12  1  0  0  0  0
  4  3  1  0  0  0  0
  5  4  2  0  0  0  0
  6  5  1  0  0  0  0
  6  1  2  0  0  0  0
  7  1  1  0  0  0  0
  7 11  1  0  0  0  0
  9  5  1  0  0  0  0
 10  7  1  0  0  0  0
 12 13  2  0  0  0  0
 12 14  1  0  0  0  0
 14 16  1  0  0  0  0
 16 19  1  0  0  0  0
 16 15  2  1  0  0  0
 17 16  1  0  0  0  0
 18 17  1  0  0  0  0
 20 19  1  0  0  0  0
 21 20  1  0  0  0  0
 22 21  1  0  0  0  0
 22 20  1  0  0  0  0
M  END
>  <minimizedAffinity>
-4.57798052

$$$$

 OpenBabel03242520473D

 22 23  0  0  0  0  0  0  0  0999 V2000
   38.6810   25.2450   42.5270 C   0  0  0  0  0  0  0  0  0  0  0  0
   37.7940   26.1610   41.9130 C   0  0  0  0  0  0  0  0  0  0  0  0
   37.9470   27.5100   42.2450 C   0  0  0  0  0  0  0  0  0  0  0  0
   38.9150   27.8770   43.1180 N   0  0  0  0  0  0  0  0  0  0  0  0
   39.7410   26.9430   43.6760 C   0  0  0  0  0  0  0  0  0  0  0  0
   39.6010   25.6680   43.3670 N   0  0  0  0  0  0  0  0  0  0  0  0
   38.5300   23.8660   42.1850 N   0  0  0  0  0  0  0  0  0  0  0  0
   37.0380   25.8080   41.2220 H   0  0  0  0  0  0  0  0  0  0  0  0
   40.5060   27.2700   44.3720 H   0  0  0  0  0  0  0  0  0  0  0  0
   37.7900   23.3570   42.7430 H   0  0  0  0  0  0  0  0  0  0  0  0
   39.1140   23.3980   41.4320 H   0  0  0  0  0  0  0  0  0  0  0  0
   37.0280   28.4260   41.6030 C   0  0  0  0  0  0  0  0  0  0  0  0
   35.7930   28.3150   41.5680 O   0  0  0  0  0  0  0  0  0  0  0  0
   37.7180   29.4920   41.0050 O   0  0  0  0  0  0  0  0  0  0  0  0
   36.4750   30.7810   38.9980 O   0  0  0  0  0  0  0  0  0  0  0  0
   36.9530   30.9000   40.4100 P   0  0  1  0  0  0  0  0  0  0  0  0
   35.5690   31.1280   41.3960 O   0  0  0  0  0  0  0  0  0  0  0  0
   35.2270   30.2550   41.7160 H   0  0  0  0  0  0  0  0  0  0  0  0
   37.9870   32.2000   40.6150 O   0  0  0  0  0  0  0  0  0  0  0  0
   39.2810   31.8560   40.9600 C   0  0  0  0  0  3  0  0  0  0  0  0
   40.3040   32.9370   40.6540 C   0  0  0  0  0  2  0  0  0  0  0  0
   40.3310   31.6340   39.9490 C   0  0  0  0  0  2  0  0  0  0  0  0
  1  6  1  0  0  0  0
  2  3  1  0  0  0  0
  2  1  2  0  0  0  0
  3  4  2  0  0  0  0
  4  5  1  0  0  0  0
  5  9  1  0  0  0  0
  6  5  2  0  0  0  0
  7  1  1  0  0  0  0
  7 10  1  0  0  0  0
  8  2  1  0  0  0  0
 11  7  1  0  0  0  0
 12  3  1  0  0  0  0
 13 12  2  0  0  0  0
 14 12  1  0  0  0  0
 16 15  2  6  0  0  0
 16 19  1  0  0  0  0
 16 14  1  0  0  0  0
 16 17  1  0  0  0  0
 17 18  1  0  0  0  0
 19 20  1  0  0  0  0
 21 20  1  0  0  0  0
 22 21  1  0  0  0  0
 22 20  1  0  0  0  0
M  END
>  <minimizedAffinity>
-4.56021404

$$$$

 OpenBabel03242520473D

 22 23  0  0  0  0  0  0  0  0999 V2000
   42.2310   33.9130   38.2450 C   0  0  0  0  0  0  0  0  0  0  0  0
   40.8890   33.7450   38.6640 C   0  0  0  0  0  0  0  0  0  0  0  0
   40.6740   33.5290   40.0270 C   0  0  0  0  0  0  0  0  0  0  0  0
   41.7310   33.4900   40.8720 N   0  0  0  0  0  0  0  0  0  0  0  0
   43.0040   33.6610   40.4050 C   0  0  0  0  0  0  0  0  0  0  0  0
   43.2130   33.8650   39.1180 N   0  0  0  0  0  0  0  0  0  0  0  0
   42.4530   34.1400   36.8520 N   0  0  0  0  0  0  0  0  0  0  0  0
   40.0840   33.7860   37.9400 H   0  0  0  0  0  0  0  0  0  0  0  0
   43.8290   33.6250   41.1080 H   0  0  0  0  0  0  0  0  0  0  0  0
   42.4940   33.2600   36.2680 H   0  0  0  0  0  0  0  0  0  0  0  0
   42.5650   35.1140   36.4440 H   0  0  0  0  0  0  0  0  0  0  0  0
   39.2940   33.3610   40.4290 C   0  0  0  0  0  0  0  0  0  0  0  0
   38.3670   34.1570   40.2110 O   0  0  0  0  0  0  0  0  0  0  0  0
   39.1160   32.1500   41.1180 O   0  0  0  0  0  0  0  0  0  0  0  0
   37.6470   30.0310   41.8830 O   0  0  0  0  0  0  0  0  0  0  0  0
   37.8170   31.0770   40.8270 P   0  0  1  0  0  0  0  0  0  0  0  0
   36.4020   32.0460   40.8430 O   0  0  0  0  0  0  0  0  0  0  0  0
   36.5200   32.8170   41.4530 H   0  0  0  0  0  0  0  0  0  0  0  0
   38.0030   30.4090   39.3050 O   0  0  0  0  0  0  0  0  0  0  0  0
   37.1740   30.9460   38.3370 C   0  0  0  0  0  3  0  0  0  0  0  0
   36.5590   29.9070   37.4140 C   0  0  0  0  0  2  0  0  0  0  0  0
   37.5170   30.9150   36.9030 C   0  0  0  0  0  2  0  0  0  0  0  0
  1  2  2  0  0  0  0
  1  6  1  0  0  0  0
  2  3  1  0  0  0  0
  3 12  1  0  0  0  0
  3  4  2  0  0  0  0
  5  4  1  0  0  0  0
  5  9  1  0  0  0  0
  6  5  2  0  0  0  0
  7  1  1  0  0  0  0
  8  2  1  0  0  0  0
 10  7  1  0  0  0  0
 11  7  1  0  0  0  0
 12 14  1  0  0  0  0
 13 12  2  0  0  0  0
 16 17  1  0  0  0  0
 16 14  1  0  0  0  0
 16 15  2  1  0  0  0
 17 18  1  0  0  0  0
 19 16  1  0  0  0  0
 20 19  1  0  0  0  0
 21 20  1  0  0  0  0
 22 21  1  0  0  0  0
 22 20  1  0  0  0  0
M  END
>  <minimizedAffinity>
-4.55190706

$$$$

 OpenBabel03242520473D

 22 23  0  0  0  0  0  0  0  0999 V2000
   40.0580   32.4070   38.3270 C   0  0  0  0  0  0  0  0  0  0  0  0
   39.4810   31.5860   39.3250 C   0  0  0  0  0  0  0  0  0  0  0  0
   39.9110   31.7900   40.6390 C   0  0  0  0  0  0  0  0  0  0  0  0
   40.8380   32.7420   40.8980 N   0  0  0  0  0  0  0  0  0  0  0  0
   41.3570   33.5040   39.8890 C   0  0  0  0  0  0  0  0  0  0  0  0
   40.9550   33.3150   38.6460 N   0  0  0  0  0  0  0  0  0  0  0  0
   39.6170   32.2030   36.9830 N   0  0  0  0  0  0  0  0  0  0  0  0
   38.7430   30.8390   39.0570 H   0  0  0  0  0  0  0  0  0  0  0  0
   42.0970   34.2580   40.1300 H   0  0  0  0  0  0  0  0  0  0  0  0
   40.1140   31.4220   36.4740 H   0  0  0  0  0  0  0  0  0  0  0  0
   38.8520   32.7920   36.5400 H   0  0  0  0  0  0  0  0  0  0  0  0
   39.3050   30.9380   41.6400 C   0  0  0  0  0  0  0  0  0  0  0  0
   39.6320   30.8670   42.8340 O   0  0  0  0  0  0  0  0  0  0  0  0
   38.2670   30.1720   41.0850 O   0  0  0  0  0  0  0  0  0  0  0  0
   38.4210   27.6430   41.9870 O   0  0  0  0  0  0  0  0  0  0  0  0
   37.5380   28.8460   41.8800 P   0  0  1  0  0  0  0  0  0  0  0  0
   37.2170   29.3820   43.4770 O   0  0  0  0  0  0  0  0  0  0  0  0
   37.8890   30.0530   43.7570 H   0  0  0  0  0  0  0  0  0  0  0  0
   36.0890   28.4950   41.1220 O   0  0  0  0  0  0  0  0  0  0  0  0
   35.5890   29.5180   40.3370 C   0  0  0  0  0  3  0  0  0  0  0  0
   34.3380   29.1380   39.5610 C   0  0  0  0  0  2  0  0  0  0  0  0
   35.6060   29.4570   38.8640 C   0  0  0  0  0  2  0  0  0  0  0  0
  1  6  2  0  0  0  0
  1  2  1  0  0  0  0
  2  3  2  0  0  0  0
  3  4  1  0  0  0  0
  3 12  1  0  0  0  0
  5  9  1  0  0  0  0
  5  4  2  0  0  0  0
  6  5  1  0  0  0  0
  7  1  1  0  0  0  0
  8  2  1  0  0  0  0
 10  7  1  0  0  0  0
 11  7  1  0  0  0  0
 12 13  2  0  0  0  0
 14 12  1  0  0  0  0
 14 16  1  0  0  0  0
 16 15  2  1  0  0  0
 16 17  1  0  0  0  0
 17 18  1  0  0  0  0
 19 16  1  0  0  0  0
 20 19  1  0  0  0  0
 21 20  1  0  0  0  0
 22 21  1  0  0  0  0
 22 20  1  0  0  0  0
M  END
>  <minimizedAffinity>
-4.50807381

$$$$
