
 OpenBabel03252507163D

 23 25  0  0  0  0  0  0  0  0999 V2000
   45.3540   36.1840   43.1500 C   0  0  0  0  0  0  0  0  0  0  0  0
   45.9710   34.9270   42.9320 C   0  0  0  0  0  0  0  0  0  0  0  0
   45.8680   33.9850   43.9290 C   0  0  0  0  0  0  0  0  0  0  0  0
   45.1990   34.2750   45.0610 N   0  0  0  0  0  0  0  0  0  0  0  0
   44.6100   35.4950   45.2560 C   0  0  0  0  0  0  0  0  0  0  0  0
   44.7060   36.4120   44.2930 N   0  0  0  0  0  0  0  0  0  0  0  0
   45.4050   36.9670   42.3940 H   0  0  0  0  0  0  0  0  0  0  0  0
   44.1090   35.5720   46.2210 H   0  0  0  0  0  0  0  0  0  0  0  0
   46.4970   32.6870   43.7170 C   0  0  0  0  0  0  0  0  0  0  0  0
   45.7180   31.5610   43.5340 C   0  0  0  0  0  0  0  0  0  0  0  0
   46.3410   30.3520   43.3370 C   0  0  0  0  0  0  0  0  0  0  0  0
   47.7300   30.2010   43.3130 C   0  0  0  0  0  0  0  0  0  0  0  0
   48.4530   31.3580   43.5020 C   0  0  0  0  0  0  0  0  0  0  0  0
   47.8360   32.5440   43.6960 N   0  0  0  0  0  0  0  0  0  0  0  0
   44.6400   31.6340   43.5450 H   0  0  0  0  0  0  0  0  0  0  0  0
   45.7260   29.4710   43.1930 H   0  0  0  0  0  0  0  0  0  0  0  0
   48.2210   29.2480   43.1580 H   0  0  0  0  0  0  0  0  0  0  0  0
   49.5420   31.2710   43.4890 H   0  0  0  0  0  0  0  0  0  0  0  0
   46.6650   34.6840   41.7060 C   0  0  0  0  0  0  0  0  0  0  0  0
   47.8440   35.1300   41.6030 O   0  0  0  0  0  0  0  0  0  0  0  0
   46.0690   33.9430   40.5680 C   0  0  0  0  0  3  0  0  0  0  0  0
   46.9120   33.7150   39.3450 C   0  0  0  0  0  2  0  0  0  0  0  0
   46.6220   32.5690   40.2120 C   0  0  0  0  0  2  0  0  0  0  0  0
  1  6  1  0  0  0  0
  2  1  2  0  0  0  0
  2  3  1  0  0  0  0
  3  4  2  0  0  0  0
  4  5  1  0  0  0  0
  5  8  1  0  0  0  0
  6  5  2  0  0  0  0
  7  1  1  0  0  0  0
  9  3  1  0  0  0  0
 10 15  1  0  0  0  0
 10  9  2  0  0  0  0
 11 10  1  0  0  0  0
 12 11  2  0  0  0  0
 12 13  1  0  0  0  0
 13 14  2  0  0  0  0
 14  9  1  0  0  0  0
 16 11  1  0  0  0  0
 17 12  1  0  0  0  0
 18 13  1  0  0  0  0
 19  2  1  0  0  0  0
 20 19  2  0  0  0  0
 21 19  1  0  0  0  0
 22 23  1  0  0  0  0
 22 21  1  0  0  0  0
 23 21  1  0  0  0  0
M  END
>  <minimizedAffinity>
-3.97772765

>  <minimizedRMSD>
0.77750504

$$$$
