
 OpenBabel03252503003D

 16 17  0  0  0  0  0  0  0  0999 V2000
   38.4700   29.7990   42.2900 C   0  0  0  0  0  0  0  0  0  0  0  0
   37.1990   29.5200   41.8110 C   0  0  0  0  0  0  0  0  0  0  0  0
   36.6430   28.2810   42.0260 C   0  0  0  0  0  0  0  0  0  0  0  0
   37.3680   27.3600   42.7080 N   0  0  0  0  0  0  0  0  0  0  0  0
   38.6030   27.6560   43.1640 C   0  0  0  0  0  0  0  0  0  0  0  0
   39.1460   28.8440   42.9630 N   0  0  0  0  0  0  0  0  0  0  0  0
   38.9320   30.7640   42.1340 H   0  0  0  0  0  0  0  0  0  0  0  0
   35.6750   27.9870   41.6880 H   0  0  0  0  0  0  0  0  0  0  0  0
   39.2070   26.9290   43.7170 H   0  0  0  0  0  0  0  0  0  0  0  0
   36.2620   30.7730   40.9040 S   0  0  0  0  0  0  0  0  0  0  0  0
   36.7940   30.8080   39.2040 C   0  0  0  0  0  0  0  0  0  0  0  0
   37.5510   29.9860   39.0610 H   0  0  0  0  0  0  0  0  0  0  0  0
   35.9470   30.4750   38.5340 H   0  0  0  0  0  0  0  0  0  0  0  0
   37.2710   32.1160   38.6810 C   0  0  0  0  0  3  0  0  0  0  0  0
   37.2740   33.3500   39.5000 C   0  0  0  0  0  2  0  0  0  0  0  0
   38.5910   32.5750   39.3050 C   0  0  0  0  0  2  0  0  0  0  0  0
  1  6  1  0  0  0  0
  2  3  1  0  0  0  0
  2  1  2  0  0  0  0
  3  4  2  0  0  0  0
  4  5  1  0  0  0  0
  5  9  1  0  0  0  0
  6  5  2  0  0  0  0
  7  1  1  0  0  0  0
  8  3  1  0  0  0  0
 10  2  1  0  0  0  0
 11 10  1  0  0  0  0
 12 11  1  0  0  0  0
 13 11  1  0  0  0  0
 14 11  1  0  0  0  0
 14 16  1  0  0  0  0
 14 15  1  0  0  0  0
 16 15  1  0  0  0  0
M  END
>  <minimizedAffinity>
-3.366189

$$$$

 OpenBabel03252503003D

 16 17  0  0  0  0  0  0  0  0999 V2000
   36.5560   28.1130   41.8380 C   0  0  0  0  0  0  0  0  0  0  0  0
   37.0860   29.3950   41.8570 C   0  0  0  0  0  0  0  0  0  0  0  0
   38.2480   29.6450   42.5490 C   0  0  0  0  0  0  0  0  0  0  0  0
   38.8450   28.6140   43.1980 N   0  0  0  0  0  0  0  0  0  0  0  0
   38.3100   27.3760   43.1630 C   0  0  0  0  0  0  0  0  0  0  0  0
   37.1940   27.1250   42.5020 N   0  0  0  0  0  0  0  0  0  0  0  0
   35.6430   27.8890   41.3040 H   0  0  0  0  0  0  0  0  0  0  0  0
   38.7160   30.6010   42.6160 H   0  0  0  0  0  0  0  0  0  0  0  0
   38.7740   26.5290   43.6790 H   0  0  0  0  0  0  0  0  0  0  0  0
   36.2610   30.7450   40.9810 S   0  0  0  0  0  0  0  0  0  0  0  0
   37.4730   31.7510   40.1480 C   0  0  0  0  0  0  0  0  0  0  0  0
   37.5910   32.7070   40.7320 H   0  0  0  0  0  0  0  0  0  0  0  0
   38.4930   31.2780   40.2500 H   0  0  0  0  0  0  0  0  0  0  0  0
   37.2530   31.9960   38.6980 C   0  0  0  0  0  3  0  0  0  0  0  0
   38.2420   31.6130   37.6630 C   0  0  0  0  0  2  0  0  0  0  0  0
   37.0110   30.7150   37.8940 C   0  0  0  0  0  2  0  0  0  0  0  0
  1  2  2  0  0  0  0
  1  6  1  0  0  0  0
  2  3  1  0  0  0  0
  3  8  1  0  0  0  0
  3  4  2  0  0  0  0
  5  4  1  0  0  0  0
  5  9  1  0  0  0  0
  6  5  2  0  0  0  0
  7  1  1  0  0  0  0
 10  2  1  0  0  0  0
 11 13  1  0  0  0  0
 11 12  1  0  0  0  0
 11 10  1  0  0  0  0
 14 11  1  0  0  0  0
 15 16  1  0  0  0  0
 15 14  1  0  0  0  0
 16 14  1  0  0  0  0
M  END
>  <minimizedAffinity>
-3.33462143

$$$$

 OpenBabel03252503003D

 16 17  0  0  0  0  0  0  0  0999 V2000
   36.4380   30.3040   41.3910 C   0  0  0  0  0  0  0  0  0  0  0  0
   37.6510   29.9000   41.9290 C   0  0  0  0  0  0  0  0  0  0  0  0
   38.8260   30.4070   41.4250 C   0  0  0  0  0  0  0  0  0  0  0  0
   38.7580   31.2970   40.4040 N   0  0  0  0  0  0  0  0  0  0  0  0
   37.5650   31.6740   39.8980 C   0  0  0  0  0  0  0  0  0  0  0  0
   36.4300   31.1930   40.3750 N   0  0  0  0  0  0  0  0  0  0  0  0
   35.5000   29.9210   41.7670 H   0  0  0  0  0  0  0  0  0  0  0  0
   39.7970   30.1450   41.7800 H   0  0  0  0  0  0  0  0  0  0  0  0
   37.4850   32.3900   39.0740 H   0  0  0  0  0  0  0  0  0  0  0  0
   37.7040   28.7100   43.2900 S   0  0  0  0  0  0  0  0  0  0  0  0
   36.7590   27.2620   42.8600 C   0  0  0  0  0  0  0  0  0  0  0  0
   36.1370   26.9760   43.7540 H   0  0  0  0  0  0  0  0  0  0  0  0
   35.9740   27.5350   42.0950 H   0  0  0  0  0  0  0  0  0  0  0  0
   37.5200   26.1100   42.3060 C   0  0  0  0  0  3  0  0  0  0  0  0
   36.9140   24.7730   42.1090 C   0  0  0  0  0  2  0  0  0  0  0  0
   37.0760   25.7090   40.8970 C   0  0  0  0  0  2  0  0  0  0  0  0
  1  7  1  0  0  0  0
  1  2  1  0  0  0  0
  2 10  1  0  0  0  0
  3  8  1  0  0  0  0
  3  2  2  0  0  0  0
  4  3  1  0  0  0  0
  5  6  1  0  0  0  0
  5  4  2  0  0  0  0
  6  1  2  0  0  0  0
  9  5  1  0  0  0  0
 11 10  1  0  0  0  0
 11 12  1  0  0  0  0
 13 11  1  0  0  0  0
 14 11  1  0  0  0  0
 15 14  1  0  0  0  0
 16 15  1  0  0  0  0
 16 14  1  0  0  0  0
M  END
>  <minimizedAffinity>
-3.32299948

$$$$

 OpenBabel03252503003D

 16 17  0  0  0  0  0  0  0  0999 V2000
   38.6040   29.9250   41.8120 C   0  0  0  0  0  0  0  0  0  0  0  0
   37.2870   29.4910   41.8320 C   0  0  0  0  0  0  0  0  0  0  0  0
   36.3140   30.2290   41.1990 C   0  0  0  0  0  0  0  0  0  0  0  0
   36.6810   31.3720   40.5670 N   0  0  0  0  0  0  0  0  0  0  0  0
   37.9690   31.7720   40.5620 C   0  0  0  0  0  0  0  0  0  0  0  0
   38.9120   31.0710   41.1670 N   0  0  0  0  0  0  0  0  0  0  0  0
   39.3890   29.3660   42.3020 H   0  0  0  0  0  0  0  0  0  0  0  0
   35.2800   29.9660   41.1720 H   0  0  0  0  0  0  0  0  0  0  0  0
   38.2890   32.6900   40.0590 H   0  0  0  0  0  0  0  0  0  0  0  0
   36.8340   27.9630   42.6850 S   0  0  0  0  0  0  0  0  0  0  0  0
   37.5660   26.5690   41.8500 C   0  0  0  0  0  0  0  0  0  0  0  0
   37.5350   26.7730   40.7430 H   0  0  0  0  0  0  0  0  0  0  0  0
   38.6750   26.5400   42.0600 H   0  0  0  0  0  0  0  0  0  0  0  0
   37.0250   25.2270   42.1940 C   0  0  0  0  0  3  0  0  0  0  0  0
   36.6710   24.2200   41.1670 C   0  0  0  0  0  2  0  0  0  0  0  0
   38.0090   24.0860   41.9180 C   0  0  0  0  0  2  0  0  0  0  0  0
  1  2  1  0  0  0  0
  1  7  1  0  0  0  0
  2 10  1  0  0  0  0
  3  2  2  0  0  0  0
  4  3  1  0  0  0  0
  5  4  2  0  0  0  0
  5  6  1  0  0  0  0
  6  1  2  0  0  0  0
  8  3  1  0  0  0  0
  9  5  1  0  0  0  0
 11 13  1  0  0  0  0
 11 14  1  0  0  0  0
 11 10  1  0  0  0  0
 12 11  1  0  0  0  0
 15 16  1  0  0  0  0
 15 14  1  0  0  0  0
 16 14  1  0  0  0  0
M  END
>  <minimizedAffinity>
-3.29595113

$$$$

 OpenBabel03252503003D

 16 17  0  0  0  0  0  0  0  0999 V2000
   37.8650   29.9170   39.3000 C   0  0  0  0  0  0  0  0  0  0  0  0
   36.8700   30.1470   40.2380 C   0  0  0  0  0  0  0  0  0  0  0  0
   36.6770   31.4140   40.7350 C   0  0  0  0  0  0  0  0  0  0  0  0
   37.4780   32.4110   40.2840 N   0  0  0  0  0  0  0  0  0  0  0  0
   38.4400   32.1620   39.3710 C   0  0  0  0  0  0  0  0  0  0  0  0
   38.6330   30.9470   38.8870 N   0  0  0  0  0  0  0  0  0  0  0  0
   38.0390   28.9300   38.8940 H   0  0  0  0  0  0  0  0  0  0  0  0
   35.9380   31.6720   41.4600 H   0  0  0  0  0  0  0  0  0  0  0  0
   39.0980   32.9500   38.9920 H   0  0  0  0  0  0  0  0  0  0  0  0
   35.8210   28.7920   40.8180 S   0  0  0  0  0  0  0  0  0  0  0  0
   36.8250   27.3660   41.1810 C   0  0  0  0  0  0  0  0  0  0  0  0
   36.2220   26.4470   40.9400 H   0  0  0  0  0  0  0  0  0  0  0  0
   37.6730   27.3010   40.4380 H   0  0  0  0  0  0  0  0  0  0  0  0
   37.4330   27.3070   42.5370 C   0  0  0  0  0  3  0  0  0  0  0  0
   37.4280   28.4610   43.4660 C   0  0  0  0  0  2  0  0  0  0  0  0
   36.4000   27.3320   43.6670 C   0  0  0  0  0  2  0  0  0  0  0  0
  1  2  1  0  0  0  0
  2  3  2  0  0  0  0
  2 10  1  0  0  0  0
  3  8  1  0  0  0  0
  4  3  1  0  0  0  0
  5  4  2  0  0  0  0
  6  1  2  0  0  0  0
  6  5  1  0  0  0  0
  7  1  1  0  0  0  0
  9  5  1  0  0  0  0
 10 11  1  0  0  0  0
 11 14  1  0  0  0  0
 12 11  1  0  0  0  0
 13 11  1  0  0  0  0
 14 15  1  0  0  0  0
 14 16  1  0  0  0  0
 15 16  1  0  0  0  0
M  END
>  <minimizedAffinity>
-3.27878356

$$$$

 OpenBabel03252503003D

 16 17  0  0  0  0  0  0  0  0999 V2000
   38.9510   30.7360   39.6170 C   0  0  0  0  0  0  0  0  0  0  0  0
   38.4190   30.0070   40.6690 C   0  0  0  0  0  0  0  0  0  0  0  0
   37.2170   30.3800   41.2220 C   0  0  0  0  0  0  0  0  0  0  0  0
   36.5820   31.4650   40.7110 N   0  0  0  0  0  0  0  0  0  0  0  0
   37.1210   32.1580   39.6860 C   0  0  0  0  0  0  0  0  0  0  0  0
   38.2760   31.8070   39.1480 N   0  0  0  0  0  0  0  0  0  0  0  0
   39.8950   30.4660   39.1640 H   0  0  0  0  0  0  0  0  0  0  0  0
   36.7430   29.8760   42.0340 H   0  0  0  0  0  0  0  0  0  0  0  0
   36.6280   33.0360   39.2570 H   0  0  0  0  0  0  0  0  0  0  0  0
   39.2940   28.5670   41.3260 S   0  0  0  0  0  0  0  0  0  0  0  0
   39.0290   28.4520   43.0840 C   0  0  0  0  0  0  0  0  0  0  0  0
   40.0370   28.4070   43.5840 H   0  0  0  0  0  0  0  0  0  0  0  0
   38.6110   29.4270   43.4690 H   0  0  0  0  0  0  0  0  0  0  0  0
   38.1160   27.3750   43.5520 C   0  0  0  0  0  3  0  0  0  0  0  0
   36.6520   27.5680   43.6790 C   0  0  0  0  0  2  0  0  0  0  0  0
   37.2070   26.8260   42.4480 C   0  0  0  0  0  2  0  0  0  0  0  0
  1  2  1  0  0  0  0
  2  3  2  0  0  0  0
  2 10  1  0  0  0  0
  3  8  1  0  0  0  0
  4  3  1  0  0  0  0
  5  4  2  0  0  0  0
  6  1  2  0  0  0  0
  6  5  1  0  0  0  0
  7  1  1  0  0  0  0
  9  5  1  0  0  0  0
 10 11  1  0  0  0  0
 11 13  1  0  0  0  0
 11 14  1  0  0  0  0
 11 12  1  0  0  0  0
 14 15  1  0  0  0  0
 16 14  1  0  0  0  0
 16 15  1  0  0  0  0
M  END
>  <minimizedAffinity>
-3.23211908

$$$$

 OpenBabel03252503003D

 16 17  0  0  0  0  0  0  0  0999 V2000
   39.1350   30.6150   40.0620 C   0  0  0  0  0  0  0  0  0  0  0  0
   37.7510   30.5380   40.1080 C   0  0  0  0  0  0  0  0  0  0  0  0
   37.0050   30.9920   39.0460 C   0  0  0  0  0  0  0  0  0  0  0  0
   37.6580   31.5060   37.9730 N   0  0  0  0  0  0  0  0  0  0  0  0
   39.0060   31.5690   37.9530 C   0  0  0  0  0  0  0  0  0  0  0  0
   39.7320   31.1360   38.9690 N   0  0  0  0  0  0  0  0  0  0  0  0
   39.7470   30.2670   40.8840 H   0  0  0  0  0  0  0  0  0  0  0  0
   35.9390   30.9720   39.0050 H   0  0  0  0  0  0  0  0  0  0  0  0
   39.5540   31.9790   37.0990 H   0  0  0  0  0  0  0  0  0  0  0  0
   36.9160   29.8480   41.5550 S   0  0  0  0  0  0  0  0  0  0  0  0
   38.1250   29.3010   42.7440 C   0  0  0  0  0  0  0  0  0  0  0  0
   39.1310   29.2970   42.2380 H   0  0  0  0  0  0  0  0  0  0  0  0
   38.2580   30.0910   43.5400 H   0  0  0  0  0  0  0  0  0  0  0  0
   37.8380   28.0220   43.4470 C   0  0  0  0  0  3  0  0  0  0  0  0
   36.4600   27.5280   43.6770 C   0  0  0  0  0  2  0  0  0  0  0  0
   37.2890   26.9310   42.5240 C   0  0  0  0  0  2  0  0  0  0  0  0
  1  2  1  0  0  0  0
  1  7  1  0  0  0  0
  2 10  1  0  0  0  0
  3  2  2  0  0  0  0
  4  3  1  0  0  0  0
  5  4  2  0  0  0  0
  5  6  1  0  0  0  0
  6  1  2  0  0  0  0
  8  3  1  0  0  0  0
  9  5  1  0  0  0  0
 10 11  1  0  0  0  0
 11 14  1  0  0  0  0
 11 13  1  0  0  0  0
 12 11  1  0  0  0  0
 14 15  1  0  0  0  0
 16 14  1  0  0  0  0
 16 15  1  0  0  0  0
M  END
>  <minimizedAffinity>
-3.18801022

$$$$

 OpenBabel03252503003D

 16 17  0  0  0  0  0  0  0  0999 V2000
   38.2280   29.6260   42.4770 C   0  0  0  0  0  0  0  0  0  0  0  0
   37.0370   29.3810   41.8110 C   0  0  0  0  0  0  0  0  0  0  0  0
   36.4000   28.1740   41.9700 C   0  0  0  0  0  0  0  0  0  0  0  0
   36.9650   27.2500   42.7870 N   0  0  0  0  0  0  0  0  0  0  0  0
   38.1250   27.5130   43.4250 C   0  0  0  0  0  0  0  0  0  0  0  0
   38.7460   28.6700   43.2780 N   0  0  0  0  0  0  0  0  0  0  0  0
   38.7520   30.5670   42.3690 H   0  0  0  0  0  0  0  0  0  0  0  0
   35.4850   27.9060   41.4910 H   0  0  0  0  0  0  0  0  0  0  0  0
   38.6000   26.7830   44.0880 H   0  0  0  0  0  0  0  0  0  0  0  0
   36.3130   30.6370   40.7290 S   0  0  0  0  0  0  0  0  0  0  0  0
   36.6300   30.2190   39.0260 C   0  0  0  0  0  0  0  0  0  0  0  0
   36.4340   31.1360   38.4020 H   0  0  0  0  0  0  0  0  0  0  0  0
   37.7370   30.0570   38.8760 H   0  0  0  0  0  0  0  0  0  0  0  0
   35.9390   29.0140   38.4950 C   0  0  0  0  0  3  0  0  0  0  0  0
   34.4760   28.8140   38.6140 C   0  0  0  0  0  2  0  0  0  0  0  0
   35.0600   29.3050   37.2760 C   0  0  0  0  0  2  0  0  0  0  0  0
  1  6  1  0  0  0  0
  2  3  1  0  0  0  0
  2  1  2  0  0  0  0
  3  4  2  0  0  0  0
  4  5  1  0  0  0  0
  5  9  1  0  0  0  0
  6  5  2  0  0  0  0
  7  1  1  0  0  0  0
  8  3  1  0  0  0  0
 10  2  1  0  0  0  0
 11 10  1  0  0  0  0
 12 11  1  0  0  0  0
 13 11  1  0  0  0  0
 14 15  1  0  0  0  0
 14 11  1  0  0  0  0
 16 14  1  0  0  0  0
 16 15  1  0  0  0  0
M  END
>  <minimizedAffinity>
-3.18645144

$$$$

 OpenBabel03252503003D

 16 17  0  0  0  0  0  0  0  0999 V2000
   40.1860   32.0530   41.0560 C   0  0  0  0  0  0  0  0  0  0  0  0
   38.8170   31.8650   40.9460 C   0  0  0  0  0  0  0  0  0  0  0  0
   38.0320   32.8530   40.4010 C   0  0  0  0  0  0  0  0  0  0  0  0
   38.6320   33.9950   39.9830 N   0  0  0  0  0  0  0  0  0  0  0  0
   39.9670   34.1540   40.1000 C   0  0  0  0  0  0  0  0  0  0  0  0
   40.7310   33.2100   40.6230 N   0  0  0  0  0  0  0  0  0  0  0  0
   40.8270   31.2930   41.4820 H   0  0  0  0  0  0  0  0  0  0  0  0
   36.9730   32.7880   40.2850 H   0  0  0  0  0  0  0  0  0  0  0  0
   40.4740   35.0660   39.7690 H   0  0  0  0  0  0  0  0  0  0  0  0
   38.0500   30.3290   41.5160 S   0  0  0  0  0  0  0  0  0  0  0  0
   36.2960   30.3820   41.2090 C   0  0  0  0  0  0  0  0  0  0  0  0
   35.7890   30.7250   42.1550 H   0  0  0  0  0  0  0  0  0  0  0  0
   36.0620   31.2220   40.4910 H   0  0  0  0  0  0  0  0  0  0  0  0
   35.6790   29.1500   40.6500 C   0  0  0  0  0  3  0  0  0  0  0  0
   34.5670   29.1860   39.6710 C   0  0  0  0  0  2  0  0  0  0  0  0
   36.0010   28.9270   39.1690 C   0  0  0  0  0  2  0  0  0  0  0  0
  1  7  1  0  0  0  0
  2  1  1  0  0  0  0
  2 10  1  0  0  0  0
  3  2  2  0  0  0  0
  4  5  2  0  0  0  0
  4  3  1  0  0  0  0
  5  6  1  0  0  0  0
  6  1  2  0  0  0  0
  8  3  1  0  0  0  0
  9  5  1  0  0  0  0
 11 10  1  0  0  0  0
 11 12  1  0  0  0  0
 13 11  1  0  0  0  0
 14 11  1  0  0  0  0
 15 14  1  0  0  0  0
 16 15  1  0  0  0  0
 16 14  1  0  0  0  0
M  END
>  <minimizedAffinity>
-3.11236215

$$$$
