
 OpenBabel03242519363D

 18 19  0  0  0  0  0  0  0  0999 V2000
   40.5420   32.6820   39.1480 C   0  0  0  0  0  0  0  0  0  0  0  0
   39.8000   31.4910   39.2230 C   0  0  0  0  0  0  0  0  0  0  0  0
   38.5170   31.5720   39.7490 C   0  0  0  0  0  0  0  0  0  0  0  0
   38.0420   32.7730   40.1600 N   0  0  0  0  0  0  0  0  0  0  0  0
   38.7750   33.8950   40.0740 C   0  0  0  0  0  0  0  0  0  0  0  0
   40.0300   33.8610   39.5680 N   0  0  0  0  0  0  0  0  0  0  0  0
   41.5410   32.5320   38.7220 H   0  0  0  0  0  0  0  0  0  0  0  0
   40.2070   30.5400   38.8850 H   0  0  0  0  0  0  0  0  0  0  0  0
   38.3830   34.8550   40.4080 H   0  0  0  0  0  0  0  0  0  0  0  0
   37.7830   30.3850   39.8220 O   0  0  0  0  0  0  0  0  0  0  0  0
   37.9820   30.1340   42.4430 O   0  0  0  0  0  0  0  0  0  0  0  0
   36.9910   29.9890   41.2840 P   0  0  1  0  0  0  0  0  0  0  0  0
   35.6640   30.9790   41.4810 O   0  0  0  0  0  0  0  0  0  0  0  0
   36.0100   31.8740   41.7410 H   0  0  0  0  0  0  0  0  0  0  0  0
   36.5590   28.3420   41.2150 O   0  0  0  0  0  0  0  0  0  0  0  0
   37.3680   27.5910   42.0800 C   0  0  0  0  0  3  0  0  0  0  0  0
   36.6480   27.1090   43.3120 C   0  0  0  0  0  2  0  0  0  0  0  0
   37.0330   26.1330   42.2630 C   0  0  0  0  0  2  0  0  0  0  0  0
  1  2  2  0  0  0  0
  1  6  1  0  0  0  0
  2  3  1  0  0  0  0
  3 10  1  0  0  0  0
  3  4  2  0  0  0  0
  5  4  1  0  0  0  0
  5  9  1  0  0  0  0
  6  5  2  0  0  0  0
  7  1  1  0  0  0  0
  8  2  1  0  0  0  0
 10 12  1  0  0  0  0
 12 13  1  0  0  0  0
 12 11  2  1  0  0  0
 13 14  1  0  0  0  0
 15 12  1  0  0  0  0
 15 16  1  0  0  0  0
 16 18  1  0  0  0  0
 16 17  1  0  0  0  0
 18 17  1  0  0  0  0
M  END
>  <minimizedAffinity>
-4.14356565

$$$$

 OpenBabel03242519363D

 18 19  0  0  0  0  0  0  0  0999 V2000
   39.2560   27.2550   43.1130 C   0  0  0  0  0  0  0  0  0  0  0  0
   39.2580   28.6090   42.7340 C   0  0  0  0  0  0  0  0  0  0  0  0
   38.0570   29.1470   42.2900 C   0  0  0  0  0  0  0  0  0  0  0  0
   36.9540   28.3600   42.2400 N   0  0  0  0  0  0  0  0  0  0  0  0
   36.9840   27.0700   42.6100 C   0  0  0  0  0  0  0  0  0  0  0  0
   38.1330   26.5050   43.0490 N   0  0  0  0  0  0  0  0  0  0  0  0
   40.2400   26.9090   43.4510 H   0  0  0  0  0  0  0  0  0  0  0  0
   40.1590   29.2160   42.7840 H   0  0  0  0  0  0  0  0  0  0  0  0
   36.0910   26.4470   42.5660 H   0  0  0  0  0  0  0  0  0  0  0  0
   38.0640   30.4930   41.9130 O   0  0  0  0  0  0  0  0  0  0  0  0
   37.3540   30.2240   39.3850 O   0  0  0  0  0  0  0  0  0  0  0  0
   37.0240   31.0080   40.6590 P   0  0  1  0  0  0  0  0  0  0  0  0
   35.4390   30.7850   41.1250 O   0  0  0  0  0  0  0  0  0  0  0  0
   35.2590   29.8090   41.0720 H   0  0  0  0  0  0  0  0  0  0  0  0
   37.3730   32.6430   40.3290 O   0  0  0  0  0  0  0  0  0  0  0  0
   38.6710   32.9590   40.7530 C   0  0  0  0  0  3  0  0  0  0  0  0
   39.7120   32.8000   39.6760 C   0  0  0  0  0  2  0  0  0  0  0  0
   39.3380   34.1600   40.1330 C   0  0  0  0  0  2  0  0  0  0  0  0
  1  7  1  0  0  0  0
  2  8  1  0  0  0  0
  2  1  2  0  0  0  0
  3  2  1  0  0  0  0
  4  3  2  0  0  0  0
  4  5  1  0  0  0  0
  5  6  2  0  0  0  0
  6  1  1  0  0  0  0
  9  5  1  0  0  0  0
 10  3  1  0  0  0  0
 12 11  2  6  0  0  0
 12 13  1  0  0  0  0
 12 10  1  0  0  0  0
 14 13  1  0  0  0  0
 15 12  1  0  0  0  0
 15 16  1  0  0  0  0
 17 18  1  0  0  0  0
 17 16  1  0  0  0  0
 18 16  1  0  0  0  0
M  END
>  <minimizedAffinity>
-4.09891319

$$$$

 OpenBabel03242519363D

 18 19  0  0  0  0  0  0  0  0999 V2000
   36.9510   31.1240   38.3340 C   0  0  0  0  0  0  0  0  0  0  0  0
   36.6430   29.9030   38.9570 C   0  0  0  0  0  0  0  0  0  0  0  0
   36.6540   29.8770   40.3460 C   0  0  0  0  0  0  0  0  0  0  0  0
   36.9550   31.0080   41.0290 N   0  0  0  0  0  0  0  0  0  0  0  0
   37.2440   32.1610   40.4050 C   0  0  0  0  0  0  0  0  0  0  0  0
   37.2450   32.2300   39.0530 N   0  0  0  0  0  0  0  0  0  0  0  0
   36.9210   31.0590   37.2390 H   0  0  0  0  0  0  0  0  0  0  0  0
   36.4050   29.0100   38.3830 H   0  0  0  0  0  0  0  0  0  0  0  0
   37.4840   33.0640   40.9640 H   0  0  0  0  0  0  0  0  0  0  0  0
   36.3480   28.6600   40.9620 O   0  0  0  0  0  0  0  0  0  0  0  0
   38.7500   28.1540   41.9310 O   0  0  0  0  0  0  0  0  0  0  0  0
   37.2670   28.1610   42.3130 P   0  0  1  0  0  0  0  0  0  0  0  0
   36.9670   29.1820   43.5970 O   0  0  0  0  0  0  0  0  0  0  0  0
   37.4430   30.0330   43.4030 H   0  0  0  0  0  0  0  0  0  0  0  0
   36.8470   26.5470   42.6640 O   0  0  0  0  0  0  0  0  0  0  0  0
   37.3560   25.6870   41.6810 C   0  0  0  0  0  3  0  0  0  0  0  0
   38.0800   24.4910   42.2430 C   0  0  0  0  0  2  0  0  0  0  0  0
   36.7630   24.3040   41.5850 C   0  0  0  0  0  2  0  0  0  0  0  0
  1  2  2  0  0  0  0
  1  6  1  0  0  0  0
  2  3  1  0  0  0  0
  3 10  1  0  0  0  0
  3  4  2  0  0  0  0
  5  9  1  0  0  0  0
  5  4  1  0  0  0  0
  6  5  2  0  0  0  0
  7  1  1  0  0  0  0
  8  2  1  0  0  0  0
 10 12  1  0  0  0  0
 12 11  2  6  0  0  0
 12 15  1  0  0  0  0
 12 13  1  0  0  0  0
 14 13  1  0  0  0  0
 16 17  1  0  0  0  0
 16 15  1  0  0  0  0
 18 16  1  0  0  0  0
 18 17  1  0  0  0  0
M  END
>  <minimizedAffinity>
-4.03461361

$$$$

 OpenBabel03242519363D

 18 19  0  0  0  0  0  0  0  0999 V2000
   39.8610   32.6500   38.9030 C   0  0  0  0  0  0  0  0  0  0  0  0
   38.8520   31.7160   38.6110 C   0  0  0  0  0  0  0  0  0  0  0  0
   37.6050   31.9270   39.1850 C   0  0  0  0  0  0  0  0  0  0  0  0
   37.4150   33.0030   39.9860 N   0  0  0  0  0  0  0  0  0  0  0  0
   38.3990   33.8790   40.2450 C   0  0  0  0  0  0  0  0  0  0  0  0
   39.6290   33.7120   39.7070 N   0  0  0  0  0  0  0  0  0  0  0  0
   40.8120   32.4120   38.4120 H   0  0  0  0  0  0  0  0  0  0  0  0
   39.0330   30.8600   37.9640 H   0  0  0  0  0  0  0  0  0  0  0  0
   38.2340   34.7410   40.8900 H   0  0  0  0  0  0  0  0  0  0  0  0
   36.6050   30.9950   38.8930 O   0  0  0  0  0  0  0  0  0  0  0  0
   37.0160   28.9790   40.5470 O   0  0  0  0  0  0  0  0  0  0  0  0
   35.9750   30.0320   40.1560 P   0  0  1  0  0  0  0  0  0  0  0  0
   35.5710   31.0060   41.4480 O   0  0  0  0  0  0  0  0  0  0  0  0
   36.4240   31.2750   41.8810 H   0  0  0  0  0  0  0  0  0  0  0  0
   34.6290   29.1830   39.5470 O   0  0  0  0  0  0  0  0  0  0  0  0
   34.7160   29.0710   38.1520 C   0  0  0  0  0  3  0  0  0  0  0  0
   34.3420   27.7070   37.6330 C   0  0  0  0  0  2  0  0  0  0  0  0
   33.4360   28.8550   37.3850 C   0  0  0  0  0  2  0  0  0  0  0  0
  1  6  1  0  0  0  0
  2  1  2  0  0  0  0
  2  3  1  0  0  0  0
  3  4  2  0  0  0  0
  4  5  1  0  0  0  0
  5  9  1  0  0  0  0
  6  5  2  0  0  0  0
  7  1  1  0  0  0  0
  8  2  1  0  0  0  0
 10  3  1  0  0  0  0
 10 12  1  0  0  0  0
 12 11  2  1  0  0  0
 12 13  1  0  0  0  0
 13 14  1  0  0  0  0
 15 12  1  0  0  0  0
 16 15  1  0  0  0  0
 17 16  1  0  0  0  0
 18 17  1  0  0  0  0
 18 16  1  0  0  0  0
M  END
>  <minimizedAffinity>
-3.90567517

$$$$

 OpenBabel03242519363D

 18 19  0  0  0  0  0  0  0  0999 V2000
   40.2340   29.6500   37.7890 C   0  0  0  0  0  0  0  0  0  0  0  0
   38.9490   29.4610   38.3250 C   0  0  0  0  0  0  0  0  0  0  0  0
   38.2500   30.5950   38.7180 C   0  0  0  0  0  0  0  0  0  0  0  0
   38.8240   31.8140   38.5720 N   0  0  0  0  0  0  0  0  0  0  0  0
   40.0550   31.9630   38.0550 C   0  0  0  0  0  0  0  0  0  0  0  0
   40.7710   30.8840   37.6590 N   0  0  0  0  0  0  0  0  0  0  0  0
   40.7170   28.7070   37.5050 H   0  0  0  0  0  0  0  0  0  0  0  0
   38.5130   28.4690   38.4320 H   0  0  0  0  0  0  0  0  0  0  0  0
   40.5060   32.9470   37.9410 H   0  0  0  0  0  0  0  0  0  0  0  0
   36.9730   30.4010   39.2520 O   0  0  0  0  0  0  0  0  0  0  0  0
   38.1430   30.4300   41.6190 O   0  0  0  0  0  0  0  0  0  0  0  0
   36.8090   30.1240   40.9300 P   0  0  1  0  0  0  0  0  0  0  0  0
   35.5750   31.0710   41.5320 O   0  0  0  0  0  0  0  0  0  0  0  0
   35.9210   32.0010   41.5710 H   0  0  0  0  0  0  0  0  0  0  0  0
   36.5130   28.4610   41.1600 O   0  0  0  0  0  0  0  0  0  0  0  0
   37.3410   27.9550   42.1720 C   0  0  0  0  0  3  0  0  0  0  0  0
   36.5940   27.5550   43.4170 C   0  0  0  0  0  2  0  0  0  0  0  0
   37.1790   26.5050   42.5490 C   0  0  0  0  0  2  0  0  0  0  0  0
  1  2  1  0  0  0  0
  2  8  1  0  0  0  0
  2  3  2  0  0  0  0
  3 10  1  0  0  0  0
  4  3  1  0  0  0  0
  5  4  2  0  0  0  0
  6  1  2  0  0  0  0
  6  5  1  0  0  0  0
  7  1  1  0  0  0  0
  9  5  1  0  0  0  0
 10 12  1  0  0  0  0
 12 15  1  0  0  0  0
 12 13  1  0  0  0  0
 12 11  2  1  0  0  0
 13 14  1  0  0  0  0
 15 16  1  0  0  0  0
 16 18  1  0  0  0  0
 16 17  1  0  0  0  0
 18 17  1  0  0  0  0
M  END
>  <minimizedAffinity>
-3.88504577

$$$$

 OpenBabel03242519363D

 18 19  0  0  0  0  0  0  0  0999 V2000
   37.5080   26.7820   41.5400 C   0  0  0  0  0  0  0  0  0  0  0  0
   36.8940   27.9210   40.9910 C   0  0  0  0  0  0  0  0  0  0  0  0
   36.8590   29.0650   41.7770 C   0  0  0  0  0  0  0  0  0  0  0  0
   37.4080   29.0390   43.0160 N   0  0  0  0  0  0  0  0  0  0  0  0
   37.9890   27.9350   43.5120 C   0  0  0  0  0  0  0  0  0  0  0  0
   38.0450   26.7970   42.7810 N   0  0  0  0  0  0  0  0  0  0  0  0
   37.4940   25.9230   40.8580 H   0  0  0  0  0  0  0  0  0  0  0  0
   36.4610   27.9130   39.9930 H   0  0  0  0  0  0  0  0  0  0  0  0
   38.4270   27.9250   44.5100 H   0  0  0  0  0  0  0  0  0  0  0  0
   36.2460   30.1950   41.2270 O   0  0  0  0  0  0  0  0  0  0  0  0
   36.8250   30.8380   38.7330 O   0  0  0  0  0  0  0  0  0  0  0  0
   37.1500   31.2040   40.1850 P   0  0  1  0  0  0  0  0  0  0  0  0
   36.7950   32.8000   40.5110 O   0  0  0  0  0  0  0  0  0  0  0  0
   35.8910   32.9740   40.1360 H   0  0  0  0  0  0  0  0  0  0  0  0
   38.8010   30.8530   40.4180 O   0  0  0  0  0  0  0  0  0  0  0  0
   39.3640   31.7510   41.3350 C   0  0  0  0  0  3  0  0  0  0  0  0
   40.1680   31.0800   42.4190 C   0  0  0  0  0  2  0  0  0  0  0  0
   40.8670   31.8650   41.3720 C   0  0  0  0  0  2  0  0  0  0  0  0
  1  6  1  0  0  0  0
  2  1  2  0  0  0  0
  2  3  1  0  0  0  0
  3  4  2  0  0  0  0
  4  5  1  0  0  0  0
  5  9  1  0  0  0  0
  6  5  2  0  0  0  0
  7  1  1  0  0  0  0
  8  2  1  0  0  0  0
 10  3  1  0  0  0  0
 12 11  2  6  0  0  0
 12 15  1  0  0  0  0
 12 13  1  0  0  0  0
 12 10  1  0  0  0  0
 14 13  1  0  0  0  0
 15 16  1  0  0  0  0
 16 18  1  0  0  0  0
 16 17  1  0  0  0  0
 18 17  1  0  0  0  0
M  END
>  <minimizedAffinity>
-3.87978983

$$$$

 OpenBabel03242519363D

 18 19  0  0  0  0  0  0  0  0999 V2000
   39.0980   27.1030   42.0560 C   0  0  0  0  0  0  0  0  0  0  0  0
   38.1780   27.2290   41.0010 C   0  0  0  0  0  0  0  0  0  0  0  0
   36.9070   27.6920   41.3170 C   0  0  0  0  0  0  0  0  0  0  0  0
   36.6130   27.9990   42.6040 N   0  0  0  0  0  0  0  0  0  0  0  0
   37.5140   27.8690   43.5900 C   0  0  0  0  0  0  0  0  0  0  0  0
   38.7640   27.4210   43.3270 N   0  0  0  0  0  0  0  0  0  0  0  0
   40.0750   26.7310   41.7230 H   0  0  0  0  0  0  0  0  0  0  0  0
   38.4420   26.9740   39.9760 H   0  0  0  0  0  0  0  0  0  0  0  0
   37.2660   28.1190   44.6210 H   0  0  0  0  0  0  0  0  0  0  0  0
   35.9950   27.8150   40.2650 O   0  0  0  0  0  0  0  0  0  0  0  0
   33.8310   29.1780   39.6090 O   0  0  0  0  0  0  0  0  0  0  0  0
   35.3200   29.3480   39.9280 P   0  0  1  0  0  0  0  0  0  0  0  0
   35.5570   30.3580   41.2330 O   0  0  0  0  0  0  0  0  0  0  0  0
   34.9190   30.0700   41.9380 H   0  0  0  0  0  0  0  0  0  0  0  0
   36.0570   29.9450   38.5120 O   0  0  0  0  0  0  0  0  0  0  0  0
   36.8580   31.0560   38.8120 C   0  0  0  0  0  3  0  0  0  0  0  0
   38.3330   30.7510   38.8130 C   0  0  0  0  0  2  0  0  0  0  0  0
   37.7610   31.5820   37.7260 C   0  0  0  0  0  2  0  0  0  0  0  0
  1  6  1  0  0  0  0
  2  3  1  0  0  0  0
  2  1  2  0  0  0  0
  3  4  2  0  0  0  0
  4  5  1  0  0  0  0
  5  9  1  0  0  0  0
  6  5  2  0  0  0  0
  7  1  1  0  0  0  0
  8  2  1  0  0  0  0
 10  3  1  0  0  0  0
 12 11  2  6  0  0  0
 12 10  1  0  0  0  0
 12 13  1  0  0  0  0
 13 14  1  0  0  0  0
 15 16  1  0  0  0  0
 15 12  1  0  0  0  0
 16 17  1  0  0  0  0
 18 16  1  0  0  0  0
 18 17  1  0  0  0  0
M  END
>  <minimizedAffinity>
-3.84604359

$$$$

 OpenBabel03242519363D

 18 19  0  0  0  0  0  0  0  0999 V2000
   39.7100   26.0500   43.5890 C   0  0  0  0  0  0  0  0  0  0  0  0
   38.6920   27.0150   43.5010 C   0  0  0  0  0  0  0  0  0  0  0  0
   37.5540   26.6760   42.7800 C   0  0  0  0  0  0  0  0  0  0  0  0
   37.4730   25.4530   42.2030 N   0  0  0  0  0  0  0  0  0  0  0  0
   38.4630   24.5510   42.3050 C   0  0  0  0  0  0  0  0  0  0  0  0
   39.5890   24.8400   42.9990 N   0  0  0  0  0  0  0  0  0  0  0  0
   40.5710   26.3960   44.1730 H   0  0  0  0  0  0  0  0  0  0  0  0
   38.7850   27.9900   43.9750 H   0  0  0  0  0  0  0  0  0  0  0  0
   38.3870   23.5700   41.8370 H   0  0  0  0  0  0  0  0  0  0  0  0
   36.5450   27.6390   42.6950 O   0  0  0  0  0  0  0  0  0  0  0  0
   37.4780   28.2670   40.3060 O   0  0  0  0  0  0  0  0  0  0  0  0
   36.6210   28.8110   41.4530 P   0  0  1  0  0  0  0  0  0  0  0  0
   35.0770   29.1820   40.9450 O   0  0  0  0  0  0  0  0  0  0  0  0
   34.7620   28.4130   40.4000 H   0  0  0  0  0  0  0  0  0  0  0  0
   37.4400   30.1740   42.0680 O   0  0  0  0  0  0  0  0  0  0  0  0
   38.7740   30.1750   41.6370 C   0  0  0  0  0  3  0  0  0  0  0  0
   39.3440   31.5570   41.4500 C   0  0  0  0  0  2  0  0  0  0  0  0
   39.8140   30.7210   42.5820 C   0  0  0  0  0  2  0  0  0  0  0  0
  1  7  1  0  0  0  0
  2  1  1  0  0  0  0
  2  8  1  0  0  0  0
  3  2  2  0  0  0  0
  4  5  2  0  0  0  0
  4  3  1  0  0  0  0
  5  6  1  0  0  0  0
  6  1  2  0  0  0  0
  9  5  1  0  0  0  0
 10  3  1  0  0  0  0
 12 11  2  6  0  0  0
 12 15  1  0  0  0  0
 12 10  1  0  0  0  0
 13 12  1  0  0  0  0
 14 13  1  0  0  0  0
 16 15  1  0  0  0  0
 16 18  1  0  0  0  0
 17 16  1  0  0  0  0
 17 18  1  0  0  0  0
M  END
>  <minimizedAffinity>
-3.79466486

$$$$

 OpenBabel03242519363D

 18 19  0  0  0  0  0  0  0  0999 V2000
   38.0750   25.4380   40.6550 C   0  0  0  0  0  0  0  0  0  0  0  0
   37.0120   26.3400   40.8260 C   0  0  0  0  0  0  0  0  0  0  0  0
   37.2330   27.4340   41.6530 C   0  0  0  0  0  0  0  0  0  0  0  0
   38.4400   27.5840   42.2490 N   0  0  0  0  0  0  0  0  0  0  0  0
   39.4380   26.7040   42.0650 C   0  0  0  0  0  0  0  0  0  0  0  0
   39.2660   25.6240   41.2670 N   0  0  0  0  0  0  0  0  0  0  0  0
   37.8200   24.6040   39.9890 H   0  0  0  0  0  0  0  0  0  0  0  0
   36.0520   26.1950   40.3350 H   0  0  0  0  0  0  0  0  0  0  0  0
   40.4050   26.8350   42.5490 H   0  0  0  0  0  0  0  0  0  0  0  0
   36.1720   28.3290   41.8210 O   0  0  0  0  0  0  0  0  0  0  0  0
   34.7480   29.0960   39.7340 O   0  0  0  0  0  0  0  0  0  0  0  0
   35.9060   29.5320   40.6360 P   0  0  1  0  0  0  0  0  0  0  0  0
   35.5880   30.9870   41.3850 O   0  0  0  0  0  0  0  0  0  0  0  0
   34.6630   30.9290   41.7440 H   0  0  0  0  0  0  0  0  0  0  0  0
   37.2920   29.6080   39.6470 O   0  0  0  0  0  0  0  0  0  0  0  0
   36.9380   29.4410   38.3010 C   0  0  0  0  0  3  0  0  0  0  0  0
   37.1820   30.6650   37.4580 C   0  0  0  0  0  2  0  0  0  0  0  0
   38.0440   29.4710   37.2770 C   0  0  0  0  0  2  0  0  0  0  0  0
  1  2  2  0  0  0  0
  1  6  1  0  0  0  0
  2  3  1  0  0  0  0
  3 10  1  0  0  0  0
  3  4  2  0  0  0  0
  5  4  1  0  0  0  0
  5  9  1  0  0  0  0
  6  5  2  0  0  0  0
  7  1  1  0  0  0  0
  8  2  1  0  0  0  0
 12 11  2  6  0  0  0
 12 13  1  0  0  0  0
 12 10  1  0  0  0  0
 13 14  1  0  0  0  0
 15 12  1  0  0  0  0
 16 15  1  0  0  0  0
 17 16  1  0  0  0  0
 18 17  1  0  0  0  0
 18 16  1  0  0  0  0
M  END
>  <minimizedAffinity>
-3.68919826

$$$$
