
 OpenBabel03242520013D

 24 26  0  0  1  0  0  0  0  0999 V2000
   39.1750   29.9920   42.5150 Br  0  0  0  0  0  0  0  0  0  0  0  0
   37.7030   29.8290   41.3090 C   0  0  0  0  0  0  0  0  0  0  0  0
   37.4720   30.7330   40.3060 C   0  0  0  0  0  0  0  0  0  0  0  0
   36.3610   30.5380   39.4930 C   0  0  0  0  0  0  0  0  0  0  0  0
   35.4930   29.4680   39.6690 C   0  0  0  0  0  0  0  0  0  0  0  0
   35.7290   28.5480   40.6890 C   0  0  0  0  0  0  0  0  0  0  0  0
   36.8450   28.7730   41.4790 C   0  0  0  0  0  0  0  0  0  0  0  0
   36.2060   31.2630   38.7160 H   0  0  0  0  0  0  0  0  0  0  0  0
   34.6450   29.3360   39.0350 H   0  0  0  0  0  0  0  0  0  0  0  0
   35.0490   27.7170   40.8190 H   0  0  0  0  0  0  0  0  0  0  0  0
   39.1670   34.1080   40.4880 C   0  0  0  0  0  0  0  0  0  0  0  0
   38.2200   33.0820   40.6690 C   0  0  0  0  0  0  0  0  0  0  0  0
   38.4180   31.8290   40.1490 C   0  0  0  0  0  0  0  0  0  0  0  0
   39.5940   31.6730   39.4540 N   0  0  0  0  0  0  0  0  0  0  0  0
   40.4870   32.6520   39.2870 C   0  0  0  0  0  0  0  0  0  0  0  0
   40.2790   33.8520   39.7940 N   0  0  0  0  0  0  0  0  0  0  0  0
   38.8950   35.0380   40.9410 H   0  0  0  0  0  0  0  0  0  0  0  0
   37.3010   33.2310   41.2210 H   0  0  0  0  0  0  0  0  0  0  0  0
   41.3590   32.3600   38.7140 H   0  0  0  0  0  0  0  0  0  0  0  0
   37.0840   27.7860   42.5030 C   0  0  1  0  0  3  0  0  0  0  0  0
   36.5640   27.9110   43.6770 O   0  0  0  0  0  1  0  0  0  0  0  0
   37.8780   26.5470   42.4650 C   0  0  0  0  0  3  0  0  0  0  0  0
   38.3890   26.0050   41.1380 C   0  0  0  0  0  2  0  0  0  0  0  0
   37.2970   25.2830   41.8410 C   0  0  0  0  0  2  0  0  0  0  0  0
  2  7  1  0  0  0  0
  2  1  1  0  0  0  0
  3  2  2  0  0  0  0
  4  5  2  0  0  0  0
  4  3  1  0  0  0  0
  5  6  1  0  0  0  0
  6 10  1  0  0  0  0
  6  7  2  0  0  0  0
  7 20  1  0  0  0  0
  8  4  1  0  0  0  0
  9  5  1  0  0  0  0
 11 12  1  0  0  0  0
 11 17  1  0  0  0  0
 12 18  1  0  0  0  0
 13  3  1  0  0  0  0
 13 12  2  0  0  0  0
 14 13  1  0  0  0  0
 15 14  2  0  0  0  0
 15 16  1  0  0  0  0
 16 11  2  0  0  0  0
 19 15  1  0  0  0  0
 20 21  1  6  0  0  0
 22 20  1  0  0  0  0
 23 24  1  0  0  0  0
 23 22  1  0  0  0  0
 24 22  1  0  0  0  0
M  END
>  <minimizedAffinity>
-4.84723568

$$$$

 OpenBabel03242520013D

 24 26  0  0  1  0  0  0  0  0999 V2000
   38.8020   26.8440   39.4670 Br  0  0  0  0  0  0  0  0  0  0  0  0
   38.2820   27.6560   41.1160 C   0  0  0  0  0  0  0  0  0  0  0  0
   37.9670   28.9850   41.2120 C   0  0  0  0  0  0  0  0  0  0  0  0
   37.6220   29.4870   42.4620 C   0  0  0  0  0  0  0  0  0  0  0  0
   37.5890   28.6880   43.5970 C   0  0  0  0  0  0  0  0  0  0  0  0
   37.9080   27.3350   43.4980 C   0  0  0  0  0  0  0  0  0  0  0  0
   38.2480   26.8700   42.2380 C   0  0  0  0  0  0  0  0  0  0  0  0
   37.3800   30.5330   42.5050 H   0  0  0  0  0  0  0  0  0  0  0  0
   37.3220   29.0920   44.5480 H   0  0  0  0  0  0  0  0  0  0  0  0
   37.8800   26.7190   44.3870 H   0  0  0  0  0  0  0  0  0  0  0  0
   36.9860   30.7630   38.0220 C   0  0  0  0  0  0  0  0  0  0  0  0
   36.9020   29.9850   39.1920 C   0  0  0  0  0  0  0  0  0  0  0  0
   37.9980   29.7810   39.9920 C   0  0  0  0  0  0  0  0  0  0  0  0
   39.1510   30.3900   39.5560 N   0  0  0  0  0  0  0  0  0  0  0  0
   39.2210   31.1260   38.4440 C   0  0  0  0  0  0  0  0  0  0  0  0
   38.1560   31.3110   37.6860 N   0  0  0  0  0  0  0  0  0  0  0  0
   36.0630   30.8440   37.4860 H   0  0  0  0  0  0  0  0  0  0  0  0
   35.9830   29.5160   39.5130 H   0  0  0  0  0  0  0  0  0  0  0  0
   40.2050   31.5330   38.2460 H   0  0  0  0  0  0  0  0  0  0  0  0
   38.5380   25.4600   42.1600 C   0  0  1  0  0  3  0  0  0  0  0  0
   39.7570   25.0360   42.1230 O   0  0  0  0  0  1  0  0  0  0  0  0
   37.6320   24.3010   42.1100 C   0  0  0  0  0  3  0  0  0  0  0  0
   37.7440   23.2890   40.9780 C   0  0  0  0  0  2  0  0  0  0  0  0
   36.5740   24.2030   41.0160 C   0  0  0  0  0  2  0  0  0  0  0  0
  1  2  1  0  0  0  0
  2  3  2  0  0  0  0
  2  7  1  0  0  0  0
  3  4  1  0  0  0  0
  4  8  1  0  0  0  0
  4  5  2  0  0  0  0
  5  9  1  0  0  0  0
  6  5  1  0  0  0  0
  6 10  1  0  0  0  0
  7  6  2  0  0  0  0
 11 12  1  0  0  0  0
 12 18  1  0  0  0  0
 12 13  2  0  0  0  0
 13  3  1  0  0  0  0
 14 13  1  0  0  0  0
 15 14  2  0  0  0  0
 16 11  2  0  0  0  0
 16 15  1  0  0  0  0
 17 11  1  0  0  0  0
 19 15  1  0  0  0  0
 20 21  1  1  0  0  0
 20  7  1  0  0  0  0
 22 20  1  0  0  0  0
 23 24  1  0  0  0  0
 23 22  1  0  0  0  0
 24 22  1  0  0  0  0
M  END
>  <minimizedAffinity>
-4.68039465

$$$$

 OpenBabel03242520013D

 24 26  0  0  1  0  0  0  0  0999 V2000
   38.3650   28.3160   39.2540 Br  0  0  0  0  0  0  0  0  0  0  0  0
   37.7860   28.1480   41.0670 C   0  0  0  0  0  0  0  0  0  0  0  0
   37.7880   29.2030   41.9390 C   0  0  0  0  0  0  0  0  0  0  0  0
   37.3670   28.9750   43.2440 C   0  0  0  0  0  0  0  0  0  0  0  0
   36.9510   27.7230   43.6800 C   0  0  0  0  0  0  0  0  0  0  0  0
   36.9480   26.6490   42.7910 C   0  0  0  0  0  0  0  0  0  0  0  0
   37.3740   26.9140   41.4990 C   0  0  0  0  0  0  0  0  0  0  0  0
   37.3800   29.8220   43.9040 H   0  0  0  0  0  0  0  0  0  0  0  0
   36.6320   27.5670   44.6860 H   0  0  0  0  0  0  0  0  0  0  0  0
   36.6230   25.6780   43.1380 H   0  0  0  0  0  0  0  0  0  0  0  0
   39.8550   32.2430   41.0530 C   0  0  0  0  0  0  0  0  0  0  0  0
   39.4940   30.9810   41.5610 C   0  0  0  0  0  0  0  0  0  0  0  0
   38.2150   30.5010   41.4330 C   0  0  0  0  0  0  0  0  0  0  0  0
   37.3450   31.3440   40.7830 N   0  0  0  0  0  0  0  0  0  0  0  0
   37.6970   32.5400   40.3050 C   0  0  0  0  0  0  0  0  0  0  0  0
   38.9320   32.9860   40.4370 N   0  0  0  0  0  0  0  0  0  0  0  0
   40.8800   32.5020   41.2180 H   0  0  0  0  0  0  0  0  0  0  0  0
   40.1970   30.3360   42.0690 H   0  0  0  0  0  0  0  0  0  0  0  0
   36.8900   33.0770   39.8200 H   0  0  0  0  0  0  0  0  0  0  0  0
   37.3260   25.7930   40.5930 C   0  0  1  0  0  3  0  0  0  0  0  0
   36.3830   25.6900   39.7180 O   0  0  0  0  0  1  0  0  0  0  0  0
   38.2270   24.6360   40.4580 C   0  0  0  0  0  3  0  0  0  0  0  0
   39.4260   24.4890   41.3830 C   0  0  0  0  0  2  0  0  0  0  0  0
   39.6530   24.8320   39.9560 C   0  0  0  0  0  2  0  0  0  0  0  0
  1  2  1  0  0  0  0
  2  7  2  0  0  0  0
  2  3  1  0  0  0  0
  3  4  2  0  0  0  0
  4  5  1  0  0  0  0
  4  8  1  0  0  0  0
  5  9  1  0  0  0  0
  6 10  1  0  0  0  0
  6  5  2  0  0  0  0
  7  6  1  0  0  0  0
 11 17  1  0  0  0  0
 11 12  1  0  0  0  0
 12 18  1  0  0  0  0
 13 12  2  0  0  0  0
 13  3  1  0  0  0  0
 14 13  1  0  0  0  0
 15 16  1  0  0  0  0
 15 14  2  0  0  0  0
 16 11  2  0  0  0  0
 19 15  1  0  0  0  0
 20 21  1  6  0  0  0
 20  7  1  0  0  0  0
 22 20  1  0  0  0  0
 22 23  1  0  0  0  0
 24 22  1  0  0  0  0
 24 23  1  0  0  0  0
M  END
>  <minimizedAffinity>
-4.61340714

$$$$

 OpenBabel03242520013D

 24 26  0  0  1  0  0  0  0  0999 V2000
   40.0020   29.1870   39.9710 Br  0  0  0  0  0  0  0  0  0  0  0  0
   38.1220   29.0970   40.3020 C   0  0  0  0  0  0  0  0  0  0  0  0
   37.5690   28.1720   41.1450 C   0  0  0  0  0  0  0  0  0  0  0  0
   36.1880   28.1740   41.3030 C   0  0  0  0  0  0  0  0  0  0  0  0
   35.3680   29.0760   40.6380 C   0  0  0  0  0  0  0  0  0  0  0  0
   35.9320   30.0190   39.7800 C   0  0  0  0  0  0  0  0  0  0  0  0
   37.3110   29.9870   39.6470 C   0  0  0  0  0  0  0  0  0  0  0  0
   35.7830   27.4370   41.9710 H   0  0  0  0  0  0  0  0  0  0  0  0
   34.3090   29.0620   40.7720 H   0  0  0  0  0  0  0  0  0  0  0  0
   35.2870   30.7190   39.2660 H   0  0  0  0  0  0  0  0  0  0  0  0
   39.9010   26.6100   43.6790 C   0  0  0  0  0  0  0  0  0  0  0  0
   39.0370   27.5290   43.0540 C   0  0  0  0  0  0  0  0  0  0  0  0
   38.4690   27.2570   41.8350 C   0  0  0  0  0  0  0  0  0  0  0  0
   38.8140   26.0400   41.2970 N   0  0  0  0  0  0  0  0  0  0  0  0
   39.6340   25.1750   41.8980 C   0  0  0  0  0  0  0  0  0  0  0  0
   40.1720   25.4530   43.0700 N   0  0  0  0  0  0  0  0  0  0  0  0
   40.2780   26.9400   44.6250 H   0  0  0  0  0  0  0  0  0  0  0  0
   38.7810   28.4810   43.4990 H   0  0  0  0  0  0  0  0  0  0  0  0
   39.8010   24.2630   41.3370 H   0  0  0  0  0  0  0  0  0  0  0  0
   37.8690   30.9970   38.7820 C   0  0  1  0  0  3  0  0  0  0  0  0
   38.0350   30.7700   37.5220 O   0  0  0  0  0  1  0  0  0  0  0  0
   38.3290   32.3630   39.0820 C   0  0  0  0  0  3  0  0  0  0  0  0
   38.2930   32.8850   40.5110 C   0  0  0  0  0  2  0  0  0  0  0  0
   37.3290   33.4270   39.5200 C   0  0  0  0  0  2  0  0  0  0  0  0
  1  2  1  0  0  0  0
  2  3  1  0  0  0  0
  3  4  2  0  0  0  0
  3 13  1  0  0  0  0
  4  8  1  0  0  0  0
  5  9  1  0  0  0  0
  5  4  1  0  0  0  0
  6  5  2  0  0  0  0
  7  6  1  0  0  0  0
  7  2  2  0  0  0  0
 10  6  1  0  0  0  0
 11 17  1  0  0  0  0
 12 18  1  0  0  0  0
 12 11  2  0  0  0  0
 13 12  1  0  0  0  0
 14 13  2  0  0  0  0
 14 15  1  0  0  0  0
 15 16  2  0  0  0  0
 16 11  1  0  0  0  0
 19 15  1  0  0  0  0
 20 21  1  6  0  0  0
 20 22  1  0  0  0  0
 20  7  1  0  0  0  0
 22 24  1  0  0  0  0
 22 23  1  0  0  0  0
 24 23  1  0  0  0  0
M  END
>  <minimizedAffinity>
-4.60662222

$$$$

 OpenBabel03242520013D

 24 26  0  0  1  0  0  0  0  0999 V2000
   36.3620   26.6360   38.7480 Br  0  0  0  0  0  0  0  0  0  0  0  0
   36.7970   26.9430   40.5820 C   0  0  0  0  0  0  0  0  0  0  0  0
   37.4690   26.0220   41.3410 C   0  0  0  0  0  0  0  0  0  0  0  0
   37.7200   26.3300   42.6740 C   0  0  0  0  0  0  0  0  0  0  0  0
   37.3110   27.5270   43.2460 C   0  0  0  0  0  0  0  0  0  0  0  0
   36.6280   28.4640   42.4730 C   0  0  0  0  0  0  0  0  0  0  0  0
   36.3960   28.1240   41.1500 C   0  0  0  0  0  0  0  0  0  0  0  0
   38.2490   25.5880   43.2430 H   0  0  0  0  0  0  0  0  0  0  0  0
   37.5120   27.7450   44.2710 H   0  0  0  0  0  0  0  0  0  0  0  0
   36.3140   29.3950   42.9260 H   0  0  0  0  0  0  0  0  0  0  0  0
   37.6760   22.4320   40.1700 C   0  0  0  0  0  0  0  0  0  0  0  0
   37.2230   23.5970   40.8180 C   0  0  0  0  0  0  0  0  0  0  0  0
   37.8940   24.7880   40.6930 C   0  0  0  0  0  0  0  0  0  0  0  0
   39.0150   24.7380   39.9000 N   0  0  0  0  0  0  0  0  0  0  0  0
   39.4360   23.6270   39.2890 C   0  0  0  0  0  0  0  0  0  0  0  0
   38.7800   22.4910   39.4210 N   0  0  0  0  0  0  0  0  0  0  0  0
   37.0670   21.5710   40.3480 H   0  0  0  0  0  0  0  0  0  0  0  0
   36.3370   23.6110   41.4380 H   0  0  0  0  0  0  0  0  0  0  0  0
   40.3370   23.7620   38.7030 H   0  0  0  0  0  0  0  0  0  0  0  0
   35.7190   29.1270   40.3660 C   0  0  1  0  0  3  0  0  0  0  0  0
   34.4320   29.1300   40.2640 O   0  0  0  0  0  1  0  0  0  0  0  0
   36.2590   30.2540   39.5880 C   0  0  0  0  0  3  0  0  0  0  0  0
   37.7540   30.5390   39.5900 C   0  0  0  0  0  2  0  0  0  0  0  0
   36.8410   31.4690   40.3030 C   0  0  0  0  0  2  0  0  0  0  0  0
  1  2  1  0  0  0  0
  2  7  2  0  0  0  0
  2  3  1  0  0  0  0
  3  4  2  0  0  0  0
  4  8  1  0  0  0  0
  4  5  1  0  0  0  0
  5  9  1  0  0  0  0
  6 10  1  0  0  0  0
  6  5  2  0  0  0  0
  7  6  1  0  0  0  0
 11 17  1  0  0  0  0
 11 12  1  0  0  0  0
 12 18  1  0  0  0  0
 13 12  2  0  0  0  0
 13  3  1  0  0  0  0
 14 13  1  0  0  0  0
 15 16  1  0  0  0  0
 15 14  2  0  0  0  0
 16 11  2  0  0  0  0
 19 15  1  0  0  0  0
 20 21  1  1  0  0  0
 20  7  1  0  0  0  0
 22 23  1  0  0  0  0
 22 24  1  0  0  0  0
 22 20  1  0  0  0  0
 23 24  1  0  0  0  0
M  END
>  <minimizedAffinity>
-4.59621239

$$$$

 OpenBabel03242520013D

 24 26  0  0  1  0  0  0  0  0999 V2000
   39.1140   28.3320   39.4460 Br  0  0  0  0  0  0  0  0  0  0  0  0
   38.3110   28.1570   41.1710 C   0  0  0  0  0  0  0  0  0  0  0  0
   37.8900   29.2380   41.8970 C   0  0  0  0  0  0  0  0  0  0  0  0
   37.3370   29.0090   43.1520 C   0  0  0  0  0  0  0  0  0  0  0  0
   37.2040   27.7310   43.6790 C   0  0  0  0  0  0  0  0  0  0  0  0
   37.6320   26.6310   42.9390 C   0  0  0  0  0  0  0  0  0  0  0  0
   38.1780   26.8970   41.6940 C   0  0  0  0  0  0  0  0  0  0  0  0
   37.0150   29.8760   43.6970 H   0  0  0  0  0  0  0  0  0  0  0  0
   36.7770   27.5750   44.6450 H   0  0  0  0  0  0  0  0  0  0  0  0
   37.5250   25.6390   43.3570 H   0  0  0  0  0  0  0  0  0  0  0  0
   37.2480   32.4300   39.9730 C   0  0  0  0  0  0  0  0  0  0  0  0
   37.0600   31.1520   40.5320 C   0  0  0  0  0  0  0  0  0  0  0  0
   38.0330   30.5580   41.2950 C   0  0  0  0  0  0  0  0  0  0  0  0
   39.1740   31.3050   41.4580 N   0  0  0  0  0  0  0  0  0  0  0  0
   39.3440   32.5180   40.9250 C   0  0  0  0  0  0  0  0  0  0  0  0
   38.3980   33.0740   40.1920 N   0  0  0  0  0  0  0  0  0  0  0  0
   36.4170   32.7820   39.3990 H   0  0  0  0  0  0  0  0  0  0  0  0
   36.1510   30.5840   40.3890 H   0  0  0  0  0  0  0  0  0  0  0  0
   40.3030   32.9690   41.1500 H   0  0  0  0  0  0  0  0  0  0  0  0
   38.5790   25.7370   40.9360 C   0  0  1  0  0  3  0  0  0  0  0  0
   39.7670   25.2470   41.0570 O   0  0  0  0  0  1  0  0  0  0  0  0
   37.8280   24.9270   39.9630 C   0  0  0  0  0  3  0  0  0  0  0  0
   36.4410   25.3630   39.5130 C   0  0  0  0  0  2  0  0  0  0  0  0
   36.5740   24.1770   40.3980 C   0  0  0  0  0  2  0  0  0  0  0  0
  1  2  1  0  0  0  0
  2  7  2  0  0  0  0
  2  3  1  0  0  0  0
  3  4  2  0  0  0  0
  4  5  1  0  0  0  0
  4  8  1  0  0  0  0
  5  9  1  0  0  0  0
  6 10  1  0  0  0  0
  6  5  2  0  0  0  0
  7  6  1  0  0  0  0
 11 16  2  0  0  0  0
 11 12  1  0  0  0  0
 12 13  2  0  0  0  0
 13 14  1  0  0  0  0
 13  3  1  0  0  0  0
 15 19  1  0  0  0  0
 15 14  2  0  0  0  0
 16 15  1  0  0  0  0
 17 11  1  0  0  0  0
 18 12  1  0  0  0  0
 20 21  1  1  0  0  0
 20  7  1  0  0  0  0
 22 24  1  0  0  0  0
 22 20  1  0  0  0  0
 23 22  1  0  0  0  0
 23 24  1  0  0  0  0
M  END
>  <minimizedAffinity>
-4.57290792

$$$$

 OpenBabel03242520013D

 24 26  0  0  1  0  0  0  0  0999 V2000
   37.5800   27.6530   39.5170 Br  0  0  0  0  0  0  0  0  0  0  0  0
   37.4920   29.5550   39.6740 C   0  0  0  0  0  0  0  0  0  0  0  0
   36.9560   30.3470   38.6940 C   0  0  0  0  0  0  0  0  0  0  0  0
   36.9570   31.7240   38.8930 C   0  0  0  0  0  0  0  0  0  0  0  0
   37.4800   32.3060   40.0410 C   0  0  0  0  0  0  0  0  0  0  0  0
   38.0240   31.4980   41.0380 C   0  0  0  0  0  0  0  0  0  0  0  0
   38.0060   30.1320   40.8060 C   0  0  0  0  0  0  0  0  0  0  0  0
   36.5310   32.3190   38.1070 H   0  0  0  0  0  0  0  0  0  0  0  0
   37.4720   33.3640   40.1750 H   0  0  0  0  0  0  0  0  0  0  0  0
   38.4280   31.9580   41.9290 H   0  0  0  0  0  0  0  0  0  0  0  0
   34.6220   28.6240   36.2690 C   0  0  0  0  0  0  0  0  0  0  0  0
   35.1070   29.2520   37.4320 C   0  0  0  0  0  0  0  0  0  0  0  0
   36.4040   29.6920   37.5160 C   0  0  0  0  0  0  0  0  0  0  0  0
   37.1630   29.4690   36.3920 N   0  0  0  0  0  0  0  0  0  0  0  0
   36.6940   28.8720   35.2930 C   0  0  0  0  0  0  0  0  0  0  0  0
   35.4440   28.4540   35.2300 N   0  0  0  0  0  0  0  0  0  0  0  0
   33.5970   28.3270   36.3290 H   0  0  0  0  0  0  0  0  0  0  0  0
   34.4890   29.4160   38.3040 H   0  0  0  0  0  0  0  0  0  0  0  0
   37.4240   28.7740   34.4990 H   0  0  0  0  0  0  0  0  0  0  0  0
   38.5420   29.3190   41.8700 C   0  0  1  0  0  3  0  0  0  0  0  0
   39.7390   28.8420   41.7980 O   0  0  0  0  0  1  0  0  0  0  0  0
   37.9350   28.8900   43.1400 C   0  0  0  0  0  3  0  0  0  0  0  0
   38.1930   27.4890   43.6770 C   0  0  0  0  0  2  0  0  0  0  0  0
   36.8460   27.8220   43.1460 C   0  0  0  0  0  2  0  0  0  0  0  0
  1  2  1  0  0  0  0
  2  7  1  0  0  0  0
  3  4  1  0  0  0  0
  3  2  2  0  0  0  0
  4  5  2  0  0  0  0
  5  9  1  0  0  0  0
  5  6  1  0  0  0  0
  6 10  1  0  0  0  0
  7  6  2  0  0  0  0
  7 20  1  0  0  0  0
  8  4  1  0  0  0  0
 11 17  1  0  0  0  0
 11 12  1  0  0  0  0
 12 13  2  0  0  0  0
 12 18  1  0  0  0  0
 13  3  1  0  0  0  0
 14 13  1  0  0  0  0
 15 14  2  0  0  0  0
 16 15  1  0  0  0  0
 16 11  2  0  0  0  0
 19 15  1  0  0  0  0
 20 21  1  1  0  0  0
 20 22  1  0  0  0  0
 22 24  1  0  0  0  0
 22 23  1  0  0  0  0
 24 23  1  0  0  0  0
M  END
>  <minimizedAffinity>
-4.52785587

$$$$

 OpenBabel03242520013D

 24 26  0  0  1  0  0  0  0  0999 V2000
   38.3990   27.2430   39.2580 Br  0  0  0  0  0  0  0  0  0  0  0  0
   37.8160   27.4080   41.0700 C   0  0  0  0  0  0  0  0  0  0  0  0
   37.3340   26.3440   41.7850 C   0  0  0  0  0  0  0  0  0  0  0  0
   36.9140   26.5700   43.0910 C   0  0  0  0  0  0  0  0  0  0  0  0
   36.9700   27.8270   43.6800 C   0  0  0  0  0  0  0  0  0  0  0  0
   37.4610   28.9090   42.9510 C   0  0  0  0  0  0  0  0  0  0  0  0
   37.8700   28.6470   41.6540 C   0  0  0  0  0  0  0  0  0  0  0  0
   36.5420   25.7170   43.6260 H   0  0  0  0  0  0  0  0  0  0  0  0
   36.6420   27.9810   44.6830 H   0  0  0  0  0  0  0  0  0  0  0  0
   37.5020   29.8850   43.4170 H   0  0  0  0  0  0  0  0  0  0  0  0
   38.2030   22.8360   40.6710 C   0  0  0  0  0  0  0  0  0  0  0  0
   38.2710   24.0810   41.3260 C   0  0  0  0  0  0  0  0  0  0  0  0
   37.3110   25.0420   41.1330 C   0  0  0  0  0  0  0  0  0  0  0  0
   36.3060   24.6860   40.2650 N   0  0  0  0  0  0  0  0  0  0  0  0
   36.2500   23.5030   39.6480 C   0  0  0  0  0  0  0  0  0  0  0  0
   37.1820   22.5910   39.8450 N   0  0  0  0  0  0  0  0  0  0  0  0
   39.0110   22.1750   40.9050 H   0  0  0  0  0  0  0  0  0  0  0  0
   39.0730   24.3360   42.0050 H   0  0  0  0  0  0  0  0  0  0  0  0
   35.3910   23.3860   38.9970 H   0  0  0  0  0  0  0  0  0  0  0  0
   38.4070   29.7770   40.9370 C   0  0  1  0  0  3  0  0  0  0  0  0
   39.6810   29.9230   40.7910 O   0  0  0  0  0  1  0  0  0  0  0  0
   37.7220   30.9000   40.2760 C   0  0  0  0  0  3  0  0  0  0  0  0
   36.2020   30.9330   40.2020 C   0  0  0  0  0  2  0  0  0  0  0  0
   36.9800   30.6780   38.9620 C   0  0  0  0  0  2  0  0  0  0  0  0
  1  2  1  0  0  0  0
  2  7  2  0  0  0  0
  2  3  1  0  0  0  0
  3  4  2  0  0  0  0
  4  8  1  0  0  0  0
  4  5  1  0  0  0  0
  5  9  1  0  0  0  0
  6 10  1  0  0  0  0
  6  5  2  0  0  0  0
  7  6  1  0  0  0  0
 11 17  1  0  0  0  0
 11 12  1  0  0  0  0
 12 18  1  0  0  0  0
 13 12  2  0  0  0  0
 13  3  1  0  0  0  0
 14 13  1  0  0  0  0
 15 16  1  0  0  0  0
 15 14  2  0  0  0  0
 16 11  2  0  0  0  0
 19 15  1  0  0  0  0
 20 21  1  6  0  0  0
 20  7  1  0  0  0  0
 22 20  1  0  0  0  0
 23 22  1  0  0  0  0
 24 23  1  0  0  0  0
 24 22  1  0  0  0  0
M  END
>  <minimizedAffinity>
-4.484272

$$$$

 OpenBabel03242520013D

 24 26  0  0  1  0  0  0  0  0999 V2000
   37.4930   26.0500   39.3580 Br  0  0  0  0  0  0  0  0  0  0  0  0
   37.3960   27.2240   40.8630 C   0  0  0  0  0  0  0  0  0  0  0  0
   37.2430   28.5770   40.7280 C   0  0  0  0  0  0  0  0  0  0  0  0
   37.2040   29.3500   41.8840 C   0  0  0  0  0  0  0  0  0  0  0  0
   37.3150   28.7920   43.1510 C   0  0  0  0  0  0  0  0  0  0  0  0
   37.4700   27.4130   43.2870 C   0  0  0  0  0  0  0  0  0  0  0  0
   37.5050   26.6760   42.1150 C   0  0  0  0  0  0  0  0  0  0  0  0
   37.0830   30.4080   41.7460 H   0  0  0  0  0  0  0  0  0  0  0  0
   37.2840   29.4010   44.0260 H   0  0  0  0  0  0  0  0  0  0  0  0
   37.5560   26.9870   44.2770 H   0  0  0  0  0  0  0  0  0  0  0  0
   37.9770   30.1650   37.3760 C   0  0  0  0  0  0  0  0  0  0  0  0
   38.1570   29.6580   38.6770 C   0  0  0  0  0  0  0  0  0  0  0  0
   37.1120   29.1160   39.3810 C   0  0  0  0  0  0  0  0  0  0  0  0
   35.9090   29.1140   38.7160 N   0  0  0  0  0  0  0  0  0  0  0  0
   35.7480   29.5970   37.4820 C   0  0  0  0  0  0  0  0  0  0  0  0
   36.7640   30.1160   36.8200 N   0  0  0  0  0  0  0  0  0  0  0  0
   38.8680   30.5620   36.9350 H   0  0  0  0  0  0  0  0  0  0  0  0
   39.1150   29.6710   39.1780 H   0  0  0  0  0  0  0  0  0  0  0  0
   34.7350   29.5190   37.1060 H   0  0  0  0  0  0  0  0  0  0  0  0
   37.6290   25.2500   42.2870 C   0  0  1  0  0  3  0  0  0  0  0  0
   36.5860   24.4900   42.2910 O   0  0  0  0  0  1  0  0  0  0  0  0
   38.8260   24.4130   42.4760 C   0  0  0  0  0  3  0  0  0  0  0  0
   40.0120   24.9410   43.2700 C   0  0  0  0  0  2  0  0  0  0  0  0
   40.1380   24.7900   41.7980 C   0  0  0  0  0  2  0  0  0  0  0  0
  1  2  1  0  0  0  0
  2  7  1  0  0  0  0
  3  2  2  0  0  0  0
  3  4  1  0  0  0  0
  4  5  2  0  0  0  0
  5  6  1  0  0  0  0
  5  9  1  0  0  0  0
  6 10  1  0  0  0  0
  7 20  1  0  0  0  0
  7  6  2  0  0  0  0
  8  4  1  0  0  0  0
 11 12  1  0  0  0  0
 12 18  1  0  0  0  0
 12 13  2  0  0  0  0
 13  3  1  0  0  0  0
 14 13  1  0  0  0  0
 15 14  2  0  0  0  0
 16 11  2  0  0  0  0
 16 15  1  0  0  0  0
 17 11  1  0  0  0  0
 19 15  1  0  0  0  0
 20 21  1  6  0  0  0
 20 22  1  0  0  0  0
 22 23  1  0  0  0  0
 24 22  1  0  0  0  0
 24 23  1  0  0  0  0
M  END
>  <minimizedAffinity>
-4.4653964

$$$$
