
 OpenBabel03252509323D

 21 22  0  0  0  0  0  0  0  0999 V2000
   47.3130   33.3220   43.0510 C   0  0  0  0  0  0  0  0  0  0  0  0
   47.2420   33.3830   41.9400 H   0  0  0  0  0  0  0  0  0  0  0  0
   47.0160   32.2800   43.3340 H   0  0  0  0  0  0  0  0  0  0  0  0
   44.8650   34.8780   45.4110 C   0  0  0  0  0  0  0  0  0  0  0  0
   45.8060   33.9840   44.8840 C   0  0  0  0  0  0  0  0  0  0  0  0
   46.3300   34.2390   43.6210 C   0  0  0  0  0  0  0  0  0  0  0  0
   45.9010   35.3590   42.9400 N   0  0  0  0  0  0  0  0  0  0  0  0
   44.9900   36.1970   43.4840 C   0  0  0  0  0  0  0  0  0  0  0  0
   44.4780   35.9640   44.6970 N   0  0  0  0  0  0  0  0  0  0  0  0
   44.5210   34.5910   46.3960 H   0  0  0  0  0  0  0  0  0  0  0  0
   46.1400   33.1140   45.4150 H   0  0  0  0  0  0  0  0  0  0  0  0
   44.6410   37.0810   42.9640 H   0  0  0  0  0  0  0  0  0  0  0  0
   48.5950   33.6170   43.5140 O   0  0  0  0  0  0  0  0  0  0  0  0
   50.9240   33.6520   42.3170 O   0  0  0  0  0  0  0  0  0  0  0  0
   49.4970   34.1380   42.1790 P   0  0  2  0  0  0  0  0  0  0  0  0
   49.3770   35.8100   42.1040 O   0  0  0  0  0  0  0  0  0  0  0  0
   49.9690   36.1990   42.7900 H   0  0  0  0  0  0  0  0  0  0  0  0
   48.8420   33.4260   40.8010 O   0  0  0  0  0  0  0  0  0  0  0  0
   48.1530   34.3010   39.9990 C   0  0  0  0  0  3  0  0  0  0  0  0
   46.9270   33.7330   39.3280 C   0  0  0  0  0  2  0  0  0  0  0  0
   48.1680   33.8950   38.5260 C   0  0  0  0  0  2  0  0  0  0  0  0
  1  3  1  0  0  0  0
  1 13  1  0  0  0  0
  1  6  1  0  0  0  0
  2  1  1  0  0  0  0
  4 10  1  0  0  0  0
  5  4  1  0  0  0  0
  5 11  1  0  0  0  0
  6  5  2  0  0  0  0
  7  8  2  0  0  0  0
  7  6  1  0  0  0  0
  8  9  1  0  0  0  0
  9  4  2  0  0  0  0
 12  8  1  0  0  0  0
 15 14  2  1  0  0  0
 15 13  1  0  0  0  0
 16 15  1  0  0  0  0
 16 17  1  0  0  0  0
 18 15  1  0  0  0  0
 19 18  1  0  0  0  0
 20 19  1  0  0  0  0
 21 20  1  0  0  0  0
 21 19  1  0  0  0  0
M  END
>  <minimizedAffinity>
-4.02589512

>  <minimizedRMSD>
1.89759433

$$$$
