
 OpenBabel03252507563D

 38 41  0  0  1  0  0  0  0  0999 V2000
   37.2070   28.8900   42.2350 C   0  0  2  0  0  0  0  0  0  0  0  0
   36.4760   27.9150   41.3050 C   0  0  0  0  0  0  0  0  0  0  0  0
   35.3970   28.8960   40.7960 C   0  0  0  0  0  0  0  0  0  0  0  0
   36.1010   30.2110   40.6710 C   0  0  1  0  0  0  0  0  0  0  0  0
   37.4650   30.0060   41.2590 C   0  0  0  0  0  0  0  0  0  0  0  0
   36.5130   29.1620   43.0300 H   0  0  0  0  0  0  0  0  0  0  0  0
   36.0160   27.1200   41.9090 H   0  0  0  0  0  0  0  0  0  0  0  0
   37.1300   27.5880   40.4960 H   0  0  0  0  0  0  0  0  0  0  0  0
   34.5640   28.9090   41.5450 H   0  0  0  0  0  0  0  0  0  0  0  0
   35.0630   28.5620   39.7940 H   0  0  0  0  0  0  0  0  0  0  0  0
   35.5770   30.9850   41.2920 H   0  0  0  0  0  0  0  0  0  0  0  0
   37.8020   30.8800   41.8700 H   0  0  0  0  0  0  0  0  0  0  0  0
   38.2450   29.7450   40.5460 H   0  0  0  0  0  0  0  0  0  0  0  0
   39.7250   26.6890   43.9680 C   0  0  0  0  0  0  0  0  0  0  0  0
   38.4860   27.1340   43.5190 C   0  0  0  0  0  0  0  0  0  0  0  0
   38.4730   28.2930   42.7540 C   0  0  0  0  0  0  0  0  0  0  0  0
   39.6570   28.9630   42.4620 N   0  0  0  0  0  0  0  0  0  0  0  0
   40.8440   28.4830   42.9270 C   0  0  0  0  0  0  0  0  0  0  0  0
   40.8660   27.3480   43.6780 N   0  0  0  0  0  0  0  0  0  0  0  0
   39.7540   25.7830   44.5670 H   0  0  0  0  0  0  0  0  0  0  0  0
   37.5430   26.6480   43.7210 H   0  0  0  0  0  0  0  0  0  0  0  0
   41.7020   29.0770   42.6450 H   0  0  0  0  0  0  0  0  0  0  0  0
   36.2920   30.6830   39.2470 C   0  0  2  0  0  0  0  0  0  0  0  0
   35.9260   29.7370   38.2020 C   0  0  0  0  0  0  0  0  0  0  0  0
   37.3530   30.1460   38.3960 C   0  0  1  0  0  0  0  0  0  0  0  0
   36.0160   31.7430   39.1020 H   0  0  0  0  0  0  0  0  0  0  0  0
   35.6830   28.6780   38.5020 H   0  0  0  0  0  0  0  0  0  0  0  0
   35.4070   30.0190   37.2640 H   0  0  0  0  0  0  0  0  0  0  0  0
   38.1080   29.5560   38.9300 H   0  0  0  0  0  0  0  0  0  0  0  0
   37.9110   31.0110   37.4230 O   0  0  0  0  0  0  0  0  0  0  0  0
   40.3370   30.1240   37.7770 O   0  0  0  0  0  0  0  0  0  0  0  0
   39.4880   31.3680   37.8840 P   0  0  1  0  0  0  0  0  0  0  0  0
   40.1550   32.5310   36.8120 O   0  0  0  0  0  0  0  0  0  0  0  0
   40.5890   32.0420   36.0790 H   0  0  0  0  0  0  0  0  0  0  0  0
   39.6440   31.9850   39.4140 O   0  0  0  0  0  0  0  0  0  0  0  0
   39.3100   33.3250   39.5270 C   0  0  0  0  0  3  0  0  0  0  0  0
   39.0340   33.9900   40.8130 C   0  0  0  0  0  2  0  0  0  0  0  0
   37.8990   33.7090   39.8110 C   0  0  0  0  0  2  0  0  0  0  0  0
  1 16  1  0  0  0  0
  1  6  1  1  0  0  0
  2  7  1  0  0  0  0
  2  1  1  0  0  0  0
  3  2  1  0  0  0  0
  3  9  1  0  0  0  0
  4  3  1  0  0  0  0
  4  5  1  0  0  0  0
  4 11  1  1  0  0  0
  5 12  1  0  0  0  0
  5  1  1  0  0  0  0
  8  2  1  0  0  0  0
 10  3  1  0  0  0  0
 13  5  1  0  0  0  0
 14 20  1  0  0  0  0
 15 21  1  0  0  0  0
 15 14  2  0  0  0  0
 16 15  1  0  0  0  0
 17 16  2  0  0  0  0
 17 18  1  0  0  0  0
 18 19  2  0  0  0  0
 19 14  1  0  0  0  0
 22 18  1  0  0  0  0
 23 26  1  6  0  0  0
 23  4  1  0  0  0  0
 24 25  1  0  0  0  0
 24 27  1  0  0  0  0
 24 23  1  0  0  0  0
 25 29  1  1  0  0  0
 25 23  1  0  0  0  0
 28 24  1  0  0  0  0
 30 32  1  0  0  0  0
 30 25  1  0  0  0  0
 32 31  2  6  0  0  0
 32 35  1  0  0  0  0
 33 32  1  0  0  0  0
 34 33  1  0  0  0  0
 35 36  1  0  0  0  0
 36 38  1  0  0  0  0
 36 37  1  0  0  0  0
 38 37  1  0  0  0  0
M  END
>  <minimizedAffinity>
-5.59124422

$$$$

 OpenBabel03252507563D

 38 41  0  0  1  0  0  0  0  0999 V2000
   40.7250   31.1440   41.4710 C   0  0  2  0  0  0  0  0  0  0  0  0
   40.3550   30.0610   40.4520 C   0  0  0  0  0  0  0  0  0  0  0  0
   40.1640   28.9010   41.4550 C   0  0  0  0  0  0  0  0  0  0  0  0
   39.5370   29.5330   42.6590 C   0  0  1  0  0  0  0  0  0  0  0  0
   39.5500   31.0110   42.4020 C   0  0  0  0  0  0  0  0  0  0  0  0
   41.6720   30.8530   41.9260 H   0  0  0  0  0  0  0  0  0  0  0  0
   41.2220   29.8670   39.8050 H   0  0  0  0  0  0  0  0  0  0  0  0
   39.4220   30.3080   39.9460 H   0  0  0  0  0  0  0  0  0  0  0  0
   41.1700   28.4560   41.6610 H   0  0  0  0  0  0  0  0  0  0  0  0
   39.4570   28.1700   41.0150 H   0  0  0  0  0  0  0  0  0  0  0  0
   40.1720   29.3410   43.5640 H   0  0  0  0  0  0  0  0  0  0  0  0
   39.8100   31.6000   43.3160 H   0  0  0  0  0  0  0  0  0  0  0  0
   38.6400   31.4140   41.9620 H   0  0  0  0  0  0  0  0  0  0  0  0
   39.8440   34.5410   40.1030 C   0  0  0  0  0  0  0  0  0  0  0  0
   39.6710   33.3190   40.7460 C   0  0  0  0  0  0  0  0  0  0  0  0
   40.7840   32.4910   40.8310 C   0  0  0  0  0  0  0  0  0  0  0  0
   42.0030   32.8850   40.2900 N   0  0  0  0  0  0  0  0  0  0  0  0
   42.1160   34.0920   39.6700 C   0  0  0  0  0  0  0  0  0  0  0  0
   41.0320   34.9110   39.5830 N   0  0  0  0  0  0  0  0  0  0  0  0
   38.9850   35.2020   40.0290 H   0  0  0  0  0  0  0  0  0  0  0  0
   38.7460   32.9720   41.1800 H   0  0  0  0  0  0  0  0  0  0  0  0
   43.1040   34.3010   39.2850 H   0  0  0  0  0  0  0  0  0  0  0  0
   38.0990   29.1310   42.8970 C   0  0  2  0  0  0  0  0  0  0  0  0
   37.8860   27.7920   43.4260 C   0  0  0  0  0  0  0  0  0  0  0  0
   37.4260   28.1500   42.0470 C   0  0  1  0  0  0  0  0  0  0  0  0
   37.4830   29.9510   43.3070 H   0  0  0  0  0  0  0  0  0  0  0  0
   38.7660   27.0880   43.4710 H   0  0  0  0  0  0  0  0  0  0  0  0
   37.1300   27.5420   44.1980 H   0  0  0  0  0  0  0  0  0  0  0  0
   37.9620   27.9060   41.1220 H   0  0  0  0  0  0  0  0  0  0  0  0
   36.0300   28.3020   41.8540 O   0  0  0  0  0  0  0  0  0  0  0  0
   34.5300   29.1180   39.8850 O   0  0  0  0  0  0  0  0  0  0  0  0
   35.7890   29.4490   40.6490 P   0  0  1  0  0  0  0  0  0  0  0  0
   35.5620   30.9950   41.3580 O   0  0  0  0  0  0  0  0  0  0  0  0
   34.5990   31.1090   41.5160 H   0  0  0  0  0  0  0  0  0  0  0  0
   37.0390   29.5980   39.5710 O   0  0  0  0  0  0  0  0  0  0  0  0
   36.7750   30.4410   38.5020 C   0  0  0  0  0  3  0  0  0  0  0  0
   37.7520   30.7380   37.4390 C   0  0  0  0  0  2  0  0  0  0  0  0
   37.3700   31.8060   38.4810 C   0  0  0  0  0  2  0  0  0  0  0  0
  1  6  1  1  0  0  0
  1  5  1  0  0  0  0
  2  3  1  0  0  0  0
  2  1  1  0  0  0  0
  3  9  1  0  0  0  0
  3  4  1  0  0  0  0
  4 23  1  0  0  0  0
  4 11  1  1  0  0  0
  5  4  1  0  0  0  0
  5 12  1  0  0  0  0
  7  2  1  0  0  0  0
  8  2  1  0  0  0  0
 10  3  1  0  0  0  0
 13  5  1  0  0  0  0
 14 15  1  0  0  0  0
 15 16  2  0  0  0  0
 15 21  1  0  0  0  0
 16  1  1  0  0  0  0
 17 16  1  0  0  0  0
 18 17  2  0  0  0  0
 19 18  1  0  0  0  0
 19 14  2  0  0  0  0
 20 14  1  0  0  0  0
 22 18  1  0  0  0  0
 23 26  1  1  0  0  0
 23 24  1  0  0  0  0
 24 27  1  0  0  0  0
 24 28  1  0  0  0  0
 25 29  1  6  0  0  0
 25 23  1  0  0  0  0
 25 24  1  0  0  0  0
 30 25  1  0  0  0  0
 32 31  2  6  0  0  0
 32 33  1  0  0  0  0
 32 30  1  0  0  0  0
 33 34  1  0  0  0  0
 35 32  1  0  0  0  0
 36 35  1  0  0  0  0
 37 38  1  0  0  0  0
 37 36  1  0  0  0  0
 38 36  1  0  0  0  0
M  END
>  <minimizedAffinity>
-5.52321863

$$$$

 OpenBabel03252507563D

 38 41  0  0  1  0  0  0  0  0999 V2000
   37.5370   30.7510   40.1590 C   0  0  2  0  0  0  0  0  0  0  0  0
   36.2340   30.7810   40.9660 C   0  0  0  0  0  0  0  0  0  0  0  0
   35.9290   29.2670   40.9060 C   0  0  0  0  0  0  0  0  0  0  0  0
   37.2650   28.6010   41.0070 C   0  0  1  0  0  0  0  0  0  0  0  0
   38.2810   29.7030   40.9410 C   0  0  0  0  0  0  0  0  0  0  0  0
   37.2840   30.4370   39.1460 H   0  0  0  0  0  0  0  0  0  0  0  0
   35.4770   31.3460   40.4030 H   0  0  0  0  0  0  0  0  0  0  0  0
   36.4200   31.1090   41.9880 H   0  0  0  0  0  0  0  0  0  0  0  0
   35.4020   29.0610   39.9400 H   0  0  0  0  0  0  0  0  0  0  0  0
   35.3170   28.9980   41.7910 H   0  0  0  0  0  0  0  0  0  0  0  0
   37.4280   27.9360   40.1170 H   0  0  0  0  0  0  0  0  0  0  0  0
   39.1700   29.4270   40.3210 H   0  0  0  0  0  0  0  0  0  0  0  0
   38.6180   30.0820   41.9030 H   0  0  0  0  0  0  0  0  0  0  0  0
   38.3090   34.4340   39.9890 C   0  0  0  0  0  0  0  0  0  0  0  0
   37.5540   33.2660   39.9500 C   0  0  0  0  0  0  0  0  0  0  0  0
   38.2260   32.0750   40.1970 C   0  0  0  0  0  0  0  0  0  0  0  0
   39.5900   32.0730   40.4690 N   0  0  0  0  0  0  0  0  0  0  0  0
   40.2810   33.2460   40.4940 C   0  0  0  0  0  0  0  0  0  0  0  0
   39.6320   34.4190   40.2530 N   0  0  0  0  0  0  0  0  0  0  0  0
   37.8010   35.3740   39.7980 H   0  0  0  0  0  0  0  0  0  0  0  0
   36.4960   33.2190   39.7430 H   0  0  0  0  0  0  0  0  0  0  0  0
   41.3340   33.1350   40.7140 H   0  0  0  0  0  0  0  0  0  0  0  0
   37.4950   27.8560   42.3030 C   0  0  2  0  0  0  0  0  0  0  0  0
   38.0180   28.6410   43.4110 C   0  0  0  0  0  0  0  0  0  0  0  0
   38.8400   27.5560   42.7880 C   0  0  1  0  0  0  0  0  0  0  0  0
   36.7010   27.1180   42.5240 H   0  0  0  0  0  0  0  0  0  0  0  0
   38.3710   29.6920   43.2020 H   0  0  0  0  0  0  0  0  0  0  0  0
   37.6860   28.5290   44.4630 H   0  0  0  0  0  0  0  0  0  0  0  0
   39.6350   27.7150   42.0500 H   0  0  0  0  0  0  0  0  0  0  0  0
   39.0140   26.3680   43.5410 O   0  0  0  0  0  0  0  0  0  0  0  0
   41.1850   25.5710   42.3400 O   0  0  0  0  0  0  0  0  0  0  0  0
   39.7320   25.2180   42.5470 P   0  0  1  0  0  0  0  0  0  0  0  0
   39.6860   23.6820   43.3120 O   0  0  0  0  0  0  0  0  0  0  0  0
   40.5110   23.5910   43.8400 H   0  0  0  0  0  0  0  0  0  0  0  0
   39.0150   25.0340   41.0650 O   0  0  0  0  0  0  0  0  0  0  0  0
   37.9990   24.0920   41.0330 C   0  0  0  0  0  3  0  0  0  0  0  0
   36.8010   24.2160   40.1840 C   0  0  0  0  0  2  0  0  0  0  0  0
   36.7050   24.3860   41.7120 C   0  0  0  0  0  2  0  0  0  0  0  0
  1  6  1  6  0  0  0
  1 16  1  0  0  0  0
  1  5  1  0  0  0  0
  1  2  1  0  0  0  0
  2  8  1  0  0  0  0
  3  2  1  0  0  0  0
  3  4  1  0  0  0  0
  3 10  1  0  0  0  0
  4 11  1  6  0  0  0
  4 23  1  0  0  0  0
  5  4  1  0  0  0  0
  5 13  1  0  0  0  0
  7  2  1  0  0  0  0
  9  3  1  0  0  0  0
 12  5  1  0  0  0  0
 14 19  1  0  0  0  0
 15 14  2  0  0  0  0
 15 16  1  0  0  0  0
 16 17  2  0  0  0  0
 17 18  1  0  0  0  0
 18 22  1  0  0  0  0
 19 18  2  0  0  0  0
 20 14  1  0  0  0  0
 21 15  1  0  0  0  0
 23 26  1  1  0  0  0
 23 25  1  0  0  0  0
 23 24  1  0  0  0  0
 24 28  1  0  0  0  0
 25 29  1  6  0  0  0
 25 24  1  0  0  0  0
 25 30  1  0  0  0  0
 27 24  1  0  0  0  0
 32 31  2  6  0  0  0
 32 33  1  0  0  0  0
 32 30  1  0  0  0  0
 33 34  1  0  0  0  0
 35 32  1  0  0  0  0
 36 35  1  0  0  0  0
 36 38  1  0  0  0  0
 37 36  1  0  0  0  0
 37 38  1  0  0  0  0
M  END
>  <minimizedAffinity>
-5.46339178

$$$$

 OpenBabel03252507563D

 38 41  0  0  1  0  0  0  0  0999 V2000
   36.6430   28.4310   41.9740 C   0  0  2  0  0  0  0  0  0  0  0  0
   36.1610   28.0860   40.5610 C   0  0  0  0  0  0  0  0  0  0  0  0
   35.3380   29.3710   40.3130 C   0  0  0  0  0  0  0  0  0  0  0  0
   36.1250   30.4640   40.9660 C   0  0  1  0  0  0  0  0  0  0  0  0
   37.2420   29.7850   41.7000 C   0  0  0  0  0  0  0  0  0  0  0  0
   35.7640   28.4690   42.6170 H   0  0  0  0  0  0  0  0  0  0  0  0
   35.4970   27.2120   40.6120 H   0  0  0  0  0  0  0  0  0  0  0  0
   37.0020   28.0140   39.8720 H   0  0  0  0  0  0  0  0  0  0  0  0
   34.3250   29.2220   40.7660 H   0  0  0  0  0  0  0  0  0  0  0  0
   35.2930   29.5540   39.2200 H   0  0  0  0  0  0  0  0  0  0  0  0
   35.4890   30.9890   41.7270 H   0  0  0  0  0  0  0  0  0  0  0  0
   37.4360   30.2450   42.7010 H   0  0  0  0  0  0  0  0  0  0  0  0
   38.1790   29.7070   41.1530 H   0  0  0  0  0  0  0  0  0  0  0  0
   39.5170   26.7830   43.7680 C   0  0  0  0  0  0  0  0  0  0  0  0
   38.6000   27.7720   43.4250 C   0  0  0  0  0  0  0  0  0  0  0  0
   37.6640   27.4510   42.4490 C   0  0  0  0  0  0  0  0  0  0  0  0
   37.6620   26.1930   41.8560 N   0  0  0  0  0  0  0  0  0  0  0  0
   38.5840   25.2620   42.2280 C   0  0  0  0  0  0  0  0  0  0  0  0
   39.5050   25.5680   43.1840 N   0  0  0  0  0  0  0  0  0  0  0  0
   40.2550   27.0170   44.5290 H   0  0  0  0  0  0  0  0  0  0  0  0
   38.5630   28.7600   43.8580 H   0  0  0  0  0  0  0  0  0  0  0  0
   38.4960   24.3190   41.7070 H   0  0  0  0  0  0  0  0  0  0  0  0
   36.7530   31.4430   40.0000 C   0  0  2  0  0  0  0  0  0  0  0  0
   36.9750   30.9570   38.6460 C   0  0  0  0  0  0  0  0  0  0  0  0
   38.1310   31.2890   39.5380 C   0  0  1  0  0  0  0  0  0  0  0  0
   36.3730   32.4740   40.1210 H   0  0  0  0  0  0  0  0  0  0  0  0
   36.8250   29.8580   38.4410 H   0  0  0  0  0  0  0  0  0  0  0  0
   36.8070   31.5630   37.7330 H   0  0  0  0  0  0  0  0  0  0  0  0
   38.7200   30.5560   40.1020 H   0  0  0  0  0  0  0  0  0  0  0  0
   38.8550   32.4690   39.2380 O   0  0  0  0  0  0  0  0  0  0  0  0
   40.9660   33.5810   40.2890 O   0  0  0  0  0  0  0  0  0  0  0  0
   39.6260   32.9810   40.6420 P   0  0  1  0  0  0  0  0  0  0  0  0
   38.6990   34.2150   41.3940 O   0  0  0  0  0  0  0  0  0  0  0  0
   39.0060   35.0760   41.0340 H   0  0  0  0  0  0  0  0  0  0  0  0
   39.8580   31.7990   41.7790 O   0  0  0  0  0  0  0  0  0  0  0  0
   41.0130   31.0540   41.6040 C   0  0  0  0  0  3  0  0  0  0  0  0
   41.0150   29.6290   41.2290 C   0  0  0  0  0  2  0  0  0  0  0  0
   41.4190   30.0720   42.6480 C   0  0  0  0  0  2  0  0  0  0  0  0
  1 16  1  0  0  0  0
  1  6  1  1  0  0  0
  2  7  1  0  0  0  0
  2  1  1  0  0  0  0
  3  2  1  0  0  0  0
  3  9  1  0  0  0  0
  3  4  1  0  0  0  0
  4  5  1  0  0  0  0
  4 11  1  1  0  0  0
  5  1  1  0  0  0  0
  5 12  1  0  0  0  0
  8  2  1  0  0  0  0
 10  3  1  0  0  0  0
 13  5  1  0  0  0  0
 14 20  1  0  0  0  0
 15 14  1  0  0  0  0
 15 21  1  0  0  0  0
 16 15  2  0  0  0  0
 17 18  2  0  0  0  0
 17 16  1  0  0  0  0
 18 19  1  0  0  0  0
 19 14  2  0  0  0  0
 22 18  1  0  0  0  0
 23 26  1  1  0  0  0
 23  4  1  0  0  0  0
 24 25  1  0  0  0  0
 24 23  1  0  0  0  0
 25 23  1  0  0  0  0
 25 29  1  1  0  0  0
 27 24  1  0  0  0  0
 28 24  1  0  0  0  0
 30 25  1  0  0  0  0
 30 32  1  0  0  0  0
 32 31  2  6  0  0  0
 32 33  1  0  0  0  0
 32 35  1  0  0  0  0
 34 33  1  0  0  0  0
 36 35  1  0  0  0  0
 36 38  1  0  0  0  0
 37 36  1  0  0  0  0
 37 38  1  0  0  0  0
M  END
>  <minimizedAffinity>
-5.44530821

$$$$

 OpenBabel03252507563D

 38 41  0  0  1  0  0  0  0  0999 V2000
   37.1420   29.1650   42.1140 C   0  0  2  0  0  0  0  0  0  0  0  0
   38.1180   28.8940   43.2640 C   0  0  0  0  0  0  0  0  0  0  0  0
   37.6350   27.4650   43.6010 C   0  0  0  0  0  0  0  0  0  0  0  0
   37.3020   26.8490   42.2780 C   0  0  1  0  0  0  0  0  0  0  0  0
   37.4230   27.9510   41.2680 C   0  0  0  0  0  0  0  0  0  0  0  0
   36.1380   29.1760   42.5350 H   0  0  0  0  0  0  0  0  0  0  0  0
   37.8940   29.5790   44.0930 H   0  0  0  0  0  0  0  0  0  0  0  0
   39.1470   28.8910   42.9060 H   0  0  0  0  0  0  0  0  0  0  0  0
   36.7520   27.5540   44.2840 H   0  0  0  0  0  0  0  0  0  0  0  0
   38.4760   26.9100   44.0630 H   0  0  0  0  0  0  0  0  0  0  0  0
   36.2340   26.5030   42.2770 H   0  0  0  0  0  0  0  0  0  0  0  0
   36.6110   27.9160   40.4990 H   0  0  0  0  0  0  0  0  0  0  0  0
   38.3870   28.0220   40.7700 H   0  0  0  0  0  0  0  0  0  0  0  0
   37.0500   32.2050   39.8920 C   0  0  0  0  0  0  0  0  0  0  0  0
   36.6100   31.0390   40.5100 C   0  0  0  0  0  0  0  0  0  0  0  0
   37.4840   30.4340   41.4050 C   0  0  0  0  0  0  0  0  0  0  0  0
   38.7360   30.9850   41.6550 N   0  0  0  0  0  0  0  0  0  0  0  0
   39.1170   32.1280   41.0210 C   0  0  0  0  0  0  0  0  0  0  0  0
   38.2680   32.7290   40.1430 N   0  0  0  0  0  0  0  0  0  0  0  0
   36.3800   32.6930   39.1900 H   0  0  0  0  0  0  0  0  0  0  0  0
   35.6480   30.5770   40.3470 H   0  0  0  0  0  0  0  0  0  0  0  0
   40.1080   32.4710   41.2850 H   0  0  0  0  0  0  0  0  0  0  0  0
   38.2410   25.7440   41.8510 C   0  0  2  0  0  0  0  0  0  0  0  0
   37.8370   24.3880   42.1930 C   0  0  0  0  0  0  0  0  0  0  0  0
   39.0490   25.0050   42.8200 C   0  0  1  0  0  0  0  0  0  0  0  0
   38.6820   25.9130   40.8510 H   0  0  0  0  0  0  0  0  0  0  0  0
   36.9550   24.2520   42.8830 H   0  0  0  0  0  0  0  0  0  0  0  0
   37.9620   23.5140   41.5230 H   0  0  0  0  0  0  0  0  0  0  0  0
   39.0800   25.4530   43.8210 H   0  0  0  0  0  0  0  0  0  0  0  0
   40.3100   24.5250   42.3890 O   0  0  0  0  0  0  0  0  0  0  0  0
   40.9680   26.3210   44.1590 O   0  0  0  0  0  0  0  0  0  0  0  0
   41.4920   25.5770   42.9540 P   0  0  1  0  0  0  0  0  0  0  0  0
   42.8650   24.6840   43.4670 O   0  0  0  0  0  0  0  0  0  0  0  0
   42.7420   24.4740   44.4190 H   0  0  0  0  0  0  0  0  0  0  0  0
   42.0300   26.6820   41.8430 O   0  0  0  0  0  0  0  0  0  0  0  0
   41.2320   27.8080   41.7220 C   0  0  0  0  0  3  0  0  0  0  0  0
   41.0650   28.5570   40.4630 C   0  0  0  0  0  2  0  0  0  0  0  0
   41.8680   29.1530   41.6350 C   0  0  0  0  0  2  0  0  0  0  0  0
  1  6  1  1  0  0  0
  1  2  1  0  0  0  0
  2  3  1  0  0  0  0
  2  7  1  0  0  0  0
  3 10  1  0  0  0  0
  3  9  1  0  0  0  0
  4 11  1  1  0  0  0
  4  3  1  0  0  0  0
  5  1  1  0  0  0  0
  5  4  1  0  0  0  0
  8  2  1  0  0  0  0
 12  5  1  0  0  0  0
 13  5  1  0  0  0  0
 14 19  2  0  0  0  0
 14 15  1  0  0  0  0
 15 16  2  0  0  0  0
 16 17  1  0  0  0  0
 16  1  1  0  0  0  0
 18 22  1  0  0  0  0
 18 17  2  0  0  0  0
 19 18  1  0  0  0  0
 20 14  1  0  0  0  0
 21 15  1  0  0  0  0
 23 26  1  6  0  0  0
 23 24  1  0  0  0  0
 23  4  1  0  0  0  0
 23 25  1  0  0  0  0
 24 25  1  0  0  0  0
 24 27  1  0  0  0  0
 25 29  1  1  0  0  0
 28 24  1  0  0  0  0
 30 25  1  0  0  0  0
 30 32  1  0  0  0  0
 32 33  1  0  0  0  0
 32 31  2  1  0  0  0
 33 34  1  0  0  0  0
 35 32  1  0  0  0  0
 36 35  1  0  0  0  0
 37 38  1  0  0  0  0
 37 36  1  0  0  0  0
 38 36  1  0  0  0  0
M  END
>  <minimizedAffinity>
-5.25171137

$$$$

 OpenBabel03252507563D

 38 41  0  0  1  0  0  0  0  0999 V2000
   37.8480   26.5950   42.2440 C   0  0  2  0  0  0  0  0  0  0  0  0
   36.7060   26.9320   43.2090 C   0  0  0  0  0  0  0  0  0  0  0  0
   37.2620   28.2840   43.7100 C   0  0  0  0  0  0  0  0  0  0  0  0
   37.9010   28.9060   42.5080 C   0  0  1  0  0  0  0  0  0  0  0  0
   37.8590   27.8620   41.4320 C   0  0  0  0  0  0  0  0  0  0  0  0
   38.7480   26.4550   42.8410 H   0  0  0  0  0  0  0  0  0  0  0  0
   36.6980   26.1960   44.0250 H   0  0  0  0  0  0  0  0  0  0  0  0
   35.7690   27.0630   42.6680 H   0  0  0  0  0  0  0  0  0  0  0  0
   37.9870   28.0710   44.5370 H   0  0  0  0  0  0  0  0  0  0  0  0
   36.4110   28.9130   44.0400 H   0  0  0  0  0  0  0  0  0  0  0  0
   38.9800   29.1290   42.7220 H   0  0  0  0  0  0  0  0  0  0  0  0
   38.8010   27.8340   40.8280 H   0  0  0  0  0  0  0  0  0  0  0  0
   37.0040   27.9190   40.7610 H   0  0  0  0  0  0  0  0  0  0  0  0
   37.6700   23.1070   40.8320 C   0  0  0  0  0  0  0  0  0  0  0  0
   38.0300   24.1390   41.6930 C   0  0  0  0  0  0  0  0  0  0  0  0
   37.5170   25.3990   41.4130 C   0  0  0  0  0  0  0  0  0  0  0  0
   36.6830   25.5980   40.3170 N   0  0  0  0  0  0  0  0  0  0  0  0
   36.3630   24.5520   39.5060 C   0  0  0  0  0  0  0  0  0  0  0  0
   36.8620   23.3130   39.7720 N   0  0  0  0  0  0  0  0  0  0  0  0
   38.0620   22.1140   41.0360 H   0  0  0  0  0  0  0  0  0  0  0  0
   38.6720   24.0320   42.5540 H   0  0  0  0  0  0  0  0  0  0  0  0
   35.7120   24.8130   38.6840 H   0  0  0  0  0  0  0  0  0  0  0  0
   37.1790   30.1250   41.9790 C   0  0  2  0  0  0  0  0  0  0  0  0
   36.3380   29.9160   40.8090 C   0  0  0  0  0  0  0  0  0  0  0  0
   37.5690   30.7630   40.7230 C   0  0  1  0  0  0  0  0  0  0  0  0
   36.7920   30.7810   42.7800 H   0  0  0  0  0  0  0  0  0  0  0  0
   36.3990   28.9230   40.2770 H   0  0  0  0  0  0  0  0  0  0  0  0
   35.3450   30.3900   40.6640 H   0  0  0  0  0  0  0  0  0  0  0  0
   38.5340   30.4300   40.3250 H   0  0  0  0  0  0  0  0  0  0  0  0
   37.3790   32.1630   40.6150 O   0  0  0  0  0  0  0  0  0  0  0  0
   39.3600   33.1870   39.2660 O   0  0  0  0  0  0  0  0  0  0  0  0
   38.8880   32.9020   40.6720 P   0  0  1  0  0  0  0  0  0  0  0  0
   38.7640   34.4110   41.4810 O   0  0  0  0  0  0  0  0  0  0  0  0
   38.5680   35.0950   40.8020 H   0  0  0  0  0  0  0  0  0  0  0  0
   40.0590   32.0340   41.4590 O   0  0  0  0  0  0  0  0  0  0  0  0
   41.3080   32.0850   40.8610 C   0  0  0  0  0  3  0  0  0  0  0  0
   42.5520   31.6720   41.5360 C   0  0  0  0  0  2  0  0  0  0  0  0
   42.2650   33.1580   41.2500 C   0  0  0  0  0  2  0  0  0  0  0  0
  1  6  1  1  0  0  0
  1  2  1  0  0  0  0
  2  3  1  0  0  0  0
  2  7  1  0  0  0  0
  3 10  1  0  0  0  0
  3  9  1  0  0  0  0
  4 11  1  1  0  0  0
  4  3  1  0  0  0  0
  5  1  1  0  0  0  0
  5  4  1  0  0  0  0
  8  2  1  0  0  0  0
 12  5  1  0  0  0  0
 13  5  1  0  0  0  0
 14 20  1  0  0  0  0
 14 15  1  0  0  0  0
 15 21  1  0  0  0  0
 16 15  2  0  0  0  0
 16  1  1  0  0  0  0
 17 16  1  0  0  0  0
 18 19  1  0  0  0  0
 18 17  2  0  0  0  0
 19 14  2  0  0  0  0
 22 18  1  0  0  0  0
 23  4  1  0  0  0  0
 23 26  1  1  0  0  0
 24 23  1  0  0  0  0
 25 29  1  6  0  0  0
 25 24  1  0  0  0  0
 25 23  1  0  0  0  0
 27 24  1  0  0  0  0
 28 24  1  0  0  0  0
 30 32  1  0  0  0  0
 30 25  1  0  0  0  0
 32 31  2  6  0  0  0
 32 35  1  0  0  0  0
 32 33  1  0  0  0  0
 34 33  1  0  0  0  0
 36 38  1  0  0  0  0
 36 35  1  0  0  0  0
 36 37  1  0  0  0  0
 38 37  1  0  0  0  0
M  END
>  <minimizedAffinity>
-5.24321461

$$$$

 OpenBabel03252507563D

 38 41  0  0  1  0  0  0  0  0999 V2000
   38.0410   26.2410   42.3280 C   0  0  2  0  0  0  0  0  0  0  0  0
   36.9360   27.2900   42.4930 C   0  0  0  0  0  0  0  0  0  0  0  0
   37.7560   28.3180   43.3040 C   0  0  0  0  0  0  0  0  0  0  0  0
   39.1330   28.2580   42.7180 C   0  0  1  0  0  0  0  0  0  0  0  0
   39.1190   27.1150   41.7470 C   0  0  0  0  0  0  0  0  0  0  0  0
   38.2790   25.8620   43.3210 H   0  0  0  0  0  0  0  0  0  0  0  0
   36.1310   26.8690   43.1120 H   0  0  0  0  0  0  0  0  0  0  0  0
   36.6380   27.6930   41.5250 H   0  0  0  0  0  0  0  0  0  0  0  0
   37.7190   28.0130   44.3810 H   0  0  0  0  0  0  0  0  0  0  0  0
   37.3270   29.3250   43.1300 H   0  0  0  0  0  0  0  0  0  0  0  0
   39.8780   28.0120   43.5210 H   0  0  0  0  0  0  0  0  0  0  0  0
   40.0600   26.5120   41.7840 H   0  0  0  0  0  0  0  0  0  0  0  0
   38.9060   27.3850   40.7140 H   0  0  0  0  0  0  0  0  0  0  0  0
   36.3680   24.2900   39.5730 C   0  0  0  0  0  0  0  0  0  0  0  0
   36.6960   25.3800   40.3740 C   0  0  0  0  0  0  0  0  0  0  0  0
   37.6240   25.1620   41.3840 C   0  0  0  0  0  0  0  0  0  0  0  0
   38.1870   23.9030   41.5690 N   0  0  0  0  0  0  0  0  0  0  0  0
   37.8300   22.8700   40.7570 C   0  0  0  0  0  0  0  0  0  0  0  0
   36.9210   23.0750   39.7640 N   0  0  0  0  0  0  0  0  0  0  0  0
   35.6450   24.4430   38.7780 H   0  0  0  0  0  0  0  0  0  0  0  0
   36.2850   26.3730   40.2670 H   0  0  0  0  0  0  0  0  0  0  0  0
   38.3240   21.9360   40.9850 H   0  0  0  0  0  0  0  0  0  0  0  0
   39.5370   29.4960   41.9490 C   0  0  2  0  0  0  0  0  0  0  0  0
   39.8260   30.6800   42.7440 C   0  0  0  0  0  0  0  0  0  0  0  0
   38.6450   30.6470   41.8240 C   0  0  1  0  0  0  0  0  0  0  0  0
   40.2010   29.2750   41.0930 H   0  0  0  0  0  0  0  0  0  0  0  0
   39.5790   30.6590   43.8450 H   0  0  0  0  0  0  0  0  0  0  0  0
   40.6560   31.3840   42.5320 H   0  0  0  0  0  0  0  0  0  0  0  0
   37.6110   30.4570   42.1350 H   0  0  0  0  0  0  0  0  0  0  0  0
   38.7340   31.4160   40.6370 O   0  0  0  0  0  0  0  0  0  0  0  0
   36.1790   31.1740   41.0920 O   0  0  0  0  0  0  0  0  0  0  0  0
   37.1730   31.7480   40.1110 P   0  0  1  0  0  0  0  0  0  0  0  0
   36.9240   33.4460   40.0700 O   0  0  0  0  0  0  0  0  0  0  0  0
   36.5740   33.7140   40.9490 H   0  0  0  0  0  0  0  0  0  0  0  0
   36.8120   31.1770   38.5980 O   0  0  0  0  0  0  0  0  0  0  0  0
   36.3970   29.8560   38.5680 C   0  0  0  0  0  3  0  0  0  0  0  0
   37.3000   28.7130   38.7920 C   0  0  0  0  0  2  0  0  0  0  0  0
   36.7330   29.0070   37.3910 C   0  0  0  0  0  2  0  0  0  0  0  0
  1  2  1  0  0  0  0
  1  6  1  1  0  0  0
  2  7  1  0  0  0  0
  2  3  1  0  0  0  0
  3  9  1  0  0  0  0
  4  3  1  0  0  0  0
  4 11  1  1  0  0  0
  5 12  1  0  0  0  0
  5  1  1  0  0  0  0
  5  4  1  0  0  0  0
  8  2  1  0  0  0  0
 10  3  1  0  0  0  0
 13  5  1  0  0  0  0
 14 19  2  0  0  0  0
 14 15  1  0  0  0  0
 15 16  2  0  0  0  0
 16 17  1  0  0  0  0
 16  1  1  0  0  0  0
 18 22  1  0  0  0  0
 18 17  2  0  0  0  0
 19 18  1  0  0  0  0
 20 14  1  0  0  0  0
 21 15  1  0  0  0  0
 23 26  1  6  0  0  0
 23  4  1  0  0  0  0
 23 24  1  0  0  0  0
 24 27  1  0  0  0  0
 25 23  1  0  0  0  0
 25 29  1  1  0  0  0
 25 24  1  0  0  0  0
 28 24  1  0  0  0  0
 30 25  1  0  0  0  0
 32 30  1  0  0  0  0
 32 31  2  1  0  0  0
 33 32  1  0  0  0  0
 33 34  1  0  0  0  0
 35 32  1  0  0  0  0
 36 35  1  0  0  0  0
 36 37  1  0  0  0  0
 38 36  1  0  0  0  0
 38 37  1  0  0  0  0
M  END
>  <minimizedAffinity>
-5.23781919

$$$$

 OpenBabel03252507563D

 38 41  0  0  1  0  0  0  0  0999 V2000
   38.8000   31.5410   38.4600 C   0  0  2  0  0  0  0  0  0  0  0  0
   37.2990   31.7990   38.6280 C   0  0  0  0  0  0  0  0  0  0  0  0
   36.7980   30.4890   37.9800 C   0  0  0  0  0  0  0  0  0  0  0  0
   37.7870   29.4480   38.4040 C   0  0  1  0  0  0  0  0  0  0  0  0
   38.8870   30.1850   39.1070 C   0  0  0  0  0  0  0  0  0  0  0  0
   39.0090   31.5240   37.3900 H   0  0  0  0  0  0  0  0  0  0  0  0
   37.0120   32.6640   38.0140 H   0  0  0  0  0  0  0  0  0  0  0  0
   37.0310   31.8480   39.6840 H   0  0  0  0  0  0  0  0  0  0  0  0
   36.7670   30.6450   36.8710 H   0  0  0  0  0  0  0  0  0  0  0  0
   35.8040   30.2450   38.4030 H   0  0  0  0  0  0  0  0  0  0  0  0
   38.2330   28.9540   37.5000 H   0  0  0  0  0  0  0  0  0  0  0  0
   39.8990   29.7850   38.8520 H   0  0  0  0  0  0  0  0  0  0  0  0
   38.7870   30.2480   40.1890 H   0  0  0  0  0  0  0  0  0  0  0  0
   41.5990   33.3940   40.1700 C   0  0  0  0  0  0  0  0  0  0  0  0
   40.9580   32.3820   39.4620 C   0  0  0  0  0  0  0  0  0  0  0  0
   39.6080   32.5640   39.1880 C   0  0  0  0  0  0  0  0  0  0  0  0
   38.9480   33.7120   39.6120 N   0  0  0  0  0  0  0  0  0  0  0  0
   39.6230   34.6720   40.3030 C   0  0  0  0  0  0  0  0  0  0  0  0
   40.9460   34.5020   40.5750 N   0  0  0  0  0  0  0  0  0  0  0  0
   42.6550   33.2690   40.3920 H   0  0  0  0  0  0  0  0  0  0  0  0
   41.4300   31.4760   39.1130 H   0  0  0  0  0  0  0  0  0  0  0  0
   39.0180   35.5220   40.5860 H   0  0  0  0  0  0  0  0  0  0  0  0
   37.2380   28.4270   39.3760 C   0  0  2  0  0  0  0  0  0  0  0  0
   35.8490   28.0370   39.1830 C   0  0  0  0  0  0  0  0  0  0  0  0
   36.2670   28.7930   40.4060 C   0  0  1  0  0  0  0  0  0  0  0  0
   37.9660   27.6330   39.6260 H   0  0  0  0  0  0  0  0  0  0  0  0
   35.2280   28.6220   38.4450 H   0  0  0  0  0  0  0  0  0  0  0  0
   35.4740   27.0000   39.2910 H   0  0  0  0  0  0  0  0  0  0  0  0
   36.1430   29.8720   40.5510 H   0  0  0  0  0  0  0  0  0  0  0  0
   36.3050   28.0710   41.6240 O   0  0  0  0  0  0  0  0  0  0  0  0
   37.7050   30.1960   42.1890 O   0  0  0  0  0  0  0  0  0  0  0  0
   37.4820   28.7620   42.6060 P   0  0  1  0  0  0  0  0  0  0  0  0
   36.9370   28.7860   44.2340 O   0  0  0  0  0  0  0  0  0  0  0  0
   36.4660   29.6370   44.3750 H   0  0  0  0  0  0  0  0  0  0  0  0
   38.9400   27.9760   42.6030 O   0  0  0  0  0  0  0  0  0  0  0  0
   39.0450   26.9590   43.5390 C   0  0  0  0  0  3  0  0  0  0  0  0
   40.3280   26.4890   44.0910 C   0  0  0  0  0  2  0  0  0  0  0  0
   39.5230   25.6150   43.1110 C   0  0  0  0  0  2  0  0  0  0  0  0
  1  6  1  6  0  0  0
  1  2  1  0  0  0  0
  1  5  1  0  0  0  0
  1 16  1  0  0  0  0
  2  8  1  0  0  0  0
  3 10  1  0  0  0  0
  3  4  1  0  0  0  0
  3  2  1  0  0  0  0
  4 11  1  6  0  0  0
  4  5  1  0  0  0  0
  4 23  1  0  0  0  0
  5 13  1  0  0  0  0
  7  2  1  0  0  0  0
  9  3  1  0  0  0  0
 12  5  1  0  0  0  0
 14 20  1  0  0  0  0
 14 19  1  0  0  0  0
 15 14  2  0  0  0  0
 16 15  1  0  0  0  0
 16 17  2  0  0  0  0
 17 18  1  0  0  0  0
 18 19  2  0  0  0  0
 18 22  1  0  0  0  0
 21 15  1  0  0  0  0
 23 26  1  1  0  0  0
 23 25  1  0  0  0  0
 24 28  1  0  0  0  0
 24 23  1  0  0  0  0
 24 25  1  0  0  0  0
 25 29  1  1  0  0  0
 25 30  1  0  0  0  0
 27 24  1  0  0  0  0
 30 32  1  0  0  0  0
 32 31  2  6  0  0  0
 32 33  1  0  0  0  0
 33 34  1  0  0  0  0
 35 32  1  0  0  0  0
 35 36  1  0  0  0  0
 36 37  1  0  0  0  0
 38 36  1  0  0  0  0
 38 37  1  0  0  0  0
M  END
>  <minimizedAffinity>
-5.18068981

$$$$

 OpenBabel03252507563D

 38 41  0  0  1  0  0  0  0  0999 V2000
   37.3970   31.7110   39.1350 C   0  0  2  0  0  0  0  0  0  0  0  0
   36.5860   31.4260   40.4040 C   0  0  0  0  0  0  0  0  0  0  0  0
   35.8210   30.1910   39.8780 C   0  0  0  0  0  0  0  0  0  0  0  0
   36.8090   29.4620   39.0220 C   0  0  1  0  0  0  0  0  0  0  0  0
   38.0130   30.3520   38.9330 C   0  0  0  0  0  0  0  0  0  0  0  0
   36.6900   31.9860   38.3530 H   0  0  0  0  0  0  0  0  0  0  0  0
   35.8910   32.2600   40.5800 H   0  0  0  0  0  0  0  0  0  0  0  0
   37.2440   31.1640   41.2320 H   0  0  0  0  0  0  0  0  0  0  0  0
   34.9270   30.5570   39.3100 H   0  0  0  0  0  0  0  0  0  0  0  0
   35.5450   29.5550   40.7430 H   0  0  0  0  0  0  0  0  0  0  0  0
   36.3990   29.3410   37.9850 H   0  0  0  0  0  0  0  0  0  0  0  0
   38.4580   30.3640   37.9070 H   0  0  0  0  0  0  0  0  0  0  0  0
   38.7950   30.1520   39.6620 H   0  0  0  0  0  0  0  0  0  0  0  0
   40.6270   33.6410   39.3040 C   0  0  0  0  0  0  0  0  0  0  0  0
   39.7540   32.6000   39.0020 C   0  0  0  0  0  0  0  0  0  0  0  0
   38.4270   32.7640   39.3770 C   0  0  0  0  0  0  0  0  0  0  0  0
   38.0100   33.9230   40.0240 N   0  0  0  0  0  0  0  0  0  0  0  0
   38.9070   34.9110   40.2960 C   0  0  0  0  0  0  0  0  0  0  0  0
   40.2100   34.7600   39.9320 N   0  0  0  0  0  0  0  0  0  0  0  0
   41.6690   33.5310   39.0170 H   0  0  0  0  0  0  0  0  0  0  0  0
   40.0320   31.6850   38.5020 H   0  0  0  0  0  0  0  0  0  0  0  0
   38.4820   35.7670   40.8010 H   0  0  0  0  0  0  0  0  0  0  0  0
   37.2710   28.1390   39.5920 C   0  0  2  0  0  0  0  0  0  0  0  0
   36.4400   26.9840   39.2890 C   0  0  0  0  0  0  0  0  0  0  0  0
   36.5630   27.4890   40.6930 C   0  0  1  0  0  0  0  0  0  0  0  0
   38.3680   28.0100   39.5510 H   0  0  0  0  0  0  0  0  0  0  0  0
   35.4390   27.1590   38.8000 H   0  0  0  0  0  0  0  0  0  0  0  0
   36.8390   25.9790   39.0400 H   0  0  0  0  0  0  0  0  0  0  0  0
   35.8270   28.1250   41.1990 H   0  0  0  0  0  0  0  0  0  0  0  0
   37.3300   26.7070   41.5920 O   0  0  0  0  0  0  0  0  0  0  0  0
   36.2370   27.3580   43.8670 O   0  0  0  0  0  0  0  0  0  0  0  0
   37.4790   27.5610   43.0320 P   0  0  1  0  0  0  0  0  0  0  0  0
   38.8040   26.9470   43.9350 O   0  0  0  0  0  0  0  0  0  0  0  0
   38.4600   26.2320   44.5140 H   0  0  0  0  0  0  0  0  0  0  0  0
   37.7370   29.1880   42.8540 O   0  0  0  0  0  0  0  0  0  0  0  0
   39.0630   29.5730   42.9680 C   0  0  0  0  0  3  0  0  0  0  0  0
   39.6020   30.8180   42.3910 C   0  0  0  0  0  2  0  0  0  0  0  0
   39.9670   29.4480   41.7900 C   0  0  0  0  0  2  0  0  0  0  0  0
  1  6  1  6  0  0  0
  1 16  1  0  0  0  0
  1  2  1  0  0  0  0
  2  7  1  0  0  0  0
  2  8  1  0  0  0  0
  3  2  1  0  0  0  0
  3 10  1  0  0  0  0
  4 11  1  6  0  0  0
  4 23  1  0  0  0  0
  4  3  1  0  0  0  0
  5  4  1  0  0  0  0
  5  1  1  0  0  0  0
  5 13  1  0  0  0  0
  9  3  1  0  0  0  0
 12  5  1  0  0  0  0
 14 19  1  0  0  0  0
 15 14  2  0  0  0  0
 15 16  1  0  0  0  0
 16 17  2  0  0  0  0
 17 18  1  0  0  0  0
 18 22  1  0  0  0  0
 19 18  2  0  0  0  0
 20 14  1  0  0  0  0
 21 15  1  0  0  0  0
 23 26  1  6  0  0  0
 23 25  1  0  0  0  0
 24 23  1  0  0  0  0
 24 25  1  0  0  0  0
 25 29  1  1  0  0  0
 25 30  1  0  0  0  0
 27 24  1  0  0  0  0
 28 24  1  0  0  0  0
 30 32  1  0  0  0  0
 32 31  2  1  0  0  0
 32 33  1  0  0  0  0
 33 34  1  0  0  0  0
 35 36  1  0  0  0  0
 35 32  1  0  0  0  0
 37 36  1  0  0  0  0
 38 37  1  0  0  0  0
 38 36  1  0  0  0  0
M  END
>  <minimizedAffinity>
-5.1705842

$$$$
