
 OpenBabel03252500443D

 28 30  0  0  1  0  0  0  0  0999 V2000
   47.6690   35.2560   41.8320 C   0  0  1  0  0  0  0  0  0  0  0  0
   49.1840   35.1970   41.7180 C   0  0  0  0  0  0  0  0  0  0  0  0
   48.3130   34.9880   40.5040 C   0  0  1  0  0  0  0  0  0  0  0  0
   47.3350   36.3110   41.9850 H   0  0  0  0  0  0  0  0  0  0  0  0
   49.6810   34.2690   42.1190 H   0  0  0  0  0  0  0  0  0  0  0  0
   49.7980   36.0920   41.7860 H   0  0  0  0  0  0  0  0  0  0  0  0
   48.3810   35.8140   39.7560 H   0  0  0  0  0  0  0  0  0  0  0  0
   47.0070   34.0970   42.4600 C   0  0  0  0  0  0  0  0  0  0  0  0
   46.2990   33.6530   41.7060 H   0  0  0  0  0  0  0  0  0  0  0  0
   47.7510   33.2930   42.6770 H   0  0  0  0  0  0  0  0  0  0  0  0
   46.1850   34.4170   43.6360 C   0  0  0  0  0  0  0  0  0  0  0  0
   45.4070   35.5320   43.4730 C   0  0  0  0  0  0  0  0  0  0  0  0
   44.5710   35.9650   44.5190 C   0  0  0  0  0  0  0  0  0  0  0  0
   44.6020   35.2000   45.6640 N   0  0  0  0  0  0  0  0  0  0  0  0
   45.3770   34.1060   45.7970 C   0  0  0  0  0  0  0  0  0  0  0  0
   46.1500   33.7340   44.7870 N   0  0  0  0  0  0  0  0  0  0  0  0
   45.2410   36.2410   42.6730 H   0  0  0  0  0  0  0  0  0  0  0  0
   43.9050   36.8120   44.5550 H   0  0  0  0  0  0  0  0  0  0  0  0
   45.3620   33.5420   46.7170 H   0  0  0  0  0  0  0  0  0  0  0  0
   48.2140   33.7060   40.0130 O   0  0  0  0  0  0  0  0  0  0  0  0
   46.9490   33.5000   37.6680 O   0  0  0  0  0  0  0  0  0  0  0  0
   48.3060   33.6470   38.3340 P   0  0  1  0  0  0  0  0  0  0  0  0
   49.0010   35.0990   37.7820 O   0  0  0  0  0  0  0  0  0  0  0  0
   48.6490   35.2600   36.8730 H   0  0  0  0  0  0  0  0  0  0  0  0
   49.3300   32.3590   37.9070 O   0  0  0  0  0  0  0  0  0  0  0  0
   49.6940   31.6210   39.0250 C   0  0  0  0  0  0  0  0  0  0  0  0
   51.1430   31.4550   39.2970 C   0  0  0  0  0  0  0  0  0  0  0  0
   50.3560   30.3030   38.7020 C   0  0  0  0  0  0  0  0  0  0  0  0
  1  4  1  1  0  0  0
  1  8  1  0  0  0  0
  2  6  1  0  0  0  0
  2  1  1  0  0  0  0
  2  5  1  0  0  0  0
  3  7  1  6  0  0  0
  3  2  1  0  0  0  0
  3  1  1  0  0  0  0
  8 10  1  0  0  0  0
  8 11  1  0  0  0  0
  9  8  1  0  0  0  0
 11 16  1  0  0  0  0
 12 11  2  0  0  0  0
 12 13  1  0  0  0  0
 13 18  1  0  0  0  0
 13 14  2  0  0  0  0
 14 15  1  0  0  0  0
 15 19  1  0  0  0  0
 16 15  2  0  0  0  0
 17 12  1  0  0  0  0
 20  3  1  0  0  0  0
 22 21  2  6  0  0  0
 22 20  1  0  0  0  0
 23 22  1  0  0  0  0
 24 23  1  0  0  0  0
 25 22  1  0  0  0  0
 25 26  1  0  0  0  0
 26 27  1  0  0  0  0
 28 26  1  0  0  0  0
 28 27  1  0  0  0  0
M  END
>  <minimizedAffinity>
-4.76122904

>  <minimizedRMSD>
2.41929626

$$$$
