
 OpenBabel03242522473D

 35 38  0  0  0  0  0  0  0  0999 V2000
   45.4170   35.2100   43.8540 C   0  0  0  0  0  0  0  0  0  0  0  0
   46.4810   34.4030   43.4120 C   0  0  0  0  0  0  0  0  0  0  0  0
   46.9680   33.3970   44.2760 C   0  0  0  0  0  0  0  0  0  0  0  0
   46.3620   33.2820   45.4880 N   0  0  0  0  0  0  0  0  0  0  0  0
   45.3490   34.0640   45.8850 C   0  0  0  0  0  0  0  0  0  0  0  0
   44.8860   35.0210   45.0610 N   0  0  0  0  0  0  0  0  0  0  0  0
   44.9280   36.2140   42.9970 N   0  0  0  0  0  0  0  0  0  0  0  0
   47.7760   32.7650   43.9720 H   0  0  0  0  0  0  0  0  0  0  0  0
   43.9170   36.4310   42.9860 H   0  0  0  0  0  0  0  0  0  0  0  0
   45.4710   36.8070   42.3310 H   0  0  0  0  0  0  0  0  0  0  0  0
   47.1020   34.5530   42.1130 C   0  0  0  0  0  0  0  0  0  0  0  0
   48.1870   35.3110   41.7550 C   0  0  0  0  0  0  0  0  0  0  0  0
   48.6410   35.3280   40.4490 C   0  0  0  0  0  0  0  0  0  0  0  0
   48.0270   34.5890   39.4560 C   0  0  0  0  0  0  0  0  0  0  0  0
   48.5350   34.6680   38.2220 N   0  0  0  0  0  0  0  0  0  0  0  0
   47.9440   33.9440   37.2120 C   0  0  0  0  0  0  0  0  0  0  0  0
   46.8530   33.1790   37.5540 C   0  0  0  0  0  0  0  0  0  0  0  0
   46.3140   33.0840   38.8190 C   0  0  0  0  0  0  0  0  0  0  0  0
   46.9280   33.8220   39.8140 C   0  0  0  0  0  0  0  0  0  0  0  0
   46.4650   33.7980   41.1210 C   0  0  0  0  0  0  0  0  0  0  0  0
   48.6270   35.8660   42.5730 H   0  0  0  0  0  0  0  0  0  0  0  0
   49.5110   35.9540   40.2360 H   0  0  0  0  0  0  0  0  0  0  0  0
   48.3290   33.9840   36.2000 H   0  0  0  0  0  0  0  0  0  0  0  0
   46.3570   32.5920   36.7870 H   0  0  0  0  0  0  0  0  0  0  0  0
   45.4530   32.4680   39.0460 H   0  0  0  0  0  0  0  0  0  0  0  0
   45.5980   33.1610   41.2810 H   0  0  0  0  0  0  0  0  0  0  0  0
   44.7760   33.8280   47.2370 C   0  0  0  0  0  0  0  0  0  0  0  0
   43.7450   33.3850   47.1180 H   0  0  0  0  0  0  0  0  0  0  0  0
   44.6820   34.7560   47.8120 H   0  0  0  0  0  0  0  0  0  0  0  0
   45.6160   32.7640   47.9670 C   0  0  0  0  0  0  0  0  0  0  0  0
   46.3810   32.4310   47.2400 H   0  0  0  0  0  0  0  0  0  0  0  0
   46.0630   33.2820   48.8500 H   0  0  0  0  0  0  0  0  0  0  0  0
   44.7390   31.6110   48.3650 C   0  0  0  0  0  0  0  0  0  0  0  0
   45.4090   30.6490   49.3490 C   0  0  0  0  0  0  0  0  0  0  0  0
   45.0850   30.2220   47.9810 C   0  0  0  0  0  0  0  0  0  0  0  0
  1  6  1  0  0  0  0
  2  1  2  0  0  0  0
  2  3  1  0  0  0  0
  3  4  2  0  0  0  0
  4  5  1  0  0  0  0
  5 27  1  0  0  0  0
  6  5  2  0  0  0  0
  7  1  1  0  0  0  0
  8  3  1  0  0  0  0
  9  7  1  0  0  0  0
 10  7  1  0  0  0  0
 11  2  1  0  0  0  0
 12 11  1  0  0  0  0
 12 21  1  0  0  0  0
 13 12  2  0  0  0  0
 14 19  1  0  0  0  0
 14 13  1  0  0  0  0
 15 14  2  0  0  0  0
 16 17  2  0  0  0  0
 16 15  1  0  0  0  0
 17 18  1  0  0  0  0
 18 25  1  0  0  0  0
 18 19  2  0  0  0  0
 19 20  1  0  0  0  0
 20 26  1  0  0  0  0
 20 11  2  0  0  0  0
 22 13  1  0  0  0  0
 23 16  1  0  0  0  0
 24 17  1  0  0  0  0
 27 29  1  0  0  0  0
 27 30  1  0  0  0  0
 28 27  1  0  0  0  0
 30 33  1  0  0  0  0
 30 32  1  0  0  0  0
 31 30  1  0  0  0  0
 33 34  1  0  0  0  0
 35 33  1  0  0  0  0
 35 34  1  0  0  0  0
M  END
>  <minimizedAffinity>
-6.32878542

>  <minimizedRMSD>
0.705158412

$$$$
