
 OpenBabel03252500453D

 28 30  0  0  1  0  0  0  0  0999 V2000
   36.9140   27.1780   42.8630 C   0  0  1  0  0  0  0  0  0  0  0  0
   37.3500   28.3840   43.6800 C   0  0  0  0  0  0  0  0  0  0  0  0
   36.6890   28.5640   42.3360 C   0  0  1  0  0  0  0  0  0  0  0  0
   36.0150   26.7030   43.3270 H   0  0  0  0  0  0  0  0  0  0  0  0
   38.4550   28.5990   43.7050 H   0  0  0  0  0  0  0  0  0  0  0  0
   36.8200   28.6870   44.5800 H   0  0  0  0  0  0  0  0  0  0  0  0
   35.6670   29.0090   42.3950 H   0  0  0  0  0  0  0  0  0  0  0  0
   37.9810   26.4100   42.1940 C   0  0  0  0  0  0  0  0  0  0  0  0
   38.5800   27.1280   41.5660 H   0  0  0  0  0  0  0  0  0  0  0  0
   38.7000   26.0040   42.9460 H   0  0  0  0  0  0  0  0  0  0  0  0
   37.5090   25.3710   41.2680 C   0  0  0  0  0  0  0  0  0  0  0  0
   38.0040   24.1250   41.5460 C   0  0  0  0  0  0  0  0  0  0  0  0
   37.6440   23.0290   40.7400 C   0  0  0  0  0  0  0  0  0  0  0  0
   36.7880   23.3100   39.6970 N   0  0  0  0  0  0  0  0  0  0  0  0
   36.3160   24.5470   39.4470 C   0  0  0  0  0  0  0  0  0  0  0  0
   36.6810   25.5500   40.2320 N   0  0  0  0  0  0  0  0  0  0  0  0
   38.6600   23.7110   42.3000 H   0  0  0  0  0  0  0  0  0  0  0  0
   37.9420   21.9960   40.8190 H   0  0  0  0  0  0  0  0  0  0  0  0
   35.6460   24.7110   38.6170 H   0  0  0  0  0  0  0  0  0  0  0  0
   37.4870   28.9670   41.2900 O   0  0  0  0  0  0  0  0  0  0  0  0
   36.6650   30.3250   39.1400 O   0  0  0  0  0  0  0  0  0  0  0  0
   36.9880   30.4280   40.6210 P   0  0  1  0  0  0  0  0  0  0  0  0
   35.5780   30.9350   41.4260 O   0  0  0  0  0  0  0  0  0  0  0  0
   35.0600   31.4810   40.7860 H   0  0  0  0  0  0  0  0  0  0  0  0
   38.2110   31.5780   40.8920 O   0  0  0  0  0  0  0  0  0  0  0  0
   38.3960   32.3800   39.7740 C   0  0  0  0  0  3  0  0  0  0  0  0
   39.0370   33.7020   39.9750 C   0  0  0  0  0  2  0  0  0  0  0  0
   37.5370   33.6220   39.7610 C   0  0  0  0  0  2  0  0  0  0  0  0
  1  4  1  1  0  0  0
  1  2  1  0  0  0  0
  2  5  1  0  0  0  0
  2  6  1  0  0  0  0
  3  7  1  1  0  0  0
  3  1  1  0  0  0  0
  3  2  1  0  0  0  0
  8  1  1  0  0  0  0
  8 10  1  0  0  0  0
  9  8  1  0  0  0  0
 11 12  1  0  0  0  0
 11  8  1  0  0  0  0
 12 17  1  0  0  0  0
 13 18  1  0  0  0  0
 13 12  2  0  0  0  0
 14 13  1  0  0  0  0
 15 14  2  0  0  0  0
 15 16  1  0  0  0  0
 16 11  2  0  0  0  0
 19 15  1  0  0  0  0
 20  3  1  0  0  0  0
 22 21  2  6  0  0  0
 22 25  1  0  0  0  0
 22 20  1  0  0  0  0
 22 23  1  0  0  0  0
 24 23  1  0  0  0  0
 26 27  1  0  0  0  0
 26 25  1  0  0  0  0
 28 26  1  0  0  0  0
 28 27  1  0  0  0  0
M  END
>  <minimizedAffinity>
-4.79027843

$$$$

 OpenBabel03252500453D

 28 30  0  0  1  0  0  0  0  0999 V2000
   35.7120   30.1310   40.1270 C   0  0  1  0  0  0  0  0  0  0  0  0
   34.9410   28.8810   39.7310 C   0  0  0  0  0  0  0  0  0  0  0  0
   35.6990   28.9360   41.0340 C   0  0  1  0  0  0  0  0  0  0  0  0
   35.0030   30.9450   40.4160 H   0  0  0  0  0  0  0  0  0  0  0  0
   35.4050   28.2390   38.9310 H   0  0  0  0  0  0  0  0  0  0  0  0
   33.8540   28.8510   39.7470 H   0  0  0  0  0  0  0  0  0  0  0  0
   35.0410   28.9450   41.9350 H   0  0  0  0  0  0  0  0  0  0  0  0
   36.9830   30.3770   39.4210 C   0  0  0  0  0  0  0  0  0  0  0  0
   37.6330   29.4670   39.5520 H   0  0  0  0  0  0  0  0  0  0  0  0
   36.8090   30.4590   38.3200 H   0  0  0  0  0  0  0  0  0  0  0  0
   37.7710   31.5050   39.9380 C   0  0  0  0  0  0  0  0  0  0  0  0
   37.3000   32.7280   39.5390 C   0  0  0  0  0  0  0  0  0  0  0  0
   37.9570   33.9020   39.9520 C   0  0  0  0  0  0  0  0  0  0  0  0
   39.0610   33.7180   40.7550 N   0  0  0  0  0  0  0  0  0  0  0  0
   39.5020   32.5020   41.1330 C   0  0  0  0  0  0  0  0  0  0  0  0
   38.8530   31.4220   40.7210 N   0  0  0  0  0  0  0  0  0  0  0  0
   36.4710   33.0710   38.9360 H   0  0  0  0  0  0  0  0  0  0  0  0
   37.7220   34.9310   39.7300 H   0  0  0  0  0  0  0  0  0  0  0  0
   40.3720   32.4150   41.7640 H   0  0  0  0  0  0  0  0  0  0  0  0
   36.8630   28.2070   41.1170 O   0  0  0  0  0  0  0  0  0  0  0  0
   38.1070   29.1810   43.2730 O   0  0  0  0  0  0  0  0  0  0  0  0
   37.3720   27.9790   42.7040 P   0  0  1  0  0  0  0  0  0  0  0  0
   36.0020   27.7010   43.6740 O   0  0  0  0  0  0  0  0  0  0  0  0
   36.2230   28.0180   44.5840 H   0  0  0  0  0  0  0  0  0  0  0  0
   38.3580   26.5940   42.7480 O   0  0  0  0  0  0  0  0  0  0  0  0
   38.0030   25.6990   41.7490 C   0  0  0  0  0  3  0  0  0  0  0  0
   36.9470   24.7050   42.0590 C   0  0  0  0  0  2  0  0  0  0  0  0
   38.4000   24.2700   42.0350 C   0  0  0  0  0  2  0  0  0  0  0  0
  1  4  1  1  0  0  0
  1  3  1  0  0  0  0
  2  6  1  0  0  0  0
  2  1  1  0  0  0  0
  2  3  1  0  0  0  0
  3 20  1  0  0  0  0
  3  7  1  1  0  0  0
  5  2  1  0  0  0  0
  8  9  1  0  0  0  0
  8 11  1  0  0  0  0
  8  1  1  0  0  0  0
 10  8  1  0  0  0  0
 11 16  1  0  0  0  0
 12 11  2  0  0  0  0
 12 13  1  0  0  0  0
 13 14  2  0  0  0  0
 14 15  1  0  0  0  0
 15 19  1  0  0  0  0
 16 15  2  0  0  0  0
 17 12  1  0  0  0  0
 18 13  1  0  0  0  0
 20 22  1  0  0  0  0
 22 25  1  0  0  0  0
 22 21  2  1  0  0  0
 22 23  1  0  0  0  0
 23 24  1  0  0  0  0
 26 28  1  0  0  0  0
 26 27  1  0  0  0  0
 26 25  1  0  0  0  0
 28 27  1  0  0  0  0
M  END
>  <minimizedAffinity>
-4.77104187

$$$$

 OpenBabel03252500453D

 28 30  0  0  1  0  0  0  0  0999 V2000
   35.7050   28.6880   39.3750 C   0  0  1  0  0  0  0  0  0  0  0  0
   34.7100   29.1090   38.3060 C   0  0  0  0  0  0  0  0  0  0  0  0
   36.1760   29.4320   38.1610 C   0  0  1  0  0  0  0  0  0  0  0  0
   35.8650   27.5820   39.3380 H   0  0  0  0  0  0  0  0  0  0  0  0
   34.0460   29.9850   38.5550 H   0  0  0  0  0  0  0  0  0  0  0  0
   34.2540   28.3870   37.6320 H   0  0  0  0  0  0  0  0  0  0  0  0
   36.6800   28.8690   37.3410 H   0  0  0  0  0  0  0  0  0  0  0  0
   35.6950   29.4630   40.6300 C   0  0  0  0  0  0  0  0  0  0  0  0
   35.9280   30.5340   40.3760 H   0  0  0  0  0  0  0  0  0  0  0  0
   34.6690   29.4790   41.0720 H   0  0  0  0  0  0  0  0  0  0  0  0
   36.7100   29.0590   41.6150 C   0  0  0  0  0  0  0  0  0  0  0  0
   36.6110   27.7470   41.9950 C   0  0  0  0  0  0  0  0  0  0  0  0
   37.5130   27.2200   42.9380 C   0  0  0  0  0  0  0  0  0  0  0  0
   38.4580   28.0990   43.4180 N   0  0  0  0  0  0  0  0  0  0  0  0
   38.5330   29.3860   43.0250 C   0  0  0  0  0  0  0  0  0  0  0  0
   37.6630   29.8420   42.1350 N   0  0  0  0  0  0  0  0  0  0  0  0
   35.9650   26.9200   41.7360 H   0  0  0  0  0  0  0  0  0  0  0  0
   37.5720   26.2220   43.3420 H   0  0  0  0  0  0  0  0  0  0  0  0
   39.2950   30.0320   43.4330 H   0  0  0  0  0  0  0  0  0  0  0  0
   36.5540   30.7430   38.3450 O   0  0  0  0  0  0  0  0  0  0  0  0
   38.8650   29.8030   37.3880 O   0  0  0  0  0  0  0  0  0  0  0  0
   38.0950   31.0620   37.7500 P   0  0  1  0  0  0  0  0  0  0  0  0
   37.9430   32.0010   36.3400 O   0  0  0  0  0  0  0  0  0  0  0  0
   38.7290   31.8030   35.7750 H   0  0  0  0  0  0  0  0  0  0  0  0
   38.9340   31.9670   38.9180 O   0  0  0  0  0  0  0  0  0  0  0  0
   38.0700   32.4410   39.8960 C   0  0  0  0  0  3  0  0  0  0  0  0
   37.6060   33.8450   39.7820 C   0  0  0  0  0  2  0  0  0  0  0  0
   38.6780   33.4910   40.7960 C   0  0  0  0  0  2  0  0  0  0  0  0
  1  4  1  1  0  0  0
  1  8  1  0  0  0  0
  2  5  1  0  0  0  0
  2  1  1  0  0  0  0
  3  7  1  6  0  0  0
  3  2  1  0  0  0  0
  3 20  1  0  0  0  0
  3  1  1  0  0  0  0
  6  2  1  0  0  0  0
  8 10  1  0  0  0  0
  8 11  1  0  0  0  0
  9  8  1  0  0  0  0
 11 12  2  0  0  0  0
 11 16  1  0  0  0  0
 12 13  1  0  0  0  0
 13 18  1  0  0  0  0
 13 14  2  0  0  0  0
 15 14  1  0  0  0  0
 15 19  1  0  0  0  0
 16 15  2  0  0  0  0
 17 12  1  0  0  0  0
 22 21  2  6  0  0  0
 22 20  1  0  0  0  0
 22 25  1  0  0  0  0
 23 22  1  0  0  0  0
 24 23  1  0  0  0  0
 25 26  1  0  0  0  0
 26 28  1  0  0  0  0
 27 26  1  0  0  0  0
 27 28  1  0  0  0  0
M  END
>  <minimizedAffinity>
-4.59570646

$$$$

 OpenBabel03252500453D

 28 30  0  0  1  0  0  0  0  0999 V2000
   36.3620   28.2830   40.6760 C   0  0  1  0  0  0  0  0  0  0  0  0
   35.0580   28.9930   40.3460 C   0  0  0  0  0  0  0  0  0  0  0  0
   36.3840   29.6820   40.1340 C   0  0  1  0  0  0  0  0  0  0  0  0
   36.5680   27.4860   39.9210 H   0  0  0  0  0  0  0  0  0  0  0  0
   34.4560   29.3680   41.2210 H   0  0  0  0  0  0  0  0  0  0  0  0
   34.4580   28.7150   39.4830 H   0  0  0  0  0  0  0  0  0  0  0  0
   36.6370   29.8440   39.0600 H   0  0  0  0  0  0  0  0  0  0  0  0
   36.7000   28.1520   42.1060 C   0  0  0  0  0  0  0  0  0  0  0  0
   37.1920   29.1110   42.4340 H   0  0  0  0  0  0  0  0  0  0  0  0
   35.7710   28.0700   42.7210 H   0  0  0  0  0  0  0  0  0  0  0  0
   37.6620   27.0860   42.4190 C   0  0  0  0  0  0  0  0  0  0  0  0
   38.6440   27.4740   43.2920 C   0  0  0  0  0  0  0  0  0  0  0  0
   39.6410   26.5610   43.6800 C   0  0  0  0  0  0  0  0  0  0  0  0
   39.5430   25.3000   43.1310 N   0  0  0  0  0  0  0  0  0  0  0  0
   38.5650   24.9450   42.2740 C   0  0  0  0  0  0  0  0  0  0  0  0
   37.6460   25.8380   41.9360 N   0  0  0  0  0  0  0  0  0  0  0  0
   38.8810   28.3860   43.8230 H   0  0  0  0  0  0  0  0  0  0  0  0
   40.4750   26.7020   44.3480 H   0  0  0  0  0  0  0  0  0  0  0  0
   38.5350   23.9440   41.8750 H   0  0  0  0  0  0  0  0  0  0  0  0
   36.7210   30.6840   41.0150 O   0  0  0  0  0  0  0  0  0  0  0  0
   38.2210   31.4460   38.9390 O   0  0  0  0  0  0  0  0  0  0  0  0
   37.7510   31.8260   40.3330 P   0  0  1  0  0  0  0  0  0  0  0  0
   36.9150   33.3020   40.2140 O   0  0  0  0  0  0  0  0  0  0  0  0
   37.3040   33.7950   39.4510 H   0  0  0  0  0  0  0  0  0  0  0  0
   39.0750   32.0340   41.3790 O   0  0  0  0  0  0  0  0  0  0  0  0
   39.3910   30.8460   42.0240 C   0  0  0  0  0  3  0  0  0  0  0  0
   40.7550   30.7140   42.5920 C   0  0  0  0  0  2  0  0  0  0  0  0
   40.4120   30.0050   41.2950 C   0  0  0  0  0  2  0  0  0  0  0  0
  1  4  1  6  0  0  0
  1  8  1  0  0  0  0
  2  1  1  0  0  0  0
  2  5  1  0  0  0  0
  3  7  1  6  0  0  0
  3  2  1  0  0  0  0
  3  1  1  0  0  0  0
  3 20  1  0  0  0  0
  6  2  1  0  0  0  0
  8 11  1  0  0  0  0
  8  9  1  0  0  0  0
  8 10  1  0  0  0  0
 11 12  1  0  0  0  0
 12 13  2  0  0  0  0
 12 17  1  0  0  0  0
 13 18  1  0  0  0  0
 14 13  1  0  0  0  0
 15 14  2  0  0  0  0
 16 15  1  0  0  0  0
 16 11  2  0  0  0  0
 19 15  1  0  0  0  0
 22 21  2  6  0  0  0
 22 20  1  0  0  0  0
 22 25  1  0  0  0  0
 23 22  1  0  0  0  0
 24 23  1  0  0  0  0
 25 26  1  0  0  0  0
 26 27  1  0  0  0  0
 28 26  1  0  0  0  0
 28 27  1  0  0  0  0
M  END
>  <minimizedAffinity>
-4.54533339

$$$$

 OpenBabel03252500453D

 28 30  0  0  1  0  0  0  0  0999 V2000
   38.0160   31.1170   37.3810 C   0  0  1  0  0  0  0  0  0  0  0  0
   37.2280   29.9420   36.8260 C   0  0  0  0  0  0  0  0  0  0  0  0
   36.9090   30.5060   38.1880 C   0  0  1  0  0  0  0  0  0  0  0  0
   37.7390   32.0560   36.8430 H   0  0  0  0  0  0  0  0  0  0  0  0
   37.7480   28.9430   36.8280 H   0  0  0  0  0  0  0  0  0  0  0  0
   36.5110   30.0650   36.0170 H   0  0  0  0  0  0  0  0  0  0  0  0
   35.9230   31.0250   38.2380 H   0  0  0  0  0  0  0  0  0  0  0  0
   39.3820   30.8310   37.8600 C   0  0  0  0  0  0  0  0  0  0  0  0
   39.2980   30.1900   38.7810 H   0  0  0  0  0  0  0  0  0  0  0  0
   39.9340   30.2080   37.1150 H   0  0  0  0  0  0  0  0  0  0  0  0
   40.1550   32.0130   38.2680 C   0  0  0  0  0  0  0  0  0  0  0  0
   41.0970   32.3940   37.3490 C   0  0  0  0  0  0  0  0  0  0  0  0
   41.9190   33.5070   37.6060 C   0  0  0  0  0  0  0  0  0  0  0  0
   41.6990   34.1480   38.8060 N   0  0  0  0  0  0  0  0  0  0  0  0
   40.7640   33.7520   39.6910 C   0  0  0  0  0  0  0  0  0  0  0  0
   40.0120   32.6980   39.4090 N   0  0  0  0  0  0  0  0  0  0  0  0
   41.4080   32.0370   36.3770 H   0  0  0  0  0  0  0  0  0  0  0  0
   42.7000   33.9340   36.9980 H   0  0  0  0  0  0  0  0  0  0  0  0
   40.6330   34.2920   40.6160 H   0  0  0  0  0  0  0  0  0  0  0  0
   37.2790   29.7570   39.2820 O   0  0  0  0  0  0  0  0  0  0  0  0
   36.9500   31.9470   40.7790 O   0  0  0  0  0  0  0  0  0  0  0  0
   36.7710   30.4390   40.7340 P   0  0  1  0  0  0  0  0  0  0  0  0
   35.1150   30.1070   40.9340 O   0  0  0  0  0  0  0  0  0  0  0  0
   34.7370   30.8380   41.4810 H   0  0  0  0  0  0  0  0  0  0  0  0
   37.6320   29.6930   41.9960 O   0  0  0  0  0  0  0  0  0  0  0  0
   37.5270   28.3110   41.9210 C   0  0  0  0  0  3  0  0  0  0  0  0
   36.6160   27.6370   42.8790 C   0  0  0  0  0  2  0  0  0  0  0  0
   38.1150   27.5860   43.1080 C   0  0  0  0  0  2  0  0  0  0  0  0
  1  4  1  6  0  0  0
  1  8  1  0  0  0  0
  1  3  1  0  0  0  0
  2  5  1  0  0  0  0
  2  1  1  0  0  0  0
  2  3  1  0  0  0  0
  3  7  1  1  0  0  0
  3 20  1  0  0  0  0
  6  2  1  0  0  0  0
  8 11  1  0  0  0  0
  8  9  1  0  0  0  0
 10  8  1  0  0  0  0
 11 16  1  0  0  0  0
 12 13  1  0  0  0  0
 12 11  2  0  0  0  0
 13 14  2  0  0  0  0
 14 15  1  0  0  0  0
 15 19  1  0  0  0  0
 16 15  2  0  0  0  0
 17 12  1  0  0  0  0
 18 13  1  0  0  0  0
 20 22  1  0  0  0  0
 22 21  2  6  0  0  0
 22 23  1  0  0  0  0
 22 25  1  0  0  0  0
 23 24  1  0  0  0  0
 26 25  1  0  0  0  0
 26 27  1  0  0  0  0
 26 28  1  0  0  0  0
 27 28  1  0  0  0  0
M  END
>  <minimizedAffinity>
-4.41927242

$$$$

 OpenBabel03252500453D

 28 30  0  0  1  0  0  0  0  0999 V2000
   39.7120   29.4360   41.9310 C   0  0  1  0  0  0  0  0  0  0  0  0
   39.3840   28.3010   42.8880 C   0  0  0  0  0  0  0  0  0  0  0  0
   38.4220   28.6840   41.7910 C   0  0  1  0  0  0  0  0  0  0  0  0
   40.5160   29.1220   41.2210 H   0  0  0  0  0  0  0  0  0  0  0  0
   39.0700   28.5970   43.9280 H   0  0  0  0  0  0  0  0  0  0  0  0
   39.8970   27.3440   42.8360 H   0  0  0  0  0  0  0  0  0  0  0  0
   38.3260   27.9140   40.9890 H   0  0  0  0  0  0  0  0  0  0  0  0
   39.5910   30.8070   42.4640 C   0  0  0  0  0  0  0  0  0  0  0  0
   38.5820   30.8990   42.9550 H   0  0  0  0  0  0  0  0  0  0  0  0
   40.3350   30.9740   43.2810 H   0  0  0  0  0  0  0  0  0  0  0  0
   39.6390   31.8710   41.4510 C   0  0  0  0  0  0  0  0  0  0  0  0
   40.8230   31.9180   40.7630 C   0  0  0  0  0  0  0  0  0  0  0  0
   41.0170   32.8910   39.7660 C   0  0  0  0  0  0  0  0  0  0  0  0
   39.9590   33.7480   39.5530 N   0  0  0  0  0  0  0  0  0  0  0  0
   38.8050   33.6780   40.2450 C   0  0  0  0  0  0  0  0  0  0  0  0
   38.6650   32.7460   41.1760 N   0  0  0  0  0  0  0  0  0  0  0  0
   41.7410   31.3470   40.7770 H   0  0  0  0  0  0  0  0  0  0  0  0
   41.8770   33.0650   39.1390 H   0  0  0  0  0  0  0  0  0  0  0  0
   38.0080   34.3750   40.0360 H   0  0  0  0  0  0  0  0  0  0  0  0
   37.2730   29.3460   42.1620 O   0  0  0  0  0  0  0  0  0  0  0  0
   35.0880   28.9370   40.6800 O   0  0  0  0  0  0  0  0  0  0  0  0
   36.3300   29.7960   40.8440 P   0  0  1  0  0  0  0  0  0  0  0  0
   35.8240   31.4040   41.0690 O   0  0  0  0  0  0  0  0  0  0  0  0
   34.9640   31.5060   40.5930 H   0  0  0  0  0  0  0  0  0  0  0  0
   37.3020   29.7220   39.4510 O   0  0  0  0  0  0  0  0  0  0  0  0
   36.9500   30.7130   38.5450 C   0  0  0  0  0  3  0  0  0  0  0  0
   36.9610   30.3640   37.1040 C   0  0  0  0  0  2  0  0  0  0  0  0
   38.0930   31.1910   37.6830 C   0  0  0  0  0  2  0  0  0  0  0  0
  1  4  1  6  0  0  0
  1  8  1  0  0  0  0
  1  2  1  0  0  0  0
  2  5  1  0  0  0  0
  3  7  1  6  0  0  0
  3  1  1  0  0  0  0
  3 20  1  0  0  0  0
  3  2  1  0  0  0  0
  6  2  1  0  0  0  0
  8  9  1  0  0  0  0
  8 10  1  0  0  0  0
 11  8  1  0  0  0  0
 12 17  1  0  0  0  0
 12 11  2  0  0  0  0
 13 12  1  0  0  0  0
 14 13  2  0  0  0  0
 14 15  1  0  0  0  0
 15 16  2  0  0  0  0
 16 11  1  0  0  0  0
 18 13  1  0  0  0  0
 19 15  1  0  0  0  0
 22 21  2  6  0  0  0
 22 23  1  0  0  0  0
 22 20  1  0  0  0  0
 24 23  1  0  0  0  0
 25 22  1  0  0  0  0
 26 25  1  0  0  0  0
 27 28  1  0  0  0  0
 27 26  1  0  0  0  0
 28 26  1  0  0  0  0
M  END
>  <minimizedAffinity>
-4.35444164

$$$$

 OpenBabel03252500453D

 28 30  0  0  1  0  0  0  0  0999 V2000
   37.8880   27.6540   38.3770 C   0  0  1  0  0  0  0  0  0  0  0  0
   37.1600   28.7180   37.5710 C   0  0  0  0  0  0  0  0  0  0  0  0
   37.6260   29.0040   38.9770 C   0  0  1  0  0  0  0  0  0  0  0  0
   38.9230   27.5120   37.9800 H   0  0  0  0  0  0  0  0  0  0  0  0
   36.0480   28.5830   37.4500 H   0  0  0  0  0  0  0  0  0  0  0  0
   37.6360   29.2300   36.7370 H   0  0  0  0  0  0  0  0  0  0  0  0
   38.4580   29.7450   39.0310 H   0  0  0  0  0  0  0  0  0  0  0  0
   37.0670   26.5520   38.9130 C   0  0  0  0  0  0  0  0  0  0  0  0
   36.1980   27.0070   39.4660 H   0  0  0  0  0  0  0  0  0  0  0  0
   36.6120   25.9640   38.0790 H   0  0  0  0  0  0  0  0  0  0  0  0
   37.7500   25.6880   39.8860 C   0  0  0  0  0  0  0  0  0  0  0  0
   36.8940   24.9180   40.6280 C   0  0  0  0  0  0  0  0  0  0  0  0
   37.4040   24.0440   41.6060 C   0  0  0  0  0  0  0  0  0  0  0  0
   38.7750   24.0320   41.7400 N   0  0  0  0  0  0  0  0  0  0  0  0
   39.5940   24.8010   40.9960 C   0  0  0  0  0  0  0  0  0  0  0  0
   39.0710   25.6100   40.0860 N   0  0  0  0  0  0  0  0  0  0  0  0
   35.8220   24.7810   40.6660 H   0  0  0  0  0  0  0  0  0  0  0  0
   36.8760   23.3780   42.2690 H   0  0  0  0  0  0  0  0  0  0  0  0
   40.6610   24.7520   41.1420 H   0  0  0  0  0  0  0  0  0  0  0  0
   36.6640   29.0710   39.9580 O   0  0  0  0  0  0  0  0  0  0  0  0
   38.0670   31.2340   40.6600 O   0  0  0  0  0  0  0  0  0  0  0  0
   36.9880   30.2610   41.1020 P   0  0  1  0  0  0  0  0  0  0  0  0
   35.5640   31.1520   41.3700 O   0  0  0  0  0  0  0  0  0  0  0  0
   35.8380   32.0610   41.6440 H   0  0  0  0  0  0  0  0  0  0  0  0
   37.4270   29.4920   42.5530 O   0  0  0  0  0  0  0  0  0  0  0  0
   37.1880   28.1260   42.4850 C   0  0  0  0  0  3  0  0  0  0  0  0
   36.6030   27.4700   43.6790 C   0  0  0  0  0  2  0  0  0  0  0  0
   38.0810   27.3010   43.3810 C   0  0  0  0  0  2  0  0  0  0  0  0
  1  4  1  6  0  0  0
  1  8  1  0  0  0  0
  1  3  1  0  0  0  0
  2  1  1  0  0  0  0
  2  3  1  0  0  0  0
  3  7  1  1  0  0  0
  3 20  1  0  0  0  0
  5  2  1  0  0  0  0
  6  2  1  0  0  0  0
  8  9  1  0  0  0  0
  8 11  1  0  0  0  0
 10  8  1  0  0  0  0
 11 16  2  0  0  0  0
 11 12  1  0  0  0  0
 12 17  1  0  0  0  0
 12 13  2  0  0  0  0
 13 14  1  0  0  0  0
 13 18  1  0  0  0  0
 15 19  1  0  0  0  0
 15 14  2  0  0  0  0
 16 15  1  0  0  0  0
 20 22  1  0  0  0  0
 22 21  2  6  0  0  0
 22 23  1  0  0  0  0
 22 25  1  0  0  0  0
 23 24  1  0  0  0  0
 26 25  1  0  0  0  0
 26 28  1  0  0  0  0
 26 27  1  0  0  0  0
 28 27  1  0  0  0  0
M  END
>  <minimizedAffinity>
-4.32855558

$$$$

 OpenBabel03252500453D

 28 30  0  0  1  0  0  0  0  0999 V2000
   37.2690   26.8560   41.8380 C   0  0  1  0  0  0  0  0  0  0  0  0
   36.8810   27.2840   43.2440 C   0  0  0  0  0  0  0  0  0  0  0  0
   36.3200   28.0000   42.0410 C   0  0  1  0  0  0  0  0  0  0  0  0
   36.7810   25.8830   41.5830 H   0  0  0  0  0  0  0  0  0  0  0  0
   37.6570   27.8560   43.8260 H   0  0  0  0  0  0  0  0  0  0  0  0
   36.2190   26.6820   43.8630 H   0  0  0  0  0  0  0  0  0  0  0  0
   35.2270   27.8330   41.8890 H   0  0  0  0  0  0  0  0  0  0  0  0
   38.6220   27.2280   41.3820 C   0  0  0  0  0  0  0  0  0  0  0  0
   38.7550   26.8320   40.3370 H   0  0  0  0  0  0  0  0  0  0  0  0
   38.7120   28.3380   41.2930 H   0  0  0  0  0  0  0  0  0  0  0  0
   39.7210   26.6490   42.1690 C   0  0  0  0  0  0  0  0  0  0  0  0
   40.4290   27.5790   42.8830 C   0  0  0  0  0  0  0  0  0  0  0  0
   41.5160   27.1730   43.6800 C   0  0  0  0  0  0  0  0  0  0  0  0
   41.7870   25.8220   43.6780 N   0  0  0  0  0  0  0  0  0  0  0  0
   41.0720   24.9290   42.9650 C   0  0  0  0  0  0  0  0  0  0  0  0
   40.0560   25.3550   42.2280 N   0  0  0  0  0  0  0  0  0  0  0  0
   40.3700   28.6490   43.0200 H   0  0  0  0  0  0  0  0  0  0  0  0
   42.1720   27.7680   44.2960 H   0  0  0  0  0  0  0  0  0  0  0  0
   41.3270   23.8820   43.0010 H   0  0  0  0  0  0  0  0  0  0  0  0
   36.8030   29.2610   41.7760 O   0  0  0  0  0  0  0  0  0  0  0  0
   36.8440   29.3950   39.1080 O   0  0  0  0  0  0  0  0  0  0  0  0
   36.1660   29.9150   40.3630 P   0  0  1  0  0  0  0  0  0  0  0  0
   34.5190   29.5000   40.2730 O   0  0  0  0  0  0  0  0  0  0  0  0
   34.2810   29.4660   39.3150 H   0  0  0  0  0  0  0  0  0  0  0  0
   36.2950   31.6080   40.4600 O   0  0  0  0  0  0  0  0  0  0  0  0
   37.0450   32.1110   39.4060 C   0  0  0  0  0  3  0  0  0  0  0  0
   38.4220   32.5760   39.7020 C   0  0  0  0  0  2  0  0  0  0  0  0
   37.3150   33.5940   39.4980 C   0  0  0  0  0  2  0  0  0  0  0  0
  1  4  1  6  0  0  0
  1  3  1  0  0  0  0
  1  2  1  0  0  0  0
  2  5  1  0  0  0  0
  2  6  1  0  0  0  0
  3  7  1  6  0  0  0
  3  2  1  0  0  0  0
  8  1  1  0  0  0  0
  8 11  1  0  0  0  0
  9  8  1  0  0  0  0
 10  8  1  0  0  0  0
 11 16  2  0  0  0  0
 11 12  1  0  0  0  0
 12 17  1  0  0  0  0
 12 13  2  0  0  0  0
 13 18  1  0  0  0  0
 14 13  1  0  0  0  0
 15 19  1  0  0  0  0
 15 14  2  0  0  0  0
 16 15  1  0  0  0  0
 20  3  1  0  0  0  0
 22 21  2  6  0  0  0
 22 25  1  0  0  0  0
 22 20  1  0  0  0  0
 23 22  1  0  0  0  0
 24 23  1  0  0  0  0
 26 28  1  0  0  0  0
 26 27  1  0  0  0  0
 26 25  1  0  0  0  0
 28 27  1  0  0  0  0
M  END
>  <minimizedAffinity>
-4.26511526

$$$$

 OpenBabel03252500453D

 28 30  0  0  1  0  0  0  0  0999 V2000
   38.0440   28.1220   42.2990 C   0  0  1  0  0  0  0  0  0  0  0  0
   37.4890   27.8110   43.6800 C   0  0  0  0  0  0  0  0  0  0  0  0
   38.2630   26.7700   42.9110 C   0  0  1  0  0  0  0  0  0  0  0  0
   38.9130   28.8180   42.3810 H   0  0  0  0  0  0  0  0  0  0  0  0
   36.3780   27.6340   43.7460 H   0  0  0  0  0  0  0  0  0  0  0  0
   37.9220   28.2410   44.5800 H   0  0  0  0  0  0  0  0  0  0  0  0
   39.2570   26.5300   43.3570 H   0  0  0  0  0  0  0  0  0  0  0  0
   37.0720   28.1650   41.1890 C   0  0  0  0  0  0  0  0  0  0  0  0
   37.3920   27.4080   40.4200 H   0  0  0  0  0  0  0  0  0  0  0  0
   36.0660   27.8260   41.5380 H   0  0  0  0  0  0  0  0  0  0  0  0
   37.0030   29.4500   40.4780 C   0  0  0  0  0  0  0  0  0  0  0  0
   36.9380   29.3170   39.1160 C   0  0  0  0  0  0  0  0  0  0  0  0
   36.8730   30.4620   38.3010 C   0  0  0  0  0  0  0  0  0  0  0  0
   36.8780   31.6700   38.9650 N   0  0  0  0  0  0  0  0  0  0  0  0
   36.9420   31.7700   40.3080 C   0  0  0  0  0  0  0  0  0  0  0  0
   37.0020   30.6650   41.0370 N   0  0  0  0  0  0  0  0  0  0  0  0
   36.9150   28.4850   38.4270 H   0  0  0  0  0  0  0  0  0  0  0  0
   36.8200   30.5340   37.2260 H   0  0  0  0  0  0  0  0  0  0  0  0
   36.9420   32.7420   40.7770 H   0  0  0  0  0  0  0  0  0  0  0  0
   37.5490   25.7230   42.3740 O   0  0  0  0  0  0  0  0  0  0  0  0
   39.6760   24.9970   40.9280 O   0  0  0  0  0  0  0  0  0  0  0  0
   38.5400   24.4900   41.8000 P   0  0  1  0  0  0  0  0  0  0  0  0
   39.2270   23.6880   43.1330 O   0  0  0  0  0  0  0  0  0  0  0  0
   40.0940   23.3200   42.8330 H   0  0  0  0  0  0  0  0  0  0  0  0
   37.5690   23.3880   40.9440 O   0  0  0  0  0  0  0  0  0  0  0  0
   36.3220   23.9330   40.6690 C   0  0  0  0  0  3  0  0  0  0  0  0
   35.5080   23.2870   39.6100 C   0  0  0  0  0  2  0  0  0  0  0  0
   36.2250   24.5910   39.3130 C   0  0  0  0  0  2  0  0  0  0  0  0
  1  4  1  6  0  0  0
  1  3  1  0  0  0  0
  1  2  1  0  0  0  0
  2  5  1  0  0  0  0
  2  6  1  0  0  0  0
  3  7  1  1  0  0  0
  3  2  1  0  0  0  0
  8 10  1  0  0  0  0
  8  1  1  0  0  0  0
  9  8  1  0  0  0  0
 11 16  1  0  0  0  0
 11  8  1  0  0  0  0
 12 11  2  0  0  0  0
 13 14  2  0  0  0  0
 13 12  1  0  0  0  0
 14 15  1  0  0  0  0
 15 19  1  0  0  0  0
 15 16  2  0  0  0  0
 17 12  1  0  0  0  0
 18 13  1  0  0  0  0
 20  3  1  0  0  0  0
 22 21  2  6  0  0  0
 22 20  1  0  0  0  0
 22 23  1  0  0  0  0
 24 23  1  0  0  0  0
 25 22  1  0  0  0  0
 26 25  1  0  0  0  0
 27 26  1  0  0  0  0
 28 27  1  0  0  0  0
 28 26  1  0  0  0  0
M  END
>  <minimizedAffinity>
-4.2215867

$$$$
