
 OpenBabel03252501043D

 25 27  0  0  1  0  0  0  0  0999 V2000
   37.2690   30.8420   37.6220 C   0  0  1  0  0  0  0  0  0  0  0  0
   38.1460   29.6880   37.2960 C   0  0  0  0  0  0  0  0  0  0  0  0
   36.9940   29.5540   38.2840 C   0  0  1  0  0  0  0  0  0  0  0  0
   36.5810   31.2020   36.8190 H   0  0  0  0  0  0  0  0  0  0  0  0
   39.1190   29.5020   37.7930 H   0  0  0  0  0  0  0  0  0  0  0  0
   38.0690   29.1900   36.3010 H   0  0  0  0  0  0  0  0  0  0  0  0
   36.1960   28.9070   37.8690 H   0  0  0  0  0  0  0  0  0  0  0  0
   39.8370   33.0020   39.3490 C   0  0  0  0  0  0  0  0  0  0  0  0
   39.2980   31.9860   38.5460 C   0  0  0  0  0  0  0  0  0  0  0  0
   37.9020   31.9060   38.4540 C   0  0  0  0  0  0  0  0  0  0  0  0
   37.1290   32.7980   39.1350 N   0  0  0  0  0  0  0  0  0  0  0  0
   37.6820   33.7680   39.9020 C   0  0  0  0  0  0  0  0  0  0  0  0
   39.0370   33.8690   40.0070 N   0  0  0  0  0  0  0  0  0  0  0  0
   40.8860   33.1710   39.5020 H   0  0  0  0  0  0  0  0  0  0  0  0
   39.9710   31.3320   38.0460 H   0  0  0  0  0  0  0  0  0  0  0  0
   37.0930   34.4810   40.4450 H   0  0  0  0  0  0  0  0  0  0  0  0
   37.1760   29.4780   39.6100 O   0  0  0  0  0  0  0  0  0  0  0  0
   34.5600   29.1770   39.9300 O   0  0  0  0  0  0  0  0  0  0  0  0
   35.8700   29.5220   40.6030 P   0  0  2  0  0  0  0  0  0  0  0  0
   35.6300   31.0060   41.3700 O   0  0  0  0  0  0  0  0  0  0  0  0
   34.8960   31.5180   40.9470 H   0  0  0  0  0  0  0  0  0  0  0  0
   36.0580   28.3720   41.8240 O   0  0  0  0  0  0  0  0  0  0  0  0
   37.3750   28.1110   42.1330 C   0  0  0  0  0  3  0  0  0  0  0  0
   37.7610   27.5770   43.4670 C   0  0  0  0  0  2  0  0  0  0  0  0
   37.9900   29.0650   43.1590 C   0  0  0  0  0  2  0  0  0  0  0  0
  1  4  1  6  0  0  0
  1  3  1  0  0  0  0
  1 10  1  0  0  0  0
  2  1  1  0  0  0  0
  2  5  1  0  0  0  0
  2  3  1  0  0  0  0
  3  7  1  6  0  0  0
  3 17  1  0  0  0  0
  6  2  1  0  0  0  0
  8 14  1  0  0  0  0
  8 13  1  0  0  0  0
  9  8  2  0  0  0  0
 10  9  1  0  0  0  0
 10 11  2  0  0  0  0
 11 12  1  0  0  0  0
 12 13  2  0  0  0  0
 12 16  1  0  0  0  0
 15  9  1  0  0  0  0
 17 19  1  0  0  0  0
 19 18  2  6  0  0  0
 19 20  1  0  0  0  0
 19 22  1  0  0  0  0
 21 20  1  0  0  0  0
 22 23  1  0  0  0  0
 23 25  1  0  0  0  0
 23 24  1  0  0  0  0
 25 24  1  0  0  0  0
M  END
>  <minimizedAffinity>
-4.87189198

$$$$

 OpenBabel03252501043D

 25 27  0  0  1  0  0  0  0  0999 V2000
   37.1030   26.9010   42.5800 C   0  0  1  0  0  0  0  0  0  0  0  0
   36.6290   27.7990   43.6650 C   0  0  0  0  0  0  0  0  0  0  0  0
   36.6960   28.2700   42.2170 C   0  0  1  0  0  0  0  0  0  0  0  0
   36.4420   26.0430   42.3050 H   0  0  0  0  0  0  0  0  0  0  0  0
   37.3120   28.3920   44.3060 H   0  0  0  0  0  0  0  0  0  0  0  0
   35.6340   27.6310   44.1370 H   0  0  0  0  0  0  0  0  0  0  0  0
   35.6770   28.4280   41.8110 H   0  0  0  0  0  0  0  0  0  0  0  0
   40.5330   25.7010   41.5640 C   0  0  0  0  0  0  0  0  0  0  0  0
   39.1550   25.9520   41.5000 C   0  0  0  0  0  0  0  0  0  0  0  0
   38.5660   26.6130   42.5860 C   0  0  0  0  0  0  0  0  0  0  0  0
   39.3360   26.9830   43.6490 N   0  0  0  0  0  0  0  0  0  0  0  0
   40.6650   26.7250   43.6780 C   0  0  0  0  0  0  0  0  0  0  0  0
   41.2630   26.0840   42.6340 N   0  0  0  0  0  0  0  0  0  0  0  0
   41.1020   25.2050   40.8010 H   0  0  0  0  0  0  0  0  0  0  0  0
   38.6270   25.6320   40.6340 H   0  0  0  0  0  0  0  0  0  0  0  0
   41.2900   27.0090   44.5030 H   0  0  0  0  0  0  0  0  0  0  0  0
   37.6390   29.1080   41.7650 O   0  0  0  0  0  0  0  0  0  0  0  0
   38.1620   31.5850   40.9740 O   0  0  0  0  0  0  0  0  0  0  0  0
   37.1920   30.4280   40.8980 P   0  0  2  0  0  0  0  0  0  0  0  0
   35.6790   31.0520   41.3120 O   0  0  0  0  0  0  0  0  0  0  0  0
   35.7640   31.8680   41.8650 H   0  0  0  0  0  0  0  0  0  0  0  0
   37.1150   30.0210   39.2620 O   0  0  0  0  0  0  0  0  0  0  0  0
   35.8280   29.8810   38.7920 C   0  0  0  0  0  3  0  0  0  0  0  0
   35.1400   28.5620   38.8130 C   0  0  0  0  0  2  0  0  0  0  0  0
   35.7070   29.0910   37.4870 C   0  0  0  0  0  2  0  0  0  0  0  0
  1  4  1  6  0  0  0
  1 10  1  0  0  0  0
  1  2  1  0  0  0  0
  2  6  1  0  0  0  0
  2  5  1  0  0  0  0
  3  7  1  6  0  0  0
  3  1  1  0  0  0  0
  3  2  1  0  0  0  0
  8 13  1  0  0  0  0
  9  8  2  0  0  0  0
  9 10  1  0  0  0  0
 10 11  2  0  0  0  0
 11 12  1  0  0  0  0
 12 16  1  0  0  0  0
 13 12  2  0  0  0  0
 14  8  1  0  0  0  0
 15  9  1  0  0  0  0
 17  3  1  0  0  0  0
 19 18  2  1  0  0  0
 19 20  1  0  0  0  0
 19 17  1  0  0  0  0
 20 21  1  0  0  0  0
 22 19  1  0  0  0  0
 23 24  1  0  0  0  0
 23 22  1  0  0  0  0
 25 23  1  0  0  0  0
 25 24  1  0  0  0  0
M  END
>  <minimizedAffinity>
-4.51688433

$$$$

 OpenBabel03252501043D

 25 27  0  0  1  0  0  0  0  0999 V2000
   39.1480   30.2480   42.7160 C   0  0  1  0  0  0  0  0  0  0  0  0
   40.3940   30.3690   41.9170 C   0  0  0  0  0  0  0  0  0  0  0  0
   39.0870   30.9930   41.4450 C   0  0  1  0  0  0  0  0  0  0  0  0
   39.1050   30.8090   43.6810 H   0  0  0  0  0  0  0  0  0  0  0  0
   40.7410   29.5910   41.2070 H   0  0  0  0  0  0  0  0  0  0  0  0
   41.2190   31.0330   42.2630 H   0  0  0  0  0  0  0  0  0  0  0  0
   39.1470   32.0990   41.4780 H   0  0  0  0  0  0  0  0  0  0  0  0
   38.6520   26.5230   42.3750 C   0  0  0  0  0  0  0  0  0  0  0  0
   39.2870   27.7730   42.3480 C   0  0  0  0  0  0  0  0  0  0  0  0
   38.5310   28.8900   42.7310 C   0  0  0  0  0  0  0  0  0  0  0  0
   37.2310   28.7290   43.1070 N   0  0  0  0  0  0  0  0  0  0  0  0
   36.6490   27.5060   43.1220 C   0  0  0  0  0  0  0  0  0  0  0  0
   37.3620   26.4030   42.7550 N   0  0  0  0  0  0  0  0  0  0  0  0
   39.1180   25.5930   42.1070 H   0  0  0  0  0  0  0  0  0  0  0  0
   40.3040   27.8130   42.0440 H   0  0  0  0  0  0  0  0  0  0  0  0
   35.6280   27.3560   43.4160 H   0  0  0  0  0  0  0  0  0  0  0  0
   38.3500   30.4790   40.4500 O   0  0  0  0  0  0  0  0  0  0  0  0
   36.9220   32.5790   39.6830 O   0  0  0  0  0  0  0  0  0  0  0  0
   36.8810   31.1320   40.1200 P   0  0  2  0  0  0  0  0  0  0  0  0
   35.7830   31.0570   41.4000 O   0  0  0  0  0  0  0  0  0  0  0  0
   35.6900   31.9340   41.8490 H   0  0  0  0  0  0  0  0  0  0  0  0
   36.1770   30.2990   38.8310 O   0  0  0  0  0  0  0  0  0  0  0  0
   35.4330   29.2100   39.2240 C   0  0  0  0  0  3  0  0  0  0  0  0
   36.0730   27.8890   39.4740 C   0  0  0  0  0  2  0  0  0  0  0  0
   35.2990   28.1130   38.1650 C   0  0  0  0  0  2  0  0  0  0  0  0
  1 10  1  0  0  0  0
  1  4  1  1  0  0  0
  2  6  1  0  0  0  0
  2  1  1  0  0  0  0
  3  7  1  1  0  0  0
  3  2  1  0  0  0  0
  3  1  1  0  0  0  0
  5  2  1  0  0  0  0
  8 13  1  0  0  0  0
  9  8  2  0  0  0  0
  9 10  1  0  0  0  0
 10 11  2  0  0  0  0
 11 12  1  0  0  0  0
 12 16  1  0  0  0  0
 13 12  2  0  0  0  0
 14  8  1  0  0  0  0
 15  9  1  0  0  0  0
 17  3  1  0  0  0  0
 19 18  2  6  0  0  0
 19 17  1  0  0  0  0
 19 20  1  0  0  0  0
 20 21  1  0  0  0  0
 22 23  1  0  0  0  0
 22 19  1  0  0  0  0
 23 24  1  0  0  0  0
 25 23  1  0  0  0  0
 25 24  1  0  0  0  0
M  END
>  <minimizedAffinity>
-4.47656965

$$$$

 OpenBabel03252501043D

 25 27  0  0  1  0  0  0  0  0999 V2000
   36.8240   27.1090   42.7330 C   0  0  1  0  0  0  0  0  0  0  0  0
   37.6380   27.9150   43.6790 C   0  0  0  0  0  0  0  0  0  0  0  0
   36.8720   28.5690   42.5360 C   0  0  1  0  0  0  0  0  0  0  0  0
   35.8910   26.6420   43.1330 H   0  0  0  0  0  0  0  0  0  0  0  0
   38.7290   28.0700   43.5650 H   0  0  0  0  0  0  0  0  0  0  0  0
   37.2880   28.0700   44.7270 H   0  0  0  0  0  0  0  0  0  0  0  0
   36.0360   29.1820   42.9270 H   0  0  0  0  0  0  0  0  0  0  0  0
   37.7860   25.0360   39.7300 C   0  0  0  0  0  0  0  0  0  0  0  0
   37.0060   25.8230   40.5900 C   0  0  0  0  0  0  0  0  0  0  0  0
   37.6050   26.2750   41.7740 C   0  0  0  0  0  0  0  0  0  0  0  0
   38.8980   25.9410   42.0470 N   0  0  0  0  0  0  0  0  0  0  0  0
   39.6230   25.1790   41.1930 C   0  0  0  0  0  0  0  0  0  0  0  0
   39.0650   24.7270   40.0350 N   0  0  0  0  0  0  0  0  0  0  0  0
   37.4480   24.6290   38.7960 H   0  0  0  0  0  0  0  0  0  0  0  0
   36.0060   26.0400   40.3030 H   0  0  0  0  0  0  0  0  0  0  0  0
   40.6420   24.9060   41.3880 H   0  0  0  0  0  0  0  0  0  0  0  0
   37.4700   29.0360   41.4310 O   0  0  0  0  0  0  0  0  0  0  0  0
   38.0820   31.5780   40.9850 O   0  0  0  0  0  0  0  0  0  0  0  0
   37.0290   30.5020   40.8390 P   0  0  2  0  0  0  0  0  0  0  0  0
   35.6160   31.1300   41.5160 O   0  0  0  0  0  0  0  0  0  0  0  0
   35.8160   31.8390   42.1760 H   0  0  0  0  0  0  0  0  0  0  0  0
   36.7540   30.3740   39.1790 O   0  0  0  0  0  0  0  0  0  0  0  0
   36.2820   29.1380   38.7960 C   0  0  0  0  0  3  0  0  0  0  0  0
   35.4080   28.9840   37.6010 C   0  0  0  0  0  2  0  0  0  0  0  0
   34.7790   28.9380   39.0020 C   0  0  0  0  0  2  0  0  0  0  0  0
  1  4  1  1  0  0  0
  1  2  1  0  0  0  0
  2  6  1  0  0  0  0
  3  1  1  0  0  0  0
  3  7  1  1  0  0  0
  3  2  1  0  0  0  0
  5  2  1  0  0  0  0
  8 13  2  0  0  0  0
  8  9  1  0  0  0  0
  9 10  2  0  0  0  0
 10 11  1  0  0  0  0
 10  1  1  0  0  0  0
 12 16  1  0  0  0  0
 12 11  2  0  0  0  0
 13 12  1  0  0  0  0
 14  8  1  0  0  0  0
 15  9  1  0  0  0  0
 17  3  1  0  0  0  0
 19 18  2  1  0  0  0
 19 17  1  0  0  0  0
 19 20  1  0  0  0  0
 20 21  1  0  0  0  0
 22 19  1  0  0  0  0
 23 25  1  0  0  0  0
 23 22  1  0  0  0  0
 24 23  1  0  0  0  0
 24 25  1  0  0  0  0
M  END
>  <minimizedAffinity>
-4.44663048

$$$$

 OpenBabel03252501043D

 25 27  0  0  1  0  0  0  0  0999 V2000
   37.2960   32.3430   39.9360 C   0  0  1  0  0  0  0  0  0  0  0  0
   36.7110   31.2510   39.1160 C   0  0  0  0  0  0  0  0  0  0  0  0
   36.8330   31.1280   40.6300 C   0  0  1  0  0  0  0  0  0  0  0  0
   36.7030   33.2850   40.0280 H   0  0  0  0  0  0  0  0  0  0  0  0
   37.3200   30.4790   38.6050 H   0  0  0  0  0  0  0  0  0  0  0  0
   35.7010   31.3730   38.6610 H   0  0  0  0  0  0  0  0  0  0  0  0
   35.8320   31.1410   41.1050 H   0  0  0  0  0  0  0  0  0  0  0  0
   40.8490   33.4760   40.5170 C   0  0  0  0  0  0  0  0  0  0  0  0
   39.4640   33.3420   40.6990 C   0  0  0  0  0  0  0  0  0  0  0  0
   38.7710   32.5190   39.8000 C   0  0  0  0  0  0  0  0  0  0  0  0
   39.4500   31.8910   38.7990 N   0  0  0  0  0  0  0  0  0  0  0  0
   40.7880   32.0420   38.6530 C   0  0  0  0  0  0  0  0  0  0  0  0
   41.4860   32.8350   39.5140 N   0  0  0  0  0  0  0  0  0  0  0  0
   41.4930   34.0740   41.1350 H   0  0  0  0  0  0  0  0  0  0  0  0
   39.0110   33.8650   41.5050 H   0  0  0  0  0  0  0  0  0  0  0  0
   41.3420   31.5550   37.8740 H   0  0  0  0  0  0  0  0  0  0  0  0
   37.7510   30.3560   41.2270 O   0  0  0  0  0  0  0  0  0  0  0  0
   35.9950   28.3850   41.4890 O   0  0  0  0  0  0  0  0  0  0  0  0
   37.2690   29.0040   42.0220 P   0  0  2  0  0  0  0  0  0  0  0  0
   37.0300   29.2190   43.6800 O   0  0  0  0  0  0  0  0  0  0  0  0
   36.0680   29.2790   43.9020 H   0  0  0  0  0  0  0  0  0  0  0  0
   38.4470   27.8070   41.8550 O   0  0  0  0  0  0  0  0  0  0  0  0
   38.6000   27.0280   42.9800 C   0  0  0  0  0  3  0  0  0  0  0  0
   39.9120   26.9300   43.6760 C   0  0  0  0  0  2  0  0  0  0  0  0
   39.4510   25.7730   42.7760 C   0  0  0  0  0  2  0  0  0  0  0  0
  1  4  1  1  0  0  0
  1  3  1  0  0  0  0
  2  1  1  0  0  0  0
  2  3  1  0  0  0  0
  3  7  1  1  0  0  0
  3 17  1  0  0  0  0
  5  2  1  0  0  0  0
  6  2  1  0  0  0  0
  8  9  1  0  0  0  0
  8 14  1  0  0  0  0
  9 15  1  0  0  0  0
 10  1  1  0  0  0  0
 10  9  2  0  0  0  0
 11 10  1  0  0  0  0
 12 11  2  0  0  0  0
 12 13  1  0  0  0  0
 13  8  2  0  0  0  0
 16 12  1  0  0  0  0
 17 19  1  0  0  0  0
 19 18  2  6  0  0  0
 19 20  1  0  0  0  0
 20 21  1  0  0  0  0
 22 19  1  0  0  0  0
 22 23  1  0  0  0  0
 23 24  1  0  0  0  0
 25 23  1  0  0  0  0
 25 24  1  0  0  0  0
M  END
>  <minimizedAffinity>
-4.40280485

$$$$

 OpenBabel03252501043D

 25 27  0  0  1  0  0  0  0  0999 V2000
   35.5560   29.3530   39.9400 C   0  0  1  0  0  0  0  0  0  0  0  0
   35.8350   28.1270   39.1500 C   0  0  0  0  0  0  0  0  0  0  0  0
   36.1890   28.2140   40.6290 C   0  0  1  0  0  0  0  0  0  0  0  0
   34.4850   29.5920   40.1490 H   0  0  0  0  0  0  0  0  0  0  0  0
   36.7460   27.9940   38.5320 H   0  0  0  0  0  0  0  0  0  0  0  0
   34.9980   27.4640   38.8300 H   0  0  0  0  0  0  0  0  0  0  0  0
   35.5470   27.5350   41.2250 H   0  0  0  0  0  0  0  0  0  0  0  0
   37.8250   31.7620   38.1270 C   0  0  0  0  0  0  0  0  0  0  0  0
   37.0080   30.6460   38.3590 C   0  0  0  0  0  0  0  0  0  0  0  0
   36.4290   30.5220   39.6290 C   0  0  0  0  0  0  0  0  0  0  0  0
   36.6740   31.4690   40.5780 N   0  0  0  0  0  0  0  0  0  0  0  0
   37.4690   32.5350   40.3200 C   0  0  0  0  0  0  0  0  0  0  0  0
   38.0440   32.6800   39.0920 N   0  0  0  0  0  0  0  0  0  0  0  0
   38.3260   31.9730   37.2000 H   0  0  0  0  0  0  0  0  0  0  0  0
   36.8660   29.9540   37.5640 H   0  0  0  0  0  0  0  0  0  0  0  0
   37.6750   33.2920   41.0510 H   0  0  0  0  0  0  0  0  0  0  0  0
   37.4450   28.3660   41.0710 O   0  0  0  0  0  0  0  0  0  0  0  0
   37.4590   26.7830   43.1990 O   0  0  0  0  0  0  0  0  0  0  0  0
   37.7640   28.1660   42.6690 P   0  0  2  0  0  0  0  0  0  0  0  0
   36.9530   29.2480   43.6800 O   0  0  0  0  0  0  0  0  0  0  0  0
   36.1850   28.8170   44.1300 H   0  0  0  0  0  0  0  0  0  0  0  0
   39.4130   28.3940   42.9420 O   0  0  0  0  0  0  0  0  0  0  0  0
   39.9860   29.3200   42.0990 C   0  0  0  0  0  3  0  0  0  0  0  0
   41.1950   30.0870   42.5050 C   0  0  0  0  0  2  0  0  0  0  0  0
   39.8210   30.7750   42.5460 C   0  0  0  0  0  2  0  0  0  0  0  0
  1  4  1  1  0  0  0
  1  3  1  0  0  0  0
  2  1  1  0  0  0  0
  2  3  1  0  0  0  0
  3 17  1  0  0  0  0
  3  7  1  1  0  0  0
  5  2  1  0  0  0  0
  6  2  1  0  0  0  0
  8  9  2  0  0  0  0
  8 13  1  0  0  0  0
  9 10  1  0  0  0  0
 10  1  1  0  0  0  0
 10 11  2  0  0  0  0
 12 11  1  0  0  0  0
 12 16  1  0  0  0  0
 13 12  2  0  0  0  0
 14  8  1  0  0  0  0
 15  9  1  0  0  0  0
 17 19  1  0  0  0  0
 19 22  1  0  0  0  0
 19 18  2  1  0  0  0
 19 20  1  0  0  0  0
 20 21  1  0  0  0  0
 23 24  1  0  0  0  0
 23 25  1  0  0  0  0
 23 22  1  0  0  0  0
 24 25  1  0  0  0  0
M  END
>  <minimizedAffinity>
-4.3098464

$$$$

 OpenBabel03252501043D

 25 27  0  0  1  0  0  0  0  0999 V2000
   36.9810   27.3330   43.1640 C   0  0  1  0  0  0  0  0  0  0  0  0
   37.8680   28.4840   43.4680 C   0  0  0  0  0  0  0  0  0  0  0  0
   36.8840   28.5280   42.3060 C   0  0  1  0  0  0  0  0  0  0  0  0
   36.1620   27.1140   43.8920 H   0  0  0  0  0  0  0  0  0  0  0  0
   38.9130   28.5610   43.1050 H   0  0  0  0  0  0  0  0  0  0  0  0
   37.6770   29.1160   44.3660 H   0  0  0  0  0  0  0  0  0  0  0  0
   36.0740   29.2570   42.5080 H   0  0  0  0  0  0  0  0  0  0  0  0
   37.5990   23.9780   41.5490 C   0  0  0  0  0  0  0  0  0  0  0  0
   36.9040   25.0760   42.0770 C   0  0  0  0  0  0  0  0  0  0  0  0
   37.6630   26.1400   42.5820 C   0  0  0  0  0  0  0  0  0  0  0  0
   39.0230   26.0760   42.5450 N   0  0  0  0  0  0  0  0  0  0  0  0
   39.6630   25.0000   42.0270 C   0  0  0  0  0  0  0  0  0  0  0  0
   38.9490   23.9520   41.5290 N   0  0  0  0  0  0  0  0  0  0  0  0
   37.1380   23.1020   41.1330 H   0  0  0  0  0  0  0  0  0  0  0  0
   35.8410   25.0480   42.0670 H   0  0  0  0  0  0  0  0  0  0  0  0
   40.7330   24.9290   41.9870 H   0  0  0  0  0  0  0  0  0  0  0  0
   37.2610   28.4150   41.0250 O   0  0  0  0  0  0  0  0  0  0  0  0
   34.7800   29.0380   40.3230 O   0  0  0  0  0  0  0  0  0  0  0  0
   36.1360   28.5730   39.8400 P   0  0  2  0  0  0  0  0  0  0  0  0
   35.8630   27.1670   38.9480 O   0  0  0  0  0  0  0  0  0  0  0  0
   35.0190   26.7260   39.2170 H   0  0  0  0  0  0  0  0  0  0  0  0
   36.6440   29.7500   38.7420 O   0  0  0  0  0  0  0  0  0  0  0  0
   37.4890   30.6870   39.2950 C   0  0  0  0  0  3  0  0  0  0  0  0
   36.9620   31.8070   40.1210 C   0  0  0  0  0  2  0  0  0  0  0  0
   37.3920   32.0810   38.6710 C   0  0  0  0  0  2  0  0  0  0  0  0
  1  2  1  0  0  0  0
  1  4  1  1  0  0  0
  2  6  1  0  0  0  0
  3  7  1  1  0  0  0
  3  1  1  0  0  0  0
  3  2  1  0  0  0  0
  5  2  1  0  0  0  0
  8  9  1  0  0  0  0
  9 10  2  0  0  0  0
 10  1  1  0  0  0  0
 11 10  1  0  0  0  0
 12 11  2  0  0  0  0
 13  8  2  0  0  0  0
 13 12  1  0  0  0  0
 14  8  1  0  0  0  0
 15  9  1  0  0  0  0
 16 12  1  0  0  0  0
 17  3  1  0  0  0  0
 19 18  2  1  0  0  0
 19 17  1  0  0  0  0
 20 21  1  0  0  0  0
 20 19  1  0  0  0  0
 22 23  1  0  0  0  0
 22 19  1  0  0  0  0
 23 24  1  0  0  0  0
 25 23  1  0  0  0  0
 25 24  1  0  0  0  0
M  END
>  <minimizedAffinity>
-4.27607393

$$$$

 OpenBabel03252501043D

 25 27  0  0  1  0  0  0  0  0999 V2000
   35.7330   30.1720   40.4990 C   0  0  1  0  0  0  0  0  0  0  0  0
   35.0940   29.1910   39.5840 C   0  0  0  0  0  0  0  0  0  0  0  0
   35.6030   28.7780   40.9600 C   0  0  1  0  0  0  0  0  0  0  0  0
   35.0750   30.9590   40.9420 H   0  0  0  0  0  0  0  0  0  0  0  0
   35.6430   28.6580   38.7820 H   0  0  0  0  0  0  0  0  0  0  0  0
   33.9960   29.2300   39.4000 H   0  0  0  0  0  0  0  0  0  0  0  0
   34.7570   28.5200   41.6280 H   0  0  0  0  0  0  0  0  0  0  0  0
   38.7990   30.9450   38.4390 C   0  0  0  0  0  0  0  0  0  0  0  0
   37.5040   30.5120   38.7590 C   0  0  0  0  0  0  0  0  0  0  0  0
   37.0960   30.6240   40.0950 C   0  0  0  0  0  0  0  0  0  0  0  0
   37.9530   31.1390   41.0210 N   0  0  0  0  0  0  0  0  0  0  0  0
   39.1970   31.5490   40.6780 C   0  0  0  0  0  0  0  0  0  0  0  0
   39.6190   31.4520   39.3850 N   0  0  0  0  0  0  0  0  0  0  0  0
   39.2310   30.9140   37.4570 H   0  0  0  0  0  0  0  0  0  0  0  0
   36.8980   30.1240   37.9770 H   0  0  0  0  0  0  0  0  0  0  0  0
   39.8870   31.9590   41.3900 H   0  0  0  0  0  0  0  0  0  0  0  0
   36.7260   28.0680   41.1390 O   0  0  0  0  0  0  0  0  0  0  0  0
   36.1610   27.4200   43.6490 O   0  0  0  0  0  0  0  0  0  0  0  0
   37.2540   27.7760   42.6660 P   0  0  2  0  0  0  0  0  0  0  0  0
   38.1160   29.0500   43.3590 O   0  0  0  0  0  0  0  0  0  0  0  0
   37.5640   29.5470   44.0130 H   0  0  0  0  0  0  0  0  0  0  0  0
   38.2900   26.4430   42.6520 O   0  0  0  0  0  0  0  0  0  0  0  0
   38.0130   25.5450   41.6450 C   0  0  0  0  0  3  0  0  0  0  0  0
   36.9380   24.5270   41.7960 C   0  0  0  0  0  2  0  0  0  0  0  0
   38.4050   24.0990   41.9560 C   0  0  0  0  0  2  0  0  0  0  0  0
  1  4  1  1  0  0  0
  1  3  1  0  0  0  0
  2  1  1  0  0  0  0
  2  3  1  0  0  0  0
  3 17  1  0  0  0  0
  3  7  1  1  0  0  0
  5  2  1  0  0  0  0
  6  2  1  0  0  0  0
  8  9  2  0  0  0  0
  8 13  1  0  0  0  0
  9 10  1  0  0  0  0
 10  1  1  0  0  0  0
 10 11  2  0  0  0  0
 12 11  1  0  0  0  0
 12 16  1  0  0  0  0
 13 12  2  0  0  0  0
 14  8  1  0  0  0  0
 15  9  1  0  0  0  0
 17 19  1  0  0  0  0
 19 20  1  0  0  0  0
 19 18  2  1  0  0  0
 20 21  1  0  0  0  0
 22 19  1  0  0  0  0
 23 24  1  0  0  0  0
 23 25  1  0  0  0  0
 23 22  1  0  0  0  0
 24 25  1  0  0  0  0
M  END
>  <minimizedAffinity>
-4.22895432

$$$$

 OpenBabel03252501043D

 25 27  0  0  1  0  0  0  0  0999 V2000
   37.4160   26.9100   39.1280 C   0  0  1  0  0  0  0  0  0  0  0  0
   36.0150   26.7850   38.6490 C   0  0  0  0  0  0  0  0  0  0  0  0
   36.5040   28.0480   39.3470 C   0  0  1  0  0  0  0  0  0  0  0  0
   38.2150   26.9910   38.3510 H   0  0  0  0  0  0  0  0  0  0  0  0
   35.2120   26.2940   39.2350 H   0  0  0  0  0  0  0  0  0  0  0  0
   35.7910   26.8190   37.5570 H   0  0  0  0  0  0  0  0  0  0  0  0
   36.5410   28.8970   38.6360 H   0  0  0  0  0  0  0  0  0  0  0  0
   37.3140   24.2540   41.8060 C   0  0  0  0  0  0  0  0  0  0  0  0
   36.9480   24.9920   40.6700 C   0  0  0  0  0  0  0  0  0  0  0  0
   37.7570   26.0820   40.3210 C   0  0  0  0  0  0  0  0  0  0  0  0
   38.8480   26.3840   41.0790 N   0  0  0  0  0  0  0  0  0  0  0  0
   39.1720   25.6490   42.1690 C   0  0  0  0  0  0  0  0  0  0  0  0
   38.4040   24.5830   42.5320 N   0  0  0  0  0  0  0  0  0  0  0  0
   36.7810   23.3990   42.1790 H   0  0  0  0  0  0  0  0  0  0  0  0
   36.0830   24.6890   40.1330 H   0  0  0  0  0  0  0  0  0  0  0  0
   40.0270   25.8680   42.7800 H   0  0  0  0  0  0  0  0  0  0  0  0
   36.1770   28.3580   40.6090 O   0  0  0  0  0  0  0  0  0  0  0  0
   37.4000   29.5640   42.6300 O   0  0  0  0  0  0  0  0  0  0  0  0
   36.7580   29.7420   41.2720 P   0  0  2  0  0  0  0  0  0  0  0  0
   35.6060   30.9630   41.4510 O   0  0  0  0  0  0  0  0  0  0  0  0
   35.3070   31.0440   42.3910 H   0  0  0  0  0  0  0  0  0  0  0  0
   37.9740   30.3670   40.2830 O   0  0  0  0  0  0  0  0  0  0  0  0
   37.6300   31.5520   39.6730 C   0  0  0  0  0  3  0  0  0  0  0  0
   37.3270   31.6090   38.2170 C   0  0  0  0  0  2  0  0  0  0  0  0
   38.6890   32.1100   38.7200 C   0  0  0  0  0  2  0  0  0  0  0  0
  1  4  1  6  0  0  0
  1  3  1  0  0  0  0
  1 10  1  0  0  0  0
  2  1  1  0  0  0  0
  2  5  1  0  0  0  0
  2  3  1  0  0  0  0
  3  7  1  6  0  0  0
  3 17  1  0  0  0  0
  6  2  1  0  0  0  0
  8 14  1  0  0  0  0
  8 13  1  0  0  0  0
  9  8  2  0  0  0  0
 10  9  1  0  0  0  0
 10 11  2  0  0  0  0
 11 12  1  0  0  0  0
 12 13  2  0  0  0  0
 12 16  1  0  0  0  0
 15  9  1  0  0  0  0
 17 19  1  0  0  0  0
 19 20  1  0  0  0  0
 19 18  2  1  0  0  0
 20 21  1  0  0  0  0
 22 19  1  0  0  0  0
 23 22  1  0  0  0  0
 24 25  1  0  0  0  0
 24 23  1  0  0  0  0
 25 23  1  0  0  0  0
M  END
>  <minimizedAffinity>
-4.16820049

$$$$
