
 OpenBabel03252509313D

 21 22  0  0  0  0  0  0  0  0999 V2000
   47.1700   33.2440   42.9870 C   0  0  0  0  0  0  0  0  0  0  0  0
   47.0910   33.3200   41.8780 H   0  0  0  0  0  0  0  0  0  0  0  0
   46.8070   32.2210   43.2650 H   0  0  0  0  0  0  0  0  0  0  0  0
   44.8570   34.9350   45.3890 C   0  0  0  0  0  0  0  0  0  0  0  0
   45.7280   33.9850   44.8430 C   0  0  0  0  0  0  0  0  0  0  0  0
   46.2590   34.2200   43.5780 C   0  0  0  0  0  0  0  0  0  0  0  0
   45.9050   35.3760   42.9160 N   0  0  0  0  0  0  0  0  0  0  0  0
   45.0600   36.2700   43.4790 C   0  0  0  0  0  0  0  0  0  0  0  0
   44.5430   36.0560   44.6930 N   0  0  0  0  0  0  0  0  0  0  0  0
   44.5010   34.6590   46.3730 H   0  0  0  0  0  0  0  0  0  0  0  0
   46.0040   33.0850   45.3580 H   0  0  0  0  0  0  0  0  0  0  0  0
   44.7710   37.1830   42.9740 H   0  0  0  0  0  0  0  0  0  0  0  0
   48.4750   33.4460   43.4360 O   0  0  0  0  0  0  0  0  0  0  0  0
   50.8120   33.8190   42.3150 O   0  0  0  0  0  0  0  0  0  0  0  0
   49.3410   34.1350   42.1550 P   0  0  2  0  0  0  0  0  0  0  0  0
   49.0190   35.7810   42.1490 O   0  0  0  0  0  0  0  0  0  0  0  0
   49.5410   36.2070   42.8690 H   0  0  0  0  0  0  0  0  0  0  0  0
   48.8120   33.4150   40.7270 O   0  0  0  0  0  0  0  0  0  0  0  0
   48.1260   34.2650   39.8980 C   0  0  0  0  0  3  0  0  0  0  0  0
   46.9490   33.6550   39.1770 C   0  0  0  0  0  2  0  0  0  0  0  0
   48.2160   33.8630   38.4260 C   0  0  0  0  0  2  0  0  0  0  0  0
  1  3  1  0  0  0  0
  1 13  1  0  0  0  0
  1  6  1  0  0  0  0
  2  1  1  0  0  0  0
  4 10  1  0  0  0  0
  5 11  1  0  0  0  0
  5  4  1  0  0  0  0
  6  5  2  0  0  0  0
  7  8  2  0  0  0  0
  7  6  1  0  0  0  0
  8  9  1  0  0  0  0
  9  4  2  0  0  0  0
 12  8  1  0  0  0  0
 15 14  2  1  0  0  0
 15 13  1  0  0  0  0
 16 15  1  0  0  0  0
 16 17  1  0  0  0  0
 18 15  1  0  0  0  0
 19 18  1  0  0  0  0
 20 19  1  0  0  0  0
 21 20  1  0  0  0  0
 21 19  1  0  0  0  0
M  END
>  <minimizedAffinity>
-3.97361732

>  <minimizedRMSD>
1.81211627

$$$$
