
 OpenBabel03242520463D

 16 17  0  0  0  0  0  0  0  0999 V2000
   37.1520   32.1930   39.6180 C   0  0  0  0  0  0  0  0  0  0  0  0
   37.1410   31.4650   40.8100 C   0  0  0  0  0  0  0  0  0  0  0  0
   37.3890   30.0870   40.7200 C   0  0  0  0  0  0  0  0  0  0  0  0
   37.6240   29.5330   39.4980 N   0  0  0  0  0  0  0  0  0  0  0  0
   37.6200   30.2880   38.3770 C   0  0  0  0  0  0  0  0  0  0  0  0
   37.3870   31.5970   38.4520 N   0  0  0  0  0  0  0  0  0  0  0  0
   36.9060   33.5870   39.6680 N   0  0  0  0  0  0  0  0  0  0  0  0
   36.9480   31.9830   41.7270 H   0  0  0  0  0  0  0  0  0  0  0  0
   37.8200   29.7080   37.4970 H   0  0  0  0  0  0  0  0  0  0  0  0
   36.3350   34.1860   39.0110 H   0  0  0  0  0  0  0  0  0  0  0  0
   37.2220   34.3150   40.3480 H   0  0  0  0  0  0  0  0  0  0  0  0
   37.3730   29.3620   41.9690 C   0  0  0  0  0  0  0  0  0  0  0  0
   38.1030   29.6170   42.9570 O   0  0  0  0  0  0  0  0  0  0  0  0
   36.4440   28.2150   42.1580 C   0  0  0  0  0  3  0  0  0  0  0  0
   36.5280   27.2940   43.3010 C   0  0  0  0  0  2  0  0  0  0  0  0
   37.1690   26.8660   42.0330 C   0  0  0  0  0  2  0  0  0  0  0  0
  1  7  1  0  0  0  0
  1  2  1  0  0  0  0
  2  8  1  0  0  0  0
  3  2  2  0  0  0  0
  3 12  1  0  0  0  0
  4  3  1  0  0  0  0
  5  6  1  0  0  0  0
  5  4  2  0  0  0  0
  6  1  2  0  0  0  0
  7 11  1  0  0  0  0
  9  5  1  0  0  0  0
 10  7  1  0  0  0  0
 12 14  1  0  0  0  0
 12 13  2  0  0  0  0
 14 15  1  0  0  0  0
 16 14  1  0  0  0  0
 16 15  1  0  0  0  0
M  END
>  <minimizedAffinity>
-4.15520668

$$$$

 OpenBabel03242520463D

 16 17  0  0  0  0  0  0  0  0999 V2000
   36.8390   30.1750   41.2770 C   0  0  0  0  0  0  0  0  0  0  0  0
   36.8890   28.9360   41.9190 C   0  0  0  0  0  0  0  0  0  0  0  0
   38.0940   28.2220   41.8390 C   0  0  0  0  0  0  0  0  0  0  0  0
   39.1400   28.7610   41.1510 N   0  0  0  0  0  0  0  0  0  0  0  0
   39.0330   29.9640   40.5480 C   0  0  0  0  0  0  0  0  0  0  0  0
   37.8930   30.6510   40.6190 N   0  0  0  0  0  0  0  0  0  0  0  0
   35.6390   30.9250   41.3360 N   0  0  0  0  0  0  0  0  0  0  0  0
   36.0190   28.5900   42.4380 H   0  0  0  0  0  0  0  0  0  0  0  0
   39.9380   30.2500   40.0490 H   0  0  0  0  0  0  0  0  0  0  0  0
   35.1710   31.4920   40.5770 H   0  0  0  0  0  0  0  0  0  0  0  0
   34.9650   31.0810   42.1200 H   0  0  0  0  0  0  0  0  0  0  0  0
   38.1160   26.9450   42.5130 C   0  0  0  0  0  0  0  0  0  0  0  0
   39.0150   26.5650   43.3030 O   0  0  0  0  0  0  0  0  0  0  0  0
   37.0200   25.9630   42.2960 C   0  0  0  0  0  3  0  0  0  0  0  0
   37.2530   24.5190   42.1490 C   0  0  0  0  0  2  0  0  0  0  0  0
   37.1020   25.3130   40.9060 C   0  0  0  0  0  2  0  0  0  0  0  0
  1  7  1  0  0  0  0
  1  2  1  0  0  0  0
  2  8  1  0  0  0  0
  3  2  2  0  0  0  0
  3 12  1  0  0  0  0
  4  3  1  0  0  0  0
  5  6  1  0  0  0  0
  5  4  2  0  0  0  0
  6  1  2  0  0  0  0
  7 11  1  0  0  0  0
  9  5  1  0  0  0  0
 10  7  1  0  0  0  0
 12 13  2  0  0  0  0
 14 12  1  0  0  0  0
 15 14  1  0  0  0  0
 16 15  1  0  0  0  0
 16 14  1  0  0  0  0
M  END
>  <minimizedAffinity>
-4.07008743

$$$$

 OpenBabel03242520463D

 16 17  0  0  0  0  0  0  0  0999 V2000
   36.5580   29.8790   40.9300 C   0  0  0  0  0  0  0  0  0  0  0  0
   36.7460   28.8520   41.8570 C   0  0  0  0  0  0  0  0  0  0  0  0
   37.6100   27.8100   41.4900 C   0  0  0  0  0  0  0  0  0  0  0  0
   38.2140   27.8470   40.2700 N   0  0  0  0  0  0  0  0  0  0  0  0
   37.9930   28.8660   39.4120 C   0  0  0  0  0  0  0  0  0  0  0  0
   37.1740   29.8620   39.7510 N   0  0  0  0  0  0  0  0  0  0  0  0
   35.6920   30.9490   41.2650 N   0  0  0  0  0  0  0  0  0  0  0  0
   36.2320   28.9050   42.7950 H   0  0  0  0  0  0  0  0  0  0  0  0
   38.5370   28.7520   38.4950 H   0  0  0  0  0  0  0  0  0  0  0  0
   34.9900   31.4520   40.6560 H   0  0  0  0  0  0  0  0  0  0  0  0
   35.5560   31.4660   42.1630 H   0  0  0  0  0  0  0  0  0  0  0  0
   37.7870   26.7630   42.4700 C   0  0  0  0  0  0  0  0  0  0  0  0
   37.1870   25.6610   42.4600 O   0  0  0  0  0  0  0  0  0  0  0  0
   38.7360   26.9470   43.6010 C   0  0  0  0  0  3  0  0  0  0  0  0
   40.0760   27.5280   43.4380 C   0  0  0  0  0  2  0  0  0  0  0  0
   39.9740   26.0490   43.4600 C   0  0  0  0  0  2  0  0  0  0  0  0
  1  7  1  0  0  0  0
  1  2  1  0  0  0  0
  2  8  1  0  0  0  0
  3  2  2  0  0  0  0
  3 12  1  0  0  0  0
  4  3  1  0  0  0  0
  5  6  1  0  0  0  0
  5  4  2  0  0  0  0
  6  1  2  0  0  0  0
  7 11  1  0  0  0  0
  9  5  1  0  0  0  0
 10  7  1  0  0  0  0
 12 14  1  0  0  0  0
 13 12  2  0  0  0  0
 15 16  1  0  0  0  0
 15 14  1  0  0  0  0
 16 14  1  0  0  0  0
M  END
>  <minimizedAffinity>
-4.00768423

$$$$

 OpenBabel03242520463D

 16 17  0  0  0  0  0  0  0  0999 V2000
   40.7700   31.3200   42.3020 C   0  0  0  0  0  0  0  0  0  0  0  0
   39.6720   30.5560   42.7040 C   0  0  0  0  0  0  0  0  0  0  0  0
   38.6880   30.2930   41.7390 C   0  0  0  0  0  0  0  0  0  0  0  0
   38.8450   30.7860   40.4790 N   0  0  0  0  0  0  0  0  0  0  0  0
   39.9280   31.5220   40.1480 C   0  0  0  0  0  0  0  0  0  0  0  0
   40.8690   31.7770   41.0560 N   0  0  0  0  0  0  0  0  0  0  0  0
   41.7840   31.6060   43.2480 N   0  0  0  0  0  0  0  0  0  0  0  0
   39.6300   30.2080   43.7150 H   0  0  0  0  0  0  0  0  0  0  0  0
   39.9070   31.8370   39.1230 H   0  0  0  0  0  0  0  0  0  0  0  0
   42.3180   32.5050   43.3980 H   0  0  0  0  0  0  0  0  0  0  0  0
   42.2180   31.0110   43.9900 H   0  0  0  0  0  0  0  0  0  0  0  0
   37.5660   29.4990   42.1840 C   0  0  0  0  0  0  0  0  0  0  0  0
   36.4880   29.3630   41.5550 O   0  0  0  0  0  0  0  0  0  0  0  0
   37.6320   28.7650   43.4760 C   0  0  0  0  0  3  0  0  0  0  0  0
   38.2220   27.4260   43.6090 C   0  0  0  0  0  2  0  0  0  0  0  0
   36.7480   27.5080   43.4650 C   0  0  0  0  0  2  0  0  0  0  0  0
  1  2  1  0  0  0  0
  1  7  1  0  0  0  0
  2  8  1  0  0  0  0
  3 12  1  0  0  0  0
  3  2  2  0  0  0  0
  4  3  1  0  0  0  0
  5  4  2  0  0  0  0
  5  6  1  0  0  0  0
  6  1  2  0  0  0  0
  7 10  1  0  0  0  0
  7 11  1  0  0  0  0
  9  5  1  0  0  0  0
 12 14  1  0  0  0  0
 13 12  2  0  0  0  0
 14 15  1  0  0  0  0
 16 14  1  0  0  0  0
 16 15  1  0  0  0  0
M  END
>  <minimizedAffinity>
-3.90888214

$$$$

 OpenBabel03242520463D

 16 17  0  0  0  0  0  0  0  0999 V2000
   39.5440   32.3160   38.3630 C   0  0  0  0  0  0  0  0  0  0  0  0
   38.6150   31.4920   39.0030 C   0  0  0  0  0  0  0  0  0  0  0  0
   38.5050   31.6140   40.3970 C   0  0  0  0  0  0  0  0  0  0  0  0
   39.2940   32.5130   41.0480 N   0  0  0  0  0  0  0  0  0  0  0  0
   40.1770   33.2830   40.3760 C   0  0  0  0  0  0  0  0  0  0  0  0
   40.2890   33.1750   39.0530 N   0  0  0  0  0  0  0  0  0  0  0  0
   39.6840   32.2210   36.9570 N   0  0  0  0  0  0  0  0  0  0  0  0
   38.0350   30.8140   38.4110 H   0  0  0  0  0  0  0  0  0  0  0  0
   40.7230   33.9380   41.0270 H   0  0  0  0  0  0  0  0  0  0  0  0
   40.5640   32.2480   36.3730 H   0  0  0  0  0  0  0  0  0  0  0  0
   38.9690   32.1050   36.2030 H   0  0  0  0  0  0  0  0  0  0  0  0
   37.5350   30.7510   41.0300 C   0  0  0  0  0  0  0  0  0  0  0  0
   36.3230   31.0300   41.1920 O   0  0  0  0  0  0  0  0  0  0  0  0
   37.9450   29.4180   41.5510 C   0  0  0  0  0  3  0  0  0  0  0  0
   37.2630   28.7500   42.6680 C   0  0  0  0  0  2  0  0  0  0  0  0
   38.4970   29.5100   42.9820 C   0  0  0  0  0  2  0  0  0  0  0  0
  1  2  2  0  0  0  0
  1  6  1  0  0  0  0
  2  3  1  0  0  0  0
  3 12  1  0  0  0  0
  3  4  2  0  0  0  0
  5  9  1  0  0  0  0
  5  4  1  0  0  0  0
  6  5  2  0  0  0  0
  7  1  1  0  0  0  0
  8  2  1  0  0  0  0
 10  7  1  0  0  0  0
 11  7  1  0  0  0  0
 12 13  2  0  0  0  0
 12 14  1  0  0  0  0
 14 15  1  0  0  0  0
 14 16  1  0  0  0  0
 15 16  1  0  0  0  0
M  END
>  <minimizedAffinity>
-3.81324625

$$$$

 OpenBabel03242520463D

 16 17  0  0  0  0  0  0  0  0999 V2000
   36.5990   29.1370   41.6430 C   0  0  0  0  0  0  0  0  0  0  0  0
   36.7540   27.7490   41.6300 C   0  0  0  0  0  0  0  0  0  0  0  0
   37.8880   27.2260   42.2680 C   0  0  0  0  0  0  0  0  0  0  0  0
   38.7690   28.0800   42.8610 N   0  0  0  0  0  0  0  0  0  0  0  0
   38.5670   29.4150   42.8410 C   0  0  0  0  0  0  0  0  0  0  0  0
   37.4930   29.9220   42.2370 N   0  0  0  0  0  0  0  0  0  0  0  0
   35.4660   29.7010   41.0070 N   0  0  0  0  0  0  0  0  0  0  0  0
   36.0110   27.1530   41.1400 H   0  0  0  0  0  0  0  0  0  0  0  0
   39.3460   29.9510   43.3470 H   0  0  0  0  0  0  0  0  0  0  0  0
   35.4020   30.5740   40.4150 H   0  0  0  0  0  0  0  0  0  0  0  0
   34.4680   29.3910   40.9810 H   0  0  0  0  0  0  0  0  0  0  0  0
   38.0200   25.7870   42.2400 C   0  0  0  0  0  0  0  0  0  0  0  0
   38.9400   25.1400   42.7950 O   0  0  0  0  0  0  0  0  0  0  0  0
   37.0230   24.9570   41.5110 C   0  0  0  0  0  3  0  0  0  0  0  0
   37.2960   23.5830   41.0650 C   0  0  0  0  0  2  0  0  0  0  0  0
   37.4650   24.6680   40.0690 C   0  0  0  0  0  2  0  0  0  0  0  0
  1  6  1  0  0  0  0
  2  1  2  0  0  0  0
  2  3  1  0  0  0  0
  3  4  2  0  0  0  0
  5  4  1  0  0  0  0
  5  9  1  0  0  0  0
  6  5  2  0  0  0  0
  7  1  1  0  0  0  0
  8  2  1  0  0  0  0
 10  7  1  0  0  0  0
 11  7  1  0  0  0  0
 12  3  1  0  0  0  0
 12 13  2  0  0  0  0
 14 12  1  0  0  0  0
 15 14  1  0  0  0  0
 16 15  1  0  0  0  0
 16 14  1  0  0  0  0
M  END
>  <minimizedAffinity>
-3.80296636

$$$$

 OpenBabel03242520463D

 16 17  0  0  0  0  0  0  0  0999 V2000
   37.5300   31.7510   38.1280 C   0  0  0  0  0  0  0  0  0  0  0  0
   36.7390   30.6620   38.5010 C   0  0  0  0  0  0  0  0  0  0  0  0
   36.3690   30.5730   39.8510 C   0  0  0  0  0  0  0  0  0  0  0  0
   36.7900   31.5340   40.7200 N   0  0  0  0  0  0  0  0  0  0  0  0
   37.5560   32.5660   40.3010 C   0  0  0  0  0  0  0  0  0  0  0  0
   37.9120   32.6600   39.0210 N   0  0  0  0  0  0  0  0  0  0  0  0
   37.9230   31.8750   36.7730 N   0  0  0  0  0  0  0  0  0  0  0  0
   36.4530   29.9530   37.7510 H   0  0  0  0  0  0  0  0  0  0  0  0
   37.8050   33.2360   41.1000 H   0  0  0  0  0  0  0  0  0  0  0  0
   38.8550   32.1770   36.3760 H   0  0  0  0  0  0  0  0  0  0  0  0
   37.3970   31.6990   35.8870 H   0  0  0  0  0  0  0  0  0  0  0  0
   35.5500   29.4370   40.2070 C   0  0  0  0  0  0  0  0  0  0  0  0
   34.3800   29.2400   39.7990 O   0  0  0  0  0  0  0  0  0  0  0  0
   36.0780   28.3890   41.1210 C   0  0  0  0  0  3  0  0  0  0  0  0
   37.5060   28.0550   41.2200 C   0  0  0  0  0  2  0  0  0  0  0  0
   36.6660   27.1990   40.3480 C   0  0  0  0  0  2  0  0  0  0  0  0
  1  2  2  0  0  0  0
  1  6  1  0  0  0  0
  2  3  1  0  0  0  0
  3 12  1  0  0  0  0
  3  4  2  0  0  0  0
  5  4  1  0  0  0  0
  5  9  1  0  0  0  0
  6  5  2  0  0  0  0
  7  1  1  0  0  0  0
  8  2  1  0  0  0  0
 10  7  1  0  0  0  0
 11  7  1  0  0  0  0
 12 14  1  0  0  0  0
 13 12  2  0  0  0  0
 14 15  1  0  0  0  0
 16 14  1  0  0  0  0
 16 15  1  0  0  0  0
M  END
>  <minimizedAffinity>
-3.800982

$$$$

 OpenBabel03242520463D

 16 17  0  0  0  0  0  0  0  0999 V2000
   38.6800   31.5540   37.6760 C   0  0  0  0  0  0  0  0  0  0  0  0
   38.9620   31.4250   39.0380 C   0  0  0  0  0  0  0  0  0  0  0  0
   38.0430   30.7040   39.8160 C   0  0  0  0  0  0  0  0  0  0  0  0
   36.9400   30.1740   39.2180 N   0  0  0  0  0  0  0  0  0  0  0  0
   36.7190   30.3320   37.8950 C   0  0  0  0  0  0  0  0  0  0  0  0
   37.5850   31.0150   37.1470 N   0  0  0  0  0  0  0  0  0  0  0  0
   39.5840   32.2760   36.8590 N   0  0  0  0  0  0  0  0  0  0  0  0
   39.8540   31.8750   39.4240 H   0  0  0  0  0  0  0  0  0  0  0  0
   35.8110   29.8580   37.5760 H   0  0  0  0  0  0  0  0  0  0  0  0
   39.3760   32.9530   36.0750 H   0  0  0  0  0  0  0  0  0  0  0  0
   40.6290   32.3010   36.8480 H   0  0  0  0  0  0  0  0  0  0  0  0
   38.3620   30.5870   41.2200 C   0  0  0  0  0  0  0  0  0  0  0  0
   39.2810   31.2120   41.8020 O   0  0  0  0  0  0  0  0  0  0  0  0
   37.5800   29.6690   42.0920 C   0  0  0  0  0  3  0  0  0  0  0  0
   38.1200   29.0780   43.3240 C   0  0  0  0  0  2  0  0  0  0  0  0
   38.1640   28.2480   42.0960 C   0  0  0  0  0  2  0  0  0  0  0  0
  1  2  1  0  0  0  0
  2  8  1  0  0  0  0
  2  3  2  0  0  0  0
  3 12  1  0  0  0  0
  4  3  1  0  0  0  0
  5  4  2  0  0  0  0
  6  1  2  0  0  0  0
  6  5  1  0  0  0  0
  7  1  1  0  0  0  0
  9  5  1  0  0  0  0
 10  7  1  0  0  0  0
 11  7  1  0  0  0  0
 12 13  2  0  0  0  0
 12 14  1  0  0  0  0
 14 16  1  0  0  0  0
 14 15  1  0  0  0  0
 16 15  1  0  0  0  0
M  END
>  <minimizedAffinity>
-3.65531802

$$$$

 OpenBabel03242520463D

 16 17  0  0  0  0  0  0  0  0999 V2000
   34.6350   29.0390   38.4590 C   0  0  0  0  0  0  0  0  0  0  0  0
   35.0390   28.9290   39.7910 C   0  0  0  0  0  0  0  0  0  0  0  0
   36.3750   29.2420   40.0820 C   0  0  0  0  0  0  0  0  0  0  0  0
   37.2010   29.6310   39.0710 N   0  0  0  0  0  0  0  0  0  0  0  0
   36.7550   29.7180   37.7990 C   0  0  0  0  0  0  0  0  0  0  0  0
   35.4870   29.4230   37.5120 N   0  0  0  0  0  0  0  0  0  0  0  0
   33.2930   28.7310   38.1270 N   0  0  0  0  0  0  0  0  0  0  0  0
   34.3220   28.6170   40.5220 H   0  0  0  0  0  0  0  0  0  0  0  0
   37.5210   30.0360   37.1200 H   0  0  0  0  0  0  0  0  0  0  0  0
   32.9190   28.2100   37.2860 H   0  0  0  0  0  0  0  0  0  0  0  0
   32.3980   28.9410   38.6230 H   0  0  0  0  0  0  0  0  0  0  0  0
   36.7640   29.1210   41.4680 C   0  0  0  0  0  0  0  0  0  0  0  0
   37.4630   29.9540   42.0930 O   0  0  0  0  0  0  0  0  0  0  0  0
   36.3330   27.9420   42.2670 C   0  0  0  0  0  3  0  0  0  0  0  0
   36.9780   27.5480   43.5280 C   0  0  0  0  0  2  0  0  0  0  0  0
   37.4110   26.8470   42.2960 C   0  0  0  0  0  2  0  0  0  0  0  0
  1  2  1  0  0  0  0
  2  3  2  0  0  0  0
  2  8  1  0  0  0  0
  3 12  1  0  0  0  0
  4  3  1  0  0  0  0
  5  4  2  0  0  0  0
  6  5  1  0  0  0  0
  6  1  2  0  0  0  0
  7  1  1  0  0  0  0
  7 11  1  0  0  0  0
  9  5  1  0  0  0  0
 10  7  1  0  0  0  0
 12 13  2  0  0  0  0
 12 14  1  0  0  0  0
 14 16  1  0  0  0  0
 14 15  1  0  0  0  0
 16 15  1  0  0  0  0
M  END
>  <minimizedAffinity>
-3.61925387

$$$$
