
 OpenBabel03252509313D

 21 22  0  0  0  0  0  0  0  0999 V2000
   46.4900   34.1950   42.5120 C   0  0  0  0  0  0  0  0  0  0  0  0
   45.5210   34.1340   41.9660 H   0  0  0  0  0  0  0  0  0  0  0  0
   47.1450   33.3880   42.0950 H   0  0  0  0  0  0  0  0  0  0  0  0
   46.7100   32.5990   45.8860 C   0  0  0  0  0  0  0  0  0  0  0  0
   46.9660   32.8750   44.5380 C   0  0  0  0  0  0  0  0  0  0  0  0
   46.2410   33.8870   43.9180 C   0  0  0  0  0  0  0  0  0  0  0  0
   45.3010   34.5750   44.6560 N   0  0  0  0  0  0  0  0  0  0  0  0
   45.0830   34.2770   45.9570 C   0  0  0  0  0  0  0  0  0  0  0  0
   45.7730   33.3070   46.5650 N   0  0  0  0  0  0  0  0  0  0  0  0
   47.3250   31.7970   46.2730 H   0  0  0  0  0  0  0  0  0  0  0  0
   47.6990   32.3400   43.9640 H   0  0  0  0  0  0  0  0  0  0  0  0
   44.3490   34.8070   46.5510 H   0  0  0  0  0  0  0  0  0  0  0  0
   47.0930   35.4450   42.3770 O   0  0  0  0  0  0  0  0  0  0  0  0
   49.3380   36.4920   41.5270 O   0  0  0  0  0  0  0  0  0  0  0  0
   48.5300   35.2130   41.5120 P   0  0  2  0  0  0  0  0  0  0  0  0
   48.1190   34.7130   39.9650 O   0  0  0  0  0  0  0  0  0  0  0  0
   47.8130   35.4970   39.4510 H   0  0  0  0  0  0  0  0  0  0  0  0
   49.4270   34.0290   42.3070 O   0  0  0  0  0  0  0  0  0  0  0  0
   49.7060   32.9320   41.5330 C   0  0  0  0  0  3  0  0  0  0  0  0
   49.8010   31.6230   42.2790 C   0  0  0  0  0  2  0  0  0  0  0  0
   51.0580   32.3010   41.8620 C   0  0  0  0  0  2  0  0  0  0  0  0
  1  6  1  0  0  0  0
  2  1  1  0  0  0  0
  3  1  1  0  0  0  0
  4 10  1  0  0  0  0
  4  9  1  0  0  0  0
  5  4  2  0  0  0  0
  6  5  1  0  0  0  0
  6  7  2  0  0  0  0
  7  8  1  0  0  0  0
  8 12  1  0  0  0  0
  8  9  2  0  0  0  0
 11  5  1  0  0  0  0
 13  1  1  0  0  0  0
 15 14  2  6  0  0  0
 15 18  1  0  0  0  0
 15 13  1  0  0  0  0
 16 15  1  0  0  0  0
 17 16  1  0  0  0  0
 19 21  1  0  0  0  0
 19 20  1  0  0  0  0
 19 18  1  0  0  0  0
 21 20  1  0  0  0  0
M  END
>  <minimizedAffinity>
-3.75887561

>  <minimizedRMSD>
3.04581571

$$$$
