
 OpenBabel03242510523D

 16 17  0  0  0  0  0  0  0  0999 V2000
   37.3300   33.3450   39.5640 C   0  0  0  0  0  0  0  0  0  0  0  0
   38.5410   33.8750   40.0680 C   0  0  0  0  0  0  0  0  0  0  0  0
   39.3200   33.0380   40.8900 C   0  0  0  0  0  0  0  0  0  0  0  0
   38.8830   31.7880   41.1560 N   0  0  0  0  0  0  0  0  0  0  0  0
   37.7180   31.3130   40.6550 C   0  0  0  0  0  0  0  0  0  0  0  0
   36.9480   32.1050   39.8580 N   0  0  0  0  0  0  0  0  0  0  0  0
   37.9980   29.3610   42.0380 C   0  0  0  0  0  0  0  0  0  0  0  0
   38.9290   29.8670   42.7230 O   0  0  0  0  0  0  0  0  0  0  0  0
   37.3040   29.9850   40.9680 N   0  0  0  0  0  0  0  0  0  0  0  0
   36.8160   34.0520   38.9560 H   0  0  0  0  0  0  0  0  0  0  0  0
   38.9340   34.8530   39.8910 H   0  0  0  0  0  0  0  0  0  0  0  0
   40.2560   33.3680   41.3140 H   0  0  0  0  0  0  0  0  0  0  0  0
   36.5340   29.5440   40.4150 H   0  0  0  0  0  0  0  0  0  0  0  0
   37.6220   27.9730   42.4230 C   0  0  0  0  0  3  0  0  0  0  0  0
   38.2510   27.4660   43.6780 C   0  0  0  0  0  2  0  0  0  0  0  0
   36.8000   27.7870   43.6750 C   0  0  0  0  0  2  0  0  0  0  0  0
  1  6  2  0  0  0  0
  1  2  1  0  0  0  0
  2  3  2  0  0  0  0
  3  4  1  0  0  0  0
  3 12  1  0  0  0  0
  5  9  1  0  0  0  0
  5  4  2  0  0  0  0
  6  5  1  0  0  0  0
  7 14  1  0  0  0  0
  7  8  2  0  0  0  0
  9  7  1  0  0  0  0
 10  1  1  0  0  0  0
 11  2  1  0  0  0  0
 13  9  1  0  0  0  0
 14 16  1  0  0  0  0
 14 15  1  0  0  0  0
 16 15  1  0  0  0  0
M  END
>  <minimizedAffinity>
-4.09976149

$$$$

 OpenBabel03242510523D

 16 17  0  0  0  0  0  0  0  0999 V2000
   37.0640   26.9370   42.9350 C   0  0  0  0  0  0  0  0  0  0  0  0
   38.3940   27.0060   43.4140 C   0  0  0  0  0  0  0  0  0  0  0  0
   39.1000   28.2040   43.1890 C   0  0  0  0  0  0  0  0  0  0  0  0
   38.4860   29.2150   42.5390 N   0  0  0  0  0  0  0  0  0  0  0  0
   37.2110   29.1150   42.0940 C   0  0  0  0  0  0  0  0  0  0  0  0
   36.5090   27.9660   42.3000 N   0  0  0  0  0  0  0  0  0  0  0  0
   37.5050   31.2280   40.9770 C   0  0  0  0  0  0  0  0  0  0  0  0
   38.7570   31.2420   41.1350 O   0  0  0  0  0  0  0  0  0  0  0  0
   36.6120   30.2140   41.4130 N   0  0  0  0  0  0  0  0  0  0  0  0
   36.6170   25.9960   43.1530 H   0  0  0  0  0  0  0  0  0  0  0  0
   38.9270   26.2400   43.9330 H   0  0  0  0  0  0  0  0  0  0  0  0
   40.1170   28.3350   43.5230 H   0  0  0  0  0  0  0  0  0  0  0  0
   35.5760   30.2260   41.2690 H   0  0  0  0  0  0  0  0  0  0  0  0
   36.9540   32.4080   40.2570 C   0  0  0  0  0  3  0  0  0  0  0  0
   37.9630   33.4130   39.8100 C   0  0  0  0  0  2  0  0  0  0  0  0
   37.2900   32.5630   38.7940 C   0  0  0  0  0  2  0  0  0  0  0  0
  1 10  1  0  0  0  0
  1  2  1  0  0  0  0
  2 11  1  0  0  0  0
  3  2  2  0  0  0  0
  3 12  1  0  0  0  0
  4  3  1  0  0  0  0
  5  6  1  0  0  0  0
  5  4  2  0  0  0  0
  6  1  2  0  0  0  0
  7  8  2  0  0  0  0
  7  9  1  0  0  0  0
  9  5  1  0  0  0  0
 13  9  1  0  0  0  0
 14  7  1  0  0  0  0
 15 14  1  0  0  0  0
 16 15  1  0  0  0  0
 16 14  1  0  0  0  0
M  END
>  <minimizedAffinity>
-3.99287486

$$$$

 OpenBabel03242510523D

 16 17  0  0  0  0  0  0  0  0999 V2000
   40.5950   32.8010   40.4460 C   0  0  0  0  0  0  0  0  0  0  0  0
   39.4660   33.2750   39.7350 C   0  0  0  0  0  0  0  0  0  0  0  0
   38.2210   32.6930   40.0390 C   0  0  0  0  0  0  0  0  0  0  0  0
   38.1590   31.7260   40.9790 N   0  0  0  0  0  0  0  0  0  0  0  0
   39.2600   31.2960   41.6410 C   0  0  0  0  0  0  0  0  0  0  0  0
   40.4760   31.8450   41.3640 N   0  0  0  0  0  0  0  0  0  0  0  0
   37.9110   29.5570   42.6180 C   0  0  0  0  0  0  0  0  0  0  0  0
   36.9390   29.7430   41.8350 O   0  0  0  0  0  0  0  0  0  0  0  0
   39.1380   30.2720   42.6240 N   0  0  0  0  0  0  0  0  0  0  0  0
   41.4850   33.3010   40.1470 H   0  0  0  0  0  0  0  0  0  0  0  0
   39.4570   34.0350   38.9850 H   0  0  0  0  0  0  0  0  0  0  0  0
   37.3130   32.9990   39.5410 H   0  0  0  0  0  0  0  0  0  0  0  0
   39.9300   30.0970   43.2840 H   0  0  0  0  0  0  0  0  0  0  0  0
   37.7090   28.4710   43.6160 C   0  0  0  0  0  3  0  0  0  0  0  0
   36.6820   27.4510   43.2510 C   0  0  0  0  0  2  0  0  0  0  0  0
   38.1190   27.0710   43.2280 C   0  0  0  0  0  2  0  0  0  0  0  0
  1  6  1  0  0  0  0
  2  3  1  0  0  0  0
  2  1  2  0  0  0  0
  3  4  2  0  0  0  0
  4  5  1  0  0  0  0
  5  9  1  0  0  0  0
  6  5  2  0  0  0  0
  7  9  1  0  0  0  0
  7 14  1  0  0  0  0
  8  7  2  0  0  0  0
  9 13  1  0  0  0  0
 10  1  1  0  0  0  0
 11  2  1  0  0  0  0
 12  3  1  0  0  0  0
 15 14  1  0  0  0  0
 16 15  1  0  0  0  0
 16 14  1  0  0  0  0
M  END
>  <minimizedAffinity>
-3.95796657

$$$$

 OpenBabel03242510523D

 16 17  0  0  0  0  0  0  0  0999 V2000
   39.1740   27.7340   43.3630 C   0  0  0  0  0  0  0  0  0  0  0  0
   37.9020   27.1390   43.5390 C   0  0  0  0  0  0  0  0  0  0  0  0
   36.8090   27.7460   42.8910 C   0  0  0  0  0  0  0  0  0  0  0  0
   37.0210   28.8500   42.1430 N   0  0  0  0  0  0  0  0  0  0  0  0
   38.2530   29.3930   41.9960 C   0  0  0  0  0  0  0  0  0  0  0  0
   39.3240   28.8220   42.6140 N   0  0  0  0  0  0  0  0  0  0  0  0
   37.2240   31.2490   40.8570 C   0  0  0  0  0  0  0  0  0  0  0  0
   36.0520   30.9280   41.1960 O   0  0  0  0  0  0  0  0  0  0  0  0
   38.4190   30.5600   41.1940 N   0  0  0  0  0  0  0  0  0  0  0  0
   39.9310   27.2040   43.8910 H   0  0  0  0  0  0  0  0  0  0  0  0
   37.6780   26.2690   44.1170 H   0  0  0  0  0  0  0  0  0  0  0  0
   35.8080   27.3530   42.9750 H   0  0  0  0  0  0  0  0  0  0  0  0
   39.3800   30.8470   40.8990 H   0  0  0  0  0  0  0  0  0  0  0  0
   37.3170   32.4780   40.0210 C   0  0  0  0  0  3  0  0  0  0  0  0
   38.5930   32.6380   39.2610 C   0  0  0  0  0  2  0  0  0  0  0  0
   37.3460   32.3100   38.5210 C   0  0  0  0  0  2  0  0  0  0  0  0
  1  2  1  0  0  0  0
  1 10  1  0  0  0  0
  2 11  1  0  0  0  0
  3 12  1  0  0  0  0
  3  2  2  0  0  0  0
  4  3  1  0  0  0  0
  5  4  2  0  0  0  0
  5  6  1  0  0  0  0
  6  1  2  0  0  0  0
  7  9  1  0  0  0  0
  7  8  2  0  0  0  0
  9  5  1  0  0  0  0
 13  9  1  0  0  0  0
 14  7  1  0  0  0  0
 15 14  1  0  0  0  0
 16 15  1  0  0  0  0
 16 14  1  0  0  0  0
M  END
>  <minimizedAffinity>
-3.91342807

$$$$

 OpenBabel03242510523D

 16 17  0  0  0  0  0  0  0  0999 V2000
   38.7270   25.0730   42.5300 C   0  0  0  0  0  0  0  0  0  0  0  0
   39.7230   25.5440   43.4190 C   0  0  0  0  0  0  0  0  0  0  0  0
   39.7530   26.9270   43.6800 C   0  0  0  0  0  0  0  0  0  0  0  0
   38.8470   27.7290   43.0810 N   0  0  0  0  0  0  0  0  0  0  0  0
   37.9060   27.2440   42.2350 C   0  0  0  0  0  0  0  0  0  0  0  0
   37.8580   25.9090   41.9680 N   0  0  0  0  0  0  0  0  0  0  0  0
   37.2950   29.5150   41.7200 C   0  0  0  0  0  0  0  0  0  0  0  0
   38.3130   30.0140   42.2760 O   0  0  0  0  0  0  0  0  0  0  0  0
   36.9730   28.1350   41.6300 N   0  0  0  0  0  0  0  0  0  0  0  0
   38.7860   24.0190   42.3980 H   0  0  0  0  0  0  0  0  0  0  0  0
   40.4620   24.9570   43.9190 H   0  0  0  0  0  0  0  0  0  0  0  0
   40.4820   27.3650   44.3450 H   0  0  0  0  0  0  0  0  0  0  0  0
   36.1220   27.7480   41.1630 H   0  0  0  0  0  0  0  0  0  0  0  0
   36.3680   30.5080   41.1110 C   0  0  0  0  0  3  0  0  0  0  0  0
   37.0170   31.7370   40.5640 C   0  0  0  0  0  2  0  0  0  0  0  0
   36.4550   30.7340   39.6210 C   0  0  0  0  0  2  0  0  0  0  0  0
  1  2  1  0  0  0  0
  2  3  2  0  0  0  0
  2 11  1  0  0  0  0
  3 12  1  0  0  0  0
  4  3  1  0  0  0  0
  5  4  2  0  0  0  0
  6  5  1  0  0  0  0
  6  1  2  0  0  0  0
  7  8  2  0  0  0  0
  9  7  1  0  0  0  0
  9  5  1  0  0  0  0
 10  1  1  0  0  0  0
 13  9  1  0  0  0  0
 14  7  1  0  0  0  0
 15 14  1  0  0  0  0
 16 15  1  0  0  0  0
 16 14  1  0  0  0  0
M  END
>  <minimizedAffinity>
-3.81300926

$$$$

 OpenBabel03242510523D

 16 17  0  0  0  0  0  0  0  0999 V2000
   35.5910   29.2610   37.5460 C   0  0  0  0  0  0  0  0  0  0  0  0
   36.6790   30.0440   37.0930 C   0  0  0  0  0  0  0  0  0  0  0  0
   37.7040   30.3220   38.0190 C   0  0  0  0  0  0  0  0  0  0  0  0
   37.6030   29.8370   39.2750 N   0  0  0  0  0  0  0  0  0  0  0  0
   36.5470   29.0890   39.6740 C   0  0  0  0  0  0  0  0  0  0  0  0
   35.5440   28.8080   38.7960 N   0  0  0  0  0  0  0  0  0  0  0  0
   37.4050   29.1980   41.9210 C   0  0  0  0  0  0  0  0  0  0  0  0
   38.2440   30.1030   41.6560 O   0  0  0  0  0  0  0  0  0  0  0  0
   36.4910   28.6020   41.0120 N   0  0  0  0  0  0  0  0  0  0  0  0
   34.8720   29.1070   36.7760 H   0  0  0  0  0  0  0  0  0  0  0  0
   36.8100   30.4520   36.1150 H   0  0  0  0  0  0  0  0  0  0  0  0
   38.5670   30.9120   37.7520 H   0  0  0  0  0  0  0  0  0  0  0  0
   35.8050   27.8530   41.2580 H   0  0  0  0  0  0  0  0  0  0  0  0
   37.4070   28.7410   43.3380 C   0  0  0  0  0  3  0  0  0  0  0  0
   36.6580   27.4770   43.6030 C   0  0  0  0  0  2  0  0  0  0  0  0
   38.1430   27.4650   43.6660 C   0  0  0  0  0  2  0  0  0  0  0  0
  1  6  1  0  0  0  0
  2  1  2  0  0  0  0
  2  3  1  0  0  0  0
  3  4  2  0  0  0  0
  4  5  1  0  0  0  0
  5  9  1  0  0  0  0
  6  5  2  0  0  0  0
  7 14  1  0  0  0  0
  8  7  2  0  0  0  0
  9 13  1  0  0  0  0
  9  7  1  0  0  0  0
 10  1  1  0  0  0  0
 11  2  1  0  0  0  0
 12  3  1  0  0  0  0
 14 15  1  0  0  0  0
 14 16  1  0  0  0  0
 15 16  1  0  0  0  0
M  END
>  <minimizedAffinity>
-3.61979485

$$$$

 OpenBabel03242510523D

 16 17  0  0  0  0  0  0  0  0999 V2000
   42.9290   33.2520   37.5260 C   0  0  0  0  0  0  0  0  0  0  0  0
   43.4760   33.9310   38.6410 C   0  0  0  0  0  0  0  0  0  0  0  0
   42.6240   34.1600   39.7380 C   0  0  0  0  0  0  0  0  0  0  0  0
   41.3460   33.7300   39.6790 N   0  0  0  0  0  0  0  0  0  0  0  0
   40.8560   33.0820   38.5950 C   0  0  0  0  0  0  0  0  0  0  0  0
   41.6620   32.8490   37.5220 N   0  0  0  0  0  0  0  0  0  0  0  0
   38.6690   33.2040   39.5950 C   0  0  0  0  0  0  0  0  0  0  0  0
   39.0180   34.0300   40.4830 O   0  0  0  0  0  0  0  0  0  0  0  0
   39.4980   32.6490   38.5850 N   0  0  0  0  0  0  0  0  0  0  0  0
   43.6490   33.1270   36.7520 H   0  0  0  0  0  0  0  0  0  0  0  0
   44.4760   34.2920   38.7420 H   0  0  0  0  0  0  0  0  0  0  0  0
   42.9650   34.6710   40.6260 H   0  0  0  0  0  0  0  0  0  0  0  0
   39.1820   31.9660   37.8600 H   0  0  0  0  0  0  0  0  0  0  0  0
   37.2370   32.8000   39.6490 C   0  0  0  0  0  3  0  0  0  0  0  0
   36.9110   31.5130   38.9670 C   0  0  0  0  0  2  0  0  0  0  0  0
   36.8810   31.5720   40.4520 C   0  0  0  0  0  2  0  0  0  0  0  0
  1  2  1  0  0  0  0
  2 11  1  0  0  0  0
  2  3  2  0  0  0  0
  3 12  1  0  0  0  0
  4  3  1  0  0  0  0
  5  4  2  0  0  0  0
  6  1  2  0  0  0  0
  6  5  1  0  0  0  0
  7 14  1  0  0  0  0
  7  8  2  0  0  0  0
  9  5  1  0  0  0  0
  9  7  1  0  0  0  0
 10  1  1  0  0  0  0
 13  9  1  0  0  0  0
 14 16  1  0  0  0  0
 15 14  1  0  0  0  0
 15 16  1  0  0  0  0
M  END
>  <minimizedAffinity>
-3.61729312

$$$$

 OpenBabel03242510523D

 16 17  0  0  0  0  0  0  0  0999 V2000
   37.2070   30.1200   36.9800 C   0  0  0  0  0  0  0  0  0  0  0  0
   37.5640   31.4340   37.3660 C   0  0  0  0  0  0  0  0  0  0  0  0
   37.7120   31.6840   38.7440 C   0  0  0  0  0  0  0  0  0  0  0  0
   37.5100   30.6760   39.6200 N   0  0  0  0  0  0  0  0  0  0  0  0
   37.1690   29.4300   39.2150 C   0  0  0  0  0  0  0  0  0  0  0  0
   37.0200   29.1650   37.8870 N   0  0  0  0  0  0  0  0  0  0  0  0
   36.8370   28.8430   41.5260 C   0  0  0  0  0  0  0  0  0  0  0  0
   36.8830   30.0370   41.9330 O   0  0  0  0  0  0  0  0  0  0  0  0
   36.9670   28.4030   40.1830 N   0  0  0  0  0  0  0  0  0  0  0  0
   37.1200   30.0320   35.9230 H   0  0  0  0  0  0  0  0  0  0  0  0
   37.7360   32.2650   36.7190 H   0  0  0  0  0  0  0  0  0  0  0  0
   37.9830   32.6590   39.1190 H   0  0  0  0  0  0  0  0  0  0  0  0
   36.9250   27.4060   39.8720 H   0  0  0  0  0  0  0  0  0  0  0  0
   36.6240   27.8280   42.5950 C   0  0  0  0  0  3  0  0  0  0  0  0
   37.2710   26.5040   42.3560 C   0  0  0  0  0  2  0  0  0  0  0  0
   37.8220   27.3980   43.4080 C   0  0  0  0  0  2  0  0  0  0  0  0
  1  2  2  0  0  0  0
  1  6  1  0  0  0  0
  2  3  1  0  0  0  0
  3 12  1  0  0  0  0
  3  4  2  0  0  0  0
  5  4  1  0  0  0  0
  5  9  1  0  0  0  0
  6  5  2  0  0  0  0
  7  8  2  0  0  0  0
  7 14  1  0  0  0  0
  9  7  1  0  0  0  0
 10  1  1  0  0  0  0
 11  2  1  0  0  0  0
 13  9  1  0  0  0  0
 14 16  1  0  0  0  0
 15 14  1  0  0  0  0
 15 16  1  0  0  0  0
M  END
>  <minimizedAffinity>
-3.60728812

$$$$

 OpenBabel03242510523D

 16 17  0  0  0  0  0  0  0  0999 V2000
   37.4730   25.8770   41.2230 C   0  0  0  0  0  0  0  0  0  0  0  0
   37.0570   26.1360   42.5510 C   0  0  0  0  0  0  0  0  0  0  0  0
   36.6500   27.4490   42.8560 C   0  0  0  0  0  0  0  0  0  0  0  0
   36.6740   28.3860   41.8840 N   0  0  0  0  0  0  0  0  0  0  0  0
   37.0770   28.1020   40.6220 C   0  0  0  0  0  0  0  0  0  0  0  0
   37.4750   26.8390   40.3050 N   0  0  0  0  0  0  0  0  0  0  0  0
   36.9550   30.4560   40.1270 C   0  0  0  0  0  0  0  0  0  0  0  0
   36.8410   30.7990   41.3360 O   0  0  0  0  0  0  0  0  0  0  0  0
   37.0820   29.1300   39.6350 N   0  0  0  0  0  0  0  0  0  0  0  0
   37.7590   24.8600   41.0940 H   0  0  0  0  0  0  0  0  0  0  0  0
   37.0190   25.4360   43.3570 H   0  0  0  0  0  0  0  0  0  0  0  0
   36.3200   27.7270   43.8450 H   0  0  0  0  0  0  0  0  0  0  0  0
   37.1750   28.8720   38.6260 H   0  0  0  0  0  0  0  0  0  0  0  0
   36.9520   31.5840   39.1550 C   0  0  0  0  0  3  0  0  0  0  0  0
   37.3220   32.9150   39.7210 C   0  0  0  0  0  2  0  0  0  0  0  0
   38.2750   32.2240   38.8130 C   0  0  0  0  0  2  0  0  0  0  0  0
  1  2  1  0  0  0  0
  2  3  2  0  0  0  0
  2 11  1  0  0  0  0
  3 12  1  0  0  0  0
  4  3  1  0  0  0  0
  5  4  2  0  0  0  0
  6  5  1  0  0  0  0
  6  1  2  0  0  0  0
  7  8  2  0  0  0  0
  9  7  1  0  0  0  0
  9  5  1  0  0  0  0
 10  1  1  0  0  0  0
 13  9  1  0  0  0  0
 14 15  1  0  0  0  0
 14  7  1  0  0  0  0
 16 14  1  0  0  0  0
 16 15  1  0  0  0  0
M  END
>  <minimizedAffinity>
-3.57898068

$$$$
