
 OpenBabel03252509083D

 35 38  0  0  0  0  0  0  0  0999 V2000
   45.3880   35.3350   43.2430 Cl  0  0  0  0  0  0  0  0  0  0  0  0
   45.2090   34.5730   41.6840 C   0  0  0  0  0  0  0  0  0  0  0  0
   46.2790   34.1590   40.9720 C   0  0  0  0  0  0  0  0  0  0  0  0
   46.0390   33.5740   39.7420 C   0  0  0  0  0  0  0  0  0  0  0  0
   44.7700   33.4120   39.2430 C   0  0  0  0  0  0  0  0  0  0  0  0
   43.7030   33.8330   39.9680 C   0  0  0  0  0  0  0  0  0  0  0  0
   43.9300   34.4170   41.1990 C   0  0  0  0  0  0  0  0  0  0  0  0
   44.6370   32.9520   38.2770 H   0  0  0  0  0  0  0  0  0  0  0  0
   42.6970   33.7230   39.6150 H   0  0  0  0  0  0  0  0  0  0  0  0
   43.0740   34.7500   41.7750 H   0  0  0  0  0  0  0  0  0  0  0  0
   47.6210   31.8110   38.9400 C   0  0  0  0  0  0  0  0  0  0  0  0
   47.1690   33.0950   38.9480 C   0  0  0  0  0  0  0  0  0  0  0  0
   47.8020   34.0360   38.1580 C   0  0  0  0  0  0  0  0  0  0  0  0
   48.8730   33.6760   37.3740 C   0  0  0  0  0  0  0  0  0  0  0  0
   49.3490   32.3720   37.3490 C   0  0  0  0  0  0  0  0  0  0  0  0
   48.7060   31.4330   38.1490 C   0  0  0  0  0  0  0  0  0  0  0  0
   47.4710   35.0570   38.1430 H   0  0  0  0  0  0  0  0  0  0  0  0
   49.3440   34.4280   36.7710 H   0  0  0  0  0  0  0  0  0  0  0  0
   50.1790   32.0930   36.7400 H   0  0  0  0  0  0  0  0  0  0  0  0
   49.0870   30.4340   38.1160 H   0  0  0  0  0  0  0  0  0  0  0  0
   46.8740   30.6110   39.8490 S   0  0  0  0  0  0  0  0  0  0  0  0
   45.5370   30.1780   39.3000 O   0  0  0  0  0  0  0  0  0  0  0  0
   47.7670   29.3510   39.6430 O   0  0  0  0  0  0  0  0  0  0  0  0
   46.7150   30.5770   41.5480 C   0  0  0  0  0  3  0  0  0  0  0  0
   45.2430   30.8200   41.9690 C   0  0  0  0  0  2  0  0  0  0  0  0
   45.9240   29.5990   42.3550 C   0  0  0  0  0  2  0  0  0  0  0  0
   49.5820   35.7430   41.9300 C   0  0  0  0  0  0  0  0  0  0  0  0
   48.3010   35.5610   41.3960 C   0  0  0  0  0  0  0  0  0  0  0  0
   47.6140   34.3580   41.5240 C   0  0  0  0  0  0  0  0  0  0  0  0
   48.2700   33.4040   42.1910 N   0  0  0  0  0  0  0  0  0  0  0  0
   49.4940   33.5670   42.7050 C   0  0  0  0  0  0  0  0  0  0  0  0
   50.1430   34.7260   42.5750 N   0  0  0  0  0  0  0  0  0  0  0  0
   50.0440   36.7160   41.7820 H   0  0  0  0  0  0  0  0  0  0  0  0
   47.8160   36.3740   40.8640 H   0  0  0  0  0  0  0  0  0  0  0  0
   50.0110   32.7770   43.2440 H   0  0  0  0  0  0  0  0  0  0  0  0
  2  1  1  0  0  0  0
  3 29  1  0  0  0  0
  3  2  2  0  0  0  0
  4  3  1  0  0  0  0
  5  4  2  0  0  0  0
  5  6  1  0  0  0  0
  6  7  2  0  0  0  0
  7  2  1  0  0  0  0
  7 10  1  0  0  0  0
  8  5  1  0  0  0  0
  9  6  1  0  0  0  0
 11 12  1  0  0  0  0
 11 21  1  0  0  0  0
 12  4  1  0  0  0  0
 13 12  2  0  0  0  0
 14 13  1  0  0  0  0
 15 14  2  0  0  0  0
 15 16  1  0  0  0  0
 16 11  2  0  0  0  0
 17 13  1  0  0  0  0
 18 14  1  0  0  0  0
 19 15  1  0  0  0  0
 20 16  1  0  0  0  0
 21 24  1  0  0  0  0
 22 21  2  0  0  0  0
 23 21  2  0  0  0  0
 24 25  1  0  0  0  0
 24 26  1  0  0  0  0
 25 26  1  0  0  0  0
 27 32  1  0  0  0  0
 28 29  1  0  0  0  0
 28 27  2  0  0  0  0
 29 30  2  0  0  0  0
 30 31  1  0  0  0  0
 31 35  1  0  0  0  0
 32 31  2  0  0  0  0
 33 27  1  0  0  0  0
 34 28  1  0  0  0  0
M  END
>  <minimizedAffinity>
-4.43652916

>  <minimizedRMSD>
0.561164439

$$$$
