
 OpenBabel03252503013D

 24 25  0  0  0  0  0  0  0  0999 V2000
   43.3230   35.4760   41.7770 C   0  0  0  0  0  0  0  0  0  0  0  0
   44.4100   35.5820   41.5000 H   0  0  0  0  0  0  0  0  0  0  0  0
   42.7520   36.3110   41.3220 H   0  0  0  0  0  0  0  0  0  0  0  0
   43.2850   35.5590   43.2470 N   0  0  0  0  0  0  0  0  0  0  0  0
   42.6030   36.2670   43.5820 H   0  0  0  0  0  0  0  0  0  0  0  0
   44.8550   35.8260   43.9000 S   0  0  0  0  0  0  0  0  0  0  0  0
   45.9100   35.7490   42.8530 O   0  0  0  0  0  0  0  0  0  0  0  0
   46.3580   36.5730   42.5180 H   0  0  0  0  0  0  0  0  0  0  0  0
   44.8200   37.2090   44.5100 O   0  0  0  0  0  0  0  0  0  0  0  0
   44.3570   37.9410   43.9960 H   0  0  0  0  0  0  0  0  0  0  0  0
   45.1220   34.7690   45.1650 O   0  0  0  0  0  0  0  0  0  0  0  0
   45.4840   33.5030   44.7560 C   0  0  0  0  0  3  0  0  0  0  0  0
   46.0110   32.6220   45.8690 C   0  0  0  0  0  2  0  0  0  0  0  0
   46.9350   33.1160   44.8090 C   0  0  0  0  0  2  0  0  0  0  0  0
   42.7950   33.8390   41.3010 S   0  0  0  0  0  0  0  0  0  0  0  0
   40.1130   33.1160   41.3380 C   0  0  0  0  0  0  0  0  0  0  0  0
   41.0790   33.9000   40.7210 C   0  0  0  0  0  0  0  0  0  0  0  0
   40.7560   34.7360   39.6590 C   0  0  0  0  0  0  0  0  0  0  0  0
   39.4420   34.7450   39.2590 N   0  0  0  0  0  0  0  0  0  0  0  0
   38.5560   33.9720   39.8870 C   0  0  0  0  0  0  0  0  0  0  0  0
   38.8330   33.1690   40.8950 N   0  0  0  0  0  0  0  0  0  0  0  0
   40.3760   32.4670   42.1640 H   0  0  0  0  0  0  0  0  0  0  0  0
   41.5100   35.3600   39.1660 H   0  0  0  0  0  0  0  0  0  0  0  0
   37.5600   34.0920   39.4510 H   0  0  0  0  0  0  0  0  0  0  0  0
  1  4  1  0  0  0  0
  2  1  1  0  0  0  0
  3  1  1  0  0  0  0
  4  5  1  0  0  0  0
  4  6  1  0  0  0  0
  6  9  1  0  0  0  0
  6 11  1  0  0  0  0
  7  6  1  0  0  0  0
  8  7  1  0  0  0  0
 10  9  1  0  0  0  0
 12 14  1  0  0  0  0
 12 11  1  0  0  0  0
 12 13  1  0  0  0  0
 14 13  1  0  0  0  0
 15  1  1  0  0  0  0
 16 22  1  0  0  0  0
 17 15  1  0  0  0  0
 17 16  2  0  0  0  0
 18 17  1  0  0  0  0
 19 18  2  0  0  0  0
 19 20  1  0  0  0  0
 20 21  2  0  0  0  0
 21 16  1  0  0  0  0
 23 18  1  0  0  0  0
 24 20  1  0  0  0  0
M  END
>  <minimizedAffinity>
-4.65106344

>  <minimizedRMSD>
1.47653341

$$$$
