
 OpenBabel03252505303D

 21 22  0  0  0  0  0  0  0  0999 V2000
   46.9520   32.2460   48.4560 O   0  0  0  0  0  0  0  0  0  0  0  0
   45.8960   32.4270   47.3610 P   0  0  1  0  0  0  0  0  0  0  0  0
   44.6070   33.3640   47.8750 O   0  0  0  0  0  0  0  0  0  0  0  0
   44.8900   34.1880   48.3380 H   0  0  0  0  0  0  0  0  0  0  0  0
   46.6730   33.1100   46.0170 O   0  0  0  0  0  0  0  0  0  0  0  0
   44.5020   35.6200   44.7580 C   0  0  0  0  0  0  0  0  0  0  0  0
   44.8890   35.8040   43.4170 C   0  0  0  0  0  0  0  0  0  0  0  0
   45.9620   34.9910   42.9820 C   0  0  0  0  0  0  0  0  0  0  0  0
   46.5410   34.1060   43.8480 N   0  0  0  0  0  0  0  0  0  0  0  0
   46.0990   34.0000   45.1210 C   0  0  0  0  0  0  0  0  0  0  0  0
   45.0990   34.7410   45.5740 N   0  0  0  0  0  0  0  0  0  0  0  0
   43.6790   36.2630   45.0460 H   0  0  0  0  0  0  0  0  0  0  0  0
   44.4420   36.4900   42.7400 H   0  0  0  0  0  0  0  0  0  0  0  0
   46.3470   35.0500   41.9550 H   0  0  0  0  0  0  0  0  0  0  0  0
   45.3130   30.8770   47.0000 O   0  0  0  0  0  0  0  0  0  0  0  0
   45.0990   30.2100   48.1930 C   0  0  0  0  0  0  0  0  0  0  0  0
   45.8460   30.5180   48.9600 H   0  0  0  0  0  0  0  0  0  0  0  0
   44.0700   30.4430   48.5970 H   0  0  0  0  0  0  0  0  0  0  0  0
   45.1160   28.7310   47.9150 C   0  0  0  0  0  0  0  0  0  0  0  0
   46.0070   28.1510   46.8880 C   0  0  0  0  0  0  0  0  0  0  0  0
   44.5030   28.2110   46.6590 C   0  0  0  0  0  0  0  0  0  0  0  0
  2  3  1  0  0  0  0
  2  1  2  1  0  0  0
  3  4  1  0  0  0  0
  5  2  1  0  0  0  0
  6 12  1  0  0  0  0
  6 11  1  0  0  0  0
  7  6  2  0  0  0  0
  8  7  1  0  0  0  0
  8  9  2  0  0  0  0
  9 10  1  0  0  0  0
 10 11  2  0  0  0  0
 10  5  1  0  0  0  0
 13  7  1  0  0  0  0
 14  8  1  0  0  0  0
 15  2  1  0  0  0  0
 15 16  1  0  0  0  0
 16 18  1  0  0  0  0
 16 17  1  0  0  0  0
 19 16  1  0  0  0  0
 20 19  1  0  0  0  0
 21 20  1  0  0  0  0
 21 19  1  0  0  0  0
M  END
>  <minimizedAffinity>
-4.39933348

>  <minimizedRMSD>
0.562429905

$$$$
