
 OpenBabel03242512393D

 13 14  0  0  0  0  0  0  0  0999 V2000
   48.0930   33.8780   42.9950 C   0  0  0  0  0  0  0  0  0  0  0  0
   49.1650   34.7480   42.7400 C   0  0  0  0  0  0  0  0  0  0  0  0
   50.3950   34.1600   42.3830 C   0  0  0  0  0  0  0  0  0  0  0  0
   50.4800   32.8010   42.3070 N   0  0  0  0  0  0  0  0  0  0  0  0
   49.4040   32.0170   42.5670 C   0  0  0  0  0  0  0  0  0  0  0  0
   48.2330   32.5540   42.9050 N   0  0  0  0  0  0  0  0  0  0  0  0
   49.0600   35.8140   42.8090 H   0  0  0  0  0  0  0  0  0  0  0  0
   51.2170   34.8270   42.1880 H   0  0  0  0  0  0  0  0  0  0  0  0
   49.6630   30.9890   42.4560 H   0  0  0  0  0  0  0  0  0  0  0  0
   46.9030   34.4430   43.3390 O   0  0  0  0  0  0  0  0  0  0  0  0
   46.1350   35.3330   42.5910 C   0  0  0  0  0  0  0  0  0  0  0  0
   45.1240   36.2100   43.2830 C   0  0  0  0  0  0  0  0  0  0  0  0
   44.6460   35.0040   42.5820 C   0  0  0  0  0  0  0  0  0  0  0  0
  1 10  1  0  0  0  0
  2  7  1  0  0  0  0
  2  1  2  0  0  0  0
  3  2  1  0  0  0  0
  4  3  2  0  0  0  0
  4  5  1  0  0  0  0
  5  6  2  0  0  0  0
  6  1  1  0  0  0  0
  8  3  1  0  0  0  0
  9  5  1  0  0  0  0
 11 12  1  0  0  0  0
 11 10  1  0  0  0  0
 13 11  1  0  0  0  0
 13 12  1  0  0  0  0
M  END
>  <minimizedAffinity>
-3.02062941

>  <minimizedRMSD>
4.15414476

$$$$
