
 OpenBabel03252508433D

 25 27  0  0  0  0  0  0  0  0999 V2000
   36.8540   26.9220   40.7670 C   0  0  0  0  0  0  0  0  0  0  0  0
   37.1260   26.3670   41.9980 C   0  0  0  0  0  0  0  0  0  0  0  0
   37.0600   25.0070   42.1730 C   0  0  0  0  0  0  0  0  0  0  0  0
   36.7160   24.2170   41.0900 C   0  0  0  0  0  0  0  0  0  0  0  0
   36.4390   24.7260   39.8570 C   0  0  0  0  0  0  0  0  0  0  0  0
   36.5190   26.1210   39.7250 C   0  0  0  0  0  0  0  0  0  0  0  0
   37.2710   24.5480   43.1410 H   0  0  0  0  0  0  0  0  0  0  0  0
   36.6770   23.1510   41.2730 H   0  0  0  0  0  0  0  0  0  0  0  0
   36.1630   24.0850   39.0270 H   0  0  0  0  0  0  0  0  0  0  0  0
   36.3040   26.5320   38.7500 H   0  0  0  0  0  0  0  0  0  0  0  0
   36.1170   30.6310   40.8080 C   0  0  0  0  0  0  0  0  0  0  0  0
   35.9080   29.2460   40.9460 C   0  0  0  0  0  0  0  0  0  0  0  0
   36.9430   28.3730   40.6650 C   0  0  0  0  0  0  0  0  0  0  0  0
   38.0920   28.9410   40.2750 N   0  0  0  0  0  0  0  0  0  0  0  0
   38.3110   30.2600   40.1380 C   0  0  0  0  0  0  0  0  0  0  0  0
   37.3080   31.1100   40.4090 N   0  0  0  0  0  0  0  0  0  0  0  0
   35.2990   31.3250   41.0260 H   0  0  0  0  0  0  0  0  0  0  0  0
   34.9750   28.8410   41.2650 H   0  0  0  0  0  0  0  0  0  0  0  0
   39.3150   30.5050   39.8120 H   0  0  0  0  0  0  0  0  0  0  0  0
   37.4900   27.2510   43.1560 C   0  0  0  0  0  0  0  0  0  0  0  0
   36.7940   27.1410   44.0000 H   0  0  0  0  0  0  0  0  0  0  0  0
   37.4250   28.2910   42.8040 H   0  0  0  0  0  0  0  0  0  0  0  0
   38.9300   26.9740   43.5060 C   0  0  0  0  0  3  0  0  0  0  0  0
   39.9300   26.7290   42.4510 C   0  0  0  0  0  2  0  0  0  0  0  0
   39.9440   28.0170   43.2400 C   0  0  0  0  0  2  0  0  0  0  0  0
  1  2  1  0  0  0  0
  2  3  2  0  0  0  0
  2 20  1  0  0  0  0
  3  7  1  0  0  0  0
  4  8  1  0  0  0  0
  4  3  1  0  0  0  0
  5  4  2  0  0  0  0
  6  5  1  0  0  0  0
  6  1  2  0  0  0  0
  9  5  1  0  0  0  0
 10  6  1  0  0  0  0
 11 12  1  0  0  0  0
 11 17  1  0  0  0  0
 12 18  1  0  0  0  0
 13  1  1  0  0  0  0
 13 12  2  0  0  0  0
 14 13  1  0  0  0  0
 15 14  2  0  0  0  0
 15 16  1  0  0  0  0
 16 11  2  0  0  0  0
 19 15  1  0  0  0  0
 20 23  1  0  0  0  0
 20 21  1  0  0  0  0
 22 20  1  0  0  0  0
 24 25  1  0  0  0  0
 24 23  1  0  0  0  0
 25 23  1  0  0  0  0
M  END
>  <minimizedAffinity>
-4.7943902

$$$$

 OpenBabel03252508433D

 25 27  0  0  0  0  0  0  0  0999 V2000
   37.6060   29.3760   41.6570 C   0  0  0  0  0  0  0  0  0  0  0  0
   37.1670   28.2990   40.9180 C   0  0  0  0  0  0  0  0  0  0  0  0
   36.8590   27.1130   41.5380 C   0  0  0  0  0  0  0  0  0  0  0  0
   37.0010   27.0310   42.9130 C   0  0  0  0  0  0  0  0  0  0  0  0
   37.4310   28.0720   43.6790 C   0  0  0  0  0  0  0  0  0  0  0  0
   37.7340   29.2630   43.0020 C   0  0  0  0  0  0  0  0  0  0  0  0
   36.5110   26.2480   40.9700 H   0  0  0  0  0  0  0  0  0  0  0  0
   36.7460   26.0790   43.3600 H   0  0  0  0  0  0  0  0  0  0  0  0
   37.5420   27.9780   44.7540 H   0  0  0  0  0  0  0  0  0  0  0  0
   38.0730   30.0930   43.6030 H   0  0  0  0  0  0  0  0  0  0  0  0
   37.4200   32.7220   39.9040 C   0  0  0  0  0  0  0  0  0  0  0  0
   36.9990   31.5870   40.6240 C   0  0  0  0  0  0  0  0  0  0  0  0
   37.9150   30.5960   40.9220 C   0  0  0  0  0  0  0  0  0  0  0  0
   39.1640   30.8080   40.4860 N   0  0  0  0  0  0  0  0  0  0  0  0
   39.5850   31.8830   39.7990 C   0  0  0  0  0  0  0  0  0  0  0  0
   38.6980   32.8480   39.5070 N   0  0  0  0  0  0  0  0  0  0  0  0
   36.6960   33.5070   39.6630 H   0  0  0  0  0  0  0  0  0  0  0  0
   35.9930   31.4650   40.9530 H   0  0  0  0  0  0  0  0  0  0  0  0
   40.6380   31.8560   39.5450 H   0  0  0  0  0  0  0  0  0  0  0  0
   37.0310   28.4170   39.4270 C   0  0  0  0  0  0  0  0  0  0  0  0
   37.7290   27.7580   38.8910 H   0  0  0  0  0  0  0  0  0  0  0  0
   37.2800   29.4540   39.1590 H   0  0  0  0  0  0  0  0  0  0  0  0
   35.5810   28.1890   39.0830 C   0  0  0  0  0  3  0  0  0  0  0  0
   34.5350   29.1020   39.5770 C   0  0  0  0  0  2  0  0  0  0  0  0
   34.9250   29.0970   38.1170 C   0  0  0  0  0  2  0  0  0  0  0  0
  1  6  1  0  0  0  0
  2  3  1  0  0  0  0
  2  1  2  0  0  0  0
  3  4  2  0  0  0  0
  4  8  1  0  0  0  0
  4  5  1  0  0  0  0
  5  9  1  0  0  0  0
  6 10  1  0  0  0  0
  6  5  2  0  0  0  0
  7  3  1  0  0  0  0
 11 12  1  0  0  0  0
 12 13  2  0  0  0  0
 12 18  1  0  0  0  0
 13  1  1  0  0  0  0
 14 13  1  0  0  0  0
 15 14  2  0  0  0  0
 16 15  1  0  0  0  0
 16 11  2  0  0  0  0
 17 11  1  0  0  0  0
 19 15  1  0  0  0  0
 20  2  1  0  0  0  0
 21 20  1  0  0  0  0
 22 20  1  0  0  0  0
 23 20  1  0  0  0  0
 23 24  1  0  0  0  0
 25 23  1  0  0  0  0
 25 24  1  0  0  0  0
M  END
>  <minimizedAffinity>
-4.71861219

$$$$

 OpenBabel03252508433D

 25 27  0  0  0  0  0  0  0  0999 V2000
   36.7840   30.6180   39.1750 C   0  0  0  0  0  0  0  0  0  0  0  0
   36.2420   29.9090   40.2250 C   0  0  0  0  0  0  0  0  0  0  0  0
   35.3340   28.9070   39.9890 C   0  0  0  0  0  0  0  0  0  0  0  0
   34.9820   28.6310   38.6790 C   0  0  0  0  0  0  0  0  0  0  0  0
   35.4930   29.3070   37.6130 C   0  0  0  0  0  0  0  0  0  0  0  0
   36.4170   30.3220   37.9030 C   0  0  0  0  0  0  0  0  0  0  0  0
   34.8930   28.3350   40.8070 H   0  0  0  0  0  0  0  0  0  0  0  0
   34.2640   27.8320   38.5390 H   0  0  0  0  0  0  0  0  0  0  0  0
   35.1930   29.0760   36.5970 H   0  0  0  0  0  0  0  0  0  0  0  0
   36.8300   30.8610   37.0630 H   0  0  0  0  0  0  0  0  0  0  0  0
   38.4140   33.9050   40.0900 C   0  0  0  0  0  0  0  0  0  0  0  0
   37.3990   32.9800   39.7780 C   0  0  0  0  0  0  0  0  0  0  0  0
   37.7370   31.6670   39.5110 C   0  0  0  0  0  0  0  0  0  0  0  0
   39.0450   31.3790   39.5760 N   0  0  0  0  0  0  0  0  0  0  0  0
   40.0270   32.2470   39.8720 C   0  0  0  0  0  0  0  0  0  0  0  0
   39.7010   33.5230   40.1310 N   0  0  0  0  0  0  0  0  0  0  0  0
   38.1490   34.9460   40.2980 H   0  0  0  0  0  0  0  0  0  0  0  0
   36.3700   33.2570   39.7430 H   0  0  0  0  0  0  0  0  0  0  0  0
   41.0150   31.8040   39.8720 H   0  0  0  0  0  0  0  0  0  0  0  0
   36.6390   30.2370   41.6360 C   0  0  0  0  0  0  0  0  0  0  0  0
   35.7680   30.3720   42.2940 H   0  0  0  0  0  0  0  0  0  0  0  0
   37.1840   31.1920   41.6060 H   0  0  0  0  0  0  0  0  0  0  0  0
   37.6020   29.1730   42.0970 C   0  0  0  0  0  3  0  0  0  0  0  0
   38.7990   29.5270   42.8790 C   0  0  0  0  0  2  0  0  0  0  0  0
   37.6370   28.8150   43.5320 C   0  0  0  0  0  2  0  0  0  0  0  0
  1 13  1  0  0  0  0
  1  2  1  0  0  0  0
  2 20  1  0  0  0  0
  3  2  2  0  0  0  0
  3  7  1  0  0  0  0
  4  3  1  0  0  0  0
  5  6  1  0  0  0  0
  5  4  2  0  0  0  0
  6  1  2  0  0  0  0
  8  4  1  0  0  0  0
  9  5  1  0  0  0  0
 10  6  1  0  0  0  0
 11 16  1  0  0  0  0
 11 17  1  0  0  0  0
 12 11  2  0  0  0  0
 13 14  2  0  0  0  0
 13 12  1  0  0  0  0
 14 15  1  0  0  0  0
 15 16  2  0  0  0  0
 18 12  1  0  0  0  0
 19 15  1  0  0  0  0
 20 23  1  0  0  0  0
 20 21  1  0  0  0  0
 22 20  1  0  0  0  0
 23 24  1  0  0  0  0
 23 25  1  0  0  0  0
 24 25  1  0  0  0  0
M  END
>  <minimizedAffinity>
-4.69405222

$$$$

 OpenBabel03252508433D

 25 27  0  0  0  0  0  0  0  0999 V2000
   37.0100   30.2990   39.5940 C   0  0  0  0  0  0  0  0  0  0  0  0
   36.3890   29.5400   40.5620 C   0  0  0  0  0  0  0  0  0  0  0  0
   35.2940   28.7750   40.2440 C   0  0  0  0  0  0  0  0  0  0  0  0
   34.8350   28.7890   38.9380 C   0  0  0  0  0  0  0  0  0  0  0  0
   35.4190   29.5260   37.9530 C   0  0  0  0  0  0  0  0  0  0  0  0
   36.5350   30.2910   38.3240 C   0  0  0  0  0  0  0  0  0  0  0  0
   34.7880   28.1670   40.9970 H   0  0  0  0  0  0  0  0  0  0  0  0
   33.9700   28.1710   38.7330 H   0  0  0  0  0  0  0  0  0  0  0  0
   35.0330   29.5250   36.9390 H   0  0  0  0  0  0  0  0  0  0  0  0
   37.0050   30.8760   37.5470 H   0  0  0  0  0  0  0  0  0  0  0  0
   40.5020   31.4950   40.4140 C   0  0  0  0  0  0  0  0  0  0  0  0
   39.4710   30.6410   39.9790 C   0  0  0  0  0  0  0  0  0  0  0  0
   38.1630   31.0850   40.0140 C   0  0  0  0  0  0  0  0  0  0  0  0
   37.9840   32.3310   40.4740 N   0  0  0  0  0  0  0  0  0  0  0  0
   38.9540   33.1610   40.8930 C   0  0  0  0  0  0  0  0  0  0  0  0
   40.2250   32.7320   40.8610 N   0  0  0  0  0  0  0  0  0  0  0  0
   41.5390   31.1450   40.3920 H   0  0  0  0  0  0  0  0  0  0  0  0
   39.6650   29.6570   39.6170 H   0  0  0  0  0  0  0  0  0  0  0  0
   38.5900   34.1260   41.2230 H   0  0  0  0  0  0  0  0  0  0  0  0
   36.9060   29.5510   41.9710 C   0  0  0  0  0  0  0  0  0  0  0  0
   36.2200   30.0610   42.6630 H   0  0  0  0  0  0  0  0  0  0  0  0
   37.8520   30.1130   41.9660 H   0  0  0  0  0  0  0  0  0  0  0  0
   37.2200   28.1270   42.3530 C   0  0  0  0  0  3  0  0  0  0  0  0
   38.0550   27.8270   43.5290 C   0  0  0  0  0  2  0  0  0  0  0  0
   36.5710   27.5480   43.5490 C   0  0  0  0  0  2  0  0  0  0  0  0
  1 13  1  0  0  0  0
  1  2  1  0  0  0  0
  2 20  1  0  0  0  0
  3  2  2  0  0  0  0
  3  7  1  0  0  0  0
  4  3  1  0  0  0  0
  5  6  1  0  0  0  0
  5  4  2  0  0  0  0
  6  1  2  0  0  0  0
  8  4  1  0  0  0  0
  9  5  1  0  0  0  0
 10  6  1  0  0  0  0
 11 16  1  0  0  0  0
 12 13  1  0  0  0  0
 12 11  2  0  0  0  0
 13 14  2  0  0  0  0
 14 15  1  0  0  0  0
 15 19  1  0  0  0  0
 16 15  2  0  0  0  0
 17 11  1  0  0  0  0
 18 12  1  0  0  0  0
 20 23  1  0  0  0  0
 20 21  1  0  0  0  0
 22 20  1  0  0  0  0
 23 24  1  0  0  0  0
 23 25  1  0  0  0  0
 24 25  1  0  0  0  0
M  END
>  <minimizedAffinity>
-4.6401124

$$$$

 OpenBabel03252508433D

 25 27  0  0  0  0  0  0  0  0999 V2000
   37.7000   29.3770   41.6440 C   0  0  0  0  0  0  0  0  0  0  0  0
   37.2420   28.3030   40.9110 C   0  0  0  0  0  0  0  0  0  0  0  0
   36.8930   27.1340   41.5400 C   0  0  0  0  0  0  0  0  0  0  0  0
   37.0140   27.0630   42.9170 C   0  0  0  0  0  0  0  0  0  0  0  0
   37.4630   28.1000   43.6780 C   0  0  0  0  0  0  0  0  0  0  0  0
   37.8070   29.2750   42.9930 C   0  0  0  0  0  0  0  0  0  0  0  0
   36.5290   26.2730   40.9770 H   0  0  0  0  0  0  0  0  0  0  0  0
   36.7270   26.1230   43.3710 H   0  0  0  0  0  0  0  0  0  0  0  0
   37.5570   28.0150   44.7550 H   0  0  0  0  0  0  0  0  0  0  0  0
   38.1610   30.1020   43.5890 H   0  0  0  0  0  0  0  0  0  0  0  0
   39.5330   32.0650   39.7170 C   0  0  0  0  0  0  0  0  0  0  0  0
   39.3170   30.8650   40.4220 C   0  0  0  0  0  0  0  0  0  0  0  0
   38.0520   30.5790   40.9010 C   0  0  0  0  0  0  0  0  0  0  0  0
   37.1120   31.4980   40.6430 N   0  0  0  0  0  0  0  0  0  0  0  0
   37.2980   32.6470   39.9720 C   0  0  0  0  0  0  0  0  0  0  0  0
   38.5250   32.9280   39.5070 N   0  0  0  0  0  0  0  0  0  0  0  0
   40.5340   32.2960   39.3400 H   0  0  0  0  0  0  0  0  0  0  0  0
   40.0980   30.1620   40.5990 H   0  0  0  0  0  0  0  0  0  0  0  0
   36.4010   33.2460   39.8740 H   0  0  0  0  0  0  0  0  0  0  0  0
   37.1280   28.4090   39.4170 C   0  0  0  0  0  0  0  0  0  0  0  0
   37.8030   27.7130   38.8980 H   0  0  0  0  0  0  0  0  0  0  0  0
   37.4270   29.4310   39.1400 H   0  0  0  0  0  0  0  0  0  0  0  0
   35.6740   28.2410   39.0580 C   0  0  0  0  0  3  0  0  0  0  0  0
   34.6570   29.1740   39.5730 C   0  0  0  0  0  2  0  0  0  0  0  0
   35.0560   29.1990   38.1160 C   0  0  0  0  0  2  0  0  0  0  0  0
  1  6  1  0  0  0  0
  2  3  1  0  0  0  0
  2  1  2  0  0  0  0
  3  4  2  0  0  0  0
  4  8  1  0  0  0  0
  4  5  1  0  0  0  0
  5  9  1  0  0  0  0
  6 10  1  0  0  0  0
  6  5  2  0  0  0  0
  7  3  1  0  0  0  0
 11 12  1  0  0  0  0
 12 18  1  0  0  0  0
 12 13  2  0  0  0  0
 13  1  1  0  0  0  0
 14 13  1  0  0  0  0
 15 14  2  0  0  0  0
 16 11  2  0  0  0  0
 16 15  1  0  0  0  0
 17 11  1  0  0  0  0
 19 15  1  0  0  0  0
 20  2  1  0  0  0  0
 21 20  1  0  0  0  0
 22 20  1  0  0  0  0
 23 20  1  0  0  0  0
 23 24  1  0  0  0  0
 25 23  1  0  0  0  0
 25 24  1  0  0  0  0
M  END
>  <minimizedAffinity>
-4.62996244

$$$$

 OpenBabel03252508433D

 25 27  0  0  0  0  0  0  0  0999 V2000
   37.4650   31.8360   39.8730 C   0  0  0  0  0  0  0  0  0  0  0  0
   38.5910   31.4860   40.5860 C   0  0  0  0  0  0  0  0  0  0  0  0
   39.4720   32.4510   41.0080 C   0  0  0  0  0  0  0  0  0  0  0  0
   39.2000   33.7720   40.7000 C   0  0  0  0  0  0  0  0  0  0  0  0
   38.1000   34.1610   39.9970 C   0  0  0  0  0  0  0  0  0  0  0  0
   37.2280   33.1410   39.5870 C   0  0  0  0  0  0  0  0  0  0  0  0
   40.3690   32.1920   41.5730 H   0  0  0  0  0  0  0  0  0  0  0  0
   39.9210   34.4990   41.0530 H   0  0  0  0  0  0  0  0  0  0  0  0
   37.9160   35.2040   39.7610 H   0  0  0  0  0  0  0  0  0  0  0  0
   36.3520   33.4410   39.0320 H   0  0  0  0  0  0  0  0  0  0  0  0
   35.6520   29.1590   37.9130 C   0  0  0  0  0  0  0  0  0  0  0  0
   36.5520   30.2060   38.1910 C   0  0  0  0  0  0  0  0  0  0  0  0
   36.5840   30.7520   39.4600 C   0  0  0  0  0  0  0  0  0  0  0  0
   35.7270   30.2210   40.3430 N   0  0  0  0  0  0  0  0  0  0  0  0
   34.8620   29.2230   40.0970 C   0  0  0  0  0  0  0  0  0  0  0  0
   34.8280   28.6900   38.8650 N   0  0  0  0  0  0  0  0  0  0  0  0
   35.6210   28.7270   36.9070 H   0  0  0  0  0  0  0  0  0  0  0  0
   37.2180   30.5920   37.4540 H   0  0  0  0  0  0  0  0  0  0  0  0
   34.2620   28.9430   40.9540 H   0  0  0  0  0  0  0  0  0  0  0  0
   38.8610   30.0420   40.8990 C   0  0  0  0  0  0  0  0  0  0  0  0
   39.7740   29.6730   40.4090 H   0  0  0  0  0  0  0  0  0  0  0  0
   38.0140   29.4600   40.5060 H   0  0  0  0  0  0  0  0  0  0  0  0
   38.8650   29.8940   42.3990 C   0  0  0  0  0  3  0  0  0  0  0  0
   37.8520   29.0670   43.0780 C   0  0  0  0  0  2  0  0  0  0  0  0
   39.2870   28.6050   42.9880 C   0  0  0  0  0  2  0  0  0  0  0  0
  1  2  1  0  0  0  0
  2 20  1  0  0  0  0
  2  3  2  0  0  0  0
  3  7  1  0  0  0  0
  4  3  1  0  0  0  0
  4  8  1  0  0  0  0
  5  4  2  0  0  0  0
  6  1  2  0  0  0  0
  6  5  1  0  0  0  0
  9  5  1  0  0  0  0
 10  6  1  0  0  0  0
 11 12  2  0  0  0  0
 11 16  1  0  0  0  0
 12 13  1  0  0  0  0
 13  1  1  0  0  0  0
 13 14  2  0  0  0  0
 15 14  1  0  0  0  0
 15 19  1  0  0  0  0
 16 15  2  0  0  0  0
 17 11  1  0  0  0  0
 18 12  1  0  0  0  0
 20 23  1  0  0  0  0
 21 20  1  0  0  0  0
 22 20  1  0  0  0  0
 23 25  1  0  0  0  0
 23 24  1  0  0  0  0
 25 24  1  0  0  0  0
M  END
>  <minimizedAffinity>
-4.60374117

$$$$

 OpenBabel03252508433D

 25 27  0  0  0  0  0  0  0  0999 V2000
   35.9380   28.2460   39.9800 C   0  0  0  0  0  0  0  0  0  0  0  0
   36.2390   27.0990   39.2770 C   0  0  0  0  0  0  0  0  0  0  0  0
   35.5510   26.7900   38.1300 C   0  0  0  0  0  0  0  0  0  0  0  0
   34.5560   27.6530   37.7040 C   0  0  0  0  0  0  0  0  0  0  0  0
   34.2280   28.7960   38.3690 C   0  0  0  0  0  0  0  0  0  0  0  0
   34.9570   29.0710   39.5350 C   0  0  0  0  0  0  0  0  0  0  0  0
   35.7740   25.8860   37.5610 H   0  0  0  0  0  0  0  0  0  0  0  0
   34.0410   27.3700   36.7940 H   0  0  0  0  0  0  0  0  0  0  0  0
   33.4380   29.4500   38.0170 H   0  0  0  0  0  0  0  0  0  0  0  0
   34.7050   29.9760   40.0660 H   0  0  0  0  0  0  0  0  0  0  0  0
   37.2610   28.2750   43.5220 C   0  0  0  0  0  0  0  0  0  0  0  0
   36.4380   27.9510   42.4270 C   0  0  0  0  0  0  0  0  0  0  0  0
   36.7120   28.5000   41.1880 C   0  0  0  0  0  0  0  0  0  0  0  0
   37.7720   29.3180   41.1370 N   0  0  0  0  0  0  0  0  0  0  0  0
   38.5690   29.6380   42.1700 C   0  0  0  0  0  0  0  0  0  0  0  0
   38.3050   29.1080   43.3740 N   0  0  0  0  0  0  0  0  0  0  0  0
   37.0440   27.8450   44.5050 H   0  0  0  0  0  0  0  0  0  0  0  0
   35.6060   27.2900   42.5170 H   0  0  0  0  0  0  0  0  0  0  0  0
   39.3720   30.3160   41.9080 H   0  0  0  0  0  0  0  0  0  0  0  0
   37.3190   26.1790   39.7700 C   0  0  0  0  0  0  0  0  0  0  0  0
   37.9320   26.6400   40.5570 H   0  0  0  0  0  0  0  0  0  0  0  0
   37.9780   25.9670   38.9160 H   0  0  0  0  0  0  0  0  0  0  0  0
   36.6630   24.8840   40.1780 C   0  0  0  0  0  3  0  0  0  0  0  0
   37.4700   23.6790   40.4390 C   0  0  0  0  0  2  0  0  0  0  0  0
   36.8050   24.4210   41.5750 C   0  0  0  0  0  2  0  0  0  0  0  0
  1 13  1  0  0  0  0
  2 20  1  0  0  0  0
  2  1  2  0  0  0  0
  3  2  1  0  0  0  0
  4  3  2  0  0  0  0
  4  5  1  0  0  0  0
  5  6  2  0  0  0  0
  6  1  1  0  0  0  0
  6 10  1  0  0  0  0
  7  3  1  0  0  0  0
  8  4  1  0  0  0  0
  9  5  1  0  0  0  0
 11 17  1  0  0  0  0
 12 18  1  0  0  0  0
 12 11  2  0  0  0  0
 13 12  1  0  0  0  0
 14 13  2  0  0  0  0
 14 15  1  0  0  0  0
 15 16  2  0  0  0  0
 16 11  1  0  0  0  0
 19 15  1  0  0  0  0
 20 23  1  0  0  0  0
 20 21  1  0  0  0  0
 22 20  1  0  0  0  0
 23 24  1  0  0  0  0
 23 25  1  0  0  0  0
 24 25  1  0  0  0  0
M  END
>  <minimizedAffinity>
-4.54368114

$$$$

 OpenBabel03252508433D

 25 27  0  0  0  0  0  0  0  0999 V2000
   36.2920   29.9290   38.8600 C   0  0  0  0  0  0  0  0  0  0  0  0
   36.2240   30.0110   40.2340 C   0  0  0  0  0  0  0  0  0  0  0  0
   36.6660   31.1370   40.8830 C   0  0  0  0  0  0  0  0  0  0  0  0
   37.1780   32.1770   40.1260 C   0  0  0  0  0  0  0  0  0  0  0  0
   37.2630   32.1360   38.7680 C   0  0  0  0  0  0  0  0  0  0  0  0
   36.7990   30.9660   38.1480 C   0  0  0  0  0  0  0  0  0  0  0  0
   36.6210   31.2200   41.9700 H   0  0  0  0  0  0  0  0  0  0  0  0
   37.5130   33.0450   40.6790 H   0  0  0  0  0  0  0  0  0  0  0  0
   37.6770   32.9620   38.2000 H   0  0  0  0  0  0  0  0  0  0  0  0
   36.8610   30.9270   37.0710 H   0  0  0  0  0  0  0  0  0  0  0  0
   34.1530   27.2500   37.2630 C   0  0  0  0  0  0  0  0  0  0  0  0
   34.5020   28.4860   37.8410 C   0  0  0  0  0  0  0  0  0  0  0  0
   35.8050   28.6990   38.2490 C   0  0  0  0  0  0  0  0  0  0  0  0
   36.6500   27.6770   38.0530 N   0  0  0  0  0  0  0  0  0  0  0  0
   36.3360   26.4920   37.5040 C   0  0  0  0  0  0  0  0  0  0  0  0
   35.0710   26.2820   37.1070 N   0  0  0  0  0  0  0  0  0  0  0  0
   33.1210   27.0770   36.9430 H   0  0  0  0  0  0  0  0  0  0  0  0
   33.7940   29.2710   37.9720 H   0  0  0  0  0  0  0  0  0  0  0  0
   37.1720   25.8060   37.4370 H   0  0  0  0  0  0  0  0  0  0  0  0
   35.6690   28.8630   41.0270 C   0  0  0  0  0  0  0  0  0  0  0  0
   35.1270   28.1430   40.3970 H   0  0  0  0  0  0  0  0  0  0  0  0
   34.9510   29.2820   41.7470 H   0  0  0  0  0  0  0  0  0  0  0  0
   36.8060   28.2600   41.8120 C   0  0  0  0  0  3  0  0  0  0  0  0
   36.5470   27.4490   43.0140 C   0  0  0  0  0  2  0  0  0  0  0  0
   37.0300   26.8000   41.7380 C   0  0  0  0  0  2  0  0  0  0  0  0
  1  2  1  0  0  0  0
  2  3  2  0  0  0  0
  2 20  1  0  0  0  0
  3  7  1  0  0  0  0
  4  8  1  0  0  0  0
  4  3  1  0  0  0  0
  5  4  2  0  0  0  0
  6  5  1  0  0  0  0
  6  1  2  0  0  0  0
  9  5  1  0  0  0  0
 10  6  1  0  0  0  0
 11 12  1  0  0  0  0
 12 18  1  0  0  0  0
 12 13  2  0  0  0  0
 13  1  1  0  0  0  0
 14 13  1  0  0  0  0
 15 14  2  0  0  0  0
 16 11  2  0  0  0  0
 16 15  1  0  0  0  0
 17 11  1  0  0  0  0
 19 15  1  0  0  0  0
 20 22  1  0  0  0  0
 20 23  1  0  0  0  0
 21 20  1  0  0  0  0
 23 24  1  0  0  0  0
 25 23  1  0  0  0  0
 25 24  1  0  0  0  0
M  END
>  <minimizedAffinity>
-4.51600552

$$$$

 OpenBabel03252508433D

 25 27  0  0  0  0  0  0  0  0999 V2000
   38.1530   30.7070   41.2130 C   0  0  0  0  0  0  0  0  0  0  0  0
   37.0120   31.0700   40.5300 C   0  0  0  0  0  0  0  0  0  0  0  0
   36.9170   32.3110   39.9510 C   0  0  0  0  0  0  0  0  0  0  0  0
   37.9880   33.1800   40.0720 C   0  0  0  0  0  0  0  0  0  0  0  0
   39.1320   32.8600   40.7380 C   0  0  0  0  0  0  0  0  0  0  0  0
   39.1840   31.5820   41.3120 C   0  0  0  0  0  0  0  0  0  0  0  0
   36.0210   32.6180   39.4070 H   0  0  0  0  0  0  0  0  0  0  0  0
   37.8700   34.1470   39.5990 H   0  0  0  0  0  0  0  0  0  0  0  0
   39.9540   33.5640   40.8250 H   0  0  0  0  0  0  0  0  0  0  0  0
   40.0890   31.3200   41.8400 H   0  0  0  0  0  0  0  0  0  0  0  0
   38.6510   27.0150   41.8580 C   0  0  0  0  0  0  0  0  0  0  0  0
   38.6930   28.2510   41.1860 C   0  0  0  0  0  0  0  0  0  0  0  0
   38.1720   29.3740   41.8000 C   0  0  0  0  0  0  0  0  0  0  0  0
   37.6560   29.1810   43.0220 N   0  0  0  0  0  0  0  0  0  0  0  0
   37.6070   28.0100   43.6790 C   0  0  0  0  0  0  0  0  0  0  0  0
   38.1120   26.9180   43.0850 N   0  0  0  0  0  0  0  0  0  0  0  0
   39.0600   26.1230   41.3720 H   0  0  0  0  0  0  0  0  0  0  0  0
   39.1190   28.3550   40.2140 H   0  0  0  0  0  0  0  0  0  0  0  0
   37.1490   28.0770   44.6580 H   0  0  0  0  0  0  0  0  0  0  0  0
   35.8630   30.1080   40.4230 C   0  0  0  0  0  0  0  0  0  0  0  0
   34.9210   30.5400   40.7910 H   0  0  0  0  0  0  0  0  0  0  0  0
   36.1040   29.2430   41.0590 H   0  0  0  0  0  0  0  0  0  0  0  0
   35.8040   29.6270   38.9960 C   0  0  0  0  0  3  0  0  0  0  0  0
   35.9040   28.1920   38.6780 C   0  0  0  0  0  2  0  0  0  0  0  0
   34.5900   28.9230   38.5290 C   0  0  0  0  0  2  0  0  0  0  0  0
  1  6  1  0  0  0  0
  1 13  1  0  0  0  0
  2  1  2  0  0  0  0
  3  4  2  0  0  0  0
  3  2  1  0  0  0  0
  4  5  1  0  0  0  0
  5  9  1  0  0  0  0
  5  6  2  0  0  0  0
  6 10  1  0  0  0  0
  7  3  1  0  0  0  0
  8  4  1  0  0  0  0
 11 16  1  0  0  0  0
 12 13  1  0  0  0  0
 12 11  2  0  0  0  0
 13 14  2  0  0  0  0
 14 15  1  0  0  0  0
 15 19  1  0  0  0  0
 16 15  2  0  0  0  0
 17 11  1  0  0  0  0
 18 12  1  0  0  0  0
 20  2  1  0  0  0  0
 20 21  1  0  0  0  0
 20 22  1  0  0  0  0
 23 20  1  0  0  0  0
 24 23  1  0  0  0  0
 25 24  1  0  0  0  0
 25 23  1  0  0  0  0
M  END
>  <minimizedAffinity>
-4.47782612

$$$$
