
 OpenBabel03252508053D

 36 39  0  0  1  0  0  0  0  0999 V2000
   37.8520   29.6120   41.7180 C   0  0  0  0  0  0  0  0  0  0  0  0
   38.8940   29.5410   42.6760 C   0  0  0  0  0  0  0  0  0  0  0  0
   39.8960   30.5100   42.5810 C   0  0  0  0  0  0  0  0  0  0  0  0
   39.8050   31.4380   41.5950 N   0  0  0  0  0  0  0  0  0  0  0  0
   38.7730   31.4610   40.6920 C   0  0  0  0  0  0  0  0  0  0  0  0
   37.8570   30.5650   40.7900 N   0  0  0  0  0  0  0  0  0  0  0  0
   39.0320   28.8490   43.4700 H   0  0  0  0  0  0  0  0  0  0  0  0
   40.7360   30.5520   43.2560 H   0  0  0  0  0  0  0  0  0  0  0  0
   38.7630   32.5030   39.6510 C   0  0  1  0  0  0  0  0  0  0  0  0
   37.5880   33.4570   39.5850 C   0  0  0  0  0  0  0  0  0  0  0  0
   38.9060   33.8950   40.1580 C   0  0  1  0  0  0  0  0  0  0  0  0
   39.2540   32.2870   38.6910 H   0  0  0  0  0  0  0  0  0  0  0  0
   37.3420   33.8740   38.5900 H   0  0  0  0  0  0  0  0  0  0  0  0
   36.7370   33.1860   40.2290 H   0  0  0  0  0  0  0  0  0  0  0  0
   39.5090   34.6280   39.6050 H   0  0  0  0  0  0  0  0  0  0  0  0
   38.8020   34.1600   41.5820 N   0  0  0  0  0  0  0  0  0  0  0  0
   39.6370   34.5940   41.9900 H   0  0  0  0  0  0  0  0  0  0  0  0
   37.9120   34.6080   41.8560 H   0  0  0  0  0  0  0  0  0  0  0  0
   36.8300   28.6030   41.8210 C   0  0  0  0  0  0  0  0  0  0  0  0
   36.5540   28.0080   42.9250 O   0  0  0  0  0  0  0  0  0  0  0  0
   36.5460   27.3300   39.7000 C   0  0  0  0  0  0  0  0  0  0  0  0
   36.1590   28.3420   40.5440 C   0  0  0  0  0  0  0  0  0  0  0  0
   35.0860   29.1530   40.1740 C   0  0  0  0  0  0  0  0  0  0  0  0
   34.4040   28.9640   38.9850 C   0  0  0  0  0  0  0  0  0  0  0  0
   34.7870   27.9520   38.1380 C   0  0  0  0  0  0  0  0  0  0  0  0
   35.8410   27.1590   38.5050 C   0  0  0  0  0  0  0  0  0  0  0  0
   34.7090   29.9760   40.7630 H   0  0  0  0  0  0  0  0  0  0  0  0
   33.5800   29.5780   38.6910 H   0  0  0  0  0  0  0  0  0  0  0  0
   34.2880   27.7780   37.2190 H   0  0  0  0  0  0  0  0  0  0  0  0
   36.1310   26.3640   37.8240 H   0  0  0  0  0  0  0  0  0  0  0  0
   37.8400   26.3270   40.0350 S   0  0  0  0  0  0  0  0  0  0  0  0
   38.0050   25.4890   38.7830 O   0  0  0  0  0  0  0  0  0  0  0  0
   37.5180   25.4070   41.2140 O   0  0  0  0  0  0  0  0  0  0  0  0
   39.4710   26.5910   40.2270 C   0  0  0  0  0  3  0  0  0  0  0  0
   40.5400   26.5860   39.1110 C   0  0  0  0  0  2  0  0  0  0  0  0
   39.9300   27.8750   39.4300 C   0  0  0  0  0  2  0  0  0  0  0  0
  1 19  1  0  0  0  0
  1  2  1  0  0  0  0
  2  7  1  0  0  0  0
  3  2  2  0  0  0  0
  3  8  1  0  0  0  0
  4  3  1  0  0  0  0
  5  6  1  0  0  0  0
  5  4  2  0  0  0  0
  6  1  2  0  0  0  0
  9 12  1  6  0  0  0
  9 11  1  0  0  0  0
  9  5  1  0  0  0  0
 10  9  1  0  0  0  0
 10 11  1  0  0  0  0
 10 14  1  0  0  0  0
 11 15  1  6  0  0  0
 11 16  1  0  0  0  0
 13 10  1  0  0  0  0
 16 18  1  0  0  0  0
 16 17  1  0  0  0  0
 19 20  2  0  0  0  0
 21 31  1  0  0  0  0
 21 22  1  0  0  0  0
 22 19  1  0  0  0  0
 23 22  2  0  0  0  0
 23 27  1  0  0  0  0
 24 23  1  0  0  0  0
 25 26  1  0  0  0  0
 25 24  2  0  0  0  0
 26 21  2  0  0  0  0
 28 24  1  0  0  0  0
 29 25  1  0  0  0  0
 30 26  1  0  0  0  0
 31 34  1  0  0  0  0
 31 33  2  0  0  0  0
 32 31  2  0  0  0  0
 35 36  1  0  0  0  0
 35 34  1  0  0  0  0
 36 34  1  0  0  0  0
M  END
>  <minimizedAffinity>
-5.47884464

$$$$

 OpenBabel03252508053D

 36 39  0  0  1  0  0  0  0  0999 V2000
   38.5990   30.9720   41.1460 C   0  0  0  0  0  0  0  0  0  0  0  0
   39.5180   30.7000   42.1900 C   0  0  0  0  0  0  0  0  0  0  0  0
   40.8210   31.1730   42.0140 C   0  0  0  0  0  0  0  0  0  0  0  0
   41.1130   31.8510   40.8760 N   0  0  0  0  0  0  0  0  0  0  0  0
   40.1830   32.0880   39.8950 C   0  0  0  0  0  0  0  0  0  0  0  0
   38.9870   31.6480   40.0680 N   0  0  0  0  0  0  0  0  0  0  0  0
   39.3640   30.1790   43.1030 H   0  0  0  0  0  0  0  0  0  0  0  0
   41.6020   31.0230   42.7430 H   0  0  0  0  0  0  0  0  0  0  0  0
   40.5950   32.8270   38.6890 C   0  0  1  0  0  0  0  0  0  0  0  0
   41.7410   32.2860   37.8590 C   0  0  0  0  0  0  0  0  0  0  0  0
   40.3180   32.1300   37.4040 C   0  0  1  0  0  0  0  0  0  0  0  0
   40.4760   33.9200   38.6800 H   0  0  0  0  0  0  0  0  0  0  0  0
   42.3390   33.0280   37.2960 H   0  0  0  0  0  0  0  0  0  0  0  0
   42.2960   31.4560   38.3230 H   0  0  0  0  0  0  0  0  0  0  0  0
   39.9740   32.6970   36.5270 H   0  0  0  0  0  0  0  0  0  0  0  0
   39.9100   30.7360   37.4100 N   0  0  0  0  0  0  0  0  0  0  0  0
   38.9970   30.5650   36.9770 H   0  0  0  0  0  0  0  0  0  0  0  0
   40.6540   30.0860   37.1080 H   0  0  0  0  0  0  0  0  0  0  0  0
   37.2620   30.4730   41.3360 C   0  0  0  0  0  0  0  0  0  0  0  0
   36.2190   31.1920   41.1300 O   0  0  0  0  0  0  0  0  0  0  0  0
   37.0580   28.0260   40.9150 C   0  0  0  0  0  0  0  0  0  0  0  0
   37.2360   29.0770   41.7820 C   0  0  0  0  0  0  0  0  0  0  0  0
   37.4000   28.8050   43.1410 C   0  0  0  0  0  0  0  0  0  0  0  0
   37.3890   27.5130   43.6350 C   0  0  0  0  0  0  0  0  0  0  0  0
   37.2120   26.4590   42.7710 C   0  0  0  0  0  0  0  0  0  0  0  0
   37.0510   26.7300   41.4390 C   0  0  0  0  0  0  0  0  0  0  0  0
   37.5410   29.5590   43.9030 H   0  0  0  0  0  0  0  0  0  0  0  0
   37.5150   27.2940   44.6730 H   0  0  0  0  0  0  0  0  0  0  0  0
   37.1980   25.4570   43.1140 H   0  0  0  0  0  0  0  0  0  0  0  0
   36.9120   25.8850   40.7690 H   0  0  0  0  0  0  0  0  0  0  0  0
   36.8180   28.2470   39.2770 S   0  0  0  0  0  0  0  0  0  0  0  0
   36.4740   26.8660   38.7530 O   0  0  0  0  0  0  0  0  0  0  0  0
   38.1050   28.7300   38.6040 O   0  0  0  0  0  0  0  0  0  0  0  0
   35.6420   29.0160   38.3860 C   0  0  0  0  0  3  0  0  0  0  0  0
   34.2880   28.4190   37.9440 C   0  0  0  0  0  2  0  0  0  0  0  0
   34.3030   29.1410   39.2150 C   0  0  0  0  0  2  0  0  0  0  0  0
  1 19  1  0  0  0  0
  1  2  1  0  0  0  0
  2  7  1  0  0  0  0
  3  2  2  0  0  0  0
  3  8  1  0  0  0  0
  4  3  1  0  0  0  0
  5  6  1  0  0  0  0
  5  4  2  0  0  0  0
  6  1  2  0  0  0  0
  9 12  1  1  0  0  0
  9  5  1  0  0  0  0
 10 14  1  0  0  0  0
 10  9  1  0  0  0  0
 11 15  1  6  0  0  0
 11 16  1  0  0  0  0
 11 10  1  0  0  0  0
 11  9  1  0  0  0  0
 13 10  1  0  0  0  0
 17 16  1  0  0  0  0
 18 16  1  0  0  0  0
 19 22  1  0  0  0  0
 20 19  2  0  0  0  0
 21 26  2  0  0  0  0
 21 22  1  0  0  0  0
 22 23  2  0  0  0  0
 23 24  1  0  0  0  0
 23 27  1  0  0  0  0
 24 28  1  0  0  0  0
 25 29  1  0  0  0  0
 25 24  2  0  0  0  0
 26 25  1  0  0  0  0
 30 26  1  0  0  0  0
 31 21  1  0  0  0  0
 32 31  2  0  0  0  0
 33 31  2  0  0  0  0
 34 36  1  0  0  0  0
 34 31  1  0  0  0  0
 35 34  1  0  0  0  0
 35 36  1  0  0  0  0
M  END
>  <minimizedAffinity>
-5.46208763

$$$$

 OpenBabel03252508053D

 36 39  0  0  1  0  0  0  0  0999 V2000
   37.0040   28.7970   41.7340 C   0  0  0  0  0  0  0  0  0  0  0  0
   38.0770   29.1690   42.5820 C   0  0  0  0  0  0  0  0  0  0  0  0
   38.7000   28.1380   43.2900 C   0  0  0  0  0  0  0  0  0  0  0  0
   38.2440   26.8720   43.1210 N   0  0  0  0  0  0  0  0  0  0  0  0
   37.2000   26.5660   42.2850 C   0  0  0  0  0  0  0  0  0  0  0  0
   36.6340   27.5220   41.6380 N   0  0  0  0  0  0  0  0  0  0  0  0
   38.4860   30.1320   42.7640 H   0  0  0  0  0  0  0  0  0  0  0  0
   39.5250   28.3060   43.9640 H   0  0  0  0  0  0  0  0  0  0  0  0
   36.7690   25.1620   42.1720 C   0  0  1  0  0  0  0  0  0  0  0  0
   36.7710   24.5060   40.8060 C   0  0  0  0  0  0  0  0  0  0  0  0
   37.8490   24.2040   41.8080 C   0  0  1  0  0  0  0  0  0  0  0  0
   36.0110   24.7880   42.8760 H   0  0  0  0  0  0  0  0  0  0  0  0
   36.0360   23.6960   40.6420 H   0  0  0  0  0  0  0  0  0  0  0  0
   36.9400   25.1950   39.9640 H   0  0  0  0  0  0  0  0  0  0  0  0
   37.8840   23.2060   42.2670 H   0  0  0  0  0  0  0  0  0  0  0  0
   39.1390   24.7020   41.3650 N   0  0  0  0  0  0  0  0  0  0  0  0
   39.9270   24.4000   41.9470 H   0  0  0  0  0  0  0  0  0  0  0  0
   39.2950   24.6020   40.3490 H   0  0  0  0  0  0  0  0  0  0  0  0
   36.3660   29.8680   41.0150 C   0  0  0  0  0  0  0  0  0  0  0  0
   36.0550   30.9840   41.5690 O   0  0  0  0  0  0  0  0  0  0  0  0
   37.0590   29.7330   38.6270 C   0  0  0  0  0  0  0  0  0  0  0  0
   36.1180   29.5390   39.6080 C   0  0  0  0  0  0  0  0  0  0  0  0
   34.8770   29.0080   39.2540 C   0  0  0  0  0  0  0  0  0  0  0  0
   34.5730   28.6720   37.9470 C   0  0  0  0  0  0  0  0  0  0  0  0
   35.5120   28.8630   36.9620 C   0  0  0  0  0  0  0  0  0  0  0  0
   36.7280   29.3850   37.3140 C   0  0  0  0  0  0  0  0  0  0  0  0
   34.0700   28.8230   39.9480 H   0  0  0  0  0  0  0  0  0  0  0  0
   33.6270   28.2640   37.6640 H   0  0  0  0  0  0  0  0  0  0  0  0
   35.3140   28.6170   35.9510 H   0  0  0  0  0  0  0  0  0  0  0  0
   37.4590   29.5300   36.5230 H   0  0  0  0  0  0  0  0  0  0  0  0
   38.5600   30.3950   38.9420 S   0  0  0  0  0  0  0  0  0  0  0  0
   39.0110   30.9670   37.6130 O   0  0  0  0  0  0  0  0  0  0  0  0
   39.5470   29.3100   39.3790 O   0  0  0  0  0  0  0  0  0  0  0  0
   39.0680   31.7110   39.8240 C   0  0  0  0  0  3  0  0  0  0  0  0
   39.4420   33.1010   39.2660 C   0  0  0  0  0  2  0  0  0  0  0  0
   38.0520   32.9120   39.6760 C   0  0  0  0  0  2  0  0  0  0  0  0
  1  2  1  0  0  0  0
  2  7  1  0  0  0  0
  2  3  2  0  0  0  0
  3  8  1  0  0  0  0
  4  3  1  0  0  0  0
  5  4  2  0  0  0  0
  6  1  2  0  0  0  0
  6  5  1  0  0  0  0
  9  5  1  0  0  0  0
  9 12  1  1  0  0  0
 10 11  1  0  0  0  0
 10  9  1  0  0  0  0
 11  9  1  0  0  0  0
 11 15  1  1  0  0  0
 13 10  1  0  0  0  0
 14 10  1  0  0  0  0
 16 11  1  0  0  0  0
 16 17  1  0  0  0  0
 18 16  1  0  0  0  0
 19 20  2  0  0  0  0
 19  1  1  0  0  0  0
 21 31  1  0  0  0  0
 21 22  1  0  0  0  0
 22 19  1  0  0  0  0
 23 22  2  0  0  0  0
 23 27  1  0  0  0  0
 24 23  1  0  0  0  0
 25 26  1  0  0  0  0
 25 24  2  0  0  0  0
 26 21  2  0  0  0  0
 28 24  1  0  0  0  0
 29 25  1  0  0  0  0
 30 26  1  0  0  0  0
 31 33  2  0  0  0  0
 31 34  1  0  0  0  0
 32 31  2  0  0  0  0
 35 36  1  0  0  0  0
 35 34  1  0  0  0  0
 36 34  1  0  0  0  0
M  END
>  <minimizedAffinity>
-5.45969868

$$$$

 OpenBabel03252508053D

 36 39  0  0  1  0  0  0  0  0999 V2000
   39.3810   30.9800   40.3640 C   0  0  0  0  0  0  0  0  0  0  0  0
   38.0510   31.4430   40.5180 C   0  0  0  0  0  0  0  0  0  0  0  0
   37.8490   32.8190   40.3900 C   0  0  0  0  0  0  0  0  0  0  0  0
   38.9230   33.6070   40.1300 N   0  0  0  0  0  0  0  0  0  0  0  0
   40.1920   33.1060   39.9890 C   0  0  0  0  0  0  0  0  0  0  0  0
   40.3650   31.8380   40.1090 N   0  0  0  0  0  0  0  0  0  0  0  0
   37.1660   30.8910   40.7220 H   0  0  0  0  0  0  0  0  0  0  0  0
   36.8800   33.2810   40.4890 H   0  0  0  0  0  0  0  0  0  0  0  0
   41.2980   34.0410   39.7140 C   0  0  1  0  0  0  0  0  0  0  0  0
   42.6290   33.4810   39.2570 C   0  0  0  0  0  0  0  0  0  0  0  0
   41.6930   34.1380   38.2830 C   0  0  1  0  0  0  0  0  0  0  0  0
   41.3490   34.9750   40.2930 H   0  0  0  0  0  0  0  0  0  0  0  0
   43.5310   34.0680   39.5170 H   0  0  0  0  0  0  0  0  0  0  0  0
   42.7180   32.3860   39.3260 H   0  0  0  0  0  0  0  0  0  0  0  0
   41.9720   35.1080   37.8480 H   0  0  0  0  0  0  0  0  0  0  0  0
   41.1720   33.1820   37.3210 N   0  0  0  0  0  0  0  0  0  0  0  0
   40.6400   33.6060   36.5550 H   0  0  0  0  0  0  0  0  0  0  0  0
   41.8650   32.4770   37.0220 H   0  0  0  0  0  0  0  0  0  0  0  0
   39.5770   29.5610   40.5060 C   0  0  0  0  0  0  0  0  0  0  0  0
   40.5220   28.9290   39.9080 O   0  0  0  0  0  0  0  0  0  0  0  0
   37.5960   28.1110   40.9260 C   0  0  0  0  0  0  0  0  0  0  0  0
   38.5890   28.9380   41.3920 C   0  0  0  0  0  0  0  0  0  0  0  0
   38.6620   29.1950   42.7610 C   0  0  0  0  0  0  0  0  0  0  0  0
   37.7660   28.6410   43.6580 C   0  0  0  0  0  0  0  0  0  0  0  0
   36.7720   27.8120   43.1970 C   0  0  0  0  0  0  0  0  0  0  0  0
   36.7040   27.5630   41.8520 C   0  0  0  0  0  0  0  0  0  0  0  0
   39.3990   29.8340   43.2260 H   0  0  0  0  0  0  0  0  0  0  0  0
   37.8120   28.8300   44.7080 H   0  0  0  0  0  0  0  0  0  0  0  0
   36.0680   27.3700   43.8540 H   0  0  0  0  0  0  0  0  0  0  0  0
   35.9110   26.9050   41.5030 H   0  0  0  0  0  0  0  0  0  0  0  0
   37.4020   27.7680   39.3030 S   0  0  0  0  0  0  0  0  0  0  0  0
   36.0800   27.0320   39.2250 O   0  0  0  0  0  0  0  0  0  0  0  0
   38.5180   26.8440   38.8100 O   0  0  0  0  0  0  0  0  0  0  0  0
   37.1020   28.7080   37.9630 C   0  0  0  0  0  3  0  0  0  0  0  0
   35.7360   28.9150   37.2740 C   0  0  0  0  0  2  0  0  0  0  0  0
   36.1000   29.8780   38.3120 C   0  0  0  0  0  2  0  0  0  0  0  0
  1 19  1  0  0  0  0
  1  2  1  0  0  0  0
  2  7  1  0  0  0  0
  3  8  1  0  0  0  0
  3  2  2  0  0  0  0
  4  3  1  0  0  0  0
  5  6  1  0  0  0  0
  5  4  2  0  0  0  0
  6  1  2  0  0  0  0
  9  5  1  0  0  0  0
  9 12  1  1  0  0  0
 10 14  1  0  0  0  0
 10 13  1  0  0  0  0
 10  9  1  0  0  0  0
 11 15  1  6  0  0  0
 11 10  1  0  0  0  0
 11  9  1  0  0  0  0
 16 11  1  0  0  0  0
 17 16  1  0  0  0  0
 18 16  1  0  0  0  0
 19 22  1  0  0  0  0
 20 19  2  0  0  0  0
 21 22  2  0  0  0  0
 21 26  1  0  0  0  0
 22 23  1  0  0  0  0
 23 27  1  0  0  0  0
 23 24  2  0  0  0  0
 24 28  1  0  0  0  0
 25 24  1  0  0  0  0
 25 29  1  0  0  0  0
 26 25  2  0  0  0  0
 30 26  1  0  0  0  0
 31 21  1  0  0  0  0
 32 31  2  0  0  0  0
 33 31  2  0  0  0  0
 34 36  1  0  0  0  0
 34 31  1  0  0  0  0
 35 34  1  0  0  0  0
 35 36  1  0  0  0  0
M  END
>  <minimizedAffinity>
-5.35862112

$$$$

 OpenBabel03252508053D

 36 39  0  0  1  0  0  0  0  0999 V2000
   37.6850   30.8260   40.4870 C   0  0  0  0  0  0  0  0  0  0  0  0
   37.1510   32.1380   40.4810 C   0  0  0  0  0  0  0  0  0  0  0  0
   37.9350   33.1290   39.8840 C   0  0  0  0  0  0  0  0  0  0  0  0
   39.1350   32.7730   39.3600 N   0  0  0  0  0  0  0  0  0  0  0  0
   39.6060   31.4850   39.3930 C   0  0  0  0  0  0  0  0  0  0  0  0
   38.8750   30.5820   39.9440 N   0  0  0  0  0  0  0  0  0  0  0  0
   36.2270   32.4900   40.8680 H   0  0  0  0  0  0  0  0  0  0  0  0
   37.6290   34.1610   39.8230 H   0  0  0  0  0  0  0  0  0  0  0  0
   40.9250   31.1960   38.8050 C   0  0  1  0  0  0  0  0  0  0  0  0
   41.0070   30.2390   37.6330 C   0  0  0  0  0  0  0  0  0  0  0  0
   41.1240   31.7220   37.4280 C   0  0  1  0  0  0  0  0  0  0  0  0
   41.8070   31.2190   39.4620 H   0  0  0  0  0  0  0  0  0  0  0  0
   41.9490   29.6690   37.5220 H   0  0  0  0  0  0  0  0  0  0  0  0
   40.0740   29.6950   37.4160 H   0  0  0  0  0  0  0  0  0  0  0  0
   42.0940   32.1430   37.1290 H   0  0  0  0  0  0  0  0  0  0  0  0
   39.9930   32.2440   36.6820 N   0  0  0  0  0  0  0  0  0  0  0  0
   40.0950   33.2240   36.3960 H   0  0  0  0  0  0  0  0  0  0  0  0
   39.6640   31.6130   35.9330 H   0  0  0  0  0  0  0  0  0  0  0  0
   36.8710   29.8160   41.1110 C   0  0  0  0  0  0  0  0  0  0  0  0
   36.3030   29.9900   42.2490 O   0  0  0  0  0  0  0  0  0  0  0  0
   37.0670   27.3500   40.8190 C   0  0  0  0  0  0  0  0  0  0  0  0
   36.7730   28.5920   40.3100 C   0  0  0  0  0  0  0  0  0  0  0  0
   36.3630   28.6930   38.9800 C   0  0  0  0  0  0  0  0  0  0  0  0
   36.2450   27.5810   38.1650 C   0  0  0  0  0  0  0  0  0  0  0  0
   36.5380   26.3370   38.6690 C   0  0  0  0  0  0  0  0  0  0  0  0
   36.9400   26.2430   39.9750 C   0  0  0  0  0  0  0  0  0  0  0  0
   36.1140   29.6210   38.4850 H   0  0  0  0  0  0  0  0  0  0  0  0
   35.9320   27.6470   37.1460 H   0  0  0  0  0  0  0  0  0  0  0  0
   36.4590   25.4640   38.0750 H   0  0  0  0  0  0  0  0  0  0  0  0
   37.1680   25.2510   40.3590 H   0  0  0  0  0  0  0  0  0  0  0  0
   37.6000   27.1260   42.3860 S   0  0  0  0  0  0  0  0  0  0  0  0
   38.1770   25.7250   42.3950 O   0  0  0  0  0  0  0  0  0  0  0  0
   36.4270   27.1890   43.3680 O   0  0  0  0  0  0  0  0  0  0  0  0
   38.8420   27.7810   43.2770 C   0  0  0  0  0  3  0  0  0  0  0  0
   40.3080   27.2950   43.3040 C   0  0  0  0  0  2  0  0  0  0  0  0
   39.9800   28.3350   42.3310 C   0  0  0  0  0  2  0  0  0  0  0  0
  1 19  1  0  0  0  0
  2  1  1  0  0  0  0
  2  7  1  0  0  0  0
  3  2  2  0  0  0  0
  4  5  2  0  0  0  0
  4  3  1  0  0  0  0
  5  6  1  0  0  0  0
  6  1  2  0  0  0  0
  8  3  1  0  0  0  0
  9  5  1  0  0  0  0
  9 12  1  1  0  0  0
 10  9  1  0  0  0  0
 11 15  1  6  0  0  0
 11 10  1  0  0  0  0
 11  9  1  0  0  0  0
 13 10  1  0  0  0  0
 14 10  1  0  0  0  0
 16 11  1  0  0  0  0
 17 16  1  0  0  0  0
 18 16  1  0  0  0  0
 19 20  2  0  0  0  0
 21 31  1  0  0  0  0
 22 21  1  0  0  0  0
 22 19  1  0  0  0  0
 23 22  2  0  0  0  0
 24 25  2  0  0  0  0
 24 23  1  0  0  0  0
 25 26  1  0  0  0  0
 26 30  1  0  0  0  0
 26 21  2  0  0  0  0
 27 23  1  0  0  0  0
 28 24  1  0  0  0  0
 29 25  1  0  0  0  0
 31 32  2  0  0  0  0
 31 34  1  0  0  0  0
 31 33  2  0  0  0  0
 34 35  1  0  0  0  0
 36 34  1  0  0  0  0
 36 35  1  0  0  0  0
M  END
>  <minimizedAffinity>
-5.31385708

$$$$

 OpenBabel03252508053D

 36 39  0  0  1  0  0  0  0  0999 V2000
   38.3360   27.6650   42.3700 C   0  0  0  0  0  0  0  0  0  0  0  0
   39.5380   27.4230   43.0800 C   0  0  0  0  0  0  0  0  0  0  0  0
   39.8450   26.0870   43.3510 C   0  0  0  0  0  0  0  0  0  0  0  0
   38.9870   25.1280   42.9210 N   0  0  0  0  0  0  0  0  0  0  0  0
   37.8340   25.4180   42.2350 C   0  0  0  0  0  0  0  0  0  0  0  0
   37.5630   26.6510   41.9920 N   0  0  0  0  0  0  0  0  0  0  0  0
   40.2540   28.1160   43.4460 H   0  0  0  0  0  0  0  0  0  0  0  0
   40.7330   25.7860   43.8850 H   0  0  0  0  0  0  0  0  0  0  0  0
   36.9600   24.3100   41.8160 C   0  0  1  0  0  0  0  0  0  0  0  0
   36.5410   24.2210   40.3620 C   0  0  0  0  0  0  0  0  0  0  0  0
   37.6020   23.3130   40.9170 C   0  0  1  0  0  0  0  0  0  0  0  0
   36.2380   23.9090   42.5430 H   0  0  0  0  0  0  0  0  0  0  0  0
   35.5670   23.7400   40.1550 H   0  0  0  0  0  0  0  0  0  0  0  0
   36.7940   25.1030   39.7550 H   0  0  0  0  0  0  0  0  0  0  0  0
   37.3800   22.2420   41.0270 H   0  0  0  0  0  0  0  0  0  0  0  0
   38.9000   23.5960   40.3320 N   0  0  0  0  0  0  0  0  0  0  0  0
   39.6270   22.9140   40.5740 H   0  0  0  0  0  0  0  0  0  0  0  0
   38.8590   23.8380   39.3280 H   0  0  0  0  0  0  0  0  0  0  0  0
   38.0280   29.0460   42.1040 C   0  0  0  0  0  0  0  0  0  0  0  0
   38.4660   30.0060   42.8350 O   0  0  0  0  0  0  0  0  0  0  0  0
   37.6690   29.5750   39.6970 C   0  0  0  0  0  0  0  0  0  0  0  0
   37.1710   29.2190   40.9270 C   0  0  0  0  0  0  0  0  0  0  0  0
   35.7980   29.0130   41.0620 C   0  0  0  0  0  0  0  0  0  0  0  0
   34.9290   29.1560   39.9950 C   0  0  0  0  0  0  0  0  0  0  0  0
   35.4220   29.5110   38.7630 C   0  0  0  0  0  0  0  0  0  0  0  0
   36.7700   29.7130   38.6350 C   0  0  0  0  0  0  0  0  0  0  0  0
   35.3080   28.7370   41.9850 H   0  0  0  0  0  0  0  0  0  0  0  0
   33.8760   29.0000   40.0860 H   0  0  0  0  0  0  0  0  0  0  0  0
   34.7860   29.6300   37.9230 H   0  0  0  0  0  0  0  0  0  0  0  0
   37.1440   29.9940   37.6530 H   0  0  0  0  0  0  0  0  0  0  0  0
   39.2910   29.8790   39.4390 S   0  0  0  0  0  0  0  0  0  0  0  0
   39.3760   30.2820   37.9810 O   0  0  0  0  0  0  0  0  0  0  0  0
   40.1180   28.6090   39.6560 O   0  0  0  0  0  0  0  0  0  0  0  0
   40.3280   31.0710   39.9590 C   0  0  0  0  0  3  0  0  0  0  0  0
   40.4190   32.5120   39.4130 C   0  0  0  0  0  2  0  0  0  0  0  0
   39.5250   32.2970   40.5490 C   0  0  0  0  0  2  0  0  0  0  0  0
  1  2  1  0  0  0  0
  2  3  2  0  0  0  0
  2  7  1  0  0  0  0
  3  8  1  0  0  0  0
  4  3  1  0  0  0  0
  5  4  2  0  0  0  0
  6  5  1  0  0  0  0
  6  1  2  0  0  0  0
  9  5  1  0  0  0  0
  9 12  1  1  0  0  0
 10 11  1  0  0  0  0
 10  9  1  0  0  0  0
 11 15  1  1  0  0  0
 11  9  1  0  0  0  0
 13 10  1  0  0  0  0
 14 10  1  0  0  0  0
 16 17  1  0  0  0  0
 16 11  1  0  0  0  0
 18 16  1  0  0  0  0
 19  1  1  0  0  0  0
 19 20  2  0  0  0  0
 21 22  1  0  0  0  0
 22 23  2  0  0  0  0
 22 19  1  0  0  0  0
 23 27  1  0  0  0  0
 24 28  1  0  0  0  0
 24 23  1  0  0  0  0
 25 24  2  0  0  0  0
 26 25  1  0  0  0  0
 26 21  2  0  0  0  0
 29 25  1  0  0  0  0
 30 26  1  0  0  0  0
 31 33  2  0  0  0  0
 31 21  1  0  0  0  0
 31 34  1  0  0  0  0
 32 31  2  0  0  0  0
 34 36  1  0  0  0  0
 35 34  1  0  0  0  0
 35 36  1  0  0  0  0
M  END
>  <minimizedAffinity>
-5.28100777

$$$$

 OpenBabel03252508053D

 36 39  0  0  1  0  0  0  0  0999 V2000
   37.3030   29.0200   39.0780 C   0  0  0  0  0  0  0  0  0  0  0  0
   36.9580   29.2130   37.7170 C   0  0  0  0  0  0  0  0  0  0  0  0
   37.4940   30.3420   37.0910 C   0  0  0  0  0  0  0  0  0  0  0  0
   38.2940   31.1630   37.8170 N   0  0  0  0  0  0  0  0  0  0  0  0
   38.5970   30.9290   39.1340 C   0  0  0  0  0  0  0  0  0  0  0  0
   38.0990   29.8870   39.6990 N   0  0  0  0  0  0  0  0  0  0  0  0
   36.3420   28.6190   37.0890 H   0  0  0  0  0  0  0  0  0  0  0  0
   37.2980   30.5880   36.0600 H   0  0  0  0  0  0  0  0  0  0  0  0
   39.4700   31.8810   39.8420 C   0  0  1  0  0  0  0  0  0  0  0  0
   39.4710   33.3320   39.4070 C   0  0  0  0  0  0  0  0  0  0  0  0
   38.7520   32.9010   40.6540 C   0  0  1  0  0  0  0  0  0  0  0  0
   40.4160   31.5100   40.2620 H   0  0  0  0  0  0  0  0  0  0  0  0
   40.4070   33.8990   39.5710 H   0  0  0  0  0  0  0  0  0  0  0  0
   38.9330   33.5320   38.4670 H   0  0  0  0  0  0  0  0  0  0  0  0
   39.1480   33.2130   41.6310 H   0  0  0  0  0  0  0  0  0  0  0  0
   37.3150   33.0560   40.5160 N   0  0  0  0  0  0  0  0  0  0  0  0
   36.7920   32.9070   41.3860 H   0  0  0  0  0  0  0  0  0  0  0  0
   37.0370   33.9000   39.9900 H   0  0  0  0  0  0  0  0  0  0  0  0
   36.7400   27.8580   39.7130 C   0  0  0  0  0  0  0  0  0  0  0  0
   35.8650   27.1120   39.1410 O   0  0  0  0  0  0  0  0  0  0  0  0
   38.1520   26.6210   41.3500 C   0  0  0  0  0  0  0  0  0  0  0  0
   37.2710   27.6340   41.0610 C   0  0  0  0  0  0  0  0  0  0  0  0
   36.8660   28.4850   42.0900 C   0  0  0  0  0  0  0  0  0  0  0  0
   37.3270   28.3360   43.3860 C   0  0  0  0  0  0  0  0  0  0  0  0
   38.2090   27.3250   43.6790 C   0  0  0  0  0  0  0  0  0  0  0  0
   38.6040   26.4920   42.6660 C   0  0  0  0  0  0  0  0  0  0  0  0
   36.1740   29.3060   41.9690 H   0  0  0  0  0  0  0  0  0  0  0  0
   37.0240   28.9820   44.1810 H   0  0  0  0  0  0  0  0  0  0  0  0
   38.5830   27.1810   44.6600 H   0  0  0  0  0  0  0  0  0  0  0  0
   39.3020   25.6960   42.9150 H   0  0  0  0  0  0  0  0  0  0  0  0
   38.6710   25.5280   40.1970 S   0  0  0  0  0  0  0  0  0  0  0  0
   39.6810   24.6610   40.9220 O   0  0  0  0  0  0  0  0  0  0  0  0
   39.3700   26.2520   39.0440 O   0  0  0  0  0  0  0  0  0  0  0  0
   37.9410   24.2500   39.4220 C   0  0  0  0  0  3  0  0  0  0  0  0
   37.6330   22.8640   40.0280 C   0  0  0  0  0  2  0  0  0  0  0  0
   36.5780   23.8710   40.1270 C   0  0  0  0  0  2  0  0  0  0  0  0
  1  6  1  0  0  0  0
  1 19  1  0  0  0  0
  2  1  2  0  0  0  0
  3  2  1  0  0  0  0
  3  4  2  0  0  0  0
  4  5  1  0  0  0  0
  5  6  2  0  0  0  0
  5  9  1  0  0  0  0
  7  2  1  0  0  0  0
  8  3  1  0  0  0  0
  9 12  1  1  0  0  0
  9 11  1  0  0  0  0
 10 13  1  0  0  0  0
 10  9  1  0  0  0  0
 10 11  1  0  0  0  0
 11 15  1  1  0  0  0
 14 10  1  0  0  0  0
 16 11  1  0  0  0  0
 16 17  1  0  0  0  0
 18 16  1  0  0  0  0
 19 22  1  0  0  0  0
 20 19  2  0  0  0  0
 21 26  1  0  0  0  0
 22 21  2  0  0  0  0
 22 23  1  0  0  0  0
 23 24  2  0  0  0  0
 24 25  1  0  0  0  0
 24 28  1  0  0  0  0
 25 29  1  0  0  0  0
 26 30  1  0  0  0  0
 26 25  2  0  0  0  0
 27 23  1  0  0  0  0
 31 32  2  0  0  0  0
 31 21  1  0  0  0  0
 33 31  2  0  0  0  0
 34 35  1  0  0  0  0
 34 36  1  0  0  0  0
 34 31  1  0  0  0  0
 35 36  1  0  0  0  0
M  END
>  <minimizedAffinity>
-5.24185371

$$$$

 OpenBabel03252508053D

 36 39  0  0  1  0  0  0  0  0999 V2000
   39.2650   27.9550   39.2560 C   0  0  0  0  0  0  0  0  0  0  0  0
   39.7190   27.3130   38.0770 C   0  0  0  0  0  0  0  0  0  0  0  0
   39.2530   27.8290   36.8650 C   0  0  0  0  0  0  0  0  0  0  0  0
   38.4110   28.8920   36.8980 N   0  0  0  0  0  0  0  0  0  0  0  0
   38.0010   29.4770   38.0700 C   0  0  0  0  0  0  0  0  0  0  0  0
   38.4370   28.9940   39.1790 N   0  0  0  0  0  0  0  0  0  0  0  0
   40.3730   26.4820   37.9730 H   0  0  0  0  0  0  0  0  0  0  0  0
   39.5330   27.4200   35.9080 H   0  0  0  0  0  0  0  0  0  0  0  0
   37.0790   30.6240   38.0070 C   0  0  1  0  0  0  0  0  0  0  0  0
   37.4270   31.8840   38.7730 C   0  0  0  0  0  0  0  0  0  0  0  0
   37.6070   31.8110   37.2830 C   0  0  1  0  0  0  0  0  0  0  0  0
   36.0040   30.4240   37.8860 H   0  0  0  0  0  0  0  0  0  0  0  0
   36.5800   32.5050   39.1190 H   0  0  0  0  0  0  0  0  0  0  0  0
   38.2780   31.7830   39.4640 H   0  0  0  0  0  0  0  0  0  0  0  0
   36.9460   32.4080   36.6380 H   0  0  0  0  0  0  0  0  0  0  0  0
   39.0100   31.8700   36.9150 N   0  0  0  0  0  0  0  0  0  0  0  0
   39.1760   31.9640   35.9080 H   0  0  0  0  0  0  0  0  0  0  0  0
   39.5650   32.5150   37.5010 H   0  0  0  0  0  0  0  0  0  0  0  0
   39.7460   27.4090   40.4980 C   0  0  0  0  0  0  0  0  0  0  0  0
   40.9180   26.8980   40.6210 O   0  0  0  0  0  0  0  0  0  0  0  0
   37.8520   26.5050   41.8390 C   0  0  0  0  0  0  0  0  0  0  0  0
   38.7610   27.5030   41.5790 C   0  0  0  0  0  0  0  0  0  0  0  0
   38.7460   28.6480   42.3750 C   0  0  0  0  0  0  0  0  0  0  0  0
   37.8470   28.8060   43.4140 C   0  0  0  0  0  0  0  0  0  0  0  0
   36.9370   27.8100   43.6780 C   0  0  0  0  0  0  0  0  0  0  0  0
   36.9540   26.6880   42.8950 C   0  0  0  0  0  0  0  0  0  0  0  0
   39.4140   29.4890   42.2490 H   0  0  0  0  0  0  0  0  0  0  0  0
   37.8270   29.6780   44.0300 H   0  0  0  0  0  0  0  0  0  0  0  0
   36.2330   27.8960   44.4660 H   0  0  0  0  0  0  0  0  0  0  0  0
   36.2280   25.9100   43.1170 H   0  0  0  0  0  0  0  0  0  0  0  0
   37.7640   25.1110   40.9230 S   0  0  0  0  0  0  0  0  0  0  0  0
   36.6210   24.3260   41.5340 O   0  0  0  0  0  0  0  0  0  0  0  0
   39.0550   24.2980   41.0540 O   0  0  0  0  0  0  0  0  0  0  0  0
   37.3070   24.7990   39.3550 C   0  0  0  0  0  3  0  0  0  0  0  0
   35.8730   24.5220   38.8540 C   0  0  0  0  0  2  0  0  0  0  0  0
   36.3190   25.9130   38.8260 C   0  0  0  0  0  2  0  0  0  0  0  0
  1 19  1  0  0  0  0
  2  1  2  0  0  0  0
  3  4  2  0  0  0  0
  3  2  1  0  0  0  0
  4  5  1  0  0  0  0
  5  6  2  0  0  0  0
  6  1  1  0  0  0  0
  7  2  1  0  0  0  0
  8  3  1  0  0  0  0
  9 12  1  6  0  0  0
  9  5  1  0  0  0  0
  9 10  1  0  0  0  0
 10 13  1  0  0  0  0
 10 14  1  0  0  0  0
 11 15  1  6  0  0  0
 11  9  1  0  0  0  0
 11 10  1  0  0  0  0
 16 11  1  0  0  0  0
 16 18  1  0  0  0  0
 17 16  1  0  0  0  0
 19 20  2  0  0  0  0
 19 22  1  0  0  0  0
 21 26  1  0  0  0  0
 22 21  2  0  0  0  0
 22 23  1  0  0  0  0
 23 24  2  0  0  0  0
 24 25  1  0  0  0  0
 24 28  1  0  0  0  0
 25 29  1  0  0  0  0
 26 30  1  0  0  0  0
 26 25  2  0  0  0  0
 27 23  1  0  0  0  0
 31 33  2  0  0  0  0
 31 32  2  0  0  0  0
 31 21  1  0  0  0  0
 34 31  1  0  0  0  0
 35 34  1  0  0  0  0
 36 35  1  0  0  0  0
 36 34  1  0  0  0  0
M  END
>  <minimizedAffinity>
-5.22779942

$$$$

 OpenBabel03252508053D

 36 39  0  0  1  0  0  0  0  0999 V2000
   37.0060   30.0830   39.6590 C   0  0  0  0  0  0  0  0  0  0  0  0
   36.5350   31.3450   40.0980 C   0  0  0  0  0  0  0  0  0  0  0  0
   37.4590   32.3930   40.0940 C   0  0  0  0  0  0  0  0  0  0  0  0
   38.7240   32.1350   39.6770 N   0  0  0  0  0  0  0  0  0  0  0  0
   39.1290   30.8920   39.2600 C   0  0  0  0  0  0  0  0  0  0  0  0
   38.2690   29.9360   39.2680 N   0  0  0  0  0  0  0  0  0  0  0  0
   35.5670   31.6210   40.4370 H   0  0  0  0  0  0  0  0  0  0  0  0
   37.2110   33.3940   40.4080 H   0  0  0  0  0  0  0  0  0  0  0  0
   40.5260   30.7060   38.8320 C   0  0  1  0  0  0  0  0  0  0  0  0
   40.7970   30.0470   37.4950 C   0  0  0  0  0  0  0  0  0  0  0  0
   40.9370   31.5330   37.6650 C   0  0  1  0  0  0  0  0  0  0  0  0
   41.2930   30.5470   39.6040 H   0  0  0  0  0  0  0  0  0  0  0  0
   41.7480   29.4900   37.4000 H   0  0  0  0  0  0  0  0  0  0  0  0
   39.9130   29.6000   37.0130 H   0  0  0  0  0  0  0  0  0  0  0  0
   41.9400   31.9810   37.6280 H   0  0  0  0  0  0  0  0  0  0  0  0
   39.9350   32.2510   36.8980 N   0  0  0  0  0  0  0  0  0  0  0  0
   40.0750   33.2660   36.8710 H   0  0  0  0  0  0  0  0  0  0  0  0
   39.7320   31.8240   35.9790 H   0  0  0  0  0  0  0  0  0  0  0  0
   36.0460   29.0110   39.6740 C   0  0  0  0  0  0  0  0  0  0  0  0
   34.9710   29.0340   38.9730 O   0  0  0  0  0  0  0  0  0  0  0  0
   36.7430   26.6590   40.1070 C   0  0  0  0  0  0  0  0  0  0  0  0
   36.4330   27.9150   40.5680 C   0  0  0  0  0  0  0  0  0  0  0  0
   36.4900   28.1590   41.9410 C   0  0  0  0  0  0  0  0  0  0  0  0
   36.8490   27.1750   42.8440 C   0  0  0  0  0  0  0  0  0  0  0  0
   37.1610   25.9170   42.3870 C   0  0  0  0  0  0  0  0  0  0  0  0
   37.1040   25.6820   41.0390 C   0  0  0  0  0  0  0  0  0  0  0  0
   36.2600   29.1080   42.4040 H   0  0  0  0  0  0  0  0  0  0  0  0
   36.8970   27.3510   43.8970 H   0  0  0  0  0  0  0  0  0  0  0  0
   37.4400   25.1390   43.0490 H   0  0  0  0  0  0  0  0  0  0  0  0
   37.3530   24.6820   40.6940 H   0  0  0  0  0  0  0  0  0  0  0  0
   36.6720   26.2560   38.4870 S   0  0  0  0  0  0  0  0  0  0  0  0
   37.5980   27.2440   37.8070 O   0  0  0  0  0  0  0  0  0  0  0  0
   35.2530   26.4480   37.9460 O   0  0  0  0  0  0  0  0  0  0  0  0
   37.2120   24.9510   37.6080 C   0  0  0  0  0  3  0  0  0  0  0  0
   38.1750   23.8480   38.1000 C   0  0  0  0  0  2  0  0  0  0  0  0
   36.7450   23.5950   38.2720 C   0  0  0  0  0  2  0  0  0  0  0  0
  1 19  1  0  0  0  0
  1  2  1  0  0  0  0
  2  7  1  0  0  0  0
  3  2  2  0  0  0  0
  3  8  1  0  0  0  0
  4  3  1  0  0  0  0
  5  6  1  0  0  0  0
  5  4  2  0  0  0  0
  6  1  2  0  0  0  0
  9  5  1  0  0  0  0
  9 12  1  1  0  0  0
 10 11  1  0  0  0  0
 10  9  1  0  0  0  0
 11 15  1  1  0  0  0
 11  9  1  0  0  0  0
 13 10  1  0  0  0  0
 14 10  1  0  0  0  0
 16 11  1  0  0  0  0
 17 16  1  0  0  0  0
 18 16  1  0  0  0  0
 19 22  1  0  0  0  0
 20 19  2  0  0  0  0
 21 22  2  0  0  0  0
 21 26  1  0  0  0  0
 22 23  1  0  0  0  0
 23 27  1  0  0  0  0
 23 24  2  0  0  0  0
 24 28  1  0  0  0  0
 25 24  1  0  0  0  0
 25 29  1  0  0  0  0
 26 25  2  0  0  0  0
 30 26  1  0  0  0  0
 31 21  1  0  0  0  0
 32 31  2  0  0  0  0
 33 31  2  0  0  0  0
 34 35  1  0  0  0  0
 34 36  1  0  0  0  0
 34 31  1  0  0  0  0
 35 36  1  0  0  0  0
M  END
>  <minimizedAffinity>
-5.18223381

$$$$
