
 OpenBabel03252509343D

 37 39  0  0  1  0  0  0  0  0999 V2000
   45.7120   33.7150   41.7290 C   0  0  1  0  0  0  0  0  0  0  0  0
   44.8220   34.3210   40.6670 C   0  0  0  0  0  0  0  0  0  0  0  0
   44.9740   33.3190   39.5530 C   0  0  0  0  0  0  0  0  0  0  0  0
   46.3280   32.6650   39.7510 C   0  0  0  0  0  0  0  0  0  0  0  0
   46.9740   33.4190   40.9140 C   0  0  1  0  0  0  0  0  0  0  0  0
   45.2710   32.7750   42.0540 H   0  0  0  0  0  0  0  0  0  0  0  0
   43.7480   34.2180   41.0080 H   0  0  0  0  0  0  0  0  0  0  0  0
   45.0700   35.3460   40.4120 H   0  0  0  0  0  0  0  0  0  0  0  0
   44.9550   33.8660   38.5880 H   0  0  0  0  0  0  0  0  0  0  0  0
   44.1640   32.5600   39.5280 H   0  0  0  0  0  0  0  0  0  0  0  0
   46.8800   32.6230   38.8460 H   0  0  0  0  0  0  0  0  0  0  0  0
   46.1490   31.6310   40.1920 H   0  0  0  0  0  0  0  0  0  0  0  0
   47.5780   32.7550   41.5400 H   0  0  0  0  0  0  0  0  0  0  0  0
   47.7060   34.6540   40.5280 C   0  0  0  0  0  0  0  0  0  0  0  0
   47.0910   35.5350   40.8970 H   0  0  0  0  0  0  0  0  0  0  0  0
   47.7640   34.7730   39.4110 H   0  0  0  0  0  0  0  0  0  0  0  0
   49.0390   34.7640   41.1740 C   0  0  0  0  0  3  0  0  0  0  0  0
   49.4240   35.7550   42.1890 C   0  0  0  0  0  2  0  0  0  0  0  0
   49.4240   34.2410   42.4810 C   0  0  0  0  0  2  0  0  0  0  0  0
   45.9760   34.5990   42.7690 O   0  0  0  0  0  0  0  0  0  0  0  0
   44.8350   34.9370   45.0780 O   0  0  0  0  0  0  0  0  0  0  0  0
   45.5290   33.9080   44.2370 P   0  0  1  0  0  0  0  0  0  0  0  0
   44.5640   32.5500   43.9830 O   0  0  0  0  0  0  0  0  0  0  0  0
   43.7960   32.8400   43.4560 H   0  0  0  0  0  0  0  0  0  0  0  0
   46.9100   33.3420   45.0150 O   0  0  0  0  0  0  0  0  0  0  0  0
   46.8230   32.0050   45.1620 C   0  0  0  0  0  0  0  0  0  0  0  0
   46.1610   31.4380   44.5140 H   0  0  0  0  0  0  0  0  0  0  0  0
   47.8510   31.5850   44.9560 H   0  0  0  0  0  0  0  0  0  0  0  0
   46.9050   31.8170   48.8780 C   0  0  0  0  0  0  0  0  0  0  0  0
   47.2010   32.2080   47.5630 C   0  0  0  0  0  0  0  0  0  0  0  0
   46.5130   31.5980   46.5430 C   0  0  0  0  0  0  0  0  0  0  0  0
   45.5840   30.6510   46.8620 N   0  0  0  0  0  0  0  0  0  0  0  0
   45.3160   30.2910   48.1240 C   0  0  0  0  0  0  0  0  0  0  0  0
   45.9750   30.8740   49.1190 N   0  0  0  0  0  0  0  0  0  0  0  0
   47.4760   32.3300   49.6470 H   0  0  0  0  0  0  0  0  0  0  0  0
   47.9580   32.9740   47.3850 H   0  0  0  0  0  0  0  0  0  0  0  0
   44.5760   29.5370   48.3660 H   0  0  0  0  0  0  0  0  0  0  0  0
  1  6  1  1  0  0  0
  1 20  1  0  0  0  0
  2  7  1  0  0  0  0
  2  1  1  0  0  0  0
  3  4  1  0  0  0  0
  3  2  1  0  0  0  0
  4 12  1  0  0  0  0
  4  5  1  0  0  0  0
  5 13  1  1  0  0  0
  5  1  1  0  0  0  0
  8  2  1  0  0  0  0
  9  3  1  0  0  0  0
 10  3  1  0  0  0  0
 11  4  1  0  0  0  0
 14 15  1  0  0  0  0
 14  5  1  0  0  0  0
 14 17  1  0  0  0  0
 16 14  1  0  0  0  0
 17 18  1  0  0  0  0
 17 19  1  0  0  0  0
 18 19  1  0  0  0  0
 20 22  1  0  0  0  0
 22 25  1  0  0  0  0
 22 21  2  1  0  0  0
 23 22  1  0  0  0  0
 24 23  1  0  0  0  0
 25 26  1  0  0  0  0
 26 31  1  0  0  0  0
 27 26  1  0  0  0  0
 28 26  1  0  0  0  0
 29 34  1  0  0  0  0
 29 35  1  0  0  0  0
 30 29  2  0  0  0  0
 31 32  2  0  0  0  0
 31 30  1  0  0  0  0
 32 33  1  0  0  0  0
 33 37  1  0  0  0  0
 33 34  2  0  0  0  0
 36 30  1  0  0  0  0
M  END
>  <minimizedAffinity>
-4.85993528

>  <minimizedRMSD>
1.42543113

$$$$
