
 OpenBabel03242515213D

 33 35  0  0  0  0  0  0  0  0999 V2000
   35.6250   29.3090   38.3360 C   0  0  0  0  0  0  0  0  0  0  0  0
   34.7720   29.0750   37.7050 H   0  0  0  0  0  0  0  0  0  0  0  0
   35.3300   30.1840   38.9750 H   0  0  0  0  0  0  0  0  0  0  0  0
   36.6520   26.0150   39.6920 C   0  0  0  0  0  0  0  0  0  0  0  0
   36.9370   26.3340   41.0500 C   0  0  0  0  0  0  0  0  0  0  0  0
   36.7580   27.6470   41.4030 C   0  0  0  0  0  0  0  0  0  0  0  0
   36.3360   28.4990   40.4450 N   0  0  0  0  0  0  0  0  0  0  0  0
   36.0730   28.1950   39.1830 C   0  0  0  0  0  0  0  0  0  0  0  0
   36.2330   26.9480   38.8150 N   0  0  0  0  0  0  0  0  0  0  0  0
   36.7480   25.0210   39.2820 H   0  0  0  0  0  0  0  0  0  0  0  0
   37.0390   28.0270   42.7810 C   0  0  0  0  0  0  0  0  0  0  0  0
   36.9960   29.4120   42.9320 F   0  0  0  0  0  0  0  0  0  0  0  0
   38.3970   27.7270   42.9970 F   0  0  0  0  0  0  0  0  0  0  0  0
   36.2230   27.4330   43.6800 F   0  0  0  0  0  0  0  0  0  0  0  0
   37.3890   25.2400   41.9470 C   0  0  0  0  0  3  0  0  0  0  0  0
   38.7420   24.6240   41.7480 C   0  0  0  0  0  2  0  0  0  0  0  0
   37.4890   23.8520   41.4430 C   0  0  0  0  0  2  0  0  0  0  0  0
   36.7090   29.8220   37.4090 C   0  0  0  0  0  0  0  0  0  0  0  0
   36.1850   30.4940   36.6740 H   0  0  0  0  0  0  0  0  0  0  0  0
   37.1710   29.0290   36.8020 H   0  0  0  0  0  0  0  0  0  0  0  0
   37.7010   30.6340   38.1190 C   0  0  0  0  0  0  0  0  0  0  0  0
   39.0260   30.4070   38.3160 C   0  0  0  0  0  0  0  0  0  0  0  0
   39.5080   31.4670   39.0430 C   0  0  0  0  0  0  0  0  0  0  0  0
   38.4980   32.3010   39.2740 N   0  0  0  0  0  0  0  0  0  0  0  0
   37.4190   31.7870   38.7130 N   0  0  0  0  0  0  0  0  0  0  0  0
   39.5560   29.5310   37.9430 H   0  0  0  0  0  0  0  0  0  0  0  0
   38.5230   33.5730   40.0120 C   0  0  0  0  0  0  0  0  0  0  0  0
   38.8060   33.3430   41.3620 F   0  0  0  0  0  0  0  0  0  0  0  0
   37.3280   34.2400   39.8180 F   0  0  0  0  0  0  0  0  0  0  0  0
   39.5500   34.3480   39.5030 F   0  0  0  0  0  0  0  0  0  0  0  0
   40.8900   31.6340   39.4810 C   0  0  0  0  0  0  0  0  0  0  0  0
   41.2850   31.4090   40.6570 O   0  0  0  0  0  0  0  0  0  0  0  0
   41.6450   31.9670   38.7950 H   0  0  0  0  0  0  0  0  0  0  0  0
  1  3  1  0  0  0  0
  1  8  1  0  0  0  0
  2  1  1  0  0  0  0
  4  5  1  0  0  0  0
  5  6  2  0  0  0  0
  5 15  1  0  0  0  0
  6 11  1  0  0  0  0
  7  6  1  0  0  0  0
  8  7  2  0  0  0  0
  9  8  1  0  0  0  0
  9  4  2  0  0  0  0
 10  4  1  0  0  0  0
 11 12  1  0  0  0  0
 11 13  1  0  0  0  0
 11 14  1  0  0  0  0
 16 15  1  0  0  0  0
 17 16  1  0  0  0  0
 17 15  1  0  0  0  0
 18 21  1  0  0  0  0
 18  1  1  0  0  0  0
 19 18  1  0  0  0  0
 20 18  1  0  0  0  0
 21 22  1  0  0  0  0
 21 25  2  0  0  0  0
 22 23  2  0  0  0  0
 23 24  1  0  0  0  0
 23 31  1  0  0  0  0
 24 27  1  0  0  0  0
 25 24  1  0  0  0  0
 26 22  1  0  0  0  0
 27 28  1  0  0  0  0
 29 27  1  0  0  0  0
 30 27  1  0  0  0  0
 31 32  2  0  0  0  0
 33 31  1  0  0  0  0
M  END
>  <minimizedAffinity>
-5.63955688

$$$$

 OpenBabel03242515213D

 33 35  0  0  0  0  0  0  0  0999 V2000
   35.5450   29.3340   38.4800 C   0  0  0  0  0  0  0  0  0  0  0  0
   34.6380   29.1540   37.9080 H   0  0  0  0  0  0  0  0  0  0  0  0
   35.3350   30.2000   39.1630 H   0  0  0  0  0  0  0  0  0  0  0  0
   36.5680   25.9680   39.6510 C   0  0  0  0  0  0  0  0  0  0  0  0
   36.9090   26.2240   41.0090 C   0  0  0  0  0  0  0  0  0  0  0  0
   36.7660   27.5230   41.4260 C   0  0  0  0  0  0  0  0  0  0  0  0
   36.3220   28.4210   40.5230 N   0  0  0  0  0  0  0  0  0  0  0  0
   36.0060   28.1780   39.2600 C   0  0  0  0  0  0  0  0  0  0  0  0
   36.1320   26.9460   38.8320 N   0  0  0  0  0  0  0  0  0  0  0  0
   36.6320   24.9920   39.1950 H   0  0  0  0  0  0  0  0  0  0  0  0
   37.1050   27.8370   42.8070 C   0  0  0  0  0  0  0  0  0  0  0  0
   36.1340   27.3440   43.6790 F   0  0  0  0  0  0  0  0  0  0  0  0
   36.9640   29.2320   42.9340 F   0  0  0  0  0  0  0  0  0  0  0  0
   38.3290   27.3990   43.1740 F   0  0  0  0  0  0  0  0  0  0  0  0
   37.3770   25.0850   41.8410 C   0  0  0  0  0  3  0  0  0  0  0  0
   38.7250   24.4800   41.5850 C   0  0  0  0  0  2  0  0  0  0  0  0
   37.4670   23.7250   41.2630 C   0  0  0  0  0  2  0  0  0  0  0  0
   36.5780   29.8310   37.4890 C   0  0  0  0  0  0  0  0  0  0  0  0
   35.9940   30.3200   36.6610 H   0  0  0  0  0  0  0  0  0  0  0  0
   37.1430   29.0190   37.0070 H   0  0  0  0  0  0  0  0  0  0  0  0
   37.4540   30.8510   38.0730 C   0  0  0  0  0  0  0  0  0  0  0  0
   37.1470   31.8940   38.8870 C   0  0  0  0  0  0  0  0  0  0  0  0
   38.3220   32.5520   39.1540 C   0  0  0  0  0  0  0  0  0  0  0  0
   39.3010   31.9190   38.5150 N   0  0  0  0  0  0  0  0  0  0  0  0
   38.7650   30.9000   37.8690 N   0  0  0  0  0  0  0  0  0  0  0  0
   36.1390   32.1200   39.2350 H   0  0  0  0  0  0  0  0  0  0  0  0
   40.7350   32.2500   38.4950 C   0  0  0  0  0  0  0  0  0  0  0  0
   41.2750   32.1380   39.7800 F   0  0  0  0  0  0  0  0  0  0  0  0
   40.9080   33.5060   37.9450 F   0  0  0  0  0  0  0  0  0  0  0  0
   41.3810   31.3240   37.6950 F   0  0  0  0  0  0  0  0  0  0  0  0
   38.4560   33.7380   39.9930 C   0  0  0  0  0  0  0  0  0  0  0  0
   38.8620   33.7100   41.1860 O   0  0  0  0  0  0  0  0  0  0  0  0
   38.2050   34.7100   39.6130 H   0  0  0  0  0  0  0  0  0  0  0  0
  1  3  1  0  0  0  0
  1  8  1  0  0  0  0
  2  1  1  0  0  0  0
  4  5  1  0  0  0  0
  5  6  2  0  0  0  0
  5 15  1  0  0  0  0
  6 11  1  0  0  0  0
  7  6  1  0  0  0  0
  8  7  2  0  0  0  0
  9  8  1  0  0  0  0
  9  4  2  0  0  0  0
 10  4  1  0  0  0  0
 11 13  1  0  0  0  0
 11 14  1  0  0  0  0
 11 12  1  0  0  0  0
 16 15  1  0  0  0  0
 17 16  1  0  0  0  0
 17 15  1  0  0  0  0
 18 21  1  0  0  0  0
 18  1  1  0  0  0  0
 19 18  1  0  0  0  0
 20 18  1  0  0  0  0
 21 22  1  0  0  0  0
 22 23  2  0  0  0  0
 22 26  1  0  0  0  0
 23 31  1  0  0  0  0
 24 23  1  0  0  0  0
 25 21  2  0  0  0  0
 25 24  1  0  0  0  0
 27 24  1  0  0  0  0
 27 28  1  0  0  0  0
 29 27  1  0  0  0  0
 30 27  1  0  0  0  0
 31 32  2  0  0  0  0
 33 31  1  0  0  0  0
M  END
>  <minimizedAffinity>
-5.59603834

$$$$

 OpenBabel03242515213D

 33 35  0  0  0  0  0  0  0  0999 V2000
   41.4630   28.8670   42.2360 C   0  0  0  0  0  0  0  0  0  0  0  0
   42.3160   28.6070   42.8580 H   0  0  0  0  0  0  0  0  0  0  0  0
   41.8640   29.1160   41.2170 H   0  0  0  0  0  0  0  0  0  0  0  0
   39.6180   25.6970   41.6950 C   0  0  0  0  0  0  0  0  0  0  0  0
   38.2910   26.0670   42.0550 C   0  0  0  0  0  0  0  0  0  0  0  0
   38.1230   27.3690   42.4540 C   0  0  0  0  0  0  0  0  0  0  0  0
   39.2140   28.1620   42.4690 N   0  0  0  0  0  0  0  0  0  0  0  0
   40.4470   27.8110   42.1340 C   0  0  0  0  0  0  0  0  0  0  0  0
   40.6390   26.5750   41.7470 N   0  0  0  0  0  0  0  0  0  0  0  0
   39.8890   24.7070   41.3610 H   0  0  0  0  0  0  0  0  0  0  0  0
   36.7840   27.7970   42.8350 C   0  0  0  0  0  0  0  0  0  0  0  0
   35.9960   28.0210   41.7060 F   0  0  0  0  0  0  0  0  0  0  0  0
   36.9290   29.0870   43.3800 F   0  0  0  0  0  0  0  0  0  0  0  0
   36.1630   26.9410   43.6760 F   0  0  0  0  0  0  0  0  0  0  0  0
   37.2260   25.0360   41.9630 C   0  0  0  0  0  3  0  0  0  0  0  0
   37.5340   23.6990   41.3570 C   0  0  0  0  0  2  0  0  0  0  0  0
   36.6410   24.6790   40.6510 C   0  0  0  0  0  2  0  0  0  0  0  0
   40.9150   30.1660   42.7920 C   0  0  0  0  0  0  0  0  0  0  0  0
   41.7600   30.6270   43.3750 H   0  0  0  0  0  0  0  0  0  0  0  0
   40.1040   30.0180   43.5200 H   0  0  0  0  0  0  0  0  0  0  0  0
   40.5480   31.1070   41.7290 C   0  0  0  0  0  0  0  0  0  0  0  0
   41.3400   31.7780   40.8530 C   0  0  0  0  0  0  0  0  0  0  0  0
   40.5100   32.5320   40.0620 C   0  0  0  0  0  0  0  0  0  0  0  0
   39.2580   32.3160   40.4560 N   0  0  0  0  0  0  0  0  0  0  0  0
   39.2970   31.4580   41.4590 N   0  0  0  0  0  0  0  0  0  0  0  0
   42.4260   31.6950   40.8270 H   0  0  0  0  0  0  0  0  0  0  0  0
   38.0220   32.9000   39.9120 C   0  0  0  0  0  0  0  0  0  0  0  0
   37.8650   32.5370   38.5700 F   0  0  0  0  0  0  0  0  0  0  0  0
   38.0380   34.2690   40.1020 F   0  0  0  0  0  0  0  0  0  0  0  0
   36.9510   32.3690   40.6090 F   0  0  0  0  0  0  0  0  0  0  0  0
   40.9410   33.4120   38.9800 C   0  0  0  0  0  0  0  0  0  0  0  0
   40.9900   33.0630   37.7700 O   0  0  0  0  0  0  0  0  0  0  0  0
   41.2430   34.4210   39.1830 H   0  0  0  0  0  0  0  0  0  0  0  0
  1 18  1  0  0  0  0
  1  2  1  0  0  0  0
  3  1  1  0  0  0  0
  4  9  2  0  0  0  0
  4  5  1  0  0  0  0
  5  6  2  0  0  0  0
  6  7  1  0  0  0  0
  6 11  1  0  0  0  0
  8  1  1  0  0  0  0
  8  7  2  0  0  0  0
  9  8  1  0  0  0  0
 10  4  1  0  0  0  0
 11 13  1  0  0  0  0
 11 14  1  0  0  0  0
 12 11  1  0  0  0  0
 15  5  1  0  0  0  0
 16 15  1  0  0  0  0
 17 16  1  0  0  0  0
 17 15  1  0  0  0  0
 18 19  1  0  0  0  0
 18 20  1  0  0  0  0
 21 18  1  0  0  0  0
 22 21  1  0  0  0  0
 23 24  1  0  0  0  0
 23 22  2  0  0  0  0
 24 25  1  0  0  0  0
 25 21  2  0  0  0  0
 26 22  1  0  0  0  0
 27 29  1  0  0  0  0
 27 24  1  0  0  0  0
 27 30  1  0  0  0  0
 28 27  1  0  0  0  0
 31 33  1  0  0  0  0
 31 23  1  0  0  0  0
 32 31  2  0  0  0  0
M  END
>  <minimizedAffinity>
-5.50832415

$$$$

 OpenBabel03242515213D

 33 35  0  0  0  0  0  0  0  0999 V2000
   34.4410   27.8730   37.5520 C   0  0  0  0  0  0  0  0  0  0  0  0
   34.0110   27.1760   38.2670 H   0  0  0  0  0  0  0  0  0  0  0  0
   35.0250   27.2640   36.8110 H   0  0  0  0  0  0  0  0  0  0  0  0
   32.4990   29.8170   35.0630 C   0  0  0  0  0  0  0  0  0  0  0  0
   31.4220   30.3080   35.8530 C   0  0  0  0  0  0  0  0  0  0  0  0
   31.4360   29.9410   37.1750 C   0  0  0  0  0  0  0  0  0  0  0  0
   32.4540   29.1620   37.5940 N   0  0  0  0  0  0  0  0  0  0  0  0
   33.4540   28.7070   36.8540 C   0  0  0  0  0  0  0  0  0  0  0  0
   33.4690   29.0410   35.5870 N   0  0  0  0  0  0  0  0  0  0  0  0
   32.6110   30.0310   34.0110 H   0  0  0  0  0  0  0  0  0  0  0  0
   30.3540   30.4160   38.0260 C   0  0  0  0  0  0  0  0  0  0  0  0
   30.4670   29.8880   39.3110 F   0  0  0  0  0  0  0  0  0  0  0  0
   29.1810   29.8100   37.5370 F   0  0  0  0  0  0  0  0  0  0  0  0
   30.2630   31.7630   38.0800 F   0  0  0  0  0  0  0  0  0  0  0  0
   30.4000   31.1610   35.1930 C   0  0  0  0  0  3  0  0  0  0  0  0
   30.6310   31.6530   33.7950 C   0  0  0  0  0  2  0  0  0  0  0  0
   30.6620   32.5990   34.9610 C   0  0  0  0  0  2  0  0  0  0  0  0
   35.4680   28.6840   38.3180 C   0  0  0  0  0  0  0  0  0  0  0  0
   34.9020   29.5520   38.7580 H   0  0  0  0  0  0  0  0  0  0  0  0
   36.2350   29.1350   37.6700 H   0  0  0  0  0  0  0  0  0  0  0  0
   36.0490   27.9270   39.4300 C   0  0  0  0  0  0  0  0  0  0  0  0
   36.4450   26.6290   39.4810 C   0  0  0  0  0  0  0  0  0  0  0  0
   36.9200   26.4060   40.7500 C   0  0  0  0  0  0  0  0  0  0  0  0
   36.8090   27.5400   41.4350 N   0  0  0  0  0  0  0  0  0  0  0  0
   36.2830   28.4450   40.6290 N   0  0  0  0  0  0  0  0  0  0  0  0
   36.3770   25.9370   38.6420 H   0  0  0  0  0  0  0  0  0  0  0  0
   37.1850   27.7950   42.8350 C   0  0  0  0  0  0  0  0  0  0  0  0
   38.5150   27.4220   43.0540 F   0  0  0  0  0  0  0  0  0  0  0  0
   36.2980   27.1490   43.6740 F   0  0  0  0  0  0  0  0  0  0  0  0
   37.0970   29.1570   43.0630 F   0  0  0  0  0  0  0  0  0  0  0  0
   37.4500   25.1400   41.2450 C   0  0  0  0  0  0  0  0  0  0  0  0
   38.6780   24.8500   41.2550 O   0  0  0  0  0  0  0  0  0  0  0  0
   36.7940   24.3840   41.6300 H   0  0  0  0  0  0  0  0  0  0  0  0
  1  2  1  0  0  0  0
  1 18  1  0  0  0  0
  3  1  1  0  0  0  0
  4  9  2  0  0  0  0
  4  5  1  0  0  0  0
  5  6  2  0  0  0  0
  6  7  1  0  0  0  0
  6 11  1  0  0  0  0
  8  1  1  0  0  0  0
  8  7  2  0  0  0  0
  9  8  1  0  0  0  0
 10  4  1  0  0  0  0
 11 14  1  0  0  0  0
 11 12  1  0  0  0  0
 13 11  1  0  0  0  0
 15  5  1  0  0  0  0
 16 17  1  0  0  0  0
 16 15  1  0  0  0  0
 17 15  1  0  0  0  0
 18 19  1  0  0  0  0
 18 21  1  0  0  0  0
 20 18  1  0  0  0  0
 21 22  1  0  0  0  0
 21 25  2  0  0  0  0
 22 23  2  0  0  0  0
 23 31  1  0  0  0  0
 23 24  1  0  0  0  0
 24 27  1  0  0  0  0
 25 24  1  0  0  0  0
 26 22  1  0  0  0  0
 27 28  1  0  0  0  0
 27 30  1  0  0  0  0
 27 29  1  0  0  0  0
 31 32  2  0  0  0  0
 31 33  1  0  0  0  0
M  END
>  <minimizedAffinity>
-5.48915052

$$$$

 OpenBabel03242515213D

 33 35  0  0  0  0  0  0  0  0999 V2000
   38.6970   29.3940   42.9300 C   0  0  0  0  0  0  0  0  0  0  0  0
   39.2370   28.4640   42.7760 H   0  0  0  0  0  0  0  0  0  0  0  0
   38.7740   29.6420   44.0220 H   0  0  0  0  0  0  0  0  0  0  0  0
   40.7130   32.0830   41.3660 C   0  0  0  0  0  0  0  0  0  0  0  0
   39.7850   32.6460   40.4450 C   0  0  0  0  0  0  0  0  0  0  0  0
   38.5410   32.0690   40.4250 C   0  0  0  0  0  0  0  0  0  0  0  0
   38.3190   31.0380   41.2670 N   0  0  0  0  0  0  0  0  0  0  0  0
   39.1880   30.5180   42.1210 C   0  0  0  0  0  0  0  0  0  0  0  0
   40.3840   31.0480   42.1640 N   0  0  0  0  0  0  0  0  0  0  0  0
   41.7240   32.4430   41.4860 H   0  0  0  0  0  0  0  0  0  0  0  0
   37.5540   32.6060   39.4980 C   0  0  0  0  0  0  0  0  0  0  0  0
   36.3820   31.8520   39.5300 F   0  0  0  0  0  0  0  0  0  0  0  0
   38.0570   32.3550   38.2080 F   0  0  0  0  0  0  0  0  0  0  0  0
   37.2760   33.9120   39.7060 F   0  0  0  0  0  0  0  0  0  0  0  0
   40.2330   33.7880   39.6080 C   0  0  0  0  0  3  0  0  0  0  0  0
   41.2560   33.5690   38.5340 C   0  0  0  0  0  2  0  0  0  0  0  0
   41.5930   34.3490   39.7730 C   0  0  0  0  0  2  0  0  0  0  0  0
   37.2350   29.0790   42.6820 C   0  0  0  0  0  0  0  0  0  0  0  0
   36.8230   29.9680   42.1290 H   0  0  0  0  0  0  0  0  0  0  0  0
   36.6430   29.0120   43.6080 H   0  0  0  0  0  0  0  0  0  0  0  0
   37.0630   27.9050   41.8220 C   0  0  0  0  0  0  0  0  0  0  0  0
   36.6820   27.8330   40.5200 C   0  0  0  0  0  0  0  0  0  0  0  0
   36.6760   26.5030   40.1790 C   0  0  0  0  0  0  0  0  0  0  0  0
   37.0420   25.8030   41.2490 N   0  0  0  0  0  0  0  0  0  0  0  0
   37.2710   26.6590   42.2280 N   0  0  0  0  0  0  0  0  0  0  0  0
   36.4390   28.7000   39.9070 H   0  0  0  0  0  0  0  0  0  0  0  0
   37.1810   24.3440   41.3740 C   0  0  0  0  0  0  0  0  0  0  0  0
   38.1680   23.8760   40.5010 F   0  0  0  0  0  0  0  0  0  0  0  0
   35.9530   23.7460   41.1710 F   0  0  0  0  0  0  0  0  0  0  0  0
   37.6040   24.0600   42.6610 F   0  0  0  0  0  0  0  0  0  0  0  0
   36.3250   25.9670   38.8680 C   0  0  0  0  0  0  0  0  0  0  0  0
   37.1710   25.6860   37.9770 O   0  0  0  0  0  0  0  0  0  0  0  0
   35.3000   25.7880   38.6060 H   0  0  0  0  0  0  0  0  0  0  0  0
  1  3  1  0  0  0  0
  2  1  1  0  0  0  0
  4 10  1  0  0  0  0
  4  9  1  0  0  0  0
  5  4  2  0  0  0  0
  6  5  1  0  0  0  0
  6  7  2  0  0  0  0
  7  8  1  0  0  0  0
  8  9  2  0  0  0  0
  8  1  1  0  0  0  0
 11 12  1  0  0  0  0
 11 14  1  0  0  0  0
 11  6  1  0  0  0  0
 13 11  1  0  0  0  0
 15 17  1  0  0  0  0
 15  5  1  0  0  0  0
 16 15  1  0  0  0  0
 16 17  1  0  0  0  0
 18  1  1  0  0  0  0
 18 20  1  0  0  0  0
 19 18  1  0  0  0  0
 21 25  2  0  0  0  0
 21 18  1  0  0  0  0
 22 21  1  0  0  0  0
 23 22  2  0  0  0  0
 23 24  1  0  0  0  0
 24 27  1  0  0  0  0
 24 25  1  0  0  0  0
 26 22  1  0  0  0  0
 27 30  1  0  0  0  0
 28 27  1  0  0  0  0
 29 27  1  0  0  0  0
 31 23  1  0  0  0  0
 32 31  2  0  0  0  0
 33 31  1  0  0  0  0
M  END
>  <minimizedAffinity>
-5.4053483

$$$$

 OpenBabel03242515213D

 33 35  0  0  0  0  0  0  0  0999 V2000
   35.0740   29.0170   37.8550 C   0  0  0  0  0  0  0  0  0  0  0  0
   34.4870   29.7440   38.4100 H   0  0  0  0  0  0  0  0  0  0  0  0
   35.8430   29.5920   37.2720 H   0  0  0  0  0  0  0  0  0  0  0  0
   36.6320   25.9390   39.2130 C   0  0  0  0  0  0  0  0  0  0  0  0
   36.9770   26.3450   40.5330 C   0  0  0  0  0  0  0  0  0  0  0  0
   36.6540   27.6370   40.8630 C   0  0  0  0  0  0  0  0  0  0  0  0
   36.0490   28.3890   39.9200 N   0  0  0  0  0  0  0  0  0  0  0  0
   35.7310   28.0050   38.6920 C   0  0  0  0  0  0  0  0  0  0  0  0
   36.0260   26.7760   38.3480 N   0  0  0  0  0  0  0  0  0  0  0  0
   36.8260   24.9510   38.8250 H   0  0  0  0  0  0  0  0  0  0  0  0
   36.9890   28.1030   42.2020 C   0  0  0  0  0  0  0  0  0  0  0  0
   36.1170   27.5620   43.1460 F   0  0  0  0  0  0  0  0  0  0  0  0
   36.6700   29.4740   42.2270 F   0  0  0  0  0  0  0  0  0  0  0  0
   38.2700   27.8570   42.5530 F   0  0  0  0  0  0  0  0  0  0  0  0
   37.6390   25.3550   41.4210 C   0  0  0  0  0  3  0  0  0  0  0  0
   37.6200   23.9000   41.0590 C   0  0  0  0  0  2  0  0  0  0  0  0
   36.8290   24.4150   42.2270 C   0  0  0  0  0  2  0  0  0  0  0  0
   34.1390   28.4180   36.8230 C   0  0  0  0  0  0  0  0  0  0  0  0
   33.8680   27.3990   37.2160 H   0  0  0  0  0  0  0  0  0  0  0  0
   34.6250   28.2360   35.8520 H   0  0  0  0  0  0  0  0  0  0  0  0
   32.8990   29.1870   36.6930 C   0  0  0  0  0  0  0  0  0  0  0  0
   32.3500   29.7680   35.5950 C   0  0  0  0  0  0  0  0  0  0  0  0
   31.1840   30.3680   36.0020 C   0  0  0  0  0  0  0  0  0  0  0  0
   31.0430   30.1500   37.3060 N   0  0  0  0  0  0  0  0  0  0  0  0
   32.0810   29.4400   37.7080 N   0  0  0  0  0  0  0  0  0  0  0  0
   32.7940   29.7330   34.6010 H   0  0  0  0  0  0  0  0  0  0  0  0
   29.9530   30.5970   38.1880 C   0  0  0  0  0  0  0  0  0  0  0  0
   28.7240   30.1270   37.7140 F   0  0  0  0  0  0  0  0  0  0  0  0
   29.9940   31.9720   38.3100 F   0  0  0  0  0  0  0  0  0  0  0  0
   30.1520   30.0360   39.4380 F   0  0  0  0  0  0  0  0  0  0  0  0
   30.2700   31.1120   35.1420 C   0  0  0  0  0  0  0  0  0  0  0  0
   30.5750   32.1890   34.5600 O   0  0  0  0  0  0  0  0  0  0  0  0
   29.2720   30.7600   34.9680 H   0  0  0  0  0  0  0  0  0  0  0  0
  1  2  1  0  0  0  0
  1  8  1  0  0  0  0
  3  1  1  0  0  0  0
  4  5  1  0  0  0  0
  5  6  2  0  0  0  0
  5 15  1  0  0  0  0
  6 11  1  0  0  0  0
  7  6  1  0  0  0  0
  8  7  2  0  0  0  0
  9  8  1  0  0  0  0
  9  4  2  0  0  0  0
 10  4  1  0  0  0  0
 11 13  1  0  0  0  0
 11 14  1  0  0  0  0
 11 12  1  0  0  0  0
 15 17  1  0  0  0  0
 16 15  1  0  0  0  0
 16 17  1  0  0  0  0
 18 19  1  0  0  0  0
 18  1  1  0  0  0  0
 20 18  1  0  0  0  0
 21 18  1  0  0  0  0
 21 25  2  0  0  0  0
 22 23  2  0  0  0  0
 22 21  1  0  0  0  0
 23 24  1  0  0  0  0
 24 25  1  0  0  0  0
 24 27  1  0  0  0  0
 26 22  1  0  0  0  0
 27 29  1  0  0  0  0
 27 30  1  0  0  0  0
 28 27  1  0  0  0  0
 31 23  1  0  0  0  0
 32 31  2  0  0  0  0
 33 31  1  0  0  0  0
M  END
>  <minimizedAffinity>
-5.38449001

$$$$

 OpenBabel03242515213D

 33 35  0  0  0  0  0  0  0  0999 V2000
   37.5100   28.8200   42.9800 C   0  0  0  0  0  0  0  0  0  0  0  0
   36.8260   29.6620   42.9010 H   0  0  0  0  0  0  0  0  0  0  0  0
   37.3950   28.4010   44.0160 H   0  0  0  0  0  0  0  0  0  0  0  0
   36.4510   26.8170   40.0460 C   0  0  0  0  0  0  0  0  0  0  0  0
   37.0750   25.5650   40.3070 C   0  0  0  0  0  0  0  0  0  0  0  0
   37.8100   25.4950   41.4630 C   0  0  0  0  0  0  0  0  0  0  0  0
   37.8710   26.6030   42.2310 N   0  0  0  0  0  0  0  0  0  0  0  0
   37.2880   27.7660   41.9820 C   0  0  0  0  0  0  0  0  0  0  0  0
   36.5780   27.8640   40.8860 N   0  0  0  0  0  0  0  0  0  0  0  0
   35.8420   27.0080   39.1750 H   0  0  0  0  0  0  0  0  0  0  0  0
   38.4720   24.2360   41.7750 C   0  0  0  0  0  0  0  0  0  0  0  0
   39.0670   24.2880   43.0350 F   0  0  0  0  0  0  0  0  0  0  0  0
   39.5760   24.1510   40.9070 F   0  0  0  0  0  0  0  0  0  0  0  0
   37.6550   23.1630   41.6890 F   0  0  0  0  0  0  0  0  0  0  0  0
   36.8770   24.4650   39.3290 C   0  0  0  0  0  3  0  0  0  0  0  0
   36.0810   24.7120   38.0810 C   0  0  0  0  0  2  0  0  0  0  0  0
   35.5480   23.8310   39.1750 C   0  0  0  0  0  2  0  0  0  0  0  0
   38.9070   29.4050   42.9260 C   0  0  0  0  0  0  0  0  0  0  0  0
   39.5560   28.5980   42.4840 H   0  0  0  0  0  0  0  0  0  0  0  0
   39.3310   29.6080   43.9210 H   0  0  0  0  0  0  0  0  0  0  0  0
   38.9820   30.5680   42.0380 C   0  0  0  0  0  0  0  0  0  0  0  0
   39.9620   31.5010   41.9110 C   0  0  0  0  0  0  0  0  0  0  0  0
   39.5510   32.3810   40.9420 C   0  0  0  0  0  0  0  0  0  0  0  0
   38.3600   31.9850   40.5030 N   0  0  0  0  0  0  0  0  0  0  0  0
   38.0310   30.8940   41.1710 N   0  0  0  0  0  0  0  0  0  0  0  0
   40.8820   31.5010   42.4950 H   0  0  0  0  0  0  0  0  0  0  0  0
   37.5200   32.6090   39.4690 C   0  0  0  0  0  0  0  0  0  0  0  0
   38.1590   32.5500   38.2270 F   0  0  0  0  0  0  0  0  0  0  0  0
   37.2010   33.8980   39.8510 F   0  0  0  0  0  0  0  0  0  0  0  0
   36.3500   31.8770   39.3640 F   0  0  0  0  0  0  0  0  0  0  0  0
   40.3020   33.5460   40.4830 C   0  0  0  0  0  0  0  0  0  0  0  0
   41.5620   33.5990   40.4520 O   0  0  0  0  0  0  0  0  0  0  0  0
   39.7930   34.4290   40.1470 H   0  0  0  0  0  0  0  0  0  0  0  0
  1  3  1  0  0  0  0
  2  1  1  0  0  0  0
  4  5  2  0  0  0  0
  4  9  1  0  0  0  0
  5  6  1  0  0  0  0
  6 11  1  0  0  0  0
  6  7  2  0  0  0  0
  8  7  1  0  0  0  0
  8  1  1  0  0  0  0
  9  8  2  0  0  0  0
 10  4  1  0  0  0  0
 11 12  1  0  0  0  0
 13 11  1  0  0  0  0
 14 11  1  0  0  0  0
 15  5  1  0  0  0  0
 16 17  1  0  0  0  0
 16 15  1  0  0  0  0
 17 15  1  0  0  0  0
 18  1  1  0  0  0  0
 18 20  1  0  0  0  0
 19 18  1  0  0  0  0
 21 18  1  0  0  0  0
 22 21  1  0  0  0  0
 22 26  1  0  0  0  0
 23 22  2  0  0  0  0
 24 23  1  0  0  0  0
 24 25  1  0  0  0  0
 25 21  2  0  0  0  0
 27 29  1  0  0  0  0
 27 24  1  0  0  0  0
 28 27  1  0  0  0  0
 30 27  1  0  0  0  0
 31 23  1  0  0  0  0
 32 31  2  0  0  0  0
 33 31  1  0  0  0  0
M  END
>  <minimizedAffinity>
-5.33968782

$$$$

 OpenBabel03242515213D

 33 35  0  0  0  0  0  0  0  0999 V2000
   35.5870   28.8340   38.9950 C   0  0  0  0  0  0  0  0  0  0  0  0
   36.1010   29.4810   38.2880 H   0  0  0  0  0  0  0  0  0  0  0  0
   34.5380   28.7030   38.6170 H   0  0  0  0  0  0  0  0  0  0  0  0
   37.1700   25.5110   38.5500 C   0  0  0  0  0  0  0  0  0  0  0  0
   37.3980   25.1140   39.8980 C   0  0  0  0  0  0  0  0  0  0  0  0
   36.9950   26.0070   40.8580 C   0  0  0  0  0  0  0  0  0  0  0  0
   36.4310   27.1590   40.4410 N   0  0  0  0  0  0  0  0  0  0  0  0
   36.2220   27.5230   39.1850 C   0  0  0  0  0  0  0  0  0  0  0  0
   36.5950   26.6910   38.2440 N   0  0  0  0  0  0  0  0  0  0  0  0
   37.4360   24.9040   37.6980 H   0  0  0  0  0  0  0  0  0  0  0  0
   37.2080   25.6480   42.2540 C   0  0  0  0  0  0  0  0  0  0  0  0
   36.4420   24.5360   42.6020 F   0  0  0  0  0  0  0  0  0  0  0  0
   36.6280   26.6820   43.0130 F   0  0  0  0  0  0  0  0  0  0  0  0
   38.5060   25.4370   42.5630 F   0  0  0  0  0  0  0  0  0  0  0  0
   38.0340   23.7940   40.1420 C   0  0  0  0  0  3  0  0  0  0  0  0
   38.6080   23.0200   38.9920 C   0  0  0  0  0  2  0  0  0  0  0  0
   37.3670   22.5490   39.6970 C   0  0  0  0  0  2  0  0  0  0  0  0
   35.4660   29.6260   40.2820 C   0  0  0  0  0  0  0  0  0  0  0  0
   35.4400   28.8620   41.1070 H   0  0  0  0  0  0  0  0  0  0  0  0
   34.5160   30.1760   40.3640 H   0  0  0  0  0  0  0  0  0  0  0  0
   36.6310   30.4850   40.5110 C   0  0  0  0  0  0  0  0  0  0  0  0
   37.7850   30.2210   41.1760 C   0  0  0  0  0  0  0  0  0  0  0  0
   38.5550   31.3550   41.1050 C   0  0  0  0  0  0  0  0  0  0  0  0
   37.8780   32.2690   40.4170 N   0  0  0  0  0  0  0  0  0  0  0  0
   36.7230   31.7320   40.0670 N   0  0  0  0  0  0  0  0  0  0  0  0
   38.0070   29.2680   41.6580 H   0  0  0  0  0  0  0  0  0  0  0  0
   38.2900   33.6410   40.0800 C   0  0  0  0  0  0  0  0  0  0  0  0
   37.2140   34.3490   39.5360 F   0  0  0  0  0  0  0  0  0  0  0  0
   39.3880   33.5980   39.2420 F   0  0  0  0  0  0  0  0  0  0  0  0
   38.6540   34.2820   41.2510 F   0  0  0  0  0  0  0  0  0  0  0  0
   39.8830   31.5140   41.6890 C   0  0  0  0  0  0  0  0  0  0  0  0
   40.9270   30.9950   41.2080 O   0  0  0  0  0  0  0  0  0  0  0  0
   40.0240   32.0960   42.5790 H   0  0  0  0  0  0  0  0  0  0  0  0
  1  8  1  0  0  0  0
  1 18  1  0  0  0  0
  2  1  1  0  0  0  0
  3  1  1  0  0  0  0
  4  5  1  0  0  0  0
  5 15  1  0  0  0  0
  5  6  2  0  0  0  0
  6 11  1  0  0  0  0
  7  6  1  0  0  0  0
  8  7  2  0  0  0  0
  9  4  2  0  0  0  0
  9  8  1  0  0  0  0
 10  4  1  0  0  0  0
 11 14  1  0  0  0  0
 11 12  1  0  0  0  0
 11 13  1  0  0  0  0
 16 17  1  0  0  0  0
 16 15  1  0  0  0  0
 17 15  1  0  0  0  0
 18 20  1  0  0  0  0
 18 21  1  0  0  0  0
 18 19  1  0  0  0  0
 21 22  1  0  0  0  0
 22 26  1  0  0  0  0
 23 22  2  0  0  0  0
 23 31  1  0  0  0  0
 24 23  1  0  0  0  0
 25 24  1  0  0  0  0
 25 21  2  0  0  0  0
 27 24  1  0  0  0  0
 27 30  1  0  0  0  0
 28 27  1  0  0  0  0
 29 27  1  0  0  0  0
 31 33  1  0  0  0  0
 32 31  2  0  0  0  0
M  END
>  <minimizedAffinity>
-5.32652235

$$$$

 OpenBabel03242515213D

 33 35  0  0  0  0  0  0  0  0999 V2000
   38.5780   29.1960   43.0210 C   0  0  0  0  0  0  0  0  0  0  0  0
   39.1950   28.3030   42.9710 H   0  0  0  0  0  0  0  0  0  0  0  0
   38.5320   29.5040   44.1000 H   0  0  0  0  0  0  0  0  0  0  0  0
   40.5790   31.8840   41.4350 C   0  0  0  0  0  0  0  0  0  0  0  0
   39.6550   32.4190   40.4930 C   0  0  0  0  0  0  0  0  0  0  0  0
   38.4190   31.8240   40.4680 C   0  0  0  0  0  0  0  0  0  0  0  0
   38.2000   30.8050   41.3250 N   0  0  0  0  0  0  0  0  0  0  0  0
   39.0640   30.3120   42.1990 C   0  0  0  0  0  0  0  0  0  0  0  0
   40.2540   30.8590   42.2480 N   0  0  0  0  0  0  0  0  0  0  0  0
   41.5830   32.2590   41.5610 H   0  0  0  0  0  0  0  0  0  0  0  0
   37.4370   32.3330   39.5200 C   0  0  0  0  0  0  0  0  0  0  0  0
   37.1120   33.6580   39.8070 F   0  0  0  0  0  0  0  0  0  0  0  0
   36.2400   31.6460   39.7950 F   0  0  0  0  0  0  0  0  0  0  0  0
   37.8230   32.2150   38.2300 F   0  0  0  0  0  0  0  0  0  0  0  0
   40.0980   33.5520   39.6410 C   0  0  0  0  0  3  0  0  0  0  0  0
   41.0740   33.3100   38.5280 C   0  0  0  0  0  2  0  0  0  0  0  0
   41.4770   34.0780   39.7550 C   0  0  0  0  0  2  0  0  0  0  0  0
   37.1730   28.7600   42.6580 C   0  0  0  0  0  0  0  0  0  0  0  0
   36.8060   29.5130   41.9060 H   0  0  0  0  0  0  0  0  0  0  0  0
   36.4680   28.8230   43.5010 H   0  0  0  0  0  0  0  0  0  0  0  0
   37.1550   27.4460   42.0100 C   0  0  0  0  0  0  0  0  0  0  0  0
   37.5580   26.2390   42.4870 C   0  0  0  0  0  0  0  0  0  0  0  0
   37.3330   25.3220   41.4910 C   0  0  0  0  0  0  0  0  0  0  0  0
   36.8120   25.9640   40.4490 N   0  0  0  0  0  0  0  0  0  0  0  0
   36.7120   27.2400   40.7760 N   0  0  0  0  0  0  0  0  0  0  0  0
   37.9730   26.0850   43.4820 H   0  0  0  0  0  0  0  0  0  0  0  0
   36.4070   25.4070   39.1500 C   0  0  0  0  0  0  0  0  0  0  0  0
   37.5070   24.8340   38.5040 F   0  0  0  0  0  0  0  0  0  0  0  0
   35.7930   26.3920   38.3990 F   0  0  0  0  0  0  0  0  0  0  0  0
   35.4930   24.3940   39.3810 F   0  0  0  0  0  0  0  0  0  0  0  0
   37.6220   23.8930   41.5750 C   0  0  0  0  0  0  0  0  0  0  0  0
   38.6810   23.3660   41.1380 O   0  0  0  0  0  0  0  0  0  0  0  0
   36.9200   23.2180   42.0250 H   0  0  0  0  0  0  0  0  0  0  0  0
  1  3  1  0  0  0  0
  2  1  1  0  0  0  0
  4 10  1  0  0  0  0
  4  9  1  0  0  0  0
  5  4  2  0  0  0  0
  6  5  1  0  0  0  0
  6  7  2  0  0  0  0
  7  8  1  0  0  0  0
  8  9  2  0  0  0  0
  8  1  1  0  0  0  0
 11 13  1  0  0  0  0
 11 12  1  0  0  0  0
 11  6  1  0  0  0  0
 14 11  1  0  0  0  0
 15 17  1  0  0  0  0
 15  5  1  0  0  0  0
 16 15  1  0  0  0  0
 16 17  1  0  0  0  0
 18  1  1  0  0  0  0
 18 20  1  0  0  0  0
 19 18  1  0  0  0  0
 21 22  1  0  0  0  0
 21 18  1  0  0  0  0
 22 26  1  0  0  0  0
 23 31  1  0  0  0  0
 23 22  2  0  0  0  0
 24 25  1  0  0  0  0
 24 23  1  0  0  0  0
 25 21  2  0  0  0  0
 27 30  1  0  0  0  0
 27 24  1  0  0  0  0
 28 27  1  0  0  0  0
 29 27  1  0  0  0  0
 31 33  1  0  0  0  0
 32 31  2  0  0  0  0
M  END
>  <minimizedAffinity>
-5.29956675

$$$$
