
 OpenBabel03252502023D

 28 31  0  0  0  0  0  0  0  0999 V2000
   45.8250   33.8060   45.3870 C   0  0  0  0  0  0  0  0  0  0  0  0
   44.8800   34.7640   45.5330 N   0  0  0  0  0  0  0  0  0  0  0  0
   44.5730   35.7140   44.6650 C   0  0  0  0  0  0  0  0  0  0  0  0
   45.2530   35.7690   43.4880 N   0  0  0  0  0  0  0  0  0  0  0  0
   46.2210   34.8730   43.2130 C   0  0  0  0  0  0  0  0  0  0  0  0
   46.9060   34.9360   42.0150 C   0  0  0  0  0  0  0  0  0  0  0  0
   47.8980   34.0230   41.7240 C   0  0  0  0  0  0  0  0  0  0  0  0
   48.1690   33.0660   42.6610 C   0  0  0  0  0  0  0  0  0  0  0  0
   47.4620   33.0370   43.8450 C   0  0  0  0  0  0  0  0  0  0  0  0
   46.4730   33.9170   44.1810 C   0  0  0  0  0  0  0  0  0  0  0  0
   43.8020   36.4320   44.8760 H   0  0  0  0  0  0  0  0  0  0  0  0
   46.6130   35.7370   41.3370 H   0  0  0  0  0  0  0  0  0  0  0  0
   48.3750   34.1530   40.7660 H   0  0  0  0  0  0  0  0  0  0  0  0
   48.9520   32.3640   42.4040 H   0  0  0  0  0  0  0  0  0  0  0  0
   47.7270   32.2480   44.5510 H   0  0  0  0  0  0  0  0  0  0  0  0
   47.5880   32.4380   48.1940 C   0  0  0  0  0  0  0  0  0  0  0  0
   47.0440   31.1830   48.4450 C   0  0  0  0  0  0  0  0  0  0  0  0
   46.0310   30.7900   47.6150 C   0  0  0  0  0  0  0  0  0  0  0  0
   45.6160   31.5910   46.6350 N   0  0  0  0  0  0  0  0  0  0  0  0
   46.1220   32.7800   46.3880 C   0  0  0  0  0  0  0  0  0  0  0  0
   47.1200   33.1790   47.1980 N   0  0  0  0  0  0  0  0  0  0  0  0
   48.4060   32.7630   48.8590 H   0  0  0  0  0  0  0  0  0  0  0  0
   47.5500   30.4120   49.5120 N   0  0  0  0  0  0  0  0  0  0  0  0
   48.5750   30.3430   49.6660 H   0  0  0  0  0  0  0  0  0  0  0  0
   46.8390   29.9330   50.1140 H   0  0  0  0  0  0  0  0  0  0  0  0
   45.4020   29.4910   47.8020 C   0  0  0  0  0  0  0  0  0  0  0  0
   45.9770   28.3590   46.9390 C   0  0  0  0  0  0  0  0  0  0  0  0
   44.5800   28.8010   46.7890 C   0  0  0  0  0  0  0  0  0  0  0  0
  1  2  1  0  0  0  0
  1 20  1  0  0  0  0
  3 11  1  0  0  0  0
  3  2  2  0  0  0  0
  4  3  1  0  0  0  0
  5  4  2  0  0  0  0
  5 10  1  0  0  0  0
  6  5  1  0  0  0  0
  7  6  2  0  0  0  0
  7  8  1  0  0  0  0
  8  9  2  0  0  0  0
  9 10  1  0  0  0  0
  9 15  1  0  0  0  0
 10  1  2  0  0  0  0
 12  6  1  0  0  0  0
 13  7  1  0  0  0  0
 14  8  1  0  0  0  0
 16 17  1  0  0  0  0
 16 22  1  0  0  0  0
 17 23  1  0  0  0  0
 18 26  1  0  0  0  0
 18 17  2  0  0  0  0
 19 18  1  0  0  0  0
 20 19  2  0  0  0  0
 20 21  1  0  0  0  0
 21 16  2  0  0  0  0
 23 24  1  0  0  0  0
 23 25  1  0  0  0  0
 27 26  1  0  0  0  0
 28 27  1  0  0  0  0
 28 26  1  0  0  0  0
M  END
>  <minimizedAffinity>
-6.10327196

>  <minimizedRMSD>
0.733707845

$$$$
