
 OpenBabel03252504423D

 39 42  0  0  0  0  0  0  0  0999 V2000
   46.3800   32.1880   47.7490 C   0  0  0  0  0  0  0  0  0  0  0  0
   45.9160   31.8160   48.9750 C   0  0  0  0  0  0  0  0  0  0  0  0
   46.9010   31.1330   49.5620 N   0  0  0  0  0  0  0  0  0  0  0  0
   47.9710   31.0550   48.7640 C   0  0  0  0  0  0  0  0  0  0  0  0
   47.6330   31.7230   47.6240 N   0  0  0  0  0  0  0  0  0  0  0  0
   49.2440   30.4450   48.9390 N   0  0  0  0  0  0  0  0  0  0  0  0
   50.3010   31.2700   49.5720 C   0  0  0  0  0  0  0  0  0  0  0  0
   50.4040   30.7300   50.9970 C   0  0  0  0  0  0  0  0  0  0  0  0
   50.5000   29.2280   50.9810 C   0  0  0  0  0  0  0  0  0  0  0  0
   50.8500   28.7490   49.5810 C   0  0  0  0  0  0  0  0  0  0  0  0
   49.7500   29.1490   48.6220 C   0  0  0  0  0  0  0  0  0  0  0  0
   44.9330   32.0340   49.3910 H   0  0  0  0  0  0  0  0  0  0  0  0
   46.8820   30.7000   50.5160 H   0  0  0  0  0  0  0  0  0  0  0  0
   51.2440   31.1810   49.0220 H   0  0  0  0  0  0  0  0  0  0  0  0
   49.9760   32.3250   49.6630 H   0  0  0  0  0  0  0  0  0  0  0  0
   49.5090   31.0130   51.5540 H   0  0  0  0  0  0  0  0  0  0  0  0
   51.3300   31.1510   51.4620 H   0  0  0  0  0  0  0  0  0  0  0  0
   49.5300   28.7470   51.2270 H   0  0  0  0  0  0  0  0  0  0  0  0
   51.2750   28.8310   51.6840 H   0  0  0  0  0  0  0  0  0  0  0  0
   50.9680   27.6510   49.5890 H   0  0  0  0  0  0  0  0  0  0  0  0
   51.8050   29.2360   49.3100 H   0  0  0  0  0  0  0  0  0  0  0  0
   50.1070   29.0830   47.5720 H   0  0  0  0  0  0  0  0  0  0  0  0
   48.9380   28.3830   48.7800 H   0  0  0  0  0  0  0  0  0  0  0  0
   45.6380   32.9780   46.7220 C   0  0  0  0  0  0  0  0  0  0  0  0
   45.3160   33.9440   47.1740 H   0  0  0  0  0  0  0  0  0  0  0  0
   44.7280   32.4190   46.3980 H   0  0  0  0  0  0  0  0  0  0  0  0
   46.0640   33.8470   44.4530 C   0  0  0  0  0  3  0  0  0  0  0  0
   46.4990   33.2760   45.5590 C   0  0  0  0  0  3  0  0  0  0  0  0
   47.0280   34.0770   43.3830 C   0  0  0  0  0  0  0  0  0  0  0  0
   46.7490   34.9690   42.3090 C   0  0  0  0  0  0  0  0  0  0  0  0
   47.7160   35.1240   41.3390 C   0  0  0  0  0  0  0  0  0  0  0  0
   48.8760   34.4420   41.4310 N   0  0  0  0  0  0  0  0  0  0  0  0
   49.1170   33.6040   42.4570 C   0  0  0  0  0  0  0  0  0  0  0  0
   48.2250   33.4220   43.4080 N   0  0  0  0  0  0  0  0  0  0  0  0
   45.7960   35.4700   42.3200 H   0  0  0  0  0  0  0  0  0  0  0  0
   47.4760   35.8060   40.5370 H   0  0  0  0  0  0  0  0  0  0  0  0
   50.4100   32.8750   42.5120 C   0  0  0  0  0  3  0  0  0  0  0  0
   50.9060   32.1630   41.2870 C   0  0  0  0  0  2  0  0  0  0  0  0
   50.4730   31.4050   42.5140 C   0  0  0  0  0  2  0  0  0  0  0  0
  1  2  2  0  0  0  0
  2 12  1  0  0  0  0
  2  3  1  0  0  0  0
  3 13  1  0  0  0  0
  4  6  1  0  0  0  0
  4  3  1  0  0  0  0
  5  1  1  0  0  0  0
  5  4  2  0  0  0  0
  6  7  1  0  0  0  0
  7 15  1  0  0  0  0
  7  8  1  0  0  0  0
  8 17  1  0  0  0  0
  8 16  1  0  0  0  0
  9  8  1  0  0  0  0
  9 18  1  0  0  0  0
  9 19  1  0  0  0  0
 10 20  1  0  0  0  0
 10  9  1  0  0  0  0
 11 23  1  0  0  0  0
 11  6  1  0  0  0  0
 11 10  1  0  0  0  0
 14  7  1  0  0  0  0
 21 10  1  0  0  0  0
 22 11  1  0  0  0  0
 24 25  1  0  0  0  0
 24  1  1  0  0  0  0
 26 24  1  0  0  0  0
 27 28  2  0  0  0  0
 28 24  1  0  0  0  0
 29 34  1  0  0  0  0
 29 27  1  0  0  0  0
 30 35  1  0  0  0  0
 30 29  2  0  0  0  0
 31 32  2  0  0  0  0
 31 30  1  0  0  0  0
 32 33  1  0  0  0  0
 33 37  1  0  0  0  0
 33 34  2  0  0  0  0
 36 31  1  0  0  0  0
 37 39  1  0  0  0  0
 38 37  1  0  0  0  0
 38 39  1  0  0  0  0
M  END
>  <minimizedAffinity>
-5.84417677

>  <minimizedRMSD>
0.530326188

$$$$
