
 OpenBabel03252506203D

 27 29  0  0  0  0  0  0  0  0999 V2000
   45.4260   35.1360   42.6960 C   0  0  0  0  0  0  0  0  0  0  0  0
   44.6700   34.8810   41.5400 C   0  0  0  0  0  0  0  0  0  0  0  0
   45.2520   34.0300   40.5710 C   0  0  0  0  0  0  0  0  0  0  0  0
   46.4820   33.5140   40.7990 N   0  0  0  0  0  0  0  0  0  0  0  0
   47.1680   33.7960   41.9380 C   0  0  0  0  0  0  0  0  0  0  0  0
   46.6370   34.6070   42.8850 N   0  0  0  0  0  0  0  0  0  0  0  0
   43.7130   35.3280   41.4410 H   0  0  0  0  0  0  0  0  0  0  0  0
   44.6830   33.8360   39.6940 H   0  0  0  0  0  0  0  0  0  0  0  0
   49.4690   35.7560   41.9260 Cl  0  0  0  0  0  0  0  0  0  0  0  0
   49.6010   34.0330   42.1030 C   0  0  0  0  0  0  0  0  0  0  0  0
   48.4890   33.1930   42.0990 C   0  0  0  0  0  0  0  0  0  0  0  0
   48.5570   31.8300   42.2360 C   0  0  0  0  0  0  0  0  0  0  0  0
   49.8250   31.2880   42.3870 C   0  0  0  0  0  0  0  0  0  0  0  0
   50.9920   32.0290   42.4050 C   0  0  0  0  0  0  0  0  0  0  0  0
   50.8170   33.4040   42.2580 C   0  0  0  0  0  0  0  0  0  0  0  0
   47.6790   31.2170   42.2270 H   0  0  0  0  0  0  0  0  0  0  0  0
   49.8650   30.2050   42.4950 H   0  0  0  0  0  0  0  0  0  0  0  0
   51.9510   31.5830   42.5220 H   0  0  0  0  0  0  0  0  0  0  0  0
   51.7100   34.0130   42.2680 H   0  0  0  0  0  0  0  0  0  0  0  0
   44.8280   36.0150   43.7020 C   0  0  0  0  0  3  0  0  0  0  0  0
   45.2660   37.2440   43.8080 C   0  0  0  0  0  3  0  0  0  0  0  0
   44.7150   38.2030   44.8010 C   0  0  0  0  0  0  0  0  0  0  0  0
   44.7260   37.7010   45.7890 H   0  0  0  0  0  0  0  0  0  0  0  0
   43.6270   38.4020   44.5830 H   0  0  0  0  0  0  0  0  0  0  0  0
   45.5210   39.4740   44.8820 C   0  0  0  0  0  3  0  0  0  0  0  0
   44.8740   40.7980   44.8330 C   0  0  0  0  0  2  0  0  0  0  0  0
   45.2980   40.2540   46.1880 C   0  0  0  0  0  2  0  0  0  0  0  0
  1  6  1  0  0  0  0
  1 20  1  0  0  0  0
  2  1  2  0  0  0  0
  3  4  2  0  0  0  0
  3  2  1  0  0  0  0
  4  5  1  0  0  0  0
  5 11  1  0  0  0  0
  5  6  2  0  0  0  0
  7  2  1  0  0  0  0
  8  3  1  0  0  0  0
  9 10  1  0  0  0  0
 10 15  1  0  0  0  0
 11 10  2  0  0  0  0
 11 12  1  0  0  0  0
 12 13  2  0  0  0  0
 13 14  1  0  0  0  0
 13 17  1  0  0  0  0
 14 18  1  0  0  0  0
 15 19  1  0  0  0  0
 15 14  2  0  0  0  0
 16 12  1  0  0  0  0
 20 21  2  0  0  0  0
 21 22  1  0  0  0  0
 22 25  1  0  0  0  0
 22 23  1  0  0  0  0
 24 22  1  0  0  0  0
 25 27  1  0  0  0  0
 26 25  1  0  0  0  0
 26 27  1  0  0  0  0
M  END
>  <minimizedAffinity>
-3.45926142

>  <minimizedRMSD>
1.44166696

$$$$
