
 OpenBabel03252505043D

 28 30  0  0  1  0  0  0  0  0999 V2000
   36.7080   29.2800   39.8630 C   0  0  2  0  0  0  0  0  0  0  0  0
   37.7470   29.0400   38.8180 C   0  0  0  0  0  0  0  0  0  0  0  0
   38.6600   30.1650   38.5330 C   0  0  0  0  0  0  0  0  0  0  0  0
   37.7370   31.3220   38.1670 C   0  0  0  0  0  0  0  0  0  0  0  0
   36.9390   31.7780   39.3200 C   0  0  0  0  0  0  0  0  0  0  0  0
   36.4230   30.6710   40.1790 C   0  0  0  0  0  0  0  0  0  0  0  0
   35.7640   28.7790   39.5530 H   0  0  0  0  0  0  0  0  0  0  0  0
   37.2270   28.7950   37.8560 H   0  0  0  0  0  0  0  0  0  0  0  0
   38.3570   28.1280   39.0260 H   0  0  0  0  0  0  0  0  0  0  0  0
   39.2690   29.9470   37.6580 H   0  0  0  0  0  0  0  0  0  0  0  0
   39.2520   30.4720   39.4280 H   0  0  0  0  0  0  0  0  0  0  0  0
   37.0310   30.9100   37.4160 H   0  0  0  0  0  0  0  0  0  0  0  0
   38.3070   32.1880   37.8580 H   0  0  0  0  0  0  0  0  0  0  0  0
   36.6570   32.7630   39.6630 H   0  0  0  0  0  0  0  0  0  0  0  0
   38.2410   28.5050   43.1490 C   0  0  0  0  0  0  0  0  0  0  0  0
   37.9600   27.1190   43.2760 C   0  0  0  0  0  0  0  0  0  0  0  0
   37.2520   26.4810   42.2320 C   0  0  0  0  0  0  0  0  0  0  0  0
   36.8790   27.2270   41.1620 N   0  0  0  0  0  0  0  0  0  0  0  0
   37.1600   28.5350   41.0700 C   0  0  0  0  0  0  0  0  0  0  0  0
   37.8440   29.1920   42.0610 N   0  0  0  0  0  0  0  0  0  0  0  0
   38.7820   28.9510   43.9710 H   0  0  0  0  0  0  0  0  0  0  0  0
   38.2560   26.5340   44.1230 H   0  0  0  0  0  0  0  0  0  0  0  0
   36.9250   25.0320   42.2990 C   0  0  0  0  0  3  0  0  0  0  0  0
   36.6810   24.2300   41.1040 C   0  0  0  0  0  2  0  0  0  0  0  0
   38.0290   24.1470   41.7320 C   0  0  0  0  0  2  0  0  0  0  0  0
   35.6390   30.9650   41.3270 N   0  0  0  0  0  0  0  0  0  0  0  0
   34.7000   30.5120   41.2150 H   0  0  0  0  0  0  0  0  0  0  0  0
   36.0550   31.5590   42.1030 H   0  0  0  0  0  0  0  0  0  0  0  0
  1  7  1  6  0  0  0
  1  6  1  0  0  0  0
  1 19  1  0  0  0  0
  2  9  1  0  0  0  0
  2  1  1  0  0  0  0
  3  2  1  0  0  0  0
  3 11  1  0  0  0  0
  4  3  1  0  0  0  0
  4  5  1  0  0  0  0
  5 14  1  0  0  0  0
  5  6  2  0  0  0  0
  6 26  1  0  0  0  0
  8  2  1  0  0  0  0
 10  3  1  0  0  0  0
 12  4  1  0  0  0  0
 13  4  1  0  0  0  0
 15 16  1  0  0  0  0
 15 21  1  0  0  0  0
 16 22  1  0  0  0  0
 17 23  1  0  0  0  0
 17 16  2  0  0  0  0
 18 17  1  0  0  0  0
 19 18  2  0  0  0  0
 19 20  1  0  0  0  0
 20 15  2  0  0  0  0
 24 25  1  0  0  0  0
 24 23  1  0  0  0  0
 25 23  1  0  0  0  0
 26 28  1  0  0  0  0
 27 26  1  0  0  0  0
M  END
>  <minimizedAffinity>
-5.45449257

$$$$

 OpenBabel03252505043D

 28 30  0  0  1  0  0  0  0  0999 V2000
   36.7180   30.0180   39.3560 C   0  0  2  0  0  0  0  0  0  0  0  0
   37.8270   30.1560   38.3660 C   0  0  0  0  0  0  0  0  0  0  0  0
   38.8820   31.1350   38.6970 C   0  0  0  0  0  0  0  0  0  0  0  0
   38.1350   32.4470   38.9030 C   0  0  0  0  0  0  0  0  0  0  0  0
   37.2760   32.4110   40.1010 C   0  0  0  0  0  0  0  0  0  0  0  0
   36.5550   31.1170   40.2950 C   0  0  0  0  0  0  0  0  0  0  0  0
   35.7630   29.8690   38.8050 H   0  0  0  0  0  0  0  0  0  0  0  0
   37.3870   30.4760   37.3870 H   0  0  0  0  0  0  0  0  0  0  0  0
   38.3100   29.1770   38.1280 H   0  0  0  0  0  0  0  0  0  0  0  0
   39.5520   31.2730   37.8510 H   0  0  0  0  0  0  0  0  0  0  0  0
   39.4090   30.8890   39.6510 H   0  0  0  0  0  0  0  0  0  0  0  0
   37.4690   32.5490   38.0200 H   0  0  0  0  0  0  0  0  0  0  0  0
   38.8250   33.2630   39.0750 H   0  0  0  0  0  0  0  0  0  0  0  0
   37.0690   33.1440   40.8680 H   0  0  0  0  0  0  0  0  0  0  0  0
   36.7560   26.4000   40.1630 C   0  0  0  0  0  0  0  0  0  0  0  0
   37.4360   26.3920   41.4080 C   0  0  0  0  0  0  0  0  0  0  0  0
   37.8660   27.6270   41.9450 C   0  0  0  0  0  0  0  0  0  0  0  0
   37.6040   28.7570   41.2410 N   0  0  0  0  0  0  0  0  0  0  0  0
   36.9580   28.7330   40.0660 C   0  0  0  0  0  0  0  0  0  0  0  0
   36.5250   27.5550   39.5100 N   0  0  0  0  0  0  0  0  0  0  0  0
   36.4470   25.4330   39.7910 H   0  0  0  0  0  0  0  0  0  0  0  0
   37.6410   25.4970   41.9610 H   0  0  0  0  0  0  0  0  0  0  0  0
   38.5830   27.6920   43.2460 C   0  0  0  0  0  3  0  0  0  0  0  0
   39.5140   26.6530   43.6770 C   0  0  0  0  0  2  0  0  0  0  0  0
   40.0850   27.8960   43.0860 C   0  0  0  0  0  2  0  0  0  0  0  0
   35.6940   30.9410   41.4110 N   0  0  0  0  0  0  0  0  0  0  0  0
   34.7280   30.7380   41.0570 H   0  0  0  0  0  0  0  0  0  0  0  0
   36.0890   31.0280   42.3930 H   0  0  0  0  0  0  0  0  0  0  0  0
  1  7  1  6  0  0  0
  1 19  1  0  0  0  0
  1  6  1  0  0  0  0
  2  3  1  0  0  0  0
  2  1  1  0  0  0  0
  3  4  1  0  0  0  0
  3 11  1  0  0  0  0
  4 13  1  0  0  0  0
  4  5  1  0  0  0  0
  5  6  2  0  0  0  0
  5 14  1  0  0  0  0
  6 26  1  0  0  0  0
  8  2  1  0  0  0  0
  9  2  1  0  0  0  0
 10  3  1  0  0  0  0
 12  4  1  0  0  0  0
 15 16  1  0  0  0  0
 16 17  2  0  0  0  0
 16 22  1  0  0  0  0
 17 23  1  0  0  0  0
 18 17  1  0  0  0  0
 19 18  2  0  0  0  0
 20 19  1  0  0  0  0
 20 15  2  0  0  0  0
 21 15  1  0  0  0  0
 23 24  1  0  0  0  0
 25 23  1  0  0  0  0
 25 24  1  0  0  0  0
 26 28  1  0  0  0  0
 27 26  1  0  0  0  0
M  END
>  <minimizedAffinity>
-5.14458609

$$$$

 OpenBabel03252505043D

 28 30  0  0  1  0  0  0  0  0999 V2000
   36.0600   29.8000   40.3560 C   0  0  2  0  0  0  0  0  0  0  0  0
   34.8480   29.0400   39.9290 C   0  0  0  0  0  0  0  0  0  0  0  0
   34.9380   28.3390   38.6330 C   0  0  0  0  0  0  0  0  0  0  0  0
   35.3110   29.4290   37.6340 C   0  0  0  0  0  0  0  0  0  0  0  0
   36.6700   29.9500   37.8670 C   0  0  0  0  0  0  0  0  0  0  0  0
   37.0160   30.1270   39.3090 C   0  0  0  0  0  0  0  0  0  0  0  0
   35.7360   30.7400   40.8560 H   0  0  0  0  0  0  0  0  0  0  0  0
   33.9930   29.7600   39.8470 H   0  0  0  0  0  0  0  0  0  0  0  0
   34.5050   28.3140   40.7050 H   0  0  0  0  0  0  0  0  0  0  0  0
   33.9640   27.9510   38.3410 H   0  0  0  0  0  0  0  0  0  0  0  0
   35.7500   27.5710   38.6180 H   0  0  0  0  0  0  0  0  0  0  0  0
   34.5990   30.2590   37.8250 H   0  0  0  0  0  0  0  0  0  0  0  0
   35.3270   29.0390   36.6240 H   0  0  0  0  0  0  0  0  0  0  0  0
   37.4660   30.2280   37.1910 H   0  0  0  0  0  0  0  0  0  0  0  0
   37.9450   28.8710   43.4100 C   0  0  0  0  0  0  0  0  0  0  0  0
   37.8330   27.4560   43.3960 C   0  0  0  0  0  0  0  0  0  0  0  0
   37.1150   26.8520   42.3390 C   0  0  0  0  0  0  0  0  0  0  0  0
   36.5700   27.6560   41.3920 N   0  0  0  0  0  0  0  0  0  0  0  0
   36.6940   28.9910   41.4320 C   0  0  0  0  0  0  0  0  0  0  0  0
   37.3820   29.6170   42.4410 N   0  0  0  0  0  0  0  0  0  0  0  0
   38.5020   29.2890   44.2370 H   0  0  0  0  0  0  0  0  0  0  0  0
   38.2650   26.8240   44.1460 H   0  0  0  0  0  0  0  0  0  0  0  0
   36.9590   25.3750   42.2610 C   0  0  0  0  0  3  0  0  0  0  0  0
   36.8200   24.6690   40.9910 C   0  0  0  0  0  2  0  0  0  0  0  0
   38.1630   24.6830   41.6340 C   0  0  0  0  0  2  0  0  0  0  0  0
   38.2950   30.6200   39.6810 N   0  0  0  0  0  0  0  0  0  0  0  0
   38.1650   31.5100   40.2200 H   0  0  0  0  0  0  0  0  0  0  0  0
   39.1640   30.0810   39.3960 H   0  0  0  0  0  0  0  0  0  0  0  0
  1  7  1  1  0  0  0
  1 19  1  0  0  0  0
  2  1  1  0  0  0  0
  2  9  1  0  0  0  0
  3  2  1  0  0  0  0
  4 12  1  0  0  0  0
  4  5  1  0  0  0  0
  4  3  1  0  0  0  0
  5  6  2  0  0  0  0
  6 26  1  0  0  0  0
  6  1  1  0  0  0  0
  8  2  1  0  0  0  0
 10  3  1  0  0  0  0
 11  3  1  0  0  0  0
 13  4  1  0  0  0  0
 14  5  1  0  0  0  0
 15 21  1  0  0  0  0
 16 15  1  0  0  0  0
 16 22  1  0  0  0  0
 17 16  2  0  0  0  0
 18 19  2  0  0  0  0
 18 17  1  0  0  0  0
 19 20  1  0  0  0  0
 20 15  2  0  0  0  0
 23 17  1  0  0  0  0
 24 25  1  0  0  0  0
 24 23  1  0  0  0  0
 25 23  1  0  0  0  0
 26 27  1  0  0  0  0
 28 26  1  0  0  0  0
M  END
>  <minimizedAffinity>
-5.03058004

$$$$

 OpenBabel03252505043D

 28 30  0  0  1  0  0  0  0  0999 V2000
   36.5860   30.8250   39.6790 C   0  0  2  0  0  0  0  0  0  0  0  0
   35.3600   30.0340   39.9970 C   0  0  0  0  0  0  0  0  0  0  0  0
   35.1510   28.8030   39.2090 C   0  0  0  0  0  0  0  0  0  0  0  0
   35.1690   29.2710   37.7580 C   0  0  0  0  0  0  0  0  0  0  0  0
   36.5020   29.7510   37.3490 C   0  0  0  0  0  0  0  0  0  0  0  0
   37.2040   30.5590   38.3890 C   0  0  0  0  0  0  0  0  0  0  0  0
   36.3420   31.9090   39.7460 H   0  0  0  0  0  0  0  0  0  0  0  0
   34.4660   30.6860   39.8190 H   0  0  0  0  0  0  0  0  0  0  0  0
   35.2860   29.7810   41.0820 H   0  0  0  0  0  0  0  0  0  0  0  0
   34.1640   28.3890   39.4040 H   0  0  0  0  0  0  0  0  0  0  0  0
   35.9810   28.0670   39.3400 H   0  0  0  0  0  0  0  0  0  0  0  0
   34.4770   30.1390   37.7200 H   0  0  0  0  0  0  0  0  0  0  0  0
   34.9440   28.4540   37.0850 H   0  0  0  0  0  0  0  0  0  0  0  0
   37.0690   29.6270   36.4370 H   0  0  0  0  0  0  0  0  0  0  0  0
   39.4890   31.1400   41.9630 C   0  0  0  0  0  0  0  0  0  0  0  0
   39.2520   30.0790   42.8750 C   0  0  0  0  0  0  0  0  0  0  0  0
   38.1030   29.2770   42.6860 C   0  0  0  0  0  0  0  0  0  0  0  0
   37.2860   29.5650   41.6410 N   0  0  0  0  0  0  0  0  0  0  0  0
   37.5370   30.5750   40.7950 C   0  0  0  0  0  0  0  0  0  0  0  0
   38.6410   31.3760   40.9440 N   0  0  0  0  0  0  0  0  0  0  0  0
   40.3780   31.7260   42.1470 H   0  0  0  0  0  0  0  0  0  0  0  0
   39.8990   29.8550   43.6990 H   0  0  0  0  0  0  0  0  0  0  0  0
   37.7940   28.1480   43.6030 C   0  0  0  0  0  3  0  0  0  0  0  0
   36.5630   27.3700   43.4970 C   0  0  0  0  0  2  0  0  0  0  0  0
   37.8010   26.7950   42.9020 C   0  0  0  0  0  2  0  0  0  0  0  0
   38.4990   31.0840   38.1310 N   0  0  0  0  0  0  0  0  0  0  0  0
   38.4550   32.1290   38.2040 H   0  0  0  0  0  0  0  0  0  0  0  0
   39.2970   30.4180   37.9120 H   0  0  0  0  0  0  0  0  0  0  0  0
  1  7  1  1  0  0  0
  1  2  1  0  0  0  0
  1 19  1  0  0  0  0
  2  9  1  0  0  0  0
  3 11  1  0  0  0  0
  3 10  1  0  0  0  0
  3  2  1  0  0  0  0
  4  3  1  0  0  0  0
  5  4  1  0  0  0  0
  5  6  2  0  0  0  0
  6  1  1  0  0  0  0
  8  2  1  0  0  0  0
 12  4  1  0  0  0  0
 13  4  1  0  0  0  0
 14  5  1  0  0  0  0
 15 21  1  0  0  0  0
 15 16  1  0  0  0  0
 16 22  1  0  0  0  0
 17 16  2  0  0  0  0
 17 23  1  0  0  0  0
 18 17  1  0  0  0  0
 19 20  1  0  0  0  0
 19 18  2  0  0  0  0
 20 15  2  0  0  0  0
 24 23  1  0  0  0  0
 25 24  1  0  0  0  0
 25 23  1  0  0  0  0
 26 27  1  0  0  0  0
 26  6  1  0  0  0  0
 28 26  1  0  0  0  0
M  END
>  <minimizedAffinity>
-4.9617362

$$$$

 OpenBabel03252505043D

 28 30  0  0  1  0  0  0  0  0999 V2000
   38.1960   31.4500   38.8930 C   0  0  2  0  0  0  0  0  0  0  0  0
   39.5440   30.9250   38.5230 C   0  0  0  0  0  0  0  0  0  0  0  0
   40.6770   31.3930   39.3450 C   0  0  0  0  0  0  0  0  0  0  0  0
   40.6110   32.9140   39.2550 C   0  0  0  0  0  0  0  0  0  0  0  0
   39.4170   33.4560   39.9280 C   0  0  0  0  0  0  0  0  0  0  0  0
   38.1770   32.6540   39.7090 C   0  0  0  0  0  0  0  0  0  0  0  0
   37.6150   31.6360   37.9610 H   0  0  0  0  0  0  0  0  0  0  0  0
   39.7630   31.2320   37.4680 H   0  0  0  0  0  0  0  0  0  0  0  0
   39.5690   29.8090   38.4810 H   0  0  0  0  0  0  0  0  0  0  0  0
   41.6220   31.0820   38.9040 H   0  0  0  0  0  0  0  0  0  0  0  0
   40.5700   31.1110   40.4210 H   0  0  0  0  0  0  0  0  0  0  0  0
   40.5140   33.1410   38.1720 H   0  0  0  0  0  0  0  0  0  0  0  0
   41.4530   33.3680   39.7620 H   0  0  0  0  0  0  0  0  0  0  0  0
   39.2690   34.3250   40.5530 H   0  0  0  0  0  0  0  0  0  0  0  0
   36.0100   28.5130   39.4770 C   0  0  0  0  0  0  0  0  0  0  0  0
   36.2220   28.2690   40.8590 C   0  0  0  0  0  0  0  0  0  0  0  0
   37.1090   29.1170   41.5600 C   0  0  0  0  0  0  0  0  0  0  0  0
   37.7110   30.1220   40.8750 N   0  0  0  0  0  0  0  0  0  0  0  0
   37.4890   30.3280   39.5690 C   0  0  0  0  0  0  0  0  0  0  0  0
   36.6360   29.5270   38.8510 N   0  0  0  0  0  0  0  0  0  0  0  0
   35.3250   27.8390   38.9820 H   0  0  0  0  0  0  0  0  0  0  0  0
   35.7450   27.4740   41.3960 H   0  0  0  0  0  0  0  0  0  0  0  0
   37.3770   28.9190   43.0090 C   0  0  0  0  0  3  0  0  0  0  0  0
   37.1460   27.6430   43.6800 C   0  0  0  0  0  2  0  0  0  0  0  0
   38.5410   27.9710   43.2740 C   0  0  0  0  0  2  0  0  0  0  0  0
   36.9510   33.0590   40.3020 N   0  0  0  0  0  0  0  0  0  0  0  0
   36.2540   33.2350   39.5380 H   0  0  0  0  0  0  0  0  0  0  0  0
   36.8830   33.1320   41.3590 H   0  0  0  0  0  0  0  0  0  0  0  0
  1  7  1  6  0  0  0
  1 19  1  0  0  0  0
  1  6  1  0  0  0  0
  2  1  1  0  0  0  0
  2  3  1  0  0  0  0
  3 11  1  0  0  0  0
  4  3  1  0  0  0  0
  4 13  1  0  0  0  0
  4  5  1  0  0  0  0
  5 14  1  0  0  0  0
  6  5  2  0  0  0  0
  6 26  1  0  0  0  0
  8  2  1  0  0  0  0
  9  2  1  0  0  0  0
 10  3  1  0  0  0  0
 12  4  1  0  0  0  0
 15 16  1  0  0  0  0
 16 22  1  0  0  0  0
 16 17  2  0  0  0  0
 17 23  1  0  0  0  0
 18 17  1  0  0  0  0
 19 18  2  0  0  0  0
 20 15  2  0  0  0  0
 20 19  1  0  0  0  0
 21 15  1  0  0  0  0
 23 25  1  0  0  0  0
 23 24  1  0  0  0  0
 25 24  1  0  0  0  0
 26 28  1  0  0  0  0
 27 26  1  0  0  0  0
M  END
>  <minimizedAffinity>
-4.77050304

$$$$

 OpenBabel03252505043D

 28 30  0  0  1  0  0  0  0  0999 V2000
   36.6210   27.6310   41.6220 C   0  0  2  0  0  0  0  0  0  0  0  0
   37.1340   26.8540   42.7890 C   0  0  0  0  0  0  0  0  0  0  0  0
   37.9590   25.6700   42.4760 C   0  0  0  0  0  0  0  0  0  0  0  0
   37.0780   24.8200   41.5670 C   0  0  0  0  0  0  0  0  0  0  0  0
   36.8470   25.4650   40.2620 C   0  0  0  0  0  0  0  0  0  0  0  0
   36.6130   26.9380   40.3430 C   0  0  0  0  0  0  0  0  0  0  0  0
   35.5890   27.9800   41.8500 H   0  0  0  0  0  0  0  0  0  0  0  0
   36.2560   26.4870   43.3810 H   0  0  0  0  0  0  0  0  0  0  0  0
   37.6900   27.4950   43.5160 H   0  0  0  0  0  0  0  0  0  0  0  0
   38.1510   25.0900   43.3770 H   0  0  0  0  0  0  0  0  0  0  0  0
   38.8830   25.9320   41.9060 H   0  0  0  0  0  0  0  0  0  0  0  0
   36.0980   24.7550   42.0840 H   0  0  0  0  0  0  0  0  0  0  0  0
   37.5570   23.8780   41.3360 H   0  0  0  0  0  0  0  0  0  0  0  0
   36.8160   25.0740   39.2540 H   0  0  0  0  0  0  0  0  0  0  0  0
   39.4380   30.0060   42.0260 C   0  0  0  0  0  0  0  0  0  0  0  0
   38.9180   31.1740   41.4090 C   0  0  0  0  0  0  0  0  0  0  0  0
   37.6120   31.1220   40.8700 C   0  0  0  0  0  0  0  0  0  0  0  0
   36.9240   29.9570   40.9710 N   0  0  0  0  0  0  0  0  0  0  0  0
   37.4420   28.8700   41.5600 C   0  0  0  0  0  0  0  0  0  0  0  0
   38.7060   28.8790   42.0960 N   0  0  0  0  0  0  0  0  0  0  0  0
   40.4400   30.0920   42.4230 H   0  0  0  0  0  0  0  0  0  0  0  0
   39.4660   32.0920   41.3320 H   0  0  0  0  0  0  0  0  0  0  0  0
   37.0050   32.3080   40.2110 C   0  0  0  0  0  3  0  0  0  0  0  0
   37.8060   33.4300   39.7290 C   0  0  0  0  0  2  0  0  0  0  0  0
   37.3630   32.4140   38.7330 C   0  0  0  0  0  2  0  0  0  0  0  0
   36.3790   27.6900   39.1600 N   0  0  0  0  0  0  0  0  0  0  0  0
   35.4340   28.1400   39.2330 H   0  0  0  0  0  0  0  0  0  0  0  0
   37.1200   27.7090   38.4000 H   0  0  0  0  0  0  0  0  0  0  0  0
  1  7  1  1  0  0  0
  1  2  1  0  0  0  0
  2  8  1  0  0  0  0
  2  9  1  0  0  0  0
  3  2  1  0  0  0  0
  3 10  1  0  0  0  0
  4 12  1  0  0  0  0
  4  3  1  0  0  0  0
  5  6  2  0  0  0  0
  5  4  1  0  0  0  0
  6  1  1  0  0  0  0
 11  3  1  0  0  0  0
 13  4  1  0  0  0  0
 14  5  1  0  0  0  0
 15 20  1  0  0  0  0
 15 21  1  0  0  0  0
 16 15  2  0  0  0  0
 17 18  2  0  0  0  0
 17 16  1  0  0  0  0
 18 19  1  0  0  0  0
 19  1  1  0  0  0  0
 19 20  2  0  0  0  0
 22 16  1  0  0  0  0
 23 17  1  0  0  0  0
 24 23  1  0  0  0  0
 25 24  1  0  0  0  0
 25 23  1  0  0  0  0
 26 27  1  0  0  0  0
 26  6  1  0  0  0  0
 28 26  1  0  0  0  0
M  END
>  <minimizedAffinity>
-4.71053457

$$$$

 OpenBabel03252505043D

 28 30  0  0  1  0  0  0  0  0999 V2000
   37.1690   27.2590   42.5140 C   0  0  2  0  0  0  0  0  0  0  0  0
   38.0420   27.6360   43.6650 C   0  0  0  0  0  0  0  0  0  0  0  0
   39.4640   27.2520   43.5610 C   0  0  0  0  0  0  0  0  0  0  0  0
   39.4370   25.7450   43.3350 C   0  0  0  0  0  0  0  0  0  0  0  0
   38.8630   25.3940   42.0230 C   0  0  0  0  0  0  0  0  0  0  0  0
   37.6770   26.2150   41.6370 C   0  0  0  0  0  0  0  0  0  0  0  0
   36.1740   26.9490   42.9050 H   0  0  0  0  0  0  0  0  0  0  0  0
   37.6410   27.1410   44.5870 H   0  0  0  0  0  0  0  0  0  0  0  0
   37.9830   28.7250   43.9060 H   0  0  0  0  0  0  0  0  0  0  0  0
   39.9760   27.4290   44.5050 H   0  0  0  0  0  0  0  0  0  0  0  0
   39.9700   27.7200   42.6820 H   0  0  0  0  0  0  0  0  0  0  0  0
   38.7560   25.3420   44.1140 H   0  0  0  0  0  0  0  0  0  0  0  0
   40.4390   25.3370   43.3230 H   0  0  0  0  0  0  0  0  0  0  0  0
   39.1390   24.6540   41.2840 H   0  0  0  0  0  0  0  0  0  0  0  0
   35.5120   29.8250   40.4140 C   0  0  0  0  0  0  0  0  0  0  0  0
   36.4850   30.8590   40.4050 C   0  0  0  0  0  0  0  0  0  0  0  0
   37.6880   30.6530   41.1190 C   0  0  0  0  0  0  0  0  0  0  0  0
   37.8500   29.4760   41.7750 N   0  0  0  0  0  0  0  0  0  0  0  0
   36.9130   28.5180   41.7630 C   0  0  0  0  0  0  0  0  0  0  0  0
   35.7310   28.6780   41.0830 N   0  0  0  0  0  0  0  0  0  0  0  0
   34.6090   30.0270   39.8560 H   0  0  0  0  0  0  0  0  0  0  0  0
   36.3520   31.7870   39.8860 H   0  0  0  0  0  0  0  0  0  0  0  0
   38.7490   31.6930   41.1520 C   0  0  0  0  0  3  0  0  0  0  0  0
   40.0710   31.4430   41.7190 C   0  0  0  0  0  2  0  0  0  0  0  0
   39.9260   31.3700   40.2390 C   0  0  0  0  0  2  0  0  0  0  0  0
   37.0240   25.9870   40.3960 N   0  0  0  0  0  0  0  0  0  0  0  0
   36.0280   25.7220   40.5880 H   0  0  0  0  0  0  0  0  0  0  0  0
   37.5700   26.1000   39.4920 H   0  0  0  0  0  0  0  0  0  0  0  0
  1  7  1  1  0  0  0
  1  2  1  0  0  0  0
  2  9  1  0  0  0  0
  2  8  1  0  0  0  0
  3  2  1  0  0  0  0
  3 10  1  0  0  0  0
  4  3  1  0  0  0  0
  4 12  1  0  0  0  0
  5  4  1  0  0  0  0
  6  5  2  0  0  0  0
  6  1  1  0  0  0  0
 11  3  1  0  0  0  0
 13  4  1  0  0  0  0
 14  5  1  0  0  0  0
 15 20  1  0  0  0  0
 16 15  2  0  0  0  0
 16 17  1  0  0  0  0
 17 23  1  0  0  0  0
 17 18  2  0  0  0  0
 19 18  1  0  0  0  0
 19  1  1  0  0  0  0
 20 19  2  0  0  0  0
 21 15  1  0  0  0  0
 22 16  1  0  0  0  0
 23 24  1  0  0  0  0
 25 23  1  0  0  0  0
 25 24  1  0  0  0  0
 26 27  1  0  0  0  0
 26  6  1  0  0  0  0
 28 26  1  0  0  0  0
M  END
>  <minimizedAffinity>
-4.68218899

$$$$

 OpenBabel03252505043D

 28 30  0  0  1  0  0  0  0  0999 V2000
   37.3350   31.9150   38.6000 C   0  0  2  0  0  0  0  0  0  0  0  0
   36.4030   31.0270   39.3560 C   0  0  0  0  0  0  0  0  0  0  0  0
   36.3570   29.6140   38.9320 C   0  0  0  0  0  0  0  0  0  0  0  0
   36.0140   29.6710   37.4480 C   0  0  0  0  0  0  0  0  0  0  0  0
   37.1050   30.2600   36.6510 C   0  0  0  0  0  0  0  0  0  0  0  0
   37.7670   31.4320   37.2970 C   0  0  0  0  0  0  0  0  0  0  0  0
   36.8590   32.9130   38.4760 H   0  0  0  0  0  0  0  0  0  0  0  0
   35.3640   31.4320   39.2430 H   0  0  0  0  0  0  0  0  0  0  0  0
   36.5790   31.0650   40.4580 H   0  0  0  0  0  0  0  0  0  0  0  0
   35.5430   29.0930   39.4330 H   0  0  0  0  0  0  0  0  0  0  0  0
   37.3460   29.1050   39.0340 H   0  0  0  0  0  0  0  0  0  0  0  0
   35.1420   30.3540   37.3730 H   0  0  0  0  0  0  0  0  0  0  0  0
   35.8740   28.6770   37.0450 H   0  0  0  0  0  0  0  0  0  0  0  0
   37.5200   30.0030   35.6860 H   0  0  0  0  0  0  0  0  0  0  0  0
   40.4340   33.3570   40.0370 C   0  0  0  0  0  0  0  0  0  0  0  0
   40.6120   32.5550   41.1950 C   0  0  0  0  0  0  0  0  0  0  0  0
   39.6670   31.5370   41.4560 C   0  0  0  0  0  0  0  0  0  0  0  0
   38.6380   31.3790   40.5860 N   0  0  0  0  0  0  0  0  0  0  0  0
   38.4960   32.1520   39.4990 C   0  0  0  0  0  0  0  0  0  0  0  0
   39.3920   33.1510   39.2090 N   0  0  0  0  0  0  0  0  0  0  0  0
   41.1800   34.1230   39.8770 H   0  0  0  0  0  0  0  0  0  0  0  0
   41.4260   32.6840   41.8800 H   0  0  0  0  0  0  0  0  0  0  0  0
   39.7930   30.6600   42.6500 C   0  0  0  0  0  3  0  0  0  0  0  0
   38.9500   29.4850   42.8490 C   0  0  0  0  0  2  0  0  0  0  0  0
   40.3230   29.2710   42.3140 C   0  0  0  0  0  2  0  0  0  0  0  0
   38.8380   32.0980   36.6420 N   0  0  0  0  0  0  0  0  0  0  0  0
   38.5630   33.0970   36.4860 H   0  0  0  0  0  0  0  0  0  0  0  0
   39.7190   31.5560   36.4040 H   0  0  0  0  0  0  0  0  0  0  0  0
  1  7  1  6  0  0  0
  1  2  1  0  0  0  0
  1 19  1  0  0  0  0
  2  9  1  0  0  0  0
  3 11  1  0  0  0  0
  3  2  1  0  0  0  0
  3 10  1  0  0  0  0
  4  3  1  0  0  0  0
  5  6  2  0  0  0  0
  5  4  1  0  0  0  0
  6  1  1  0  0  0  0
  8  2  1  0  0  0  0
 12  4  1  0  0  0  0
 13  4  1  0  0  0  0
 14  5  1  0  0  0  0
 15 16  1  0  0  0  0
 16 17  2  0  0  0  0
 16 22  1  0  0  0  0
 17 23  1  0  0  0  0
 18 17  1  0  0  0  0
 19 18  2  0  0  0  0
 20 19  1  0  0  0  0
 20 15  2  0  0  0  0
 21 15  1  0  0  0  0
 23 24  1  0  0  0  0
 25 23  1  0  0  0  0
 25 24  1  0  0  0  0
 26  6  1  0  0  0  0
 27 26  1  0  0  0  0
 28 26  1  0  0  0  0
M  END
>  <minimizedAffinity>
-4.67894506

$$$$

 OpenBabel03252505043D

 28 30  0  0  1  0  0  0  0  0999 V2000
   39.1460   28.1420   42.9980 C   0  0  2  0  0  0  0  0  0  0  0  0
   39.7450   27.0170   42.2190 C   0  0  0  0  0  0  0  0  0  0  0  0
   38.8190   26.2480   41.3640 C   0  0  0  0  0  0  0  0  0  0  0  0
   37.7300   25.7670   42.3160 C   0  0  0  0  0  0  0  0  0  0  0  0
   36.9150   26.8830   42.8310 C   0  0  0  0  0  0  0  0  0  0  0  0
   37.7030   28.1050   43.1740 C   0  0  0  0  0  0  0  0  0  0  0  0
   39.6310   28.1830   43.9990 H   0  0  0  0  0  0  0  0  0  0  0  0
   40.1950   26.2900   42.9430 H   0  0  0  0  0  0  0  0  0  0  0  0
   40.6150   27.3440   41.6000 H   0  0  0  0  0  0  0  0  0  0  0  0
   39.3140   25.3650   40.9660 H   0  0  0  0  0  0  0  0  0  0  0  0
   38.3330   26.8810   40.5820 H   0  0  0  0  0  0  0  0  0  0  0  0
   38.2680   25.3220   43.1790 H   0  0  0  0  0  0  0  0  0  0  0  0
   37.0300   25.1180   41.8070 H   0  0  0  0  0  0  0  0  0  0  0  0
   35.8540   26.9850   43.0080 H   0  0  0  0  0  0  0  0  0  0  0  0
   41.1040   31.1490   42.0660 C   0  0  0  0  0  0  0  0  0  0  0  0
   40.3250   31.6810   41.0060 C   0  0  0  0  0  0  0  0  0  0  0  0
   39.1430   30.9980   40.6360 C   0  0  0  0  0  0  0  0  0  0  0  0
   38.8170   29.8690   41.3130 N   0  0  0  0  0  0  0  0  0  0  0  0
   39.5740   29.3910   42.3110 C   0  0  0  0  0  0  0  0  0  0  0  0
   40.7280   30.0230   42.7020 N   0  0  0  0  0  0  0  0  0  0  0  0
   41.9980   31.7030   42.3140 H   0  0  0  0  0  0  0  0  0  0  0  0
   40.5860   32.5730   40.4740 H   0  0  0  0  0  0  0  0  0  0  0  0
   38.2790   31.5000   39.5350 C   0  0  0  0  0  3  0  0  0  0  0  0
   36.8500   31.2060   39.4670 C   0  0  0  0  0  2  0  0  0  0  0  0
   37.2610   32.5330   40.0040 C   0  0  0  0  0  2  0  0  0  0  0  0
   37.0460   29.2590   43.6800 N   0  0  0  0  0  0  0  0  0  0  0  0
   37.4320   29.4710   44.6310 H   0  0  0  0  0  0  0  0  0  0  0  0
   36.3020   29.7340   43.0900 H   0  0  0  0  0  0  0  0  0  0  0  0
  1  6  1  0  0  0  0
  1  7  1  1  0  0  0
  2  8  1  0  0  0  0
  2  1  1  0  0  0  0
  3  2  1  0  0  0  0
  3  4  1  0  0  0  0
  4  5  1  0  0  0  0
  4 12  1  0  0  0  0
  5 14  1  0  0  0  0
  5  6  2  0  0  0  0
  6 26  1  0  0  0  0
  9  2  1  0  0  0  0
 10  3  1  0  0  0  0
 11  3  1  0  0  0  0
 13  4  1  0  0  0  0
 15 21  1  0  0  0  0
 15 20  1  0  0  0  0
 16 15  2  0  0  0  0
 17 16  1  0  0  0  0
 17 18  2  0  0  0  0
 18 19  1  0  0  0  0
 19 20  2  0  0  0  0
 19  1  1  0  0  0  0
 22 16  1  0  0  0  0
 23 25  1  0  0  0  0
 23 17  1  0  0  0  0
 24 23  1  0  0  0  0
 24 25  1  0  0  0  0
 26 27  1  0  0  0  0
 28 26  1  0  0  0  0
M  END
>  <minimizedAffinity>
-4.6489706

$$$$
