
 OpenBabel03252507283D

 37 40  0  0  1  0  0  0  0  0999 V2000
   47.2930   32.1050   46.5550 C   0  0  2  0  0  0  0  0  0  0  0  0
   47.4130   30.7340   46.0200 C   0  0  0  0  0  0  0  0  0  0  0  0
   48.2130   29.8810   46.9480 C   0  0  0  0  0  0  0  0  0  0  0  0
   48.0730   30.1270   48.4100 C   0  0  0  0  0  0  0  0  0  0  0  0
   47.8160   31.5140   48.8300 C   0  0  0  0  0  0  0  0  0  0  0  0
   46.7520   32.1330   47.9110 C   0  0  2  0  0  0  0  0  0  0  0  0
   48.3670   32.4660   46.6260 H   0  0  0  0  0  0  0  0  0  0  0  0
   48.0810   30.8580   45.1030 H   0  0  0  0  0  0  0  0  0  0  0  0
   46.5320   30.2650   45.5870 H   0  0  0  0  0  0  0  0  0  0  0  0
   49.2820   29.7890   46.6540 H   0  0  0  0  0  0  0  0  0  0  0  0
   47.8210   28.8310   46.7910 H   0  0  0  0  0  0  0  0  0  0  0  0
   47.3310   29.4500   48.9260 H   0  0  0  0  0  0  0  0  0  0  0  0
   49.0320   29.8220   48.8870 H   0  0  0  0  0  0  0  0  0  0  0  0
   48.7650   32.0870   48.8110 H   0  0  0  0  0  0  0  0  0  0  0  0
   47.4230   31.5230   49.8640 H   0  0  0  0  0  0  0  0  0  0  0  0
   46.8390   33.1890   48.2560 H   0  0  0  0  0  0  0  0  0  0  0  0
   46.6660   33.0790   45.6590 C   0  0  0  0  0  0  0  0  0  0  0  0
   45.5530   33.7900   46.1160 C   0  0  0  0  0  0  0  0  0  0  0  0
   44.9580   34.7000   45.2300 C   0  0  0  0  0  0  0  0  0  0  0  0
   45.5000   34.8380   43.9730 N   0  0  0  0  0  0  0  0  0  0  0  0
   46.5780   34.1200   43.5970 C   0  0  0  0  0  0  0  0  0  0  0  0
   47.1570   33.2530   44.4170 N   0  0  0  0  0  0  0  0  0  0  0  0
   45.1010   33.7380   47.0530 H   0  0  0  0  0  0  0  0  0  0  0  0
   44.0930   35.3020   45.4770 H   0  0  0  0  0  0  0  0  0  0  0  0
   47.1090   34.3180   42.2430 C   0  0  0  0  0  0  0  0  0  0  0  0
   48.1660   35.1790   42.0330 C   0  0  0  0  0  0  0  0  0  0  0  0
   48.7300   35.4250   40.7980 C   0  0  0  0  0  0  0  0  0  0  0  0
   48.1570   34.7370   39.7490 C   0  0  0  0  0  0  0  0  0  0  0  0
   47.0850   33.8610   39.9460 C   0  0  0  0  0  0  0  0  0  0  0  0
   46.5750   33.6640   41.1960 N   0  0  0  0  0  0  0  0  0  0  0  0
   48.5840   35.6980   42.8910 H   0  0  0  0  0  0  0  0  0  0  0  0
   49.5610   36.1060   40.6540 H   0  0  0  0  0  0  0  0  0  0  0  0
   48.5440   34.8780   38.7480 H   0  0  0  0  0  0  0  0  0  0  0  0
   46.6400   33.3260   39.1220 H   0  0  0  0  0  0  0  0  0  0  0  0
   45.4130   31.5930   48.2350 C   0  0  0  0  0  0  0  0  0  0  0  0
   44.8700   31.3740   49.5850 C   0  0  0  0  0  0  0  0  0  0  0  0
   45.0960   30.2080   48.6260 C   0  0  0  0  0  0  0  0  0  0  0  0
  1  7  1  1  0  0  0
  1  6  1  0  0  0  0
  2  1  1  0  0  0  0
  2  3  1  0  0  0  0
  3  4  1  0  0  0  0
  4  5  1  0  0  0  0
  4 13  1  0  0  0  0
  4 12  1  0  0  0  0
  5 15  1  0  0  0  0
  6 35  1  0  0  0  0
  6 16  1  1  0  0  0
  6  5  1  0  0  0  0
  8  2  1  0  0  0  0
  9  2  1  0  0  0  0
 10  3  1  0  0  0  0
 11  3  1  0  0  0  0
 14  5  1  0  0  0  0
 17 18  1  0  0  0  0
 17  1  1  0  0  0  0
 18 23  1  0  0  0  0
 19 24  1  0  0  0  0
 19 18  2  0  0  0  0
 20 19  1  0  0  0  0
 21 20  2  0  0  0  0
 21 22  1  0  0  0  0
 22 17  2  0  0  0  0
 25 21  1  0  0  0  0
 26 25  1  0  0  0  0
 26 31  1  0  0  0  0
 27 26  2  0  0  0  0
 28 29  2  0  0  0  0
 28 27  1  0  0  0  0
 29 30  1  0  0  0  0
 30 25  2  0  0  0  0
 32 27  1  0  0  0  0
 33 28  1  0  0  0  0
 34 29  1  0  0  0  0
 35 37  1  0  0  0  0
 35 36  1  0  0  0  0
 37 36  1  0  0  0  0
M  END
>  <minimizedAffinity>
-6.39512634

>  <minimizedRMSD>
1.36686838

$$$$
