
 OpenBabel03252501513D

 39 42  0  0  1  0  0  0  0  0999 V2000
   45.6560   34.9000   42.0720 C   0  0  0  0  0  0  0  0  0  0  0  0
   46.8130   34.7460   41.4160 C   0  0  0  0  0  0  0  0  0  0  0  0
   44.0670   33.5600   40.6250 C   0  0  0  0  0  0  0  0  0  0  0  0
   44.3540   34.7090   41.4150 C   0  0  0  0  0  0  0  0  0  0  0  0
   43.3630   35.6750   41.5810 C   0  0  0  0  0  0  0  0  0  0  0  0
   42.1510   35.4830   40.9790 N   0  0  0  0  0  0  0  0  0  0  0  0
   41.9170   34.3830   40.2410 C   0  0  0  0  0  0  0  0  0  0  0  0
   42.8750   33.4630   40.0870 N   0  0  0  0  0  0  0  0  0  0  0  0
   44.8540   32.8300   40.5140 H   0  0  0  0  0  0  0  0  0  0  0  0
   43.5360   36.5680   42.1750 H   0  0  0  0  0  0  0  0  0  0  0  0
   39.7160   33.5730   41.7310 F   0  0  0  0  0  0  0  0  0  0  0  0
   39.5270   33.8000   40.3970 C   0  0  0  0  0  0  0  0  0  0  0  0
   40.6180   34.2060   39.6180 C   0  0  0  0  0  0  0  0  0  0  0  0
   40.4990   34.4500   38.2700 C   0  0  0  0  0  0  0  0  0  0  0  0
   39.2460   34.2770   37.6950 C   0  0  0  0  0  0  0  0  0  0  0  0
   38.1280   33.8670   38.4620 C   0  0  0  0  0  0  0  0  0  0  0  0
   38.2840   33.6280   39.8240 C   0  0  0  0  0  0  0  0  0  0  0  0
   41.3410   34.7640   37.6680 H   0  0  0  0  0  0  0  0  0  0  0  0
   39.1870   34.4760   36.6310 H   0  0  0  0  0  0  0  0  0  0  0  0
   37.2100   33.7610   37.9340 H   0  0  0  0  0  0  0  0  0  0  0  0
   37.4210   33.3160   40.3980 H   0  0  0  0  0  0  0  0  0  0  0  0
   48.1130   34.9520   42.1450 C   0  0  0  0  0  0  0  0  0  0  0  0
   47.9220   34.5900   43.1790 H   0  0  0  0  0  0  0  0  0  0  0  0
   48.3450   36.0350   42.2320 H   0  0  0  0  0  0  0  0  0  0  0  0
   49.1920   34.1880   41.5950 N   0  0  0  0  0  0  0  0  0  0  0  0
   50.3380   34.1880   42.4560 C   0  0  0  0  0  0  0  0  0  0  0  0
   51.0330   32.8660   42.2920 C   0  0  0  0  0  0  0  0  0  0  0  0
   49.8690   31.9650   41.9860 C   0  0  0  0  0  0  0  0  0  0  0  0
   48.8350   32.8440   41.2960 C   0  0  2  0  0  0  0  0  0  0  0  0
   49.9600   34.2350   43.5030 H   0  0  0  0  0  0  0  0  0  0  0  0
   51.0430   35.0160   42.2770 H   0  0  0  0  0  0  0  0  0  0  0  0
   51.7320   32.9650   41.4150 H   0  0  0  0  0  0  0  0  0  0  0  0
   51.5920   32.5530   43.1850 H   0  0  0  0  0  0  0  0  0  0  0  0
   49.4210   31.6660   42.9690 H   0  0  0  0  0  0  0  0  0  0  0  0
   50.1760   31.1100   41.3710 H   0  0  0  0  0  0  0  0  0  0  0  0
   47.8110   32.5370   41.5850 H   0  0  0  0  0  0  0  0  0  0  0  0
   49.1040   32.6230   39.8050 C   0  0  0  0  0  0  0  0  0  0  0  0
   49.0580   31.2990   39.1890 C   0  0  0  0  0  0  0  0  0  0  0  0
   47.9630   32.2450   38.9020 C   0  0  0  0  0  0  0  0  0  0  0  0
  2  1  2  0  0  0  0
  2 22  1  0  0  0  0
  3  4  1  0  0  0  0
  4  5  2  0  0  0  0
  4  1  1  0  0  0  0
  5 10  1  0  0  0  0
  6  5  1  0  0  0  0
  7  6  2  0  0  0  0
  8  7  1  0  0  0  0
  8  3  2  0  0  0  0
  9  3  1  0  0  0  0
 12 11  1  0  0  0  0
 13  7  1  0  0  0  0
 13 12  2  0  0  0  0
 14 13  1  0  0  0  0
 15 14  2  0  0  0  0
 15 16  1  0  0  0  0
 16 17  2  0  0  0  0
 17 12  1  0  0  0  0
 17 21  1  0  0  0  0
 18 14  1  0  0  0  0
 19 15  1  0  0  0  0
 20 16  1  0  0  0  0
 22 24  1  0  0  0  0
 22 23  1  0  0  0  0
 25 22  1  0  0  0  0
 25 26  1  0  0  0  0
 26 30  1  0  0  0  0
 27 26  1  0  0  0  0
 27 33  1  0  0  0  0
 28 27  1  0  0  0  0
 28 34  1  0  0  0  0
 29 36  1  1  0  0  0
 29 25  1  0  0  0  0
 29 28  1  0  0  0  0
 31 26  1  0  0  0  0
 32 27  1  0  0  0  0
 35 28  1  0  0  0  0
 37 29  1  0  0  0  0
 38 37  1  0  0  0  0
 39 38  1  0  0  0  0
 39 37  1  0  0  0  0
M  END
>  <minimizedAffinity>
-5.96542883

>  <minimizedRMSD>
0.737742245

$$$$
