
 OpenBabel03252505463D

 22 24  0  0  1  0  0  0  0  0999 V2000
   45.2720   33.6540   44.2730 C   0  0  1  0  0  0  0  0  0  0  0  0
   46.2420   33.7750   45.4940 C   0  0  1  0  0  0  0  0  0  0  0  0
   45.0630   34.6740   45.2510 C   0  0  0  0  0  0  0  0  0  0  0  0
   44.6530   32.7220   44.2890 H   0  0  0  0  0  0  0  0  0  0  0  0
   47.2530   34.1320   45.3160 H   0  0  0  0  0  0  0  0  0  0  0  0
   45.3310   35.7390   45.0630 H   0  0  0  0  0  0  0  0  0  0  0  0
   44.1830   34.5910   45.9400 H   0  0  0  0  0  0  0  0  0  0  0  0
   45.9810   33.8600   42.9990 C   0  0  0  0  0  0  0  0  0  0  0  0
   47.0000   34.8530   42.9350 C   0  0  0  0  0  0  0  0  0  0  0  0
   47.7040   35.0710   41.7480 C   0  0  0  0  0  0  0  0  0  0  0  0
   47.3560   34.2860   40.6850 N   0  0  0  0  0  0  0  0  0  0  0  0
   46.3720   33.3430   40.7890 C   0  0  0  0  0  0  0  0  0  0  0  0
   45.7080   33.1410   41.9150 N   0  0  0  0  0  0  0  0  0  0  0  0
   47.2340   35.4470   43.8110 H   0  0  0  0  0  0  0  0  0  0  0  0
   48.4710   35.8100   41.6780 H   0  0  0  0  0  0  0  0  0  0  0  0
   46.0420   32.5140   39.5790 C   0  0  0  0  0  3  0  0  0  0  0  0
   44.9740   32.9380   38.6540 C   0  0  0  0  0  2  0  0  0  0  0  0
   46.4470   33.0710   38.2280 C   0  0  0  0  0  2  0  0  0  0  0  0
   46.0210   32.7190   46.5510 C   0  0  0  0  0  0  0  0  0  0  0  0
   47.1020   32.5840   47.3940 F   0  0  0  0  0  0  0  0  0  0  0  0
   44.9290   33.1120   47.3400 F   0  0  0  0  0  0  0  0  0  0  0  0
   45.6670   31.5180   45.9770 F   0  0  0  0  0  0  0  0  0  0  0  0
  1  4  1  1  0  0  0
  1  3  1  0  0  0  0
  1  2  1  0  0  0  0
  2  5  1  6  0  0  0
  2 19  1  0  0  0  0
  3  2  1  0  0  0  0
  3  7  1  0  0  0  0
  6  3  1  0  0  0  0
  8  1  1  0  0  0  0
  9  8  1  0  0  0  0
  9 14  1  0  0  0  0
 10  9  2  0  0  0  0
 11 12  2  0  0  0  0
 11 10  1  0  0  0  0
 12 13  1  0  0  0  0
 13  8  2  0  0  0  0
 15 10  1  0  0  0  0
 16 12  1  0  0  0  0
 17 16  1  0  0  0  0
 18 17  1  0  0  0  0
 18 16  1  0  0  0  0
 19 21  1  0  0  0  0
 19 20  1  0  0  0  0
 22 19  1  0  0  0  0
M  END
>  <minimizedAffinity>
-3.8824358

>  <minimizedRMSD>
6.213552

$$$$
