
 OpenBabel03242522593D

 25 27  0  0  0  0  0  0  0  0999 V2000
   44.1180   32.5700   42.7480 Cl  0  0  0  0  0  0  0  0  0  0  0  0
   45.5620   33.4870   42.4370 C   0  0  0  0  0  0  0  0  0  0  0  0
   46.3060   34.0190   43.4340 C   0  0  0  0  0  0  0  0  0  0  0  0
   47.4300   34.7260   43.0680 C   0  0  0  0  0  0  0  0  0  0  0  0
   47.8010   34.8990   41.7810 C   0  0  0  0  0  0  0  0  0  0  0  0
   47.0570   34.3660   40.7690 C   0  0  0  0  0  0  0  0  0  0  0  0
   45.9300   33.6560   41.1170 C   0  0  0  0  0  0  0  0  0  0  0  0
   48.0360   35.1590   43.8760 H   0  0  0  0  0  0  0  0  0  0  0  0
   47.2980   34.4690   39.7210 H   0  0  0  0  0  0  0  0  0  0  0  0
   45.3310   33.2280   40.3180 H   0  0  0  0  0  0  0  0  0  0  0  0
   44.5970   34.4020   46.7990 C   0  0  0  0  0  0  0  0  0  0  0  0
   44.9860   34.6410   45.4760 C   0  0  0  0  0  0  0  0  0  0  0  0
   45.8690   33.8080   44.8220 C   0  0  0  0  0  0  0  0  0  0  0  0
   46.3460   32.7330   45.5320 N   0  0  0  0  0  0  0  0  0  0  0  0
   45.9550   32.5230   46.8060 C   0  0  0  0  0  0  0  0  0  0  0  0
   45.0970   33.3370   47.4380 N   0  0  0  0  0  0  0  0  0  0  0  0
   43.9130   35.0630   47.2790 H   0  0  0  0  0  0  0  0  0  0  0  0
   44.6080   35.4770   44.9370 H   0  0  0  0  0  0  0  0  0  0  0  0
   46.5120   31.3340   47.5230 C   0  0  0  0  0  0  0  0  0  0  0  0
   47.6390   31.5900   48.5130 C   0  0  0  0  0  0  0  0  0  0  0  0
   46.2990   31.1530   48.9780 C   0  0  0  0  0  0  0  0  0  0  0  0
   49.0290   35.6720   41.4020 C   0  0  0  0  0  0  0  0  0  0  0  0
   50.1200   34.9600   41.7560 F   0  0  0  0  0  0  0  0  0  0  0  0
   49.0040   36.9450   41.9740 F   0  0  0  0  0  0  0  0  0  0  0  0
   48.9990   35.8410   40.0160 F   0  0  0  0  0  0  0  0  0  0  0  0
  2  1  1  0  0  0  0
  2  3  1  0  0  0  0
  3 13  1  0  0  0  0
  4  3  2  0  0  0  0
  4  8  1  0  0  0  0
  5  4  1  0  0  0  0
  6  7  1  0  0  0  0
  6  5  2  0  0  0  0
  7  2  2  0  0  0  0
  9  6  1  0  0  0  0
 10  7  1  0  0  0  0
 11 17  1  0  0  0  0
 11 16  1  0  0  0  0
 12 11  2  0  0  0  0
 13 12  1  0  0  0  0
 13 14  2  0  0  0  0
 14 15  1  0  0  0  0
 15 16  2  0  0  0  0
 15 19  1  0  0  0  0
 18 12  1  0  0  0  0
 19 20  1  0  0  0  0
 19 21  1  0  0  0  0
 20 21  1  0  0  0  0
 22 23  1  0  0  0  0
 22  5  1  0  0  0  0
 22 24  1  0  0  0  0
 25 22  1  0  0  0  0
M  END
>  <minimizedAffinity>
-5.76895475

>  <minimizedRMSD>
0.345385343

$$$$
