
 OpenBabel03252502333D

 18 19  0  0  0  0  0  0  0  0999 V2000
   35.5000   29.2730   39.7740 C   0  0  0  0  0  0  0  0  0  0  0  0
   36.0620   30.5600   39.6870 C   0  0  0  0  0  0  0  0  0  0  0  0
   36.9890   30.9320   40.6810 C   0  0  0  0  0  0  0  0  0  0  0  0
   37.2850   30.0320   41.6550 N   0  0  0  0  0  0  0  0  0  0  0  0
   36.7280   28.8090   41.7090 C   0  0  0  0  0  0  0  0  0  0  0  0
   35.8400   28.4320   40.7710 N   0  0  0  0  0  0  0  0  0  0  0  0
   35.7740   31.2040   38.8890 H   0  0  0  0  0  0  0  0  0  0  0  0
   34.5180   28.8910   38.7170 C   0  0  0  0  0  0  0  0  0  0  0  0
   33.2250   29.1020   39.1200 F   0  0  0  0  0  0  0  0  0  0  0  0
   34.8190   29.5920   37.5520 F   0  0  0  0  0  0  0  0  0  0  0  0
   34.7180   27.5400   38.3820 F   0  0  0  0  0  0  0  0  0  0  0  0
   37.0800   27.8570   42.7910 C   0  0  0  0  0  0  0  0  0  0  0  0
   37.9730   28.4160   43.6750 F   0  0  0  0  0  0  0  0  0  0  0  0
   37.6020   26.6720   42.2500 F   0  0  0  0  0  0  0  0  0  0  0  0
   35.9590   27.4590   43.5040 F   0  0  0  0  0  0  0  0  0  0  0  0
   37.5840   32.2650   40.6070 C   0  0  0  0  0  3  0  0  0  0  0  0
   37.4420   33.1730   39.4550 C   0  0  0  0  0  2  0  0  0  0  0  0
   38.7080   32.3440   39.5610 C   0  0  0  0  0  2  0  0  0  0  0  0
  1  6  1  0  0  0  0
  2  1  2  0  0  0  0
  2  3  1  0  0  0  0
  3  4  2  0  0  0  0
  4  5  1  0  0  0  0
  5 12  1  0  0  0  0
  6  5  2  0  0  0  0
  7  2  1  0  0  0  0
  8  9  1  0  0  0  0
  8  1  1  0  0  0  0
 10  8  1  0  0  0  0
 11  8  1  0  0  0  0
 12 15  1  0  0  0  0
 12 13  1  0  0  0  0
 14 12  1  0  0  0  0
 16  3  1  0  0  0  0
 17 18  1  0  0  0  0
 17 16  1  0  0  0  0
 18 16  1  0  0  0  0
M  END
>  <minimizedAffinity>
-4.9880805

$$$$

 OpenBabel03252502333D

 18 19  0  0  0  0  0  0  0  0999 V2000
   36.6860   28.6860   41.7660 C   0  0  0  0  0  0  0  0  0  0  0  0
   37.3440   29.9300   41.7770 C   0  0  0  0  0  0  0  0  0  0  0  0
   37.0430   30.8330   40.7390 C   0  0  0  0  0  0  0  0  0  0  0  0
   36.1410   30.4540   39.7960 N   0  0  0  0  0  0  0  0  0  0  0  0
   35.5290   29.2560   39.8150 C   0  0  0  0  0  0  0  0  0  0  0  0
   35.8010   28.3770   40.7960 N   0  0  0  0  0  0  0  0  0  0  0  0
   38.0380   30.1470   42.5550 H   0  0  0  0  0  0  0  0  0  0  0  0
   37.0130   27.7370   42.8700 C   0  0  0  0  0  0  0  0  0  0  0  0
   38.0500   28.1920   43.6430 F   0  0  0  0  0  0  0  0  0  0  0  0
   35.8640   27.5140   43.6230 F   0  0  0  0  0  0  0  0  0  0  0  0
   37.3230   26.4840   42.3120 F   0  0  0  0  0  0  0  0  0  0  0  0
   34.5500   28.8830   38.7650 C   0  0  0  0  0  0  0  0  0  0  0  0
   33.2620   29.1340   39.1730 F   0  0  0  0  0  0  0  0  0  0  0  0
   34.7000   27.5310   38.4160 F   0  0  0  0  0  0  0  0  0  0  0  0
   34.7740   29.5800   37.5880 F   0  0  0  0  0  0  0  0  0  0  0  0
   37.7170   32.1310   40.7340 C   0  0  0  0  0  3  0  0  0  0  0  0
   37.5260   33.1580   39.6950 C   0  0  0  0  0  2  0  0  0  0  0  0
   38.7380   32.2520   39.5900 C   0  0  0  0  0  2  0  0  0  0  0  0
  1  2  1  0  0  0  0
  1  8  1  0  0  0  0
  2  7  1  0  0  0  0
  3  2  2  0  0  0  0
  4  5  2  0  0  0  0
  4  3  1  0  0  0  0
  5  6  1  0  0  0  0
  6  1  2  0  0  0  0
  8 10  1  0  0  0  0
  8  9  1  0  0  0  0
 11  8  1  0  0  0  0
 12 13  1  0  0  0  0
 12  5  1  0  0  0  0
 14 12  1  0  0  0  0
 15 12  1  0  0  0  0
 16  3  1  0  0  0  0
 17 16  1  0  0  0  0
 18 17  1  0  0  0  0
 18 16  1  0  0  0  0
M  END
>  <minimizedAffinity>
-4.95730829

$$$$

 OpenBabel03252502333D

 18 19  0  0  0  0  0  0  0  0999 V2000
   35.6820   29.2280   39.8200 C   0  0  0  0  0  0  0  0  0  0  0  0
   36.2250   30.5230   39.7370 C   0  0  0  0  0  0  0  0  0  0  0  0
   37.1350   30.9110   40.7400 C   0  0  0  0  0  0  0  0  0  0  0  0
   37.4330   30.0190   41.7200 N   0  0  0  0  0  0  0  0  0  0  0  0
   36.8960   28.7860   41.7700 C   0  0  0  0  0  0  0  0  0  0  0  0
   36.0240   28.3940   40.8230 N   0  0  0  0  0  0  0  0  0  0  0  0
   35.9370   31.1610   38.9340 H   0  0  0  0  0  0  0  0  0  0  0  0
   34.7190   28.8280   38.7530 C   0  0  0  0  0  0  0  0  0  0  0  0
   34.8430   27.5030   38.4240 F   0  0  0  0  0  0  0  0  0  0  0  0
   33.4290   29.1390   39.1740 F   0  0  0  0  0  0  0  0  0  0  0  0
   34.9320   29.6410   37.6250 F   0  0  0  0  0  0  0  0  0  0  0  0
   37.2490   27.8430   42.8580 C   0  0  0  0  0  0  0  0  0  0  0  0
   36.1450   27.5100   43.6070 F   0  0  0  0  0  0  0  0  0  0  0  0
   38.2480   28.3930   43.6760 F   0  0  0  0  0  0  0  0  0  0  0  0
   37.8020   26.6730   42.3600 F   0  0  0  0  0  0  0  0  0  0  0  0
   37.7100   32.2540   40.6710 C   0  0  0  0  0  3  0  0  0  0  0  0
   37.5720   33.1540   39.5130 C   0  0  0  0  0  2  0  0  0  0  0  0
   38.8490   32.3470   39.6420 C   0  0  0  0  0  2  0  0  0  0  0  0
  1  6  1  0  0  0  0
  2  1  2  0  0  0  0
  2  3  1  0  0  0  0
  3  4  2  0  0  0  0
  4  5  1  0  0  0  0
  5 12  1  0  0  0  0
  6  5  2  0  0  0  0
  7  2  1  0  0  0  0
  8 10  1  0  0  0  0
  8  1  1  0  0  0  0
  9  8  1  0  0  0  0
 11  8  1  0  0  0  0
 12 13  1  0  0  0  0
 12 14  1  0  0  0  0
 15 12  1  0  0  0  0
 16  3  1  0  0  0  0
 17 18  1  0  0  0  0
 17 16  1  0  0  0  0
 18 16  1  0  0  0  0
M  END
>  <minimizedAffinity>
-4.92979336

$$$$

 OpenBabel03252502333D

 18 19  0  0  0  0  0  0  0  0999 V2000
   37.4760   31.2790   40.4630 C   0  0  0  0  0  0  0  0  0  0  0  0
   37.9830   30.5340   41.5430 C   0  0  0  0  0  0  0  0  0  0  0  0
   37.4320   29.2580   41.7660 C   0  0  0  0  0  0  0  0  0  0  0  0
   36.4520   28.8230   40.9320 N   0  0  0  0  0  0  0  0  0  0  0  0
   35.9890   29.5610   39.9070 C   0  0  0  0  0  0  0  0  0  0  0  0
   36.5000   30.7840   39.6750 N   0  0  0  0  0  0  0  0  0  0  0  0
   38.7540   30.9510   42.1490 H   0  0  0  0  0  0  0  0  0  0  0  0
   38.0660   32.6310   40.2360 C   0  0  0  0  0  0  0  0  0  0  0  0
   38.7550   33.0780   41.3330 F   0  0  0  0  0  0  0  0  0  0  0  0
   38.8730   32.5820   39.1020 F   0  0  0  0  0  0  0  0  0  0  0  0
   37.0330   33.5250   39.9010 F   0  0  0  0  0  0  0  0  0  0  0  0
   34.9170   29.0480   39.0200 C   0  0  0  0  0  0  0  0  0  0  0  0
   33.6730   29.2690   39.5620 F   0  0  0  0  0  0  0  0  0  0  0  0
   35.1060   27.6810   38.7660 F   0  0  0  0  0  0  0  0  0  0  0  0
   34.9570   29.6500   37.7710 F   0  0  0  0  0  0  0  0  0  0  0  0
   37.9470   28.4680   42.8850 C   0  0  0  0  0  3  0  0  0  0  0  0
   37.8970   26.9970   42.9510 C   0  0  0  0  0  2  0  0  0  0  0  0
   36.8230   27.7830   43.6800 C   0  0  0  0  0  2  0  0  0  0  0  0
  1  2  1  0  0  0  0
  2  3  2  0  0  0  0
  2  7  1  0  0  0  0
  3 16  1  0  0  0  0
  4  3  1  0  0  0  0
  5  4  2  0  0  0  0
  6  5  1  0  0  0  0
  6  1  2  0  0  0  0
  8  1  1  0  0  0  0
  8  9  1  0  0  0  0
 10  8  1  0  0  0  0
 11  8  1  0  0  0  0
 12 13  1  0  0  0  0
 12  5  1  0  0  0  0
 14 12  1  0  0  0  0
 15 12  1  0  0  0  0
 16 17  1  0  0  0  0
 16 18  1  0  0  0  0
 17 18  1  0  0  0  0
M  END
>  <minimizedAffinity>
-4.83812952

$$$$

 OpenBabel03252502333D

 18 19  0  0  0  0  0  0  0  0999 V2000
   35.8670   29.4800   39.5590 C   0  0  0  0  0  0  0  0  0  0  0  0
   36.4060   28.5720   40.4890 C   0  0  0  0  0  0  0  0  0  0  0  0
   37.4720   29.0220   41.2930 C   0  0  0  0  0  0  0  0  0  0  0  0
   37.9110   30.2970   41.1260 N   0  0  0  0  0  0  0  0  0  0  0  0
   37.3730   31.1400   40.2270 C   0  0  0  0  0  0  0  0  0  0  0  0
   36.3550   30.7320   39.4480 N   0  0  0  0  0  0  0  0  0  0  0  0
   36.0010   27.5890   40.5550 H   0  0  0  0  0  0  0  0  0  0  0  0
   34.7390   28.9920   38.7120 C   0  0  0  0  0  0  0  0  0  0  0  0
   33.5240   29.2010   39.3110 F   0  0  0  0  0  0  0  0  0  0  0  0
   34.8160   29.6080   37.4660 F   0  0  0  0  0  0  0  0  0  0  0  0
   34.9320   27.6240   38.4470 F   0  0  0  0  0  0  0  0  0  0  0  0
   37.8840   32.5250   40.0780 C   0  0  0  0  0  0  0  0  0  0  0  0
   38.5240   32.9450   41.2190 F   0  0  0  0  0  0  0  0  0  0  0  0
   36.8360   33.4000   39.7530 F   0  0  0  0  0  0  0  0  0  0  0  0
   38.7740   32.6280   39.0200 F   0  0  0  0  0  0  0  0  0  0  0  0
   38.0450   28.0920   42.2650 C   0  0  0  0  0  3  0  0  0  0  0  0
   37.2920   27.0060   42.9150 C   0  0  0  0  0  2  0  0  0  0  0  0
   37.4770   28.3040   43.6780 C   0  0  0  0  0  2  0  0  0  0  0  0
  1  2  1  0  0  0  0
  2  7  1  0  0  0  0
  2  3  2  0  0  0  0
  3 16  1  0  0  0  0
  4  3  1  0  0  0  0
  5  4  2  0  0  0  0
  6  1  2  0  0  0  0
  6  5  1  0  0  0  0
  8  9  1  0  0  0  0
  8  1  1  0  0  0  0
 10  8  1  0  0  0  0
 11  8  1  0  0  0  0
 12  5  1  0  0  0  0
 12 13  1  0  0  0  0
 14 12  1  0  0  0  0
 15 12  1  0  0  0  0
 16 17  1  0  0  0  0
 16 18  1  0  0  0  0
 17 18  1  0  0  0  0
M  END
>  <minimizedAffinity>
-4.65678835

$$$$

 OpenBabel03252502333D

 18 19  0  0  0  0  0  0  0  0999 V2000
   37.2830   28.2820   42.0220 C   0  0  0  0  0  0  0  0  0  0  0  0
   36.2880   28.4020   41.0340 C   0  0  0  0  0  0  0  0  0  0  0  0
   36.3260   29.5430   40.2100 C   0  0  0  0  0  0  0  0  0  0  0  0
   37.3150   30.4530   40.4140 N   0  0  0  0  0  0  0  0  0  0  0  0
   38.2520   30.3080   41.3680 C   0  0  0  0  0  0  0  0  0  0  0  0
   38.2350   29.2260   42.1680 N   0  0  0  0  0  0  0  0  0  0  0  0
   35.5490   27.6410   40.9420 H   0  0  0  0  0  0  0  0  0  0  0  0
   37.2330   27.0680   42.8900 C   0  0  0  0  0  0  0  0  0  0  0  0
   36.1120   27.0510   43.6780 F   0  0  0  0  0  0  0  0  0  0  0  0
   37.3160   25.9370   42.0820 F   0  0  0  0  0  0  0  0  0  0  0  0
   38.3960   27.0290   43.6800 F   0  0  0  0  0  0  0  0  0  0  0  0
   39.3140   31.3260   41.5570 C   0  0  0  0  0  0  0  0  0  0  0  0
   38.8230   32.5970   41.3720 F   0  0  0  0  0  0  0  0  0  0  0  0
   40.3850   31.0820   40.6840 F   0  0  0  0  0  0  0  0  0  0  0  0
   39.8660   31.2570   42.8260 F   0  0  0  0  0  0  0  0  0  0  0  0
   35.3000   29.6860   39.1780 C   0  0  0  0  0  3  0  0  0  0  0  0
   34.6960   28.5560   38.4510 C   0  0  0  0  0  2  0  0  0  0  0  0
   35.8250   29.3170   37.7810 C   0  0  0  0  0  2  0  0  0  0  0  0
  1  6  1  0  0  0  0
  1  8  1  0  0  0  0
  2  1  2  0  0  0  0
  3  4  2  0  0  0  0
  3  2  1  0  0  0  0
  4  5  1  0  0  0  0
  5 12  1  0  0  0  0
  5  6  2  0  0  0  0
  7  2  1  0  0  0  0
  8  9  1  0  0  0  0
  8 11  1  0  0  0  0
 10  8  1  0  0  0  0
 12 15  1  0  0  0  0
 13 12  1  0  0  0  0
 14 12  1  0  0  0  0
 16  3  1  0  0  0  0
 17 16  1  0  0  0  0
 18 17  1  0  0  0  0
 18 16  1  0  0  0  0
M  END
>  <minimizedAffinity>
-4.62413216

$$$$

 OpenBabel03252502333D

 18 19  0  0  0  0  0  0  0  0999 V2000
   36.9840   29.0280   41.2780 C   0  0  0  0  0  0  0  0  0  0  0  0
   36.5310   27.7090   41.4680 C   0  0  0  0  0  0  0  0  0  0  0  0
   37.4370   26.7850   42.0240 C   0  0  0  0  0  0  0  0  0  0  0  0
   38.6840   27.2180   42.3440 N   0  0  0  0  0  0  0  0  0  0  0  0
   39.0860   28.4870   42.1500 C   0  0  0  0  0  0  0  0  0  0  0  0
   38.2390   29.3870   41.6190 N   0  0  0  0  0  0  0  0  0  0  0  0
   35.5350   27.4530   41.1890 H   0  0  0  0  0  0  0  0  0  0  0  0
   36.0160   29.9980   40.6870 C   0  0  0  0  0  0  0  0  0  0  0  0
   35.9250   31.1450   41.4310 F   0  0  0  0  0  0  0  0  0  0  0  0
   36.3920   30.2600   39.3730 F   0  0  0  0  0  0  0  0  0  0  0  0
   34.7590   29.3740   40.5820 F   0  0  0  0  0  0  0  0  0  0  0  0
   40.4580   28.9170   42.5130 C   0  0  0  0  0  0  0  0  0  0  0  0
   40.4800   30.2360   42.9010 F   0  0  0  0  0  0  0  0  0  0  0  0
   41.3370   28.7070   41.4390 F   0  0  0  0  0  0  0  0  0  0  0  0
   40.9740   28.1540   43.5490 F   0  0  0  0  0  0  0  0  0  0  0  0
   36.9840   25.4100   42.2290 C   0  0  0  0  0  3  0  0  0  0  0  0
   37.8660   24.2310   42.1710 C   0  0  0  0  0  2  0  0  0  0  0  0
   37.0510   24.5770   40.9390 C   0  0  0  0  0  2  0  0  0  0  0  0
  1  2  2  0  0  0  0
  1  6  1  0  0  0  0
  2  3  1  0  0  0  0
  3 16  1  0  0  0  0
  3  4  2  0  0  0  0
  5  4  1  0  0  0  0
  5 12  1  0  0  0  0
  6  5  2  0  0  0  0
  7  2  1  0  0  0  0
  8  1  1  0  0  0  0
  8  9  1  0  0  0  0
 10  8  1  0  0  0  0
 11  8  1  0  0  0  0
 12 13  1  0  0  0  0
 12 15  1  0  0  0  0
 14 12  1  0  0  0  0
 17 16  1  0  0  0  0
 18 17  1  0  0  0  0
 18 16  1  0  0  0  0
M  END
>  <minimizedAffinity>
-4.58271694

$$$$

 OpenBabel03252502333D

 18 19  0  0  0  0  0  0  0  0999 V2000
   37.8060   31.5730   40.1650 C   0  0  0  0  0  0  0  0  0  0  0  0
   38.8920   31.6310   41.0590 C   0  0  0  0  0  0  0  0  0  0  0  0
   39.0020   30.6010   42.0120 C   0  0  0  0  0  0  0  0  0  0  0  0
   38.0640   29.6180   42.0120 N   0  0  0  0  0  0  0  0  0  0  0  0
   37.0380   29.5920   41.1420 C   0  0  0  0  0  0  0  0  0  0  0  0
   36.9110   30.5660   40.2230 N   0  0  0  0  0  0  0  0  0  0  0  0
   39.5830   32.4380   40.9900 H   0  0  0  0  0  0  0  0  0  0  0  0
   37.6980   32.6710   39.1590 C   0  0  0  0  0  0  0  0  0  0  0  0
   36.9130   33.7000   39.6090 F   0  0  0  0  0  0  0  0  0  0  0  0
   38.9800   33.1030   38.8290 F   0  0  0  0  0  0  0  0  0  0  0  0
   37.1820   32.1390   37.9640 F   0  0  0  0  0  0  0  0  0  0  0  0
   36.0350   28.5000   41.1770 C   0  0  0  0  0  0  0  0  0  0  0  0
   35.9660   27.9270   42.4250 F   0  0  0  0  0  0  0  0  0  0  0  0
   36.3360   27.5300   40.2080 F   0  0  0  0  0  0  0  0  0  0  0  0
   34.7710   28.9580   40.8410 F   0  0  0  0  0  0  0  0  0  0  0  0
   40.1240   30.6440   42.9500 C   0  0  0  0  0  3  0  0  0  0  0  0
   41.4650   31.1530   42.6130 C   0  0  0  0  0  2  0  0  0  0  0  0
   41.2380   29.6540   42.5710 C   0  0  0  0  0  2  0  0  0  0  0  0
  1  6  2  0  0  0  0
  1  2  1  0  0  0  0
  2  3  2  0  0  0  0
  3 16  1  0  0  0  0
  4  3  1  0  0  0  0
  5 12  1  0  0  0  0
  5  4  2  0  0  0  0
  6  5  1  0  0  0  0
  7  2  1  0  0  0  0
  8  9  1  0  0  0  0
  8  1  1  0  0  0  0
 10  8  1  0  0  0  0
 11  8  1  0  0  0  0
 12 13  1  0  0  0  0
 14 12  1  0  0  0  0
 15 12  1  0  0  0  0
 17 16  1  0  0  0  0
 18 17  1  0  0  0  0
 18 16  1  0  0  0  0
M  END
>  <minimizedAffinity>
-4.48610353

$$$$

 OpenBabel03252502333D

 18 19  0  0  0  0  0  0  0  0999 V2000
   35.4720   29.2900   39.1070 C   0  0  0  0  0  0  0  0  0  0  0  0
   35.6530   28.5280   40.2760 C   0  0  0  0  0  0  0  0  0  0  0  0
   36.5660   29.0150   41.2320 C   0  0  0  0  0  0  0  0  0  0  0  0
   37.2110   30.1820   40.9720 N   0  0  0  0  0  0  0  0  0  0  0  0
   37.0140   30.8860   39.8430 C   0  0  0  0  0  0  0  0  0  0  0  0
   36.1480   30.4410   38.9150 N   0  0  0  0  0  0  0  0  0  0  0  0
   35.1060   27.6230   40.4010 H   0  0  0  0  0  0  0  0  0  0  0  0
   34.5020   28.7640   38.1010 C   0  0  0  0  0  0  0  0  0  0  0  0
   34.6850   29.3360   36.8690 F   0  0  0  0  0  0  0  0  0  0  0  0
   34.6170   27.3780   38.0510 F   0  0  0  0  0  0  0  0  0  0  0  0
   33.1960   28.9980   38.5670 F   0  0  0  0  0  0  0  0  0  0  0  0
   37.7400   32.1560   39.5990 C   0  0  0  0  0  0  0  0  0  0  0  0
   37.2470   32.8070   38.4930 F   0  0  0  0  0  0  0  0  0  0  0  0
   39.1140   31.9130   39.4520 F   0  0  0  0  0  0  0  0  0  0  0  0
   37.6450   33.0140   40.6830 F   0  0  0  0  0  0  0  0  0  0  0  0
   36.7680   28.2370   42.4540 C   0  0  0  0  0  3  0  0  0  0  0  0
   37.6980   28.6180   43.5320 C   0  0  0  0  0  2  0  0  0  0  0  0
   38.1650   27.5970   42.5120 C   0  0  0  0  0  2  0  0  0  0  0  0
  1  2  1  0  0  0  0
  2  7  1  0  0  0  0
  2  3  2  0  0  0  0
  3 16  1  0  0  0  0
  4  3  1  0  0  0  0
  5  4  2  0  0  0  0
  6  1  2  0  0  0  0
  6  5  1  0  0  0  0
  8 11  1  0  0  0  0
  8  1  1  0  0  0  0
  9  8  1  0  0  0  0
 10  8  1  0  0  0  0
 12  5  1  0  0  0  0
 12 15  1  0  0  0  0
 13 12  1  0  0  0  0
 14 12  1  0  0  0  0
 16 18  1  0  0  0  0
 16 17  1  0  0  0  0
 18 17  1  0  0  0  0
M  END
>  <minimizedAffinity>
-4.45115852

$$$$
