
 OpenBabel03242518213D

 33 36  0  0  0  0  0  0  0  0999 V2000
   45.0460   33.8560   43.8000 C   0  0  0  0  0  0  0  0  0  0  0  0
   45.0510   35.1830   44.1590 C   0  0  0  0  0  0  0  0  0  0  0  0
   44.1890   35.8710   43.3380 C   0  0  0  0  0  0  0  0  0  0  0  0
   43.6750   34.8990   42.4810 C   0  0  0  0  0  0  0  0  0  0  0  0
   44.2090   33.7630   42.7990 O   0  0  0  0  0  0  0  0  0  0  0  0
   45.6390   35.6420   44.9670 H   0  0  0  0  0  0  0  0  0  0  0  0
   43.9850   36.9270   43.3820 H   0  0  0  0  0  0  0  0  0  0  0  0
   42.7050   35.1580   41.4190 C   0  0  0  0  0  0  0  0  0  0  0  0
   43.0530   34.9770   40.0990 C   0  0  0  0  0  0  0  0  0  0  0  0
   42.1770   35.2060   39.0510 C   0  0  0  0  0  0  0  0  0  0  0  0
   40.9100   35.6390   39.4510 C   0  0  0  0  0  0  0  0  0  0  0  0
   40.5500   35.8240   40.7500 C   0  0  0  0  0  0  0  0  0  0  0  0
   41.4570   35.5790   41.7220 N   0  0  0  0  0  0  0  0  0  0  0  0
   44.0460   34.6380   39.7930 H   0  0  0  0  0  0  0  0  0  0  0  0
   42.4380   35.0680   38.0120 H   0  0  0  0  0  0  0  0  0  0  0  0
   40.1470   35.8480   38.7130 H   0  0  0  0  0  0  0  0  0  0  0  0
   39.5800   36.1550   41.0790 H   0  0  0  0  0  0  0  0  0  0  0  0
   45.8580   32.7840   44.4610 C   0  0  0  0  0  0  0  0  0  0  0  0
   45.2580   31.8660   44.4370 H   0  0  0  0  0  0  0  0  0  0  0  0
   46.0200   33.0580   45.5120 H   0  0  0  0  0  0  0  0  0  0  0  0
   48.9060   31.1660   43.2020 C   0  0  0  0  0  0  0  0  0  0  0  0
   49.5060   32.1590   42.4220 C   0  0  0  0  0  0  0  0  0  0  0  0
   48.8530   33.3680   42.3420 C   0  0  0  0  0  0  0  0  0  0  0  0
   47.6870   33.5540   43.0000 N   0  0  0  0  0  0  0  0  0  0  0  0
   47.1400   32.5700   43.7430 C   0  0  0  0  0  0  0  0  0  0  0  0
   47.7650   31.3780   43.8340 N   0  0  0  0  0  0  0  0  0  0  0  0
   49.3650   30.1880   43.3100 H   0  0  0  0  0  0  0  0  0  0  0  0
   50.7250   31.8450   41.7830 N   0  0  0  0  0  0  0  0  0  0  0  0
   50.7540   31.4350   40.8130 H   0  0  0  0  0  0  0  0  0  0  0  0
   51.4530   32.1090   42.4720 H   0  0  0  0  0  0  0  0  0  0  0  0
   49.4830   34.4390   41.5120 C   0  0  0  0  0  0  0  0  0  0  0  0
   48.6250   35.4130   40.7920 C   0  0  0  0  0  0  0  0  0  0  0  0
   49.3360   35.8940   42.0050 C   0  0  0  0  0  0  0  0  0  0  0  0
  1  2  2  0  0  0  0
  1 18  1  0  0  0  0
  2  6  1  0  0  0  0
  3  7  1  0  0  0  0
  3  2  1  0  0  0  0
  4  5  1  0  0  0  0
  4  3  2  0  0  0  0
  5  1  1  0  0  0  0
  8 13  1  0  0  0  0
  8  4  1  0  0  0  0
  9  8  2  0  0  0  0
 10 11  2  0  0  0  0
 10  9  1  0  0  0  0
 11 12  1  0  0  0  0
 12 17  1  0  0  0  0
 12 13  2  0  0  0  0
 14  9  1  0  0  0  0
 15 10  1  0  0  0  0
 16 11  1  0  0  0  0
 18 20  1  0  0  0  0
 19 18  1  0  0  0  0
 21 27  1  0  0  0  0
 21 26  1  0  0  0  0
 22 21  2  0  0  0  0
 23 22  1  0  0  0  0
 23 24  2  0  0  0  0
 24 25  1  0  0  0  0
 25 26  2  0  0  0  0
 25 18  1  0  0  0  0
 28 22  1  0  0  0  0
 28 30  1  0  0  0  0
 29 28  1  0  0  0  0
 31 33  1  0  0  0  0
 31 23  1  0  0  0  0
 32 31  1  0  0  0  0
 32 33  1  0  0  0  0
M  END
>  <minimizedAffinity>
-5.46681976

>  <minimizedRMSD>
1.58999932

$$$$
