
 OpenBabel03252505463D

 22 24  0  0  1  0  0  0  0  0999 V2000
   45.1840   33.5550   43.7090 C   0  0  1  0  0  0  0  0  0  0  0  0
   45.8420   34.9410   43.4080 C   0  0  1  0  0  0  0  0  0  0  0  0
   45.6960   33.8320   42.4040 C   0  0  0  0  0  0  0  0  0  0  0  0
   44.0850   33.6190   43.9100 H   0  0  0  0  0  0  0  0  0  0  0  0
   46.8100   35.1600   43.8500 H   0  0  0  0  0  0  0  0  0  0  0  0
   46.6620   33.4110   42.0450 H   0  0  0  0  0  0  0  0  0  0  0  0
   44.9740   33.9740   41.5590 H   0  0  0  0  0  0  0  0  0  0  0  0
   45.9250   32.8230   44.7510 C   0  0  0  0  0  0  0  0  0  0  0  0
   46.0130   33.3890   46.0540 C   0  0  0  0  0  0  0  0  0  0  0  0
   46.6960   32.7200   47.0730 C   0  0  0  0  0  0  0  0  0  0  0  0
   47.2560   31.5200   46.7400 N   0  0  0  0  0  0  0  0  0  0  0  0
   47.1470   31.0100   45.4760 C   0  0  0  0  0  0  0  0  0  0  0  0
   46.4990   31.6490   44.5140 N   0  0  0  0  0  0  0  0  0  0  0  0
   45.5490   34.3470   46.2620 H   0  0  0  0  0  0  0  0  0  0  0  0
   46.7750   33.1270   48.0570 H   0  0  0  0  0  0  0  0  0  0  0  0
   47.7860   29.6830   45.1800 C   0  0  0  0  0  3  0  0  0  0  0  0
   49.1210   29.6220   44.5550 C   0  0  0  0  0  2  0  0  0  0  0  0
   48.9630   29.2730   46.0450 C   0  0  0  0  0  2  0  0  0  0  0  0
   44.8430   36.0640   43.2520 C   0  0  0  0  0  0  0  0  0  0  0  0
   45.4440   37.3040   43.2440 F   0  0  0  0  0  0  0  0  0  0  0  0
   44.1980   35.9090   42.0160 F   0  0  0  0  0  0  0  0  0  0  0  0
   43.8590   35.9800   44.2120 F   0  0  0  0  0  0  0  0  0  0  0  0
  1  4  1  1  0  0  0
  1  8  1  0  0  0  0
  2  1  1  0  0  0  0
  2  5  1  1  0  0  0
  3  2  1  0  0  0  0
  3  1  1  0  0  0  0
  6  3  1  0  0  0  0
  7  3  1  0  0  0  0
  8  9  1  0  0  0  0
  9 14  1  0  0  0  0
  9 10  2  0  0  0  0
 10 15  1  0  0  0  0
 11 10  1  0  0  0  0
 12 11  2  0  0  0  0
 13  8  2  0  0  0  0
 13 12  1  0  0  0  0
 16 12  1  0  0  0  0
 16 18  1  0  0  0  0
 17 16  1  0  0  0  0
 17 18  1  0  0  0  0
 19  2  1  0  0  0  0
 19 22  1  0  0  0  0
 20 19  1  0  0  0  0
 21 19  1  0  0  0  0
M  END
>  <minimizedAffinity>
-4.07540226

>  <minimizedRMSD>
2.81237006

$$$$
