
 OpenBabel03252507343D

 43 46  0  0  1  0  0  0  0  0999 V2000
   38.2110   31.8200   40.7970 C   0  0  2  0  0  0  0  0  0  0  0  0
   37.3950   32.8370   39.9450 C   0  0  0  0  0  0  0  0  0  0  0  0
   38.0760   34.1610   39.9640 C   0  0  0  0  0  0  0  0  0  0  0  0
   39.5550   34.1420   39.7760 C   0  0  0  0  0  0  0  0  0  0  0  0
   40.2230   33.0330   40.4150 C   0  0  0  0  0  0  0  0  0  0  0  0
   39.5230   31.6730   40.1970 C   0  0  2  0  0  0  0  0  0  0  0  0
   38.2570   32.3140   41.7910 H   0  0  0  0  0  0  0  0  0  0  0  0
   36.4200   32.8950   40.4720 H   0  0  0  0  0  0  0  0  0  0  0  0
   37.1810   32.4250   38.9520 H   0  0  0  0  0  0  0  0  0  0  0  0
   37.6920   34.7010   40.8500 H   0  0  0  0  0  0  0  0  0  0  0  0
   37.6470   34.7400   39.0940 H   0  0  0  0  0  0  0  0  0  0  0  0
   39.8430   34.9830   40.5280 H   0  0  0  0  0  0  0  0  0  0  0  0
   39.9760   34.6790   38.9270 H   0  0  0  0  0  0  0  0  0  0  0  0
   40.3830   33.0530   41.5120 H   0  0  0  0  0  0  0  0  0  0  0  0
   41.2480   32.9080   39.9850 H   0  0  0  0  0  0  0  0  0  0  0  0
   40.2610   30.9910   40.6210 H   0  0  0  0  0  0  0  0  0  0  0  0
   37.5110   30.5590   40.9360 C   0  0  0  0  0  0  0  0  0  0  0  0
   36.1690   30.5290   40.5690 C   0  0  0  0  0  0  0  0  0  0  0  0
   35.4400   29.3270   40.7120 C   0  0  0  0  0  0  0  0  0  0  0  0
   36.1310   28.2320   41.2170 N   0  0  0  0  0  0  0  0  0  0  0  0
   37.4230   28.3300   41.5490 C   0  0  0  0  0  0  0  0  0  0  0  0
   38.1010   29.4710   41.4120 N   0  0  0  0  0  0  0  0  0  0  0  0
   35.4690   31.2110   40.1410 H   0  0  0  0  0  0  0  0  0  0  0  0
   34.4290   29.1150   40.4930 H   0  0  0  0  0  0  0  0  0  0  0  0
   38.1000   27.1330   42.0580 C   0  0  0  0  0  0  0  0  0  0  0  0
   39.0550   27.2220   43.0460 C   0  0  0  0  0  0  0  0  0  0  0  0
   39.7380   26.1610   43.5850 C   0  0  0  0  0  0  0  0  0  0  0  0
   39.3960   24.9440   43.0520 C   0  0  0  0  0  0  0  0  0  0  0  0
   38.4420   24.8180   42.0590 C   0  0  0  0  0  0  0  0  0  0  0  0
   37.7920   25.9230   41.5620 N   0  0  0  0  0  0  0  0  0  0  0  0
   39.2550   28.2410   43.4040 H   0  0  0  0  0  0  0  0  0  0  0  0
   40.4830   26.2700   44.3600 H   0  0  0  0  0  0  0  0  0  0  0  0
   39.8640   24.0280   43.3910 H   0  0  0  0  0  0  0  0  0  0  0  0
   38.0360   23.5190   41.4500 C   0  0  0  0  0  3  0  0  0  0  0  0
   37.1610   23.5060   40.2530 C   0  0  0  0  0  2  0  0  0  0  0  0
   38.6530   23.2480   40.0730 C   0  0  0  0  0  2  0  0  0  0  0  0
   39.3870   31.4450   38.7560 N   0  0  0  0  0  0  0  0  0  0  0  0
   40.3480   31.3210   37.7360 C   0  0  0  0  0  0  0  0  0  0  0  0
   41.0390   30.2550   37.5540 O   0  0  0  0  0  0  0  0  0  0  0  0
   40.4920   32.4740   36.9080 N   0  0  0  0  0  0  0  0  0  0  0  0
   38.4130   31.4090   38.2690 H   0  0  0  0  0  0  0  0  0  0  0  0
   39.8000   33.0110   36.3490 H   0  0  0  0  0  0  0  0  0  0  0  0
   41.3640   33.0320   36.6900 H   0  0  0  0  0  0  0  0  0  0  0  0
  1 17  1  0  0  0  0
  1  7  1  1  0  0  0
  2  3  1  0  0  0  0
  2  8  1  0  0  0  0
  2  1  1  0  0  0  0
  3 10  1  0  0  0  0
  4  3  1  0  0  0  0
  4  5  1  0  0  0  0
  4 12  1  0  0  0  0
  5 14  1  0  0  0  0
  6  5  1  0  0  0  0
  6 16  1  1  0  0  0
  6  1  1  0  0  0  0
  9  2  1  0  0  0  0
 11  3  1  0  0  0  0
 13  4  1  0  0  0  0
 15  5  1  0  0  0  0
 17 22  1  0  0  0  0
 18 19  1  0  0  0  0
 18 17  2  0  0  0  0
 19 20  2  0  0  0  0
 20 21  1  0  0  0  0
 21 25  1  0  0  0  0
 22 21  2  0  0  0  0
 23 18  1  0  0  0  0
 24 19  1  0  0  0  0
 25 26  1  0  0  0  0
 26 31  1  0  0  0  0
 26 27  2  0  0  0  0
 27 32  1  0  0  0  0
 28 33  1  0  0  0  0
 28 27  1  0  0  0  0
 29 28  2  0  0  0  0
 30 25  2  0  0  0  0
 30 29  1  0  0  0  0
 34 29  1  0  0  0  0
 35 34  1  0  0  0  0
 36 35  1  0  0  0  0
 36 34  1  0  0  0  0
 37  6  1  0  0  0  0
 38 37  1  0  0  0  0
 39 38  2  0  0  0  0
 40 38  1  0  0  0  0
 41 37  1  0  0  0  0
 42 40  1  0  0  0  0
 43 40  1  0  0  0  0
M  END
>  <minimizedAffinity>
-6.6261034

$$$$

 OpenBabel03252507343D

 43 46  0  0  1  0  0  0  0  0999 V2000
   36.5090   29.3840   37.7230 C   0  0  2  0  0  0  0  0  0  0  0  0
   37.2040   28.1010   37.1770 C   0  0  0  0  0  0  0  0  0  0  0  0
   36.8550   27.9210   35.7400 C   0  0  0  0  0  0  0  0  0  0  0  0
   36.9120   29.1450   34.8910 C   0  0  0  0  0  0  0  0  0  0  0  0
   36.4560   30.3470   35.5470 C   0  0  0  0  0  0  0  0  0  0  0  0
   37.0090   30.5250   36.9790 C   0  0  2  0  0  0  0  0  0  0  0  0
   35.4350   29.1870   37.5190 H   0  0  0  0  0  0  0  0  0  0  0  0
   36.7650   27.2870   37.7870 H   0  0  0  0  0  0  0  0  0  0  0  0
   38.2760   28.1140   37.4100 H   0  0  0  0  0  0  0  0  0  0  0  0
   35.9150   27.3380   35.7150 H   0  0  0  0  0  0  0  0  0  0  0  0
   37.6230   27.2030   35.3250 H   0  0  0  0  0  0  0  0  0  0  0  0
   35.9820   28.9420   34.2210 H   0  0  0  0  0  0  0  0  0  0  0  0
   37.5930   29.1550   34.0410 H   0  0  0  0  0  0  0  0  0  0  0  0
   35.3690   30.5150   35.6810 H   0  0  0  0  0  0  0  0  0  0  0  0
   36.8110   31.2460   34.9830 H   0  0  0  0  0  0  0  0  0  0  0  0
   36.6690   31.5360   37.2070 H   0  0  0  0  0  0  0  0  0  0  0  0
   36.6930   29.5200   39.1540 C   0  0  0  0  0  0  0  0  0  0  0  0
   36.1830   30.6650   39.7590 C   0  0  0  0  0  0  0  0  0  0  0  0
   36.3620   30.8510   41.1480 C   0  0  0  0  0  0  0  0  0  0  0  0
   37.0480   29.8530   41.8300 N   0  0  0  0  0  0  0  0  0  0  0  0
   37.5110   28.7760   41.1860 C   0  0  0  0  0  0  0  0  0  0  0  0
   37.3380   28.6120   39.8740 N   0  0  0  0  0  0  0  0  0  0  0  0
   35.6130   31.5140   39.4520 H   0  0  0  0  0  0  0  0  0  0  0  0
   36.0540   31.6440   41.7730 H   0  0  0  0  0  0  0  0  0  0  0  0
   38.2100   27.7490   41.9660 C   0  0  0  0  0  0  0  0  0  0  0  0
   39.1580   28.0910   42.9040 C   0  0  0  0  0  0  0  0  0  0  0  0
   39.8600   27.2030   43.6800 C   0  0  0  0  0  0  0  0  0  0  0  0
   39.5440   25.8870   43.4520 C   0  0  0  0  0  0  0  0  0  0  0  0
   38.5980   25.5090   42.5190 C   0  0  0  0  0  0  0  0  0  0  0  0
   37.9280   26.4500   41.7730 N   0  0  0  0  0  0  0  0  0  0  0  0
   39.3360   29.1700   43.0090 H   0  0  0  0  0  0  0  0  0  0  0  0
   40.5980   27.5090   44.4070 H   0  0  0  0  0  0  0  0  0  0  0  0
   40.0290   25.0880   44.0000 H   0  0  0  0  0  0  0  0  0  0  0  0
   38.2210   24.0940   42.2370 C   0  0  0  0  0  3  0  0  0  0  0  0
   37.2210   23.7920   41.1840 C   0  0  0  0  0  2  0  0  0  0  0  0
   38.6990   23.5730   40.8770 C   0  0  0  0  0  2  0  0  0  0  0  0
   38.4720   30.4790   36.9240 N   0  0  0  0  0  0  0  0  0  0  0  0
   39.4550   31.2240   37.6000 C   0  0  0  0  0  0  0  0  0  0  0  0
   39.7760   31.0090   38.8230 O   0  0  0  0  0  0  0  0  0  0  0  0
   40.0790   32.2390   36.8140 N   0  0  0  0  0  0  0  0  0  0  0  0
   39.0010   29.8310   36.2250 H   0  0  0  0  0  0  0  0  0  0  0  0
   40.5740   32.1980   35.9020 H   0  0  0  0  0  0  0  0  0  0  0  0
   40.1660   33.2750   37.0130 H   0  0  0  0  0  0  0  0  0  0  0  0
  1  7  1  6  0  0  0
  1 17  1  0  0  0  0
  2  9  1  0  0  0  0
  2  1  1  0  0  0  0
  2  8  1  0  0  0  0
  3  2  1  0  0  0  0
  4  5  1  0  0  0  0
  4  3  1  0  0  0  0
  5 14  1  0  0  0  0
  5  6  1  0  0  0  0
  6 16  1  1  0  0  0
  6  1  1  0  0  0  0
 10  3  1  0  0  0  0
 11  3  1  0  0  0  0
 12  4  1  0  0  0  0
 13  4  1  0  0  0  0
 15  5  1  0  0  0  0
 17 18  2  0  0  0  0
 17 22  1  0  0  0  0
 18 19  1  0  0  0  0
 19 24  1  0  0  0  0
 19 20  2  0  0  0  0
 21 20  1  0  0  0  0
 21 25  1  0  0  0  0
 22 21  2  0  0  0  0
 23 18  1  0  0  0  0
 25 26  1  0  0  0  0
 26 31  1  0  0  0  0
 26 27  2  0  0  0  0
 27 32  1  0  0  0  0
 28 27  1  0  0  0  0
 28 33  1  0  0  0  0
 29 28  2  0  0  0  0
 30 25  2  0  0  0  0
 30 29  1  0  0  0  0
 34 29  1  0  0  0  0
 35 34  1  0  0  0  0
 36 35  1  0  0  0  0
 36 34  1  0  0  0  0
 37  6  1  0  0  0  0
 37 38  1  0  0  0  0
 38 39  2  0  0  0  0
 40 43  1  0  0  0  0
 40 38  1  0  0  0  0
 41 37  1  0  0  0  0
 42 40  1  0  0  0  0
M  END
>  <minimizedAffinity>
-6.16072893

$$$$

 OpenBabel03252507343D

 43 46  0  0  1  0  0  0  0  0999 V2000
   39.3030   31.9580   39.3640 C   0  0  2  0  0  0  0  0  0  0  0  0
   40.2490   31.1170   38.4560 C   0  0  0  0  0  0  0  0  0  0  0  0
   41.0170   32.0260   37.5610 C   0  0  0  0  0  0  0  0  0  0  0  0
   41.5860   33.2490   38.1960 C   0  0  0  0  0  0  0  0  0  0  0  0
   40.7380   33.8500   39.1970 C   0  0  0  0  0  0  0  0  0  0  0  0
   40.1190   32.8340   40.1830 C   0  0  2  0  0  0  0  0  0  0  0  0
   38.6930   32.5210   38.6260 H   0  0  0  0  0  0  0  0  0  0  0  0
   39.5530   30.4880   37.8650 H   0  0  0  0  0  0  0  0  0  0  0  0
   40.8480   30.4240   39.0600 H   0  0  0  0  0  0  0  0  0  0  0  0
   40.3970   32.1760   36.6570 H   0  0  0  0  0  0  0  0  0  0  0  0
   41.8920   31.4200   37.1840 H   0  0  0  0  0  0  0  0  0  0  0  0
   41.4040   34.0030   37.3290 H   0  0  0  0  0  0  0  0  0  0  0  0
   42.6660   33.3910   38.1700 H   0  0  0  0  0  0  0  0  0  0  0  0
   39.8600   34.4490   38.8790 H   0  0  0  0  0  0  0  0  0  0  0  0
   41.3370   34.5480   39.8340 H   0  0  0  0  0  0  0  0  0  0  0  0
   39.6630   33.5060   40.9120 H   0  0  0  0  0  0  0  0  0  0  0  0
   38.4250   31.1120   40.1460 C   0  0  0  0  0  0  0  0  0  0  0  0
   37.1070   31.5270   40.3020 C   0  0  0  0  0  0  0  0  0  0  0  0
   36.2210   30.7460   41.0770 C   0  0  0  0  0  0  0  0  0  0  0  0
   36.7420   29.5860   41.6420 N   0  0  0  0  0  0  0  0  0  0  0  0
   38.0190   29.2440   41.4500 C   0  0  0  0  0  0  0  0  0  0  0  0
   38.8470   29.9910   40.7170 N   0  0  0  0  0  0  0  0  0  0  0  0
   36.5020   32.3320   39.9450 H   0  0  0  0  0  0  0  0  0  0  0  0
   35.2020   30.8980   41.3080 H   0  0  0  0  0  0  0  0  0  0  0  0
   38.5020   27.9980   42.0560 C   0  0  0  0  0  0  0  0  0  0  0  0
   39.6450   27.9770   42.8230 C   0  0  0  0  0  0  0  0  0  0  0  0
   40.1700   26.8640   43.4300 C   0  0  0  0  0  0  0  0  0  0  0  0
   39.4510   25.7150   43.2140 C   0  0  0  0  0  0  0  0  0  0  0  0
   38.3000   25.7010   42.4490 C   0  0  0  0  0  0  0  0  0  0  0  0
   37.8260   26.8530   41.8690 N   0  0  0  0  0  0  0  0  0  0  0  0
   40.1450   28.9480   42.9340 H   0  0  0  0  0  0  0  0  0  0  0  0
   41.0720   26.8860   44.0250 H   0  0  0  0  0  0  0  0  0  0  0  0
   39.7610   24.7680   43.6380 H   0  0  0  0  0  0  0  0  0  0  0  0
   37.4860   24.4800   42.1870 C   0  0  0  0  0  3  0  0  0  0  0  0
   36.6990   24.3720   40.9350 C   0  0  0  0  0  2  0  0  0  0  0  0
   38.0120   23.6040   41.0450 C   0  0  0  0  0  2  0  0  0  0  0  0
   41.2020   32.0670   40.8040 N   0  0  0  0  0  0  0  0  0  0  0  0
   41.5830   31.9140   42.1490 C   0  0  0  0  0  0  0  0  0  0  0  0
   40.9550   31.1550   42.9710 O   0  0  0  0  0  0  0  0  0  0  0  0
   42.7350   32.6640   42.5320 N   0  0  0  0  0  0  0  0  0  0  0  0
   41.9410   31.5310   40.2100 H   0  0  0  0  0  0  0  0  0  0  0  0
   43.6980   32.6950   42.1430 H   0  0  0  0  0  0  0  0  0  0  0  0
   42.8430   33.3640   43.3190 H   0  0  0  0  0  0  0  0  0  0  0  0
  1  7  1  6  0  0  0
  1 17  1  0  0  0  0
  1  6  1  0  0  0  0
  2  9  1  0  0  0  0
  2  1  1  0  0  0  0
  3  4  1  0  0  0  0
  3  2  1  0  0  0  0
  4  5  1  0  0  0  0
  5 15  1  0  0  0  0
  5  6  1  0  0  0  0
  6 37  1  0  0  0  0
  6 16  1  1  0  0  0
  8  2  1  0  0  0  0
 10  3  1  0  0  0  0
 11  3  1  0  0  0  0
 12  4  1  0  0  0  0
 13  4  1  0  0  0  0
 14  5  1  0  0  0  0
 17 18  2  0  0  0  0
 17 22  1  0  0  0  0
 18 19  1  0  0  0  0
 19 24  1  0  0  0  0
 19 20  2  0  0  0  0
 21 20  1  0  0  0  0
 21 25  1  0  0  0  0
 22 21  2  0  0  0  0
 23 18  1  0  0  0  0
 25 26  1  0  0  0  0
 26 31  1  0  0  0  0
 26 27  2  0  0  0  0
 27 32  1  0  0  0  0
 28 27  1  0  0  0  0
 28 33  1  0  0  0  0
 29 28  2  0  0  0  0
 30 25  2  0  0  0  0
 30 29  1  0  0  0  0
 34 29  1  0  0  0  0
 35 36  1  0  0  0  0
 35 34  1  0  0  0  0
 36 34  1  0  0  0  0
 37 38  1  0  0  0  0
 38 40  1  0  0  0  0
 38 39  2  0  0  0  0
 40 43  1  0  0  0  0
 41 37  1  0  0  0  0
 42 40  1  0  0  0  0
M  END
>  <minimizedAffinity>
-6.10972834

$$$$

 OpenBabel03252507343D

 43 46  0  0  1  0  0  0  0  0999 V2000
   39.2600   32.2580   38.6670 C   0  0  2  0  0  0  0  0  0  0  0  0
   40.5320   31.8510   37.8650 C   0  0  0  0  0  0  0  0  0  0  0  0
   41.3710   33.0560   37.6170 C   0  0  0  0  0  0  0  0  0  0  0  0
   41.5570   33.9760   38.7760 C   0  0  0  0  0  0  0  0  0  0  0  0
   40.3880   34.1300   39.6090 C   0  0  0  0  0  0  0  0  0  0  0  0
   39.6820   32.7980   39.9450 C   0  0  2  0  0  0  0  0  0  0  0  0
   38.7970   33.0300   38.0170 H   0  0  0  0  0  0  0  0  0  0  0  0
   40.1240   31.4600   36.9100 H   0  0  0  0  0  0  0  0  0  0  0  0
   41.0400   31.0070   38.3480 H   0  0  0  0  0  0  0  0  0  0  0  0
   41.0050   33.5070   36.6750 H   0  0  0  0  0  0  0  0  0  0  0  0
   42.3960   32.6670   37.3450 H   0  0  0  0  0  0  0  0  0  0  0  0
   41.5080   34.9910   38.2080 H   0  0  0  0  0  0  0  0  0  0  0  0
   42.5690   34.1600   39.1340 H   0  0  0  0  0  0  0  0  0  0  0  0
   39.5520   34.7700   39.2610 H   0  0  0  0  0  0  0  0  0  0  0  0
   40.6810   34.5650   40.5980 H   0  0  0  0  0  0  0  0  0  0  0  0
   38.9500   33.1330   40.6820 H   0  0  0  0  0  0  0  0  0  0  0  0
   38.3380   31.1490   38.8010 C   0  0  0  0  0  0  0  0  0  0  0  0
   37.5090   30.8710   37.7180 C   0  0  0  0  0  0  0  0  0  0  0  0
   36.5760   29.8150   37.8140 C   0  0  0  0  0  0  0  0  0  0  0  0
   36.5530   29.1070   39.0100 N   0  0  0  0  0  0  0  0  0  0  0  0
   37.3800   29.4250   40.0110 C   0  0  0  0  0  0  0  0  0  0  0  0
   38.2560   30.4270   39.9110 N   0  0  0  0  0  0  0  0  0  0  0  0
   37.3810   31.2450   36.7260 H   0  0  0  0  0  0  0  0  0  0  0  0
   35.8730   29.4610   37.1100 H   0  0  0  0  0  0  0  0  0  0  0  0
   37.3200   28.6270   41.2410 C   0  0  0  0  0  0  0  0  0  0  0  0
   37.4580   29.2150   42.4780 C   0  0  0  0  0  0  0  0  0  0  0  0
   37.4150   28.5520   43.6790 C   0  0  0  0  0  0  0  0  0  0  0  0
   37.2160   27.1990   43.5660 C   0  0  0  0  0  0  0  0  0  0  0  0
   37.0730   26.5770   42.3400 C   0  0  0  0  0  0  0  0  0  0  0  0
   37.1260   27.2990   41.1730 N   0  0  0  0  0  0  0  0  0  0  0  0
   37.6130   30.3020   42.4580 H   0  0  0  0  0  0  0  0  0  0  0  0
   37.5280   29.0490   44.6320 H   0  0  0  0  0  0  0  0  0  0  0  0
   37.1620   26.5630   44.4410 H   0  0  0  0  0  0  0  0  0  0  0  0
   36.8550   25.1120   42.1670 C   0  0  0  0  0  3  0  0  0  0  0  0
   37.1880   24.4630   40.8760 C   0  0  0  0  0  2  0  0  0  0  0  0
   38.1450   24.2910   42.0520 C   0  0  0  0  0  2  0  0  0  0  0  0
   40.6560   31.8980   40.5670 N   0  0  0  0  0  0  0  0  0  0  0  0
   41.0350   31.7180   41.9100 C   0  0  0  0  0  0  0  0  0  0  0  0
   40.3200   31.0720   42.7570 O   0  0  0  0  0  0  0  0  0  0  0  0
   42.2880   32.3040   42.2600 N   0  0  0  0  0  0  0  0  0  0  0  0
   41.3010   31.2510   39.9750 H   0  0  0  0  0  0  0  0  0  0  0  0
   43.2390   32.1910   41.8570 H   0  0  0  0  0  0  0  0  0  0  0  0
   42.5070   32.9970   43.0300 H   0  0  0  0  0  0  0  0  0  0  0  0
  1  7  1  6  0  0  0
  1 17  1  0  0  0  0
  1  6  1  0  0  0  0
  2  9  1  0  0  0  0
  2  1  1  0  0  0  0
  3  2  1  0  0  0  0
  3  4  1  0  0  0  0
  4 13  1  0  0  0  0
  4  5  1  0  0  0  0
  5  6  1  0  0  0  0
  5 15  1  0  0  0  0
  6 37  1  0  0  0  0
  6 16  1  1  0  0  0
  8  2  1  0  0  0  0
 10  3  1  0  0  0  0
 11  3  1  0  0  0  0
 12  4  1  0  0  0  0
 14  5  1  0  0  0  0
 17 22  1  0  0  0  0
 18 19  1  0  0  0  0
 18 17  2  0  0  0  0
 19 20  2  0  0  0  0
 20 21  1  0  0  0  0
 21 25  1  0  0  0  0
 22 21  2  0  0  0  0
 23 18  1  0  0  0  0
 24 19  1  0  0  0  0
 25 26  1  0  0  0  0
 26 27  2  0  0  0  0
 27 32  1  0  0  0  0
 28 27  1  0  0  0  0
 28 33  1  0  0  0  0
 29 28  2  0  0  0  0
 30 25  2  0  0  0  0
 30 29  1  0  0  0  0
 31 26  1  0  0  0  0
 34 29  1  0  0  0  0
 35 36  1  0  0  0  0
 35 34  1  0  0  0  0
 36 34  1  0  0  0  0
 37 38  1  0  0  0  0
 38 40  1  0  0  0  0
 38 39  2  0  0  0  0
 40 43  1  0  0  0  0
 41 37  1  0  0  0  0
 42 40  1  0  0  0  0
M  END
>  <minimizedAffinity>
-6.09867811

$$$$

 OpenBabel03252507343D

 43 46  0  0  1  0  0  0  0  0999 V2000
   41.5140   31.6860   40.4560 C   0  0  2  0  0  0  0  0  0  0  0  0
   41.8350   33.0310   41.1730 C   0  0  0  0  0  0  0  0  0  0  0  0
   42.0410   34.1000   40.1560 C   0  0  0  0  0  0  0  0  0  0  0  0
   41.0600   34.1380   39.0350 C   0  0  0  0  0  0  0  0  0  0  0  0
   40.6350   32.8390   38.5690 C   0  0  0  0  0  0  0  0  0  0  0  0
   40.2850   31.8520   39.7040 C   0  0  2  0  0  0  0  0  0  0  0  0
   42.3950   31.5450   39.7950 H   0  0  0  0  0  0  0  0  0  0  0  0
   42.7810   32.8210   41.7120 H   0  0  0  0  0  0  0  0  0  0  0  0
   41.0850   33.2450   41.9450 H   0  0  0  0  0  0  0  0  0  0  0  0
   43.1120   34.0710   39.8820 H   0  0  0  0  0  0  0  0  0  0  0  0
   41.9360   35.0770   40.7120 H   0  0  0  0  0  0  0  0  0  0  0  0
   41.7870   34.4120   38.1690 H   0  0  0  0  0  0  0  0  0  0  0  0
   40.4650   35.0410   38.8970 H   0  0  0  0  0  0  0  0  0  0  0  0
   41.3150   32.2430   37.9270 H   0  0  0  0  0  0  0  0  0  0  0  0
   39.6970   32.9390   37.9670 H   0  0  0  0  0  0  0  0  0  0  0  0
   39.8590   31.0250   39.1340 H   0  0  0  0  0  0  0  0  0  0  0  0
   41.4560   30.5840   41.3940 C   0  0  0  0  0  0  0  0  0  0  0  0
   42.6030   30.3080   42.1310 C   0  0  0  0  0  0  0  0  0  0  0  0
   42.6000   29.2260   43.0390 C   0  0  0  0  0  0  0  0  0  0  0  0
   41.4200   28.4970   43.1390 N   0  0  0  0  0  0  0  0  0  0  0  0
   40.3520   28.8170   42.4020 C   0  0  0  0  0  0  0  0  0  0  0  0
   40.3680   29.8400   41.5460 N   0  0  0  0  0  0  0  0  0  0  0  0
   43.5740   30.7390   42.2400 H   0  0  0  0  0  0  0  0  0  0  0  0
   43.3640   28.8680   43.6740 H   0  0  0  0  0  0  0  0  0  0  0  0
   39.1310   28.0200   42.5680 C   0  0  0  0  0  0  0  0  0  0  0  0
   38.1160   28.4400   43.3980 C   0  0  0  0  0  0  0  0  0  0  0  0
   36.9410   27.7650   43.6140 C   0  0  0  0  0  0  0  0  0  0  0  0
   36.8340   26.5860   42.9190 C   0  0  0  0  0  0  0  0  0  0  0  0
   37.8350   26.1360   42.0780 C   0  0  0  0  0  0  0  0  0  0  0  0
   38.9890   26.8610   41.9040 N   0  0  0  0  0  0  0  0  0  0  0  0
   38.3000   29.3950   43.9070 H   0  0  0  0  0  0  0  0  0  0  0  0
   36.1660   28.1250   44.2740 H   0  0  0  0  0  0  0  0  0  0  0  0
   35.9550   25.9590   43.0030 H   0  0  0  0  0  0  0  0  0  0  0  0
   37.7650   24.8640   41.3020 C   0  0  0  0  0  3  0  0  0  0  0  0
   36.4640   24.1730   41.1340 C   0  0  0  0  0  2  0  0  0  0  0  0
   37.0210   24.9810   39.9670 C   0  0  0  0  0  2  0  0  0  0  0  0
   39.2620   32.4650   40.5550 N   0  0  0  0  0  0  0  0  0  0  0  0
   37.8580   32.3850   40.5300 C   0  0  0  0  0  0  0  0  0  0  0  0
   37.2080   31.3670   40.9650 O   0  0  0  0  0  0  0  0  0  0  0  0
   37.2040   33.5320   39.9880 N   0  0  0  0  0  0  0  0  0  0  0  0
   39.5170   33.1740   41.3410 H   0  0  0  0  0  0  0  0  0  0  0  0
   37.2570   34.5380   40.2410 H   0  0  0  0  0  0  0  0  0  0  0  0
   36.5090   33.5880   39.1920 H   0  0  0  0  0  0  0  0  0  0  0  0
  1  7  1  6  0  0  0
  1  2  1  0  0  0  0
  1 17  1  0  0  0  0
  2  8  1  0  0  0  0
  2  9  1  0  0  0  0
  3 11  1  0  0  0  0
  3  2  1  0  0  0  0
  4  3  1  0  0  0  0
  5  4  1  0  0  0  0
  5  6  1  0  0  0  0
  6 16  1  6  0  0  0
  6  1  1  0  0  0  0
  6 37  1  0  0  0  0
 10  3  1  0  0  0  0
 12  4  1  0  0  0  0
 13  4  1  0  0  0  0
 14  5  1  0  0  0  0
 15  5  1  0  0  0  0
 17 22  2  0  0  0  0
 17 18  1  0  0  0  0
 18 23  1  0  0  0  0
 18 19  2  0  0  0  0
 19 20  1  0  0  0  0
 19 24  1  0  0  0  0
 21 25  1  0  0  0  0
 21 20  2  0  0  0  0
 22 21  1  0  0  0  0
 25 26  1  0  0  0  0
 26 27  2  0  0  0  0
 26 31  1  0  0  0  0
 27 32  1  0  0  0  0
 28 33  1  0  0  0  0
 28 27  1  0  0  0  0
 29 28  2  0  0  0  0
 30 29  1  0  0  0  0
 30 25  2  0  0  0  0
 34 29  1  0  0  0  0
 35 34  1  0  0  0  0
 36 35  1  0  0  0  0
 36 34  1  0  0  0  0
 37 41  1  0  0  0  0
 38 37  1  0  0  0  0
 38 39  2  0  0  0  0
 40 42  1  0  0  0  0
 40 38  1  0  0  0  0
 43 40  1  0  0  0  0
M  END
>  <minimizedAffinity>
-5.94673109

$$$$

 OpenBabel03252507343D

 43 46  0  0  1  0  0  0  0  0999 V2000
   42.4250   30.0100   38.7630 C   0  0  2  0  0  0  0  0  0  0  0  0
   43.5130   31.0860   38.4700 C   0  0  0  0  0  0  0  0  0  0  0  0
   44.2250   30.7410   37.2080 C   0  0  0  0  0  0  0  0  0  0  0  0
   43.3690   30.3030   36.0690 C   0  0  0  0  0  0  0  0  0  0  0  0
   42.2410   29.4860   36.4490 C   0  0  0  0  0  0  0  0  0  0  0  0
   41.4680   30.0220   37.6740 C   0  0  2  0  0  0  0  0  0  0  0  0
   43.0130   29.0690   38.7950 H   0  0  0  0  0  0  0  0  0  0  0  0
   44.2000   31.0050   39.3370 H   0  0  0  0  0  0  0  0  0  0  0  0
   43.0820   32.0930   38.5140 H   0  0  0  0  0  0  0  0  0  0  0  0
   45.0610   30.0720   37.4900 H   0  0  0  0  0  0  0  0  0  0  0  0
   44.7440   31.6880   36.8780 H   0  0  0  0  0  0  0  0  0  0  0  0
   44.0580   29.4700   35.6360 H   0  0  0  0  0  0  0  0  0  0  0  0
   43.3970   30.8840   35.1470 H   0  0  0  0  0  0  0  0  0  0  0  0
   42.4050   28.4210   36.7090 H   0  0  0  0  0  0  0  0  0  0  0  0
   41.4930   29.4610   35.6170 H   0  0  0  0  0  0  0  0  0  0  0  0
   40.6030   29.3560   37.6790 H   0  0  0  0  0  0  0  0  0  0  0  0
   41.8080   30.2170   40.0580 C   0  0  0  0  0  0  0  0  0  0  0  0
   42.2760   31.2770   40.8280 C   0  0  0  0  0  0  0  0  0  0  0  0
   41.7210   31.5010   42.1070 C   0  0  0  0  0  0  0  0  0  0  0  0
   40.7200   30.6280   42.5170 N   0  0  0  0  0  0  0  0  0  0  0  0
   40.3150   29.6290   41.7250 C   0  0  0  0  0  0  0  0  0  0  0  0
   40.8480   29.4260   40.5190 N   0  0  0  0  0  0  0  0  0  0  0  0
   42.9840   32.0670   40.7070 H   0  0  0  0  0  0  0  0  0  0  0  0
   41.9450   32.2410   42.8260 H   0  0  0  0  0  0  0  0  0  0  0  0
   39.2410   28.7540   42.2070 C   0  0  0  0  0  0  0  0  0  0  0  0
   38.3540   29.1820   43.1690 C   0  0  0  0  0  0  0  0  0  0  0  0
   37.3200   28.4370   43.6790 C   0  0  0  0  0  0  0  0  0  0  0  0
   37.2190   27.1770   43.1450 C   0  0  0  0  0  0  0  0  0  0  0  0
   38.0930   26.7160   42.1780 C   0  0  0  0  0  0  0  0  0  0  0  0
   39.1090   27.5140   41.7090 N   0  0  0  0  0  0  0  0  0  0  0  0
   38.5210   30.2050   43.5310 H   0  0  0  0  0  0  0  0  0  0  0  0
   36.6430   28.8070   44.4350 H   0  0  0  0  0  0  0  0  0  0  0  0
   36.4450   26.4900   43.4640 H   0  0  0  0  0  0  0  0  0  0  0  0
   38.0240   25.3570   41.5690 C   0  0  0  0  0  3  0  0  0  0  0  0
   36.8230   24.5130   41.7800 C   0  0  0  0  0  2  0  0  0  0  0  0
   36.9940   25.2240   40.4410 C   0  0  0  0  0  2  0  0  0  0  0  0
   41.0490   31.3980   37.3960 N   0  0  0  0  0  0  0  0  0  0  0  0
   39.8460   32.0780   37.6580 C   0  0  0  0  0  0  0  0  0  0  0  0
   39.5300   32.5170   38.8220 O   0  0  0  0  0  0  0  0  0  0  0  0
   39.0000   32.2530   36.5220 N   0  0  0  0  0  0  0  0  0  0  0  0
   41.6790   32.0900   36.8370 H   0  0  0  0  0  0  0  0  0  0  0  0
   39.1740   32.6830   35.5920 H   0  0  0  0  0  0  0  0  0  0  0  0
   37.9870   31.9690   36.3960 H   0  0  0  0  0  0  0  0  0  0  0  0
  1  7  1  1  0  0  0
  1 17  1  0  0  0  0
  2  9  1  0  0  0  0
  2  1  1  0  0  0  0
  2  8  1  0  0  0  0
  3 10  1  0  0  0  0
  3  2  1  0  0  0  0
  4  5  1  0  0  0  0
  4  3  1  0  0  0  0
  5 14  1  0  0  0  0
  5  6  1  0  0  0  0
  6 16  1  1  0  0  0
  6  1  1  0  0  0  0
 11  3  1  0  0  0  0
 12  4  1  0  0  0  0
 13  4  1  0  0  0  0
 15  5  1  0  0  0  0
 17 22  2  0  0  0  0
 17 18  1  0  0  0  0
 18 19  2  0  0  0  0
 19 20  1  0  0  0  0
 19 24  1  0  0  0  0
 21 25  1  0  0  0  0
 21 20  2  0  0  0  0
 22 21  1  0  0  0  0
 23 18  1  0  0  0  0
 25 26  1  0  0  0  0
 26 31  1  0  0  0  0
 26 27  2  0  0  0  0
 27 32  1  0  0  0  0
 28 33  1  0  0  0  0
 28 27  1  0  0  0  0
 29 28  2  0  0  0  0
 30 29  1  0  0  0  0
 30 25  2  0  0  0  0
 34 35  1  0  0  0  0
 34 29  1  0  0  0  0
 36 34  1  0  0  0  0
 36 35  1  0  0  0  0
 37 38  1  0  0  0  0
 37  6  1  0  0  0  0
 38 39  2  0  0  0  0
 40 38  1  0  0  0  0
 41 37  1  0  0  0  0
 42 40  1  0  0  0  0
 43 40  1  0  0  0  0
M  END
>  <minimizedAffinity>
-5.79383898

$$$$

 OpenBabel03252507343D

 43 46  0  0  1  0  0  0  0  0999 V2000
   36.0830   29.9320   37.6230 C   0  0  2  0  0  0  0  0  0  0  0  0
   34.8470   28.9920   37.7540 C   0  0  0  0  0  0  0  0  0  0  0  0
   34.1320   28.9260   36.4490 C   0  0  0  0  0  0  0  0  0  0  0  0
   34.9880   28.7680   35.2380 C   0  0  0  0  0  0  0  0  0  0  0  0
   36.2310   29.4990   35.2870 C   0  0  0  0  0  0  0  0  0  0  0  0
   36.9800   29.3680   36.6320 C   0  0  2  0  0  0  0  0  0  0  0  0
   35.6290   30.8870   37.2840 H   0  0  0  0  0  0  0  0  0  0  0  0
   34.2170   29.4940   38.5160 H   0  0  0  0  0  0  0  0  0  0  0  0
   35.1390   28.0270   38.1870 H   0  0  0  0  0  0  0  0  0  0  0  0
   33.4080   29.7620   36.4430 H   0  0  0  0  0  0  0  0  0  0  0  0
   33.4760   28.0080   36.5040 H   0  0  0  0  0  0  0  0  0  0  0  0
   34.4000   29.4610   34.5110 H   0  0  0  0  0  0  0  0  0  0  0  0
   34.8400   27.8890   34.6110 H   0  0  0  0  0  0  0  0  0  0  0  0
   36.2250   30.5950   35.1160 H   0  0  0  0  0  0  0  0  0  0  0  0
   36.9380   29.0980   34.5180 H   0  0  0  0  0  0  0  0  0  0  0  0
   37.9260   29.8550   36.3910 H   0  0  0  0  0  0  0  0  0  0  0  0
   36.7230   30.1490   38.9040 C   0  0  0  0  0  0  0  0  0  0  0  0
   36.9540   31.4660   39.2890 C   0  0  0  0  0  0  0  0  0  0  0  0
   37.5990   31.7250   40.5190 C   0  0  0  0  0  0  0  0  0  0  0  0
   37.9640   30.6190   41.2790 N   0  0  0  0  0  0  0  0  0  0  0  0
   37.7100   29.3780   40.8500 C   0  0  0  0  0  0  0  0  0  0  0  0
   37.1020   29.1460   39.6850 N   0  0  0  0  0  0  0  0  0  0  0  0
   36.7360   32.4350   38.8990 H   0  0  0  0  0  0  0  0  0  0  0  0
   37.8580   32.6420   40.9720 H   0  0  0  0  0  0  0  0  0  0  0  0
   38.1030   28.2540   41.7070 C   0  0  0  0  0  0  0  0  0  0  0  0
   39.0930   28.3940   42.6540 C   0  0  0  0  0  0  0  0  0  0  0  0
   39.5250   27.4030   43.4990 C   0  0  0  0  0  0  0  0  0  0  0  0
   38.8790   26.2040   43.3340 C   0  0  0  0  0  0  0  0  0  0  0  0
   37.8820   26.0290   42.3940 C   0  0  0  0  0  0  0  0  0  0  0  0
   37.4940   27.0640   41.5770 N   0  0  0  0  0  0  0  0  0  0  0  0
   39.5460   29.3930   42.7040 H   0  0  0  0  0  0  0  0  0  0  0  0
   40.3060   27.5500   44.2300 H   0  0  0  0  0  0  0  0  0  0  0  0
   39.1280   25.3410   43.9400 H   0  0  0  0  0  0  0  0  0  0  0  0
   37.1520   24.7470   42.1780 C   0  0  0  0  0  3  0  0  0  0  0  0
   36.5790   24.4380   40.8460 C   0  0  0  0  0  2  0  0  0  0  0  0
   37.8770   23.7540   41.2630 C   0  0  0  0  0  2  0  0  0  0  0  0
   37.1960   27.9460   36.9100 N   0  0  0  0  0  0  0  0  0  0  0  0
   38.1620   27.0400   36.4380 C   0  0  0  0  0  0  0  0  0  0  0  0
   39.3700   27.0180   36.8710 O   0  0  0  0  0  0  0  0  0  0  0  0
   37.6940   26.1340   35.4390 N   0  0  0  0  0  0  0  0  0  0  0  0
   36.5100   27.3710   37.5310 H   0  0  0  0  0  0  0  0  0  0  0  0
   36.8980   25.4660   35.4330 H   0  0  0  0  0  0  0  0  0  0  0  0
   38.0790   25.9550   34.4690 H   0  0  0  0  0  0  0  0  0  0  0  0
  1  7  1  6  0  0  0
  1  2  1  0  0  0  0
  1 17  1  0  0  0  0
  2  9  1  0  0  0  0
  2  8  1  0  0  0  0
  3 11  1  0  0  0  0
  3  2  1  0  0  0  0
  4  5  1  0  0  0  0
  4  3  1  0  0  0  0
  5  6  1  0  0  0  0
  6 16  1  6  0  0  0
  6 37  1  0  0  0  0
  6  1  1  0  0  0  0
 10  3  1  0  0  0  0
 12  4  1  0  0  0  0
 13  4  1  0  0  0  0
 14  5  1  0  0  0  0
 15  5  1  0  0  0  0
 17 18  2  0  0  0  0
 17 22  1  0  0  0  0
 18 19  1  0  0  0  0
 19 24  1  0  0  0  0
 19 20  2  0  0  0  0
 21 20  1  0  0  0  0
 21 25  1  0  0  0  0
 22 21  2  0  0  0  0
 23 18  1  0  0  0  0
 25 26  1  0  0  0  0
 26 31  1  0  0  0  0
 26 27  2  0  0  0  0
 27 32  1  0  0  0  0
 28 27  1  0  0  0  0
 28 33  1  0  0  0  0
 29 28  2  0  0  0  0
 30 25  2  0  0  0  0
 30 29  1  0  0  0  0
 34 29  1  0  0  0  0
 35 36  1  0  0  0  0
 35 34  1  0  0  0  0
 36 34  1  0  0  0  0
 37 41  1  0  0  0  0
 38 39  2  0  0  0  0
 38 37  1  0  0  0  0
 40 38  1  0  0  0  0
 42 40  1  0  0  0  0
 43 40  1  0  0  0  0
M  END
>  <minimizedAffinity>
-5.78483248

$$$$

 OpenBabel03252507343D

 43 46  0  0  1  0  0  0  0  0999 V2000
   37.0450   30.1500   40.3470 C   0  0  2  0  0  0  0  0  0  0  0  0
   37.6380   29.8480   38.9370 C   0  0  0  0  0  0  0  0  0  0  0  0
   37.3240   30.9750   38.0150 C   0  0  0  0  0  0  0  0  0  0  0  0
   37.5230   32.3470   38.5620 C   0  0  0  0  0  0  0  0  0  0  0  0
   37.1580   32.4940   39.9510 C   0  0  0  0  0  0  0  0  0  0  0  0
   37.6730   31.3540   40.8560 C   0  0  2  0  0  0  0  0  0  0  0  0
   35.9660   30.2990   40.1310 H   0  0  0  0  0  0  0  0  0  0  0  0
   37.1040   28.9290   38.6220 H   0  0  0  0  0  0  0  0  0  0  0  0
   38.6970   29.5750   39.0150 H   0  0  0  0  0  0  0  0  0  0  0  0
   36.3360   30.7530   37.5700 H   0  0  0  0  0  0  0  0  0  0  0  0
   38.0370   30.8670   37.1450 H   0  0  0  0  0  0  0  0  0  0  0  0
   36.6020   32.8690   38.0770 H   0  0  0  0  0  0  0  0  0  0  0  0
   38.2320   33.0060   38.0620 H   0  0  0  0  0  0  0  0  0  0  0  0
   36.0860   32.5610   40.2270 H   0  0  0  0  0  0  0  0  0  0  0  0
   37.6140   33.4280   40.3670 H   0  0  0  0  0  0  0  0  0  0  0  0
   37.4210   31.7440   41.8440 H   0  0  0  0  0  0  0  0  0  0  0  0
   37.1900   29.0180   41.2380 C   0  0  0  0  0  0  0  0  0  0  0  0
   37.3240   29.2850   42.5970 C   0  0  0  0  0  0  0  0  0  0  0  0
   37.4940   28.2130   43.5000 C   0  0  0  0  0  0  0  0  0  0  0  0
   37.5130   26.9330   42.9560 N   0  0  0  0  0  0  0  0  0  0  0  0
   37.3770   26.7460   41.6390 C   0  0  0  0  0  0  0  0  0  0  0  0
   37.2190   27.7680   40.7950 N   0  0  0  0  0  0  0  0  0  0  0  0
   37.3040   30.1520   43.2200 H   0  0  0  0  0  0  0  0  0  0  0  0
   37.6130   28.2190   44.5490 H   0  0  0  0  0  0  0  0  0  0  0  0
   37.3860   25.3710   41.1300 C   0  0  0  0  0  0  0  0  0  0  0  0
   38.3610   24.4770   41.5130 C   0  0  0  0  0  0  0  0  0  0  0  0
   38.4500   23.1740   41.0910 C   0  0  0  0  0  0  0  0  0  0  0  0
   37.4590   22.7970   40.2200 C   0  0  0  0  0  0  0  0  0  0  0  0
   36.4660   23.6690   39.8150 C   0  0  0  0  0  0  0  0  0  0  0  0
   36.4330   24.9630   40.2750 N   0  0  0  0  0  0  0  0  0  0  0  0
   39.1070   24.8780   42.2120 H   0  0  0  0  0  0  0  0  0  0  0  0
   39.2310   22.5010   41.4140 H   0  0  0  0  0  0  0  0  0  0  0  0
   37.4170   21.7940   39.8140 H   0  0  0  0  0  0  0  0  0  0  0  0
   35.3690   23.3060   38.8720 C   0  0  0  0  0  3  0  0  0  0  0  0
   34.9380   21.8930   38.7500 C   0  0  0  0  0  2  0  0  0  0  0  0
   34.0720   22.8570   39.5550 C   0  0  0  0  0  2  0  0  0  0  0  0
   39.1270   31.2580   40.7030 N   0  0  0  0  0  0  0  0  0  0  0  0
   40.1790   31.5100   41.6030 C   0  0  0  0  0  0  0  0  0  0  0  0
   40.5070   30.6970   42.5400 O   0  0  0  0  0  0  0  0  0  0  0  0
   40.8640   32.7440   41.3890 N   0  0  0  0  0  0  0  0  0  0  0  0
   39.5900   31.0150   39.7470 H   0  0  0  0  0  0  0  0  0  0  0  0
   41.3360   33.1340   40.5500 H   0  0  0  0  0  0  0  0  0  0  0  0
   41.0350   33.5370   42.0690 H   0  0  0  0  0  0  0  0  0  0  0  0
  1  7  1  6  0  0  0
  1  6  1  0  0  0  0
  1 17  1  0  0  0  0
  2  9  1  0  0  0  0
  2  1  1  0  0  0  0
  3  4  1  0  0  0  0
  3  2  1  0  0  0  0
  4  5  1  0  0  0  0
  5 14  1  0  0  0  0
  5 15  1  0  0  0  0
  5  6  1  0  0  0  0
  6 16  1  1  0  0  0
  8  2  1  0  0  0  0
 10  3  1  0  0  0  0
 11  3  1  0  0  0  0
 12  4  1  0  0  0  0
 13  4  1  0  0  0  0
 17 18  1  0  0  0  0
 18 23  1  0  0  0  0
 18 19  2  0  0  0  0
 19 24  1  0  0  0  0
 20 19  1  0  0  0  0
 21 20  2  0  0  0  0
 22 17  2  0  0  0  0
 22 21  1  0  0  0  0
 25 26  1  0  0  0  0
 25 21  1  0  0  0  0
 26 31  1  0  0  0  0
 27 32  1  0  0  0  0
 27 26  2  0  0  0  0
 28 27  1  0  0  0  0
 29 28  2  0  0  0  0
 29 30  1  0  0  0  0
 30 25  2  0  0  0  0
 33 28  1  0  0  0  0
 34 36  1  0  0  0  0
 34 29  1  0  0  0  0
 35 34  1  0  0  0  0
 35 36  1  0  0  0  0
 37  6  1  0  0  0  0
 37 38  1  0  0  0  0
 38 39  2  0  0  0  0
 40 38  1  0  0  0  0
 40 43  1  0  0  0  0
 41 37  1  0  0  0  0
 42 40  1  0  0  0  0
M  END
>  <minimizedAffinity>
-5.78209734

$$$$

 OpenBabel03252507343D

 43 46  0  0  1  0  0  0  0  0999 V2000
   38.5870   31.7810   40.9810 C   0  0  2  0  0  0  0  0  0  0  0  0
   37.6820   32.8350   40.2760 C   0  0  0  0  0  0  0  0  0  0  0  0
   38.3610   34.1610   40.2890 C   0  0  0  0  0  0  0  0  0  0  0  0
   39.8100   34.1600   39.9410 C   0  0  0  0  0  0  0  0  0  0  0  0
   40.5440   33.0240   40.4450 C   0  0  0  0  0  0  0  0  0  0  0  0
   39.8260   31.6730   40.2340 C   0  0  2  0  0  0  0  0  0  0  0  0
   38.7400   32.2240   41.9880 H   0  0  0  0  0  0  0  0  0  0  0  0
   36.7710   32.8610   40.9080 H   0  0  0  0  0  0  0  0  0  0  0  0
   37.3610   32.4730   39.2920 H   0  0  0  0  0  0  0  0  0  0  0  0
   38.0750   34.6520   41.2380 H   0  0  0  0  0  0  0  0  0  0  0  0
   37.8390   34.7810   39.5020 H   0  0  0  0  0  0  0  0  0  0  0  0
   40.1770   34.9640   40.6990 H   0  0  0  0  0  0  0  0  0  0  0  0
   40.1360   34.7420   39.0790 H   0  0  0  0  0  0  0  0  0  0  0  0
   40.8230   32.9890   41.5180 H   0  0  0  0  0  0  0  0  0  0  0  0
   41.5170   32.9280   39.9000 H   0  0  0  0  0  0  0  0  0  0  0  0
   40.6060   30.9750   40.5400 H   0  0  0  0  0  0  0  0  0  0  0  0
   37.9060   30.5110   41.1300 C   0  0  0  0  0  0  0  0  0  0  0  0
   38.1070   29.8120   42.3160 C   0  0  0  0  0  0  0  0  0  0  0  0
   37.4840   28.5570   42.4940 C   0  0  0  0  0  0  0  0  0  0  0  0
   36.6910   28.0980   41.4470 N   0  0  0  0  0  0  0  0  0  0  0  0
   36.5390   28.8220   40.3340 C   0  0  0  0  0  0  0  0  0  0  0  0
   37.1350   30.0050   40.1760 N   0  0  0  0  0  0  0  0  0  0  0  0
   38.6240   29.9800   43.2350 H   0  0  0  0  0  0  0  0  0  0  0  0
   37.5190   27.8890   43.3110 H   0  0  0  0  0  0  0  0  0  0  0  0
   35.6740   28.2910   39.2750 C   0  0  0  0  0  0  0  0  0  0  0  0
   34.5960   29.0100   38.8110 C   0  0  0  0  0  0  0  0  0  0  0  0
   33.7340   28.5970   37.8260 C   0  0  0  0  0  0  0  0  0  0  0  0
   34.0280   27.3620   37.3040 C   0  0  0  0  0  0  0  0  0  0  0  0
   35.1020   26.6140   37.7470 C   0  0  0  0  0  0  0  0  0  0  0  0
   35.9290   27.0860   38.7390 N   0  0  0  0  0  0  0  0  0  0  0  0
   34.4480   29.9850   39.2930 H   0  0  0  0  0  0  0  0  0  0  0  0
   32.8960   29.1900   37.4870 H   0  0  0  0  0  0  0  0  0  0  0  0
   33.4230   26.9230   36.5200 H   0  0  0  0  0  0  0  0  0  0  0  0
   35.4610   25.2690   37.2120 C   0  0  0  0  0  3  0  0  0  0  0  0
   36.1370   24.2830   38.0890 C   0  0  0  0  0  2  0  0  0  0  0  0
   34.6470   24.1160   37.8080 C   0  0  0  0  0  2  0  0  0  0  0  0
   39.5340   31.5180   38.8070 N   0  0  0  0  0  0  0  0  0  0  0  0
   40.3780   31.3470   37.6950 C   0  0  0  0  0  0  0  0  0  0  0  0
   40.9440   30.2310   37.4130 O   0  0  0  0  0  0  0  0  0  0  0  0
   40.5540   32.5160   36.8950 N   0  0  0  0  0  0  0  0  0  0  0  0
   38.5200   31.5920   38.4170 H   0  0  0  0  0  0  0  0  0  0  0  0
   39.8680   33.1370   36.4230 H   0  0  0  0  0  0  0  0  0  0  0  0
   41.4510   32.9990   36.6100 H   0  0  0  0  0  0  0  0  0  0  0  0
  1 17  1  0  0  0  0
  1  7  1  1  0  0  0
  2  3  1  0  0  0  0
  2  8  1  0  0  0  0
  2  1  1  0  0  0  0
  3 10  1  0  0  0  0
  4  3  1  0  0  0  0
  4  5  1  0  0  0  0
  4 12  1  0  0  0  0
  5 14  1  0  0  0  0
  6  5  1  0  0  0  0
  6 16  1  1  0  0  0
  6  1  1  0  0  0  0
  9  2  1  0  0  0  0
 11  3  1  0  0  0  0
 13  4  1  0  0  0  0
 15  5  1  0  0  0  0
 17 18  1  0  0  0  0
 18 19  2  0  0  0  0
 18 23  1  0  0  0  0
 19 24  1  0  0  0  0
 20 19  1  0  0  0  0
 21 20  2  0  0  0  0
 22 21  1  0  0  0  0
 22 17  2  0  0  0  0
 25 21  1  0  0  0  0
 26 25  1  0  0  0  0
 26 31  1  0  0  0  0
 27 26  2  0  0  0  0
 28 29  2  0  0  0  0
 28 27  1  0  0  0  0
 29 30  1  0  0  0  0
 30 25  2  0  0  0  0
 32 27  1  0  0  0  0
 33 28  1  0  0  0  0
 34 29  1  0  0  0  0
 34 36  1  0  0  0  0
 34 35  1  0  0  0  0
 36 35  1  0  0  0  0
 37  6  1  0  0  0  0
 38 37  1  0  0  0  0
 39 38  2  0  0  0  0
 40 38  1  0  0  0  0
 41 37  1  0  0  0  0
 42 40  1  0  0  0  0
 43 40  1  0  0  0  0
M  END
>  <minimizedAffinity>
-5.76119995

$$$$
