
 OpenBabel03252502213D

 27 29  0  0  1  0  0  0  0  0999 V2000
   38.2270   30.7700   41.1750 N   0  0  0  0  0  0  0  0  0  0  0  0
   39.3510   31.6540   40.9570 C   0  0  0  0  0  0  0  0  0  0  0  0
   38.7260   33.0630   41.0550 C   0  0  0  0  0  0  0  0  0  0  0  0
   37.7720   33.2900   39.9280 C   0  0  0  0  0  0  0  0  0  0  0  0
   36.9500   32.1010   39.5560 C   0  0  0  0  0  0  0  0  0  0  0  0
   36.9370   31.0020   40.5720 C   0  0  1  0  0  0  0  0  0  0  0  0
   40.1150   31.5360   41.7260 H   0  0  0  0  0  0  0  0  0  0  0  0
   39.7450   31.5680   39.9320 H   0  0  0  0  0  0  0  0  0  0  0  0
   39.4920   33.8390   41.0780 H   0  0  0  0  0  0  0  0  0  0  0  0
   38.1100   33.0160   41.9950 H   0  0  0  0  0  0  0  0  0  0  0  0
   37.1530   34.1790   40.2170 H   0  0  0  0  0  0  0  0  0  0  0  0
   38.3720   33.6620   39.0610 H   0  0  0  0  0  0  0  0  0  0  0  0
   35.9000   32.4380   39.4200 H   0  0  0  0  0  0  0  0  0  0  0  0
   37.2890   31.7500   38.5510 H   0  0  0  0  0  0  0  0  0  0  0  0
   36.2330   31.2870   41.3780 H   0  0  0  0  0  0  0  0  0  0  0  0
   39.4350   27.6570   42.8770 C   0  0  0  0  0  0  0  0  0  0  0  0
   39.4490   28.7600   42.0140 C   0  0  0  0  0  0  0  0  0  0  0  0
   38.3360   29.6110   42.0080 C   0  0  0  0  0  0  0  0  0  0  0  0
   37.3250   29.2850   42.8530 N   0  0  0  0  0  0  0  0  0  0  0  0
   37.3310   28.2130   43.6790 C   0  0  0  0  0  0  0  0  0  0  0  0
   38.4060   27.4030   43.6760 N   0  0  0  0  0  0  0  0  0  0  0  0
   40.3520   27.0860   42.7810 H   0  0  0  0  0  0  0  0  0  0  0  0
   40.2330   29.0350   41.3430 H   0  0  0  0  0  0  0  0  0  0  0  0
   36.5100   27.9980   44.3260 H   0  0  0  0  0  0  0  0  0  0  0  0
   36.4810   29.6980   39.9910 C   0  0  0  0  0  3  0  0  0  0  0  0
   35.8180   29.6220   38.6710 C   0  0  0  0  0  2  0  0  0  0  0  0
   35.0640   29.2860   39.9380 C   0  0  0  0  0  2  0  0  0  0  0  0
  1 18  1  0  0  0  0
  2  3  1  0  0  0  0
  2  1  1  0  0  0  0
  2  7  1  0  0  0  0
  3  9  1  0  0  0  0
  3 10  1  0  0  0  0
  4 11  1  0  0  0  0
  4  3  1  0  0  0  0
  5  4  1  0  0  0  0
  5  6  1  0  0  0  0
  6  1  1  0  0  0  0
  6 15  1  1  0  0  0
  8  2  1  0  0  0  0
 12  4  1  0  0  0  0
 13  5  1  0  0  0  0
 14  5  1  0  0  0  0
 16 21  1  0  0  0  0
 17 16  2  0  0  0  0
 18 17  1  0  0  0  0
 18 19  2  0  0  0  0
 19 20  1  0  0  0  0
 20 24  1  0  0  0  0
 21 20  2  0  0  0  0
 22 16  1  0  0  0  0
 23 17  1  0  0  0  0
 25  6  1  0  0  0  0
 26 27  1  0  0  0  0
 26 25  1  0  0  0  0
 27 25  1  0  0  0  0
M  END
>  <minimizedAffinity>
-4.55603313

$$$$

 OpenBabel03252502213D

 27 29  0  0  1  0  0  0  0  0999 V2000
   36.5930   28.3140   41.0320 N   0  0  0  0  0  0  0  0  0  0  0  0
   36.9680   27.0500   41.6270 C   0  0  0  0  0  0  0  0  0  0  0  0
   36.7210   27.2740   43.1360 C   0  0  0  0  0  0  0  0  0  0  0  0
   37.6640   28.3010   43.6720 C   0  0  0  0  0  0  0  0  0  0  0  0
   37.9300   29.4460   42.7510 C   0  0  0  0  0  0  0  0  0  0  0  0
   36.9620   29.5800   41.6180 C   0  0  1  0  0  0  0  0  0  0  0  0
   36.3420   26.2320   41.2690 H   0  0  0  0  0  0  0  0  0  0  0  0
   38.0470   26.8550   41.5230 H   0  0  0  0  0  0  0  0  0  0  0  0
   36.8020   26.3410   43.6960 H   0  0  0  0  0  0  0  0  0  0  0  0
   35.6920   27.7280   43.1720 H   0  0  0  0  0  0  0  0  0  0  0  0
   37.2460   28.6220   44.6620 H   0  0  0  0  0  0  0  0  0  0  0  0
   38.6060   27.7670   43.9480 H   0  0  0  0  0  0  0  0  0  0  0  0
   37.8770   30.3830   43.3450 H   0  0  0  0  0  0  0  0  0  0  0  0
   38.9890   29.3660   42.4030 H   0  0  0  0  0  0  0  0  0  0  0  0
   36.0410   30.0560   42.0070 H   0  0  0  0  0  0  0  0  0  0  0  0
   33.9380   29.0120   38.4810 C   0  0  0  0  0  0  0  0  0  0  0  0
   34.5880   29.0210   39.7210 C   0  0  0  0  0  0  0  0  0  0  0  0
   35.8280   28.3760   39.8250 C   0  0  0  0  0  0  0  0  0  0  0  0
   36.2960   27.7890   38.6940 N   0  0  0  0  0  0  0  0  0  0  0  0
   35.6500   27.7920   37.5030 C   0  0  0  0  0  0  0  0  0  0  0  0
   34.4600   28.4150   37.4170 N   0  0  0  0  0  0  0  0  0  0  0  0
   32.9950   29.5440   38.5420 H   0  0  0  0  0  0  0  0  0  0  0  0
   34.2380   29.4770   40.6220 H   0  0  0  0  0  0  0  0  0  0  0  0
   36.0600   27.3150   36.6410 H   0  0  0  0  0  0  0  0  0  0  0  0
   37.5000   30.4370   40.5120 C   0  0  0  0  0  3  0  0  0  0  0  0
   38.4980   31.5000   40.7640 C   0  0  0  0  0  2  0  0  0  0  0  0
   37.0970   31.8420   40.3070 C   0  0  0  0  0  2  0  0  0  0  0  0
  1  6  1  0  0  0  0
  1  2  1  0  0  0  0
  2  3  1  0  0  0  0
  3 10  1  0  0  0  0
  3  4  1  0  0  0  0
  3  9  1  0  0  0  0
  4 12  1  0  0  0  0
  4 11  1  0  0  0  0
  5 13  1  0  0  0  0
  5  4  1  0  0  0  0
  6 15  1  1  0  0  0
  6  5  1  0  0  0  0
  7  2  1  0  0  0  0
  8  2  1  0  0  0  0
 14  5  1  0  0  0  0
 16 22  1  0  0  0  0
 16 17  1  0  0  0  0
 17 18  2  0  0  0  0
 17 23  1  0  0  0  0
 18  1  1  0  0  0  0
 19 18  1  0  0  0  0
 20 19  2  0  0  0  0
 21 20  1  0  0  0  0
 21 16  2  0  0  0  0
 24 20  1  0  0  0  0
 25 26  1  0  0  0  0
 25  6  1  0  0  0  0
 27 25  1  0  0  0  0
 27 26  1  0  0  0  0
M  END
>  <minimizedAffinity>
-4.28682852

$$$$

 OpenBabel03252502213D

 27 29  0  0  1  0  0  0  0  0999 V2000
   38.0720   29.7190   41.5780 N   0  0  0  0  0  0  0  0  0  0  0  0
   38.5040   29.6170   42.9550 C   0  0  0  0  0  0  0  0  0  0  0  0
   38.6680   28.0950   43.1700 C   0  0  0  0  0  0  0  0  0  0  0  0
   37.3430   27.4110   43.0800 C   0  0  0  0  0  0  0  0  0  0  0  0
   36.4300   27.9510   42.0310 C   0  0  0  0  0  0  0  0  0  0  0  0
   37.0900   28.8260   41.0110 C   0  0  1  0  0  0  0  0  0  0  0  0
   39.4590   30.1160   43.1180 H   0  0  0  0  0  0  0  0  0  0  0  0
   37.7160   29.9380   43.6550 H   0  0  0  0  0  0  0  0  0  0  0  0
   39.1550   27.8770   44.1210 H   0  0  0  0  0  0  0  0  0  0  0  0
   39.2650   27.7640   42.2760 H   0  0  0  0  0  0  0  0  0  0  0  0
   37.5650   26.3190   42.9490 H   0  0  0  0  0  0  0  0  0  0  0  0
   36.8800   27.4620   44.0960 H   0  0  0  0  0  0  0  0  0  0  0  0
   35.9820   27.0920   41.4890 H   0  0  0  0  0  0  0  0  0  0  0  0
   35.5800   28.4620   42.5470 H   0  0  0  0  0  0  0  0  0  0  0  0
   37.6060   28.1740   40.2810 H   0  0  0  0  0  0  0  0  0  0  0  0
   39.7790   31.4900   38.7520 C   0  0  0  0  0  0  0  0  0  0  0  0
   39.3130   30.4230   39.5290 C   0  0  0  0  0  0  0  0  0  0  0  0
   38.6000   30.7160   40.7000 C   0  0  0  0  0  0  0  0  0  0  0  0
   38.4220   32.0320   40.9800 N   0  0  0  0  0  0  0  0  0  0  0  0
   38.8820   33.0500   40.2150 C   0  0  0  0  0  0  0  0  0  0  0  0
   39.5650   32.7550   39.0930 N   0  0  0  0  0  0  0  0  0  0  0  0
   40.3100   31.1230   37.8810 H   0  0  0  0  0  0  0  0  0  0  0  0
   39.4410   29.3820   39.3260 H   0  0  0  0  0  0  0  0  0  0  0  0
   38.7160   34.0710   40.4790 H   0  0  0  0  0  0  0  0  0  0  0  0
   36.1020   29.6730   40.2670 C   0  0  0  0  0  3  0  0  0  0  0  0
   34.7190   29.2160   40.0130 C   0  0  0  0  0  2  0  0  0  0  0  0
   35.6950   29.4050   38.8730 C   0  0  0  0  0  2  0  0  0  0  0  0
  1  2  1  0  0  0  0
  2  7  1  0  0  0  0
  2  3  1  0  0  0  0
  2  8  1  0  0  0  0
  3  9  1  0  0  0  0
  4  3  1  0  0  0  0
  4 12  1  0  0  0  0
  5 14  1  0  0  0  0
  5  4  1  0  0  0  0
  6 15  1  6  0  0  0
  6  1  1  0  0  0  0
  6  5  1  0  0  0  0
 10  3  1  0  0  0  0
 11  4  1  0  0  0  0
 13  5  1  0  0  0  0
 16 21  2  0  0  0  0
 16 17  1  0  0  0  0
 17 18  2  0  0  0  0
 18 19  1  0  0  0  0
 18  1  1  0  0  0  0
 20 24  1  0  0  0  0
 20 19  2  0  0  0  0
 21 20  1  0  0  0  0
 22 16  1  0  0  0  0
 23 17  1  0  0  0  0
 25  6  1  0  0  0  0
 26 25  1  0  0  0  0
 27 26  1  0  0  0  0
 27 25  1  0  0  0  0
M  END
>  <minimizedAffinity>
-4.28001785

$$$$

 OpenBabel03252502213D

 27 29  0  0  1  0  0  0  0  0999 V2000
   37.0430   26.6480   40.4430 N   0  0  0  0  0  0  0  0  0  0  0  0
   37.1300   25.6360   39.4140 C   0  0  0  0  0  0  0  0  0  0  0  0
   36.3060   24.4630   39.9900 C   0  0  0  0  0  0  0  0  0  0  0  0
   36.9730   23.9040   41.2040 C   0  0  0  0  0  0  0  0  0  0  0  0
   37.6010   24.9220   42.0970 C   0  0  0  0  0  0  0  0  0  0  0  0
   37.1680   26.3320   41.8460 C   0  0  1  0  0  0  0  0  0  0  0  0
   36.6860   25.9720   38.4770 H   0  0  0  0  0  0  0  0  0  0  0  0
   38.1580   25.2560   39.3010 H   0  0  0  0  0  0  0  0  0  0  0  0
   36.1420   23.6850   39.2430 H   0  0  0  0  0  0  0  0  0  0  0  0
   35.3550   24.9520   40.3400 H   0  0  0  0  0  0  0  0  0  0  0  0
   36.2000   23.2800   41.7260 H   0  0  0  0  0  0  0  0  0  0  0  0
   37.7190   23.1500   40.8500 H   0  0  0  0  0  0  0  0  0  0  0  0
   37.3310   24.6740   43.1450 H   0  0  0  0  0  0  0  0  0  0  0  0
   38.7100   24.7970   42.0310 H   0  0  0  0  0  0  0  0  0  0  0  0
   36.1760   26.4750   42.3160 H   0  0  0  0  0  0  0  0  0  0  0  0
   35.6410   30.1160   40.2220 C   0  0  0  0  0  0  0  0  0  0  0  0
   35.7430   28.7740   40.6090 C   0  0  0  0  0  0  0  0  0  0  0  0
   36.8240   28.0250   40.1240 C   0  0  0  0  0  0  0  0  0  0  0  0
   37.6890   28.6780   39.3070 N   0  0  0  0  0  0  0  0  0  0  0  0
   37.5710   29.9770   38.9440 C   0  0  0  0  0  0  0  0  0  0  0  0
   36.5290   30.6860   39.4180 N   0  0  0  0  0  0  0  0  0  0  0  0
   34.7640   30.5740   40.6670 H   0  0  0  0  0  0  0  0  0  0  0  0
   35.0750   28.2420   41.2500 H   0  0  0  0  0  0  0  0  0  0  0  0
   38.2790   30.4470   38.2980 H   0  0  0  0  0  0  0  0  0  0  0  0
   38.1160   27.3300   42.4390 C   0  0  0  0  0  3  0  0  0  0  0  0
   38.9130   27.0250   43.6470 C   0  0  0  0  0  2  0  0  0  0  0  0
   37.8310   28.0810   43.6780 C   0  0  0  0  0  2  0  0  0  0  0  0
  1  6  1  0  0  0  0
  2  3  1  0  0  0  0
  2  1  1  0  0  0  0
  3 10  1  0  0  0  0
  3  4  1  0  0  0  0
  4 11  1  0  0  0  0
  4  5  1  0  0  0  0
  5 13  1  0  0  0  0
  6  5  1  0  0  0  0
  6 15  1  1  0  0  0
  6 25  1  0  0  0  0
  7  2  1  0  0  0  0
  8  2  1  0  0  0  0
  9  3  1  0  0  0  0
 12  4  1  0  0  0  0
 14  5  1  0  0  0  0
 16 17  1  0  0  0  0
 16 22  1  0  0  0  0
 17 23  1  0  0  0  0
 18  1  1  0  0  0  0
 18 17  2  0  0  0  0
 19 18  1  0  0  0  0
 20 19  2  0  0  0  0
 20 21  1  0  0  0  0
 21 16  2  0  0  0  0
 24 20  1  0  0  0  0
 25 26  1  0  0  0  0
 25 27  1  0  0  0  0
 26 27  1  0  0  0  0
M  END
>  <minimizedAffinity>
-4.27323294

$$$$

 OpenBabel03252502213D

 27 29  0  0  1  0  0  0  0  0999 V2000
   37.7020   29.2250   41.2820 N   0  0  0  0  0  0  0  0  0  0  0  0
   36.9850   27.9770   41.1300 C   0  0  0  0  0  0  0  0  0  0  0  0
   36.4130   27.7160   42.5420 C   0  0  0  0  0  0  0  0  0  0  0  0
   37.5180   27.4640   43.5140 C   0  0  0  0  0  0  0  0  0  0  0  0
   38.7310   28.3100   43.3140 C   0  0  0  0  0  0  0  0  0  0  0  0
   38.5290   29.5020   42.4310 C   0  0  1  0  0  0  0  0  0  0  0  0
   36.1690   28.0640   40.4130 H   0  0  0  0  0  0  0  0  0  0  0  0
   37.6670   27.1380   40.9200 H   0  0  0  0  0  0  0  0  0  0  0  0
   35.7030   26.8880   42.5370 H   0  0  0  0  0  0  0  0  0  0  0  0
   35.9490   28.7000   42.8270 H   0  0  0  0  0  0  0  0  0  0  0  0
   37.0680   27.5770   44.5350 H   0  0  0  0  0  0  0  0  0  0  0  0
   37.7620   26.3750   43.4570 H   0  0  0  0  0  0  0  0  0  0  0  0
   39.0570   28.6850   44.3080 H   0  0  0  0  0  0  0  0  0  0  0  0
   39.5560   27.6460   42.9550 H   0  0  0  0  0  0  0  0  0  0  0  0
   38.0300   30.2900   43.0270 H   0  0  0  0  0  0  0  0  0  0  0  0
   37.0940   32.4620   39.4950 C   0  0  0  0  0  0  0  0  0  0  0  0
   37.1140   31.5380   40.5470 C   0  0  0  0  0  0  0  0  0  0  0  0
   37.6250   30.2570   40.2960 C   0  0  0  0  0  0  0  0  0  0  0  0
   38.0630   30.0230   39.0320 N   0  0  0  0  0  0  0  0  0  0  0  0
   38.0340   30.9310   38.0280 C   0  0  0  0  0  0  0  0  0  0  0  0
   37.5410   32.1580   38.2830 N   0  0  0  0  0  0  0  0  0  0  0  0
   36.6760   33.4060   39.8260 H   0  0  0  0  0  0  0  0  0  0  0  0
   36.7760   31.7010   41.5470 H   0  0  0  0  0  0  0  0  0  0  0  0
   38.3900   30.6980   37.0490 H   0  0  0  0  0  0  0  0  0  0  0  0
   39.8250   30.0530   41.9180 C   0  0  0  0  0  3  0  0  0  0  0  0
   41.1260   29.6620   42.5060 C   0  0  0  0  0  2  0  0  0  0  0  0
   40.6100   31.0780   42.6350 C   0  0  0  0  0  2  0  0  0  0  0  0
  1  6  1  0  0  0  0
  2  1  1  0  0  0  0
  2  3  1  0  0  0  0
  3 10  1  0  0  0  0
  3  4  1  0  0  0  0
  4 11  1  0  0  0  0
  5  4  1  0  0  0  0
  5 13  1  0  0  0  0
  6 15  1  1  0  0  0
  6  5  1  0  0  0  0
  7  2  1  0  0  0  0
  8  2  1  0  0  0  0
  9  3  1  0  0  0  0
 12  4  1  0  0  0  0
 14  5  1  0  0  0  0
 16 22  1  0  0  0  0
 16 17  1  0  0  0  0
 17 23  1  0  0  0  0
 18 17  2  0  0  0  0
 18  1  1  0  0  0  0
 19 18  1  0  0  0  0
 20 21  1  0  0  0  0
 20 19  2  0  0  0  0
 21 16  2  0  0  0  0
 24 20  1  0  0  0  0
 25  6  1  0  0  0  0
 25 26  1  0  0  0  0
 25 27  1  0  0  0  0
 26 27  1  0  0  0  0
M  END
>  <minimizedAffinity>
-4.25804758

$$$$

 OpenBabel03252502213D

 27 29  0  0  1  0  0  0  0  0999 V2000
   38.3290   27.0340   42.1990 N   0  0  0  0  0  0  0  0  0  0  0  0
   38.6610   27.4600   43.5410 C   0  0  0  0  0  0  0  0  0  0  0  0
   40.1540   27.0860   43.6800 C   0  0  0  0  0  0  0  0  0  0  0  0
   40.3250   25.6020   43.6410 C   0  0  0  0  0  0  0  0  0  0  0  0
   39.4350   24.8950   42.6740 C   0  0  0  0  0  0  0  0  0  0  0  0
   38.7850   25.7780   41.6560 C   0  0  1  0  0  0  0  0  0  0  0  0
   38.5390   28.5360   43.6670 H   0  0  0  0  0  0  0  0  0  0  0  0
   38.1290   26.8670   44.3020 H   0  0  0  0  0  0  0  0  0  0  0  0
   40.5880   27.5040   44.5890 H   0  0  0  0  0  0  0  0  0  0  0  0
   40.6180   27.4890   42.7370 H   0  0  0  0  0  0  0  0  0  0  0  0
   41.4150   25.4190   43.4500 H   0  0  0  0  0  0  0  0  0  0  0  0
   40.1780   25.2300   44.6850 H   0  0  0  0  0  0  0  0  0  0  0  0
   40.0480   24.1500   42.1240 H   0  0  0  0  0  0  0  0  0  0  0  0
   38.6920   24.3030   43.2630 H   0  0  0  0  0  0  0  0  0  0  0  0
   39.5300   25.9990   40.8680 H   0  0  0  0  0  0  0  0  0  0  0  0
   35.5210   28.9950   40.6800 C   0  0  0  0  0  0  0  0  0  0  0  0
   36.1990   28.1960   41.6080 C   0  0  0  0  0  0  0  0  0  0  0  0
   37.5270   27.8430   41.3340 C   0  0  0  0  0  0  0  0  0  0  0  0
   38.0460   28.3150   40.1720 N   0  0  0  0  0  0  0  0  0  0  0  0
   37.3720   29.0870   39.2870 C   0  0  0  0  0  0  0  0  0  0  0  0
   36.0970   29.4190   39.5620 N   0  0  0  0  0  0  0  0  0  0  0  0
   34.5080   29.1910   41.0150 H   0  0  0  0  0  0  0  0  0  0  0  0
   35.8100   27.8150   42.5270 H   0  0  0  0  0  0  0  0  0  0  0  0
   37.8250   29.4330   38.3840 H   0  0  0  0  0  0  0  0  0  0  0  0
   37.6010   25.1220   41.0100 C   0  0  0  0  0  3  0  0  0  0  0  0
   36.5750   24.4110   41.8040 C   0  0  0  0  0  2  0  0  0  0  0  0
   37.4750   23.6600   40.8470 C   0  0  0  0  0  2  0  0  0  0  0  0
  1  2  1  0  0  0  0
  2  7  1  0  0  0  0
  2  3  1  0  0  0  0
  2  8  1  0  0  0  0
  3  9  1  0  0  0  0
  4  3  1  0  0  0  0
  4 12  1  0  0  0  0
  5 14  1  0  0  0  0
  5  4  1  0  0  0  0
  6 15  1  6  0  0  0
  6  1  1  0  0  0  0
  6  5  1  0  0  0  0
 10  3  1  0  0  0  0
 11  4  1  0  0  0  0
 13  5  1  0  0  0  0
 16 22  1  0  0  0  0
 16 17  1  0  0  0  0
 17 23  1  0  0  0  0
 18 17  2  0  0  0  0
 18  1  1  0  0  0  0
 19 18  1  0  0  0  0
 20 21  1  0  0  0  0
 20 19  2  0  0  0  0
 21 16  2  0  0  0  0
 24 20  1  0  0  0  0
 25  6  1  0  0  0  0
 25 26  1  0  0  0  0
 27 25  1  0  0  0  0
 27 26  1  0  0  0  0
M  END
>  <minimizedAffinity>
-4.2481761

$$$$

 OpenBabel03252502213D

 27 29  0  0  1  0  0  0  0  0999 V2000
   37.6580   30.3030   41.2040 N   0  0  0  0  0  0  0  0  0  0  0  0
   36.4900   31.1020   40.9020 C   0  0  0  0  0  0  0  0  0  0  0  0
   36.9200   31.9150   39.6600 C   0  0  0  0  0  0  0  0  0  0  0  0
   38.0160   32.8660   40.0130 C   0  0  0  0  0  0  0  0  0  0  0  0
   39.0230   32.3300   40.9760 C   0  0  0  0  0  0  0  0  0  0  0  0
   38.9940   30.8450   41.1550 C   0  0  1  0  0  0  0  0  0  0  0  0
   35.6280   30.4820   40.6560 H   0  0  0  0  0  0  0  0  0  0  0  0
   36.2870   31.8420   41.6920 H   0  0  0  0  0  0  0  0  0  0  0  0
   36.0750   32.4420   39.2160 H   0  0  0  0  0  0  0  0  0  0  0  0
   37.3710   31.1400   38.9790 H   0  0  0  0  0  0  0  0  0  0  0  0
   38.4690   33.1950   39.0420 H   0  0  0  0  0  0  0  0  0  0  0  0
   37.5300   33.7950   40.4010 H   0  0  0  0  0  0  0  0  0  0  0  0
   40.0330   32.5990   40.6020 H   0  0  0  0  0  0  0  0  0  0  0  0
   38.9000   32.8800   41.9410 H   0  0  0  0  0  0  0  0  0  0  0  0
   39.5150   30.3850   40.2930 H   0  0  0  0  0  0  0  0  0  0  0  0
   37.8190   26.5600   41.2250 C   0  0  0  0  0  0  0  0  0  0  0  0
   37.9820   27.8680   40.7540 C   0  0  0  0  0  0  0  0  0  0  0  0
   37.5480   28.9240   41.5680 C   0  0  0  0  0  0  0  0  0  0  0  0
   36.9980   28.5780   42.7590 N   0  0  0  0  0  0  0  0  0  0  0  0
   36.8500   27.3040   43.1960 C   0  0  0  0  0  0  0  0  0  0  0  0
   37.2710   26.2990   42.4050 N   0  0  0  0  0  0  0  0  0  0  0  0
   38.1950   25.8450   40.5010 H   0  0  0  0  0  0  0  0  0  0  0  0
   38.4120   28.1630   39.8220 H   0  0  0  0  0  0  0  0  0  0  0  0
   36.4100   27.0830   44.1430 H   0  0  0  0  0  0  0  0  0  0  0  0
   39.6910   30.4120   42.4090 C   0  0  0  0  0  3  0  0  0  0  0  0
   40.9580   31.0340   42.8520 C   0  0  0  0  0  2  0  0  0  0  0  0
   40.9170   29.5880   42.4120 C   0  0  0  0  0  2  0  0  0  0  0  0
  1 18  1  0  0  0  0
  2  1  1  0  0  0  0
  2  8  1  0  0  0  0
  3  4  1  0  0  0  0
  3  2  1  0  0  0  0
  4 12  1  0  0  0  0
  4  5  1  0  0  0  0
  5  6  1  0  0  0  0
  5 14  1  0  0  0  0
  6 15  1  6  0  0  0
  6  1  1  0  0  0  0
  6 25  1  0  0  0  0
  7  2  1  0  0  0  0
  9  3  1  0  0  0  0
 10  3  1  0  0  0  0
 11  4  1  0  0  0  0
 13  5  1  0  0  0  0
 16 21  1  0  0  0  0
 17 16  2  0  0  0  0
 17 18  1  0  0  0  0
 18 19  2  0  0  0  0
 19 20  1  0  0  0  0
 20 24  1  0  0  0  0
 21 20  2  0  0  0  0
 22 16  1  0  0  0  0
 23 17  1  0  0  0  0
 25 27  1  0  0  0  0
 25 26  1  0  0  0  0
 27 26  1  0  0  0  0
M  END
>  <minimizedAffinity>
-4.17629719

$$$$

 OpenBabel03252502213D

 27 29  0  0  1  0  0  0  0  0999 V2000
   37.2510   29.6440   40.8750 N   0  0  0  0  0  0  0  0  0  0  0  0
   37.5230   31.0620   40.9640 C   0  0  0  0  0  0  0  0  0  0  0  0
   39.0460   31.1230   41.2160 C   0  0  0  0  0  0  0  0  0  0  0  0
   39.3780   30.5350   42.5480 C   0  0  0  0  0  0  0  0  0  0  0  0
   38.5790   29.3290   42.9150 C   0  0  0  0  0  0  0  0  0  0  0  0
   37.8460   28.6890   41.7780 C   0  0  1  0  0  0  0  0  0  0  0  0
   37.2830   31.5800   40.0350 H   0  0  0  0  0  0  0  0  0  0  0  0
   37.0510   31.5140   41.8510 H   0  0  0  0  0  0  0  0  0  0  0  0
   39.4230   32.1430   41.1360 H   0  0  0  0  0  0  0  0  0  0  0  0
   39.4720   30.4280   40.4400 H   0  0  0  0  0  0  0  0  0  0  0  0
   40.4830   30.3430   42.5380 H   0  0  0  0  0  0  0  0  0  0  0  0
   39.2630   31.3510   43.3030 H   0  0  0  0  0  0  0  0  0  0  0  0
   39.2740   28.5690   43.3310 H   0  0  0  0  0  0  0  0  0  0  0  0
   37.9000   29.6120   43.7570 H   0  0  0  0  0  0  0  0  0  0  0  0
   38.5700   28.0820   41.2010 H   0  0  0  0  0  0  0  0  0  0  0  0
   35.8310   27.7800   37.9510 C   0  0  0  0  0  0  0  0  0  0  0  0
   36.7880   28.2330   38.8670 C   0  0  0  0  0  0  0  0  0  0  0  0
   36.3740   29.1100   39.8790 C   0  0  0  0  0  0  0  0  0  0  0  0
   35.0590   29.4480   39.8800 N   0  0  0  0  0  0  0  0  0  0  0  0
   34.1500   28.9990   38.9830 C   0  0  0  0  0  0  0  0  0  0  0  0
   34.5610   28.1560   38.0160 N   0  0  0  0  0  0  0  0  0  0  0  0
   36.2850   27.1120   37.2260 H   0  0  0  0  0  0  0  0  0  0  0  0
   37.8260   27.9800   38.8850 H   0  0  0  0  0  0  0  0  0  0  0  0
   33.1250   29.2950   39.0260 H   0  0  0  0  0  0  0  0  0  0  0  0
   36.7470   27.7850   42.2490 C   0  0  0  0  0  3  0  0  0  0  0  0
   36.5770   27.4440   43.6790 C   0  0  0  0  0  2  0  0  0  0  0  0
   36.9720   26.3880   42.6700 C   0  0  0  0  0  2  0  0  0  0  0  0
  1  2  1  0  0  0  0
  1  6  1  0  0  0  0
  2  3  1  0  0  0  0
  2  8  1  0  0  0  0
  3  4  1  0  0  0  0
  4  5  1  0  0  0  0
  4 12  1  0  0  0  0
  5 13  1  0  0  0  0
  5 14  1  0  0  0  0
  6 15  1  6  0  0  0
  6 25  1  0  0  0  0
  6  5  1  0  0  0  0
  7  2  1  0  0  0  0
  9  3  1  0  0  0  0
 10  3  1  0  0  0  0
 11  4  1  0  0  0  0
 16 21  2  0  0  0  0
 16 17  1  0  0  0  0
 17 23  1  0  0  0  0
 17 18  2  0  0  0  0
 18 19  1  0  0  0  0
 18  1  1  0  0  0  0
 20 24  1  0  0  0  0
 20 19  2  0  0  0  0
 21 20  1  0  0  0  0
 22 16  1  0  0  0  0
 25 27  1  0  0  0  0
 25 26  1  0  0  0  0
 27 26  1  0  0  0  0
M  END
>  <minimizedAffinity>
-4.15109682

$$$$

 OpenBabel03252502213D

 27 29  0  0  1  0  0  0  0  0999 V2000
   38.0200   29.4680   40.8370 N   0  0  0  0  0  0  0  0  0  0  0  0
   37.8530   29.4770   39.4010 C   0  0  0  0  0  0  0  0  0  0  0  0
   36.5290   30.2490   39.1960 C   0  0  0  0  0  0  0  0  0  0  0  0
   35.3830   29.4750   39.7600 C   0  0  0  0  0  0  0  0  0  0  0  0
   35.6770   28.7650   41.0390 C   0  0  0  0  0  0  0  0  0  0  0  0
   36.9210   29.2150   41.7380 C   0  0  1  0  0  0  0  0  0  0  0  0
   38.6660   30.0040   38.9020 H   0  0  0  0  0  0  0  0  0  0  0  0
   37.6780   28.4650   39.0030 H   0  0  0  0  0  0  0  0  0  0  0  0
   36.3620   30.4820   38.1440 H   0  0  0  0  0  0  0  0  0  0  0  0
   36.6520   31.1620   39.8420 H   0  0  0  0  0  0  0  0  0  0  0  0
   34.5300   30.1980   39.8450 H   0  0  0  0  0  0  0  0  0  0  0  0
   35.0440   28.7670   38.9640 H   0  0  0  0  0  0  0  0  0  0  0  0
   34.8270   28.9380   41.7320 H   0  0  0  0  0  0  0  0  0  0  0  0
   35.6780   27.6670   40.8290 H   0  0  0  0  0  0  0  0  0  0  0  0
   36.6940   30.1600   42.2690 H   0  0  0  0  0  0  0  0  0  0  0  0
   40.8720   30.9770   42.7430 C   0  0  0  0  0  0  0  0  0  0  0  0
   39.5870   30.8560   42.1990 C   0  0  0  0  0  0  0  0  0  0  0  0
   39.2910   29.7110   41.4450 C   0  0  0  0  0  0  0  0  0  0  0  0
   40.2950   28.8070   41.3080 N   0  0  0  0  0  0  0  0  0  0  0  0
   41.5310   28.9440   41.8430 C   0  0  0  0  0  0  0  0  0  0  0  0
   41.8020   30.0480   42.5640 N   0  0  0  0  0  0  0  0  0  0  0  0
   40.9640   31.9030   43.2990 H   0  0  0  0  0  0  0  0  0  0  0  0
   38.7850   31.5540   42.2950 H   0  0  0  0  0  0  0  0  0  0  0  0
   42.2870   28.2040   41.7050 H   0  0  0  0  0  0  0  0  0  0  0  0
   37.3990   28.2150   42.7460 C   0  0  0  0  0  3  0  0  0  0  0  0
   37.1910   26.7620   42.5620 C   0  0  0  0  0  2  0  0  0  0  0  0
   36.4960   27.5100   43.6780 C   0  0  0  0  0  2  0  0  0  0  0  0
  1 18  1  0  0  0  0
  1  6  1  0  0  0  0
  2  1  1  0  0  0  0
  3  2  1  0  0  0  0
  3  4  1  0  0  0  0
  3 10  1  0  0  0  0
  4 11  1  0  0  0  0
  4  5  1  0  0  0  0
  5 13  1  0  0  0  0
  5  6  1  0  0  0  0
  6 15  1  1  0  0  0
  6 25  1  0  0  0  0
  7  2  1  0  0  0  0
  8  2  1  0  0  0  0
  9  3  1  0  0  0  0
 12  4  1  0  0  0  0
 14  5  1  0  0  0  0
 16 22  1  0  0  0  0
 17 23  1  0  0  0  0
 17 16  2  0  0  0  0
 18 17  1  0  0  0  0
 19 18  2  0  0  0  0
 19 20  1  0  0  0  0
 20 21  2  0  0  0  0
 21 16  1  0  0  0  0
 24 20  1  0  0  0  0
 25 27  1  0  0  0  0
 26 25  1  0  0  0  0
 26 27  1  0  0  0  0
M  END
>  <minimizedAffinity>
-4.13994551

$$$$
