
 OpenBabel03252500473D

 20 22  0  0  0  0  0  0  0  0999 V2000
   37.5580   27.1470   40.7780 C   0  0  0  0  0  0  0  0  0  0  0  0
   37.1720   26.7980   42.0750 C   0  0  0  0  0  0  0  0  0  0  0  0
   37.0060   27.8130   43.0230 C   0  0  0  0  0  0  0  0  0  0  0  0
   37.2340   29.1110   42.6250 N   0  0  0  0  0  0  0  0  0  0  0  0
   37.6050   29.4000   41.3640 C   0  0  0  0  0  0  0  0  0  0  0  0
   37.7710   28.4370   40.4330 N   0  0  0  0  0  0  0  0  0  0  0  0
   37.7020   26.3920   40.0010 H   0  0  0  0  0  0  0  0  0  0  0  0
   36.7110   27.5710   44.0180 H   0  0  0  0  0  0  0  0  0  0  0  0
   37.8400   30.7850   40.9710 C   0  0  0  0  0  0  0  0  0  0  0  0
   36.9690   31.4610   40.1670 C   0  0  0  0  0  0  0  0  0  0  0  0
   37.1710   32.7740   39.7800 C   0  0  0  0  0  0  0  0  0  0  0  0
   38.3090   33.3810   40.2490 N   0  0  0  0  0  0  0  0  0  0  0  0
   39.1480   32.7010   41.0340 C   0  0  0  0  0  0  0  0  0  0  0  0
   38.9730   31.4150   41.4270 N   0  0  0  0  0  0  0  0  0  0  0  0
   36.0860   30.9390   39.8240 H   0  0  0  0  0  0  0  0  0  0  0  0
   36.4450   33.2510   39.1450 H   0  0  0  0  0  0  0  0  0  0  0  0
   40.0480   33.1760   41.4060 H   0  0  0  0  0  0  0  0  0  0  0  0
   36.9460   25.3680   42.4220 C   0  0  0  0  0  3  0  0  0  0  0  0
   36.7820   24.3610   41.3800 C   0  0  0  0  0  2  0  0  0  0  0  0
   38.0610   24.3980   42.1740 C   0  0  0  0  0  2  0  0  0  0  0  0
  1  2  1  0  0  0  0
  2 18  1  0  0  0  0
  2  3  2  0  0  0  0
  3  8  1  0  0  0  0
  4  3  1  0  0  0  0
  5  4  2  0  0  0  0
  6  1  2  0  0  0  0
  6  5  1  0  0  0  0
  7  1  1  0  0  0  0
  9  5  1  0  0  0  0
  9 14  1  0  0  0  0
 10  9  2  0  0  0  0
 11 10  1  0  0  0  0
 11 12  2  0  0  0  0
 12 13  1  0  0  0  0
 13 17  1  0  0  0  0
 13 14  2  0  0  0  0
 15 10  1  0  0  0  0
 16 11  1  0  0  0  0
 19 20  1  0  0  0  0
 19 18  1  0  0  0  0
 20 18  1  0  0  0  0
M  END
>  <minimizedAffinity>
-4.5555644

$$$$

 OpenBabel03252500473D

 20 22  0  0  0  0  0  0  0  0999 V2000
   39.8710   27.7860   41.8930 C   0  0  0  0  0  0  0  0  0  0  0  0
   39.1660   27.3730   43.0260 C   0  0  0  0  0  0  0  0  0  0  0  0
   38.1600   28.2030   43.5320 C   0  0  0  0  0  0  0  0  0  0  0  0
   37.9160   29.3920   42.8810 N   0  0  0  0  0  0  0  0  0  0  0  0
   38.6210   29.7480   41.7910 C   0  0  0  0  0  0  0  0  0  0  0  0
   39.5960   28.9630   41.2860 N   0  0  0  0  0  0  0  0  0  0  0  0
   40.6660   27.1750   41.4590 H   0  0  0  0  0  0  0  0  0  0  0  0
   37.6080   27.9090   44.3950 H   0  0  0  0  0  0  0  0  0  0  0  0
   38.3410   31.0140   41.1230 C   0  0  0  0  0  0  0  0  0  0  0  0
   37.3100   31.1470   40.2390 C   0  0  0  0  0  0  0  0  0  0  0  0
   37.0250   32.3360   39.5930 C   0  0  0  0  0  0  0  0  0  0  0  0
   37.8420   33.4000   39.8830 N   0  0  0  0  0  0  0  0  0  0  0  0
   38.8470   33.2480   40.7490 C   0  0  0  0  0  0  0  0  0  0  0  0
   39.1450   32.0950   41.3960 N   0  0  0  0  0  0  0  0  0  0  0  0
   36.6940   30.2800   40.0450 H   0  0  0  0  0  0  0  0  0  0  0  0
   36.1960   32.3760   38.9080 H   0  0  0  0  0  0  0  0  0  0  0  0
   39.4940   34.0850   40.9810 H   0  0  0  0  0  0  0  0  0  0  0  0
   39.4930   26.0710   43.6700 C   0  0  0  0  0  3  0  0  0  0  0  0
   39.5280   24.8380   42.8910 C   0  0  0  0  0  2  0  0  0  0  0  0
   40.8210   25.4490   43.3640 C   0  0  0  0  0  2  0  0  0  0  0  0
  1  2  1  0  0  0  0
  2  3  2  0  0  0  0
  2 18  1  0  0  0  0
  3  8  1  0  0  0  0
  4  3  1  0  0  0  0
  5  4  2  0  0  0  0
  6  5  1  0  0  0  0
  6  1  2  0  0  0  0
  7  1  1  0  0  0  0
  9 14  1  0  0  0  0
  9  5  1  0  0  0  0
 10  9  2  0  0  0  0
 11 12  2  0  0  0  0
 11 10  1  0  0  0  0
 12 13  1  0  0  0  0
 13 17  1  0  0  0  0
 13 14  2  0  0  0  0
 15 10  1  0  0  0  0
 16 11  1  0  0  0  0
 19 20  1  0  0  0  0
 19 18  1  0  0  0  0
 20 18  1  0  0  0  0
M  END
>  <minimizedAffinity>
-4.23212004

$$$$

 OpenBabel03252500473D

 20 22  0  0  0  0  0  0  0  0999 V2000
   38.6550   30.1380   40.3730 C   0  0  0  0  0  0  0  0  0  0  0  0
   37.3520   30.5830   40.6110 C   0  0  0  0  0  0  0  0  0  0  0  0
   36.5110   29.8030   41.4130 C   0  0  0  0  0  0  0  0  0  0  0  0
   37.0170   28.6320   41.9300 N   0  0  0  0  0  0  0  0  0  0  0  0
   38.2800   28.2440   41.6750 C   0  0  0  0  0  0  0  0  0  0  0  0
   39.1080   28.9800   40.9030 N   0  0  0  0  0  0  0  0  0  0  0  0
   39.3510   30.7090   39.7530 H   0  0  0  0  0  0  0  0  0  0  0  0
   35.5130   30.1220   41.6080 H   0  0  0  0  0  0  0  0  0  0  0  0
   38.7880   26.9970   42.2360 C   0  0  0  0  0  0  0  0  0  0  0  0
   39.8140   26.9800   43.1340 C   0  0  0  0  0  0  0  0  0  0  0  0
   40.3140   25.8110   43.6790 C   0  0  0  0  0  0  0  0  0  0  0  0
   39.7210   24.6430   43.2690 N   0  0  0  0  0  0  0  0  0  0  0  0
   38.7190   24.6820   42.3880 C   0  0  0  0  0  0  0  0  0  0  0  0
   38.2120   25.8130   41.8400 N   0  0  0  0  0  0  0  0  0  0  0  0
   40.2480   27.9260   43.4270 H   0  0  0  0  0  0  0  0  0  0  0  0
   41.1250   25.8650   44.3850 H   0  0  0  0  0  0  0  0  0  0  0  0
   38.2480   23.7630   42.0610 H   0  0  0  0  0  0  0  0  0  0  0  0
   36.8840   31.8620   40.0120 C   0  0  0  0  0  3  0  0  0  0  0  0
   37.7510   33.0350   39.9810 C   0  0  0  0  0  2  0  0  0  0  0  0
   37.4780   32.2870   38.7030 C   0  0  0  0  0  2  0  0  0  0  0  0
  1  2  2  0  0  0  0
  1  6  1  0  0  0  0
  2  3  1  0  0  0  0
  3  8  1  0  0  0  0
  3  4  2  0  0  0  0
  5  4  1  0  0  0  0
  5  9  1  0  0  0  0
  6  5  2  0  0  0  0
  7  1  1  0  0  0  0
  9 10  1  0  0  0  0
 10 15  1  0  0  0  0
 10 11  2  0  0  0  0
 11 16  1  0  0  0  0
 12 11  1  0  0  0  0
 13 12  2  0  0  0  0
 14  9  2  0  0  0  0
 14 13  1  0  0  0  0
 17 13  1  0  0  0  0
 18  2  1  0  0  0  0
 19 18  1  0  0  0  0
 20 19  1  0  0  0  0
 20 18  1  0  0  0  0
M  END
>  <minimizedAffinity>
-4.17093611

$$$$

 OpenBabel03252500473D

 20 22  0  0  0  0  0  0  0  0999 V2000
   38.5330   28.6320   40.8160 C   0  0  0  0  0  0  0  0  0  0  0  0
   37.2950   28.8670   41.4210 C   0  0  0  0  0  0  0  0  0  0  0  0
   36.8160   30.1800   41.4840 C   0  0  0  0  0  0  0  0  0  0  0  0
   37.5950   31.1780   40.9410 N   0  0  0  0  0  0  0  0  0  0  0  0
   38.7810   30.9040   40.3680 C   0  0  0  0  0  0  0  0  0  0  0  0
   39.2630   29.6440   40.2970 N   0  0  0  0  0  0  0  0  0  0  0  0
   38.9520   27.6250   40.7430 H   0  0  0  0  0  0  0  0  0  0  0  0
   35.8750   30.3840   41.9400 H   0  0  0  0  0  0  0  0  0  0  0  0
   39.5850   31.9810   39.8020 C   0  0  0  0  0  0  0  0  0  0  0  0
   40.2930   31.8190   38.6470 C   0  0  0  0  0  0  0  0  0  0  0  0
   41.0620   32.8250   38.0920 C   0  0  0  0  0  0  0  0  0  0  0  0
   41.0850   34.0200   38.7660 N   0  0  0  0  0  0  0  0  0  0  0  0
   40.3860   34.1570   39.8960 C   0  0  0  0  0  0  0  0  0  0  0  0
   39.6250   33.1880   40.4590 N   0  0  0  0  0  0  0  0  0  0  0  0
   40.2410   30.8590   38.1520 H   0  0  0  0  0  0  0  0  0  0  0  0
   41.5960   32.6330   37.1770 H   0  0  0  0  0  0  0  0  0  0  0  0
   40.4020   35.0980   40.4320 H   0  0  0  0  0  0  0  0  0  0  0  0
   36.5170   27.7300   41.9840 C   0  0  0  0  0  3  0  0  0  0  0  0
   37.1900   26.5440   42.5010 C   0  0  0  0  0  2  0  0  0  0  0  0
   36.5580   27.5130   43.4660 C   0  0  0  0  0  2  0  0  0  0  0  0
  1  2  1  0  0  0  0
  2  3  2  0  0  0  0
  2 18  1  0  0  0  0
  3  8  1  0  0  0  0
  4  3  1  0  0  0  0
  5  4  2  0  0  0  0
  6  5  1  0  0  0  0
  6  1  2  0  0  0  0
  7  1  1  0  0  0  0
  9  5  1  0  0  0  0
  9 14  1  0  0  0  0
 10  9  2  0  0  0  0
 11 10  1  0  0  0  0
 11 12  2  0  0  0  0
 12 13  1  0  0  0  0
 13 17  1  0  0  0  0
 13 14  2  0  0  0  0
 15 10  1  0  0  0  0
 16 11  1  0  0  0  0
 18 19  1  0  0  0  0
 18 20  1  0  0  0  0
 19 20  1  0  0  0  0
M  END
>  <minimizedAffinity>
-4.14239168

$$$$

 OpenBabel03252500473D

 20 22  0  0  0  0  0  0  0  0999 V2000
   35.7280   28.8920   41.0310 C   0  0  0  0  0  0  0  0  0  0  0  0
   36.5590   27.7720   41.1160 C   0  0  0  0  0  0  0  0  0  0  0  0
   36.7070   26.9580   39.9880 C   0  0  0  0  0  0  0  0  0  0  0  0
   36.0200   27.3060   38.8460 N   0  0  0  0  0  0  0  0  0  0  0  0
   35.2310   28.3950   38.8110 C   0  0  0  0  0  0  0  0  0  0  0  0
   35.0730   29.1950   39.8870 N   0  0  0  0  0  0  0  0  0  0  0  0
   35.5780   29.5600   41.8830 H   0  0  0  0  0  0  0  0  0  0  0  0
   37.3360   26.0990   40.0290 H   0  0  0  0  0  0  0  0  0  0  0  0
   34.5150   28.7380   37.5870 C   0  0  0  0  0  0  0  0  0  0  0  0
   35.1510   28.8220   36.3830 C   0  0  0  0  0  0  0  0  0  0  0  0
   34.4950   29.1470   35.2100 C   0  0  0  0  0  0  0  0  0  0  0  0
   33.1470   29.3870   35.3100 N   0  0  0  0  0  0  0  0  0  0  0  0
   32.5440   29.3010   36.4990 C   0  0  0  0  0  0  0  0  0  0  0  0
   33.1650   28.9840   37.6610 N   0  0  0  0  0  0  0  0  0  0  0  0
   36.2140   28.6230   36.3560 H   0  0  0  0  0  0  0  0  0  0  0  0
   35.0540   29.1950   34.2910 H   0  0  0  0  0  0  0  0  0  0  0  0
   31.4810   29.4900   36.5820 H   0  0  0  0  0  0  0  0  0  0  0  0
   37.2650   27.4670   42.3900 C   0  0  0  0  0  3  0  0  0  0  0  0
   37.4630   28.4990   43.4020 C   0  0  0  0  0  2  0  0  0  0  0  0
   36.4540   27.4090   43.6490 C   0  0  0  0  0  2  0  0  0  0  0  0
  1  2  1  0  0  0  0
  1  7  1  0  0  0  0
  2 18  1  0  0  0  0
  3  8  1  0  0  0  0
  3  2  2  0  0  0  0
  4  3  1  0  0  0  0
  5  4  2  0  0  0  0
  5  6  1  0  0  0  0
  6  1  2  0  0  0  0
  9 14  1  0  0  0  0
  9  5  1  0  0  0  0
 10  9  2  0  0  0  0
 11 12  2  0  0  0  0
 11 10  1  0  0  0  0
 12 13  1  0  0  0  0
 13 17  1  0  0  0  0
 13 14  2  0  0  0  0
 15 10  1  0  0  0  0
 16 11  1  0  0  0  0
 18 19  1  0  0  0  0
 18 20  1  0  0  0  0
 19 20  1  0  0  0  0
M  END
>  <minimizedAffinity>
-4.11691475

$$$$

 OpenBabel03252500473D

 20 22  0  0  0  0  0  0  0  0999 V2000
   36.6780   27.7700   41.0540 C   0  0  0  0  0  0  0  0  0  0  0  0
   36.8980   28.9350   41.7930 C   0  0  0  0  0  0  0  0  0  0  0  0
   36.4470   30.1540   41.2760 C   0  0  0  0  0  0  0  0  0  0  0  0
   35.8050   30.1410   40.0580 N   0  0  0  0  0  0  0  0  0  0  0  0
   35.6150   28.9940   39.3810 C   0  0  0  0  0  0  0  0  0  0  0  0
   36.0420   27.8060   39.8610 N   0  0  0  0  0  0  0  0  0  0  0  0
   37.0110   26.7930   41.4120 H   0  0  0  0  0  0  0  0  0  0  0  0
   36.6030   31.0560   41.8230 H   0  0  0  0  0  0  0  0  0  0  0  0
   34.9330   29.0110   38.0920 C   0  0  0  0  0  0  0  0  0  0  0  0
   33.5750   28.9280   37.9980 C   0  0  0  0  0  0  0  0  0  0  0  0
   32.9050   28.9410   36.7880 C   0  0  0  0  0  0  0  0  0  0  0  0
   33.6820   29.0430   35.6600 N   0  0  0  0  0  0  0  0  0  0  0  0
   35.0100   29.1220   35.7760 C   0  0  0  0  0  0  0  0  0  0  0  0
   35.6890   29.1110   36.9490 N   0  0  0  0  0  0  0  0  0  0  0  0
   33.0060   28.8500   38.9150 H   0  0  0  0  0  0  0  0  0  0  0  0
   31.8310   28.8740   36.7810 H   0  0  0  0  0  0  0  0  0  0  0  0
   35.6270   29.2020   34.8890 H   0  0  0  0  0  0  0  0  0  0  0  0
   37.6010   28.8600   43.1030 C   0  0  0  0  0  3  0  0  0  0  0  0
   37.9750   27.5740   43.6800 C   0  0  0  0  0  2  0  0  0  0  0  0
   39.0460   28.4640   43.1050 C   0  0  0  0  0  2  0  0  0  0  0  0
  1  7  1  0  0  0  0
  1  2  1  0  0  0  0
  2 18  1  0  0  0  0
  3  2  2  0  0  0  0
  3  8  1  0  0  0  0
  4  3  1  0  0  0  0
  5  6  1  0  0  0  0
  5  4  2  0  0  0  0
  6  1  2  0  0  0  0
  9  5  1  0  0  0  0
 10  9  1  0  0  0  0
 10 15  1  0  0  0  0
 11 10  2  0  0  0  0
 12 13  2  0  0  0  0
 12 11  1  0  0  0  0
 13 14  1  0  0  0  0
 14  9  2  0  0  0  0
 16 11  1  0  0  0  0
 17 13  1  0  0  0  0
 18 20  1  0  0  0  0
 18 19  1  0  0  0  0
 20 19  1  0  0  0  0
M  END
>  <minimizedAffinity>
-4.01536894

$$$$

 OpenBabel03252500473D

 20 22  0  0  0  0  0  0  0  0999 V2000
   39.2700   28.0890   41.0880 C   0  0  0  0  0  0  0  0  0  0  0  0
   38.6020   28.4910   42.2480 C   0  0  0  0  0  0  0  0  0  0  0  0
   38.4580   29.8590   42.5020 C   0  0  0  0  0  0  0  0  0  0  0  0
   38.9860   30.7440   41.5880 N   0  0  0  0  0  0  0  0  0  0  0  0
   39.6220   30.3110   40.4840 C   0  0  0  0  0  0  0  0  0  0  0  0
   39.7730   28.9950   40.2190 N   0  0  0  0  0  0  0  0  0  0  0  0
   39.4090   27.0330   40.8440 H   0  0  0  0  0  0  0  0  0  0  0  0
   37.9520   30.1890   43.3790 H   0  0  0  0  0  0  0  0  0  0  0  0
   40.1730   31.2710   39.5340 C   0  0  0  0  0  0  0  0  0  0  0  0
   40.3810   32.5760   39.8730 C   0  0  0  0  0  0  0  0  0  0  0  0
   40.9000   33.5060   38.9900 C   0  0  0  0  0  0  0  0  0  0  0  0
   41.2040   33.0500   37.7310 N   0  0  0  0  0  0  0  0  0  0  0  0
   40.9910   31.7690   37.4210 C   0  0  0  0  0  0  0  0  0  0  0  0
   40.4840   30.8400   38.2670 N   0  0  0  0  0  0  0  0  0  0  0  0
   40.1260   32.8870   40.8770 H   0  0  0  0  0  0  0  0  0  0  0  0
   41.0420   34.5210   39.3190 H   0  0  0  0  0  0  0  0  0  0  0  0
   41.2290   31.4050   36.4290 H   0  0  0  0  0  0  0  0  0  0  0  0
   38.0610   27.4680   43.1840 C   0  0  0  0  0  3  0  0  0  0  0  0
   36.6910   27.5550   43.6780 C   0  0  0  0  0  2  0  0  0  0  0  0
   37.0410   26.5020   42.6600 C   0  0  0  0  0  2  0  0  0  0  0  0
  1  2  1  0  0  0  0
  2  3  2  0  0  0  0
  2 18  1  0  0  0  0
  3  8  1  0  0  0  0
  4  3  1  0  0  0  0
  5  4  2  0  0  0  0
  6  5  1  0  0  0  0
  6  1  2  0  0  0  0
  7  1  1  0  0  0  0
  9 10  1  0  0  0  0
  9  5  1  0  0  0  0
 10 15  1  0  0  0  0
 11 16  1  0  0  0  0
 11 10  2  0  0  0  0
 12 11  1  0  0  0  0
 13 12  2  0  0  0  0
 13 14  1  0  0  0  0
 14  9  2  0  0  0  0
 17 13  1  0  0  0  0
 18 19  1  0  0  0  0
 20 18  1  0  0  0  0
 20 19  1  0  0  0  0
M  END
>  <minimizedAffinity>
-3.95621705

$$$$

 OpenBabel03252500473D

 20 22  0  0  0  0  0  0  0  0999 V2000
   37.7390   29.9820   39.4590 C   0  0  0  0  0  0  0  0  0  0  0  0
   37.2510   30.7930   40.4870 C   0  0  0  0  0  0  0  0  0  0  0  0
   36.6230   30.1870   41.5810 C   0  0  0  0  0  0  0  0  0  0  0  0
   36.5190   28.8140   41.5860 N   0  0  0  0  0  0  0  0  0  0  0  0
   37.0050   28.0730   40.5730 C   0  0  0  0  0  0  0  0  0  0  0  0
   37.6140   28.6370   39.5080 N   0  0  0  0  0  0  0  0  0  0  0  0
   38.2360   30.4060   38.5830 H   0  0  0  0  0  0  0  0  0  0  0  0
   36.2430   30.7850   42.3770 H   0  0  0  0  0  0  0  0  0  0  0  0
   36.8790   26.6200   40.6050 C   0  0  0  0  0  0  0  0  0  0  0  0
   37.1220   25.9040   41.7400 C   0  0  0  0  0  0  0  0  0  0  0  0
   37.0110   24.5260   41.7950 C   0  0  0  0  0  0  0  0  0  0  0  0
   36.6370   23.8960   40.6350 N   0  0  0  0  0  0  0  0  0  0  0  0
   36.4050   24.6170   39.5340 C   0  0  0  0  0  0  0  0  0  0  0  0
   36.5070   25.9660   39.4550 N   0  0  0  0  0  0  0  0  0  0  0  0
   37.4130   26.4460   42.6300 H   0  0  0  0  0  0  0  0  0  0  0  0
   37.2160   24.0190   42.7230 H   0  0  0  0  0  0  0  0  0  0  0  0
   36.1110   24.1240   38.6160 H   0  0  0  0  0  0  0  0  0  0  0  0
   37.4050   32.2710   40.4030 C   0  0  0  0  0  3  0  0  0  0  0  0
   38.6060   32.8670   39.8300 C   0  0  0  0  0  2  0  0  0  0  0  0
   37.3180   32.9120   39.0510 C   0  0  0  0  0  2  0  0  0  0  0  0
  1  6  2  0  0  0  0
  1  2  1  0  0  0  0
  2  3  2  0  0  0  0
  3  4  1  0  0  0  0
  3  8  1  0  0  0  0
  5  9  1  0  0  0  0
  5  4  2  0  0  0  0
  6  5  1  0  0  0  0
  7  1  1  0  0  0  0
  9 10  1  0  0  0  0
 10 11  2  0  0  0  0
 10 15  1  0  0  0  0
 11 16  1  0  0  0  0
 12 11  1  0  0  0  0
 13 12  2  0  0  0  0
 14 13  1  0  0  0  0
 14  9  2  0  0  0  0
 17 13  1  0  0  0  0
 18  2  1  0  0  0  0
 19 18  1  0  0  0  0
 20 19  1  0  0  0  0
 20 18  1  0  0  0  0
M  END
>  <minimizedAffinity>
-3.94187498

$$$$

 OpenBabel03252500473D

 20 22  0  0  0  0  0  0  0  0999 V2000
   38.6530   27.4790   40.4420 C   0  0  0  0  0  0  0  0  0  0  0  0
   37.4290   26.8980   40.7840 C   0  0  0  0  0  0  0  0  0  0  0  0
   36.3230   27.7300   40.9850 C   0  0  0  0  0  0  0  0  0  0  0  0
   36.4990   29.0870   40.8330 N   0  0  0  0  0  0  0  0  0  0  0  0
   37.6980   29.6020   40.5020 C   0  0  0  0  0  0  0  0  0  0  0  0
   38.7790   28.8180   40.3040 N   0  0  0  0  0  0  0  0  0  0  0  0
   39.5480   26.8740   40.2760 H   0  0  0  0  0  0  0  0  0  0  0  0
   35.3790   27.3090   41.2460 H   0  0  0  0  0  0  0  0  0  0  0  0
   37.8550   31.0440   40.3490 C   0  0  0  0  0  0  0  0  0  0  0  0
   38.7830   31.7450   41.0630 C   0  0  0  0  0  0  0  0  0  0  0  0
   38.9500   33.1120   40.9360 C   0  0  0  0  0  0  0  0  0  0  0  0
   38.1260   33.7480   40.0420 N   0  0  0  0  0  0  0  0  0  0  0  0
   37.2240   33.0430   39.3540 C   0  0  0  0  0  0  0  0  0  0  0  0
   37.0410   31.7050   39.4600 N   0  0  0  0  0  0  0  0  0  0  0  0
   39.4090   31.1980   41.7540 H   0  0  0  0  0  0  0  0  0  0  0  0
   39.7020   33.6060   41.5280 H   0  0  0  0  0  0  0  0  0  0  0  0
   36.5720   33.5420   38.6480 H   0  0  0  0  0  0  0  0  0  0  0  0
   37.3250   25.4200   40.9290 C   0  0  0  0  0  3  0  0  0  0  0  0
   38.3040   24.6730   41.7100 C   0  0  0  0  0  2  0  0  0  0  0  0
   36.9160   24.8700   42.2610 C   0  0  0  0  0  2  0  0  0  0  0  0
  1  2  1  0  0  0  0
  2 18  1  0  0  0  0
  2  3  2  0  0  0  0
  3  8  1  0  0  0  0
  4  3  1  0  0  0  0
  5  4  2  0  0  0  0
  6  1  2  0  0  0  0
  6  5  1  0  0  0  0
  7  1  1  0  0  0  0
  9  5  1  0  0  0  0
  9 10  1  0  0  0  0
 10 15  1  0  0  0  0
 11 10  2  0  0  0  0
 11 16  1  0  0  0  0
 12 11  1  0  0  0  0
 13 14  1  0  0  0  0
 13 12  2  0  0  0  0
 14  9  2  0  0  0  0
 17 13  1  0  0  0  0
 18 19  1  0  0  0  0
 18 20  1  0  0  0  0
 19 20  1  0  0  0  0
M  END
>  <minimizedAffinity>
-3.91561079

$$$$
