
 OpenBabel03252509163D

 19 21  0  0  0  0  0  0  0  0999 V2000
   45.8870   33.1520   46.1720 C   0  0  0  0  0  0  0  0  0  0  0  0
   45.3140   32.9930   47.4580 C   0  0  0  0  0  0  0  0  0  0  0  0
   45.7080   31.9690   48.2400 C   0  0  0  0  0  0  0  0  0  0  0  0
   46.6860   31.0800   47.7450 C   0  0  0  0  0  0  0  0  0  0  0  0
   47.0460   31.7560   46.0850 S   0  0  0  0  0  0  0  0  0  0  0  0
   44.5610   33.6950   47.8170 H   0  0  0  0  0  0  0  0  0  0  0  0
   45.3750   31.7270   49.2080 H   0  0  0  0  0  0  0  0  0  0  0  0
   44.4640   36.1460   44.4900 C   0  0  0  0  0  0  0  0  0  0  0  0
   45.1240   36.0540   43.2370 C   0  0  0  0  0  0  0  0  0  0  0  0
   46.0130   34.9800   43.0400 C   0  0  0  0  0  0  0  0  0  0  0  0
   46.1860   34.0900   44.0680 N   0  0  0  0  0  0  0  0  0  0  0  0
   45.5290   34.2280   45.2430 C   0  0  0  0  0  0  0  0  0  0  0  0
   44.6670   35.2540   45.4600 N   0  0  0  0  0  0  0  0  0  0  0  0
   43.7790   36.9660   44.6540 H   0  0  0  0  0  0  0  0  0  0  0  0
   44.9710   36.7680   42.4400 H   0  0  0  0  0  0  0  0  0  0  0  0
   46.5570   34.8330   42.1180 H   0  0  0  0  0  0  0  0  0  0  0  0
   47.3630   29.8730   48.2740 C   0  0  0  0  0  3  0  0  0  0  0  0
   47.5880   28.7080   47.3210 C   0  0  0  0  0  2  0  0  0  0  0  0
   48.7220   29.5940   47.8190 C   0  0  0  0  0  2  0  0  0  0  0  0
  1  2  2  0  0  0  0
  2  6  1  0  0  0  0
  2  3  1  0  0  0  0
  3  7  1  0  0  0  0
  4  3  2  0  0  0  0
  4 17  1  0  0  0  0
  5  1  1  0  0  0  0
  5  4  1  0  0  0  0
  8 14  1  0  0  0  0
  8 13  1  0  0  0  0
  9  8  2  0  0  0  0
 10  9  1  0  0  0  0
 10 11  2  0  0  0  0
 11 12  1  0  0  0  0
 12 13  2  0  0  0  0
 12  1  1  0  0  0  0
 15  9  1  0  0  0  0
 16 10  1  0  0  0  0
 18 19  1  0  0  0  0
 18 17  1  0  0  0  0
 19 17  1  0  0  0  0
M  END
>  <minimizedAffinity>
-4.21777153

>  <minimizedRMSD>
0.712248504

$$$$
