
 OpenBabel03252509183D

 35 38  0  0  1  0  0  0  0  0999 V2000
   37.6910   25.8600   41.5970 C   0  0  1  0  0  0  0  0  0  0  0  0
   36.7460   25.3060   40.5870 C   0  0  0  0  0  0  0  0  0  0  0  0
   37.2770   24.1720   39.7740 C   0  0  0  0  0  0  0  0  0  0  0  0
   38.0730   23.1790   40.5790 C   0  0  0  0  0  0  0  0  0  0  0  0
   39.0210   23.8310   41.5590 C   0  0  0  0  0  0  0  0  0  0  0  0
   39.1040   25.3280   41.2680 C   0  0  2  0  0  0  0  0  0  0  0  0
   37.4970   25.4410   42.6100 H   0  0  0  0  0  0  0  0  0  0  0  0
   35.8170   24.9800   41.1020 H   0  0  0  0  0  0  0  0  0  0  0  0
   36.4000   26.0900   39.8500 H   0  0  0  0  0  0  0  0  0  0  0  0
   36.3870   23.6150   39.3880 H   0  0  0  0  0  0  0  0  0  0  0  0
   37.8060   24.5680   38.8900 H   0  0  0  0  0  0  0  0  0  0  0  0
   38.7130   22.6120   39.8470 H   0  0  0  0  0  0  0  0  0  0  0  0
   37.4240   22.4180   41.0540 H   0  0  0  0  0  0  0  0  0  0  0  0
   40.0120   23.3630   41.5770 H   0  0  0  0  0  0  0  0  0  0  0  0
   38.5680   23.7390   42.5810 H   0  0  0  0  0  0  0  0  0  0  0  0
   39.3730   25.5360   40.2310 H   0  0  0  0  0  0  0  0  0  0  0  0
   37.7400   29.9340   41.1230 C   0  0  0  0  0  0  0  0  0  0  0  0
   37.3910   29.5480   42.4260 C   0  0  0  0  0  0  0  0  0  0  0  0
   37.3440   28.2330   42.7060 C   0  0  0  0  0  0  0  0  0  0  0  0
   37.6410   27.2880   41.7030 C   0  0  0  0  0  0  0  0  0  0  0  0
   38.0140   28.3370   40.2590 S   0  0  0  0  0  0  0  0  0  0  0  0
   37.1640   30.2740   43.1920 H   0  0  0  0  0  0  0  0  0  0  0  0
   37.0990   27.7470   43.6370 H   0  0  0  0  0  0  0  0  0  0  0  0
   37.1920   33.2580   39.5430 C   0  0  0  0  0  0  0  0  0  0  0  0
   38.3530   33.9330   40.0000 C   0  0  0  0  0  0  0  0  0  0  0  0
   39.2640   33.2240   40.8230 C   0  0  0  0  0  0  0  0  0  0  0  0
   38.9610   31.9330   41.1210 N   0  0  0  0  0  0  0  0  0  0  0  0
   37.8310   31.3260   40.6580 C   0  0  0  0  0  0  0  0  0  0  0  0
   36.9460   31.9840   39.8700 N   0  0  0  0  0  0  0  0  0  0  0  0
   36.4930   33.7800   38.9210 H   0  0  0  0  0  0  0  0  0  0  0  0
   38.5520   34.9630   39.7350 H   0  0  0  0  0  0  0  0  0  0  0  0
   40.1430   33.7030   41.1800 H   0  0  0  0  0  0  0  0  0  0  0  0
   40.0490   25.9380   42.2810 C   0  0  0  0  0  3  0  0  0  0  0  0
   40.0420   25.3370   43.6380 C   0  0  0  0  0  2  0  0  0  0  0  0
   41.2130   25.1190   42.6940 C   0  0  0  0  0  2  0  0  0  0  0  0
  1 20  1  0  0  0  0
  1  7  1  1  0  0  0
  2  8  1  0  0  0  0
  2  1  1  0  0  0  0
  3  4  1  0  0  0  0
  3  2  1  0  0  0  0
  4 13  1  0  0  0  0
  4  5  1  0  0  0  0
  5 14  1  0  0  0  0
  5 15  1  0  0  0  0
  6 16  1  6  0  0  0
  6  5  1  0  0  0  0
  6  1  1  0  0  0  0
  6 33  1  0  0  0  0
  9  2  1  0  0  0  0
 10  3  1  0  0  0  0
 11  3  1  0  0  0  0
 12  4  1  0  0  0  0
 17 18  2  0  0  0  0
 18 19  1  0  0  0  0
 18 22  1  0  0  0  0
 19 23  1  0  0  0  0
 20 19  2  0  0  0  0
 21 17  1  0  0  0  0
 21 20  1  0  0  0  0
 24 29  2  0  0  0  0
 24 25  1  0  0  0  0
 25 26  2  0  0  0  0
 26 27  1  0  0  0  0
 26 32  1  0  0  0  0
 28 27  2  0  0  0  0
 28 17  1  0  0  0  0
 29 28  1  0  0  0  0
 30 24  1  0  0  0  0
 31 25  1  0  0  0  0
 33 35  1  0  0  0  0
 33 34  1  0  0  0  0
 35 34  1  0  0  0  0
M  END
>  <minimizedAffinity>
-5.18564606

$$$$

 OpenBabel03252509183D

 35 38  0  0  1  0  0  0  0  0999 V2000
   37.4380   26.6890   40.1970 C   0  0  1  0  0  0  0  0  0  0  0  0
   38.2250   25.6050   39.5430 C   0  0  0  0  0  0  0  0  0  0  0  0
   38.7020   24.5260   40.4560 C   0  0  0  0  0  0  0  0  0  0  0  0
   37.6740   24.1030   41.4720 C   0  0  0  0  0  0  0  0  0  0  0  0
   36.9440   25.2670   42.1000 C   0  0  0  0  0  0  0  0  0  0  0  0
   37.6450   26.5710   41.7230 C   0  0  2  0  0  0  0  0  0  0  0  0
   36.3430   26.5250   40.0810 H   0  0  0  0  0  0  0  0  0  0  0  0
   37.6120   25.1530   38.7330 H   0  0  0  0  0  0  0  0  0  0  0  0
   39.1410   26.0020   39.0150 H   0  0  0  0  0  0  0  0  0  0  0  0
   38.8900   23.6290   39.8150 H   0  0  0  0  0  0  0  0  0  0  0  0
   39.6770   24.8120   40.8880 H   0  0  0  0  0  0  0  0  0  0  0  0
   38.2360   23.5940   42.3040 H   0  0  0  0  0  0  0  0  0  0  0  0
   36.9850   23.3350   41.0680 H   0  0  0  0  0  0  0  0  0  0  0  0
   36.8240   25.1680   43.1850 H   0  0  0  0  0  0  0  0  0  0  0  0
   35.9250   25.3200   41.6350 H   0  0  0  0  0  0  0  0  0  0  0  0
   38.7070   26.5610   41.9790 H   0  0  0  0  0  0  0  0  0  0  0  0
   39.0230   30.2910   39.0400 C   0  0  0  0  0  0  0  0  0  0  0  0
   37.6820   30.1430   38.6530 C   0  0  0  0  0  0  0  0  0  0  0  0
   37.0510   29.0020   38.9800 C   0  0  0  0  0  0  0  0  0  0  0  0
   37.7360   27.9960   39.6910 C   0  0  0  0  0  0  0  0  0  0  0  0
   39.3950   28.7200   39.9130 S   0  0  0  0  0  0  0  0  0  0  0  0
   37.1600   30.9160   38.1080 H   0  0  0  0  0  0  0  0  0  0  0  0
   36.0340   28.7070   38.7730 H   0  0  0  0  0  0  0  0  0  0  0  0
   40.7210   33.6020   39.0610 C   0  0  0  0  0  0  0  0  0  0  0  0
   41.5290   33.4630   37.9040 C   0  0  0  0  0  0  0  0  0  0  0  0
   41.4560   32.2490   37.1740 C   0  0  0  0  0  0  0  0  0  0  0  0
   40.6090   31.2920   37.6370 N   0  0  0  0  0  0  0  0  0  0  0  0
   39.8510   31.4720   38.7560 C   0  0  0  0  0  0  0  0  0  0  0  0
   39.9040   32.6240   39.4700 N   0  0  0  0  0  0  0  0  0  0  0  0
   40.7640   34.5130   39.6240 H   0  0  0  0  0  0  0  0  0  0  0  0
   42.1890   34.2540   37.5740 H   0  0  0  0  0  0  0  0  0  0  0  0
   42.0500   32.1150   36.3020 H   0  0  0  0  0  0  0  0  0  0  0  0
   36.8730   27.7060   42.3610 C   0  0  0  0  0  3  0  0  0  0  0  0
   36.2510   27.4240   43.6790 C   0  0  0  0  0  2  0  0  0  0  0  0
   37.4650   28.3310   43.5660 C   0  0  0  0  0  2  0  0  0  0  0  0
  1  7  1  6  0  0  0
  1  6  1  0  0  0  0
  2  1  1  0  0  0  0
  2  3  1  0  0  0  0
  3 11  1  0  0  0  0
  3  4  1  0  0  0  0
  4  5  1  0  0  0  0
  4 12  1  0  0  0  0
  5 14  1  0  0  0  0
  6 16  1  1  0  0  0
  6  5  1  0  0  0  0
  6 33  1  0  0  0  0
  8  2  1  0  0  0  0
  9  2  1  0  0  0  0
 10  3  1  0  0  0  0
 13  4  1  0  0  0  0
 15  5  1  0  0  0  0
 17 21  1  0  0  0  0
 18 19  1  0  0  0  0
 18 17  2  0  0  0  0
 19 20  2  0  0  0  0
 20 21  1  0  0  0  0
 20  1  1  0  0  0  0
 22 18  1  0  0  0  0
 23 19  1  0  0  0  0
 24 29  1  0  0  0  0
 24 30  1  0  0  0  0
 25 24  2  0  0  0  0
 26 27  2  0  0  0  0
 26 25  1  0  0  0  0
 27 28  1  0  0  0  0
 28 17  1  0  0  0  0
 28 29  2  0  0  0  0
 31 25  1  0  0  0  0
 32 26  1  0  0  0  0
 33 35  1  0  0  0  0
 33 34  1  0  0  0  0
 35 34  1  0  0  0  0
M  END
>  <minimizedAffinity>
-5.09004784

$$$$

 OpenBabel03252509183D

 35 38  0  0  1  0  0  0  0  0999 V2000
   37.3790   27.1060   41.9870 C   0  0  1  0  0  0  0  0  0  0  0  0
   37.2020   25.6260   41.9890 C   0  0  0  0  0  0  0  0  0  0  0  0
   38.4590   24.8360   42.1440 C   0  0  0  0  0  0  0  0  0  0  0  0
   39.4060   25.4100   43.1650 C   0  0  0  0  0  0  0  0  0  0  0  0
   39.5410   26.9120   43.0730 C   0  0  0  0  0  0  0  0  0  0  0  0
   38.8820   27.4040   41.7860 C   0  0  2  0  0  0  0  0  0  0  0  0
   37.1710   27.5430   42.9900 H   0  0  0  0  0  0  0  0  0  0  0  0
   36.4950   25.3480   42.8000 H   0  0  0  0  0  0  0  0  0  0  0  0
   36.7080   25.2540   41.0440 H   0  0  0  0  0  0  0  0  0  0  0  0
   38.1550   23.8320   42.5330 H   0  0  0  0  0  0  0  0  0  0  0  0
   38.9110   24.6630   41.1520 H   0  0  0  0  0  0  0  0  0  0  0  0
   40.4220   24.9840   42.9340 H   0  0  0  0  0  0  0  0  0  0  0  0
   39.1660   25.0640   44.1900 H   0  0  0  0  0  0  0  0  0  0  0  0
   40.5770   27.2580   43.1590 H   0  0  0  0  0  0  0  0  0  0  0  0
   38.9480   27.3580   43.9140 H   0  0  0  0  0  0  0  0  0  0  0  0
   39.2700   26.8990   40.9000 H   0  0  0  0  0  0  0  0  0  0  0  0
   35.2720   28.4990   38.7560 C   0  0  0  0  0  0  0  0  0  0  0  0
   34.9910   29.2130   39.9310 C   0  0  0  0  0  0  0  0  0  0  0  0
   35.6250   28.8500   41.0590 C   0  0  0  0  0  0  0  0  0  0  0  0
   36.5430   27.7800   41.0390 C   0  0  0  0  0  0  0  0  0  0  0  0
   36.5050   27.2500   39.2960 S   0  0  0  0  0  0  0  0  0  0  0  0
   34.2870   30.0310   39.9420 H   0  0  0  0  0  0  0  0  0  0  0  0
   35.5420   29.2720   42.0490 H   0  0  0  0  0  0  0  0  0  0  0  0
   34.5730   29.1010   35.1510 C   0  0  0  0  0  0  0  0  0  0  0  0
   33.1690   29.2910   35.2090 C   0  0  0  0  0  0  0  0  0  0  0  0
   32.5300   29.2050   36.4720 C   0  0  0  0  0  0  0  0  0  0  0  0
   33.3130   28.9440   37.5520 N   0  0  0  0  0  0  0  0  0  0  0  0
   34.6610   28.7670   37.4460 C   0  0  0  0  0  0  0  0  0  0  0  0
   35.2930   28.8450   36.2490 N   0  0  0  0  0  0  0  0  0  0  0  0
   35.0720   29.1620   34.2040 H   0  0  0  0  0  0  0  0  0  0  0  0
   32.5870   29.4980   34.3210 H   0  0  0  0  0  0  0  0  0  0  0  0
   31.4780   29.3440   36.5470 H   0  0  0  0  0  0  0  0  0  0  0  0
   39.0290   28.9100   41.7450 C   0  0  0  0  0  3  0  0  0  0  0  0
   38.7790   29.6340   43.0170 C   0  0  0  0  0  2  0  0  0  0  0  0
   40.1870   29.4940   42.4630 C   0  0  0  0  0  2  0  0  0  0  0  0
  1  2  1  0  0  0  0
  1  7  1  1  0  0  0
  2  3  1  0  0  0  0
  2  8  1  0  0  0  0
  3 10  1  0  0  0  0
  3  4  1  0  0  0  0
  4 13  1  0  0  0  0
  5 14  1  0  0  0  0
  5  4  1  0  0  0  0
  5 15  1  0  0  0  0
  6 16  1  6  0  0  0
  6  1  1  0  0  0  0
  6  5  1  0  0  0  0
  9  2  1  0  0  0  0
 11  3  1  0  0  0  0
 12  4  1  0  0  0  0
 17 21  1  0  0  0  0
 17 18  2  0  0  0  0
 18 22  1  0  0  0  0
 18 19  1  0  0  0  0
 19 23  1  0  0  0  0
 20 19  2  0  0  0  0
 20  1  1  0  0  0  0
 21 20  1  0  0  0  0
 24 25  2  0  0  0  0
 24 29  1  0  0  0  0
 25 26  1  0  0  0  0
 26 32  1  0  0  0  0
 26 27  2  0  0  0  0
 28 27  1  0  0  0  0
 28 17  1  0  0  0  0
 29 28  2  0  0  0  0
 30 24  1  0  0  0  0
 31 25  1  0  0  0  0
 33  6  1  0  0  0  0
 33 35  1  0  0  0  0
 33 34  1  0  0  0  0
 35 34  1  0  0  0  0
M  END
>  <minimizedAffinity>
-5.07614279

$$$$

 OpenBabel03252509183D

 35 38  0  0  1  0  0  0  0  0999 V2000
   39.9020   31.5620   41.7230 C   0  0  1  0  0  0  0  0  0  0  0  0
   41.3920   31.5790   41.7290 C   0  0  0  0  0  0  0  0  0  0  0  0
   42.0210   32.4600   40.7010 C   0  0  0  0  0  0  0  0  0  0  0  0
   41.3250   33.7860   40.5400 C   0  0  0  0  0  0  0  0  0  0  0  0
   39.8190   33.6680   40.5210 C   0  0  0  0  0  0  0  0  0  0  0  0
   39.4240   32.1970   40.3980 C   0  0  2  0  0  0  0  0  0  0  0  0
   39.4830   32.2480   42.4940 H   0  0  0  0  0  0  0  0  0  0  0  0
   41.7450   31.8870   42.7370 H   0  0  0  0  0  0  0  0  0  0  0  0
   41.8320   30.5500   41.5770 H   0  0  0  0  0  0  0  0  0  0  0  0
   43.0500   32.6940   41.0720 H   0  0  0  0  0  0  0  0  0  0  0  0
   42.1480   31.8960   39.7610 H   0  0  0  0  0  0  0  0  0  0  0  0
   41.6250   34.1850   39.5320 H   0  0  0  0  0  0  0  0  0  0  0  0
   41.6860   34.5330   41.2740 H   0  0  0  0  0  0  0  0  0  0  0  0
   39.3470   34.2820   39.7450 H   0  0  0  0  0  0  0  0  0  0  0  0
   39.4390   34.0070   41.5210 H   0  0  0  0  0  0  0  0  0  0  0  0
   39.8890   31.7120   39.5370 H   0  0  0  0  0  0  0  0  0  0  0  0
   38.7130   27.6360   41.7220 C   0  0  0  0  0  0  0  0  0  0  0  0
   38.2010   28.3530   42.8140 C   0  0  0  0  0  0  0  0  0  0  0  0
   38.5190   29.6550   42.9210 C   0  0  0  0  0  0  0  0  0  0  0  0
   39.3450   30.2610   41.9530 C   0  0  0  0  0  0  0  0  0  0  0  0
   39.6960   28.8880   40.8070 S   0  0  0  0  0  0  0  0  0  0  0  0
   37.5690   27.8860   43.5540 H   0  0  0  0  0  0  0  0  0  0  0  0
   38.2270   30.3640   43.6800 H   0  0  0  0  0  0  0  0  0  0  0  0
   38.8020   24.1080   40.5420 C   0  0  0  0  0  0  0  0  0  0  0  0
   37.6780   23.5950   41.2390 C   0  0  0  0  0  0  0  0  0  0  0  0
   36.9460   24.4760   42.0760 C   0  0  0  0  0  0  0  0  0  0  0  0
   37.3740   25.7630   42.1540 N   0  0  0  0  0  0  0  0  0  0  0  0
   38.4620   26.2100   41.4650 C   0  0  0  0  0  0  0  0  0  0  0  0
   39.1770   25.3870   40.6590 N   0  0  0  0  0  0  0  0  0  0  0  0
   39.3660   23.4560   39.9060 H   0  0  0  0  0  0  0  0  0  0  0  0
   37.3750   22.5610   41.1440 H   0  0  0  0  0  0  0  0  0  0  0  0
   36.0980   24.1200   42.6110 H   0  0  0  0  0  0  0  0  0  0  0  0
   37.9120   32.1280   40.3990 C   0  0  0  0  0  3  0  0  0  0  0  0
   37.2040   33.1500   39.5870 C   0  0  0  0  0  2  0  0  0  0  0  0
   37.2570   31.6980   39.1410 C   0  0  0  0  0  2  0  0  0  0  0  0
  1  2  1  0  0  0  0
  1 20  1  0  0  0  0
  1  7  1  1  0  0  0
  2  8  1  0  0  0  0
  3 10  1  0  0  0  0
  3  2  1  0  0  0  0
  4  3  1  0  0  0  0
  4 13  1  0  0  0  0
  5  4  1  0  0  0  0
  5 15  1  0  0  0  0
  6 16  1  6  0  0  0
  6 33  1  0  0  0  0
  6  5  1  0  0  0  0
  6  1  1  0  0  0  0
  9  2  1  0  0  0  0
 11  3  1  0  0  0  0
 12  4  1  0  0  0  0
 14  5  1  0  0  0  0
 17 18  2  0  0  0  0
 18 19  1  0  0  0  0
 18 22  1  0  0  0  0
 19 23  1  0  0  0  0
 20 19  2  0  0  0  0
 21 17  1  0  0  0  0
 21 20  1  0  0  0  0
 24 29  2  0  0  0  0
 24 25  1  0  0  0  0
 25 26  2  0  0  0  0
 26 27  1  0  0  0  0
 26 32  1  0  0  0  0
 28 17  1  0  0  0  0
 28 27  2  0  0  0  0
 29 28  1  0  0  0  0
 30 24  1  0  0  0  0
 31 25  1  0  0  0  0
 34 33  1  0  0  0  0
 35 34  1  0  0  0  0
 35 33  1  0  0  0  0
M  END
>  <minimizedAffinity>
-4.94059658

$$$$

 OpenBabel03252509183D

 35 38  0  0  1  0  0  0  0  0999 V2000
   37.9170   28.0210   41.0710 C   0  0  1  0  0  0  0  0  0  0  0  0
   38.6210   29.1680   41.7110 C   0  0  0  0  0  0  0  0  0  0  0  0
   39.2120   28.8830   43.0520 C   0  0  0  0  0  0  0  0  0  0  0  0
   39.8830   27.5370   43.1370 C   0  0  0  0  0  0  0  0  0  0  0  0
   39.0860   26.4320   42.4840 C   0  0  0  0  0  0  0  0  0  0  0  0
   37.6850   26.9430   42.1530 C   0  0  2  0  0  0  0  0  0  0  0  0
   38.5700   27.5000   40.3360 H   0  0  0  0  0  0  0  0  0  0  0  0
   39.4230   29.5250   41.0290 H   0  0  0  0  0  0  0  0  0  0  0  0
   37.9450   30.0630   41.8450 H   0  0  0  0  0  0  0  0  0  0  0  0
   40.0180   29.6420   43.2100 H   0  0  0  0  0  0  0  0  0  0  0  0
   38.4540   29.0630   43.8340 H   0  0  0  0  0  0  0  0  0  0  0  0
   39.9460   27.2800   44.2310 H   0  0  0  0  0  0  0  0  0  0  0  0
   40.9320   27.5760   42.7820 H   0  0  0  0  0  0  0  0  0  0  0  0
   39.0550   25.5120   43.0790 H   0  0  0  0  0  0  0  0  0  0  0  0
   39.5710   26.2010   41.4990 H   0  0  0  0  0  0  0  0  0  0  0  0
   37.1770   27.3600   43.0240 H   0  0  0  0  0  0  0  0  0  0  0  0
   34.8510   28.8320   38.4690 C   0  0  0  0  0  0  0  0  0  0  0  0
   34.5320   29.1580   39.7960 C   0  0  0  0  0  0  0  0  0  0  0  0
   35.4610   28.9400   40.7420 C   0  0  0  0  0  0  0  0  0  0  0  0
   36.7140   28.3980   40.3900 C   0  0  0  0  0  0  0  0  0  0  0  0
   36.5650   28.1830   38.5850 S   0  0  0  0  0  0  0  0  0  0  0  0
   33.5720   29.5730   40.0630 H   0  0  0  0  0  0  0  0  0  0  0  0
   35.4030   29.1240   41.8040 H   0  0  0  0  0  0  0  0  0  0  0  0
   31.9410   29.3630   36.2120 C   0  0  0  0  0  0  0  0  0  0  0  0
   32.5940   29.2740   34.9550 C   0  0  0  0  0  0  0  0  0  0  0  0
   33.9930   29.0380   34.9400 C   0  0  0  0  0  0  0  0  0  0  0  0
   34.6180   28.9110   36.1390 N   0  0  0  0  0  0  0  0  0  0  0  0
   33.9470   29.0050   37.3230 C   0  0  0  0  0  0  0  0  0  0  0  0
   32.6100   29.2300   37.3630 N   0  0  0  0  0  0  0  0  0  0  0  0
   30.8850   29.5410   36.2410 H   0  0  0  0  0  0  0  0  0  0  0  0
   32.0530   29.3810   34.0250 H   0  0  0  0  0  0  0  0  0  0  0  0
   34.5100   28.9660   34.0130 H   0  0  0  0  0  0  0  0  0  0  0  0
   36.9320   25.8100   41.4890 C   0  0  0  0  0  3  0  0  0  0  0  0
   37.7530   24.7930   40.7850 C   0  0  0  0  0  2  0  0  0  0  0  0
   37.0620   24.4660   42.0990 C   0  0  0  0  0  2  0  0  0  0  0  0
  1  7  1  6  0  0  0
  1  2  1  0  0  0  0
  1  6  1  0  0  0  0
  2  9  1  0  0  0  0
  2  3  1  0  0  0  0
  3  4  1  0  0  0  0
  3 10  1  0  0  0  0
  3 11  1  0  0  0  0
  4 12  1  0  0  0  0
  5 14  1  0  0  0  0
  5  4  1  0  0  0  0
  6  5  1  0  0  0  0
  6 16  1  1  0  0  0
  8  2  1  0  0  0  0
 13  4  1  0  0  0  0
 15  5  1  0  0  0  0
 17 21  1  0  0  0  0
 17 18  2  0  0  0  0
 18 22  1  0  0  0  0
 18 19  1  0  0  0  0
 19 23  1  0  0  0  0
 20 19  2  0  0  0  0
 20  1  1  0  0  0  0
 21 20  1  0  0  0  0
 24 30  1  0  0  0  0
 24 29  1  0  0  0  0
 25 24  2  0  0  0  0
 26 25  1  0  0  0  0
 26 27  2  0  0  0  0
 27 28  1  0  0  0  0
 28 29  2  0  0  0  0
 28 17  1  0  0  0  0
 31 25  1  0  0  0  0
 32 26  1  0  0  0  0
 33 35  1  0  0  0  0
 33  6  1  0  0  0  0
 34 33  1  0  0  0  0
 34 35  1  0  0  0  0
M  END
>  <minimizedAffinity>
-4.89538097

$$$$

 OpenBabel03252509183D

 35 38  0  0  1  0  0  0  0  0999 V2000
   36.1960   26.6190   39.4750 C   0  0  1  0  0  0  0  0  0  0  0  0
   35.9610   26.5010   38.0080 C   0  0  0  0  0  0  0  0  0  0  0  0
   36.6270   25.3380   37.3490 C   0  0  0  0  0  0  0  0  0  0  0  0
   36.5510   24.0680   38.1570 C   0  0  0  0  0  0  0  0  0  0  0  0
   36.8260   24.2810   39.6270 C   0  0  0  0  0  0  0  0  0  0  0  0
   37.3730   25.6900   39.8440 C   0  0  2  0  0  0  0  0  0  0  0  0
   35.3490   26.1920   40.0590 H   0  0  0  0  0  0  0  0  0  0  0  0
   34.8670   26.4470   37.8200 H   0  0  0  0  0  0  0  0  0  0  0  0
   36.3000   27.4200   37.4460 H   0  0  0  0  0  0  0  0  0  0  0  0
   36.0580   25.1400   36.4070 H   0  0  0  0  0  0  0  0  0  0  0  0
   37.6490   25.6220   37.0450 H   0  0  0  0  0  0  0  0  0  0  0  0
   37.3680   23.3960   37.7740 H   0  0  0  0  0  0  0  0  0  0  0  0
   35.6060   23.5190   37.9730 H   0  0  0  0  0  0  0  0  0  0  0  0
   37.4830   23.5170   40.0580 H   0  0  0  0  0  0  0  0  0  0  0  0
   35.8420   24.2460   40.1650 H   0  0  0  0  0  0  0  0  0  0  0  0
   38.2490   25.8960   39.2250 H   0  0  0  0  0  0  0  0  0  0  0  0
   37.3250   30.4980   40.1840 C   0  0  0  0  0  0  0  0  0  0  0  0
   36.2470   30.0960   40.9870 C   0  0  0  0  0  0  0  0  0  0  0  0
   35.7880   28.8400   40.8470 C   0  0  0  0  0  0  0  0  0  0  0  0
   36.3880   27.9690   39.9150 C   0  0  0  0  0  0  0  0  0  0  0  0
   37.6980   29.0040   39.1830 S   0  0  0  0  0  0  0  0  0  0  0  0
   35.7900   30.7650   41.7000 H   0  0  0  0  0  0  0  0  0  0  0  0
   34.9780   28.3530   41.3680 H   0  0  0  0  0  0  0  0  0  0  0  0
   38.0630   34.1390   39.9780 C   0  0  0  0  0  0  0  0  0  0  0  0
   39.4210   34.1310   40.3900 C   0  0  0  0  0  0  0  0  0  0  0  0
   40.0170   32.8870   40.7170 C   0  0  0  0  0  0  0  0  0  0  0  0
   39.2410   31.7760   40.6130 N   0  0  0  0  0  0  0  0  0  0  0  0
   37.9390   31.8340   40.2130 C   0  0  0  0  0  0  0  0  0  0  0  0
   37.3470   33.0120   39.8940 N   0  0  0  0  0  0  0  0  0  0  0  0
   37.5970   35.0710   39.7270 H   0  0  0  0  0  0  0  0  0  0  0  0
   39.9990   35.0430   40.4570 H   0  0  0  0  0  0  0  0  0  0  0  0
   41.0330   32.8490   41.0290 H   0  0  0  0  0  0  0  0  0  0  0  0
   37.6180   25.8610   41.3280 C   0  0  0  0  0  3  0  0  0  0  0  0
   36.7990   25.0180   42.2350 C   0  0  0  0  0  2  0  0  0  0  0  0
   38.2800   24.7390   42.0350 C   0  0  0  0  0  2  0  0  0  0  0  0
  1  6  1  0  0  0  0
  1 20  1  0  0  0  0
  1  7  1  1  0  0  0
  2  1  1  0  0  0  0
  3  2  1  0  0  0  0
  3  4  1  0  0  0  0
  4  5  1  0  0  0  0
  5  6  1  0  0  0  0
  5 14  1  0  0  0  0
  5 15  1  0  0  0  0
  6 16  1  6  0  0  0
  6 33  1  0  0  0  0
  8  2  1  0  0  0  0
  9  2  1  0  0  0  0
 10  3  1  0  0  0  0
 11  3  1  0  0  0  0
 12  4  1  0  0  0  0
 13  4  1  0  0  0  0
 17 28  1  0  0  0  0
 17 18  2  0  0  0  0
 18 22  1  0  0  0  0
 19 18  1  0  0  0  0
 19 23  1  0  0  0  0
 20 19  2  0  0  0  0
 21 20  1  0  0  0  0
 21 17  1  0  0  0  0
 24 25  1  0  0  0  0
 25 31  1  0  0  0  0
 25 26  2  0  0  0  0
 26 32  1  0  0  0  0
 27 26  1  0  0  0  0
 28 27  2  0  0  0  0
 29 24  2  0  0  0  0
 29 28  1  0  0  0  0
 30 24  1  0  0  0  0
 33 35  1  0  0  0  0
 33 34  1  0  0  0  0
 35 34  1  0  0  0  0
M  END
>  <minimizedAffinity>
-4.80652571

$$$$

 OpenBabel03252509183D

 35 38  0  0  1  0  0  0  0  0999 V2000
   37.1870   30.9770   40.1200 C   0  0  1  0  0  0  0  0  0  0  0  0
   36.5460   30.8010   38.7860 C   0  0  0  0  0  0  0  0  0  0  0  0
   35.8990   29.4750   38.5610 C   0  0  0  0  0  0  0  0  0  0  0  0
   35.1340   28.9710   39.7560 C   0  0  0  0  0  0  0  0  0  0  0  0
   35.8700   29.1680   41.0600 C   0  0  0  0  0  0  0  0  0  0  0  0
   37.3120   29.5820   40.7740 C   0  0  2  0  0  0  0  0  0  0  0  0
   36.5190   31.5230   40.8250 H   0  0  0  0  0  0  0  0  0  0  0  0
   35.7910   31.6040   38.6400 H   0  0  0  0  0  0  0  0  0  0  0  0
   37.2780   30.9450   37.9380 H   0  0  0  0  0  0  0  0  0  0  0  0
   35.1440   29.6250   37.7500 H   0  0  0  0  0  0  0  0  0  0  0  0
   36.6450   28.7640   38.1660 H   0  0  0  0  0  0  0  0  0  0  0  0
   35.0220   27.8590   39.6190 H   0  0  0  0  0  0  0  0  0  0  0  0
   34.1010   29.3700   39.7830 H   0  0  0  0  0  0  0  0  0  0  0  0
   35.8200   28.2950   41.7210 H   0  0  0  0  0  0  0  0  0  0  0  0
   35.3980   30.0380   41.5880 H   0  0  0  0  0  0  0  0  0  0  0  0
   37.8230   28.8800   40.1120 H   0  0  0  0  0  0  0  0  0  0  0  0
   40.9170   32.5040   39.3650 C   0  0  0  0  0  0  0  0  0  0  0  0
   40.2570   33.1830   40.4010 C   0  0  0  0  0  0  0  0  0  0  0  0
   39.0240   32.7700   40.7430 C   0  0  0  0  0  0  0  0  0  0  0  0
   38.4310   31.6840   40.0670 C   0  0  0  0  0  0  0  0  0  0  0  0
   39.7140   31.2130   38.8600 S   0  0  0  0  0  0  0  0  0  0  0  0
   40.7140   34.0150   40.9160 H   0  0  0  0  0  0  0  0  0  0  0  0
   38.3650   33.1600   41.5030 H   0  0  0  0  0  0  0  0  0  0  0  0
   44.2590   34.0060   38.7170 C   0  0  0  0  0  0  0  0  0  0  0  0
   44.7230   33.1290   37.7030 C   0  0  0  0  0  0  0  0  0  0  0  0
   43.8740   32.0690   37.2910 C   0  0  0  0  0  0  0  0  0  0  0  0
   42.6640   31.9660   37.9000 N   0  0  0  0  0  0  0  0  0  0  0  0
   42.2630   32.8350   38.8720 C   0  0  0  0  0  0  0  0  0  0  0  0
   43.0560   33.8550   39.2820 N   0  0  0  0  0  0  0  0  0  0  0  0
   44.8890   34.8120   39.0400 H   0  0  0  0  0  0  0  0  0  0  0  0
   45.6960   33.2520   37.2470 H   0  0  0  0  0  0  0  0  0  0  0  0
   44.1940   31.3960   36.5330 H   0  0  0  0  0  0  0  0  0  0  0  0
   38.0030   29.7820   42.1060 C   0  0  0  0  0  3  0  0  0  0  0  0
   37.6530   28.8230   43.1830 C   0  0  0  0  0  2  0  0  0  0  0  0
   39.0100   28.7700   42.5010 C   0  0  0  0  0  2  0  0  0  0  0  0
  1  6  1  0  0  0  0
  1  7  1  1  0  0  0
  2  1  1  0  0  0  0
  3  2  1  0  0  0  0
  3  4  1  0  0  0  0
  4 13  1  0  0  0  0
  4  5  1  0  0  0  0
  5 15  1  0  0  0  0
  5 14  1  0  0  0  0
  6 16  1  6  0  0  0
  6  5  1  0  0  0  0
  6 33  1  0  0  0  0
  8  2  1  0  0  0  0
  9  2  1  0  0  0  0
 10  3  1  0  0  0  0
 11  3  1  0  0  0  0
 12  4  1  0  0  0  0
 17 18  2  0  0  0  0
 18 19  1  0  0  0  0
 18 22  1  0  0  0  0
 19 23  1  0  0  0  0
 20  1  1  0  0  0  0
 20 19  2  0  0  0  0
 21 17  1  0  0  0  0
 21 20  1  0  0  0  0
 24 30  1  0  0  0  0
 24 29  1  0  0  0  0
 25 24  2  0  0  0  0
 26 25  1  0  0  0  0
 26 27  2  0  0  0  0
 27 28  1  0  0  0  0
 28 29  2  0  0  0  0
 28 17  1  0  0  0  0
 31 25  1  0  0  0  0
 32 26  1  0  0  0  0
 33 35  1  0  0  0  0
 33 34  1  0  0  0  0
 35 34  1  0  0  0  0
M  END
>  <minimizedAffinity>
-4.8002739

$$$$

 OpenBabel03252509183D

 35 38  0  0  1  0  0  0  0  0999 V2000
   37.8480   25.9860   40.6810 C   0  0  1  0  0  0  0  0  0  0  0  0
   38.2560   25.3220   41.9510 C   0  0  0  0  0  0  0  0  0  0  0  0
   37.6930   23.9560   42.1640 C   0  0  0  0  0  0  0  0  0  0  0  0
   37.6960   23.1070   40.9200 C   0  0  0  0  0  0  0  0  0  0  0  0
   37.2460   23.8550   39.6870 C   0  0  0  0  0  0  0  0  0  0  0  0
   36.6520   25.2010   40.0980 C   0  0  2  0  0  0  0  0  0  0  0  0
   38.6270   25.8730   39.8930 H   0  0  0  0  0  0  0  0  0  0  0  0
   39.3650   25.2690   41.9910 H   0  0  0  0  0  0  0  0  0  0  0  0
   37.9690   25.9280   42.8610 H   0  0  0  0  0  0  0  0  0  0  0  0
   38.3730   23.4440   42.8900 H   0  0  0  0  0  0  0  0  0  0  0  0
   36.7090   24.0350   42.6580 H   0  0  0  0  0  0  0  0  0  0  0  0
   36.9420   22.2890   41.0890 H   0  0  0  0  0  0  0  0  0  0  0  0
   38.6650   22.5890   40.7760 H   0  0  0  0  0  0  0  0  0  0  0  0
   36.5570   23.2790   39.0590 H   0  0  0  0  0  0  0  0  0  0  0  0
   38.1610   24.0930   39.0820 H   0  0  0  0  0  0  0  0  0  0  0  0
   35.8520   25.0960   40.8330 H   0  0  0  0  0  0  0  0  0  0  0  0
   37.6920   30.0840   40.5920 C   0  0  0  0  0  0  0  0  0  0  0  0
   36.6960   29.5240   41.4070 C   0  0  0  0  0  0  0  0  0  0  0  0
   36.6470   28.1860   41.5180 C   0  0  0  0  0  0  0  0  0  0  0  0
   37.5810   27.3860   40.8280 C   0  0  0  0  0  0  0  0  0  0  0  0
   38.6020   28.6200   39.9580 S   0  0  0  0  0  0  0  0  0  0  0  0
   35.9820   30.1400   41.9340 H   0  0  0  0  0  0  0  0  0  0  0  0
   35.9630   27.5780   42.0890 H   0  0  0  0  0  0  0  0  0  0  0  0
   37.3470   33.6610   39.6290 C   0  0  0  0  0  0  0  0  0  0  0  0
   38.5800   34.1610   40.1210 C   0  0  0  0  0  0  0  0  0  0  0  0
   39.4680   33.2550   40.7570 C   0  0  0  0  0  0  0  0  0  0  0  0
   39.0730   31.9580   40.8520 N   0  0  0  0  0  0  0  0  0  0  0  0
   37.8760   31.5240   40.3630 C   0  0  0  0  0  0  0  0  0  0  0  0
   37.0120   32.3720   39.7520 N   0  0  0  0  0  0  0  0  0  0  0  0
   36.6650   34.3330   39.1470 H   0  0  0  0  0  0  0  0  0  0  0  0
   38.8500   35.2030   40.0220 H   0  0  0  0  0  0  0  0  0  0  0  0
   40.3990   33.6000   41.1350 H   0  0  0  0  0  0  0  0  0  0  0  0
   36.2310   25.9190   38.8330 C   0  0  0  0  0  3  0  0  0  0  0  0
   36.9350   25.5290   37.5860 C   0  0  0  0  0  2  0  0  0  0  0  0
   35.4890   25.1260   37.8240 C   0  0  0  0  0  2  0  0  0  0  0  0
  1  7  1  6  0  0  0
  1 20  1  0  0  0  0
  1  2  1  0  0  0  0
  2  8  1  0  0  0  0
  2  3  1  0  0  0  0
  2  9  1  0  0  0  0
  3 11  1  0  0  0  0
  3 10  1  0  0  0  0
  4 12  1  0  0  0  0
  4  3  1  0  0  0  0
  5  6  1  0  0  0  0
  5  4  1  0  0  0  0
  6  1  1  0  0  0  0
  6 16  1  1  0  0  0
 13  4  1  0  0  0  0
 14  5  1  0  0  0  0
 15  5  1  0  0  0  0
 17 18  2  0  0  0  0
 18 19  1  0  0  0  0
 18 22  1  0  0  0  0
 19 23  1  0  0  0  0
 20 19  2  0  0  0  0
 21 17  1  0  0  0  0
 21 20  1  0  0  0  0
 24 29  2  0  0  0  0
 24 25  1  0  0  0  0
 25 26  2  0  0  0  0
 26 27  1  0  0  0  0
 26 32  1  0  0  0  0
 28 17  1  0  0  0  0
 28 27  2  0  0  0  0
 29 28  1  0  0  0  0
 30 24  1  0  0  0  0
 31 25  1  0  0  0  0
 33  6  1  0  0  0  0
 34 35  1  0  0  0  0
 34 33  1  0  0  0  0
 35 33  1  0  0  0  0
M  END
>  <minimizedAffinity>
-4.74729633

$$$$

 OpenBabel03252509183D

 35 38  0  0  1  0  0  0  0  0999 V2000
   37.6370   30.3180   40.0870 C   0  0  1  0  0  0  0  0  0  0  0  0
   36.6000   30.4790   39.0290 C   0  0  0  0  0  0  0  0  0  0  0  0
   35.5570   29.4110   38.9920 C   0  0  0  0  0  0  0  0  0  0  0  0
   35.0780   28.9940   40.3580 C   0  0  0  0  0  0  0  0  0  0  0  0
   36.1990   28.8320   41.3580 C   0  0  0  0  0  0  0  0  0  0  0  0
   37.5410   28.8740   40.6300 C   0  0  2  0  0  0  0  0  0  0  0  0
   37.4040   30.9360   40.9840 H   0  0  0  0  0  0  0  0  0  0  0  0
   36.1050   31.4660   39.1560 H   0  0  0  0  0  0  0  0  0  0  0  0
   37.0490   30.5190   37.9940 H   0  0  0  0  0  0  0  0  0  0  0  0
   34.6700   29.8530   38.4740 H   0  0  0  0  0  0  0  0  0  0  0  0
   35.9060   28.5770   38.3590 H   0  0  0  0  0  0  0  0  0  0  0  0
   34.6100   27.9780   40.2370 H   0  0  0  0  0  0  0  0  0  0  0  0
   34.2660   29.6510   40.7280 H   0  0  0  0  0  0  0  0  0  0  0  0
   36.0990   27.9330   41.9770 H   0  0  0  0  0  0  0  0  0  0  0  0
   36.1850   29.7290   42.0320 H   0  0  0  0  0  0  0  0  0  0  0  0
   37.5990   28.1430   39.8210 H   0  0  0  0  0  0  0  0  0  0  0  0
   41.2610   30.8160   38.2330 C   0  0  0  0  0  0  0  0  0  0  0  0
   41.1350   31.6020   39.3890 C   0  0  0  0  0  0  0  0  0  0  0  0
   39.9890   31.5220   40.0870 C   0  0  0  0  0  0  0  0  0  0  0  0
   38.9560   30.6660   39.6510 C   0  0  0  0  0  0  0  0  0  0  0  0
   39.6610   29.9200   38.1440 S   0  0  0  0  0  0  0  0  0  0  0  0
   41.9270   32.2570   39.7190 H   0  0  0  0  0  0  0  0  0  0  0  0
   39.7070   32.0410   40.9890 H   0  0  0  0  0  0  0  0  0  0  0  0
   44.5490   31.3940   36.5900 C   0  0  0  0  0  0  0  0  0  0  0  0
   44.4500   30.4640   35.5230 C   0  0  0  0  0  0  0  0  0  0  0  0
   43.2690   29.6860   35.4170 C   0  0  0  0  0  0  0  0  0  0  0  0
   42.3030   29.8860   36.3520 N   0  0  0  0  0  0  0  0  0  0  0  0
   42.4440   30.7940   37.3600 C   0  0  0  0  0  0  0  0  0  0  0  0
   43.5640   31.5480   37.4820 N   0  0  0  0  0  0  0  0  0  0  0  0
   45.4350   31.9900   36.6840 H   0  0  0  0  0  0  0  0  0  0  0  0
   45.2460   30.3400   34.8020 H   0  0  0  0  0  0  0  0  0  0  0  0
   43.1650   28.9800   34.6290 H   0  0  0  0  0  0  0  0  0  0  0  0
   38.6300   28.7230   41.6700 C   0  0  0  0  0  3  0  0  0  0  0  0
   38.3420   29.2840   43.0150 C   0  0  0  0  0  2  0  0  0  0  0  0
   38.3710   27.7820   42.7850 C   0  0  0  0  0  2  0  0  0  0  0  0
  1  6  1  0  0  0  0
  1  7  1  1  0  0  0
  2  8  1  0  0  0  0
  2  1  1  0  0  0  0
  3  2  1  0  0  0  0
  3  4  1  0  0  0  0
  4 13  1  0  0  0  0
  4  5  1  0  0  0  0
  5 14  1  0  0  0  0
  5 15  1  0  0  0  0
  6 16  1  6  0  0  0
  6  5  1  0  0  0  0
  6 33  1  0  0  0  0
  9  2  1  0  0  0  0
 10  3  1  0  0  0  0
 11  3  1  0  0  0  0
 12  4  1  0  0  0  0
 17 18  2  0  0  0  0
 18 22  1  0  0  0  0
 18 19  1  0  0  0  0
 19 23  1  0  0  0  0
 20  1  1  0  0  0  0
 20 19  2  0  0  0  0
 21 17  1  0  0  0  0
 21 20  1  0  0  0  0
 24 30  1  0  0  0  0
 24 29  1  0  0  0  0
 25 24  2  0  0  0  0
 26 25  1  0  0  0  0
 26 27  2  0  0  0  0
 27 28  1  0  0  0  0
 28 29  2  0  0  0  0
 28 17  1  0  0  0  0
 31 25  1  0  0  0  0
 32 26  1  0  0  0  0
 33 35  1  0  0  0  0
 33 34  1  0  0  0  0
 35 34  1  0  0  0  0
M  END
>  <minimizedAffinity>
-4.74240589

$$$$
