
 OpenBabel03252505153D

 19 21  0  0  0  0  0  0  0  0999 V2000
   44.6850   35.8860   44.4700 C   0  0  0  0  0  0  0  0  0  0  0  0
   45.4100   35.9270   43.2420 C   0  0  0  0  0  0  0  0  0  0  0  0
   46.2660   34.8570   43.0300 C   0  0  0  0  0  0  0  0  0  0  0  0
   46.3910   33.8440   43.9480 N   0  0  0  0  0  0  0  0  0  0  0  0
   45.6720   33.8580   45.1080 C   0  0  0  0  0  0  0  0  0  0  0  0
   44.8300   34.8750   45.3520 N   0  0  0  0  0  0  0  0  0  0  0  0
   43.9980   36.6890   44.7000 H   0  0  0  0  0  0  0  0  0  0  0  0
   45.2990   36.7180   42.5450 H   0  0  0  0  0  0  0  0  0  0  0  0
   47.0600   34.7720   41.7620 C   0  0  0  0  0  0  0  0  0  0  0  0
   48.3850   35.4980   41.8190 C   0  0  0  0  0  0  0  0  0  0  0  0
   48.2670   33.9590   41.7470 C   0  0  0  0  0  0  0  0  0  0  0  0
   46.4590   34.9060   40.8330 H   0  0  0  0  0  0  0  0  0  0  0  0
   48.6830   35.9690   42.7490 H   0  0  0  0  0  0  0  0  0  0  0  0
   48.6680   36.0160   40.9010 H   0  0  0  0  0  0  0  0  0  0  0  0
   48.6520   33.4500   40.8410 H   0  0  0  0  0  0  0  0  0  0  0  0
   48.6260   33.4820   42.6880 H   0  0  0  0  0  0  0  0  0  0  0  0
   45.9430   32.6810   45.9680 C   0  0  0  0  0  0  0  0  0  0  0  0
   45.5260   32.7070   47.4180 C   0  0  0  0  0  0  0  0  0  0  0  0
   46.9630   32.7350   47.0280 C   0  0  0  0  0  0  0  0  0  0  0  0
  1  7  1  0  0  0  0
  1  6  1  0  0  0  0
  2  1  2  0  0  0  0
  3  2  1  0  0  0  0
  3  4  2  0  0  0  0
  4  5  1  0  0  0  0
  5  6  2  0  0  0  0
  5 17  1  0  0  0  0
  8  2  1  0  0  0  0
  9 10  1  0  0  0  0
  9  3  1  0  0  0  0
 10 13  1  0  0  0  0
 11  9  1  0  0  0  0
 11 10  1  0  0  0  0
 11 16  1  0  0  0  0
 12  9  1  0  0  0  0
 14 10  1  0  0  0  0
 15 11  1  0  0  0  0
 17 19  1  0  0  0  0
 17 18  1  0  0  0  0
 19 18  1  0  0  0  0
M  END
>  <minimizedAffinity>
-4.40529728

>  <minimizedRMSD>
0.283670515

$$$$
