
 OpenBabel03252502343D

 34 36  0  0  1  0  0  0  0  0999 V2000
   46.6550   31.5890   45.0150 C   0  0  2  0  0  0  0  0  0  0  0  0
   46.0430   30.5360   44.0750 C   0  0  0  0  0  0  0  0  0  0  0  0
   46.2660   29.2150   44.8230 C   0  0  0  0  0  0  0  0  0  0  0  0
   45.2710   29.2710   45.9650 C   0  0  0  0  0  0  0  0  0  0  0  0
   45.6260   30.3710   46.9040 C   0  0  0  0  0  0  0  0  0  0  0  0
   45.8940   31.7040   46.2850 C   0  0  1  0  0  0  0  0  0  0  0  0
   47.6860   31.1990   45.2610 H   0  0  0  0  0  0  0  0  0  0  0  0
   46.6050   30.6040   43.1420 H   0  0  0  0  0  0  0  0  0  0  0  0
   44.9530   30.6660   43.9800 H   0  0  0  0  0  0  0  0  0  0  0  0
   46.0320   28.3610   44.1460 H   0  0  0  0  0  0  0  0  0  0  0  0
   47.2850   29.1660   45.2190 H   0  0  0  0  0  0  0  0  0  0  0  0
   44.2500   29.4060   45.5830 H   0  0  0  0  0  0  0  0  0  0  0  0
   45.3050   28.3250   46.5360 H   0  0  0  0  0  0  0  0  0  0  0  0
   44.8230   30.4840   47.6650 H   0  0  0  0  0  0  0  0  0  0  0  0
   46.5290   30.0330   47.4740 H   0  0  0  0  0  0  0  0  0  0  0  0
   44.9080   32.1920   46.0450 H   0  0  0  0  0  0  0  0  0  0  0  0
   47.9140   34.3450   42.7910 C   0  0  0  0  0  0  0  0  0  0  0  0
   47.9170   33.1250   43.4890 C   0  0  0  0  0  0  0  0  0  0  0  0
   46.7720   32.8150   44.2450 C   0  0  0  0  0  0  0  0  0  0  0  0
   45.7490   33.7100   44.2480 N   0  0  0  0  0  0  0  0  0  0  0  0
   45.7720   34.8620   43.5760 C   0  0  0  0  0  0  0  0  0  0  0  0
   46.8690   35.1850   42.8380 N   0  0  0  0  0  0  0  0  0  0  0  0
   48.7310   32.4360   43.4730 H   0  0  0  0  0  0  0  0  0  0  0  0
   49.1350   34.6600   41.9930 C   0  0  0  0  0  0  0  0  0  0  0  0
   49.6150   33.5390   41.3420 F   0  0  0  0  0  0  0  0  0  0  0  0
   48.8320   35.6870   41.1000 F   0  0  0  0  0  0  0  0  0  0  0  0
   50.1170   35.1830   42.8260 F   0  0  0  0  0  0  0  0  0  0  0  0
   44.6280   35.8130   43.6140 C   0  0  0  0  0  0  0  0  0  0  0  0
   43.6970   35.5180   42.6680 F   0  0  0  0  0  0  0  0  0  0  0  0
   45.1020   37.1340   43.4530 F   0  0  0  0  0  0  0  0  0  0  0  0
   44.0400   35.8310   44.8540 F   0  0  0  0  0  0  0  0  0  0  0  0
   46.7180   32.5410   47.2440 C   0  0  0  0  0  0  0  0  0  0  0  0
   47.7240   31.9110   48.1220 C   0  0  0  0  0  0  0  0  0  0  0  0
   46.3630   32.3340   48.6920 C   0  0  0  0  0  0  0  0  0  0  0  0
  1  7  1  1  0  0  0
  1  6  1  0  0  0  0
  2  3  1  0  0  0  0
  2  1  1  0  0  0  0
  3 11  1  0  0  0  0
  3  4  1  0  0  0  0
  4 13  1  0  0  0  0
  4  5  1  0  0  0  0
  5 15  1  0  0  0  0
  5 14  1  0  0  0  0
  6 16  1  6  0  0  0
  6  5  1  0  0  0  0
  6 32  1  0  0  0  0
  8  2  1  0  0  0  0
  9  2  1  0  0  0  0
 10  3  1  0  0  0  0
 12  4  1  0  0  0  0
 17 22  2  0  0  0  0
 17 18  1  0  0  0  0
 18 19  2  0  0  0  0
 19 20  1  0  0  0  0
 19  1  1  0  0  0  0
 21 28  1  0  0  0  0
 21 20  2  0  0  0  0
 22 21  1  0  0  0  0
 23 18  1  0  0  0  0
 24 17  1  0  0  0  0
 24 27  1  0  0  0  0
 25 24  1  0  0  0  0
 26 24  1  0  0  0  0
 28 31  1  0  0  0  0
 29 28  1  0  0  0  0
 30 28  1  0  0  0  0
 32 33  1  0  0  0  0
 32 34  1  0  0  0  0
 33 34  1  0  0  0  0
M  END
>  <minimizedAffinity>
-6.15588856

>  <minimizedRMSD>
1.08071899

$$$$
