
 OpenBabel03252505463D

 22 24  0  0  1  0  0  0  0  0999 V2000
   45.5560   34.0430   43.6980 C   0  0  1  0  0  0  0  0  0  0  0  0
   46.4960   32.8080   43.5080 C   0  0  1  0  0  0  0  0  0  0  0  0
   46.9530   34.2390   43.4720 C   0  0  0  0  0  0  0  0  0  0  0  0
   45.1340   34.1260   44.7310 H   0  0  0  0  0  0  0  0  0  0  0  0
   46.4140   32.2320   42.5910 H   0  0  0  0  0  0  0  0  0  0  0  0
   47.3530   34.5660   42.4850 H   0  0  0  0  0  0  0  0  0  0  0  0
   47.5890   34.6130   44.3150 H   0  0  0  0  0  0  0  0  0  0  0  0
   44.5300   34.1040   42.6430 C   0  0  0  0  0  0  0  0  0  0  0  0
   44.4120   35.2930   41.8690 C   0  0  0  0  0  0  0  0  0  0  0  0
   43.4600   35.3860   40.8520 C   0  0  0  0  0  0  0  0  0  0  0  0
   42.6730   34.2870   40.6570 N   0  0  0  0  0  0  0  0  0  0  0  0
   42.8180   33.1630   41.4220 C   0  0  0  0  0  0  0  0  0  0  0  0
   43.7220   33.0810   42.3850 N   0  0  0  0  0  0  0  0  0  0  0  0
   45.0640   36.1360   42.0680 H   0  0  0  0  0  0  0  0  0  0  0  0
   43.3540   36.2680   40.2590 H   0  0  0  0  0  0  0  0  0  0  0  0
   41.9180   31.9900   41.1520 C   0  0  0  0  0  3  0  0  0  0  0  0
   40.5970   31.8990   41.8010 C   0  0  0  0  0  2  0  0  0  0  0  0
   40.6870   32.2440   40.3040 C   0  0  0  0  0  2  0  0  0  0  0  0
   46.8090   32.0810   44.7960 C   0  0  0  0  0  0  0  0  0  0  0  0
   47.8890   31.2340   44.6730 F   0  0  0  0  0  0  0  0  0  0  0  0
   47.1420   33.0370   45.7680 F   0  0  0  0  0  0  0  0  0  0  0  0
   45.6950   31.4240   45.2700 F   0  0  0  0  0  0  0  0  0  0  0  0
  1  4  1  1  0  0  0
  2  5  1  6  0  0  0
  2  1  1  0  0  0  0
  2 19  1  0  0  0  0
  3  2  1  0  0  0  0
  3  1  1  0  0  0  0
  3  7  1  0  0  0  0
  6  3  1  0  0  0  0
  8  1  1  0  0  0  0
  9 14  1  0  0  0  0
  9  8  2  0  0  0  0
 10  9  1  0  0  0  0
 11 10  2  0  0  0  0
 11 12  1  0  0  0  0
 12 13  2  0  0  0  0
 13  8  1  0  0  0  0
 15 10  1  0  0  0  0
 16 12  1  0  0  0  0
 16 17  1  0  0  0  0
 18 16  1  0  0  0  0
 18 17  1  0  0  0  0
 19 22  1  0  0  0  0
 19 21  1  0  0  0  0
 20 19  1  0  0  0  0
M  END
>  <minimizedAffinity>
-3.44812918

>  <minimizedRMSD>
6.39888954

$$$$
