
 OpenBabel03252506203D

 27 29  0  0  0  0  0  0  0  0999 V2000
   45.3830   34.6580   41.7230 C   0  0  0  0  0  0  0  0  0  0  0  0
   44.6860   34.1130   40.6320 C   0  0  0  0  0  0  0  0  0  0  0  0
   45.3350   33.0830   39.9100 C   0  0  0  0  0  0  0  0  0  0  0  0
   46.5690   32.6830   40.2970 N   0  0  0  0  0  0  0  0  0  0  0  0
   47.1950   33.2480   41.3630 C   0  0  0  0  0  0  0  0  0  0  0  0
   46.5990   34.2360   42.0740 N   0  0  0  0  0  0  0  0  0  0  0  0
   43.7220   34.4870   40.3970 H   0  0  0  0  0  0  0  0  0  0  0  0
   44.8120   32.6680   39.0840 H   0  0  0  0  0  0  0  0  0  0  0  0
   49.3030   35.3880   41.7020 Cl  0  0  0  0  0  0  0  0  0  0  0  0
   49.5510   33.6780   41.8810 C   0  0  0  0  0  0  0  0  0  0  0  0
   48.5250   32.7520   41.7080 C   0  0  0  0  0  0  0  0  0  0  0  0
   48.6860   31.3960   41.8410 C   0  0  0  0  0  0  0  0  0  0  0  0
   49.9600   30.9550   42.1700 C   0  0  0  0  0  0  0  0  0  0  0  0
   51.0460   31.7880   42.3630 C   0  0  0  0  0  0  0  0  0  0  0  0
   50.7810   33.1460   42.2050 C   0  0  0  0  0  0  0  0  0  0  0  0
   47.8720   30.7140   41.7000 H   0  0  0  0  0  0  0  0  0  0  0  0
   50.0740   29.8770   42.2720 H   0  0  0  0  0  0  0  0  0  0  0  0
   52.0130   31.4180   42.6140 H   0  0  0  0  0  0  0  0  0  0  0  0
   51.6080   33.8260   42.3500 H   0  0  0  0  0  0  0  0  0  0  0  0
   44.7150   35.7240   42.4730 C   0  0  0  0  0  3  0  0  0  0  0  0
   45.4350   36.5070   43.2370 C   0  0  0  0  0  3  0  0  0  0  0  0
   44.8390   37.6120   44.0310 C   0  0  0  0  0  0  0  0  0  0  0  0
   44.6860   37.2350   45.0620 H   0  0  0  0  0  0  0  0  0  0  0  0
   43.8060   37.8500   43.6470 H   0  0  0  0  0  0  0  0  0  0  0  0
   45.7240   38.8310   44.0760 C   0  0  0  0  0  3  0  0  0  0  0  0
   45.2200   40.1610   43.6870 C   0  0  0  0  0  2  0  0  0  0  0  0
   45.3240   39.8350   45.1680 C   0  0  0  0  0  2  0  0  0  0  0  0
  1  6  1  0  0  0  0
  1 20  1  0  0  0  0
  2  1  2  0  0  0  0
  3  4  2  0  0  0  0
  3  2  1  0  0  0  0
  4  5  1  0  0  0  0
  5 11  1  0  0  0  0
  5  6  2  0  0  0  0
  7  2  1  0  0  0  0
  8  3  1  0  0  0  0
  9 10  1  0  0  0  0
 10 15  1  0  0  0  0
 11 12  1  0  0  0  0
 11 10  2  0  0  0  0
 12 13  2  0  0  0  0
 13 17  1  0  0  0  0
 13 14  1  0  0  0  0
 14 18  1  0  0  0  0
 15 19  1  0  0  0  0
 15 14  2  0  0  0  0
 16 12  1  0  0  0  0
 20 21  2  0  0  0  0
 21 22  1  0  0  0  0
 22 25  1  0  0  0  0
 22 23  1  0  0  0  0
 24 22  1  0  0  0  0
 25 27  1  0  0  0  0
 26 25  1  0  0  0  0
 26 27  1  0  0  0  0
M  END
>  <minimizedAffinity>
-3.74362206

>  <minimizedRMSD>
1.76109743

$$$$
