
 OpenBabel03252509143D

 39 43  0  0  1  0  0  0  0  0999 V2000
   47.4720   32.5350   44.3300 C   0  0  0  0  0  0  0  0  0  0  0  0
   46.7600   33.4920   43.6140 C   0  0  0  0  0  0  0  0  0  0  0  0
   45.7200   34.2300   44.1570 C   0  0  0  0  0  0  0  0  0  0  0  0
   45.3650   34.0080   45.4900 C   0  0  0  0  0  0  0  0  0  0  0  0
   44.4370   34.5210   46.3310 N   0  0  0  0  0  0  0  0  0  0  0  0
   44.5490   33.9190   47.5350 C   0  0  0  0  0  0  0  0  0  0  0  0
   45.5490   33.0400   47.4190 N   0  0  0  0  0  0  0  0  0  0  0  0
   46.0750   33.0650   46.1790 C   0  0  0  0  0  0  0  0  0  0  0  0
   47.1180   32.3100   45.6690 C   0  0  0  0  0  0  0  0  0  0  0  0
   48.2750   31.9840   43.8620 H   0  0  0  0  0  0  0  0  0  0  0  0
   43.7680   35.2650   46.0310 H   0  0  0  0  0  0  0  0  0  0  0  0
   43.9320   34.1280   48.4140 H   0  0  0  0  0  0  0  0  0  0  0  0
   47.6420   31.5760   46.2670 H   0  0  0  0  0  0  0  0  0  0  0  0
   46.9810   33.1200   39.9680 C   0  0  0  0  0  0  0  0  0  0  0  0
   47.8030   34.1800   39.6020 C   0  0  0  0  0  0  0  0  0  0  0  0
   48.2770   35.0170   40.6060 C   0  0  0  0  0  0  0  0  0  0  0  0
   47.9270   34.7780   41.9130 N   0  0  0  0  0  0  0  0  0  0  0  0
   47.1230   33.7310   42.2180 C   0  0  0  0  0  0  0  0  0  0  0  0
   46.6330   32.8860   41.2710 N   0  0  0  0  0  0  0  0  0  0  0  0
   46.5860   32.4430   39.2280 H   0  0  0  0  0  0  0  0  0  0  0  0
   48.0520   34.3290   38.5530 H   0  0  0  0  0  0  0  0  0  0  0  0
   48.9150   35.8450   40.3610 H   0  0  0  0  0  0  0  0  0  0  0  0
   44.8340   35.4390   43.2190 S   0  0  0  0  0  0  0  0  0  0  0  0
   42.3460   35.1740   42.4130 N   0  0  0  0  0  0  0  0  0  0  0  0
   43.6620   34.7150   42.0290 C   0  0  1  0  0  0  0  0  0  0  0  0
   44.0600   35.3050   40.6690 C   0  0  0  0  0  0  0  0  0  0  0  0
   43.0410   35.2380   39.7390 O   0  0  0  0  0  0  0  0  0  0  0  0
   41.9460   34.4880   40.1010 C   0  0  0  0  0  0  0  0  0  0  0  0
   41.3760   35.0520   41.3680 C   0  0  1  0  0  0  0  0  0  0  0  0
   42.1040   34.7120   43.3020 H   0  0  0  0  0  0  0  0  0  0  0  0
   43.7300   33.6100   41.9980 H   0  0  0  0  0  0  0  0  0  0  0  0
   44.8690   34.7340   40.2280 H   0  0  0  0  0  0  0  0  0  0  0  0
   44.2970   36.3780   40.8150 H   0  0  0  0  0  0  0  0  0  0  0  0
   42.2870   33.4400   40.2420 H   0  0  0  0  0  0  0  0  0  0  0  0
   41.2210   34.5540   39.2870 H   0  0  0  0  0  0  0  0  0  0  0  0
   41.0700   36.1080   41.1130 H   0  0  0  0  0  0  0  0  0  0  0  0
   40.1040   34.3790   41.8110 C   0  0  0  0  0  0  0  0  0  0  0  0
   39.1780   33.7350   40.8620 C   0  0  0  0  0  0  0  0  0  0  0  0
   39.9330   32.9280   41.8860 C   0  0  0  0  0  0  0  0  0  0  0  0
  1  9  1  0  0  0  0
  2  3  1  0  0  0  0
  2  1  2  0  0  0  0
  3  4  2  0  0  0  0
  4  8  1  0  0  0  0
  4  5  1  0  0  0  0
  5  6  1  0  0  0  0
  6 12  1  0  0  0  0
  7  6  2  0  0  0  0
  8  7  1  0  0  0  0
  9  8  2  0  0  0  0
  9 13  1  0  0  0  0
 10  1  1  0  0  0  0
 11  5  1  0  0  0  0
 14 19  1  0  0  0  0
 15 14  2  0  0  0  0
 15 16  1  0  0  0  0
 16 17  2  0  0  0  0
 17 18  1  0  0  0  0
 18  2  1  0  0  0  0
 19 18  2  0  0  0  0
 20 14  1  0  0  0  0
 21 15  1  0  0  0  0
 22 16  1  0  0  0  0
 23  3  1  0  0  0  0
 24 30  1  0  0  0  0
 25 31  1  6  0  0  0
 25 24  1  0  0  0  0
 25 23  1  0  0  0  0
 26 33  1  0  0  0  0
 26 25  1  0  0  0  0
 27 28  1  0  0  0  0
 27 26  1  0  0  0  0
 28 34  1  0  0  0  0
 28 29  1  0  0  0  0
 29 36  1  6  0  0  0
 29 37  1  0  0  0  0
 29 24  1  0  0  0  0
 32 26  1  0  0  0  0
 35 28  1  0  0  0  0
 37 39  1  0  0  0  0
 38 37  1  0  0  0  0
 38 39  1  0  0  0  0
M  END
>  <minimizedAffinity>
-5.99065018

>  <minimizedRMSD>
0.568399072

$$$$
