
 OpenBabel03252505463D

 22 24  0  0  1  0  0  0  0  0999 V2000
   45.4780   32.8080   43.6530 C   0  0  1  0  0  0  0  0  0  0  0  0
   46.5520   33.6100   42.8480 C   0  0  1  0  0  0  0  0  0  0  0  0
   45.5690   32.6520   42.2360 C   0  0  0  0  0  0  0  0  0  0  0  0
   44.6820   33.4560   44.1000 H   0  0  0  0  0  0  0  0  0  0  0  0
   47.5960   33.3300   42.9600 H   0  0  0  0  0  0  0  0  0  0  0  0
   46.0350   31.7560   41.7680 H   0  0  0  0  0  0  0  0  0  0  0  0
   44.7530   33.0710   41.5930 H   0  0  0  0  0  0  0  0  0  0  0  0
   46.1040   31.8990   44.6290 C   0  0  0  0  0  0  0  0  0  0  0  0
   46.6460   30.6660   44.1670 C   0  0  0  0  0  0  0  0  0  0  0  0
   47.2590   29.7830   45.0590 C   0  0  0  0  0  0  0  0  0  0  0  0
   47.3010   30.1750   46.3670 N   0  0  0  0  0  0  0  0  0  0  0  0
   46.7690   31.3680   46.7690 C   0  0  0  0  0  0  0  0  0  0  0  0
   46.1880   32.2010   45.9200 N   0  0  0  0  0  0  0  0  0  0  0  0
   46.5840   30.4070   43.1160 H   0  0  0  0  0  0  0  0  0  0  0  0
   47.6720   28.8530   44.7340 H   0  0  0  0  0  0  0  0  0  0  0  0
   46.8510   31.7360   48.2240 C   0  0  0  0  0  3  0  0  0  0  0  0
   45.7220   32.4140   48.8860 C   0  0  0  0  0  2  0  0  0  0  0  0
   46.0030   30.9320   49.1900 C   0  0  0  0  0  2  0  0  0  0  0  0
   46.2070   35.0690   42.6630 C   0  0  0  0  0  0  0  0  0  0  0  0
   47.2750   35.8080   42.2050 F   0  0  0  0  0  0  0  0  0  0  0  0
   45.1960   35.1600   41.6940 F   0  0  0  0  0  0  0  0  0  0  0  0
   45.6780   35.5970   43.8200 F   0  0  0  0  0  0  0  0  0  0  0  0
  1  4  1  1  0  0  0
  1  8  1  0  0  0  0
  2  5  1  1  0  0  0
  2  1  1  0  0  0  0
  3  2  1  0  0  0  0
  3  1  1  0  0  0  0
  6  3  1  0  0  0  0
  7  3  1  0  0  0  0
  8 13  1  0  0  0  0
  9  8  2  0  0  0  0
  9 10  1  0  0  0  0
 10 11  2  0  0  0  0
 11 12  1  0  0  0  0
 12 16  1  0  0  0  0
 13 12  2  0  0  0  0
 14  9  1  0  0  0  0
 15 10  1  0  0  0  0
 16 17  1  0  0  0  0
 16 18  1  0  0  0  0
 17 18  1  0  0  0  0
 19  2  1  0  0  0  0
 19 22  1  0  0  0  0
 20 19  1  0  0  0  0
 21 19  1  0  0  0  0
M  END
>  <minimizedAffinity>
-3.92113543

>  <minimizedRMSD>
1.5794909

$$$$
