
 OpenBabel03252501463D

 17 18  0  0  0  0  0  0  0  0999 V2000
   36.5400   29.1640   41.3520 C   0  0  0  0  0  0  0  0  0  0  0  0
   37.3150   30.3440   41.3200 C   0  0  0  0  0  0  0  0  0  0  0  0
   38.5090   30.3880   42.0480 C   0  0  0  0  0  0  0  0  0  0  0  0
   38.8800   29.2870   42.7640 N   0  0  0  0  0  0  0  0  0  0  0  0
   38.0970   28.1780   42.7620 C   0  0  0  0  0  0  0  0  0  0  0  0
   36.9620   28.1280   42.0720 N   0  0  0  0  0  0  0  0  0  0  0  0
   35.6490   29.2350   40.7630 H   0  0  0  0  0  0  0  0  0  0  0  0
   39.1190   31.2850   42.0350 H   0  0  0  0  0  0  0  0  0  0  0  0
   38.5780   27.0110   43.5750 C   0  0  0  0  0  3  0  0  0  0  0  0
   40.0580   26.7570   43.6740 C   0  0  0  0  0  2  0  0  0  0  0  0
   39.2610   25.8760   42.7840 C   0  0  0  0  0  2  0  0  0  0  0  0
   36.9010   31.5190   40.5430 C   0  0  0  0  0  3  0  0  0  0  0  0
   37.6950   32.5060   40.1940 C   0  0  0  0  0  3  0  0  0  0  0  0
   37.2070   33.6800   39.3990 C   0  0  0  0  0  0  0  0  0  0  0  0
   38.0580   34.0310   38.7490 H   0  0  0  0  0  0  0  0  0  0  0  0
   36.8520   34.5100   40.0170 H   0  0  0  0  0  0  0  0  0  0  0  0
   36.4520   33.2850   38.6960 H   0  0  0  0  0  0  0  0  0  0  0  0
  1  6  1  0  0  0  0
  2  1  2  0  0  0  0
  2  3  1  0  0  0  0
  3  4  2  0  0  0  0
  5  4  1  0  0  0  0
  5  9  1  0  0  0  0
  6  5  2  0  0  0  0
  7  1  1  0  0  0  0
  8  3  1  0  0  0  0
  9 10  1  0  0  0  0
 11  9  1  0  0  0  0
 11 10  1  0  0  0  0
 12  2  1  0  0  0  0
 13 12  2  0  0  0  0
 14 16  1  0  0  0  0
 14 13  1  0  0  0  0
 15 14  1  0  0  0  0
 17 14  1  0  0  0  0
M  END
>  <minimizedAffinity>
-3.93206835

$$$$

 OpenBabel03252501463D

 17 18  0  0  0  0  0  0  0  0999 V2000
   38.1200   29.2570   42.2020 C   0  0  0  0  0  0  0  0  0  0  0  0
   37.0290   28.4510   41.8120 C   0  0  0  0  0  0  0  0  0  0  0  0
   36.0810   28.9780   40.9270 C   0  0  0  0  0  0  0  0  0  0  0  0
   36.2480   30.2550   40.4740 N   0  0  0  0  0  0  0  0  0  0  0  0
   37.3150   30.9870   40.8810 C   0  0  0  0  0  0  0  0  0  0  0  0
   38.2200   30.4940   41.7200 N   0  0  0  0  0  0  0  0  0  0  0  0
   38.7840   28.7600   42.8780 H   0  0  0  0  0  0  0  0  0  0  0  0
   35.2350   28.3750   40.6150 H   0  0  0  0  0  0  0  0  0  0  0  0
   37.4240   32.3820   40.3360 C   0  0  0  0  0  3  0  0  0  0  0  0
   37.1680   32.6090   38.8710 C   0  0  0  0  0  2  0  0  0  0  0  0
   38.5760   32.6260   39.3390 C   0  0  0  0  0  2  0  0  0  0  0  0
   36.8650   27.0790   42.3090 C   0  0  0  0  0  3  0  0  0  0  0  0
   37.1060   25.9930   41.6090 C   0  0  0  0  0  3  0  0  0  0  0  0
   36.9180   24.6190   42.1780 C   0  0  0  0  0  0  0  0  0  0  0  0
   37.6870   23.9450   41.7040 H   0  0  0  0  0  0  0  0  0  0  0  0
   35.9180   24.2090   42.0100 H   0  0  0  0  0  0  0  0  0  0  0  0
   37.2070   24.6830   43.2410 H   0  0  0  0  0  0  0  0  0  0  0  0
  1  7  1  0  0  0  0
  2  1  1  0  0  0  0
  2 12  1  0  0  0  0
  3  2  2  0  0  0  0
  4  5  2  0  0  0  0
  4  3  1  0  0  0  0
  5  6  1  0  0  0  0
  6  1  2  0  0  0  0
  8  3  1  0  0  0  0
  9  5  1  0  0  0  0
 10 11  1  0  0  0  0
 10  9  1  0  0  0  0
 11  9  1  0  0  0  0
 13 14  1  0  0  0  0
 13 12  2  0  0  0  0
 14 17  1  0  0  0  0
 15 14  1  0  0  0  0
 16 14  1  0  0  0  0
M  END
>  <minimizedAffinity>
-3.91586328

$$$$

 OpenBabel03252501463D

 17 18  0  0  0  0  0  0  0  0999 V2000
   38.6440   30.3200   42.1430 C   0  0  0  0  0  0  0  0  0  0  0  0
   37.4270   30.3530   41.4280 C   0  0  0  0  0  0  0  0  0  0  0  0
   36.6070   29.2190   41.4360 C   0  0  0  0  0  0  0  0  0  0  0  0
   37.0160   28.1200   42.1360 N   0  0  0  0  0  0  0  0  0  0  0  0
   38.1950   28.1410   42.8070 C   0  0  0  0  0  0  0  0  0  0  0  0
   38.9790   29.2150   42.8050 N   0  0  0  0  0  0  0  0  0  0  0  0
   39.1930   31.2350   42.0720 H   0  0  0  0  0  0  0  0  0  0  0  0
   35.6680   29.2240   40.8930 H   0  0  0  0  0  0  0  0  0  0  0  0
   38.5700   26.8930   43.5510 C   0  0  0  0  0  3  0  0  0  0  0  0
   40.0260   26.5280   43.6680 C   0  0  0  0  0  2  0  0  0  0  0  0
   39.1950   25.7650   42.7030 C   0  0  0  0  0  2  0  0  0  0  0  0
   37.0030   31.5430   40.6800 C   0  0  0  0  0  3  0  0  0  0  0  0
   37.8000   32.5180   40.3050 C   0  0  0  0  0  3  0  0  0  0  0  0
   37.3010   33.7080   39.5430 C   0  0  0  0  0  0  0  0  0  0  0  0
   38.1300   34.0480   38.8590 H   0  0  0  0  0  0  0  0  0  0  0  0
   36.9900   34.5390   40.1820 H   0  0  0  0  0  0  0  0  0  0  0  0
   36.5090   33.3350   38.8700 H   0  0  0  0  0  0  0  0  0  0  0  0
  1  6  1  0  0  0  0
  2  3  1  0  0  0  0
  2  1  2  0  0  0  0
  3  4  2  0  0  0  0
  4  5  1  0  0  0  0
  5  9  1  0  0  0  0
  6  5  2  0  0  0  0
  7  1  1  0  0  0  0
  8  3  1  0  0  0  0
  9 10  1  0  0  0  0
 11  9  1  0  0  0  0
 11 10  1  0  0  0  0
 12  2  1  0  0  0  0
 13 12  2  0  0  0  0
 14 16  1  0  0  0  0
 14 13  1  0  0  0  0
 15 14  1  0  0  0  0
 17 14  1  0  0  0  0
M  END
>  <minimizedAffinity>
-3.87227106

$$$$

 OpenBabel03252501463D

 17 18  0  0  0  0  0  0  0  0999 V2000
   36.2980   27.4820   38.9760 C   0  0  0  0  0  0  0  0  0  0  0  0
   35.3950   28.5640   39.0560 C   0  0  0  0  0  0  0  0  0  0  0  0
   35.1630   29.1600   40.3000 C   0  0  0  0  0  0  0  0  0  0  0  0
   35.8200   28.6710   41.3930 N   0  0  0  0  0  0  0  0  0  0  0  0
   36.6770   27.6280   41.2610 C   0  0  0  0  0  0  0  0  0  0  0  0
   36.9040   27.0570   40.0820 N   0  0  0  0  0  0  0  0  0  0  0  0
   36.4040   27.1000   37.9820 H   0  0  0  0  0  0  0  0  0  0  0  0
   34.4730   29.9930   40.3830 H   0  0  0  0  0  0  0  0  0  0  0  0
   37.3580   27.1520   42.5110 C   0  0  0  0  0  3  0  0  0  0  0  0
   37.4690   28.0940   43.6800 C   0  0  0  0  0  2  0  0  0  0  0  0
   38.6860   27.8560   42.8640 C   0  0  0  0  0  2  0  0  0  0  0  0
   34.6980   29.0770   37.8700 C   0  0  0  0  0  3  0  0  0  0  0  0
   33.5520   28.6210   37.4170 C   0  0  0  0  0  3  0  0  0  0  0  0
   32.8920   29.1910   36.1970 C   0  0  0  0  0  0  0  0  0  0  0  0
   31.7780   29.1110   36.3420 H   0  0  0  0  0  0  0  0  0  0  0  0
   33.1780   28.6880   35.2690 H   0  0  0  0  0  0  0  0  0  0  0  0
   33.1060   30.2750   36.2080 H   0  0  0  0  0  0  0  0  0  0  0  0
  1  2  2  0  0  0  0
  1  6  1  0  0  0  0
  2  3  1  0  0  0  0
  3  8  1  0  0  0  0
  3  4  2  0  0  0  0
  5  4  1  0  0  0  0
  5  9  1  0  0  0  0
  6  5  2  0  0  0  0
  7  1  1  0  0  0  0
  9 11  1  0  0  0  0
  9 10  1  0  0  0  0
 11 10  1  0  0  0  0
 12  2  1  0  0  0  0
 13 12  2  0  0  0  0
 14 17  1  0  0  0  0
 14 15  1  0  0  0  0
 14 13  1  0  0  0  0
 16 14  1  0  0  0  0
M  END
>  <minimizedAffinity>
-3.71530747

$$$$

 OpenBabel03252501463D

 17 18  0  0  0  0  0  0  0  0999 V2000
   38.7940   29.1530   41.4300 C   0  0  0  0  0  0  0  0  0  0  0  0
   37.6880   29.9890   41.1600 C   0  0  0  0  0  0  0  0  0  0  0  0
   36.3970   29.4690   41.3020 C   0  0  0  0  0  0  0  0  0  0  0  0
   36.2550   28.1690   41.6960 N   0  0  0  0  0  0  0  0  0  0  0  0
   37.3520   27.4090   41.9420 C   0  0  0  0  0  0  0  0  0  0  0  0
   38.5810   27.8960   41.8110 N   0  0  0  0  0  0  0  0  0  0  0  0
   39.7330   29.6480   41.2930 H   0  0  0  0  0  0  0  0  0  0  0  0
   35.5350   30.0940   41.1000 H   0  0  0  0  0  0  0  0  0  0  0  0
   37.1070   25.9910   42.3710 C   0  0  0  0  0  3  0  0  0  0  0  0
   38.1970   24.9740   42.1670 C   0  0  0  0  0  2  0  0  0  0  0  0
   37.0410   24.9470   41.2360 C   0  0  0  0  0  2  0  0  0  0  0  0
   37.8600   31.3850   40.7380 C   0  0  0  0  0  3  0  0  0  0  0  0
   37.0910   32.0070   39.8730 C   0  0  0  0  0  3  0  0  0  0  0  0
   37.3220   33.4370   39.4840 C   0  0  0  0  0  0  0  0  0  0  0  0
   36.3180   33.8990   39.2660 H   0  0  0  0  0  0  0  0  0  0  0  0
   37.9750   33.5540   38.6150 H   0  0  0  0  0  0  0  0  0  0  0  0
   37.6830   33.9500   40.3930 H   0  0  0  0  0  0  0  0  0  0  0  0
  1  6  1  0  0  0  0
  2  3  1  0  0  0  0
  2  1  2  0  0  0  0
  3  4  2  0  0  0  0
  4  5  1  0  0  0  0
  5  9  1  0  0  0  0
  6  5  2  0  0  0  0
  7  1  1  0  0  0  0
  8  3  1  0  0  0  0
 10  9  1  0  0  0  0
 11 10  1  0  0  0  0
 11  9  1  0  0  0  0
 12  2  1  0  0  0  0
 13 12  2  0  0  0  0
 14 13  1  0  0  0  0
 14 17  1  0  0  0  0
 15 14  1  0  0  0  0
 16 14  1  0  0  0  0
M  END
>  <minimizedAffinity>
-3.6713016

$$$$

 OpenBabel03252501463D

 17 18  0  0  0  0  0  0  0  0999 V2000
   37.6080   28.1860   43.0370 C   0  0  0  0  0  0  0  0  0  0  0  0
   38.9200   28.3700   42.5490 C   0  0  0  0  0  0  0  0  0  0  0  0
   39.5640   27.2990   41.9180 C   0  0  0  0  0  0  0  0  0  0  0  0
   38.8970   26.1130   41.7990 N   0  0  0  0  0  0  0  0  0  0  0  0
   37.6370   25.9900   42.2870 C   0  0  0  0  0  0  0  0  0  0  0  0
   37.0190   27.0020   42.8860 N   0  0  0  0  0  0  0  0  0  0  0  0
   37.2090   29.0640   43.4990 H   0  0  0  0  0  0  0  0  0  0  0  0
   40.5710   27.4210   41.5360 H   0  0  0  0  0  0  0  0  0  0  0  0
   36.9760   24.6530   42.1150 C   0  0  0  0  0  3  0  0  0  0  0  0
   37.6740   23.5980   41.3000 C   0  0  0  0  0  2  0  0  0  0  0  0
   36.5250   24.3050   40.6810 C   0  0  0  0  0  2  0  0  0  0  0  0
   39.6220   29.6530   42.6850 C   0  0  0  0  0  3  0  0  0  0  0  0
   40.9270   29.8020   42.6500 C   0  0  0  0  0  3  0  0  0  0  0  0
   41.5810   31.1430   42.7970 C   0  0  0  0  0  0  0  0  0  0  0  0
   42.5230   31.1340   42.1770 H   0  0  0  0  0  0  0  0  0  0  0  0
   41.8260   31.4010   43.8310 H   0  0  0  0  0  0  0  0  0  0  0  0
   40.9150   31.8680   42.2960 H   0  0  0  0  0  0  0  0  0  0  0  0
  1  7  1  0  0  0  0
  2 12  1  0  0  0  0
  2  1  2  0  0  0  0
  3  2  1  0  0  0  0
  4  3  2  0  0  0  0
  4  5  1  0  0  0  0
  5  6  2  0  0  0  0
  6  1  1  0  0  0  0
  8  3  1  0  0  0  0
  9  5  1  0  0  0  0
 10  9  1  0  0  0  0
 11 10  1  0  0  0  0
 11  9  1  0  0  0  0
 13 12  2  0  0  0  0
 13 14  1  0  0  0  0
 14 16  1  0  0  0  0
 15 14  1  0  0  0  0
 17 14  1  0  0  0  0
M  END
>  <minimizedAffinity>
-3.62102818

$$$$

 OpenBabel03252501463D

 17 18  0  0  0  0  0  0  0  0999 V2000
   37.1510   28.2710   39.2970 C   0  0  0  0  0  0  0  0  0  0  0  0
   36.4570   29.4420   38.9210 C   0  0  0  0  0  0  0  0  0  0  0  0
   36.1280   30.3780   39.9070 C   0  0  0  0  0  0  0  0  0  0  0  0
   36.4900   30.1230   41.1990 N   0  0  0  0  0  0  0  0  0  0  0  0
   37.1560   28.9810   41.5060 C   0  0  0  0  0  0  0  0  0  0  0  0
   37.4740   28.0870   40.5750 N   0  0  0  0  0  0  0  0  0  0  0  0
   37.3540   27.6240   38.4690 H   0  0  0  0  0  0  0  0  0  0  0  0
   35.5950   31.2840   39.6400 H   0  0  0  0  0  0  0  0  0  0  0  0
   37.5180   28.7780   42.9490 C   0  0  0  0  0  3  0  0  0  0  0  0
   38.2010   27.4990   43.3520 C   0  0  0  0  0  2  0  0  0  0  0  0
   36.7610   27.6490   43.6800 C   0  0  0  0  0  2  0  0  0  0  0  0
   36.0750   29.6990   37.5270 C   0  0  0  0  0  3  0  0  0  0  0  0
   36.9050   29.6900   36.5080 C   0  0  0  0  0  3  0  0  0  0  0  0
   36.4490   29.9630   35.1060 C   0  0  0  0  0  0  0  0  0  0  0  0
   37.0940   29.3530   34.4110 H   0  0  0  0  0  0  0  0  0  0  0  0
   36.5040   31.0180   34.8250 H   0  0  0  0  0  0  0  0  0  0  0  0
   35.4390   29.5240   35.0180 H   0  0  0  0  0  0  0  0  0  0  0  0
  1  6  1  0  0  0  0
  2  1  2  0  0  0  0
  2  3  1  0  0  0  0
  3  4  2  0  0  0  0
  4  5  1  0  0  0  0
  5  9  1  0  0  0  0
  6  5  2  0  0  0  0
  7  1  1  0  0  0  0
  8  3  1  0  0  0  0
  9 10  1  0  0  0  0
  9 11  1  0  0  0  0
 10 11  1  0  0  0  0
 12  2  1  0  0  0  0
 13 12  2  0  0  0  0
 14 13  1  0  0  0  0
 15 14  1  0  0  0  0
 16 14  1  0  0  0  0
 17 14  1  0  0  0  0
M  END
>  <minimizedAffinity>
-3.60126853

$$$$

 OpenBabel03252501463D

 17 18  0  0  0  0  0  0  0  0999 V2000
   37.5750   29.1430   42.6620 C   0  0  0  0  0  0  0  0  0  0  0  0
   38.6130   28.3630   42.1080 C   0  0  0  0  0  0  0  0  0  0  0  0
   39.0200   28.6150   40.7930 C   0  0  0  0  0  0  0  0  0  0  0  0
   38.3970   29.6090   40.0940 N   0  0  0  0  0  0  0  0  0  0  0  0
   37.4040   30.3290   40.6740 C   0  0  0  0  0  0  0  0  0  0  0  0
   37.0120   30.0960   41.9220 N   0  0  0  0  0  0  0  0  0  0  0  0
   37.3410   28.8700   43.6690 H   0  0  0  0  0  0  0  0  0  0  0  0
   39.8160   28.0270   40.3490 H   0  0  0  0  0  0  0  0  0  0  0  0
   36.7720   31.4030   39.8370 C   0  0  0  0  0  3  0  0  0  0  0  0
   37.5670   32.0050   38.7090 C   0  0  0  0  0  2  0  0  0  0  0  0
   37.4070   32.8050   39.9490 C   0  0  0  0  0  2  0  0  0  0  0  0
   39.2720   27.2990   42.8740 C   0  0  0  0  0  3  0  0  0  0  0  0
   39.2510   26.0230   42.5590 C   0  0  0  0  0  3  0  0  0  0  0  0
   39.9460   24.9850   43.3880 C   0  0  0  0  0  0  0  0  0  0  0  0
   40.3000   24.1720   42.6920 H   0  0  0  0  0  0  0  0  0  0  0  0
   39.3140   24.5500   44.1670 H   0  0  0  0  0  0  0  0  0  0  0  0
   40.8690   25.4590   43.7670 H   0  0  0  0  0  0  0  0  0  0  0  0
  1  7  1  0  0  0  0
  2  1  1  0  0  0  0
  2 12  1  0  0  0  0
  3  2  2  0  0  0  0
  4  5  2  0  0  0  0
  4  3  1  0  0  0  0
  5  6  1  0  0  0  0
  6  1  2  0  0  0  0
  8  3  1  0  0  0  0
  9 11  1  0  0  0  0
  9  5  1  0  0  0  0
 10  9  1  0  0  0  0
 10 11  1  0  0  0  0
 13 12  2  0  0  0  0
 13 14  1  0  0  0  0
 14 17  1  0  0  0  0
 14 16  1  0  0  0  0
 15 14  1  0  0  0  0
M  END
>  <minimizedAffinity>
-3.5635941

$$$$

 OpenBabel03252501463D

 17 18  0  0  0  0  0  0  0  0999 V2000
   39.3110   28.6240   41.3500 C   0  0  0  0  0  0  0  0  0  0  0  0
   38.1780   29.2100   41.9560 C   0  0  0  0  0  0  0  0  0  0  0  0
   37.6780   28.6510   43.1380 C   0  0  0  0  0  0  0  0  0  0  0  0
   38.3060   27.5570   43.6610 N   0  0  0  0  0  0  0  0  0  0  0  0
   39.3920   27.0330   43.0380 C   0  0  0  0  0  0  0  0  0  0  0  0
   39.8730   27.5590   41.9160 N   0  0  0  0  0  0  0  0  0  0  0  0
   39.6110   29.1270   40.4550 H   0  0  0  0  0  0  0  0  0  0  0  0
   36.8090   29.0860   43.6190 H   0  0  0  0  0  0  0  0  0  0  0  0
   40.0230   25.8320   43.6790 C   0  0  0  0  0  3  0  0  0  0  0  0
   41.0040   25.0150   42.8810 C   0  0  0  0  0  2  0  0  0  0  0  0
   39.6380   24.4660   43.0740 C   0  0  0  0  0  2  0  0  0  0  0  0
   37.5150   30.3860   41.3790 C   0  0  0  0  0  3  0  0  0  0  0  0
   37.6850   30.8150   40.1490 C   0  0  0  0  0  3  0  0  0  0  0  0
   36.9760   32.0260   39.6220 C   0  0  0  0  0  0  0  0  0  0  0  0
   36.7870   31.8610   38.5230 H   0  0  0  0  0  0  0  0  0  0  0  0
   37.5350   32.9560   39.7610 H   0  0  0  0  0  0  0  0  0  0  0  0
   35.9750   32.0270   40.0880 H   0  0  0  0  0  0  0  0  0  0  0  0
  1  6  2  0  0  0  0
  1  2  1  0  0  0  0
  2  3  2  0  0  0  0
  3  8  1  0  0  0  0
  3  4  1  0  0  0  0
  5  4  2  0  0  0  0
  5  9  1  0  0  0  0
  6  5  1  0  0  0  0
  7  1  1  0  0  0  0
 10 11  1  0  0  0  0
 10  9  1  0  0  0  0
 11  9  1  0  0  0  0
 12  2  1  0  0  0  0
 13 12  2  0  0  0  0
 14 16  1  0  0  0  0
 14 17  1  0  0  0  0
 14 13  1  0  0  0  0
 15 14  1  0  0  0  0
M  END
>  <minimizedAffinity>
-3.55702543

$$$$
