
 OpenBabel03252504343D

 34 36  0  0  0  0  0  0  0  0999 V2000
   37.1310   30.5570   39.0000 C   0  0  0  0  0  3  0  0  0  0  0  0
   36.7670   31.6510   39.6580 C   0  0  0  0  0  3  0  0  0  0  0  0
   37.3740   33.0300   39.4940 C   0  0  0  0  0  0  0  0  0  0  0  0
   37.3050   33.6200   40.4290 H   0  0  0  0  0  0  0  0  0  0  0  0
   36.8260   33.5810   38.7100 H   0  0  0  0  0  0  0  0  0  0  0  0
   38.7050   32.8570   39.1670 O   0  0  0  0  0  0  0  0  0  0  0  0
   40.5410   34.7220   39.6610 O   0  0  0  0  0  0  0  0  0  0  0  0
   39.7030   33.6330   40.2850 P   0  0  1  0  0  0  0  0  0  0  0  0
   38.7610   34.3710   41.5000 O   0  0  0  0  0  0  0  0  0  0  0  0
   38.3900   33.6730   42.0970 H   0  0  0  0  0  0  0  0  0  0  0  0
   40.6960   32.5000   41.0450 O   0  0  0  0  0  0  0  0  0  0  0  0
   39.9740   31.4890   41.6480 C   0  0  0  0  0  0  0  0  0  0  0  0
   40.6760   30.5400   42.5670 C   0  0  0  0  0  0  0  0  0  0  0  0
   40.3070   30.0940   41.1710 C   0  0  0  0  0  0  0  0  0  0  0  0
   38.9540   31.7520   41.9730 H   0  0  0  0  0  0  0  0  0  0  0  0
   41.7720   30.7390   42.6730 H   0  0  0  0  0  0  0  0  0  0  0  0
   40.1290   30.1100   43.4250 H   0  0  0  0  0  0  0  0  0  0  0  0
   39.4320   29.3920   41.1170 H   0  0  0  0  0  0  0  0  0  0  0  0
   41.0590   29.9430   40.3970 H   0  0  0  0  0  0  0  0  0  0  0  0
   36.4400   29.3990   39.3090 O   0  0  0  0  0  0  0  0  0  0  0  0
   35.9510   29.0050   40.5200 C   0  0  0  0  0  0  0  0  0  0  0  0
   35.5910   29.8190   41.2090 H   0  0  0  0  0  0  0  0  0  0  0  0
   35.0910   28.3180   40.3900 H   0  0  0  0  0  0  0  0  0  0  0  0
   37.1670   28.8270   42.6370 C   0  0  0  0  0  0  0  0  0  0  0  0
   36.9700   28.2780   41.3450 C   0  0  0  0  0  0  0  0  0  0  0  0
   37.7050   27.1810   41.0110 C   0  0  0  0  0  0  0  0  0  0  0  0
   38.5480   26.7090   41.9140 N   0  0  0  0  0  0  0  0  0  0  0  0
   38.7330   27.2200   43.1220 C   0  0  0  0  0  0  0  0  0  0  0  0
   38.0260   28.3350   43.5390 N   0  0  0  0  0  0  0  0  0  0  0  0
   36.6290   29.6960   42.9900 H   0  0  0  0  0  0  0  0  0  0  0  0
   37.5180   26.8100   40.0280 H   0  0  0  0  0  0  0  0  0  0  0  0
   39.7130   26.6010   44.0560 C   0  0  0  0  0  3  0  0  0  0  0  0
   41.1470   27.0770   43.9760 C   0  0  0  0  0  2  0  0  0  0  0  0
   40.7820   25.7130   43.5320 C   0  0  0  0  0  2  0  0  0  0  0  0
  1 20  1  0  0  0  0
  1  2  2  0  0  0  0
  3  2  1  0  0  0  0
  3  4  1  0  0  0  0
  5  3  1  0  0  0  0
  6  3  1  0  0  0  0
  6  8  1  0  0  0  0
  8  7  2  6  0  0  0
  8 11  1  0  0  0  0
  8  9  1  0  0  0  0
  9 10  1  0  0  0  0
 11 12  1  0  0  0  0
 12 15  1  0  0  0  0
 12 13  1  0  0  0  0
 13 16  1  0  0  0  0
 13 17  1  0  0  0  0
 14 12  1  0  0  0  0
 14 13  1  0  0  0  0
 18 14  1  0  0  0  0
 19 14  1  0  0  0  0
 20 21  1  0  0  0  0
 21 22  1  0  0  0  0
 21 25  1  0  0  0  0
 23 21  1  0  0  0  0
 24 30  1  0  0  0  0
 24 29  1  0  0  0  0
 25 24  2  0  0  0  0
 26 25  1  0  0  0  0
 26 27  2  0  0  0  0
 27 28  1  0  0  0  0
 28 29  2  0  0  0  0
 28 32  1  0  0  0  0
 31 26  1  0  0  0  0
 33 32  1  0  0  0  0
 34 33  1  0  0  0  0
 34 32  1  0  0  0  0
M  END
>  <minimizedAffinity>
-4.74960899

$$$$

 OpenBabel03252504343D

 34 36  0  0  0  0  0  0  0  0999 V2000
   36.6610   31.3930   40.6230 C   0  0  0  0  0  3  0  0  0  0  0  0
   37.1550   30.3450   39.9750 C   0  0  0  0  0  3  0  0  0  0  0  0
   36.8180   28.8920   40.2470 C   0  0  0  0  0  0  0  0  0  0  0  0
   37.7280   28.2620   40.2870 H   0  0  0  0  0  0  0  0  0  0  0  0
   36.1810   28.5060   39.4310 H   0  0  0  0  0  0  0  0  0  0  0  0
   36.1780   28.8400   41.4690 O   0  0  0  0  0  0  0  0  0  0  0  0
   38.6470   28.2800   42.2920 O   0  0  0  0  0  0  0  0  0  0  0  0
   37.1840   28.1680   42.6450 P   0  0  1  0  0  0  0  0  0  0  0  0
   36.9720   28.9770   44.1310 O   0  0  0  0  0  0  0  0  0  0  0  0
   36.1000   28.7200   44.5230 H   0  0  0  0  0  0  0  0  0  0  0  0
   36.7680   26.5520   42.8950 O   0  0  0  0  0  0  0  0  0  0  0  0
   37.5210   25.6900   42.1240 C   0  0  0  0  0  0  0  0  0  0  0  0
   37.0250   25.3020   40.7670 C   0  0  0  0  0  0  0  0  0  0  0  0
   36.9120   24.3230   41.9130 C   0  0  0  0  0  0  0  0  0  0  0  0
   38.6140   25.8240   42.1770 H   0  0  0  0  0  0  0  0  0  0  0  0
   36.0390   25.7570   40.4980 H   0  0  0  0  0  0  0  0  0  0  0  0
   37.7520   25.0960   39.9610 H   0  0  0  0  0  0  0  0  0  0  0  0
   37.6500   23.4770   41.8830 H   0  0  0  0  0  0  0  0  0  0  0  0
   35.9530   24.0740   42.3640 H   0  0  0  0  0  0  0  0  0  0  0  0
   37.1100   32.6350   40.2100 O   0  0  0  0  0  0  0  0  0  0  0  0
   37.9820   32.9250   39.2020 C   0  0  0  0  0  0  0  0  0  0  0  0
   38.2380   32.0860   38.4970 H   0  0  0  0  0  0  0  0  0  0  0  0
   37.5890   33.7430   38.5670 H   0  0  0  0  0  0  0  0  0  0  0  0
   40.3470   32.4040   39.5640 C   0  0  0  0  0  0  0  0  0  0  0  0
   39.3210   33.3710   39.7090 C   0  0  0  0  0  0  0  0  0  0  0  0
   39.6590   34.5640   40.2730 C   0  0  0  0  0  0  0  0  0  0  0  0
   40.9180   34.7320   40.6440 N   0  0  0  0  0  0  0  0  0  0  0  0
   41.8780   33.8290   40.5090 C   0  0  0  0  0  0  0  0  0  0  0  0
   41.6170   32.5920   39.9460 N   0  0  0  0  0  0  0  0  0  0  0  0
   40.1730   31.4290   39.1280 H   0  0  0  0  0  0  0  0  0  0  0  0
   38.8500   35.2540   40.3590 H   0  0  0  0  0  0  0  0  0  0  0  0
   43.2620   34.1330   40.9650 C   0  0  0  0  0  3  0  0  0  0  0  0
   43.6700   33.6290   42.3320 C   0  0  0  0  0  2  0  0  0  0  0  0
   43.4850   35.0770   42.0890 C   0  0  0  0  0  2  0  0  0  0  0  0
  2  3  1  0  0  0  0
  2  1  2  0  0  0  0
  3  4  1  0  0  0  0
  3  6  1  0  0  0  0
  5  3  1  0  0  0  0
  6  8  1  0  0  0  0
  8  7  2  6  0  0  0
  8 11  1  0  0  0  0
  8  9  1  0  0  0  0
  9 10  1  0  0  0  0
 12 15  1  0  0  0  0
 12 11  1  0  0  0  0
 13 14  1  0  0  0  0
 13 12  1  0  0  0  0
 14 12  1  0  0  0  0
 14 19  1  0  0  0  0
 16 13  1  0  0  0  0
 17 13  1  0  0  0  0
 18 14  1  0  0  0  0
 20  1  1  0  0  0  0
 21 25  1  0  0  0  0
 21 20  1  0  0  0  0
 22 21  1  0  0  0  0
 23 21  1  0  0  0  0
 24 25  2  0  0  0  0
 24 29  1  0  0  0  0
 25 26  1  0  0  0  0
 26 31  1  0  0  0  0
 26 27  2  0  0  0  0
 28 27  1  0  0  0  0
 28 32  1  0  0  0  0
 29 28  2  0  0  0  0
 30 24  1  0  0  0  0
 32 34  1  0  0  0  0
 32 33  1  0  0  0  0
 34 33  1  0  0  0  0
M  END
>  <minimizedAffinity>
-4.68976879

$$$$

 OpenBabel03252504343D

 34 36  0  0  0  0  0  0  0  0999 V2000
   38.0760   30.7240   38.0330 C   0  0  0  0  0  3  0  0  0  0  0  0
   38.8330   31.8140   38.0040 C   0  0  0  0  0  3  0  0  0  0  0  0
   40.2400   31.9070   37.4470 C   0  0  0  0  0  0  0  0  0  0  0  0
   40.2350   32.0990   36.3570 H   0  0  0  0  0  0  0  0  0  0  0  0
   40.7630   30.9490   37.6160 H   0  0  0  0  0  0  0  0  0  0  0  0
   40.8670   32.9570   38.0890 O   0  0  0  0  0  0  0  0  0  0  0  0
   42.9300   31.9070   36.7740 O   0  0  0  0  0  0  0  0  0  0  0  0
   42.4730   33.0920   37.5880 P   0  0  1  0  0  0  0  0  0  0  0  0
   42.6670   34.4710   36.6040 O   0  0  0  0  0  0  0  0  0  0  0  0
   42.6220   35.2840   37.1670 H   0  0  0  0  0  0  0  0  0  0  0  0
   43.4730   33.2950   38.9320 O   0  0  0  0  0  0  0  0  0  0  0  0
   44.5480   34.1200   38.6680 C   0  0  0  0  0  0  0  0  0  0  0  0
   45.8250   33.5180   38.1730 C   0  0  0  0  0  0  0  0  0  0  0  0
   45.7180   33.9670   39.6120 C   0  0  0  0  0  0  0  0  0  0  0  0
   44.3080   35.0940   38.2110 H   0  0  0  0  0  0  0  0  0  0  0  0
   45.7920   32.4040   38.0730 H   0  0  0  0  0  0  0  0  0  0  0  0
   46.4650   34.0950   37.4820 H   0  0  0  0  0  0  0  0  0  0  0  0
   46.2610   34.9210   39.8490 H   0  0  0  0  0  0  0  0  0  0  0  0
   45.6700   33.2560   40.4350 H   0  0  0  0  0  0  0  0  0  0  0  0
   36.8190   30.8650   38.5920 O   0  0  0  0  0  0  0  0  0  0  0  0
   36.0670   29.9220   39.2280 C   0  0  0  0  0  0  0  0  0  0  0  0
   35.0630   30.2520   39.6150 H   0  0  0  0  0  0  0  0  0  0  0  0
   35.8630   29.0640   38.5550 H   0  0  0  0  0  0  0  0  0  0  0  0
   37.0140   27.9800   40.3780 C   0  0  0  0  0  0  0  0  0  0  0  0
   36.7440   29.3700   40.4460 C   0  0  0  0  0  0  0  0  0  0  0  0
   37.1230   30.0280   41.5770 C   0  0  0  0  0  0  0  0  0  0  0  0
   37.7140   29.3230   42.5270 N   0  0  0  0  0  0  0  0  0  0  0  0
   37.9680   28.0240   42.4660 C   0  0  0  0  0  0  0  0  0  0  0  0
   37.6140   27.2820   41.3520 N   0  0  0  0  0  0  0  0  0  0  0  0
   36.7490   27.3750   39.5210 H   0  0  0  0  0  0  0  0  0  0  0  0
   36.8960   31.0700   41.5750 H   0  0  0  0  0  0  0  0  0  0  0  0
   38.6400   27.3370   43.6020 C   0  0  0  0  0  3  0  0  0  0  0  0
   40.1530   27.2970   43.5930 C   0  0  0  0  0  2  0  0  0  0  0  0
   39.3660   26.0620   43.3770 C   0  0  0  0  0  2  0  0  0  0  0  0
  1 20  1  0  0  0  0
  2  1  2  0  0  0  0
  3  5  1  0  0  0  0
  3  2  1  0  0  0  0
  3  6  1  0  0  0  0
  4  3  1  0  0  0  0
  8  7  2  6  0  0  0
  8  6  1  0  0  0  0
  8 11  1  0  0  0  0
  9 10  1  0  0  0  0
  9  8  1  0  0  0  0
 12 11  1  0  0  0  0
 12 14  1  0  0  0  0
 13 12  1  0  0  0  0
 13 14  1  0  0  0  0
 14 18  1  0  0  0  0
 14 19  1  0  0  0  0
 15 12  1  0  0  0  0
 16 13  1  0  0  0  0
 17 13  1  0  0  0  0
 20 21  1  0  0  0  0
 21 22  1  0  0  0  0
 21 25  1  0  0  0  0
 23 21  1  0  0  0  0
 24 25  2  0  0  0  0
 24 29  1  0  0  0  0
 25 26  1  0  0  0  0
 26 27  2  0  0  0  0
 28 27  1  0  0  0  0
 28 32  1  0  0  0  0
 29 28  2  0  0  0  0
 30 24  1  0  0  0  0
 31 26  1  0  0  0  0
 33 32  1  0  0  0  0
 34 33  1  0  0  0  0
 34 32  1  0  0  0  0
M  END
>  <minimizedAffinity>
-4.68072891

$$$$

 OpenBabel03252504343D

 34 36  0  0  0  0  0  0  0  0999 V2000
   39.4020   27.4180   42.6000 C   0  0  0  0  0  3  0  0  0  0  0  0
   38.4550   27.7260   43.4780 C   0  0  0  0  0  3  0  0  0  0  0  0
   37.5780   28.9620   43.4440 C   0  0  0  0  0  0  0  0  0  0  0  0
   37.7280   29.5940   44.3400 H   0  0  0  0  0  0  0  0  0  0  0  0
   36.5170   28.6570   43.4230 H   0  0  0  0  0  0  0  0  0  0  0  0
   37.9290   29.6830   42.3190 O   0  0  0  0  0  0  0  0  0  0  0  0
   35.8190   28.4300   41.2880 O   0  0  0  0  0  0  0  0  0  0  0  0
   36.6850   29.6610   41.1800 P   0  0  1  0  0  0  0  0  0  0  0  0
   35.6610   31.0060   41.4030 O   0  0  0  0  0  0  0  0  0  0  0  0
   36.1230   31.8250   41.0960 H   0  0  0  0  0  0  0  0  0  0  0  0
   37.3320   29.7820   39.6270 O   0  0  0  0  0  0  0  0  0  0  0  0
   36.4410   30.3310   38.7270 C   0  0  0  0  0  0  0  0  0  0  0  0
   35.6070   29.4230   37.8790 C   0  0  0  0  0  0  0  0  0  0  0  0
   36.7970   30.1310   37.2710 C   0  0  0  0  0  0  0  0  0  0  0  0
   35.9110   31.2370   39.0640 H   0  0  0  0  0  0  0  0  0  0  0  0
   35.8040   28.3360   38.0520 H   0  0  0  0  0  0  0  0  0  0  0  0
   34.5920   29.7390   37.5810 H   0  0  0  0  0  0  0  0  0  0  0  0
   36.5390   30.9930   36.5990 H   0  0  0  0  0  0  0  0  0  0  0  0
   37.7060   29.5970   36.9970 H   0  0  0  0  0  0  0  0  0  0  0  0
   40.0850   26.2360   42.8260 O   0  0  0  0  0  0  0  0  0  0  0  0
   39.5720   25.0060   43.1130 C   0  0  0  0  0  0  0  0  0  0  0  0
   40.3040   24.1540   43.1780 H   0  0  0  0  0  0  0  0  0  0  0  0
   39.0400   25.0200   44.0860 H   0  0  0  0  0  0  0  0  0  0  0  0
   39.1740   24.1540   40.8530 C   0  0  0  0  0  0  0  0  0  0  0  0
   38.5860   24.5380   42.0840 C   0  0  0  0  0  0  0  0  0  0  0  0
   37.2320   24.4380   42.1910 C   0  0  0  0  0  0  0  0  0  0  0  0
   36.5660   23.9910   41.1400 N   0  0  0  0  0  0  0  0  0  0  0  0
   37.1130   23.6310   39.9880 C   0  0  0  0  0  0  0  0  0  0  0  0
   38.4820   23.7030   39.7980 N   0  0  0  0  0  0  0  0  0  0  0  0
   40.2400   24.1990   40.6760 H   0  0  0  0  0  0  0  0  0  0  0  0
   36.8430   24.7410   43.1370 H   0  0  0  0  0  0  0  0  0  0  0  0
   36.2580   23.1420   38.8720 C   0  0  0  0  0  3  0  0  0  0  0  0
   35.5740   24.1820   38.0120 C   0  0  0  0  0  2  0  0  0  0  0  0
   34.7860   23.3250   38.9270 C   0  0  0  0  0  2  0  0  0  0  0  0
  1 20  1  0  0  0  0
  1  2  2  0  0  0  0
  3  2  1  0  0  0  0
  3  4  1  0  0  0  0
  5  3  1  0  0  0  0
  6  3  1  0  0  0  0
  8  7  2  1  0  0  0
  8  9  1  0  0  0  0
  8  6  1  0  0  0  0
 10  9  1  0  0  0  0
 11  8  1  0  0  0  0
 12 15  1  0  0  0  0
 12 11  1  0  0  0  0
 13 16  1  0  0  0  0
 13 12  1  0  0  0  0
 14 13  1  0  0  0  0
 14 12  1  0  0  0  0
 17 13  1  0  0  0  0
 18 14  1  0  0  0  0
 19 14  1  0  0  0  0
 20 21  1  0  0  0  0
 21 22  1  0  0  0  0
 21 23  1  0  0  0  0
 24 25  1  0  0  0  0
 25 26  2  0  0  0  0
 25 21  1  0  0  0  0
 26 31  1  0  0  0  0
 27 26  1  0  0  0  0
 28 27  2  0  0  0  0
 29 28  1  0  0  0  0
 29 24  2  0  0  0  0
 30 24  1  0  0  0  0
 32 34  1  0  0  0  0
 32 28  1  0  0  0  0
 33 32  1  0  0  0  0
 33 34  1  0  0  0  0
M  END
>  <minimizedAffinity>
-4.65993881

$$$$

 OpenBabel03252504343D

 34 36  0  0  0  0  0  0  0  0999 V2000
   39.5210   32.3260   38.0410 C   0  0  0  0  0  3  0  0  0  0  0  0
   40.5460   31.4890   37.9380 C   0  0  0  0  0  3  0  0  0  0  0  0
   41.8030   31.7180   37.1220 C   0  0  0  0  0  0  0  0  0  0  0  0
   41.7140   32.6140   36.4780 H   0  0  0  0  0  0  0  0  0  0  0  0
   41.9740   30.8480   36.4630 H   0  0  0  0  0  0  0  0  0  0  0  0
   42.8430   31.9030   38.0110 O   0  0  0  0  0  0  0  0  0  0  0  0
   44.9810   33.2150   37.1210 O   0  0  0  0  0  0  0  0  0  0  0  0
   43.6130   33.3780   37.7350 P   0  0  1  0  0  0  0  0  0  0  0  0
   42.6970   34.3250   36.6540 O   0  0  0  0  0  0  0  0  0  0  0  0
   41.8910   34.6670   37.1180 H   0  0  0  0  0  0  0  0  0  0  0  0
   43.7240   34.2420   39.1810 O   0  0  0  0  0  0  0  0  0  0  0  0
   42.9830   33.6690   40.1950 C   0  0  0  0  0  0  0  0  0  0  0  0
   41.6360   34.2310   40.5210 C   0  0  0  0  0  0  0  0  0  0  0  0
   42.8100   34.5290   41.4250 C   0  0  0  0  0  0  0  0  0  0  0  0
   43.0380   32.5700   40.2710 H   0  0  0  0  0  0  0  0  0  0  0  0
   41.3490   35.1120   39.8940 H   0  0  0  0  0  0  0  0  0  0  0  0
   40.8400   33.5580   40.8870 H   0  0  0  0  0  0  0  0  0  0  0  0
   42.8090   33.9680   42.3980 H   0  0  0  0  0  0  0  0  0  0  0  0
   43.2640   35.5180   41.4720 H   0  0  0  0  0  0  0  0  0  0  0  0
   38.4720   31.9130   38.8430 O   0  0  0  0  0  0  0  0  0  0  0  0
   37.4890   31.0150   38.5500 C   0  0  0  0  0  0  0  0  0  0  0  0
   36.4800   31.4370   38.2810 H   0  0  0  0  0  0  0  0  0  0  0  0
   37.7840   30.3750   37.6940 H   0  0  0  0  0  0  0  0  0  0  0  0
   38.3360   29.5410   40.3110 C   0  0  0  0  0  0  0  0  0  0  0  0
   37.1860   30.0970   39.6960 C   0  0  0  0  0  0  0  0  0  0  0  0
   35.9720   29.7480   40.2050 C   0  0  0  0  0  0  0  0  0  0  0  0
   35.9540   28.9170   41.2330 N   0  0  0  0  0  0  0  0  0  0  0  0
   37.0270   28.3960   41.8090 C   0  0  0  0  0  0  0  0  0  0  0  0
   38.2980   28.6990   41.3530 N   0  0  0  0  0  0  0  0  0  0  0  0
   39.3410   29.7600   39.9760 H   0  0  0  0  0  0  0  0  0  0  0  0
   35.1420   30.1940   39.7050 H   0  0  0  0  0  0  0  0  0  0  0  0
   36.8820   27.4680   42.9650 C   0  0  0  0  0  3  0  0  0  0  0  0
   36.8840   28.0760   44.3500 C   0  0  0  0  0  2  0  0  0  0  0  0
   38.0210   27.2480   43.8910 C   0  0  0  0  0  2  0  0  0  0  0  0
  1 20  1  0  0  0  0
  2  1  2  0  0  0  0
  3  2  1  0  0  0  0
  3  6  1  0  0  0  0
  4  3  1  0  0  0  0
  5  3  1  0  0  0  0
  8  7  2  6  0  0  0
  8  6  1  0  0  0  0
  8 11  1  0  0  0  0
  9 10  1  0  0  0  0
  9  8  1  0  0  0  0
 11 12  1  0  0  0  0
 12 15  1  0  0  0  0
 12 13  1  0  0  0  0
 12 14  1  0  0  0  0
 13 17  1  0  0  0  0
 13 14  1  0  0  0  0
 14 19  1  0  0  0  0
 14 18  1  0  0  0  0
 16 13  1  0  0  0  0
 21 20  1  0  0  0  0
 21 25  1  0  0  0  0
 22 21  1  0  0  0  0
 23 21  1  0  0  0  0
 24 29  1  0  0  0  0
 25 26  1  0  0  0  0
 25 24  2  0  0  0  0
 26 27  2  0  0  0  0
 27 28  1  0  0  0  0
 28 32  1  0  0  0  0
 29 28  2  0  0  0  0
 30 24  1  0  0  0  0
 31 26  1  0  0  0  0
 32 34  1  0  0  0  0
 32 33  1  0  0  0  0
 34 33  1  0  0  0  0
M  END
>  <minimizedAffinity>
-4.65410089

$$$$

 OpenBabel03252504343D

 34 36  0  0  0  0  0  0  0  0999 V2000
   37.4180   31.9750   39.0900 C   0  0  0  0  0  3  0  0  0  0  0  0
   38.4740   32.2790   39.8360 C   0  0  0  0  0  3  0  0  0  0  0  0
   39.7050   33.0300   39.3700 C   0  0  0  0  0  0  0  0  0  0  0  0
   40.0450   33.7650   40.1250 H   0  0  0  0  0  0  0  0  0  0  0  0
   39.4670   33.5860   38.4460 H   0  0  0  0  0  0  0  0  0  0  0  0
   40.7030   32.0970   39.1670 O   0  0  0  0  0  0  0  0  0  0  0  0
   41.5820   30.6530   37.1100 O   0  0  0  0  0  0  0  0  0  0  0  0
   41.1380   32.0300   37.5380 P   0  0  1  0  0  0  0  0  0  0  0  0
   39.8080   32.4460   36.5570 O   0  0  0  0  0  0  0  0  0  0  0  0
   39.6430   33.4200   36.6230 H   0  0  0  0  0  0  0  0  0  0  0  0
   42.3560   33.1560   37.2270 O   0  0  0  0  0  0  0  0  0  0  0  0
   43.6190   32.6290   37.4090 C   0  0  0  0  0  0  0  0  0  0  0  0
   44.1770   32.5330   38.7930 C   0  0  0  0  0  0  0  0  0  0  0  0
   44.6660   33.6200   37.8630 C   0  0  0  0  0  0  0  0  0  0  0  0
   43.8830   31.7760   36.7610 H   0  0  0  0  0  0  0  0  0  0  0  0
   43.4940   32.9290   39.5850 H   0  0  0  0  0  0  0  0  0  0  0  0
   44.8600   31.7030   39.0470 H   0  0  0  0  0  0  0  0  0  0  0  0
   45.6920   33.4490   37.4390 H   0  0  0  0  0  0  0  0  0  0  0  0
   44.4040   34.6660   38.0120 H   0  0  0  0  0  0  0  0  0  0  0  0
   36.4020   31.2800   39.7220 O   0  0  0  0  0  0  0  0  0  0  0  0
   36.3190   30.9130   41.0320 C   0  0  0  0  0  0  0  0  0  0  0  0
   37.0580   31.3840   41.7380 H   0  0  0  0  0  0  0  0  0  0  0  0
   35.3170   31.1520   41.4430 H   0  0  0  0  0  0  0  0  0  0  0  0
   37.2530   29.1200   42.4130 C   0  0  0  0  0  0  0  0  0  0  0  0
   36.5340   29.4430   41.2340 C   0  0  0  0  0  0  0  0  0  0  0  0
   36.1300   28.4110   40.4440 C   0  0  0  0  0  0  0  0  0  0  0  0
   36.4370   27.1840   40.8320 N   0  0  0  0  0  0  0  0  0  0  0  0
   37.1080   26.8800   41.9330 C   0  0  0  0  0  0  0  0  0  0  0  0
   37.5550   27.8710   42.7910 N   0  0  0  0  0  0  0  0  0  0  0  0
   37.6140   29.8730   43.1010 H   0  0  0  0  0  0  0  0  0  0  0  0
   35.5950   28.7100   39.5710 H   0  0  0  0  0  0  0  0  0  0  0  0
   37.3950   25.4580   42.2680 C   0  0  0  0  0  3  0  0  0  0  0  0
   38.3400   24.7070   41.3560 C   0  0  0  0  0  2  0  0  0  0  0  0
   36.8990   24.3720   41.3860 C   0  0  0  0  0  2  0  0  0  0  0  0
  1 20  1  0  0  0  0
  1  2  2  0  0  0  0
  3  2  1  0  0  0  0
  3  4  1  0  0  0  0
  5  3  1  0  0  0  0
  6  3  1  0  0  0  0
  8  7  2  6  0  0  0
  8  6  1  0  0  0  0
  9 10  1  0  0  0  0
  9  8  1  0  0  0  0
 11 12  1  0  0  0  0
 11  8  1  0  0  0  0
 12 14  1  0  0  0  0
 12 13  1  0  0  0  0
 13 17  1  0  0  0  0
 13 16  1  0  0  0  0
 14 19  1  0  0  0  0
 14 13  1  0  0  0  0
 15 12  1  0  0  0  0
 18 14  1  0  0  0  0
 20 21  1  0  0  0  0
 21 25  1  0  0  0  0
 21 23  1  0  0  0  0
 21 22  1  0  0  0  0
 24 29  1  0  0  0  0
 24 30  1  0  0  0  0
 25 24  2  0  0  0  0
 26 27  2  0  0  0  0
 26 25  1  0  0  0  0
 27 28  1  0  0  0  0
 28 32  1  0  0  0  0
 28 29  2  0  0  0  0
 31 26  1  0  0  0  0
 33 34  1  0  0  0  0
 33 32  1  0  0  0  0
 34 32  1  0  0  0  0
M  END
>  <minimizedAffinity>
-4.647264

$$$$

 OpenBabel03252504343D

 34 36  0  0  0  0  0  0  0  0999 V2000
   36.8800   29.6330   38.4550 C   0  0  0  0  0  3  0  0  0  0  0  0
   36.7490   30.9070   38.8060 C   0  0  0  0  0  3  0  0  0  0  0  0
   37.4850   32.0800   38.1910 C   0  0  0  0  0  0  0  0  0  0  0  0
   36.8140   32.9470   38.0350 H   0  0  0  0  0  0  0  0  0  0  0  0
   37.8840   31.7850   37.2040 H   0  0  0  0  0  0  0  0  0  0  0  0
   38.4900   32.4400   39.0670 O   0  0  0  0  0  0  0  0  0  0  0  0
   40.5810   30.8400   38.6670 O   0  0  0  0  0  0  0  0  0  0  0  0
   40.0070   32.2030   38.3670 P   0  0  1  0  0  0  0  0  0  0  0  0
   39.8980   32.3300   36.6710 O   0  0  0  0  0  0  0  0  0  0  0  0
   39.7690   33.2790   36.4200 H   0  0  0  0  0  0  0  0  0  0  0  0
   41.0690   33.4070   38.8880 O   0  0  0  0  0  0  0  0  0  0  0  0
   41.6690   33.0950   40.0910 C   0  0  0  0  0  0  0  0  0  0  0  0
   42.4980   34.1290   40.7840 C   0  0  0  0  0  0  0  0  0  0  0  0
   43.1770   32.9970   40.0470 C   0  0  0  0  0  0  0  0  0  0  0  0
   41.0770   32.4660   40.7770 H   0  0  0  0  0  0  0  0  0  0  0  0
   42.5680   35.0990   40.2290 H   0  0  0  0  0  0  0  0  0  0  0  0
   42.5370   34.1450   41.8870 H   0  0  0  0  0  0  0  0  0  0  0  0
   43.6180   32.2040   40.7080 H   0  0  0  0  0  0  0  0  0  0  0  0
   43.7100   33.1570   39.1110 H   0  0  0  0  0  0  0  0  0  0  0  0
   36.1090   28.7230   39.1550 O   0  0  0  0  0  0  0  0  0  0  0  0
   35.6520   28.8130   40.4370 C   0  0  0  0  0  0  0  0  0  0  0  0
   35.3580   29.8370   40.7990 H   0  0  0  0  0  0  0  0  0  0  0  0
   34.7560   28.1740   40.5790 H   0  0  0  0  0  0  0  0  0  0  0  0
   37.0590   27.0110   41.3120 C   0  0  0  0  0  0  0  0  0  0  0  0
   36.6690   28.3670   41.4440 C   0  0  0  0  0  0  0  0  0  0  0  0
   37.2490   29.0920   42.4400 C   0  0  0  0  0  0  0  0  0  0  0  0
   38.1320   28.4790   43.2100 N   0  0  0  0  0  0  0  0  0  0  0  0
   38.4980   27.2120   43.0880 C   0  0  0  0  0  0  0  0  0  0  0  0
   37.9560   26.4060   42.1020 N   0  0  0  0  0  0  0  0  0  0  0  0
   36.6520   26.3580   40.5510 H   0  0  0  0  0  0  0  0  0  0  0  0
   36.9200   30.1050   42.4940 H   0  0  0  0  0  0  0  0  0  0  0  0
   39.5050   26.6290   44.0180 C   0  0  0  0  0  3  0  0  0  0  0  0
   40.9650   26.8660   43.6990 C   0  0  0  0  0  2  0  0  0  0  0  0
   40.3760   25.5150   43.5680 C   0  0  0  0  0  2  0  0  0  0  0  0
  1  2  2  0  0  0  0
  1 20  1  0  0  0  0
  3  2  1  0  0  0  0
  3  6  1  0  0  0  0
  4  3  1  0  0  0  0
  5  3  1  0  0  0  0
  8  7  2  1  0  0  0
  8 11  1  0  0  0  0
  8  6  1  0  0  0  0
  9  8  1  0  0  0  0
 10  9  1  0  0  0  0
 11 12  1  0  0  0  0
 12 15  1  0  0  0  0
 12 13  1  0  0  0  0
 13 17  1  0  0  0  0
 14 12  1  0  0  0  0
 14 18  1  0  0  0  0
 14 13  1  0  0  0  0
 16 13  1  0  0  0  0
 19 14  1  0  0  0  0
 20 21  1  0  0  0  0
 21 23  1  0  0  0  0
 21 22  1  0  0  0  0
 21 25  1  0  0  0  0
 24 25  2  0  0  0  0
 24 29  1  0  0  0  0
 25 26  1  0  0  0  0
 26 31  1  0  0  0  0
 26 27  2  0  0  0  0
 28 27  1  0  0  0  0
 28 32  1  0  0  0  0
 29 28  2  0  0  0  0
 30 24  1  0  0  0  0
 33 32  1  0  0  0  0
 34 33  1  0  0  0  0
 34 32  1  0  0  0  0
M  END
>  <minimizedAffinity>
-4.64198589

$$$$

 OpenBabel03252504343D

 34 36  0  0  0  0  0  0  0  0999 V2000
   40.5850   30.6910   41.3170 C   0  0  0  0  0  3  0  0  0  0  0  0
   39.6730   31.3170   40.5830 C   0  0  0  0  0  3  0  0  0  0  0  0
   39.9020   31.9380   39.2190 C   0  0  0  0  0  0  0  0  0  0  0  0
   40.9690   32.1830   39.0560 H   0  0  0  0  0  0  0  0  0  0  0  0
   39.3280   32.8790   39.1450 H   0  0  0  0  0  0  0  0  0  0  0  0
   39.5010   31.0140   38.2740 O   0  0  0  0  0  0  0  0  0  0  0  0
   37.2360   32.4050   38.4270 O   0  0  0  0  0  0  0  0  0  0  0  0
   38.0520   31.4870   37.5510 P   0  0  1  0  0  0  0  0  0  0  0  0
   38.3660   32.3350   36.1060 O   0  0  0  0  0  0  0  0  0  0  0  0
   38.6740   31.6990   35.4120 H   0  0  0  0  0  0  0  0  0  0  0  0
   37.1490   30.1220   37.1390 O   0  0  0  0  0  0  0  0  0  0  0  0
   36.0670   29.9340   37.9770 C   0  0  0  0  0  0  0  0  0  0  0  0
   35.8550   28.5930   38.6040 C   0  0  0  0  0  0  0  0  0  0  0  0
   34.9920   29.0190   37.4380 C   0  0  0  0  0  0  0  0  0  0  0  0
   35.8170   30.7800   38.6380 H   0  0  0  0  0  0  0  0  0  0  0  0
   36.6180   27.8300   38.3100 H   0  0  0  0  0  0  0  0  0  0  0  0
   35.3980   28.5290   39.6070 H   0  0  0  0  0  0  0  0  0  0  0  0
   33.9430   29.3120   37.7110 H   0  0  0  0  0  0  0  0  0  0  0  0
   35.0970   28.5720   36.4500 H   0  0  0  0  0  0  0  0  0  0  0  0
   40.1570   30.2010   42.5380 O   0  0  0  0  0  0  0  0  0  0  0  0
   38.8870   29.8870   42.9230 C   0  0  0  0  0  0  0  0  0  0  0  0
   38.6110   30.1110   43.9900 H   0  0  0  0  0  0  0  0  0  0  0  0
   38.1440   30.4250   42.3000 H   0  0  0  0  0  0  0  0  0  0  0  0
   37.3830   28.1390   42.0990 C   0  0  0  0  0  0  0  0  0  0  0  0
   38.5890   28.4230   42.7880 C   0  0  0  0  0  0  0  0  0  0  0  0
   39.3200   27.3650   43.2340 C   0  0  0  0  0  0  0  0  0  0  0  0
   38.8540   26.1510   42.9920 N   0  0  0  0  0  0  0  0  0  0  0  0
   37.7270   25.8840   42.3480 C   0  0  0  0  0  0  0  0  0  0  0  0
   36.9250   26.9020   41.8630 N   0  0  0  0  0  0  0  0  0  0  0  0
   36.7370   28.9140   41.7090 H   0  0  0  0  0  0  0  0  0  0  0  0
   40.2160   27.6350   43.7460 H   0  0  0  0  0  0  0  0  0  0  0  0
   37.3030   24.4720   42.1350 C   0  0  0  0  0  3  0  0  0  0  0  0
   37.9280   23.7250   40.9780 C   0  0  0  0  0  2  0  0  0  0  0  0
   36.4990   24.1090   40.9410 C   0  0  0  0  0  2  0  0  0  0  0  0
  1 20  1  0  0  0  0
  2  1  2  0  0  0  0
  3  2  1  0  0  0  0
  4  3  1  0  0  0  0
  5  3  1  0  0  0  0
  6  3  1  0  0  0  0
  8  6  1  0  0  0  0
  8  7  2  1  0  0  0
  9  8  1  0  0  0  0
 10  9  1  0  0  0  0
 11  8  1  0  0  0  0
 11 12  1  0  0  0  0
 12 13  1  0  0  0  0
 12 15  1  0  0  0  0
 13 17  1  0  0  0  0
 14 18  1  0  0  0  0
 14 12  1  0  0  0  0
 14 13  1  0  0  0  0
 16 13  1  0  0  0  0
 19 14  1  0  0  0  0
 20 21  1  0  0  0  0
 21 22  1  0  0  0  0
 23 21  1  0  0  0  0
 24 25  1  0  0  0  0
 25 21  1  0  0  0  0
 25 26  2  0  0  0  0
 26 31  1  0  0  0  0
 27 26  1  0  0  0  0
 28 27  2  0  0  0  0
 29 24  2  0  0  0  0
 29 28  1  0  0  0  0
 30 24  1  0  0  0  0
 32 28  1  0  0  0  0
 33 32  1  0  0  0  0
 34 33  1  0  0  0  0
 34 32  1  0  0  0  0
M  END
>  <minimizedAffinity>
-4.60331631

$$$$

 OpenBabel03252504343D

 34 36  0  0  0  0  0  0  0  0999 V2000
   36.8230   27.4340   38.6770 C   0  0  0  0  0  3  0  0  0  0  0  0
   36.8610   26.6990   39.7820 C   0  0  0  0  0  3  0  0  0  0  0  0
   37.9280   25.6830   40.1390 C   0  0  0  0  0  0  0  0  0  0  0  0
   38.4240   25.2770   39.2360 H   0  0  0  0  0  0  0  0  0  0  0  0
   37.4620   24.8360   40.6730 H   0  0  0  0  0  0  0  0  0  0  0  0
   38.8660   26.3300   40.9180 O   0  0  0  0  0  0  0  0  0  0  0  0
   38.2170   24.2990   42.5120 O   0  0  0  0  0  0  0  0  0  0  0  0
   39.0980   25.5160   42.3780 P   0  0  1  0  0  0  0  0  0  0  0  0
   40.7100   24.9740   42.4990 O   0  0  0  0  0  0  0  0  0  0  0  0
   41.3040   25.7470   42.6680 H   0  0  0  0  0  0  0  0  0  0  0  0
   38.8310   26.5720   43.6680 O   0  0  0  0  0  0  0  0  0  0  0  0
   37.9560   27.5890   43.3420 C   0  0  0  0  0  0  0  0  0  0  0  0
   37.0950   28.1810   44.4130 C   0  0  0  0  0  0  0  0  0  0  0  0
   36.4920   27.2200   43.4130 C   0  0  0  0  0  0  0  0  0  0  0  0
   38.3240   28.3250   42.6080 H   0  0  0  0  0  0  0  0  0  0  0  0
   37.2370   27.7120   45.4190 H   0  0  0  0  0  0  0  0  0  0  0  0
   36.8170   29.2480   44.3580 H   0  0  0  0  0  0  0  0  0  0  0  0
   35.8460   27.7000   42.6300 H   0  0  0  0  0  0  0  0  0  0  0  0
   36.1930   26.2110   43.6920 H   0  0  0  0  0  0  0  0  0  0  0  0
   35.7520   28.3000   38.5540 O   0  0  0  0  0  0  0  0  0  0  0  0
   35.7360   29.5520   38.0130 C   0  0  0  0  0  0  0  0  0  0  0  0
   36.1740   29.6640   36.9830 H   0  0  0  0  0  0  0  0  0  0  0  0
   34.6980   29.9350   37.9430 H   0  0  0  0  0  0  0  0  0  0  0  0
   37.5650   31.1750   38.1220 C   0  0  0  0  0  0  0  0  0  0  0  0
   36.5120   30.5420   38.8290 C   0  0  0  0  0  0  0  0  0  0  0  0
   36.3290   30.8970   40.1310 C   0  0  0  0  0  0  0  0  0  0  0  0
   37.1450   31.8050   40.6400 N   0  0  0  0  0  0  0  0  0  0  0  0
   38.1290   32.3980   39.9800 C   0  0  0  0  0  0  0  0  0  0  0  0
   38.3830   32.0930   38.6540 N   0  0  0  0  0  0  0  0  0  0  0  0
   37.7870   30.9570   37.0860 H   0  0  0  0  0  0  0  0  0  0  0  0
   35.5250   30.3900   40.6150 H   0  0  0  0  0  0  0  0  0  0  0  0
   38.9850   33.4090   40.6610 C   0  0  0  0  0  3  0  0  0  0  0  0
   38.7280   34.8650   40.3430 C   0  0  0  0  0  2  0  0  0  0  0  0
   39.9670   34.2010   39.8790 C   0  0  0  0  0  2  0  0  0  0  0  0
  1  2  2  0  0  0  0
  2  3  1  0  0  0  0
  3  5  1  0  0  0  0
  3  6  1  0  0  0  0
  4  3  1  0  0  0  0
  6  8  1  0  0  0  0
  8  9  1  0  0  0  0
  8  7  2  1  0  0  0
  8 11  1  0  0  0  0
  9 10  1  0  0  0  0
 12 14  1  0  0  0  0
 12 11  1  0  0  0  0
 12 13  1  0  0  0  0
 13 16  1  0  0  0  0
 14 19  1  0  0  0  0
 14 13  1  0  0  0  0
 15 12  1  0  0  0  0
 17 13  1  0  0  0  0
 18 14  1  0  0  0  0
 20  1  1  0  0  0  0
 21 20  1  0  0  0  0
 21 25  1  0  0  0  0
 22 21  1  0  0  0  0
 23 21  1  0  0  0  0
 24 29  2  0  0  0  0
 24 25  1  0  0  0  0
 25 26  2  0  0  0  0
 26 31  1  0  0  0  0
 26 27  1  0  0  0  0
 28 27  2  0  0  0  0
 28 32  1  0  0  0  0
 29 28  1  0  0  0  0
 30 24  1  0  0  0  0
 33 32  1  0  0  0  0
 34 33  1  0  0  0  0
 34 32  1  0  0  0  0
M  END
>  <minimizedAffinity>
-4.60202742

$$$$
