
 OpenBabel03252506203D

 27 29  0  0  0  0  0  0  0  0999 V2000
   37.1970   27.1430   41.4860 C   0  0  0  0  0  0  0  0  0  0  0  0
   37.0970   26.9680   42.8750 C   0  0  0  0  0  0  0  0  0  0  0  0
   37.3040   28.1140   43.6800 C   0  0  0  0  0  0  0  0  0  0  0  0
   37.5830   29.2970   43.0830 N   0  0  0  0  0  0  0  0  0  0  0  0
   37.6670   29.4060   41.7310 C   0  0  0  0  0  0  0  0  0  0  0  0
   37.4740   28.3270   40.9350 N   0  0  0  0  0  0  0  0  0  0  0  0
   36.8760   26.0050   43.2600 H   0  0  0  0  0  0  0  0  0  0  0  0
   37.2300   27.9860   44.7320 H   0  0  0  0  0  0  0  0  0  0  0  0
   40.5250   30.3150   42.1100 Cl  0  0  0  0  0  0  0  0  0  0  0  0
   39.2700   31.2120   41.3110 C   0  0  0  0  0  0  0  0  0  0  0  0
   37.9720   30.7220   41.1770 C   0  0  0  0  0  0  0  0  0  0  0  0
   36.9570   31.4030   40.5530 C   0  0  0  0  0  0  0  0  0  0  0  0
   37.2770   32.6500   40.0360 C   0  0  0  0  0  0  0  0  0  0  0  0
   38.5310   33.2280   40.1150 C   0  0  0  0  0  0  0  0  0  0  0  0
   39.4920   32.4580   40.7670 C   0  0  0  0  0  0  0  0  0  0  0  0
   35.9710   30.9940   40.4690 H   0  0  0  0  0  0  0  0  0  0  0  0
   36.4630   33.1800   39.5440 H   0  0  0  0  0  0  0  0  0  0  0  0
   38.7450   34.1880   39.7090 H   0  0  0  0  0  0  0  0  0  0  0  0
   40.4840   32.8800   40.8470 H   0  0  0  0  0  0  0  0  0  0  0  0
   36.9830   25.9600   40.6500 C   0  0  0  0  0  3  0  0  0  0  0  0
   36.9670   24.7800   41.2160 C   0  0  0  0  0  3  0  0  0  0  0  0
   36.7560   23.5290   40.4430 C   0  0  0  0  0  0  0  0  0  0  0  0
   36.3330   22.7760   41.1390 H   0  0  0  0  0  0  0  0  0  0  0  0
   37.7480   23.1040   40.1160 H   0  0  0  0  0  0  0  0  0  0  0  0
   35.8090   23.7200   39.2860 C   0  0  0  0  0  3  0  0  0  0  0  0
   35.5420   22.6340   38.3250 C   0  0  0  0  0  2  0  0  0  0  0  0
   34.5160   22.8990   39.4140 C   0  0  0  0  0  2  0  0  0  0  0  0
  1  2  1  0  0  0  0
  2  7  1  0  0  0  0
  2  3  2  0  0  0  0
  3  8  1  0  0  0  0
  4  3  1  0  0  0  0
  5  4  2  0  0  0  0
  6  1  2  0  0  0  0
  6  5  1  0  0  0  0
 10  9  1  0  0  0  0
 11 10  1  0  0  0  0
 11  5  1  0  0  0  0
 12 11  2  0  0  0  0
 13 14  2  0  0  0  0
 13 12  1  0  0  0  0
 14 15  1  0  0  0  0
 15 19  1  0  0  0  0
 15 10  2  0  0  0  0
 16 12  1  0  0  0  0
 17 13  1  0  0  0  0
 18 14  1  0  0  0  0
 20 21  2  0  0  0  0
 20  1  1  0  0  0  0
 22 23  1  0  0  0  0
 22 21  1  0  0  0  0
 24 22  1  0  0  0  0
 25 27  1  0  0  0  0
 25 22  1  0  0  0  0
 26 25  1  0  0  0  0
 26 27  1  0  0  0  0
M  END
>  <minimizedAffinity>
-4.97881079

$$$$

 OpenBabel03252506203D

 27 29  0  0  0  0  0  0  0  0999 V2000
   34.3540   28.8710   38.4250 C   0  0  0  0  0  0  0  0  0  0  0  0
   35.1050   28.6440   37.2600 C   0  0  0  0  0  0  0  0  0  0  0  0
   36.4530   28.2510   37.4360 C   0  0  0  0  0  0  0  0  0  0  0  0
   36.9430   28.1150   38.6910 N   0  0  0  0  0  0  0  0  0  0  0  0
   36.1670   28.3480   39.7820 C   0  0  0  0  0  0  0  0  0  0  0  0
   34.8730   28.7260   39.6460 N   0  0  0  0  0  0  0  0  0  0  0  0
   34.6430   28.7750   36.3140 H   0  0  0  0  0  0  0  0  0  0  0  0
   37.0250   28.0790   36.5570 H   0  0  0  0  0  0  0  0  0  0  0  0
   36.8920   30.9200   41.1930 Cl  0  0  0  0  0  0  0  0  0  0  0  0
   37.1430   29.3160   41.8100 C   0  0  0  0  0  0  0  0  0  0  0  0
   36.7800   28.1760   41.0960 C   0  0  0  0  0  0  0  0  0  0  0  0
   36.9630   26.8950   41.5530 C   0  0  0  0  0  0  0  0  0  0  0  0
   37.5470   26.7640   42.8040 C   0  0  0  0  0  0  0  0  0  0  0  0
   37.9440   27.8280   43.5940 C   0  0  0  0  0  0  0  0  0  0  0  0
   37.7160   29.0860   43.0420 C   0  0  0  0  0  0  0  0  0  0  0  0
   36.6720   26.0430   40.9750 H   0  0  0  0  0  0  0  0  0  0  0  0
   37.6880   25.7430   43.1550 H   0  0  0  0  0  0  0  0  0  0  0  0
   38.3910   27.6940   44.5510 H   0  0  0  0  0  0  0  0  0  0  0  0
   38.0150   29.9410   43.6340 H   0  0  0  0  0  0  0  0  0  0  0  0
   32.9590   29.2780   38.2470 C   0  0  0  0  0  3  0  0  0  0  0  0
   32.4680   29.3420   37.0350 C   0  0  0  0  0  3  0  0  0  0  0  0
   31.0630   29.7440   36.7660 C   0  0  0  0  0  0  0  0  0  0  0  0
   30.4990   28.8270   36.5030 H   0  0  0  0  0  0  0  0  0  0  0  0
   31.0170   30.3930   35.8450 H   0  0  0  0  0  0  0  0  0  0  0  0
   30.4140   30.4010   37.9580 C   0  0  0  0  0  3  0  0  0  0  0  0
   29.8440   31.7580   37.8710 C   0  0  0  0  0  2  0  0  0  0  0  0
   28.8940   30.5730   37.8060 C   0  0  0  0  0  2  0  0  0  0  0  0
  1  6  1  0  0  0  0
  2  3  1  0  0  0  0
  2  1  2  0  0  0  0
  3  4  2  0  0  0  0
  4  5  1  0  0  0  0
  5 11  1  0  0  0  0
  6  5  2  0  0  0  0
  7  2  1  0  0  0  0
  8  3  1  0  0  0  0
  9 10  1  0  0  0  0
 10 15  1  0  0  0  0
 11 12  1  0  0  0  0
 11 10  2  0  0  0  0
 12 13  2  0  0  0  0
 13 17  1  0  0  0  0
 13 14  1  0  0  0  0
 14 18  1  0  0  0  0
 15 14  2  0  0  0  0
 15 19  1  0  0  0  0
 16 12  1  0  0  0  0
 20  1  1  0  0  0  0
 21 20  2  0  0  0  0
 22 21  1  0  0  0  0
 22 25  1  0  0  0  0
 23 22  1  0  0  0  0
 24 22  1  0  0  0  0
 26 25  1  0  0  0  0
 27 26  1  0  0  0  0
 27 25  1  0  0  0  0
M  END
>  <minimizedAffinity>
-4.96938038

$$$$

 OpenBabel03252506203D

 27 29  0  0  0  0  0  0  0  0999 V2000
   34.2280   28.2110   37.7610 C   0  0  0  0  0  0  0  0  0  0  0  0
   34.0350   26.9300   37.2190 C   0  0  0  0  0  0  0  0  0  0  0  0
   33.0140   26.7960   36.2480 C   0  0  0  0  0  0  0  0  0  0  0  0
   32.2900   27.8840   35.8970 N   0  0  0  0  0  0  0  0  0  0  0  0
   32.5230   29.1000   36.4570 C   0  0  0  0  0  0  0  0  0  0  0  0
   33.4930   29.2600   37.3890 N   0  0  0  0  0  0  0  0  0  0  0  0
   34.6480   26.1310   37.5510 H   0  0  0  0  0  0  0  0  0  0  0  0
   32.8640   25.8280   35.8350 H   0  0  0  0  0  0  0  0  0  0  0  0
   30.5710   30.1250   38.5240 Cl  0  0  0  0  0  0  0  0  0  0  0  0
   30.7660   30.7470   36.9140 C   0  0  0  0  0  0  0  0  0  0  0  0
   31.6920   30.2180   36.0160 C   0  0  0  0  0  0  0  0  0  0  0  0
   31.8720   30.6830   34.7380 C   0  0  0  0  0  0  0  0  0  0  0  0
   31.0690   31.7460   34.3500 C   0  0  0  0  0  0  0  0  0  0  0  0
   30.1210   32.3430   35.1610 C   0  0  0  0  0  0  0  0  0  0  0  0
   30.0140   31.7980   36.4380 C   0  0  0  0  0  0  0  0  0  0  0  0
   32.5940   30.2510   34.0770 H   0  0  0  0  0  0  0  0  0  0  0  0
   31.2210   32.1050   33.3340 H   0  0  0  0  0  0  0  0  0  0  0  0
   29.5190   33.1570   34.8320 H   0  0  0  0  0  0  0  0  0  0  0  0
   29.2820   32.2420   37.0990 H   0  0  0  0  0  0  0  0  0  0  0  0
   35.2840   28.3550   38.7660 C   0  0  0  0  0  3  0  0  0  0  0  0
   35.0410   29.0620   39.8410 C   0  0  0  0  0  3  0  0  0  0  0  0
   36.0540   29.2580   40.9100 C   0  0  0  0  0  0  0  0  0  0  0  0
   35.7000   30.0870   41.5560 H   0  0  0  0  0  0  0  0  0  0  0  0
   37.0220   29.6250   40.4630 H   0  0  0  0  0  0  0  0  0  0  0  0
   36.2490   28.0230   41.7520 C   0  0  0  0  0  3  0  0  0  0  0  0
   37.5460   27.3230   41.8000 C   0  0  0  0  0  2  0  0  0  0  0  0
   37.1830   28.2450   42.9530 C   0  0  0  0  0  2  0  0  0  0  0  0
  1 20  1  0  0  0  0
  2  7  1  0  0  0  0
  2  1  2  0  0  0  0
  3  2  1  0  0  0  0
  4  3  2  0  0  0  0
  4  5  1  0  0  0  0
  5  6  2  0  0  0  0
  6  1  1  0  0  0  0
  8  3  1  0  0  0  0
 10  9  1  0  0  0  0
 11  5  1  0  0  0  0
 11 10  2  0  0  0  0
 12 11  1  0  0  0  0
 13 12  2  0  0  0  0
 13 14  1  0  0  0  0
 14 15  2  0  0  0  0
 15 10  1  0  0  0  0
 15 19  1  0  0  0  0
 16 12  1  0  0  0  0
 17 13  1  0  0  0  0
 18 14  1  0  0  0  0
 20 21  2  0  0  0  0
 21 22  1  0  0  0  0
 22 23  1  0  0  0  0
 22 25  1  0  0  0  0
 24 22  1  0  0  0  0
 25 26  1  0  0  0  0
 25 27  1  0  0  0  0
 26 27  1  0  0  0  0
M  END
>  <minimizedAffinity>
-4.94516325

$$$$

 OpenBabel03252506203D

 27 29  0  0  0  0  0  0  0  0999 V2000
   34.8200   28.9270   38.2990 C   0  0  0  0  0  0  0  0  0  0  0  0
   35.7270   29.2730   37.2840 C   0  0  0  0  0  0  0  0  0  0  0  0
   37.1010   29.2500   37.6200 C   0  0  0  0  0  0  0  0  0  0  0  0
   37.4680   28.9040   38.8770 N   0  0  0  0  0  0  0  0  0  0  0  0
   36.5440   28.5780   39.8190 C   0  0  0  0  0  0  0  0  0  0  0  0
   35.2210   28.5910   39.5270 N   0  0  0  0  0  0  0  0  0  0  0  0
   35.3530   29.5330   36.3250 H   0  0  0  0  0  0  0  0  0  0  0  0
   37.7900   29.5120   36.8550 H   0  0  0  0  0  0  0  0  0  0  0  0
   36.9020   25.6130   40.2790 Cl  0  0  0  0  0  0  0  0  0  0  0  0
   37.2230   26.8670   41.4360 C   0  0  0  0  0  0  0  0  0  0  0  0
   37.0320   28.2170   41.1470 C   0  0  0  0  0  0  0  0  0  0  0  0
   37.2740   29.2330   42.0370 C   0  0  0  0  0  0  0  0  0  0  0  0
   37.7370   28.8580   43.2900 C   0  0  0  0  0  0  0  0  0  0  0  0
   37.9590   27.5500   43.6790 C   0  0  0  0  0  0  0  0  0  0  0  0
   37.6830   26.5930   42.7060 C   0  0  0  0  0  0  0  0  0  0  0  0
   37.1150   30.2600   41.7780 H   0  0  0  0  0  0  0  0  0  0  0  0
   37.9240   29.6740   43.9860 H   0  0  0  0  0  0  0  0  0  0  0  0
   38.3140   27.2950   44.6500 H   0  0  0  0  0  0  0  0  0  0  0  0
   37.8470   25.5590   42.9770 H   0  0  0  0  0  0  0  0  0  0  0  0
   33.3970   28.9490   37.9560 C   0  0  0  0  0  3  0  0  0  0  0  0
   33.0450   29.2840   36.7400 C   0  0  0  0  0  3  0  0  0  0  0  0
   31.6240   29.3310   36.3070 C   0  0  0  0  0  0  0  0  0  0  0  0
   31.1560   28.3700   36.5990 H   0  0  0  0  0  0  0  0  0  0  0  0
   31.5640   29.3600   35.1820 H   0  0  0  0  0  0  0  0  0  0  0  0
   30.8650   30.4660   36.9470 C   0  0  0  0  0  3  0  0  0  0  0  0
   30.6110   31.7250   36.2220 C   0  0  0  0  0  2  0  0  0  0  0  0
   29.4850   30.7080   36.3160 C   0  0  0  0  0  2  0  0  0  0  0  0
  1  6  1  0  0  0  0
  2  3  1  0  0  0  0
  2  1  2  0  0  0  0
  3  4  2  0  0  0  0
  4  5  1  0  0  0  0
  5 11  1  0  0  0  0
  6  5  2  0  0  0  0
  7  2  1  0  0  0  0
  8  3  1  0  0  0  0
  9 10  1  0  0  0  0
 10 15  1  0  0  0  0
 11 10  2  0  0  0  0
 11 12  1  0  0  0  0
 12 13  2  0  0  0  0
 13 14  1  0  0  0  0
 13 17  1  0  0  0  0
 14 18  1  0  0  0  0
 15 19  1  0  0  0  0
 15 14  2  0  0  0  0
 16 12  1  0  0  0  0
 20  1  1  0  0  0  0
 21 20  2  0  0  0  0
 22 23  1  0  0  0  0
 22 21  1  0  0  0  0
 22 25  1  0  0  0  0
 24 22  1  0  0  0  0
 26 27  1  0  0  0  0
 26 25  1  0  0  0  0
 27 25  1  0  0  0  0
M  END
>  <minimizedAffinity>
-4.87563992

$$$$

 OpenBabel03252506203D

 27 29  0  0  0  0  0  0  0  0999 V2000
   38.7690   31.5610   38.7200 C   0  0  0  0  0  0  0  0  0  0  0  0
   37.9290   32.6860   38.7700 C   0  0  0  0  0  0  0  0  0  0  0  0
   36.9630   32.7150   39.8040 C   0  0  0  0  0  0  0  0  0  0  0  0
   36.8970   31.6810   40.6750 N   0  0  0  0  0  0  0  0  0  0  0  0
   37.7380   30.6180   40.5770 C   0  0  0  0  0  0  0  0  0  0  0  0
   38.6730   30.5610   39.5990 N   0  0  0  0  0  0  0  0  0  0  0  0
   38.0490   33.4520   38.0470 H   0  0  0  0  0  0  0  0  0  0  0  0
   36.3250   33.5640   39.8460 H   0  0  0  0  0  0  0  0  0  0  0  0
   39.7140   30.7190   42.8620 Cl  0  0  0  0  0  0  0  0  0  0  0  0
   38.4700   29.5260   42.6460 C   0  0  0  0  0  0  0  0  0  0  0  0
   37.5940   29.5480   41.5620 C   0  0  0  0  0  0  0  0  0  0  0  0
   36.6010   28.6240   41.3600 C   0  0  0  0  0  0  0  0  0  0  0  0
   36.4890   27.6210   42.3120 C   0  0  0  0  0  0  0  0  0  0  0  0
   37.3050   27.5070   43.4230 C   0  0  0  0  0  0  0  0  0  0  0  0
   38.2820   28.4930   43.5380 C   0  0  0  0  0  0  0  0  0  0  0  0
   35.9470   28.6730   40.5140 H   0  0  0  0  0  0  0  0  0  0  0  0
   35.6980   26.8930   42.1400 H   0  0  0  0  0  0  0  0  0  0  0  0
   37.1940   26.7240   44.1360 H   0  0  0  0  0  0  0  0  0  0  0  0
   38.9370   28.4340   44.3950 H   0  0  0  0  0  0  0  0  0  0  0  0
   39.7710   31.5270   37.6520 C   0  0  0  0  0  3  0  0  0  0  0  0
   41.0380   31.6140   37.9710 C   0  0  0  0  0  3  0  0  0  0  0  0
   42.1180   31.5860   36.9510 C   0  0  0  0  0  0  0  0  0  0  0  0
   42.8300   32.3990   37.2000 H   0  0  0  0  0  0  0  0  0  0  0  0
   41.7020   31.8590   35.9390 H   0  0  0  0  0  0  0  0  0  0  0  0
   42.8550   30.2710   36.9290 C   0  0  0  0  0  3  0  0  0  0  0  0
   42.2530   29.0650   36.3310 C   0  0  0  0  0  2  0  0  0  0  0  0
   43.2810   29.8350   35.5180 C   0  0  0  0  0  2  0  0  0  0  0  0
  1  2  2  0  0  0  0
  1  6  1  0  0  0  0
  2  3  1  0  0  0  0
  3  8  1  0  0  0  0
  3  4  2  0  0  0  0
  5  4  1  0  0  0  0
  5 11  1  0  0  0  0
  6  5  2  0  0  0  0
  7  2  1  0  0  0  0
 10  9  1  0  0  0  0
 10 15  1  0  0  0  0
 11 10  2  0  0  0  0
 12 11  1  0  0  0  0
 12 13  2  0  0  0  0
 13 14  1  0  0  0  0
 14 15  2  0  0  0  0
 14 18  1  0  0  0  0
 15 19  1  0  0  0  0
 16 12  1  0  0  0  0
 17 13  1  0  0  0  0
 20 21  2  0  0  0  0
 20  1  1  0  0  0  0
 22 23  1  0  0  0  0
 22 21  1  0  0  0  0
 24 22  1  0  0  0  0
 25 22  1  0  0  0  0
 26 25  1  0  0  0  0
 27 26  1  0  0  0  0
 27 25  1  0  0  0  0
M  END
>  <minimizedAffinity>
-4.75658035

$$$$

 OpenBabel03252506203D

 27 29  0  0  0  0  0  0  0  0999 V2000
   38.3500   30.4890   40.5650 C   0  0  0  0  0  0  0  0  0  0  0  0
   37.2000   31.2930   40.6310 C   0  0  0  0  0  0  0  0  0  0  0  0
   35.9660   30.6280   40.8230 C   0  0  0  0  0  0  0  0  0  0  0  0
   35.9530   29.2780   40.9300 N   0  0  0  0  0  0  0  0  0  0  0  0
   37.0990   28.5510   40.8580 C   0  0  0  0  0  0  0  0  0  0  0  0
   38.2960   29.1600   40.6750 N   0  0  0  0  0  0  0  0  0  0  0  0
   37.3000   32.3450   40.5370 H   0  0  0  0  0  0  0  0  0  0  0  0
   35.0930   31.2320   40.8730 H   0  0  0  0  0  0  0  0  0  0  0  0
   37.5540   27.4810   43.6480 Cl  0  0  0  0  0  0  0  0  0  0  0  0
   37.1860   26.5310   42.2420 C   0  0  0  0  0  0  0  0  0  0  0  0
   36.9890   27.1010   40.9850 C   0  0  0  0  0  0  0  0  0  0  0  0
   36.6980   26.3800   39.8540 C   0  0  0  0  0  0  0  0  0  0  0  0
   36.6000   25.0050   40.0070 C   0  0  0  0  0  0  0  0  0  0  0  0
   36.7760   24.3400   41.2060 C   0  0  0  0  0  0  0  0  0  0  0  0
   37.0690   25.1590   42.2940 C   0  0  0  0  0  0  0  0  0  0  0  0
   36.5540   26.8540   38.9050 H   0  0  0  0  0  0  0  0  0  0  0  0
   36.3690   24.4460   39.1020 H   0  0  0  0  0  0  0  0  0  0  0  0
   36.6950   23.2820   41.2900 H   0  0  0  0  0  0  0  0  0  0  0  0
   37.2130   24.6710   43.2480 H   0  0  0  0  0  0  0  0  0  0  0  0
   39.6290   31.1730   40.3670 C   0  0  0  0  0  3  0  0  0  0  0  0
   39.7040   32.4560   40.6130 C   0  0  0  0  0  3  0  0  0  0  0  0
   40.9630   33.2280   40.4390 C   0  0  0  0  0  0  0  0  0  0  0  0
   41.5660   33.0890   41.3590 H   0  0  0  0  0  0  0  0  0  0  0  0
   40.7370   34.3310   40.3980 H   0  0  0  0  0  0  0  0  0  0  0  0
   41.7620   32.7640   39.2480 C   0  0  0  0  0  3  0  0  0  0  0  0
   41.4810   33.2700   37.8920 C   0  0  0  0  0  2  0  0  0  0  0  0
   42.6570   33.8620   38.6510 C   0  0  0  0  0  2  0  0  0  0  0  0
  1  2  2  0  0  0  0
  1  6  1  0  0  0  0
  2  3  1  0  0  0  0
  3  8  1  0  0  0  0
  3  4  2  0  0  0  0
  5  4  1  0  0  0  0
  5 11  1  0  0  0  0
  6  5  2  0  0  0  0
  7  2  1  0  0  0  0
 10 15  1  0  0  0  0
 10  9  1  0  0  0  0
 11 10  2  0  0  0  0
 12 13  2  0  0  0  0
 12 11  1  0  0  0  0
 13 14  1  0  0  0  0
 14 18  1  0  0  0  0
 14 15  2  0  0  0  0
 15 19  1  0  0  0  0
 16 12  1  0  0  0  0
 17 13  1  0  0  0  0
 20  1  1  0  0  0  0
 20 21  2  0  0  0  0
 22 21  1  0  0  0  0
 22 23  1  0  0  0  0
 24 22  1  0  0  0  0
 25 22  1  0  0  0  0
 26 27  1  0  0  0  0
 26 25  1  0  0  0  0
 27 25  1  0  0  0  0
M  END
>  <minimizedAffinity>
-4.75164557

$$$$

 OpenBabel03252506203D

 27 29  0  0  0  0  0  0  0  0999 V2000
   34.1480   28.7870   37.1980 C   0  0  0  0  0  0  0  0  0  0  0  0
   35.0760   29.1030   36.1930 C   0  0  0  0  0  0  0  0  0  0  0  0
   36.4430   28.9050   36.5010 C   0  0  0  0  0  0  0  0  0  0  0  0
   36.7820   28.4310   37.7230 N   0  0  0  0  0  0  0  0  0  0  0  0
   35.8380   28.1420   38.6570 C   0  0  0  0  0  0  0  0  0  0  0  0
   34.5220   28.3210   38.3920 N   0  0  0  0  0  0  0  0  0  0  0  0
   34.7240   29.4710   35.2620 H   0  0  0  0  0  0  0  0  0  0  0  0
   37.1490   29.1430   35.7430 H   0  0  0  0  0  0  0  0  0  0  0  0
   35.9160   30.1940   40.8750 Cl  0  0  0  0  0  0  0  0  0  0  0  0
   36.3610   28.5210   41.0210 C   0  0  0  0  0  0  0  0  0  0  0  0
   36.2970   27.6350   39.9470 C   0  0  0  0  0  0  0  0  0  0  0  0
   36.6410   26.3090   40.0270 C   0  0  0  0  0  0  0  0  0  0  0  0
   37.0720   25.8570   41.2660 C   0  0  0  0  0  0  0  0  0  0  0  0
   37.1720   26.6510   42.3930 C   0  0  0  0  0  0  0  0  0  0  0  0
   36.8010   27.9810   42.2100 C   0  0  0  0  0  0  0  0  0  0  0  0
   36.5790   25.6580   39.1790 H   0  0  0  0  0  0  0  0  0  0  0  0
   37.3430   24.8040   41.3150 H   0  0  0  0  0  0  0  0  0  0  0  0
   37.5080   26.2740   43.3300 H   0  0  0  0  0  0  0  0  0  0  0  0
   36.8670   28.6300   43.0710 H   0  0  0  0  0  0  0  0  0  0  0  0
   32.7320   28.9910   36.8840 C   0  0  0  0  0  3  0  0  0  0  0  0
   32.4040   29.9130   36.0140 C   0  0  0  0  0  3  0  0  0  0  0  0
   30.9920   30.1850   35.6370 C   0  0  0  0  0  0  0  0  0  0  0  0
   30.3510   29.8090   36.4600 H   0  0  0  0  0  0  0  0  0  0  0  0
   30.7080   29.5690   34.7370 H   0  0  0  0  0  0  0  0  0  0  0  0
   30.7250   31.6540   35.4310 C   0  0  0  0  0  3  0  0  0  0  0  0
   31.3380   32.3960   34.3140 C   0  0  0  0  0  2  0  0  0  0  0  0
   29.8910   31.9510   34.1740 C   0  0  0  0  0  2  0  0  0  0  0  0
  1  6  1  0  0  0  0
  2  3  1  0  0  0  0
  2  1  2  0  0  0  0
  3  4  2  0  0  0  0
  4  5  1  0  0  0  0
  5 11  1  0  0  0  0
  6  5  2  0  0  0  0
  7  2  1  0  0  0  0
  8  3  1  0  0  0  0
  9 10  1  0  0  0  0
 10 15  1  0  0  0  0
 11 12  1  0  0  0  0
 11 10  2  0  0  0  0
 12 13  2  0  0  0  0
 13 17  1  0  0  0  0
 13 14  1  0  0  0  0
 14 18  1  0  0  0  0
 15 14  2  0  0  0  0
 15 19  1  0  0  0  0
 16 12  1  0  0  0  0
 20  1  1  0  0  0  0
 21 20  2  0  0  0  0
 22 21  1  0  0  0  0
 22 23  1  0  0  0  0
 24 22  1  0  0  0  0
 25 22  1  0  0  0  0
 26 25  1  0  0  0  0
 27 26  1  0  0  0  0
 27 25  1  0  0  0  0
M  END
>  <minimizedAffinity>
-4.732512

$$$$

 OpenBabel03252506203D

 27 29  0  0  0  0  0  0  0  0999 V2000
   36.6450   29.0020   38.4120 C   0  0  0  0  0  0  0  0  0  0  0  0
   35.3430   29.4170   38.7390 C   0  0  0  0  0  0  0  0  0  0  0  0
   34.9160   29.1900   40.0690 C   0  0  0  0  0  0  0  0  0  0  0  0
   35.7640   28.5970   40.9420 N   0  0  0  0  0  0  0  0  0  0  0  0
   37.0140   28.2180   40.5680 C   0  0  0  0  0  0  0  0  0  0  0  0
   37.4520   28.4210   39.3020 N   0  0  0  0  0  0  0  0  0  0  0  0
   34.7440   29.8730   37.9920 H   0  0  0  0  0  0  0  0  0  0  0  0
   33.9320   29.5020   40.3200 H   0  0  0  0  0  0  0  0  0  0  0  0
   36.8550   25.2010   40.6540 Cl  0  0  0  0  0  0  0  0  0  0  0  0
   37.8410   26.1960   41.6800 C   0  0  0  0  0  0  0  0  0  0  0  0
   37.8600   27.5860   41.5780 C   0  0  0  0  0  0  0  0  0  0  0  0
   38.6250   28.4030   42.3720 C   0  0  0  0  0  0  0  0  0  0  0  0
   39.4180   27.7730   43.3210 C   0  0  0  0  0  0  0  0  0  0  0  0
   39.4740   26.4040   43.5050 C   0  0  0  0  0  0  0  0  0  0  0  0
   38.6600   25.6630   42.6510 C   0  0  0  0  0  0  0  0  0  0  0  0
   38.6130   29.4670   42.2640 H   0  0  0  0  0  0  0  0  0  0  0  0
   40.0200   28.4320   43.9440 H   0  0  0  0  0  0  0  0  0  0  0  0
   40.0920   25.9510   44.2440 H   0  0  0  0  0  0  0  0  0  0  0  0
   38.6800   24.5880   42.7680 H   0  0  0  0  0  0  0  0  0  0  0  0
   37.0910   29.2350   37.0370 C   0  0  0  0  0  3  0  0  0  0  0  0
   36.3370   28.8240   36.0490 C   0  0  0  0  0  3  0  0  0  0  0  0
   36.7130   29.0200   34.6250 C   0  0  0  0  0  0  0  0  0  0  0  0
   36.4800   28.0790   34.0870 H   0  0  0  0  0  0  0  0  0  0  0  0
   37.8300   29.1420   34.5340 H   0  0  0  0  0  0  0  0  0  0  0  0
   35.9610   30.1580   33.9820 C   0  0  0  0  0  3  0  0  0  0  0  0
   36.5260   31.5200   33.9320 C   0  0  0  0  0  2  0  0  0  0  0  0
   36.6090   30.6590   32.6820 C   0  0  0  0  0  2  0  0  0  0  0  0
  1  2  2  0  0  0  0
  1  6  1  0  0  0  0
  2  3  1  0  0  0  0
  3  8  1  0  0  0  0
  3  4  2  0  0  0  0
  5  4  1  0  0  0  0
  5 11  1  0  0  0  0
  6  5  2  0  0  0  0
  7  2  1  0  0  0  0
  9 10  1  0  0  0  0
 10 15  1  0  0  0  0
 11 10  2  0  0  0  0
 11 12  1  0  0  0  0
 12 13  2  0  0  0  0
 13 14  1  0  0  0  0
 13 17  1  0  0  0  0
 14 18  1  0  0  0  0
 15 19  1  0  0  0  0
 15 14  2  0  0  0  0
 16 12  1  0  0  0  0
 20  1  1  0  0  0  0
 21 20  2  0  0  0  0
 22 21  1  0  0  0  0
 23 22  1  0  0  0  0
 24 22  1  0  0  0  0
 25 22  1  0  0  0  0
 26 25  1  0  0  0  0
 27 26  1  0  0  0  0
 27 25  1  0  0  0  0
M  END
>  <minimizedAffinity>
-4.68412018

$$$$

 OpenBabel03252506203D

 27 29  0  0  0  0  0  0  0  0999 V2000
   37.4080   28.8350   40.7940 C   0  0  0  0  0  0  0  0  0  0  0  0
   36.1730   29.4620   41.0300 C   0  0  0  0  0  0  0  0  0  0  0  0
   36.1550   30.8760   40.9780 C   0  0  0  0  0  0  0  0  0  0  0  0
   37.3030   31.5420   40.7100 N   0  0  0  0  0  0  0  0  0  0  0  0
   38.4700   30.8800   40.4900 C   0  0  0  0  0  0  0  0  0  0  0  0
   38.5190   29.5270   40.5330 N   0  0  0  0  0  0  0  0  0  0  0  0
   35.3210   28.8640   41.2340 H   0  0  0  0  0  0  0  0  0  0  0  0
   35.2230   31.3550   41.1560 H   0  0  0  0  0  0  0  0  0  0  0  0
   40.4130   31.1270   42.7910 Cl  0  0  0  0  0  0  0  0  0  0  0  0
   40.6030   31.8410   41.2200 C   0  0  0  0  0  0  0  0  0  0  0  0
   39.6580   31.6810   40.2070 C   0  0  0  0  0  0  0  0  0  0  0  0
   39.7760   32.2310   38.9560 C   0  0  0  0  0  0  0  0  0  0  0  0
   40.9150   32.9850   38.7180 C   0  0  0  0  0  0  0  0  0  0  0  0
   41.9120   33.2070   39.6510 C   0  0  0  0  0  0  0  0  0  0  0  0
   41.7000   32.6070   40.8900 C   0  0  0  0  0  0  0  0  0  0  0  0
   39.0280   32.0850   38.2030 H   0  0  0  0  0  0  0  0  0  0  0  0
   40.9960   33.4160   37.7220 H   0  0  0  0  0  0  0  0  0  0  0  0
   42.7750   33.7920   39.4370 H   0  0  0  0  0  0  0  0  0  0  0  0
   42.4600   32.7600   41.6430 H   0  0  0  0  0  0  0  0  0  0  0  0
   37.4310   27.3720   40.8470 C   0  0  0  0  0  3  0  0  0  0  0  0
   37.1110   26.7750   41.9670 C   0  0  0  0  0  3  0  0  0  0  0  0
   37.1080   25.2950   42.1070 C   0  0  0  0  0  0  0  0  0  0  0  0
   36.1020   24.9980   42.4670 H   0  0  0  0  0  0  0  0  0  0  0  0
   37.8180   24.9830   42.9250 H   0  0  0  0  0  0  0  0  0  0  0  0
   37.3950   24.5930   40.8040 C   0  0  0  0  0  3  0  0  0  0  0  0
   37.6080   23.1350   40.7490 C   0  0  0  0  0  2  0  0  0  0  0  0
   36.2500   23.6800   40.3390 C   0  0  0  0  0  2  0  0  0  0  0  0
  1 20  1  0  0  0  0
  1  2  1  0  0  0  0
  2  7  1  0  0  0  0
  3  2  2  0  0  0  0
  3  8  1  0  0  0  0
  4  3  1  0  0  0  0
  5  6  1  0  0  0  0
  5  4  2  0  0  0  0
  6  1  2  0  0  0  0
 10  9  1  0  0  0  0
 11  5  1  0  0  0  0
 11 10  2  0  0  0  0
 12 11  1  0  0  0  0
 13 12  2  0  0  0  0
 13 14  1  0  0  0  0
 14 15  2  0  0  0  0
 15 10  1  0  0  0  0
 15 19  1  0  0  0  0
 16 12  1  0  0  0  0
 17 13  1  0  0  0  0
 18 14  1  0  0  0  0
 20 21  2  0  0  0  0
 21 22  1  0  0  0  0
 22 23  1  0  0  0  0
 22 24  1  0  0  0  0
 25 22  1  0  0  0  0
 26 25  1  0  0  0  0
 27 26  1  0  0  0  0
 27 25  1  0  0  0  0
M  END
>  <minimizedAffinity>
-4.6135211

$$$$
