
 OpenBabel03242519523D

 28 30  0  0  1  0  0  0  0  0999 V2000
   47.2570   34.0070   42.4910 C   0  0  2  0  0  0  0  0  0  0  0  0
   48.5860   34.6400   42.6280 C   0  0  0  0  0  0  0  0  0  0  0  0
   48.8700   35.6720   41.5820 C   0  0  0  0  0  0  0  0  0  0  0  0
   48.6760   35.1570   40.1700 C   0  0  0  0  0  0  0  0  0  0  0  0
   47.4860   34.2560   40.0190 C   0  0  2  0  0  0  0  0  0  0  0  0
   46.5370   34.3750   41.1990 C   0  0  0  0  0  0  0  0  0  0  0  0
   47.2930   32.8770   42.4500 H   0  0  0  0  0  0  0  0  0  0  0  0
   48.7640   35.1390   43.6080 H   0  0  0  0  0  0  0  0  0  0  0  0
   49.4220   33.8840   42.5640 H   0  0  0  0  0  0  0  0  0  0  0  0
   49.9790   35.8760   41.6630 H   0  0  0  0  0  0  0  0  0  0  0  0
   48.3920   36.6360   41.6860 H   0  0  0  0  0  0  0  0  0  0  0  0
   49.6140   34.7110   39.7690 H   0  0  0  0  0  0  0  0  0  0  0  0
   48.5080   36.0550   39.5150 H   0  0  0  0  0  0  0  0  0  0  0  0
   46.8700   34.5520   39.1290 H   0  0  0  0  0  0  0  0  0  0  0  0
   45.6880   33.7100   41.0550 H   0  0  0  0  0  0  0  0  0  0  0  0
   46.1770   35.4270   41.2270 H   0  0  0  0  0  0  0  0  0  0  0  0
   46.3520   34.3740   43.6020 C   0  0  0  0  0  0  0  0  0  0  0  0
   45.5240   35.5070   43.3880 C   0  0  0  0  0  0  0  0  0  0  0  0
   44.6380   35.9220   44.3860 C   0  0  0  0  0  0  0  0  0  0  0  0
   44.6320   35.1770   45.5480 N   0  0  0  0  0  0  0  0  0  0  0  0
   45.4330   34.1040   45.7220 C   0  0  0  0  0  0  0  0  0  0  0  0
   46.2930   33.6970   44.7570 N   0  0  0  0  0  0  0  0  0  0  0  0
   45.4860   36.1110   42.5260 H   0  0  0  0  0  0  0  0  0  0  0  0
   43.9870   36.7590   44.3000 H   0  0  0  0  0  0  0  0  0  0  0  0
   45.3220   33.6160   46.6790 H   0  0  0  0  0  0  0  0  0  0  0  0
   47.8130   32.8090   39.8290 C   0  0  0  0  0  0  0  0  0  0  0  0
   47.6860   32.2800   38.4210 C   0  0  0  0  0  0  0  0  0  0  0  0
   48.9990   32.3180   39.1100 C   0  0  0  0  0  0  0  0  0  0  0  0
  1  7  1  1  0  0  0
  1  2  1  0  0  0  0
  1 17  1  0  0  0  0
  2  8  1  0  0  0  0
  3 10  1  0  0  0  0
  3 11  1  0  0  0  0
  3  2  1  0  0  0  0
  4  3  1  0  0  0  0
  5 14  1  6  0  0  0
  5  4  1  0  0  0  0
  5  6  1  0  0  0  0
  6 16  1  0  0  0  0
  6  1  1  0  0  0  0
  9  2  1  0  0  0  0
 12  4  1  0  0  0  0
 13  4  1  0  0  0  0
 15  6  1  0  0  0  0
 17 22  1  0  0  0  0
 18 17  2  0  0  0  0
 18 19  1  0  0  0  0
 19 20  2  0  0  0  0
 20 21  1  0  0  0  0
 21 25  1  0  0  0  0
 22 21  2  0  0  0  0
 23 18  1  0  0  0  0
 24 19  1  0  0  0  0
 26  5  1  0  0  0  0
 27 28  1  0  0  0  0
 27 26  1  0  0  0  0
 28 26  1  0  0  0  0
M  END
>  <minimizedAffinity>
-5.16991568

>  <minimizedRMSD>
5.24489069

$$$$
