
 OpenBabel03252508393D

 35 38  0  0  0  0  0  0  0  0999 V2000
   45.1340   33.9530   40.7090 C   0  0  0  0  0  0  0  0  0  0  0  0
   44.0910   33.6380   39.8940 C   0  0  0  0  0  0  0  0  0  0  0  0
   44.3880   33.1400   38.6510 C   0  0  0  0  0  0  0  0  0  0  0  0
   45.6700   32.9490   38.2010 C   0  0  0  0  0  0  0  0  0  0  0  0
   46.6990   33.2770   39.0470 C   0  0  0  0  0  0  0  0  0  0  0  0
   46.4530   33.7810   40.3060 C   0  0  0  0  0  0  0  0  0  0  0  0
   43.5630   32.8870   37.9990 H   0  0  0  0  0  0  0  0  0  0  0  0
   45.8530   32.5480   37.1990 H   0  0  0  0  0  0  0  0  0  0  0  0
   47.7230   33.1290   38.6980 H   0  0  0  0  0  0  0  0  0  0  0  0
   40.8060   35.2600   40.7940 C   0  0  0  0  0  0  0  0  0  0  0  0
   42.1120   35.1010   40.2730 C   0  0  0  0  0  0  0  0  0  0  0  0
   42.7480   33.8550   40.4110 C   0  0  0  0  0  0  0  0  0  0  0  0
   42.0440   32.8970   41.0400 N   0  0  0  0  0  0  0  0  0  0  0  0
   40.8130   33.0720   41.5230 C   0  0  0  0  0  0  0  0  0  0  0  0
   40.1960   34.2600   41.3970 N   0  0  0  0  0  0  0  0  0  0  0  0
   40.2050   36.5280   40.6350 N   0  0  0  0  0  0  0  0  0  0  0  0
   42.6820   35.8590   39.7700 H   0  0  0  0  0  0  0  0  0  0  0  0
   40.2780   32.2760   42.0240 H   0  0  0  0  0  0  0  0  0  0  0  0
   39.7980   36.5380   39.6610 H   0  0  0  0  0  0  0  0  0  0  0  0
   40.3990   36.9590   41.5440 H   0  0  0  0  0  0  0  0  0  0  0  0
   47.6130   34.0990   41.1290 C   0  0  0  0  0  0  0  0  0  0  0  0
   48.1390   35.3590   40.9380 C   0  0  0  0  0  0  0  0  0  0  0  0
   49.2520   35.8320   41.6420 C   0  0  0  0  0  0  0  0  0  0  0  0
   49.8310   34.9760   42.5670 C   0  0  0  0  0  0  0  0  0  0  0  0
   49.3180   33.7240   42.7650 C   0  0  0  0  0  0  0  0  0  0  0  0
   48.2150   33.2820   42.0530 C   0  0  0  0  0  0  0  0  0  0  0  0
   47.7450   36.0830   40.2370 H   0  0  0  0  0  0  0  0  0  0  0  0
   49.6630   36.8200   41.4910 H   0  0  0  0  0  0  0  0  0  0  0  0
   50.7010   35.2590   43.1610 H   0  0  0  0  0  0  0  0  0  0  0  0
   49.7340   33.0360   43.4660 H   0  0  0  0  0  0  0  0  0  0  0  0
   47.5700   31.9350   42.1870 C   0  0  0  0  0  3  0  0  0  0  0  0
   48.0690   30.7540   41.4790 C   0  0  0  0  0  2  0  0  0  0  0  0
   48.4000   30.8750   42.9390 C   0  0  0  0  0  2  0  0  0  0  0  0
   44.7350   34.9070   43.1070 N   0  0  0  0  0  0  0  0  0  0  0  0
   44.9110   34.4830   42.0320 C   0  0  0  0  0  0  0  0  0  0  0  0
  1 35  1  0  0  0  0
  2 12  1  0  0  0  0
  2  1  2  0  0  0  0
  3  2  1  0  0  0  0
  4  3  2  0  0  0  0
  4  5  1  0  0  0  0
  5  6  2  0  0  0  0
  6  1  1  0  0  0  0
  6 21  1  0  0  0  0
  7  3  1  0  0  0  0
  8  4  1  0  0  0  0
  9  5  1  0  0  0  0
 10 15  1  0  0  0  0
 11 12  1  0  0  0  0
 11 10  2  0  0  0  0
 12 13  2  0  0  0  0
 13 14  1  0  0  0  0
 14 18  1  0  0  0  0
 15 14  2  0  0  0  0
 16 10  1  0  0  0  0
 16 20  1  0  0  0  0
 17 11  1  0  0  0  0
 19 16  1  0  0  0  0
 21 26  1  0  0  0  0
 22 21  2  0  0  0  0
 22 23  1  0  0  0  0
 23 24  2  0  0  0  0
 24 25  1  0  0  0  0
 24 29  1  0  0  0  0
 25 30  1  0  0  0  0
 26 31  1  0  0  0  0
 26 25  2  0  0  0  0
 27 22  1  0  0  0  0
 28 23  1  0  0  0  0
 31 33  1  0  0  0  0
 32 31  1  0  0  0  0
 32 33  1  0  0  0  0
 35 34  3  0  0  0  0
M  END
>  <minimizedAffinity>
-5.87983084

>  <minimizedRMSD>
0.342765957

$$$$
