
 OpenBabel03242520383D

 29 32  0  0  1  0  0  0  0  0999 V2000
   37.9540   29.8600   39.4790 C   0  0  0  0  0  0  0  0  0  0  0  0
   37.3200   31.1050   39.8160 C   0  0  0  0  0  0  0  0  0  0  0  0
   36.4850   31.1040   40.9030 C   0  0  0  0  0  0  0  0  0  0  0  0
   36.2930   29.9570   41.6010 N   0  0  0  0  0  0  0  0  0  0  0  0
   36.9010   28.8140   41.2590 C   0  0  0  0  0  0  0  0  0  0  0  0
   37.7350   28.7670   40.1910 N   0  0  0  0  0  0  0  0  0  0  0  0
   38.6210   29.8030   38.6370 H   0  0  0  0  0  0  0  0  0  0  0  0
   35.9910   32.0250   41.1840 H   0  0  0  0  0  0  0  0  0  0  0  0
   37.5480   32.3330   39.0150 C   0  0  1  0  0  0  0  0  0  0  0  0
   37.4000   33.6400   39.5840 C   0  0  0  0  0  0  0  0  0  0  0  0
   38.7840   33.1840   39.3560 C   0  0  1  0  0  0  0  0  0  0  0  0
   37.5800   32.0860   37.9160 H   0  0  0  0  0  0  0  0  0  0  0  0
   37.0240   33.7460   40.6220 H   0  0  0  0  0  0  0  0  0  0  0  0
   36.9590   34.4530   38.9370 H   0  0  0  0  0  0  0  0  0  0  0  0
   39.2950   33.7320   38.5200 H   0  0  0  0  0  0  0  0  0  0  0  0
   39.7040   32.7770   40.4430 C   0  0  0  0  0  0  0  0  0  0  0  0
   40.3670   31.6000   40.1450 F   0  0  0  0  0  0  0  0  0  0  0  0
   39.0370   32.6300   41.6640 F   0  0  0  0  0  0  0  0  0  0  0  0
   40.6610   33.7570   40.5580 F   0  0  0  0  0  0  0  0  0  0  0  0
   36.6450   27.5820   42.0810 C   0  0  2  0  0  0  0  0  0  0  0  0
   37.6720   27.3940   43.1850 C   0  0  0  0  0  0  0  0  0  0  0  0
   37.5910   26.4480   42.0190 C   0  0  1  0  0  0  0  0  0  0  0  0
   35.5870   27.4070   42.3460 H   0  0  0  0  0  0  0  0  0  0  0  0
   37.3260   27.0320   44.1700 H   0  0  0  0  0  0  0  0  0  0  0  0
   38.5620   28.0290   43.2040 H   0  0  0  0  0  0  0  0  0  0  0  0
   38.3670   26.5820   41.1970 H   0  0  0  0  0  0  0  0  0  0  0  0
   37.0440   25.0720   42.1390 C   0  0  0  0  0  3  0  0  0  0  0  0
   36.6390   24.3080   40.9330 C   0  0  0  0  0  2  0  0  0  0  0  0
   37.8760   23.8920   41.7310 C   0  0  0  0  0  2  0  0  0  0  0  0
  1  2  2  0  0  0  0
  1  6  1  0  0  0  0
  2  3  1  0  0  0  0
  3  8  1  0  0  0  0
  3  4  2  0  0  0  0
  5  4  1  0  0  0  0
  5 20  1  0  0  0  0
  6  5  2  0  0  0  0
  7  1  1  0  0  0  0
  9 12  1  6  0  0  0
  9 11  1  0  0  0  0
  9 10  1  0  0  0  0
  9  2  1  0  0  0  0
 10 13  1  0  0  0  0
 11 15  1  6  0  0  0
 11 10  1  0  0  0  0
 11 16  1  0  0  0  0
 14 10  1  0  0  0  0
 16 19  1  0  0  0  0
 16 18  1  0  0  0  0
 17 16  1  0  0  0  0
 20 23  1  1  0  0  0
 20 21  1  0  0  0  0
 21 25  1  0  0  0  0
 21 24  1  0  0  0  0
 22 26  1  6  0  0  0
 22 20  1  0  0  0  0
 22 27  1  0  0  0  0
 22 21  1  0  0  0  0
 28 29  1  0  0  0  0
 28 27  1  0  0  0  0
 29 27  1  0  0  0  0
M  END
>  <minimizedAffinity>
-5.23084021

$$$$

 OpenBabel03242520383D

 29 32  0  0  1  0  0  0  0  0999 V2000
   35.8390   30.2230   40.5230 C   0  0  0  0  0  0  0  0  0  0  0  0
   37.0640   30.9760   40.5060 C   0  0  0  0  0  0  0  0  0  0  0  0
   38.1970   30.3310   40.9260 C   0  0  0  0  0  0  0  0  0  0  0  0
   38.1220   29.0390   41.3330 N   0  0  0  0  0  0  0  0  0  0  0  0
   36.9640   28.3670   41.3360 C   0  0  0  0  0  0  0  0  0  0  0  0
   35.8170   28.9650   40.9290 N   0  0  0  0  0  0  0  0  0  0  0  0
   34.9190   30.6790   40.2020 H   0  0  0  0  0  0  0  0  0  0  0  0
   39.1360   30.8690   40.9260 H   0  0  0  0  0  0  0  0  0  0  0  0
   37.0970   32.3930   40.0660 C   0  0  1  0  0  0  0  0  0  0  0  0
   38.3170   33.0270   39.6630 C   0  0  0  0  0  0  0  0  0  0  0  0
   37.3810   32.6690   38.5790 C   0  0  1  0  0  0  0  0  0  0  0  0
   36.1370   32.9140   40.3460 H   0  0  0  0  0  0  0  0  0  0  0  0
   39.2760   32.4790   39.7590 H   0  0  0  0  0  0  0  0  0  0  0  0
   38.4700   34.1090   39.9420 H   0  0  0  0  0  0  0  0  0  0  0  0
   36.8950   33.5620   38.1050 H   0  0  0  0  0  0  0  0  0  0  0  0
   37.6080   31.5510   37.6350 C   0  0  0  0  0  0  0  0  0  0  0  0
   36.5570   30.6510   37.6360 F   0  0  0  0  0  0  0  0  0  0  0  0
   38.7970   30.8660   37.9110 F   0  0  0  0  0  0  0  0  0  0  0  0
   37.6720   32.0890   36.3720 F   0  0  0  0  0  0  0  0  0  0  0  0
   36.9570   26.9360   41.7950 C   0  0  2  0  0  0  0  0  0  0  0  0
   36.7430   26.8050   43.2940 C   0  0  0  0  0  0  0  0  0  0  0  0
   38.0520   26.4360   42.6540 C   0  0  1  0  0  0  0  0  0  0  0  0
   36.3990   26.2380   41.1460 H   0  0  0  0  0  0  0  0  0  0  0  0
   36.0990   25.9870   43.6640 H   0  0  0  0  0  0  0  0  0  0  0  0
   36.7710   27.7000   43.9200 H   0  0  0  0  0  0  0  0  0  0  0  0
   38.9000   27.1890   42.7510 H   0  0  0  0  0  0  0  0  0  0  0  0
   38.4900   25.0270   42.4790 C   0  0  0  0  0  3  0  0  0  0  0  0
   39.6040   24.6860   41.5600 C   0  0  0  0  0  2  0  0  0  0  0  0
   39.7880   24.5630   43.0740 C   0  0  0  0  0  2  0  0  0  0  0  0
  1  6  1  0  0  0  0
  2  1  2  0  0  0  0
  2  3  1  0  0  0  0
  3  4  2  0  0  0  0
  4  5  1  0  0  0  0
  5 20  1  0  0  0  0
  6  5  2  0  0  0  0
  7  1  1  0  0  0  0
  8  3  1  0  0  0  0
  9 12  1  1  0  0  0
  9  2  1  0  0  0  0
 10 13  1  0  0  0  0
 10 14  1  0  0  0  0
 10  9  1  0  0  0  0
 11 15  1  6  0  0  0
 11 10  1  0  0  0  0
 11  9  1  0  0  0  0
 16 17  1  0  0  0  0
 16 18  1  0  0  0  0
 16 11  1  0  0  0  0
 19 16  1  0  0  0  0
 20 23  1  6  0  0  0
 20 22  1  0  0  0  0
 20 21  1  0  0  0  0
 21 24  1  0  0  0  0
 21 25  1  0  0  0  0
 22 26  1  1  0  0  0
 22 21  1  0  0  0  0
 27 22  1  0  0  0  0
 27 29  1  0  0  0  0
 28 27  1  0  0  0  0
 28 29  1  0  0  0  0
M  END
>  <minimizedAffinity>
-5.14625645

$$$$

 OpenBabel03242520383D

 29 32  0  0  1  0  0  0  0  0999 V2000
   37.3930   26.8000   40.5500 C   0  0  0  0  0  0  0  0  0  0  0  0
   37.0930   26.2630   41.8500 C   0  0  0  0  0  0  0  0  0  0  0  0
   36.9280   27.1610   42.8710 C   0  0  0  0  0  0  0  0  0  0  0  0
   37.0500   28.4880   42.6240 N   0  0  0  0  0  0  0  0  0  0  0  0
   37.3290   28.9550   41.4000 C   0  0  0  0  0  0  0  0  0  0  0  0
   37.5020   28.1040   40.3590 N   0  0  0  0  0  0  0  0  0  0  0  0
   37.5300   26.1410   39.7110 H   0  0  0  0  0  0  0  0  0  0  0  0
   36.7020   26.7890   43.8630 H   0  0  0  0  0  0  0  0  0  0  0  0
   36.9830   24.8010   42.0770 C   0  0  1  0  0  0  0  0  0  0  0  0
   37.6050   23.8540   41.1990 C   0  0  0  0  0  0  0  0  0  0  0  0
   38.2560   24.0510   42.5090 C   0  0  1  0  0  0  0  0  0  0  0  0
   36.1710   24.5790   42.8270 H   0  0  0  0  0  0  0  0  0  0  0  0
   38.1100   24.2110   40.2790 H   0  0  0  0  0  0  0  0  0  0  0  0
   37.0560   22.8930   40.9810 H   0  0  0  0  0  0  0  0  0  0  0  0
   38.1430   23.1680   43.1930 H   0  0  0  0  0  0  0  0  0  0  0  0
   39.5340   24.7770   42.6890 C   0  0  0  0  0  0  0  0  0  0  0  0
   39.4430   25.7490   43.6690 F   0  0  0  0  0  0  0  0  0  0  0  0
   39.9730   25.3670   41.4980 F   0  0  0  0  0  0  0  0  0  0  0  0
   40.4660   23.8620   43.1180 F   0  0  0  0  0  0  0  0  0  0  0  0
   37.4450   30.4400   41.1990 C   0  0  2  0  0  0  0  0  0  0  0  0
   36.1010   31.1010   40.9440 C   0  0  0  0  0  0  0  0  0  0  0  0
   37.1530   31.0260   39.8740 C   0  0  1  0  0  0  0  0  0  0  0  0
   38.1330   30.9550   41.8930 H   0  0  0  0  0  0  0  0  0  0  0  0
   35.9020   32.0850   41.4070 H   0  0  0  0  0  0  0  0  0  0  0  0
   35.2200   30.4770   40.7710 H   0  0  0  0  0  0  0  0  0  0  0  0
   37.0130   30.2290   39.0730 H   0  0  0  0  0  0  0  0  0  0  0  0
   37.9440   32.2080   39.4420 C   0  0  0  0  0  3  0  0  0  0  0  0
   37.3780   33.5760   39.5360 C   0  0  0  0  0  2  0  0  0  0  0  0
   38.5150   33.1460   40.4640 C   0  0  0  0  0  2  0  0  0  0  0  0
  1  2  1  0  0  0  0
  2  9  1  0  0  0  0
  2  3  2  0  0  0  0
  3  8  1  0  0  0  0
  4  3  1  0  0  0  0
  5  4  2  0  0  0  0
  6  1  2  0  0  0  0
  6  5  1  0  0  0  0
  7  1  1  0  0  0  0
  9 11  1  0  0  0  0
  9 12  1  1  0  0  0
 10  9  1  0  0  0  0
 10 11  1  0  0  0  0
 11 16  1  0  0  0  0
 11 15  1  1  0  0  0
 13 10  1  0  0  0  0
 14 10  1  0  0  0  0
 16 19  1  0  0  0  0
 16 17  1  0  0  0  0
 18 16  1  0  0  0  0
 20  5  1  0  0  0  0
 20 23  1  1  0  0  0
 21 20  1  0  0  0  0
 21 24  1  0  0  0  0
 22 26  1  6  0  0  0
 22 21  1  0  0  0  0
 22 20  1  0  0  0  0
 25 21  1  0  0  0  0
 27 28  1  0  0  0  0
 27 22  1  0  0  0  0
 27 29  1  0  0  0  0
 28 29  1  0  0  0  0
M  END
>  <minimizedAffinity>
-5.10246658

$$$$

 OpenBabel03242520383D

 29 32  0  0  1  0  0  0  0  0999 V2000
   38.5640   30.4080   41.8160 C   0  0  0  0  0  0  0  0  0  0  0  0
   39.3060   30.9770   40.7230 C   0  0  0  0  0  0  0  0  0  0  0  0
   39.6090   30.1450   39.6780 C   0  0  0  0  0  0  0  0  0  0  0  0
   39.2080   28.8500   39.7120 N   0  0  0  0  0  0  0  0  0  0  0  0
   38.5170   28.3530   40.7460 C   0  0  0  0  0  0  0  0  0  0  0  0
   38.1940   29.1380   41.8030 N   0  0  0  0  0  0  0  0  0  0  0  0
   38.2960   31.0150   42.6620 H   0  0  0  0  0  0  0  0  0  0  0  0
   40.1670   30.5410   38.8390 H   0  0  0  0  0  0  0  0  0  0  0  0
   39.7370   32.3960   40.7350 C   0  0  1  0  0  0  0  0  0  0  0  0
   40.0790   33.0880   39.5270 C   0  0  0  0  0  0  0  0  0  0  0  0
   38.7770   33.4350   40.1290 C   0  0  1  0  0  0  0  0  0  0  0  0
   39.9930   32.7210   41.7830 H   0  0  0  0  0  0  0  0  0  0  0  0
   40.1060   32.5330   38.5680 H   0  0  0  0  0  0  0  0  0  0  0  0
   40.9310   33.8260   39.5620 H   0  0  0  0  0  0  0  0  0  0  0  0
   38.7600   34.4640   40.5770 H   0  0  0  0  0  0  0  0  0  0  0  0
   37.4740   33.0170   39.5620 C   0  0  0  0  0  0  0  0  0  0  0  0
   36.7010   32.3380   40.4880 F   0  0  0  0  0  0  0  0  0  0  0  0
   37.6300   32.2190   38.4230 F   0  0  0  0  0  0  0  0  0  0  0  0
   36.7870   34.1610   39.2310 F   0  0  0  0  0  0  0  0  0  0  0  0
   38.1010   26.9090   40.7130 C   0  0  2  0  0  0  0  0  0  0  0  0
   36.6990   26.7180   40.1600 C   0  0  0  0  0  0  0  0  0  0  0  0
   37.0180   26.4370   41.6020 C   0  0  1  0  0  0  0  0  0  0  0  0
   38.8770   26.2050   40.3640 H   0  0  0  0  0  0  0  0  0  0  0  0
   36.5080   25.8560   39.4940 H   0  0  0  0  0  0  0  0  0  0  0  0
   36.0650   27.5920   39.9890 H   0  0  0  0  0  0  0  0  0  0  0  0
   36.7080   27.2290   42.3580 H   0  0  0  0  0  0  0  0  0  0  0  0
   37.1120   25.0580   42.1480 C   0  0  0  0  0  3  0  0  0  0  0  0
   37.2420   23.8890   41.2440 C   0  0  0  0  0  2  0  0  0  0  0  0
   38.4210   24.3230   42.1170 C   0  0  0  0  0  2  0  0  0  0  0  0
  1  7  1  0  0  0  0
  2  9  1  0  0  0  0
  2  1  2  0  0  0  0
  3  4  2  0  0  0  0
  3  2  1  0  0  0  0
  4  5  1  0  0  0  0
  5  6  2  0  0  0  0
  6  1  1  0  0  0  0
  8  3  1  0  0  0  0
  9 12  1  1  0  0  0
 10 14  1  0  0  0  0
 10 11  1  0  0  0  0
 10  9  1  0  0  0  0
 11 15  1  1  0  0  0
 11  9  1  0  0  0  0
 13 10  1  0  0  0  0
 16 11  1  0  0  0  0
 16 17  1  0  0  0  0
 18 16  1  0  0  0  0
 19 16  1  0  0  0  0
 20 23  1  6  0  0  0
 20  5  1  0  0  0  0
 20 22  1  0  0  0  0
 21 20  1  0  0  0  0
 21 22  1  0  0  0  0
 22 27  1  0  0  0  0
 22 26  1  1  0  0  0
 24 21  1  0  0  0  0
 25 21  1  0  0  0  0
 28 29  1  0  0  0  0
 28 27  1  0  0  0  0
 29 27  1  0  0  0  0
M  END
>  <minimizedAffinity>
-4.88617945

$$$$

 OpenBabel03242520383D

 29 32  0  0  1  0  0  0  0  0999 V2000
   38.2370   27.0590   42.9770 C   0  0  0  0  0  0  0  0  0  0  0  0
   39.0860   26.5540   41.9320 C   0  0  0  0  0  0  0  0  0  0  0  0
   39.1650   27.2950   40.7830 C   0  0  0  0  0  0  0  0  0  0  0  0
   38.4580   28.4470   40.6760 N   0  0  0  0  0  0  0  0  0  0  0  0
   37.6760   28.8890   41.6700 C   0  0  0  0  0  0  0  0  0  0  0  0
   37.5660   28.1890   42.8260 N   0  0  0  0  0  0  0  0  0  0  0  0
   38.1380   26.5200   43.9030 H   0  0  0  0  0  0  0  0  0  0  0  0
   39.7950   26.9430   39.9760 H   0  0  0  0  0  0  0  0  0  0  0  0
   39.8310   25.2810   42.0870 C   0  0  1  0  0  0  0  0  0  0  0  0
   39.5150   24.3470   43.1270 C   0  0  0  0  0  0  0  0  0  0  0  0
   39.0820   23.9760   41.7660 C   0  0  1  0  0  0  0  0  0  0  0  0
   40.7790   25.3040   41.4780 H   0  0  0  0  0  0  0  0  0  0  0  0
   38.7550   24.6120   43.8880 H   0  0  0  0  0  0  0  0  0  0  0  0
   40.3660   23.7930   43.6180 H   0  0  0  0  0  0  0  0  0  0  0  0
   39.6680   23.1220   41.3350 H   0  0  0  0  0  0  0  0  0  0  0  0
   37.6710   24.0070   41.3170 C   0  0  0  0  0  0  0  0  0  0  0  0
   37.5020   24.8010   40.1960 F   0  0  0  0  0  0  0  0  0  0  0  0
   36.8100   24.4540   42.3270 F   0  0  0  0  0  0  0  0  0  0  0  0
   37.3280   22.7260   40.9550 F   0  0  0  0  0  0  0  0  0  0  0  0
   36.9240   30.1780   41.4830 C   0  0  2  0  0  0  0  0  0  0  0  0
   35.6490   29.9970   40.6780 C   0  0  0  0  0  0  0  0  0  0  0  0
   36.8150   30.7750   40.1350 C   0  0  1  0  0  0  0  0  0  0  0  0
   36.8650   30.8200   42.3800 H   0  0  0  0  0  0  0  0  0  0  0  0
   34.7480   30.5610   40.9850 H   0  0  0  0  0  0  0  0  0  0  0  0
   35.4570   29.0430   40.1810 H   0  0  0  0  0  0  0  0  0  0  0  0
   37.4750   30.2430   39.3750 H   0  0  0  0  0  0  0  0  0  0  0  0
   36.8100   32.2560   40.0240 C   0  0  0  0  0  3  0  0  0  0  0  0
   38.0490   33.0400   40.2540 C   0  0  0  0  0  2  0  0  0  0  0  0
   37.4590   32.9260   38.8470 C   0  0  0  0  0  2  0  0  0  0  0  0
  1  7  1  0  0  0  0
  2  9  1  0  0  0  0
  2  1  2  0  0  0  0
  3  2  1  0  0  0  0
  4  3  2  0  0  0  0
  4  5  1  0  0  0  0
  5  6  2  0  0  0  0
  6  1  1  0  0  0  0
  8  3  1  0  0  0  0
  9 12  1  6  0  0  0
  9 10  1  0  0  0  0
 10 14  1  0  0  0  0
 10 13  1  0  0  0  0
 11 15  1  6  0  0  0
 11  9  1  0  0  0  0
 11 10  1  0  0  0  0
 16 11  1  0  0  0  0
 16 18  1  0  0  0  0
 17 16  1  0  0  0  0
 19 16  1  0  0  0  0
 20  5  1  0  0  0  0
 20 23  1  1  0  0  0
 21 24  1  0  0  0  0
 21 20  1  0  0  0  0
 22 26  1  6  0  0  0
 22 21  1  0  0  0  0
 22 20  1  0  0  0  0
 25 21  1  0  0  0  0
 27 22  1  0  0  0  0
 27 28  1  0  0  0  0
 29 27  1  0  0  0  0
 29 28  1  0  0  0  0
M  END
>  <minimizedAffinity>
-4.83860064

$$$$

 OpenBabel03242520383D

 29 32  0  0  1  0  0  0  0  0999 V2000
   39.1310   28.5380   41.0740 C   0  0  0  0  0  0  0  0  0  0  0  0
   38.8310   29.5000   42.1000 C   0  0  0  0  0  0  0  0  0  0  0  0
   37.9460   29.1140   43.0720 C   0  0  0  0  0  0  0  0  0  0  0  0
   37.4020   27.8730   43.0320 N   0  0  0  0  0  0  0  0  0  0  0  0
   37.7040   27.0020   42.0610 C   0  0  0  0  0  0  0  0  0  0  0  0
   38.5750   27.3390   41.0770 N   0  0  0  0  0  0  0  0  0  0  0  0
   39.8210   28.7850   40.2860 H   0  0  0  0  0  0  0  0  0  0  0  0
   37.6970   29.8150   43.8600 H   0  0  0  0  0  0  0  0  0  0  0  0
   39.4390   30.8520   42.0970 C   0  0  1  0  0  0  0  0  0  0  0  0
   40.0510   31.3990   40.9220 C   0  0  0  0  0  0  0  0  0  0  0  0
   38.7300   31.9490   41.2830 C   0  0  1  0  0  0  0  0  0  0  0  0
   39.5740   31.2260   43.1520 H   0  0  0  0  0  0  0  0  0  0  0  0
   40.1500   30.7710   40.0140 H   0  0  0  0  0  0  0  0  0  0  0  0
   40.9780   32.0280   41.0500 H   0  0  0  0  0  0  0  0  0  0  0  0
   38.7810   33.0040   41.6610 H   0  0  0  0  0  0  0  0  0  0  0  0
   37.4850   31.6490   40.5390 C   0  0  0  0  0  0  0  0  0  0  0  0
   36.4930   31.1550   41.3680 F   0  0  0  0  0  0  0  0  0  0  0  0
   37.7040   30.7420   39.4960 F   0  0  0  0  0  0  0  0  0  0  0  0
   37.0210   32.8360   40.0240 F   0  0  0  0  0  0  0  0  0  0  0  0
   37.0660   25.6410   42.0820 C   0  0  2  0  0  0  0  0  0  0  0  0
   38.0750   24.5270   42.3040 C   0  0  0  0  0  0  0  0  0  0  0  0
   37.3510   24.6800   40.9960 C   0  0  1  0  0  0  0  0  0  0  0  0
   36.1170   25.5770   42.6440 H   0  0  0  0  0  0  0  0  0  0  0  0
   37.7910   23.6820   42.9580 H   0  0  0  0  0  0  0  0  0  0  0  0
   39.1440   24.7560   42.2720 H   0  0  0  0  0  0  0  0  0  0  0  0
   37.9330   25.1570   40.1420 H   0  0  0  0  0  0  0  0  0  0  0  0
   36.2630   23.7630   40.5690 C   0  0  0  0  0  3  0  0  0  0  0  0
   35.6210   23.9120   39.2400 C   0  0  0  0  0  2  0  0  0  0  0  0
   36.5270   22.7130   39.5290 C   0  0  0  0  0  2  0  0  0  0  0  0
  1  6  2  0  0  0  0
  1  2  1  0  0  0  0
  2  3  2  0  0  0  0
  3  8  1  0  0  0  0
  4  3  1  0  0  0  0
  5 20  1  0  0  0  0
  5  4  2  0  0  0  0
  6  5  1  0  0  0  0
  7  1  1  0  0  0  0
  9  2  1  0  0  0  0
  9 12  1  1  0  0  0
 10 14  1  0  0  0  0
 10 11  1  0  0  0  0
 10  9  1  0  0  0  0
 11 15  1  1  0  0  0
 11  9  1  0  0  0  0
 13 10  1  0  0  0  0
 16 11  1  0  0  0  0
 16 17  1  0  0  0  0
 18 16  1  0  0  0  0
 19 16  1  0  0  0  0
 20 21  1  0  0  0  0
 20 23  1  1  0  0  0
 21 24  1  0  0  0  0
 22 26  1  6  0  0  0
 22 20  1  0  0  0  0
 22 21  1  0  0  0  0
 25 21  1  0  0  0  0
 27 22  1  0  0  0  0
 28 29  1  0  0  0  0
 28 27  1  0  0  0  0
 29 27  1  0  0  0  0
M  END
>  <minimizedAffinity>
-4.72911692

$$$$

 OpenBabel03242520383D

 29 32  0  0  1  0  0  0  0  0999 V2000
   37.9780   28.6060   39.7770 C   0  0  0  0  0  0  0  0  0  0  0  0
   36.9870   28.0830   40.6770 C   0  0  0  0  0  0  0  0  0  0  0  0
   36.3420   28.9830   41.4830 C   0  0  0  0  0  0  0  0  0  0  0  0
   36.6540   30.3010   41.4040 N   0  0  0  0  0  0  0  0  0  0  0  0
   37.5830   30.7540   40.5530 C   0  0  0  0  0  0  0  0  0  0  0  0
   38.2480   29.9000   39.7360 N   0  0  0  0  0  0  0  0  0  0  0  0
   38.5140   27.9460   39.1190 H   0  0  0  0  0  0  0  0  0  0  0  0
   35.5900   28.6220   42.1740 H   0  0  0  0  0  0  0  0  0  0  0  0
   36.6870   26.6320   40.7410 C   0  0  1  0  0  0  0  0  0  0  0  0
   37.6410   25.6480   40.3210 C   0  0  0  0  0  0  0  0  0  0  0  0
   37.4540   25.7920   41.7780 C   0  0  1  0  0  0  0  0  0  0  0  0
   35.5830   26.4640   40.8960 H   0  0  0  0  0  0  0  0  0  0  0  0
   38.5940   25.9730   39.8590 H   0  0  0  0  0  0  0  0  0  0  0  0
   37.2570   24.7290   39.7920 H   0  0  0  0  0  0  0  0  0  0  0  0
   36.9280   24.9170   42.2430 H   0  0  0  0  0  0  0  0  0  0  0  0
   38.4480   26.4260   42.6740 C   0  0  0  0  0  0  0  0  0  0  0  0
   39.2940   27.2790   41.9870 F   0  0  0  0  0  0  0  0  0  0  0  0
   39.2150   25.4760   43.3600 F   0  0  0  0  0  0  0  0  0  0  0  0
   37.7530   27.1940   43.5780 F   0  0  0  0  0  0  0  0  0  0  0  0
   37.8740   32.2290   40.5150 C   0  0  2  0  0  0  0  0  0  0  0  0
   37.3090   32.9040   39.2770 C   0  0  0  0  0  0  0  0  0  0  0  0
   38.7910   32.7700   39.4890 C   0  0  1  0  0  0  0  0  0  0  0  0
   37.7460   32.7560   41.4770 H   0  0  0  0  0  0  0  0  0  0  0  0
   36.8590   33.9080   39.3840 H   0  0  0  0  0  0  0  0  0  0  0  0
   36.9000   32.2900   38.4710 H   0  0  0  0  0  0  0  0  0  0  0  0
   39.3190   31.9460   38.9080 H   0  0  0  0  0  0  0  0  0  0  0  0
   39.6560   33.9200   39.8600 C   0  0  0  0  0  3  0  0  0  0  0  0
   40.9310   33.7080   40.5880 C   0  0  0  0  0  2  0  0  0  0  0  0
   40.9430   34.1610   39.1270 C   0  0  0  0  0  2  0  0  0  0  0  0
  1  2  1  0  0  0  0
  2  9  1  0  0  0  0
  2  3  2  0  0  0  0
  3  8  1  0  0  0  0
  4  3  1  0  0  0  0
  5  4  2  0  0  0  0
  6  1  2  0  0  0  0
  6  5  1  0  0  0  0
  7  1  1  0  0  0  0
  9 12  1  6  0  0  0
  9 11  1  0  0  0  0
 10  9  1  0  0  0  0
 10 11  1  0  0  0  0
 11 15  1  1  0  0  0
 11 16  1  0  0  0  0
 13 10  1  0  0  0  0
 14 10  1  0  0  0  0
 16 18  1  0  0  0  0
 16 19  1  0  0  0  0
 17 16  1  0  0  0  0
 20  5  1  0  0  0  0
 20 23  1  1  0  0  0
 21 24  1  0  0  0  0
 21 22  1  0  0  0  0
 21 20  1  0  0  0  0
 22 26  1  6  0  0  0
 22 27  1  0  0  0  0
 22 20  1  0  0  0  0
 25 21  1  0  0  0  0
 27 28  1  0  0  0  0
 29 27  1  0  0  0  0
 29 28  1  0  0  0  0
M  END
>  <minimizedAffinity>
-4.62669277

$$$$

 OpenBabel03242520383D

 29 32  0  0  1  0  0  0  0  0999 V2000
   36.9990   26.9710   40.6300 C   0  0  0  0  0  0  0  0  0  0  0  0
   36.4850   27.9390   41.5610 C   0  0  0  0  0  0  0  0  0  0  0  0
   35.5970   28.8610   41.0720 C   0  0  0  0  0  0  0  0  0  0  0  0
   35.2470   28.8280   39.7630 N   0  0  0  0  0  0  0  0  0  0  0  0
   35.7450   27.9120   38.9230 C   0  0  0  0  0  0  0  0  0  0  0  0
   36.6270   26.9790   39.3610 N   0  0  0  0  0  0  0  0  0  0  0  0
   37.6980   26.2220   40.9590 H   0  0  0  0  0  0  0  0  0  0  0  0
   35.1910   29.6040   41.7470 H   0  0  0  0  0  0  0  0  0  0  0  0
   36.9070   27.9470   42.9830 C   0  0  1  0  0  0  0  0  0  0  0  0
   38.1610   27.3900   43.3980 C   0  0  0  0  0  0  0  0  0  0  0  0
   38.0810   28.8630   43.3710 C   0  0  1  0  0  0  0  0  0  0  0  0
   36.0330   28.1890   43.6520 H   0  0  0  0  0  0  0  0  0  0  0  0
   38.7980   26.8640   42.6580 H   0  0  0  0  0  0  0  0  0  0  0  0
   38.1990   26.8450   44.3850 H   0  0  0  0  0  0  0  0  0  0  0  0
   38.0770   29.3230   44.3940 H   0  0  0  0  0  0  0  0  0  0  0  0
   38.7510   29.7030   42.3500 C   0  0  0  0  0  0  0  0  0  0  0  0
   37.8840   30.6230   41.7880 F   0  0  0  0  0  0  0  0  0  0  0  0
   39.3230   28.9310   41.3320 F   0  0  0  0  0  0  0  0  0  0  0  0
   39.7340   30.4190   42.9910 F   0  0  0  0  0  0  0  0  0  0  0  0
   35.3080   27.9320   37.4850 C   0  0  2  0  0  0  0  0  0  0  0  0
   36.1010   28.9210   36.6480 C   0  0  0  0  0  0  0  0  0  0  0  0
   34.6410   29.1330   36.9370 C   0  0  1  0  0  0  0  0  0  0  0  0
   35.1150   26.9400   37.0390 H   0  0  0  0  0  0  0  0  0  0  0  0
   36.3880   28.6310   35.6210 H   0  0  0  0  0  0  0  0  0  0  0  0
   36.7770   29.6230   37.1430 H   0  0  0  0  0  0  0  0  0  0  0  0
   34.3850   29.8890   37.7490 H   0  0  0  0  0  0  0  0  0  0  0  0
   33.5830   28.9400   35.9120 C   0  0  0  0  0  3  0  0  0  0  0  0
   32.4360   28.0350   36.1660 C   0  0  0  0  0  2  0  0  0  0  0  0
   32.2250   29.5490   36.1080 C   0  0  0  0  0  2  0  0  0  0  0  0
  1  7  1  0  0  0  0
  1  2  1  0  0  0  0
  2  9  1  0  0  0  0
  3  2  2  0  0  0  0
  3  8  1  0  0  0  0
  4  3  1  0  0  0  0
  5  6  1  0  0  0  0
  5  4  2  0  0  0  0
  6  1  2  0  0  0  0
  9 11  1  0  0  0  0
  9 10  1  0  0  0  0
  9 12  1  1  0  0  0
 10 14  1  0  0  0  0
 11 10  1  0  0  0  0
 11 15  1  1  0  0  0
 13 10  1  0  0  0  0
 16 19  1  0  0  0  0
 16 11  1  0  0  0  0
 17 16  1  0  0  0  0
 18 16  1  0  0  0  0
 20 23  1  6  0  0  0
 20  5  1  0  0  0  0
 21 22  1  0  0  0  0
 21 25  1  0  0  0  0
 21 20  1  0  0  0  0
 22 20  1  0  0  0  0
 22 26  1  1  0  0  0
 24 21  1  0  0  0  0
 27 29  1  0  0  0  0
 27 28  1  0  0  0  0
 27 22  1  0  0  0  0
 29 28  1  0  0  0  0
M  END
>  <minimizedAffinity>
-4.55527973

$$$$

 OpenBabel03242520383D

 29 32  0  0  1  0  0  0  0  0999 V2000
   37.2560   27.0000   38.8790 C   0  0  0  0  0  0  0  0  0  0  0  0
   36.1290   27.8820   38.7470 C   0  0  0  0  0  0  0  0  0  0  0  0
   35.6320   28.4320   39.9000 C   0  0  0  0  0  0  0  0  0  0  0  0
   36.2070   28.1300   41.0900 N   0  0  0  0  0  0  0  0  0  0  0  0
   37.2570   27.3040   41.1760 C   0  0  0  0  0  0  0  0  0  0  0  0
   37.7830   26.7360   40.0630 N   0  0  0  0  0  0  0  0  0  0  0  0
   37.6900   26.5410   38.0070 H   0  0  0  0  0  0  0  0  0  0  0  0
   34.7830   29.1010   39.8370 H   0  0  0  0  0  0  0  0  0  0  0  0
   35.5220   28.1730   37.4260 C   0  0  1  0  0  0  0  0  0  0  0  0
   34.6220   29.2710   37.2370 C   0  0  0  0  0  0  0  0  0  0  0  0
   35.9840   29.4470   36.6960 C   0  0  1  0  0  0  0  0  0  0  0  0
   35.6590   27.2980   36.7290 H   0  0  0  0  0  0  0  0  0  0  0  0
   34.3000   29.8720   38.1110 H   0  0  0  0  0  0  0  0  0  0  0  0
   33.7500   29.1290   36.5340 H   0  0  0  0  0  0  0  0  0  0  0  0
   36.0170   29.4320   35.5750 H   0  0  0  0  0  0  0  0  0  0  0  0
   36.9990   30.3380   37.3040 C   0  0  0  0  0  0  0  0  0  0  0  0
   37.3460   31.3780   36.4610 F   0  0  0  0  0  0  0  0  0  0  0  0
   38.1550   29.6400   37.6700 F   0  0  0  0  0  0  0  0  0  0  0  0
   36.4310   30.9020   38.4220 F   0  0  0  0  0  0  0  0  0  0  0  0
   37.8470   27.0190   42.5290 C   0  0  2  0  0  0  0  0  0  0  0  0
   38.4170   28.2620   43.1910 C   0  0  0  0  0  0  0  0  0  0  0  0
   39.3060   27.1400   42.7340 C   0  0  1  0  0  0  0  0  0  0  0  0
   37.2530   26.3400   43.1660 H   0  0  0  0  0  0  0  0  0  0  0  0
   38.2680   28.3950   44.2780 H   0  0  0  0  0  0  0  0  0  0  0  0
   38.5040   29.1860   42.6130 H   0  0  0  0  0  0  0  0  0  0  0  0
   39.8650   27.2960   41.7550 H   0  0  0  0  0  0  0  0  0  0  0  0
   39.9610   26.1990   43.6800 C   0  0  0  0  0  3  0  0  0  0  0  0
   39.9550   24.7380   43.4230 C   0  0  0  0  0  2  0  0  0  0  0  0
   41.2550   25.5360   43.3080 C   0  0  0  0  0  2  0  0  0  0  0  0
  1  6  1  0  0  0  0
  2  1  2  0  0  0  0
  2  3  1  0  0  0  0
  3  4  2  0  0  0  0
  4  5  1  0  0  0  0
  5 20  1  0  0  0  0
  6  5  2  0  0  0  0
  7  1  1  0  0  0  0
  8  3  1  0  0  0  0
  9 12  1  6  0  0  0
  9  2  1  0  0  0  0
 10  9  1  0  0  0  0
 10 13  1  0  0  0  0
 11 15  1  6  0  0  0
 11 10  1  0  0  0  0
 11 16  1  0  0  0  0
 11  9  1  0  0  0  0
 14 10  1  0  0  0  0
 16 18  1  0  0  0  0
 16 19  1  0  0  0  0
 17 16  1  0  0  0  0
 20 22  1  0  0  0  0
 20 23  1  1  0  0  0
 20 21  1  0  0  0  0
 21 24  1  0  0  0  0
 22 26  1  6  0  0  0
 22 21  1  0  0  0  0
 22 27  1  0  0  0  0
 25 21  1  0  0  0  0
 28 27  1  0  0  0  0
 29 28  1  0  0  0  0
 29 27  1  0  0  0  0
M  END
>  <minimizedAffinity>
-4.55404282

$$$$
