
 OpenBabel03242519183D

 36 39  0  0  1  0  0  0  0  0999 V2000
   38.0930   28.4430   43.3920 C   0  0  0  0  0  0  0  0  0  0  0  0
   38.9010   29.1120   43.7340 H   0  0  0  0  0  0  0  0  0  0  0  0
   37.4200   28.3050   44.2860 H   0  0  0  0  0  0  0  0  0  0  0  0
   37.3220   29.0190   42.3130 C   0  0  0  0  0  0  0  0  0  0  0  0
   36.2890   28.3370   41.7090 C   0  0  0  0  0  0  0  0  0  0  0  0
   35.5360   28.8690   40.6550 C   0  0  0  0  0  0  0  0  0  0  0  0
   35.8960   30.1220   40.2590 N   0  0  0  0  0  0  0  0  0  0  0  0
   36.9050   30.7760   40.8550 C   0  0  0  0  0  0  0  0  0  0  0  0
   37.6020   30.2350   41.8620 N   0  0  0  0  0  0  0  0  0  0  0  0
   35.9910   27.3400   42.0140 H   0  0  0  0  0  0  0  0  0  0  0  0
   34.7410   28.3210   40.2040 H   0  0  0  0  0  0  0  0  0  0  0  0
   37.3200   32.1440   40.4020 C   0  0  2  0  0  0  0  0  0  0  0  0
   37.1680   32.4930   38.9550 C   0  0  0  0  0  0  0  0  0  0  0  0
   38.5510   32.2220   39.5680 C   0  0  1  0  0  0  0  0  0  0  0  0
   37.1690   32.9400   41.1540 H   0  0  0  0  0  0  0  0  0  0  0  0
   36.9050   33.5220   38.6630 H   0  0  0  0  0  0  0  0  0  0  0  0
   36.7680   31.7310   38.2390 H   0  0  0  0  0  0  0  0  0  0  0  0
   39.0460   31.2910   39.2360 H   0  0  0  0  0  0  0  0  0  0  0  0
   39.4600   33.3830   39.8340 C   0  0  0  0  0  3  0  0  0  0  0  0
   40.7310   33.1480   40.5650 C   0  0  0  0  0  2  0  0  0  0  0  0
   40.7180   33.6180   39.1220 C   0  0  0  0  0  2  0  0  0  0  0  0
   38.6850   27.1400   42.9630 C   0  0  0  0  0  0  0  0  0  0  0  0
   38.2450   26.3270   43.5680 H   0  0  0  0  0  0  0  0  0  0  0  0
   38.4470   26.9190   41.9130 H   0  0  0  0  0  0  0  0  0  0  0  0
   39.9450   24.4410   43.1410 Cl  0  0  0  0  0  0  0  0  0  0  0  0
   40.8600   25.9110   43.2220 C   0  0  0  0  0  0  0  0  0  0  0  0
   40.1730   27.0980   43.1280 C   0  0  0  0  0  0  0  0  0  0  0  0
   40.8960   28.2720   43.1910 C   0  0  0  0  0  0  0  0  0  0  0  0
   42.2680   28.2530   43.3430 C   0  0  0  0  0  0  0  0  0  0  0  0
   42.9550   27.0440   43.4380 C   0  0  0  0  0  0  0  0  0  0  0  0
   42.2210   25.8690   43.3730 C   0  0  0  0  0  0  0  0  0  0  0  0
   40.4320   29.2530   43.1240 H   0  0  0  0  0  0  0  0  0  0  0  0
   42.8720   29.1400   43.3970 H   0  0  0  0  0  0  0  0  0  0  0  0
   44.0300   27.0100   43.5580 H   0  0  0  0  0  0  0  0  0  0  0  0
   42.8230   24.6130   43.4600 O   0  0  0  0  0  0  0  0  0  0  0  0
   43.6440   24.4530   42.8810 H   0  0  0  0  0  0  0  0  0  0  0  0
  1  2  1  0  0  0  0
  1  3  1  0  0  0  0
  4  1  1  0  0  0  0
  5 10  1  0  0  0  0
  5  4  2  0  0  0  0
  6  5  1  0  0  0  0
  7  6  2  0  0  0  0
  7  8  1  0  0  0  0
  8  9  2  0  0  0  0
  9  4  1  0  0  0  0
 11  6  1  0  0  0  0
 12  8  1  0  0  0  0
 12 15  1  1  0  0  0
 13 14  1  0  0  0  0
 13 12  1  0  0  0  0
 14 18  1  6  0  0  0
 14 19  1  0  0  0  0
 14 12  1  0  0  0  0
 16 13  1  0  0  0  0
 17 13  1  0  0  0  0
 19 20  1  0  0  0  0
 21 19  1  0  0  0  0
 21 20  1  0  0  0  0
 22 27  1  0  0  0  0
 22  1  1  0  0  0  0
 22 23  1  0  0  0  0
 24 22  1  0  0  0  0
 25 26  1  0  0  0  0
 26 31  1  0  0  0  0
 27 28  1  0  0  0  0
 27 26  2  0  0  0  0
 28 29  2  0  0  0  0
 29 33  1  0  0  0  0
 29 30  1  0  0  0  0
 30 34  1  0  0  0  0
 31 30  2  0  0  0  0
 31 35  1  0  0  0  0
 32 28  1  0  0  0  0
 36 35  1  0  0  0  0
M  END
>  <minimizedAffinity>
-6.02627087

$$$$

 OpenBabel03242519183D

 36 39  0  0  1  0  0  0  0  0999 V2000
   36.4240   30.4340   39.2810 C   0  0  0  0  0  0  0  0  0  0  0  0
   37.1710   30.7810   38.5460 H   0  0  0  0  0  0  0  0  0  0  0  0
   35.4240   30.7140   38.8440 H   0  0  0  0  0  0  0  0  0  0  0  0
   36.4660   29.0030   39.4730 C   0  0  0  0  0  0  0  0  0  0  0  0
   36.1460   28.1210   38.4650 C   0  0  0  0  0  0  0  0  0  0  0  0
   36.1670   26.7310   38.6320 C   0  0  0  0  0  0  0  0  0  0  0  0
   36.5300   26.3000   39.8720 N   0  0  0  0  0  0  0  0  0  0  0  0
   36.8390   27.1690   40.8470 C   0  0  0  0  0  0  0  0  0  0  0  0
   36.8080   28.4930   40.6500 N   0  0  0  0  0  0  0  0  0  0  0  0
   35.8560   28.4490   37.4730 H   0  0  0  0  0  0  0  0  0  0  0  0
   35.9160   26.0680   37.8350 H   0  0  0  0  0  0  0  0  0  0  0  0
   37.2100   26.6970   42.2200 C   0  0  2  0  0  0  0  0  0  0  0  0
   36.5830   27.3690   43.4010 C   0  0  0  0  0  0  0  0  0  0  0  0
   38.0550   27.6150   43.0320 C   0  0  1  0  0  0  0  0  0  0  0  0
   37.4320   25.6160   42.2870 H   0  0  0  0  0  0  0  0  0  0  0  0
   36.3480   26.7860   44.3050 H   0  0  0  0  0  0  0  0  0  0  0  0
   35.8680   28.2170   43.2410 H   0  0  0  0  0  0  0  0  0  0  0  0
   38.2890   28.6250   42.6490 H   0  0  0  0  0  0  0  0  0  0  0  0
   39.1220   26.9730   43.8660 C   0  0  0  0  0  3  0  0  0  0  0  0
   39.7890   25.7460   43.3590 C   0  0  0  0  0  2  0  0  0  0  0  0
   40.5530   27.0430   43.5610 C   0  0  0  0  0  2  0  0  0  0  0  0
   36.6550   31.1360   40.5800 C   0  0  0  0  0  0  0  0  0  0  0  0
   35.7020   31.5700   40.9290 H   0  0  0  0  0  0  0  0  0  0  0  0
   36.9880   30.4350   41.3590 H   0  0  0  0  0  0  0  0  0  0  0  0
   39.3380   30.6250   41.7820 Cl  0  0  0  0  0  0  0  0  0  0  0  0
   38.9310   32.1140   40.9920 C   0  0  0  0  0  0  0  0  0  0  0  0
   37.6640   32.2360   40.4740 C   0  0  0  0  0  0  0  0  0  0  0  0
   37.3340   33.4190   39.8420 C   0  0  0  0  0  0  0  0  0  0  0  0
   38.2510   34.4460   39.7350 C   0  0  0  0  0  0  0  0  0  0  0  0
   39.5330   34.3110   40.2640 C   0  0  0  0  0  0  0  0  0  0  0  0
   39.8560   33.1190   40.8970 C   0  0  0  0  0  0  0  0  0  0  0  0
   36.3560   33.5990   39.4050 H   0  0  0  0  0  0  0  0  0  0  0  0
   38.0400   35.3830   39.2530 H   0  0  0  0  0  0  0  0  0  0  0  0
   40.2640   35.1050   40.1900 H   0  0  0  0  0  0  0  0  0  0  0  0
   41.1150   32.8940   41.4560 O   0  0  0  0  0  0  0  0  0  0  0  0
   41.9240   33.1270   40.8840 H   0  0  0  0  0  0  0  0  0  0  0  0
  1  4  1  0  0  0  0
  1 22  1  0  0  0  0
  2  1  1  0  0  0  0
  3  1  1  0  0  0  0
  4  9  1  0  0  0  0
  5  6  1  0  0  0  0
  5  4  2  0  0  0  0
  6  7  2  0  0  0  0
  7  8  1  0  0  0  0
  8 12  1  0  0  0  0
  9  8  2  0  0  0  0
 10  5  1  0  0  0  0
 11  6  1  0  0  0  0
 12 15  1  1  0  0  0
 12 14  1  0  0  0  0
 12 13  1  0  0  0  0
 13 16  1  0  0  0  0
 14 18  1  6  0  0  0
 14 13  1  0  0  0  0
 14 19  1  0  0  0  0
 17 13  1  0  0  0  0
 20 21  1  0  0  0  0
 20 19  1  0  0  0  0
 21 19  1  0  0  0  0
 22 23  1  0  0  0  0
 22 24  1  0  0  0  0
 26 25  1  0  0  0  0
 27 22  1  0  0  0  0
 27 26  2  0  0  0  0
 28 27  1  0  0  0  0
 29 28  2  0  0  0  0
 29 30  1  0  0  0  0
 30 31  2  0  0  0  0
 31 26  1  0  0  0  0
 31 35  1  0  0  0  0
 32 28  1  0  0  0  0
 33 29  1  0  0  0  0
 34 30  1  0  0  0  0
 36 35  1  0  0  0  0
M  END
>  <minimizedAffinity>
-5.91638279

$$$$

 OpenBabel03242519183D

 36 39  0  0  1  0  0  0  0  0999 V2000
   36.8710   27.9100   36.9950 C   0  0  0  0  0  0  0  0  0  0  0  0
   37.8770   28.3380   37.1440 H   0  0  0  0  0  0  0  0  0  0  0  0
   36.8440   27.5760   35.9190 H   0  0  0  0  0  0  0  0  0  0  0  0
   36.6300   26.7660   37.8440 C   0  0  0  0  0  0  0  0  0  0  0  0
   35.8070   25.7310   37.4590 C   0  0  0  0  0  0  0  0  0  0  0  0
   35.5490   24.6190   38.2690 C   0  0  0  0  0  0  0  0  0  0  0  0
   36.1720   24.6250   39.4810 N   0  0  0  0  0  0  0  0  0  0  0  0
   36.9710   25.6390   39.8450 C   0  0  0  0  0  0  0  0  0  0  0  0
   37.1950   26.6870   39.0430 N   0  0  0  0  0  0  0  0  0  0  0  0
   35.3050   25.7110   36.4980 H   0  0  0  0  0  0  0  0  0  0  0  0
   34.9080   23.8290   37.9480 H   0  0  0  0  0  0  0  0  0  0  0  0
   37.6350   25.6620   41.1890 C   0  0  2  0  0  0  0  0  0  0  0  0
   37.0210   24.8720   42.3020 C   0  0  0  0  0  0  0  0  0  0  0  0
   36.9270   26.4050   42.2680 C   0  0  1  0  0  0  0  0  0  0  0  0
   38.7360   25.7510   41.1530 H   0  0  0  0  0  0  0  0  0  0  0  0
   37.6650   24.3920   43.0560 H   0  0  0  0  0  0  0  0  0  0  0  0
   36.0770   24.2980   42.1200 H   0  0  0  0  0  0  0  0  0  0  0  0
   35.9200   26.8180   42.0770 H   0  0  0  0  0  0  0  0  0  0  0  0
   37.7890   27.2000   43.2010 C   0  0  0  0  0  3  0  0  0  0  0  0
   38.3800   28.4760   42.7240 C   0  0  0  0  0  2  0  0  0  0  0  0
   37.3640   28.4420   43.8510 C   0  0  0  0  0  2  0  0  0  0  0  0
   35.8470   28.9680   37.2530 C   0  0  0  0  0  0  0  0  0  0  0  0
   35.5880   29.4590   36.2980 H   0  0  0  0  0  0  0  0  0  0  0  0
   34.9170   28.5360   37.6500 H   0  0  0  0  0  0  0  0  0  0  0  0
   34.6450   28.9530   39.9830 Cl  0  0  0  0  0  0  0  0  0  0  0  0
   35.8410   30.1070   39.4910 C   0  0  0  0  0  0  0  0  0  0  0  0
   36.3250   30.0170   38.2070 C   0  0  0  0  0  0  0  0  0  0  0  0
   37.2790   30.9330   37.8090 C   0  0  0  0  0  0  0  0  0  0  0  0
   37.7310   31.9080   38.6750 C   0  0  0  0  0  0  0  0  0  0  0  0
   37.2330   31.9900   39.9740 C   0  0  0  0  0  0  0  0  0  0  0  0
   36.2760   31.0670   40.3660 C   0  0  0  0  0  0  0  0  0  0  0  0
   37.7140   30.9330   36.8140 H   0  0  0  0  0  0  0  0  0  0  0  0
   38.4710   32.6410   38.4100 H   0  0  0  0  0  0  0  0  0  0  0  0
   37.5760   32.7480   40.6660 H   0  0  0  0  0  0  0  0  0  0  0  0
   35.7200   31.0720   41.6460 O   0  0  0  0  0  0  0  0  0  0  0  0
   36.3650   31.1450   42.4300 H   0  0  0  0  0  0  0  0  0  0  0  0
  1  2  1  0  0  0  0
  1 22  1  0  0  0  0
  1  4  1  0  0  0  0
  3  1  1  0  0  0  0
  4  9  1  0  0  0  0
  5  4  2  0  0  0  0
  5  6  1  0  0  0  0
  6  7  2  0  0  0  0
  7  8  1  0  0  0  0
  8 12  1  0  0  0  0
  9  8  2  0  0  0  0
 10  5  1  0  0  0  0
 11  6  1  0  0  0  0
 12 15  1  6  0  0  0
 12 14  1  0  0  0  0
 12 13  1  0  0  0  0
 13 16  1  0  0  0  0
 14 18  1  6  0  0  0
 14 13  1  0  0  0  0
 14 19  1  0  0  0  0
 17 13  1  0  0  0  0
 19 21  1  0  0  0  0
 20 19  1  0  0  0  0
 20 21  1  0  0  0  0
 22 24  1  0  0  0  0
 22 27  1  0  0  0  0
 23 22  1  0  0  0  0
 26 25  1  0  0  0  0
 26 31  1  0  0  0  0
 27 26  2  0  0  0  0
 28 27  1  0  0  0  0
 28 29  2  0  0  0  0
 29 30  1  0  0  0  0
 30 31  2  0  0  0  0
 30 34  1  0  0  0  0
 31 35  1  0  0  0  0
 32 28  1  0  0  0  0
 33 29  1  0  0  0  0
 35 36  1  0  0  0  0
M  END
>  <minimizedAffinity>
-5.86159611

$$$$

 OpenBabel03242519183D

 36 39  0  0  1  0  0  0  0  0999 V2000
   35.7130   29.3940   40.8560 C   0  0  0  0  0  0  0  0  0  0  0  0
   35.6190   28.9930   39.8320 H   0  0  0  0  0  0  0  0  0  0  0  0
   34.6710   29.3670   41.2850 H   0  0  0  0  0  0  0  0  0  0  0  0
   36.5790   28.5880   41.6850 C   0  0  0  0  0  0  0  0  0  0  0  0
   37.4750   29.1500   42.5680 C   0  0  0  0  0  0  0  0  0  0  0  0
   38.3320   28.3900   43.3730 C   0  0  0  0  0  0  0  0  0  0  0  0
   38.2230   27.0400   43.2250 N   0  0  0  0  0  0  0  0  0  0  0  0
   37.3470   26.5040   42.3610 C   0  0  0  0  0  0  0  0  0  0  0  0
   36.5420   27.2640   41.6080 N   0  0  0  0  0  0  0  0  0  0  0  0
   37.5730   30.2220   42.6970 H   0  0  0  0  0  0  0  0  0  0  0  0
   39.0170   28.8480   44.0490 H   0  0  0  0  0  0  0  0  0  0  0  0
   37.2460   25.0200   42.1770 C   0  0  2  0  0  0  0  0  0  0  0  0
   38.4910   24.1990   42.2930 C   0  0  0  0  0  0  0  0  0  0  0  0
   37.8360   24.4640   40.9280 C   0  0  1  0  0  0  0  0  0  0  0  0
   36.2920   24.5810   42.5240 H   0  0  0  0  0  0  0  0  0  0  0  0
   38.4440   23.1860   42.7220 H   0  0  0  0  0  0  0  0  0  0  0  0
   39.4710   24.7020   42.4950 H   0  0  0  0  0  0  0  0  0  0  0  0
   38.4000   25.1270   40.2470 H   0  0  0  0  0  0  0  0  0  0  0  0
   37.0720   23.3550   40.2700 C   0  0  0  0  0  3  0  0  0  0  0  0
   35.6430   23.5710   39.9270 C   0  0  0  0  0  2  0  0  0  0  0  0
   36.6940   23.3480   38.8550 C   0  0  0  0  0  2  0  0  0  0  0  0
   36.2250   30.7970   40.7870 C   0  0  0  0  0  0  0  0  0  0  0  0
   35.3700   31.4950   40.8300 H   0  0  0  0  0  0  0  0  0  0  0  0
   36.8700   31.0300   41.6460 H   0  0  0  0  0  0  0  0  0  0  0  0
   38.5610   32.6380   41.0140 Cl  0  0  0  0  0  0  0  0  0  0  0  0
   38.0880   31.9040   39.5170 C   0  0  0  0  0  0  0  0  0  0  0  0
   36.9940   31.0710   39.5320 C   0  0  0  0  0  0  0  0  0  0  0  0
   36.6120   30.4830   38.3430 C   0  0  0  0  0  0  0  0  0  0  0  0
   37.3080   30.7250   37.1750 C   0  0  0  0  0  0  0  0  0  0  0  0
   38.4150   31.5710   37.1720 C   0  0  0  0  0  0  0  0  0  0  0  0
   38.7930   32.1580   38.3710 C   0  0  0  0  0  0  0  0  0  0  0  0
   35.7610   29.8120   38.2660 H   0  0  0  0  0  0  0  0  0  0  0  0
   37.0490   30.2900   36.2280 H   0  0  0  0  0  0  0  0  0  0  0  0
   38.9730   31.7720   36.2660 H   0  0  0  0  0  0  0  0  0  0  0  0
   39.8870   33.0190   38.4630 O   0  0  0  0  0  0  0  0  0  0  0  0
   40.7540   32.7150   38.0240 H   0  0  0  0  0  0  0  0  0  0  0  0
  1  3  1  0  0  0  0
  1  4  1  0  0  0  0
  2  1  1  0  0  0  0
  4  5  1  0  0  0  0
  5 10  1  0  0  0  0
  5  6  2  0  0  0  0
  6 11  1  0  0  0  0
  7  6  1  0  0  0  0
  8  7  2  0  0  0  0
  9  4  2  0  0  0  0
  9  8  1  0  0  0  0
 12 13  1  0  0  0  0
 12  8  1  0  0  0  0
 12 15  1  1  0  0  0
 13 17  1  0  0  0  0
 13 16  1  0  0  0  0
 14 18  1  6  0  0  0
 14 12  1  0  0  0  0
 14 13  1  0  0  0  0
 19 14  1  0  0  0  0
 20 19  1  0  0  0  0
 21 20  1  0  0  0  0
 21 19  1  0  0  0  0
 22 23  1  0  0  0  0
 22  1  1  0  0  0  0
 22 24  1  0  0  0  0
 26 27  1  0  0  0  0
 26 25  1  0  0  0  0
 27 22  1  0  0  0  0
 28 27  2  0  0  0  0
 29 28  1  0  0  0  0
 30 29  2  0  0  0  0
 30 31  1  0  0  0  0
 31 35  1  0  0  0  0
 31 26  2  0  0  0  0
 32 28  1  0  0  0  0
 33 29  1  0  0  0  0
 34 30  1  0  0  0  0
 36 35  1  0  0  0  0
M  END
>  <minimizedAffinity>
-5.68941402

$$$$

 OpenBabel03242519183D

 36 39  0  0  1  0  0  0  0  0999 V2000
   39.6550   29.6680   42.5800 C   0  0  0  0  0  0  0  0  0  0  0  0
   40.4510   29.1530   42.0170 H   0  0  0  0  0  0  0  0  0  0  0  0
   40.1890   30.3040   43.3420 H   0  0  0  0  0  0  0  0  0  0  0  0
   38.8520   30.5260   41.7380 C   0  0  0  0  0  0  0  0  0  0  0  0
   39.2400   31.8080   41.4210 C   0  0  0  0  0  0  0  0  0  0  0  0
   38.4740   32.6610   40.6170 C   0  0  0  0  0  0  0  0  0  0  0  0
   37.3020   32.1340   40.1630 N   0  0  0  0  0  0  0  0  0  0  0  0
   36.9340   30.8830   40.4800 C   0  0  0  0  0  0  0  0  0  0  0  0
   37.6940   30.0960   41.2520 N   0  0  0  0  0  0  0  0  0  0  0  0
   40.1700   32.2410   41.7730 H   0  0  0  0  0  0  0  0  0  0  0  0
   38.7960   33.6500   40.3840 H   0  0  0  0  0  0  0  0  0  0  0  0
   35.6320   30.3120   40.0050 C   0  0  2  0  0  0  0  0  0  0  0  0
   35.1660   29.0140   40.5860 C   0  0  0  0  0  0  0  0  0  0  0  0
   35.7120   29.0950   39.1520 C   0  0  1  0  0  0  0  0  0  0  0  0
   34.8730   31.0690   39.7350 H   0  0  0  0  0  0  0  0  0  0  0  0
   34.0910   28.8350   40.7410 H   0  0  0  0  0  0  0  0  0  0  0  0
   35.8000   28.4870   41.3450 H   0  0  0  0  0  0  0  0  0  0  0  0
   36.6900   28.6080   38.9840 H   0  0  0  0  0  0  0  0  0  0  0  0
   34.7450   29.0200   38.0100 C   0  0  0  0  0  3  0  0  0  0  0  0
   35.2720   29.0090   36.6210 C   0  0  0  0  0  2  0  0  0  0  0  0
   34.5250   27.8200   37.1990 C   0  0  0  0  0  2  0  0  0  0  0  0
   38.7900   28.6480   43.2490 C   0  0  0  0  0  0  0  0  0  0  0  0
   38.6690   28.9200   44.3130 H   0  0  0  0  0  0  0  0  0  0  0  0
   37.7830   28.6270   42.8090 H   0  0  0  0  0  0  0  0  0  0  0  0
   36.9420   26.4630   42.4070 Cl  0  0  0  0  0  0  0  0  0  0  0  0
   38.6060   26.1830   42.8040 C   0  0  0  0  0  0  0  0  0  0  0  0
   39.3640   27.2670   43.1790 C   0  0  0  0  0  0  0  0  0  0  0  0
   40.6910   27.0510   43.4950 C   0  0  0  0  0  0  0  0  0  0  0  0
   41.2370   25.7840   43.4370 C   0  0  0  0  0  0  0  0  0  0  0  0
   40.4590   24.6930   43.0560 C   0  0  0  0  0  0  0  0  0  0  0  0
   39.1280   24.9190   42.7390 C   0  0  0  0  0  0  0  0  0  0  0  0
   41.3600   27.8510   43.8010 H   0  0  0  0  0  0  0  0  0  0  0  0
   42.2630   25.5690   43.6740 H   0  0  0  0  0  0  0  0  0  0  0  0
   40.8710   23.6930   43.0050 H   0  0  0  0  0  0  0  0  0  0  0  0
   38.2730   23.8870   42.3480 O   0  0  0  0  0  0  0  0  0  0  0  0
   38.6180   23.2450   41.6370 H   0  0  0  0  0  0  0  0  0  0  0  0
  1 22  1  0  0  0  0
  1  3  1  0  0  0  0
  2  1  1  0  0  0  0
  4  1  1  0  0  0  0
  5  4  1  0  0  0  0
  5 10  1  0  0  0  0
  6  5  2  0  0  0  0
  7  8  2  0  0  0  0
  7  6  1  0  0  0  0
  8  9  1  0  0  0  0
  9  4  2  0  0  0  0
 11  6  1  0  0  0  0
 12 15  1  6  0  0  0
 12  8  1  0  0  0  0
 12 13  1  0  0  0  0
 13 16  1  0  0  0  0
 13 17  1  0  0  0  0
 14 18  1  6  0  0  0
 14 12  1  0  0  0  0
 14 13  1  0  0  0  0
 19 14  1  0  0  0  0
 20 21  1  0  0  0  0
 20 19  1  0  0  0  0
 21 19  1  0  0  0  0
 22 23  1  0  0  0  0
 24 22  1  0  0  0  0
 25 26  1  0  0  0  0
 26 27  1  0  0  0  0
 27 22  1  0  0  0  0
 27 28  2  0  0  0  0
 28 32  1  0  0  0  0
 29 28  1  0  0  0  0
 29 33  1  0  0  0  0
 30 29  2  0  0  0  0
 31 26  2  0  0  0  0
 31 30  1  0  0  0  0
 34 30  1  0  0  0  0
 35 31  1  0  0  0  0
 36 35  1  0  0  0  0
M  END
>  <minimizedAffinity>
-5.65600157

$$$$

 OpenBabel03242519183D

 36 39  0  0  1  0  0  0  0  0999 V2000
   36.4600   28.7590   41.7110 C   0  0  0  0  0  0  0  0  0  0  0  0
   36.8650   28.9810   42.7130 H   0  0  0  0  0  0  0  0  0  0  0  0
   35.3420   28.7090   41.8430 H   0  0  0  0  0  0  0  0  0  0  0  0
   36.7700   29.7950   40.7510 C   0  0  0  0  0  0  0  0  0  0  0  0
   36.3620   29.7180   39.4380 C   0  0  0  0  0  0  0  0  0  0  0  0
   36.6600   30.7030   38.4880 C   0  0  0  0  0  0  0  0  0  0  0  0
   37.3900   31.7560   38.9520 N   0  0  0  0  0  0  0  0  0  0  0  0
   37.7820   31.8190   40.2340 C   0  0  0  0  0  0  0  0  0  0  0  0
   37.4770   30.8570   41.1150 N   0  0  0  0  0  0  0  0  0  0  0  0
   35.7810   28.8880   39.0540 H   0  0  0  0  0  0  0  0  0  0  0  0
   36.3330   30.6220   37.4770 H   0  0  0  0  0  0  0  0  0  0  0  0
   38.6090   32.9630   40.7390 C   0  0  2  0  0  0  0  0  0  0  0  0
   38.3770   34.3220   40.1600 C   0  0  0  0  0  0  0  0  0  0  0  0
   39.6300   33.5080   39.8040 C   0  0  1  0  0  0  0  0  0  0  0  0
   38.8900   32.8870   41.8060 H   0  0  0  0  0  0  0  0  0  0  0  0
   38.4810   35.2160   40.7950 H   0  0  0  0  0  0  0  0  0  0  0  0
   37.6110   34.4590   39.3540 H   0  0  0  0  0  0  0  0  0  0  0  0
   39.6780   33.1320   38.7660 H   0  0  0  0  0  0  0  0  0  0  0  0
   40.9420   33.9040   40.4120 C   0  0  0  0  0  3  0  0  0  0  0  0
   41.8570   32.8420   40.9040 C   0  0  0  0  0  2  0  0  0  0  0  0
   42.2360   33.7450   39.7440 C   0  0  0  0  0  2  0  0  0  0  0  0
   37.0020   27.4460   41.2440 C   0  0  0  0  0  0  0  0  0  0  0  0
   36.1870   26.7010   41.2400 H   0  0  0  0  0  0  0  0  0  0  0  0
   37.3780   27.5120   40.2130 H   0  0  0  0  0  0  0  0  0  0  0  0
   37.2170   24.4850   41.5390 Cl  0  0  0  0  0  0  0  0  0  0  0  0
   38.2990   25.5870   42.3250 C   0  0  0  0  0  0  0  0  0  0  0  0
   38.1050   26.9320   42.1160 C   0  0  0  0  0  0  0  0  0  0  0  0
   38.9640   27.8150   42.7390 C   0  0  0  0  0  0  0  0  0  0  0  0
   39.9860   27.3600   43.5480 C   0  0  0  0  0  0  0  0  0  0  0  0
   40.1740   25.9940   43.7530 C   0  0  0  0  0  0  0  0  0  0  0  0
   39.3070   25.1140   43.1230 C   0  0  0  0  0  0  0  0  0  0  0  0
   38.8820   28.8930   42.6280 H   0  0  0  0  0  0  0  0  0  0  0  0
   40.6790   28.0080   44.0520 H   0  0  0  0  0  0  0  0  0  0  0  0
   40.9700   25.6190   44.3830 H   0  0  0  0  0  0  0  0  0  0  0  0
   39.4180   23.7300   43.2710 O   0  0  0  0  0  0  0  0  0  0  0  0
   40.3450   23.3260   43.1590 H   0  0  0  0  0  0  0  0  0  0  0  0
  1  3  1  0  0  0  0
  1  2  1  0  0  0  0
  4  9  1  0  0  0  0
  4  1  1  0  0  0  0
  5  4  2  0  0  0  0
  6  7  2  0  0  0  0
  6  5  1  0  0  0  0
  7  8  1  0  0  0  0
  8 12  1  0  0  0  0
  8  9  2  0  0  0  0
 10  5  1  0  0  0  0
 11  6  1  0  0  0  0
 12 15  1  1  0  0  0
 13 12  1  0  0  0  0
 13 16  1  0  0  0  0
 14 18  1  6  0  0  0
 14 13  1  0  0  0  0
 14 19  1  0  0  0  0
 14 12  1  0  0  0  0
 17 13  1  0  0  0  0
 19 20  1  0  0  0  0
 21 19  1  0  0  0  0
 21 20  1  0  0  0  0
 22  1  1  0  0  0  0
 22 27  1  0  0  0  0
 23 22  1  0  0  0  0
 24 22  1  0  0  0  0
 25 26  1  0  0  0  0
 26 31  1  0  0  0  0
 27 26  2  0  0  0  0
 27 28  1  0  0  0  0
 28 29  2  0  0  0  0
 29 30  1  0  0  0  0
 29 33  1  0  0  0  0
 30 34  1  0  0  0  0
 31 35  1  0  0  0  0
 31 30  2  0  0  0  0
 32 28  1  0  0  0  0
 36 35  1  0  0  0  0
M  END
>  <minimizedAffinity>
-5.64945602

$$$$

 OpenBabel03242519183D

 36 39  0  0  1  0  0  0  0  0999 V2000
   36.7670   30.1780   41.2320 C   0  0  0  0  0  0  0  0  0  0  0  0
   36.0160   30.3160   42.0280 H   0  0  0  0  0  0  0  0  0  0  0  0
   37.7590   30.1140   41.7630 H   0  0  0  0  0  0  0  0  0  0  0  0
   36.5590   28.9590   40.4840 C   0  0  0  0  0  0  0  0  0  0  0  0
   35.7670   28.9200   39.3580 C   0  0  0  0  0  0  0  0  0  0  0  0
   35.5420   27.7490   38.6240 C   0  0  0  0  0  0  0  0  0  0  0  0
   36.1640   26.6350   39.1020 N   0  0  0  0  0  0  0  0  0  0  0  0
   36.9320   26.6860   40.2000 C   0  0  0  0  0  0  0  0  0  0  0  0
   37.1260   27.8250   40.8760 N   0  0  0  0  0  0  0  0  0  0  0  0
   35.2670   29.7980   38.9650 H   0  0  0  0  0  0  0  0  0  0  0  0
   34.9250   27.7440   37.7540 H   0  0  0  0  0  0  0  0  0  0  0  0
   37.5950   25.4550   40.7430 C   0  0  2  0  0  0  0  0  0  0  0  0
   36.7530   24.4500   41.4640 C   0  0  0  0  0  0  0  0  0  0  0  0
   37.7230   25.3690   42.2240 C   0  0  1  0  0  0  0  0  0  0  0  0
   38.4470   25.0920   40.1410 H   0  0  0  0  0  0  0  0  0  0  0  0
   36.9860   23.3770   41.3810 H   0  0  0  0  0  0  0  0  0  0  0  0
   35.6570   24.6390   41.6010 H   0  0  0  0  0  0  0  0  0  0  0  0
   37.2520   26.1400   42.8600 H   0  0  0  0  0  0  0  0  0  0  0  0
   39.0020   24.7890   42.7460 C   0  0  0  0  0  3  0  0  0  0  0  0
   40.2820   25.1710   42.0980 C   0  0  0  0  0  2  0  0  0  0  0  0
   39.9780   25.5390   43.5390 C   0  0  0  0  0  2  0  0  0  0  0  0
   36.7290   31.3580   40.3150 C   0  0  0  0  0  0  0  0  0  0  0  0
   36.1830   31.0820   39.3950 H   0  0  0  0  0  0  0  0  0  0  0  0
   36.1830   32.1990   40.7670 H   0  0  0  0  0  0  0  0  0  0  0  0
   37.3620   31.4080   37.4000 Cl  0  0  0  0  0  0  0  0  0  0  0  0
   38.4960   31.9010   38.6150 C   0  0  0  0  0  0  0  0  0  0  0  0
   38.0940   31.8360   39.9270 C   0  0  0  0  0  0  0  0  0  0  0  0
   38.9920   32.2270   40.9000 C   0  0  0  0  0  0  0  0  0  0  0  0
   40.2560   32.6700   40.5620 C   0  0  0  0  0  0  0  0  0  0  0  0
   40.6530   32.7310   39.2280 C   0  0  0  0  0  0  0  0  0  0  0  0
   39.7440   32.3360   38.2570 C   0  0  0  0  0  0  0  0  0  0  0  0
   38.7560   32.2080   41.9610 H   0  0  0  0  0  0  0  0  0  0  0  0
   40.9870   32.9840   41.2830 H   0  0  0  0  0  0  0  0  0  0  0  0
   41.6390   33.0750   38.9450 H   0  0  0  0  0  0  0  0  0  0  0  0
   40.0540   32.3630   36.8970 O   0  0  0  0  0  0  0  0  0  0  0  0
   40.4850   33.2120   36.5370 H   0  0  0  0  0  0  0  0  0  0  0  0
  1  3  1  0  0  0  0
  1  2  1  0  0  0  0
  4  9  1  0  0  0  0
  4  1  1  0  0  0  0
  5  4  2  0  0  0  0
  6  7  2  0  0  0  0
  6  5  1  0  0  0  0
  7  8  1  0  0  0  0
  8 12  1  0  0  0  0
  8  9  2  0  0  0  0
 10  5  1  0  0  0  0
 11  6  1  0  0  0  0
 12 15  1  6  0  0  0
 12 13  1  0  0  0  0
 12 14  1  0  0  0  0
 13 17  1  0  0  0  0
 13 14  1  0  0  0  0
 14 19  1  0  0  0  0
 14 18  1  1  0  0  0
 16 13  1  0  0  0  0
 19 21  1  0  0  0  0
 20 19  1  0  0  0  0
 20 21  1  0  0  0  0
 22 24  1  0  0  0  0
 22  1  1  0  0  0  0
 23 22  1  0  0  0  0
 25 26  1  0  0  0  0
 26 27  1  0  0  0  0
 27 22  1  0  0  0  0
 27 28  2  0  0  0  0
 28 32  1  0  0  0  0
 29 28  1  0  0  0  0
 29 33  1  0  0  0  0
 30 29  2  0  0  0  0
 31 26  2  0  0  0  0
 31 30  1  0  0  0  0
 34 30  1  0  0  0  0
 35 31  1  0  0  0  0
 36 35  1  0  0  0  0
M  END
>  <minimizedAffinity>
-5.53754091

$$$$

 OpenBabel03242519183D

 36 39  0  0  1  0  0  0  0  0999 V2000
   38.4850   29.6570   38.2280 C   0  0  0  0  0  0  0  0  0  0  0  0
   39.4820   29.3630   38.5980 H   0  0  0  0  0  0  0  0  0  0  0  0
   38.3290   29.0620   37.2840 H   0  0  0  0  0  0  0  0  0  0  0  0
   37.4330   29.3300   39.1640 C   0  0  0  0  0  0  0  0  0  0  0  0
   36.1130   29.6270   38.9100 C   0  0  0  0  0  0  0  0  0  0  0  0
   35.0780   29.3310   39.8070 C   0  0  0  0  0  0  0  0  0  0  0  0
   35.4670   28.7230   40.9620 N   0  0  0  0  0  0  0  0  0  0  0  0
   36.7570   28.4390   41.1980 C   0  0  0  0  0  0  0  0  0  0  0  0
   37.7190   28.7370   40.3160 N   0  0  0  0  0  0  0  0  0  0  0  0
   35.7880   30.1100   37.9950 H   0  0  0  0  0  0  0  0  0  0  0  0
   34.0630   29.5710   39.5870 H   0  0  0  0  0  0  0  0  0  0  0  0
   37.1890   27.7960   42.4810 C   0  0  2  0  0  0  0  0  0  0  0  0
   37.4760   28.6720   43.6590 C   0  0  0  0  0  0  0  0  0  0  0  0
   38.6110   27.9930   42.8760 C   0  0  1  0  0  0  0  0  0  0  0  0
   36.7480   26.7980   42.6630 H   0  0  0  0  0  0  0  0  0  0  0  0
   37.2420   28.3210   44.6760 H   0  0  0  0  0  0  0  0  0  0  0  0
   37.3820   29.7840   43.5590 H   0  0  0  0  0  0  0  0  0  0  0  0
   39.2550   28.6680   42.2840 H   0  0  0  0  0  0  0  0  0  0  0  0
   39.2990   26.8100   43.4890 C   0  0  0  0  0  3  0  0  0  0  0  0
   39.2730   25.5110   42.7710 C   0  0  0  0  0  2  0  0  0  0  0  0
   40.5700   26.2630   43.0090 C   0  0  0  0  0  2  0  0  0  0  0  0
   38.4830   31.1240   37.9420 C   0  0  0  0  0  0  0  0  0  0  0  0
   38.8850   31.2940   36.9270 H   0  0  0  0  0  0  0  0  0  0  0  0
   37.4610   31.5310   37.9500 H   0  0  0  0  0  0  0  0  0  0  0  0
   37.0550   33.1500   39.6030 Cl  0  0  0  0  0  0  0  0  0  0  0  0
   38.7610   32.8650   39.7300 C   0  0  0  0  0  0  0  0  0  0  0  0
   39.3100   31.9050   38.9140 C   0  0  0  0  0  0  0  0  0  0  0  0
   40.6680   31.6730   39.0110 C   0  0  0  0  0  0  0  0  0  0  0  0
   41.4480   32.3840   39.9010 C   0  0  0  0  0  0  0  0  0  0  0  0
   40.8800   33.3550   40.7230 C   0  0  0  0  0  0  0  0  0  0  0  0
   39.5160   33.5820   40.6200 C   0  0  0  0  0  0  0  0  0  0  0  0
   41.1830   30.9330   38.4050 H   0  0  0  0  0  0  0  0  0  0  0  0
   42.5060   32.2380   40.0120 H   0  0  0  0  0  0  0  0  0  0  0  0
   41.4760   33.9220   41.4270 H   0  0  0  0  0  0  0  0  0  0  0  0
   38.8610   34.5350   41.4020 O   0  0  0  0  0  0  0  0  0  0  0  0
   39.0610   34.5310   42.4000 H   0  0  0  0  0  0  0  0  0  0  0  0
  1  2  1  0  0  0  0
  1  4  1  0  0  0  0
  3  1  1  0  0  0  0
  4  9  1  0  0  0  0
  5  4  2  0  0  0  0
  5  6  1  0  0  0  0
  6  7  2  0  0  0  0
  7  8  1  0  0  0  0
  8 12  1  0  0  0  0
  9  8  2  0  0  0  0
 10  5  1  0  0  0  0
 11  6  1  0  0  0  0
 12 15  1  1  0  0  0
 12 14  1  0  0  0  0
 12 13  1  0  0  0  0
 13 16  1  0  0  0  0
 14 18  1  6  0  0  0
 14 19  1  0  0  0  0
 14 13  1  0  0  0  0
 17 13  1  0  0  0  0
 20 21  1  0  0  0  0
 20 19  1  0  0  0  0
 21 19  1  0  0  0  0
 22 24  1  0  0  0  0
 22  1  1  0  0  0  0
 22 27  1  0  0  0  0
 23 22  1  0  0  0  0
 25 26  1  0  0  0  0
 26 31  1  0  0  0  0
 27 28  1  0  0  0  0
 27 26  2  0  0  0  0
 28 29  2  0  0  0  0
 29 33  1  0  0  0  0
 29 30  1  0  0  0  0
 30 34  1  0  0  0  0
 31 30  2  0  0  0  0
 31 35  1  0  0  0  0
 32 28  1  0  0  0  0
 35 36  1  0  0  0  0
M  END
>  <minimizedAffinity>
-5.53010607

$$$$

 OpenBabel03242519183D

 36 39  0  0  1  0  0  0  0  0999 V2000
   39.8520   30.8450   37.8180 C   0  0  0  0  0  0  0  0  0  0  0  0
   40.4670   31.3050   37.0260 H   0  0  0  0  0  0  0  0  0  0  0  0
   39.9300   29.7330   37.6500 H   0  0  0  0  0  0  0  0  0  0  0  0
   40.3420   31.1520   39.1430 C   0  0  0  0  0  0  0  0  0  0  0  0
   40.9610   32.3470   39.4330 C   0  0  0  0  0  0  0  0  0  0  0  0
   41.4530   32.6620   40.7060 C   0  0  0  0  0  0  0  0  0  0  0  0
   41.2800   31.6970   41.6510 N   0  0  0  0  0  0  0  0  0  0  0  0
   40.6760   30.5360   41.3560 C   0  0  0  0  0  0  0  0  0  0  0  0
   40.2160   30.2700   40.1260 N   0  0  0  0  0  0  0  0  0  0  0  0
   41.1050   33.1250   38.6920 H   0  0  0  0  0  0  0  0  0  0  0  0
   41.9290   33.5950   40.9060 H   0  0  0  0  0  0  0  0  0  0  0  0
   40.5090   29.4610   42.3880 C   0  0  2  0  0  0  0  0  0  0  0  0
   41.0830   28.1080   42.1090 C   0  0  0  0  0  0  0  0  0  0  0  0
   39.5680   28.3580   42.0520 C   0  0  1  0  0  0  0  0  0  0  0  0
   40.5070   29.8270   43.4310 H   0  0  0  0  0  0  0  0  0  0  0  0
   41.4960   27.5050   42.9330 H   0  0  0  0  0  0  0  0  0  0  0  0
   41.6060   27.9160   41.1370 H   0  0  0  0  0  0  0  0  0  0  0  0
   39.1130   28.3140   41.0460 H   0  0  0  0  0  0  0  0  0  0  0  0
   38.7130   27.8510   43.1740 C   0  0  0  0  0  3  0  0  0  0  0  0
   37.5510   28.6640   43.6160 C   0  0  0  0  0  2  0  0  0  0  0  0
   37.3720   27.2910   42.9930 C   0  0  0  0  0  2  0  0  0  0  0  0
   38.4390   31.3090   37.6710 C   0  0  0  0  0  0  0  0  0  0  0  0
   38.3790   32.3760   37.9490 H   0  0  0  0  0  0  0  0  0  0  0  0
   38.0990   31.2330   36.6280 H   0  0  0  0  0  0  0  0  0  0  0  0
   37.3440   32.7280   40.0560 Cl  0  0  0  0  0  0  0  0  0  0  0  0
   36.9180   31.0950   39.6590 C   0  0  0  0  0  0  0  0  0  0  0  0
   37.4850   30.5440   38.5340 C   0  0  0  0  0  0  0  0  0  0  0  0
   37.1490   29.2430   38.2120 C   0  0  0  0  0  0  0  0  0  0  0  0
   36.2720   28.5210   38.9960 C   0  0  0  0  0  0  0  0  0  0  0  0
   35.7050   29.0910   40.1340 C   0  0  0  0  0  0  0  0  0  0  0  0
   36.0460   30.3970   40.4510 C   0  0  0  0  0  0  0  0  0  0  0  0
   37.5500   28.7320   37.3410 H   0  0  0  0  0  0  0  0  0  0  0  0
   35.9820   27.5090   38.7850 H   0  0  0  0  0  0  0  0  0  0  0  0
   35.0150   28.5400   40.7610 H   0  0  0  0  0  0  0  0  0  0  0  0
   35.5280   31.0490   41.5710 O   0  0  0  0  0  0  0  0  0  0  0  0
   34.5230   30.9870   41.7180 H   0  0  0  0  0  0  0  0  0  0  0  0
  1  4  1  0  0  0  0
  2  1  1  0  0  0  0
  3  1  1  0  0  0  0
  4  5  2  0  0  0  0
  4  9  1  0  0  0  0
  5  6  1  0  0  0  0
  6 11  1  0  0  0  0
  6  7  2  0  0  0  0
  8  7  1  0  0  0  0
  8 12  1  0  0  0  0
  9  8  2  0  0  0  0
 10  5  1  0  0  0  0
 12 15  1  1  0  0  0
 13 12  1  0  0  0  0
 13 16  1  0  0  0  0
 14 18  1  6  0  0  0
 14 13  1  0  0  0  0
 14 12  1  0  0  0  0
 14 19  1  0  0  0  0
 17 13  1  0  0  0  0
 19 20  1  0  0  0  0
 21 19  1  0  0  0  0
 21 20  1  0  0  0  0
 22  1  1  0  0  0  0
 22 23  1  0  0  0  0
 22 27  1  0  0  0  0
 24 22  1  0  0  0  0
 26 25  1  0  0  0  0
 26 31  1  0  0  0  0
 27 26  2  0  0  0  0
 28 27  1  0  0  0  0
 28 29  2  0  0  0  0
 29 30  1  0  0  0  0
 30 31  2  0  0  0  0
 30 34  1  0  0  0  0
 31 35  1  0  0  0  0
 32 28  1  0  0  0  0
 33 29  1  0  0  0  0
 35 36  1  0  0  0  0
M  END
>  <minimizedAffinity>
-5.39143705

$$$$
