
 OpenBabel03252506223D

 29 31  0  0  0  0  0  0  0  0999 V2000
   39.0470   32.5420   40.5360 C   0  0  0  0  0  0  0  0  0  0  0  0
   38.2640   33.6980   40.4230 C   0  0  0  0  0  0  0  0  0  0  0  0
   38.9350   34.9070   40.1800 C   0  0  0  0  0  0  0  0  0  0  0  0
   40.2880   34.9040   40.0680 N   0  0  0  0  0  0  0  0  0  0  0  0
   41.0030   33.7500   40.1870 C   0  0  0  0  0  0  0  0  0  0  0  0
   40.3830   32.5740   40.4200 N   0  0  0  0  0  0  0  0  0  0  0  0
   37.1960   33.6880   40.5120 H   0  0  0  0  0  0  0  0  0  0  0  0
   38.3970   35.8400   40.0800 H   0  0  0  0  0  0  0  0  0  0  0  0
   42.0400   33.2900   37.3760 Cl  0  0  0  0  0  0  0  0  0  0  0  0
   43.0030   33.6450   38.7790 C   0  0  0  0  0  0  0  0  0  0  0  0
   42.4610   33.8470   40.0510 C   0  0  0  0  0  0  0  0  0  0  0  0
   43.2090   34.1260   41.1510 C   0  0  0  0  0  0  0  0  0  0  0  0
   44.5670   34.2080   40.9810 C   0  0  0  0  0  0  0  0  0  0  0  0
   45.2140   34.0280   39.7790 C   0  0  0  0  0  0  0  0  0  0  0  0
   44.3720   33.7450   38.6970 C   0  0  0  0  0  0  0  0  0  0  0  0
   42.8190   34.2850   42.1370 H   0  0  0  0  0  0  0  0  0  0  0  0
   45.2310   34.4290   41.8200 H   0  0  0  0  0  0  0  0  0  0  0  0
   46.2600   34.0820   39.5940 H   0  0  0  0  0  0  0  0  0  0  0  0
   44.8100   33.5920   37.7200 H   0  0  0  0  0  0  0  0  0  0  0  0
   38.3770   31.2530   40.7900 C   0  0  0  0  0  3  0  0  0  0  0  0
   37.0630   31.2580   40.9520 C   0  0  0  0  0  3  0  0  0  0  0  0
   36.4010   29.9400   41.2080 C   0  0  0  0  0  0  0  0  0  0  0  0
   36.9430   29.2210   40.5510 H   0  0  0  0  0  0  0  0  0  0  0  0
   35.3190   29.9810   41.0280 H   0  0  0  0  0  0  0  0  0  0  0  0
   36.7290   29.5720   42.5780 N   0  0  0  0  0  0  0  0  0  0  0  0
   35.9150   29.7610   43.2050 H   0  0  0  0  0  0  0  0  0  0  0  0
   36.9890   28.1420   42.5920 C   0  0  0  0  0  3  0  0  0  0  0  0
   38.0110   27.5970   43.5650 C   0  0  0  0  0  2  0  0  0  0  0  0
   36.5510   27.3750   43.7900 C   0  0  0  0  0  2  0  0  0  0  0  0
  1 20  1  0  0  0  0
  2  7  1  0  0  0  0
  2  1  1  0  0  0  0
  3  2  2  0  0  0  0
  4  3  1  0  0  0  0
  4  5  2  0  0  0  0
  5  6  1  0  0  0  0
  6  1  2  0  0  0  0
  8  3  1  0  0  0  0
  9 10  1  0  0  0  0
 10 11  1  0  0  0  0
 11  5  1  0  0  0  0
 11 12  2  0  0  0  0
 12 16  1  0  0  0  0
 13 12  1  0  0  0  0
 13 17  1  0  0  0  0
 14 13  2  0  0  0  0
 15 10  2  0  0  0  0
 15 14  1  0  0  0  0
 18 14  1  0  0  0  0
 19 15  1  0  0  0  0
 20 21  2  0  0  0  0
 21 22  1  0  0  0  0
 22 25  1  0  0  0  0
 23 22  1  0  0  0  0
 24 22  1  0  0  0  0
 25 27  1  0  0  0  0
 25 26  1  0  0  0  0
 27 28  1  0  0  0  0
 27 29  1  0  0  0  0
 28 29  1  0  0  0  0
M  END
>  <minimizedAffinity>
-5.2270689

$$$$

 OpenBabel03252506223D

 29 31  0  0  0  0  0  0  0  0999 V2000
   37.3670   30.5260   40.9980 C   0  0  0  0  0  0  0  0  0  0  0  0
   36.0370   30.2170   40.6840 C   0  0  0  0  0  0  0  0  0  0  0  0
   35.6170   28.8940   40.8980 C   0  0  0  0  0  0  0  0  0  0  0  0
   36.5020   27.9890   41.3890 N   0  0  0  0  0  0  0  0  0  0  0  0
   37.7860   28.3420   41.6770 C   0  0  0  0  0  0  0  0  0  0  0  0
   38.2150   29.6070   41.4820 N   0  0  0  0  0  0  0  0  0  0  0  0
   35.3470   30.9400   40.2980 H   0  0  0  0  0  0  0  0  0  0  0  0
   34.6050   28.5810   40.6800 H   0  0  0  0  0  0  0  0  0  0  0  0
   38.7630   26.3590   39.6030 Cl  0  0  0  0  0  0  0  0  0  0  0  0
   39.1540   26.3470   41.2970 C   0  0  0  0  0  0  0  0  0  0  0  0
   38.6680   27.2940   42.2030 C   0  0  0  0  0  0  0  0  0  0  0  0
   38.9710   27.2900   43.5280 C   0  0  0  0  0  0  0  0  0  0  0  0
   39.7990   26.2940   43.9790 C   0  0  0  0  0  0  0  0  0  0  0  0
   40.3360   25.3080   43.1820 C   0  0  0  0  0  0  0  0  0  0  0  0
   39.9760   25.3840   41.8320 C   0  0  0  0  0  0  0  0  0  0  0  0
   38.6130   28.0040   44.2440 H   0  0  0  0  0  0  0  0  0  0  0  0
   40.0850   26.2280   45.0310 H   0  0  0  0  0  0  0  0  0  0  0  0
   40.9810   24.5160   43.4810 H   0  0  0  0  0  0  0  0  0  0  0  0
   40.3610   24.6420   41.1460 H   0  0  0  0  0  0  0  0  0  0  0  0
   37.8430   31.9060   40.7870 C   0  0  0  0  0  3  0  0  0  0  0  0
   37.2210   32.6450   39.8820 C   0  0  0  0  0  3  0  0  0  0  0  0
   37.7190   34.0430   39.6840 C   0  0  0  0  0  0  0  0  0  0  0  0
   36.8310   34.6890   39.8780 H   0  0  0  0  0  0  0  0  0  0  0  0
   38.1640   34.1850   38.6900 H   0  0  0  0  0  0  0  0  0  0  0  0
   38.6600   34.3040   40.7630 N   0  0  0  0  0  0  0  0  0  0  0  0
   38.9470   33.4060   41.2140 H   0  0  0  0  0  0  0  0  0  0  0  0
   39.8410   34.9110   40.1710 C   0  0  0  0  0  3  0  0  0  0  0  0
   41.2050   34.4330   40.6160 C   0  0  0  0  0  2  0  0  0  0  0  0
   40.6710   34.0650   39.2710 C   0  0  0  0  0  2  0  0  0  0  0  0
  1  6  1  0  0  0  0
  2  3  1  0  0  0  0
  2  1  2  0  0  0  0
  3  4  2  0  0  0  0
  4  5  1  0  0  0  0
  5 11  1  0  0  0  0
  6  5  2  0  0  0  0
  7  2  1  0  0  0  0
  8  3  1  0  0  0  0
  9 10  1  0  0  0  0
 10 15  2  0  0  0  0
 10 11  1  0  0  0  0
 11 12  2  0  0  0  0
 12 13  1  0  0  0  0
 12 16  1  0  0  0  0
 13 17  1  0  0  0  0
 14 18  1  0  0  0  0
 14 13  2  0  0  0  0
 15 14  1  0  0  0  0
 19 15  1  0  0  0  0
 20  1  1  0  0  0  0
 21 20  2  0  0  0  0
 22 23  1  0  0  0  0
 22 21  1  0  0  0  0
 22 25  1  0  0  0  0
 24 22  1  0  0  0  0
 25 26  1  0  0  0  0
 27 28  1  0  0  0  0
 27 25  1  0  0  0  0
 29 27  1  0  0  0  0
 29 28  1  0  0  0  0
M  END
>  <minimizedAffinity>
-5.19024515

$$$$

 OpenBabel03252506223D

 29 31  0  0  0  0  0  0  0  0999 V2000
   34.1410   28.1740   37.7340 C   0  0  0  0  0  0  0  0  0  0  0  0
   33.9390   26.9380   37.1060 C   0  0  0  0  0  0  0  0  0  0  0  0
   32.9100   26.8630   36.1530 C   0  0  0  0  0  0  0  0  0  0  0  0
   32.1690   27.9690   35.8870 N   0  0  0  0  0  0  0  0  0  0  0  0
   32.4080   29.1480   36.5280 C   0  0  0  0  0  0  0  0  0  0  0  0
   33.3910   29.2480   37.4480 N   0  0  0  0  0  0  0  0  0  0  0  0
   34.5290   26.0710   37.3230 H   0  0  0  0  0  0  0  0  0  0  0  0
   32.6950   25.9420   35.6270 H   0  0  0  0  0  0  0  0  0  0  0  0
   30.5010   30.0220   38.7160 Cl  0  0  0  0  0  0  0  0  0  0  0  0
   30.6530   30.7410   37.1400 C   0  0  0  0  0  0  0  0  0  0  0  0
   31.5550   30.2890   36.1740 C   0  0  0  0  0  0  0  0  0  0  0  0
   31.6790   30.8480   34.9410 C   0  0  0  0  0  0  0  0  0  0  0  0
   30.8640   31.9120   34.6500 C   0  0  0  0  0  0  0  0  0  0  0  0
   29.9370   32.4430   35.5200 C   0  0  0  0  0  0  0  0  0  0  0  0
   29.8740   31.8110   36.7670 C   0  0  0  0  0  0  0  0  0  0  0  0
   32.3620   30.5210   34.1820 H   0  0  0  0  0  0  0  0  0  0  0  0
   30.9070   32.4100   33.6800 H   0  0  0  0  0  0  0  0  0  0  0  0
   29.2840   33.2640   35.3440 H   0  0  0  0  0  0  0  0  0  0  0  0
   29.1690   32.1750   37.5020 H   0  0  0  0  0  0  0  0  0  0  0  0
   35.2130   28.2910   38.7390 C   0  0  0  0  0  3  0  0  0  0  0  0
   35.2870   29.4110   39.4420 C   0  0  0  0  0  3  0  0  0  0  0  0
   36.3820   29.5090   40.4580 C   0  0  0  0  0  0  0  0  0  0  0  0
   36.4230   30.5900   40.7240 H   0  0  0  0  0  0  0  0  0  0  0  0
   37.3310   29.1060   40.0800 H   0  0  0  0  0  0  0  0  0  0  0  0
   35.9090   28.8110   41.6440 N   0  0  0  0  0  0  0  0  0  0  0  0
   35.2340   28.0600   41.3740 H   0  0  0  0  0  0  0  0  0  0  0  0
   37.0630   28.1800   42.2650 C   0  0  0  0  0  3  0  0  0  0  0  0
   36.9500   27.7030   43.6960 C   0  0  0  0  0  2  0  0  0  0  0  0
   36.9720   26.7260   42.5660 C   0  0  0  0  0  2  0  0  0  0  0  0
  1 20  1  0  0  0  0
  2  7  1  0  0  0  0
  2  1  2  0  0  0  0
  3  2  1  0  0  0  0
  4  3  2  0  0  0  0
  4  5  1  0  0  0  0
  5  6  2  0  0  0  0
  6  1  1  0  0  0  0
  8  3  1  0  0  0  0
 10  9  1  0  0  0  0
 11  5  1  0  0  0  0
 11 10  2  0  0  0  0
 12 11  1  0  0  0  0
 13 12  2  0  0  0  0
 13 14  1  0  0  0  0
 14 15  2  0  0  0  0
 15 10  1  0  0  0  0
 15 19  1  0  0  0  0
 16 12  1  0  0  0  0
 17 13  1  0  0  0  0
 18 14  1  0  0  0  0
 20 21  2  0  0  0  0
 21 22  1  0  0  0  0
 22 23  1  0  0  0  0
 22 25  1  0  0  0  0
 24 22  1  0  0  0  0
 25 27  1  0  0  0  0
 26 25  1  0  0  0  0
 27 29  1  0  0  0  0
 27 28  1  0  0  0  0
 29 28  1  0  0  0  0
M  END
>  <minimizedAffinity>
-5.18674994

$$$$

 OpenBabel03252506223D

 29 31  0  0  0  0  0  0  0  0999 V2000
   37.6130   28.8670   41.5340 C   0  0  0  0  0  0  0  0  0  0  0  0
   37.3580   29.0260   42.9030 C   0  0  0  0  0  0  0  0  0  0  0  0
   37.1590   27.8590   43.6580 C   0  0  0  0  0  0  0  0  0  0  0  0
   37.2210   26.6500   43.0410 N   0  0  0  0  0  0  0  0  0  0  0  0
   37.4730   26.5530   41.7050 C   0  0  0  0  0  0  0  0  0  0  0  0
   37.6680   27.6590   40.9560 N   0  0  0  0  0  0  0  0  0  0  0  0
   37.3110   29.9840   43.3790 H   0  0  0  0  0  0  0  0  0  0  0  0
   36.9580   27.9020   44.7200 H   0  0  0  0  0  0  0  0  0  0  0  0
   40.1510   25.1600   41.9790 Cl  0  0  0  0  0  0  0  0  0  0  0  0
   38.7280   24.5070   41.2220 C   0  0  0  0  0  0  0  0  0  0  0  0
   37.5200   25.2040   41.1290 C   0  0  0  0  0  0  0  0  0  0  0  0
   36.4050   24.6990   40.5390 C   0  0  0  0  0  0  0  0  0  0  0  0
   36.4920   23.4350   40.0130 C   0  0  0  0  0  0  0  0  0  0  0  0
   37.6250   22.6550   40.0450 C   0  0  0  0  0  0  0  0  0  0  0  0
   38.7290   23.2480   40.6700 C   0  0  0  0  0  0  0  0  0  0  0  0
   35.4670   25.2110   40.4540 H   0  0  0  0  0  0  0  0  0  0  0  0
   35.6360   22.9650   39.5240 H   0  0  0  0  0  0  0  0  0  0  0  0
   37.7450   21.6730   39.6540 H   0  0  0  0  0  0  0  0  0  0  0  0
   39.6550   22.6930   40.7320 H   0  0  0  0  0  0  0  0  0  0  0  0
   37.8280   30.0710   40.7090 C   0  0  0  0  0  3  0  0  0  0  0  0
   36.7620   30.7420   40.3010 C   0  0  0  0  0  3  0  0  0  0  0  0
   37.0020   31.9610   39.4660 C   0  0  0  0  0  0  0  0  0  0  0  0
   36.0400   32.1260   38.9260 H   0  0  0  0  0  0  0  0  0  0  0  0
   37.8700   31.8420   38.8040 H   0  0  0  0  0  0  0  0  0  0  0  0
   37.1490   33.0740   40.3910 N   0  0  0  0  0  0  0  0  0  0  0  0
   37.5640   32.7410   41.2910 H   0  0  0  0  0  0  0  0  0  0  0  0
   38.0760   34.0190   39.7900 C   0  0  0  0  0  3  0  0  0  0  0  0
   38.9100   34.8980   40.6950 C   0  0  0  0  0  2  0  0  0  0  0  0
   39.5310   33.7570   39.9580 C   0  0  0  0  0  2  0  0  0  0  0  0
  1  2  1  0  0  0  0
  2  7  1  0  0  0  0
  2  3  2  0  0  0  0
  3  8  1  0  0  0  0
  4  3  1  0  0  0  0
  5  4  2  0  0  0  0
  6  1  2  0  0  0  0
  6  5  1  0  0  0  0
 10  9  1  0  0  0  0
 11 10  1  0  0  0  0
 11  5  1  0  0  0  0
 12 11  2  0  0  0  0
 13 14  2  0  0  0  0
 13 12  1  0  0  0  0
 14 15  1  0  0  0  0
 15 19  1  0  0  0  0
 15 10  2  0  0  0  0
 16 12  1  0  0  0  0
 17 13  1  0  0  0  0
 18 14  1  0  0  0  0
 20  1  1  0  0  0  0
 21 20  2  0  0  0  0
 22 21  1  0  0  0  0
 22 25  1  0  0  0  0
 23 22  1  0  0  0  0
 24 22  1  0  0  0  0
 25 26  1  0  0  0  0
 27 29  1  0  0  0  0
 27 25  1  0  0  0  0
 27 28  1  0  0  0  0
 29 28  1  0  0  0  0
M  END
>  <minimizedAffinity>
-5.16507483

$$$$

 OpenBabel03252506223D

 29 31  0  0  0  0  0  0  0  0999 V2000
   39.4930   31.9640   38.9080 C   0  0  0  0  0  0  0  0  0  0  0  0
   39.0050   31.5970   37.6470 C   0  0  0  0  0  0  0  0  0  0  0  0
   38.1300   30.5000   37.5920 C   0  0  0  0  0  0  0  0  0  0  0  0
   37.8020   29.8550   38.7410 N   0  0  0  0  0  0  0  0  0  0  0  0
   38.3060   30.2530   39.9430 C   0  0  0  0  0  0  0  0  0  0  0  0
   39.1490   31.3050   40.0240 N   0  0  0  0  0  0  0  0  0  0  0  0
   39.2700   32.1130   36.7470 H   0  0  0  0  0  0  0  0  0  0  0  0
   37.7120   30.1580   36.6550 H   0  0  0  0  0  0  0  0  0  0  0  0
   39.9060   30.8590   42.4450 Cl  0  0  0  0  0  0  0  0  0  0  0  0
   38.5920   29.7270   42.3160 C   0  0  0  0  0  0  0  0  0  0  0  0
   37.8940   29.4930   41.1290 C   0  0  0  0  0  0  0  0  0  0  0  0
   36.8660   28.6100   41.0220 C   0  0  0  0  0  0  0  0  0  0  0  0
   36.5120   27.9210   42.1540 C   0  0  0  0  0  0  0  0  0  0  0  0
   37.1260   28.0660   43.3770 C   0  0  0  0  0  0  0  0  0  0  0  0
   38.1740   28.9940   43.4020 C   0  0  0  0  0  0  0  0  0  0  0  0
   36.3140   28.4130   40.1240 H   0  0  0  0  0  0  0  0  0  0  0  0
   35.6960   27.1950   42.1430 H   0  0  0  0  0  0  0  0  0  0  0  0
   36.8910   27.5580   44.2820 H   0  0  0  0  0  0  0  0  0  0  0  0
   38.7020   29.1610   44.3300 H   0  0  0  0  0  0  0  0  0  0  0  0
   40.4140   33.1120   39.0040 C   0  0  0  0  0  3  0  0  0  0  0  0
   41.2560   33.3180   38.0040 C   0  0  0  0  0  3  0  0  0  0  0  0
   42.1820   34.4890   38.1210 C   0  0  0  0  0  0  0  0  0  0  0  0
   42.7050   34.3380   39.0930 H   0  0  0  0  0  0  0  0  0  0  0  0
   41.6470   35.4450   38.0460 H   0  0  0  0  0  0  0  0  0  0  0  0
   43.1880   34.3250   37.0820 N   0  0  0  0  0  0  0  0  0  0  0  0
   43.7590   35.1970   36.9950 H   0  0  0  0  0  0  0  0  0  0  0  0
   44.0710   33.2480   37.5000 C   0  0  0  0  0  3  0  0  0  0  0  0
   45.5470   33.3530   37.1870 C   0  0  0  0  0  2  0  0  0  0  0  0
   45.0490   33.5400   38.5820 C   0  0  0  0  0  2  0  0  0  0  0  0
  1 20  1  0  0  0  0
  1  6  1  0  0  0  0
  2  1  2  0  0  0  0
  3  2  1  0  0  0  0
  3  4  2  0  0  0  0
  4  5  1  0  0  0  0
  5  6  2  0  0  0  0
  5 11  1  0  0  0  0
  7  2  1  0  0  0  0
  8  3  1  0  0  0  0
 10  9  1  0  0  0  0
 10 15  1  0  0  0  0
 11 10  2  0  0  0  0
 12 11  1  0  0  0  0
 12 13  2  0  0  0  0
 13 14  1  0  0  0  0
 14 15  2  0  0  0  0
 14 18  1  0  0  0  0
 15 19  1  0  0  0  0
 16 12  1  0  0  0  0
 17 13  1  0  0  0  0
 21 22  1  0  0  0  0
 21 20  2  0  0  0  0
 22 23  1  0  0  0  0
 24 22  1  0  0  0  0
 25 27  1  0  0  0  0
 25 22  1  0  0  0  0
 26 25  1  0  0  0  0
 27 29  1  0  0  0  0
 28 27  1  0  0  0  0
 28 29  1  0  0  0  0
M  END
>  <minimizedAffinity>
-5.08504057

$$$$

 OpenBabel03252506223D

 29 31  0  0  0  0  0  0  0  0999 V2000
   37.0780   30.8640   40.5230 C   0  0  0  0  0  0  0  0  0  0  0  0
   35.8210   30.4090   40.1030 C   0  0  0  0  0  0  0  0  0  0  0  0
   35.5140   29.0600   40.3450 C   0  0  0  0  0  0  0  0  0  0  0  0
   36.4300   28.2710   40.9630 N   0  0  0  0  0  0  0  0  0  0  0  0
   37.6400   28.7650   41.3500 C   0  0  0  0  0  0  0  0  0  0  0  0
   37.9610   30.0580   41.1300 N   0  0  0  0  0  0  0  0  0  0  0  0
   35.1060   31.0400   39.6180 H   0  0  0  0  0  0  0  0  0  0  0  0
   34.5630   28.6370   40.0500 H   0  0  0  0  0  0  0  0  0  0  0  0
   36.9650   28.1570   44.2420 Cl  0  0  0  0  0  0  0  0  0  0  0  0
   38.3080   27.5130   43.3450 C   0  0  0  0  0  0  0  0  0  0  0  0
   38.5640   27.8350   42.0100 C   0  0  0  0  0  0  0  0  0  0  0  0
   39.6120   27.3340   41.3040 C   0  0  0  0  0  0  0  0  0  0  0  0
   40.4510   26.4680   41.9570 C   0  0  0  0  0  0  0  0  0  0  0  0
   40.3010   26.0790   43.2690 C   0  0  0  0  0  0  0  0  0  0  0  0
   39.1980   26.6390   43.9240 C   0  0  0  0  0  0  0  0  0  0  0  0
   39.8310   27.5640   40.2790 H   0  0  0  0  0  0  0  0  0  0  0  0
   41.3140   26.0270   41.4530 H   0  0  0  0  0  0  0  0  0  0  0  0
   40.9210   25.4130   43.8200 H   0  0  0  0  0  0  0  0  0  0  0  0
   39.0160   26.3780   44.9570 H   0  0  0  0  0  0  0  0  0  0  0  0
   37.4360   32.2750   40.2860 C   0  0  0  0  0  3  0  0  0  0  0  0
   38.4770   32.7690   40.9370 C   0  0  0  0  0  3  0  0  0  0  0  0
   38.8240   34.2030   40.6820 C   0  0  0  0  0  0  0  0  0  0  0  0
   39.6270   34.4340   41.4190 H   0  0  0  0  0  0  0  0  0  0  0  0
   37.9460   34.8590   40.7590 H   0  0  0  0  0  0  0  0  0  0  0  0
   39.4460   34.2510   39.3670 N   0  0  0  0  0  0  0  0  0  0  0  0
   39.3840   35.2180   38.9760 H   0  0  0  0  0  0  0  0  0  0  0  0
   40.8520   33.9230   39.5410 C   0  0  0  0  0  3  0  0  0  0  0  0
   41.5450   33.1010   38.4770 C   0  0  0  0  0  2  0  0  0  0  0  0
   41.8270   34.5610   38.6150 C   0  0  0  0  0  2  0  0  0  0  0  0
  1  6  1  0  0  0  0
  2  3  1  0  0  0  0
  2  1  2  0  0  0  0
  3  4  2  0  0  0  0
  4  5  1  0  0  0  0
  5 11  1  0  0  0  0
  6  5  2  0  0  0  0
  7  2  1  0  0  0  0
  8  3  1  0  0  0  0
 10 15  1  0  0  0  0
 10  9  1  0  0  0  0
 11 10  2  0  0  0  0
 12 13  2  0  0  0  0
 12 11  1  0  0  0  0
 13 14  1  0  0  0  0
 14 18  1  0  0  0  0
 14 15  2  0  0  0  0
 15 19  1  0  0  0  0
 16 12  1  0  0  0  0
 17 13  1  0  0  0  0
 20  1  1  0  0  0  0
 20 21  2  0  0  0  0
 22 24  1  0  0  0  0
 22 21  1  0  0  0  0
 22 23  1  0  0  0  0
 25 27  1  0  0  0  0
 25 22  1  0  0  0  0
 26 25  1  0  0  0  0
 28 29  1  0  0  0  0
 28 27  1  0  0  0  0
 29 27  1  0  0  0  0
M  END
>  <minimizedAffinity>
-5.08240175

$$$$

 OpenBabel03252506223D

 29 31  0  0  0  0  0  0  0  0999 V2000
   34.9220   29.0060   38.3410 C   0  0  0  0  0  0  0  0  0  0  0  0
   35.8530   29.3900   37.3660 C   0  0  0  0  0  0  0  0  0  0  0  0
   37.2070   29.3990   37.7400 C   0  0  0  0  0  0  0  0  0  0  0  0
   37.5480   29.0440   39.0050 N   0  0  0  0  0  0  0  0  0  0  0  0
   36.6010   28.6790   39.9150 C   0  0  0  0  0  0  0  0  0  0  0  0
   35.2930   28.6610   39.5820 N   0  0  0  0  0  0  0  0  0  0  0  0
   35.5730   29.6680   36.3710 H   0  0  0  0  0  0  0  0  0  0  0  0
   37.9830   29.6830   37.0420 H   0  0  0  0  0  0  0  0  0  0  0  0
   36.8260   25.6950   40.3990 Cl  0  0  0  0  0  0  0  0  0  0  0  0
   37.1930   26.9510   41.5450 C   0  0  0  0  0  0  0  0  0  0  0  0
   37.0670   28.3120   41.2580 C   0  0  0  0  0  0  0  0  0  0  0  0
   37.3530   29.2980   42.1490 C   0  0  0  0  0  0  0  0  0  0  0  0
   37.7860   28.9120   43.3920 C   0  0  0  0  0  0  0  0  0  0  0  0
   37.9470   27.6040   43.7890 C   0  0  0  0  0  0  0  0  0  0  0  0
   37.6320   26.6520   42.8130 C   0  0  0  0  0  0  0  0  0  0  0  0
   37.2660   30.3490   41.9550 H   0  0  0  0  0  0  0  0  0  0  0  0
   38.0340   29.6490   44.1600 H   0  0  0  0  0  0  0  0  0  0  0  0
   38.2780   27.2530   44.7370 H   0  0  0  0  0  0  0  0  0  0  0  0
   37.7350   25.6030   43.0540 H   0  0  0  0  0  0  0  0  0  0  0  0
   33.4920   28.9840   37.9840 C   0  0  0  0  0  3  0  0  0  0  0  0
   33.1720   28.9990   36.6990 C   0  0  0  0  0  3  0  0  0  0  0  0
   31.7140   28.9750   36.3580 C   0  0  0  0  0  0  0  0  0  0  0  0
   31.4650   27.8920   36.2660 H   0  0  0  0  0  0  0  0  0  0  0  0
   31.4930   29.5620   35.4570 H   0  0  0  0  0  0  0  0  0  0  0  0
   31.0060   29.4610   37.5330 N   0  0  0  0  0  0  0  0  0  0  0  0
   31.6700   29.9510   38.1740 H   0  0  0  0  0  0  0  0  0  0  0  0
   30.0220   30.4290   37.0770 C   0  0  0  0  0  3  0  0  0  0  0  0
   29.8980   31.7440   37.8130 C   0  0  0  0  0  2  0  0  0  0  0  0
   30.5260   31.6850   36.4590 C   0  0  0  0  0  2  0  0  0  0  0  0
  1  6  1  0  0  0  0
  2  3  1  0  0  0  0
  2  1  2  0  0  0  0
  3  4  2  0  0  0  0
  4  5  1  0  0  0  0
  5 11  1  0  0  0  0
  6  5  2  0  0  0  0
  7  2  1  0  0  0  0
  8  3  1  0  0  0  0
  9 10  1  0  0  0  0
 10 15  1  0  0  0  0
 11 10  2  0  0  0  0
 11 12  1  0  0  0  0
 12 13  2  0  0  0  0
 13 14  1  0  0  0  0
 13 17  1  0  0  0  0
 14 18  1  0  0  0  0
 15 19  1  0  0  0  0
 15 14  2  0  0  0  0
 16 12  1  0  0  0  0
 20  1  1  0  0  0  0
 21 20  2  0  0  0  0
 22 21  1  0  0  0  0
 22 25  1  0  0  0  0
 23 22  1  0  0  0  0
 24 22  1  0  0  0  0
 25 26  1  0  0  0  0
 27 25  1  0  0  0  0
 27 28  1  0  0  0  0
 29 27  1  0  0  0  0
 29 28  1  0  0  0  0
M  END
>  <minimizedAffinity>
-5.07074404

$$$$

 OpenBabel03252506223D

 29 31  0  0  0  0  0  0  0  0999 V2000
   37.1470   30.2740   38.7510 C   0  0  0  0  0  0  0  0  0  0  0  0
   36.9470   31.6230   39.0710 C   0  0  0  0  0  0  0  0  0  0  0  0
   37.4210   32.0640   40.3170 C   0  0  0  0  0  0  0  0  0  0  0  0
   38.0400   31.1800   41.1420 N   0  0  0  0  0  0  0  0  0  0  0  0
   38.2080   29.8770   40.7810 C   0  0  0  0  0  0  0  0  0  0  0  0
   37.7620   29.4270   39.5890 N   0  0  0  0  0  0  0  0  0  0  0  0
   36.4590   32.3120   38.4120 H   0  0  0  0  0  0  0  0  0  0  0  0
   37.3040   33.0910   40.6340 H   0  0  0  0  0  0  0  0  0  0  0  0
   36.3730   27.9750   42.2670 Cl  0  0  0  0  0  0  0  0  0  0  0  0
   38.0980   28.0960   42.4580 C   0  0  0  0  0  0  0  0  0  0  0  0
   38.8880   28.9970   41.7400 C   0  0  0  0  0  0  0  0  0  0  0  0
   40.2360   29.0960   41.8840 C   0  0  0  0  0  0  0  0  0  0  0  0
   40.8320   28.2560   42.7900 C   0  0  0  0  0  0  0  0  0  0  0  0
   40.1580   27.3300   43.5540 C   0  0  0  0  0  0  0  0  0  0  0  0
   38.7740   27.2920   43.3440 C   0  0  0  0  0  0  0  0  0  0  0  0
   40.8650   29.7780   41.3460 H   0  0  0  0  0  0  0  0  0  0  0  0
   41.9110   28.2790   42.9590 H   0  0  0  0  0  0  0  0  0  0  0  0
   40.5710   26.6570   44.2670 H   0  0  0  0  0  0  0  0  0  0  0  0
   38.1800   26.5880   43.9090 H   0  0  0  0  0  0  0  0  0  0  0  0
   36.6630   29.7750   37.4500 C   0  0  0  0  0  3  0  0  0  0  0  0
   37.2030   28.6660   36.9700 C   0  0  0  0  0  3  0  0  0  0  0  0
   36.6980   28.1770   35.6480 C   0  0  0  0  0  0  0  0  0  0  0  0
   35.6180   28.4520   35.6410 H   0  0  0  0  0  0  0  0  0  0  0  0
   36.8860   27.1040   35.5070 H   0  0  0  0  0  0  0  0  0  0  0  0
   37.3380   28.9980   34.6310 N   0  0  0  0  0  0  0  0  0  0  0  0
   37.9020   28.3980   33.9890 H   0  0  0  0  0  0  0  0  0  0  0  0
   36.2820   29.6260   33.8530 C   0  0  0  0  0  3  0  0  0  0  0  0
   36.2330   31.1350   33.7770 C   0  0  0  0  0  2  0  0  0  0  0  0
   36.6750   30.3270   32.6010 C   0  0  0  0  0  2  0  0  0  0  0  0
  1  2  2  0  0  0  0
  1  6  1  0  0  0  0
  2  3  1  0  0  0  0
  3  8  1  0  0  0  0
  3  4  2  0  0  0  0
  5  4  1  0  0  0  0
  5 11  1  0  0  0  0
  6  5  2  0  0  0  0
  7  2  1  0  0  0  0
  9 10  1  0  0  0  0
 10 15  1  0  0  0  0
 11 12  1  0  0  0  0
 11 10  2  0  0  0  0
 12 13  2  0  0  0  0
 13 17  1  0  0  0  0
 13 14  1  0  0  0  0
 14 18  1  0  0  0  0
 15 14  2  0  0  0  0
 15 19  1  0  0  0  0
 16 12  1  0  0  0  0
 20  1  1  0  0  0  0
 21 20  2  0  0  0  0
 22 21  1  0  0  0  0
 23 22  1  0  0  0  0
 24 22  1  0  0  0  0
 25 22  1  0  0  0  0
 26 25  1  0  0  0  0
 27 25  1  0  0  0  0
 28 27  1  0  0  0  0
 29 28  1  0  0  0  0
 29 27  1  0  0  0  0
M  END
>  <minimizedAffinity>
-5.05213404

$$$$

 OpenBabel03252506223D

 29 31  0  0  0  0  0  0  0  0999 V2000
   37.8470   29.6700   42.1660 C   0  0  0  0  0  0  0  0  0  0  0  0
   36.5720   29.5010   41.6110 C   0  0  0  0  0  0  0  0  0  0  0  0
   36.1730   30.4220   40.6290 C   0  0  0  0  0  0  0  0  0  0  0  0
   37.0230   31.4180   40.2680 N   0  0  0  0  0  0  0  0  0  0  0  0
   38.2530   31.5370   40.8410 C   0  0  0  0  0  0  0  0  0  0  0  0
   38.6620   30.6650   41.7870 N   0  0  0  0  0  0  0  0  0  0  0  0
   35.9100   28.7120   41.9020 H   0  0  0  0  0  0  0  0  0  0  0  0
   35.2030   30.3560   40.1540 H   0  0  0  0  0  0  0  0  0  0  0  0
   40.4890   30.7240   38.9620 Cl  0  0  0  0  0  0  0  0  0  0  0  0
   40.1510   32.3370   39.5170 C   0  0  0  0  0  0  0  0  0  0  0  0
   39.1010   32.6450   40.3860 C   0  0  0  0  0  0  0  0  0  0  0  0
   38.8320   33.9040   40.8220 C   0  0  0  0  0  0  0  0  0  0  0  0
   39.6470   34.9110   40.3730 C   0  0  0  0  0  0  0  0  0  0  0  0
   40.7100   34.7280   39.5170 C   0  0  0  0  0  0  0  0  0  0  0  0
   40.9190   33.4040   39.1160 C   0  0  0  0  0  0  0  0  0  0  0  0
   38.0330   34.1680   41.4880 H   0  0  0  0  0  0  0  0  0  0  0  0
   39.4910   35.9470   40.6810 H   0  0  0  0  0  0  0  0  0  0  0  0
   41.3710   35.4720   39.1400 H   0  0  0  0  0  0  0  0  0  0  0  0
   41.7370   33.1850   38.4430 H   0  0  0  0  0  0  0  0  0  0  0  0
   38.3010   28.7210   43.2000 C   0  0  0  0  0  3  0  0  0  0  0  0
   39.0780   27.7180   42.8230 C   0  0  0  0  0  3  0  0  0  0  0  0
   39.5280   26.7660   43.8880 C   0  0  0  0  0  0  0  0  0  0  0  0
   38.6440   26.6540   44.5570 H   0  0  0  0  0  0  0  0  0  0  0  0
   40.4330   27.1190   44.3990 H   0  0  0  0  0  0  0  0  0  0  0  0
   39.7170   25.4770   43.2370 N   0  0  0  0  0  0  0  0  0  0  0  0
   39.5130   24.7030   43.9090 H   0  0  0  0  0  0  0  0  0  0  0  0
   38.7560   25.3960   42.1490 C   0  0  0  0  0  3  0  0  0  0  0  0
   38.8690   24.2560   41.1620 C   0  0  0  0  0  2  0  0  0  0  0  0
   37.7760   24.2770   42.1780 C   0  0  0  0  0  2  0  0  0  0  0  0
  1 20  1  0  0  0  0
  2  7  1  0  0  0  0
  2  1  2  0  0  0  0
  3  2  1  0  0  0  0
  4  3  2  0  0  0  0
  4  5  1  0  0  0  0
  5  6  2  0  0  0  0
  6  1  1  0  0  0  0
  8  3  1  0  0  0  0
  9 10  1  0  0  0  0
 10 11  1  0  0  0  0
 11 12  2  0  0  0  0
 11  5  1  0  0  0  0
 12 16  1  0  0  0  0
 13 17  1  0  0  0  0
 13 12  1  0  0  0  0
 14 13  2  0  0  0  0
 15 14  1  0  0  0  0
 15 10  2  0  0  0  0
 18 14  1  0  0  0  0
 19 15  1  0  0  0  0
 21 20  2  0  0  0  0
 21 22  1  0  0  0  0
 22 24  1  0  0  0  0
 22 23  1  0  0  0  0
 25 22  1  0  0  0  0
 25 26  1  0  0  0  0
 27 29  1  0  0  0  0
 27 25  1  0  0  0  0
 28 27  1  0  0  0  0
 28 29  1  0  0  0  0
M  END
>  <minimizedAffinity>
-5.02848291

$$$$
