
 OpenBabel03252508553D

 37 40  0  0  1  0  0  0  0  0999 V2000
   36.2550   26.6930   39.2490 C   0  0  0  0  0  0  0  0  0  0  0  0
   36.1720   25.5780   38.6200 O   0  0  0  0  0  0  0  0  0  0  0  0
   37.2180   26.3160   40.2630 N   0  0  0  0  0  0  0  0  0  0  0  0
   38.5070   25.8800   39.7550 C   0  0  0  0  0  0  0  0  0  0  0  0
   38.4610   24.3390   39.8130 C   0  0  0  0  0  0  0  0  0  0  0  0
   37.6700   23.9820   41.0660 C   0  0  0  0  0  0  0  0  0  0  0  0
   37.8520   25.0550   42.1440 C   0  0  0  0  0  0  0  0  0  0  0  0
   37.0990   26.3040   41.7100 C   0  0  1  0  0  0  0  0  0  0  0  0
   39.3540   26.2670   40.3420 H   0  0  0  0  0  0  0  0  0  0  0  0
   38.6850   26.1270   38.7050 H   0  0  0  0  0  0  0  0  0  0  0  0
   37.8390   23.9760   38.9660 H   0  0  0  0  0  0  0  0  0  0  0  0
   39.4790   23.9030   39.8100 H   0  0  0  0  0  0  0  0  0  0  0  0
   38.0550   23.0300   41.4440 H   0  0  0  0  0  0  0  0  0  0  0  0
   36.5860   23.9270   40.8480 H   0  0  0  0  0  0  0  0  0  0  0  0
   37.5160   24.6600   43.1030 H   0  0  0  0  0  0  0  0  0  0  0  0
   38.9310   25.3340   42.1070 H   0  0  0  0  0  0  0  0  0  0  0  0
   36.0240   26.1750   41.9330 H   0  0  0  0  0  0  0  0  0  0  0  0
   37.6740   27.5450   42.3550 C   0  0  0  0  0  3  0  0  0  0  0  0
   38.4730   27.3160   43.5920 C   0  0  0  0  0  2  0  0  0  0  0  0
   37.0740   27.8820   43.6760 C   0  0  0  0  0  2  0  0  0  0  0  0
   35.6000   27.8630   38.9920 O   0  0  0  0  0  0  0  0  0  0  0  0
   36.0160   29.1240   39.3740 C   0  0  0  0  0  0  0  0  0  0  0  0
   36.7130   29.8890   38.4280 C   0  0  0  0  0  0  0  0  0  0  0  0
   37.1300   31.1710   38.8330 C   0  0  0  0  0  0  0  0  0  0  0  0
   36.8350   31.5840   40.1000 N   0  0  0  0  0  0  0  0  0  0  0  0
   36.1690   30.8120   40.9600 C   0  0  0  0  0  0  0  0  0  0  0  0
   35.7580   29.5830   40.5980 N   0  0  0  0  0  0  0  0  0  0  0  0
   37.6710   31.7860   38.1230 H   0  0  0  0  0  0  0  0  0  0  0  0
   35.9650   31.1990   41.9550 H   0  0  0  0  0  0  0  0  0  0  0  0
   36.9740   29.3540   37.1050 C   0  0  0  0  0  0  0  0  0  0  0  0
   36.1100   29.5330   36.0440 C   0  0  0  0  0  0  0  0  0  0  0  0
   36.7120   28.8850   34.9940 C   0  0  0  0  0  0  0  0  0  0  0  0
   37.8830   28.3430   35.4040 N   0  0  0  0  0  0  0  0  0  0  0  0
   38.0150   28.6410   36.6760 N   0  0  0  0  0  0  0  0  0  0  0  0
   35.1600   30.0690   36.0460 H   0  0  0  0  0  0  0  0  0  0  0  0
   36.2460   28.8570   33.9970 H   0  0  0  0  0  0  0  0  0  0  0  0
   38.4980   27.8030   34.7470 H   0  0  0  0  0  0  0  0  0  0  0  0
  1  3  1  0  0  0  0
  2  1  2  0  0  0  0
  3  8  1  0  0  0  0
  4  5  1  0  0  0  0
  4  3  1  0  0  0  0
  4  9  1  0  0  0  0
  5  6  1  0  0  0  0
  6 13  1  0  0  0  0
  6  7  1  0  0  0  0
  7 15  1  0  0  0  0
  8 17  1  1  0  0  0
  8  7  1  0  0  0  0
  8 18  1  0  0  0  0
 10  4  1  0  0  0  0
 11  5  1  0  0  0  0
 12  5  1  0  0  0  0
 14  6  1  0  0  0  0
 16  7  1  0  0  0  0
 18 19  1  0  0  0  0
 18 20  1  0  0  0  0
 19 20  1  0  0  0  0
 21  1  1  0  0  0  0
 21 22  1  0  0  0  0
 22 27  1  0  0  0  0
 23 24  1  0  0  0  0
 23 22  2  0  0  0  0
 24 25  2  0  0  0  0
 25 26  1  0  0  0  0
 26 29  1  0  0  0  0
 27 26  2  0  0  0  0
 28 24  1  0  0  0  0
 30 23  1  0  0  0  0
 31 35  1  0  0  0  0
 31 30  1  0  0  0  0
 32 33  1  0  0  0  0
 32 31  2  0  0  0  0
 33 34  1  0  0  0  0
 34 30  2  0  0  0  0
 36 32  1  0  0  0  0
 37 33  1  0  0  0  0
M  END
>  <minimizedAffinity>
-5.66687155

$$$$

 OpenBabel03252508553D

 37 40  0  0  1  0  0  0  0  0999 V2000
   39.2410   27.6890   40.0720 C   0  0  0  0  0  0  0  0  0  0  0  0
   39.3970   27.0160   38.9910 O   0  0  0  0  0  0  0  0  0  0  0  0
   38.7430   26.6350   40.9320 N   0  0  0  0  0  0  0  0  0  0  0  0
   39.6470   25.5130   41.1140 C   0  0  0  0  0  0  0  0  0  0  0  0
   39.1250   24.4180   40.1620 C   0  0  0  0  0  0  0  0  0  0  0  0
   37.6050   24.5330   40.1700 C   0  0  0  0  0  0  0  0  0  0  0  0
   37.1090   25.0510   41.5240 C   0  0  0  0  0  0  0  0  0  0  0  0
   37.4810   26.5230   41.6400 C   0  0  1  0  0  0  0  0  0  0  0  0
   39.6730   25.1470   42.1530 H   0  0  0  0  0  0  0  0  0  0  0  0
   40.6760   25.7070   40.8000 H   0  0  0  0  0  0  0  0  0  0  0  0
   39.4280   24.6830   39.1260 H   0  0  0  0  0  0  0  0  0  0  0  0
   39.4810   23.4140   40.4650 H   0  0  0  0  0  0  0  0  0  0  0  0
   37.1930   23.5330   40.0020 H   0  0  0  0  0  0  0  0  0  0  0  0
   37.2570   25.2530   39.4050 H   0  0  0  0  0  0  0  0  0  0  0  0
   36.0380   24.8680   41.6080 H   0  0  0  0  0  0  0  0  0  0  0  0
   37.7320   24.5290   42.2880 H   0  0  0  0  0  0  0  0  0  0  0  0
   36.7500   27.1260   41.0730 H   0  0  0  0  0  0  0  0  0  0  0  0
   37.5810   26.9530   43.0870 C   0  0  0  0  0  3  0  0  0  0  0  0
   36.3350   27.5130   43.6790 C   0  0  0  0  0  2  0  0  0  0  0  0
   37.4780   28.4230   43.2960 C   0  0  0  0  0  2  0  0  0  0  0  0
   39.4890   29.0150   40.2900 O   0  0  0  0  0  0  0  0  0  0  0  0
   39.6140   29.9850   39.3150 C   0  0  0  0  0  0  0  0  0  0  0  0
   38.4980   30.7980   39.0650 C   0  0  0  0  0  0  0  0  0  0  0  0
   38.6420   31.7810   38.0680 C   0  0  0  0  0  0  0  0  0  0  0  0
   39.8390   31.8830   37.4190 N   0  0  0  0  0  0  0  0  0  0  0  0
   40.8670   31.0820   37.6980 C   0  0  0  0  0  0  0  0  0  0  0  0
   40.7560   30.1330   38.6460 N   0  0  0  0  0  0  0  0  0  0  0  0
   37.7970   32.4250   37.8520 H   0  0  0  0  0  0  0  0  0  0  0  0
   41.7940   31.2140   37.1450 H   0  0  0  0  0  0  0  0  0  0  0  0
   37.2710   30.6050   39.8150 C   0  0  0  0  0  0  0  0  0  0  0  0
   36.3430   29.6390   39.4890 C   0  0  0  0  0  0  0  0  0  0  0  0
   35.3490   29.7840   40.4260 C   0  0  0  0  0  0  0  0  0  0  0  0
   35.6660   30.7900   41.2740 N   0  0  0  0  0  0  0  0  0  0  0  0
   36.8260   31.2650   40.8840 N   0  0  0  0  0  0  0  0  0  0  0  0
   36.3910   28.9220   38.6680 H   0  0  0  0  0  0  0  0  0  0  0  0
   34.4580   29.1370   40.4180 H   0  0  0  0  0  0  0  0  0  0  0  0
   35.0330   31.0620   42.0660 H   0  0  0  0  0  0  0  0  0  0  0  0
  1 21  1  0  0  0  0
  1  3  1  0  0  0  0
  2  1  2  0  0  0  0
  3  4  1  0  0  0  0
  3  8  1  0  0  0  0
  4  9  1  0  0  0  0
  5  6  1  0  0  0  0
  5 12  1  0  0  0  0
  5  4  1  0  0  0  0
  6  7  1  0  0  0  0
  7 15  1  0  0  0  0
  7  8  1  0  0  0  0
  7 16  1  0  0  0  0
  8 17  1  6  0  0  0
  8 18  1  0  0  0  0
 10  4  1  0  0  0  0
 11  5  1  0  0  0  0
 13  6  1  0  0  0  0
 14  6  1  0  0  0  0
 18 20  1  0  0  0  0
 18 19  1  0  0  0  0
 20 19  1  0  0  0  0
 22 21  1  0  0  0  0
 23 22  1  0  0  0  0
 23 30  1  0  0  0  0
 24 23  2  0  0  0  0
 25 26  2  0  0  0  0
 25 24  1  0  0  0  0
 26 27  1  0  0  0  0
 27 22  2  0  0  0  0
 28 24  1  0  0  0  0
 29 26  1  0  0  0  0
 30 34  2  0  0  0  0
 31 30  1  0  0  0  0
 31 32  2  0  0  0  0
 32 33  1  0  0  0  0
 33 37  1  0  0  0  0
 34 33  1  0  0  0  0
 35 31  1  0  0  0  0
 36 32  1  0  0  0  0
M  END
>  <minimizedAffinity>
-5.64958858

$$$$

 OpenBabel03252508553D

 37 40  0  0  1  0  0  0  0  0999 V2000
   36.2490   29.4130   40.7830 C   0  0  0  0  0  0  0  0  0  0  0  0
   35.3120   28.6440   41.2030 O   0  0  0  0  0  0  0  0  0  0  0  0
   37.3640   28.8380   41.5070 N   0  0  0  0  0  0  0  0  0  0  0  0
   37.6330   27.4410   41.2130 C   0  0  0  0  0  0  0  0  0  0  0  0
   37.0030   26.6560   42.3810 C   0  0  0  0  0  0  0  0  0  0  0  0
   37.2090   27.5070   43.6290 C   0  0  0  0  0  0  0  0  0  0  0  0
   38.4900   28.3400   43.5100 C   0  0  0  0  0  0  0  0  0  0  0  0
   38.2560   29.4380   42.4830 C   0  0  1  0  0  0  0  0  0  0  0  0
   38.7080   27.2200   41.1280 H   0  0  0  0  0  0  0  0  0  0  0  0
   37.1410   27.0670   40.3110 H   0  0  0  0  0  0  0  0  0  0  0  0
   35.9030   26.6280   42.2300 H   0  0  0  0  0  0  0  0  0  0  0  0
   37.4450   25.6450   42.4750 H   0  0  0  0  0  0  0  0  0  0  0  0
   37.3040   26.8310   44.4840 H   0  0  0  0  0  0  0  0  0  0  0  0
   36.3740   28.2220   43.7630 H   0  0  0  0  0  0  0  0  0  0  0  0
   38.7630   28.7200   44.4940 H   0  0  0  0  0  0  0  0  0  0  0  0
   39.2440   27.6600   43.0480 H   0  0  0  0  0  0  0  0  0  0  0  0
   37.6920   30.2620   42.9560 H   0  0  0  0  0  0  0  0  0  0  0  0
   39.5590   29.9080   41.8740 C   0  0  0  0  0  3  0  0  0  0  0  0
   40.7920   29.5190   42.6130 C   0  0  0  0  0  2  0  0  0  0  0  0
   40.2730   30.9370   42.6790 C   0  0  0  0  0  2  0  0  0  0  0  0
   36.1610   30.4570   39.9070 O   0  0  0  0  0  0  0  0  0  0  0  0
   36.4050   30.3960   38.5480 C   0  0  0  0  0  0  0  0  0  0  0  0
   37.3080   31.3250   38.0120 C   0  0  0  0  0  0  0  0  0  0  0  0
   37.5450   31.2510   36.6260 C   0  0  0  0  0  0  0  0  0  0  0  0
   36.8940   30.2920   35.9030 N   0  0  0  0  0  0  0  0  0  0  0  0
   36.0450   29.4340   36.4670 C   0  0  0  0  0  0  0  0  0  0  0  0
   35.8000   29.4830   37.7900 N   0  0  0  0  0  0  0  0  0  0  0  0
   38.2380   31.9550   36.1820 H   0  0  0  0  0  0  0  0  0  0  0  0
   35.5580   28.6930   35.8370 H   0  0  0  0  0  0  0  0  0  0  0  0
   37.9470   32.3040   38.8710 C   0  0  0  0  0  0  0  0  0  0  0  0
   37.2820   33.4040   39.3720 C   0  0  0  0  0  0  0  0  0  0  0  0
   38.2220   34.0640   40.1240 C   0  0  0  0  0  0  0  0  0  0  0  0
   39.3950   33.3920   40.0790 N   0  0  0  0  0  0  0  0  0  0  0  0
   39.2010   32.3380   39.3200 N   0  0  0  0  0  0  0  0  0  0  0  0
   36.2410   33.6830   39.2020 H   0  0  0  0  0  0  0  0  0  0  0  0
   37.9760   34.9970   40.6560 H   0  0  0  0  0  0  0  0  0  0  0  0
   40.2450   33.7340   40.5910 H   0  0  0  0  0  0  0  0  0  0  0  0
  1  2  2  0  0  0  0
  1  3  1  0  0  0  0
  3  8  1  0  0  0  0
  4  3  1  0  0  0  0
  4  5  1  0  0  0  0
  5 12  1  0  0  0  0
  5  6  1  0  0  0  0
  6 14  1  0  0  0  0
  6 13  1  0  0  0  0
  7  6  1  0  0  0  0
  7 15  1  0  0  0  0
  8 17  1  1  0  0  0
  8  7  1  0  0  0  0
  9  4  1  0  0  0  0
 10  4  1  0  0  0  0
 11  5  1  0  0  0  0
 16  7  1  0  0  0  0
 18  8  1  0  0  0  0
 18 19  1  0  0  0  0
 18 20  1  0  0  0  0
 19 20  1  0  0  0  0
 21  1  1  0  0  0  0
 22 21  1  0  0  0  0
 23 22  1  0  0  0  0
 23 30  1  0  0  0  0
 24 23  2  0  0  0  0
 25 26  2  0  0  0  0
 25 24  1  0  0  0  0
 26 27  1  0  0  0  0
 27 22  2  0  0  0  0
 28 24  1  0  0  0  0
 29 26  1  0  0  0  0
 30 34  2  0  0  0  0
 30 31  1  0  0  0  0
 31 32  2  0  0  0  0
 32 36  1  0  0  0  0
 33 32  1  0  0  0  0
 33 37  1  0  0  0  0
 34 33  1  0  0  0  0
 35 31  1  0  0  0  0
M  END
>  <minimizedAffinity>
-5.64581537

$$$$

 OpenBabel03252508553D

 37 40  0  0  1  0  0  0  0  0999 V2000
   38.6240   28.5350   40.4750 C   0  0  0  0  0  0  0  0  0  0  0  0
   39.1720   29.3140   41.3350 O   0  0  0  0  0  0  0  0  0  0  0  0
   38.2410   27.4510   41.3560 N   0  0  0  0  0  0  0  0  0  0  0  0
   37.3240   27.8180   42.4200 C   0  0  0  0  0  0  0  0  0  0  0  0
   38.2070   27.9760   43.6750 C   0  0  0  0  0  0  0  0  0  0  0  0
   39.2930   26.9120   43.5690 C   0  0  0  0  0  0  0  0  0  0  0  0
   38.7760   25.6840   42.8120 C   0  0  0  0  0  0  0  0  0  0  0  0
   38.6290   26.0520   41.3430 C   0  0  1  0  0  0  0  0  0  0  0  0
   36.5370   27.0670   42.5880 H   0  0  0  0  0  0  0  0  0  0  0  0
   36.8380   28.7880   42.2820 H   0  0  0  0  0  0  0  0  0  0  0  0
   38.7450   28.9460   43.6040 H   0  0  0  0  0  0  0  0  0  0  0  0
   37.6100   27.8880   44.6040 H   0  0  0  0  0  0  0  0  0  0  0  0
   39.5680   26.6130   44.5850 H   0  0  0  0  0  0  0  0  0  0  0  0
   40.1670   27.2920   43.0040 H   0  0  0  0  0  0  0  0  0  0  0  0
   39.4530   24.8470   42.9830 H   0  0  0  0  0  0  0  0  0  0  0  0
   37.7350   25.5250   43.1810 H   0  0  0  0  0  0  0  0  0  0  0  0
   39.6220   26.0090   40.8580 H   0  0  0  0  0  0  0  0  0  0  0  0
   37.6140   25.1680   40.6530 C   0  0  0  0  0  3  0  0  0  0  0  0
   36.7550   24.3510   41.5550 C   0  0  0  0  0  2  0  0  0  0  0  0
   37.8850   23.7100   40.7830 C   0  0  0  0  0  2  0  0  0  0  0  0
   38.4750   28.7260   39.1310 O   0  0  0  0  0  0  0  0  0  0  0  0
   37.3210   28.5050   38.4060 C   0  0  0  0  0  0  0  0  0  0  0  0
   36.3930   29.5540   38.3330 C   0  0  0  0  0  0  0  0  0  0  0  0
   35.2210   29.3130   37.5900 C   0  0  0  0  0  0  0  0  0  0  0  0
   35.0640   28.0930   36.9960 N   0  0  0  0  0  0  0  0  0  0  0  0
   35.9810   27.1310   37.1000 C   0  0  0  0  0  0  0  0  0  0  0  0
   37.1100   27.3350   37.8040 N   0  0  0  0  0  0  0  0  0  0  0  0
   34.4850   30.1050   37.5150 H   0  0  0  0  0  0  0  0  0  0  0  0
   35.7960   26.1810   36.6040 H   0  0  0  0  0  0  0  0  0  0  0  0
   36.6590   30.8130   39.0020 C   0  0  0  0  0  0  0  0  0  0  0  0
   37.2760   31.8760   38.3740 C   0  0  0  0  0  0  0  0  0  0  0  0
   37.3390   32.8560   39.3340 C   0  0  0  0  0  0  0  0  0  0  0  0
   36.7850   32.4040   40.4830 N   0  0  0  0  0  0  0  0  0  0  0  0
   36.3850   31.1750   40.2550 N   0  0  0  0  0  0  0  0  0  0  0  0
   37.6340   31.9200   37.3450 H   0  0  0  0  0  0  0  0  0  0  0  0
   37.7890   33.8380   39.1190 H   0  0  0  0  0  0  0  0  0  0  0  0
   36.7350   33.0050   41.3430 H   0  0  0  0  0  0  0  0  0  0  0  0
  1  2  2  0  0  0  0
  1  3  1  0  0  0  0
  3  4  1  0  0  0  0
  4  9  1  0  0  0  0
  4  5  1  0  0  0  0
  5 12  1  0  0  0  0
  6  5  1  0  0  0  0
  6 13  1  0  0  0  0
  7 15  1  0  0  0  0
  7 16  1  0  0  0  0
  7  6  1  0  0  0  0
  8 17  1  6  0  0  0
  8  3  1  0  0  0  0
  8  7  1  0  0  0  0
 10  4  1  0  0  0  0
 11  5  1  0  0  0  0
 14  6  1  0  0  0  0
 18 20  1  0  0  0  0
 18  8  1  0  0  0  0
 18 19  1  0  0  0  0
 20 19  1  0  0  0  0
 21  1  1  0  0  0  0
 22 21  1  0  0  0  0
 23 22  1  0  0  0  0
 23 30  1  0  0  0  0
 24 23  2  0  0  0  0
 25 26  2  0  0  0  0
 25 24  1  0  0  0  0
 26 27  1  0  0  0  0
 27 22  2  0  0  0  0
 28 24  1  0  0  0  0
 29 26  1  0  0  0  0
 30 34  2  0  0  0  0
 31 30  1  0  0  0  0
 31 32  2  0  0  0  0
 32 33  1  0  0  0  0
 33 37  1  0  0  0  0
 34 33  1  0  0  0  0
 35 31  1  0  0  0  0
 36 32  1  0  0  0  0
M  END
>  <minimizedAffinity>
-5.63353539

$$$$

 OpenBabel03252508553D

 37 40  0  0  1  0  0  0  0  0999 V2000
   39.6150   28.7680   41.0590 C   0  0  0  0  0  0  0  0  0  0  0  0
   40.6220   27.9980   41.2540 O   0  0  0  0  0  0  0  0  0  0  0  0
   38.6310   28.0700   41.8620 N   0  0  0  0  0  0  0  0  0  0  0  0
   38.9610   27.9510   43.2710 C   0  0  0  0  0  0  0  0  0  0  0  0
   39.5060   26.5180   43.4360 C   0  0  0  0  0  0  0  0  0  0  0  0
   38.6990   25.6410   42.4860 C   0  0  0  0  0  0  0  0  0  0  0  0
   37.2820   26.1970   42.3090 C   0  0  0  0  0  0  0  0  0  0  0  0
   37.3660   27.4700   41.4790 C   0  0  1  0  0  0  0  0  0  0  0  0
   38.0940   28.1180   43.9300 H   0  0  0  0  0  0  0  0  0  0  0  0
   39.7670   28.6100   43.6030 H   0  0  0  0  0  0  0  0  0  0  0  0
   40.5440   26.4920   43.0410 H   0  0  0  0  0  0  0  0  0  0  0  0
   39.4440   26.1800   44.4890 H   0  0  0  0  0  0  0  0  0  0  0  0
   38.6350   24.6410   42.9270 H   0  0  0  0  0  0  0  0  0  0  0  0
   39.1610   25.6160   41.4800 H   0  0  0  0  0  0  0  0  0  0  0  0
   36.6490   25.4310   41.8620 H   0  0  0  0  0  0  0  0  0  0  0  0
   36.9640   26.5290   43.3260 H   0  0  0  0  0  0  0  0  0  0  0  0
   37.4590   27.2000   40.4110 H   0  0  0  0  0  0  0  0  0  0  0  0
   36.1840   28.3770   41.7410 C   0  0  0  0  0  3  0  0  0  0  0  0
   35.5150   28.9290   40.5300 C   0  0  0  0  0  2  0  0  0  0  0  0
   36.4140   29.8020   41.3750 C   0  0  0  0  0  2  0  0  0  0  0  0
   39.5480   29.9030   40.3020 O   0  0  0  0  0  0  0  0  0  0  0  0
   38.8280   30.0540   39.1330 C   0  0  0  0  0  0  0  0  0  0  0  0
   38.4400   31.3540   38.7770 C   0  0  0  0  0  0  0  0  0  0  0  0
   37.7060   31.4910   37.5830 C   0  0  0  0  0  0  0  0  0  0  0  0
   37.4260   30.3690   36.8570 N   0  0  0  0  0  0  0  0  0  0  0  0
   37.8210   29.1570   37.2440 C   0  0  0  0  0  0  0  0  0  0  0  0
   38.5230   28.9980   38.3820 N   0  0  0  0  0  0  0  0  0  0  0  0
   37.3920   32.4830   37.2810 H   0  0  0  0  0  0  0  0  0  0  0  0
   37.5650   28.3030   36.6210 H   0  0  0  0  0  0  0  0  0  0  0  0
   38.7920   32.4790   39.6220 C   0  0  0  0  0  0  0  0  0  0  0  0
   39.9560   33.2010   39.4560 C   0  0  0  0  0  0  0  0  0  0  0  0
   39.9110   34.1610   40.4370 C   0  0  0  0  0  0  0  0  0  0  0  0
   38.7730   34.0240   41.1570 N   0  0  0  0  0  0  0  0  0  0  0  0
   38.1200   33.0060   40.6450 N   0  0  0  0  0  0  0  0  0  0  0  0
   40.7360   33.0380   38.7110 H   0  0  0  0  0  0  0  0  0  0  0  0
   40.7220   34.8970   40.5530 H   0  0  0  0  0  0  0  0  0  0  0  0
   38.5490   34.6640   41.9570 H   0  0  0  0  0  0  0  0  0  0  0  0
  1  2  2  0  0  0  0
  1  3  1  0  0  0  0
  3  4  1  0  0  0  0
  4  5  1  0  0  0  0
  4 10  1  0  0  0  0
  4  9  1  0  0  0  0
  5 12  1  0  0  0  0
  6 13  1  0  0  0  0
  6  5  1  0  0  0  0
  7  6  1  0  0  0  0
  7 16  1  0  0  0  0
  8 17  1  6  0  0  0
  8 18  1  0  0  0  0
  8  3  1  0  0  0  0
  8  7  1  0  0  0  0
 11  5  1  0  0  0  0
 14  6  1  0  0  0  0
 15  7  1  0  0  0  0
 19 20  1  0  0  0  0
 19 18  1  0  0  0  0
 20 18  1  0  0  0  0
 21  1  1  0  0  0  0
 22 21  1  0  0  0  0
 23 22  1  0  0  0  0
 23 30  1  0  0  0  0
 24 23  2  0  0  0  0
 25 26  2  0  0  0  0
 25 24  1  0  0  0  0
 26 27  1  0  0  0  0
 27 22  2  0  0  0  0
 28 24  1  0  0  0  0
 29 26  1  0  0  0  0
 30 34  2  0  0  0  0
 31 30  1  0  0  0  0
 31 32  2  0  0  0  0
 32 36  1  0  0  0  0
 32 33  1  0  0  0  0
 33 37  1  0  0  0  0
 34 33  1  0  0  0  0
 35 31  1  0  0  0  0
M  END
>  <minimizedAffinity>
-5.62870455

$$$$

 OpenBabel03252508553D

 37 40  0  0  1  0  0  0  0  0999 V2000
   38.5960   29.3950   42.3780 C   0  0  0  0  0  0  0  0  0  0  0  0
   39.2240   28.3950   42.8800 O   0  0  0  0  0  0  0  0  0  0  0  0
   37.4830   28.6910   41.7770 N   0  0  0  0  0  0  0  0  0  0  0  0
   36.6570   27.9390   42.7050 C   0  0  0  0  0  0  0  0  0  0  0  0
   37.1240   26.4760   42.5630 C   0  0  0  0  0  0  0  0  0  0  0  0
   37.4670   26.2770   41.0910 C   0  0  0  0  0  0  0  0  0  0  0  0
   36.5990   27.1790   40.2070 C   0  0  0  0  0  0  0  0  0  0  0  0
   37.0610   28.6170   40.3890 C   0  0  1  0  0  0  0  0  0  0  0  0
   35.5800   28.0280   42.4910 H   0  0  0  0  0  0  0  0  0  0  0  0
   36.8130   28.1940   43.7560 H   0  0  0  0  0  0  0  0  0  0  0  0
   38.0890   26.3640   43.1020 H   0  0  0  0  0  0  0  0  0  0  0  0
   36.3520   25.7670   42.9230 H   0  0  0  0  0  0  0  0  0  0  0  0
   37.2650   25.2320   40.8390 H   0  0  0  0  0  0  0  0  0  0  0  0
   38.5210   26.5500   40.8900 H   0  0  0  0  0  0  0  0  0  0  0  0
   36.6590   26.8330   39.1750 H   0  0  0  0  0  0  0  0  0  0  0  0
   35.5780   27.1380   40.6540 H   0  0  0  0  0  0  0  0  0  0  0  0
   37.9660   28.7870   39.7790 H   0  0  0  0  0  0  0  0  0  0  0  0
   35.9550   29.5960   40.0600 C   0  0  0  0  0  3  0  0  0  0  0  0
   34.6080   28.9960   39.8450 C   0  0  0  0  0  2  0  0  0  0  0  0
   35.4290   29.4800   38.6720 C   0  0  0  0  0  2  0  0  0  0  0  0
   38.9290   30.7190   42.4280 O   0  0  0  0  0  0  0  0  0  0  0  0
   40.1580   31.2570   42.0970 C   0  0  0  0  0  0  0  0  0  0  0  0
   40.1930   32.1960   41.0560 C   0  0  0  0  0  0  0  0  0  0  0  0
   41.4520   32.7340   40.7300 C   0  0  0  0  0  0  0  0  0  0  0  0
   42.5430   32.3170   41.4390 N   0  0  0  0  0  0  0  0  0  0  0  0
   42.4500   31.4200   42.4200 C   0  0  0  0  0  0  0  0  0  0  0  0
   41.2590   30.8890   42.7510 N   0  0  0  0  0  0  0  0  0  0  0  0
   41.5110   33.4620   39.9300 H   0  0  0  0  0  0  0  0  0  0  0  0
   43.3570   31.1290   42.9460 H   0  0  0  0  0  0  0  0  0  0  0  0
   38.9710   32.5690   40.3680 C   0  0  0  0  0  0  0  0  0  0  0  0
   38.5820   31.9970   39.1750 C   0  0  0  0  0  0  0  0  0  0  0  0
   37.3950   32.6140   38.8650 C   0  0  0  0  0  0  0  0  0  0  0  0
   37.0860   33.5140   39.8280 N   0  0  0  0  0  0  0  0  0  0  0  0
   38.0490   33.4660   40.7180 N   0  0  0  0  0  0  0  0  0  0  0  0
   39.1060   31.2260   38.6080 H   0  0  0  0  0  0  0  0  0  0  0  0
   36.8390   32.3560   37.9500 H   0  0  0  0  0  0  0  0  0  0  0  0
   36.2120   34.0940   39.7770 H   0  0  0  0  0  0  0  0  0  0  0  0
  1 21  1  0  0  0  0
  1  2  2  0  0  0  0
  3  1  1  0  0  0  0
  3  4  1  0  0  0  0
  4 10  1  0  0  0  0
  5  4  1  0  0  0  0
  5 12  1  0  0  0  0
  5 11  1  0  0  0  0
  6  5  1  0  0  0  0
  7  8  1  0  0  0  0
  7 16  1  0  0  0  0
  7  6  1  0  0  0  0
  8 17  1  6  0  0  0
  8  3  1  0  0  0  0
  9  4  1  0  0  0  0
 13  6  1  0  0  0  0
 14  6  1  0  0  0  0
 15  7  1  0  0  0  0
 18  8  1  0  0  0  0
 19 18  1  0  0  0  0
 20 19  1  0  0  0  0
 20 18  1  0  0  0  0
 22 21  1  0  0  0  0
 22 27  1  0  0  0  0
 23 22  2  0  0  0  0
 24 23  1  0  0  0  0
 24 25  2  0  0  0  0
 25 26  1  0  0  0  0
 26 27  2  0  0  0  0
 26 29  1  0  0  0  0
 28 24  1  0  0  0  0
 30 34  2  0  0  0  0
 30 23  1  0  0  0  0
 31 30  1  0  0  0  0
 32 31  2  0  0  0  0
 32 33  1  0  0  0  0
 33 34  1  0  0  0  0
 35 31  1  0  0  0  0
 36 32  1  0  0  0  0
 37 33  1  0  0  0  0
M  END
>  <minimizedAffinity>
-5.6122117

$$$$

 OpenBabel03252508553D

 37 40  0  0  1  0  0  0  0  0999 V2000
   39.8950   28.7150   40.3130 C   0  0  0  0  0  0  0  0  0  0  0  0
   41.1310   28.3810   40.2340 O   0  0  0  0  0  0  0  0  0  0  0  0
   39.6880   28.5070   41.7310 N   0  0  0  0  0  0  0  0  0  0  0  0
   40.5260   29.3140   42.6000 C   0  0  0  0  0  0  0  0  0  0  0  0
   41.6640   28.3730   43.0470 C   0  0  0  0  0  0  0  0  0  0  0  0
   41.0390   26.9920   43.2070 C   0  0  0  0  0  0  0  0  0  0  0  0
   39.5670   27.1090   43.6180 C   0  0  0  0  0  0  0  0  0  0  0  0
   38.7730   27.6160   42.4230 C   0  0  1  0  0  0  0  0  0  0  0  0
   39.9840   29.7130   43.4710 H   0  0  0  0  0  0  0  0  0  0  0  0
   41.0200   30.1510   42.0990 H   0  0  0  0  0  0  0  0  0  0  0  0
   42.3820   28.2690   42.2060 H   0  0  0  0  0  0  0  0  0  0  0  0
   42.1470   28.7350   43.9760 H   0  0  0  0  0  0  0  0  0  0  0  0
   41.5870   26.4660   43.9940 H   0  0  0  0  0  0  0  0  0  0  0  0
   41.0610   26.4340   42.2500 H   0  0  0  0  0  0  0  0  0  0  0  0
   39.2210   26.1440   43.9880 H   0  0  0  0  0  0  0  0  0  0  0  0
   39.5330   27.9350   44.3670 H   0  0  0  0  0  0  0  0  0  0  0  0
   38.5770   26.7740   41.7350 H   0  0  0  0  0  0  0  0  0  0  0  0
   37.5010   28.3080   42.8610 C   0  0  0  0  0  3  0  0  0  0  0  0
   36.5690   27.4830   43.6790 C   0  0  0  0  0  2  0  0  0  0  0  0
   36.2650   27.7720   42.2280 C   0  0  0  0  0  2  0  0  0  0  0  0
   39.0650   29.1370   39.3140 O   0  0  0  0  0  0  0  0  0  0  0  0
   37.8380   28.5860   38.9940 C   0  0  0  0  0  0  0  0  0  0  0  0
   36.7220   29.4350   39.0230 C   0  0  0  0  0  0  0  0  0  0  0  0
   35.4800   28.8580   38.6960 C   0  0  0  0  0  0  0  0  0  0  0  0
   35.4410   27.5310   38.3740 N   0  0  0  0  0  0  0  0  0  0  0  0
   36.5360   26.7720   38.3640 C   0  0  0  0  0  0  0  0  0  0  0  0
   37.7360   27.2980   38.6730 N   0  0  0  0  0  0  0  0  0  0  0  0
   34.5990   29.4880   38.7090 H   0  0  0  0  0  0  0  0  0  0  0  0
   36.4380   25.7220   38.0990 H   0  0  0  0  0  0  0  0  0  0  0  0
   36.8750   30.8330   39.3780 C   0  0  0  0  0  0  0  0  0  0  0  0
   37.2790   31.7920   38.4730 C   0  0  0  0  0  0  0  0  0  0  0  0
   37.2970   32.9620   39.1930 C   0  0  0  0  0  0  0  0  0  0  0  0
   36.9210   32.7160   40.4700 N   0  0  0  0  0  0  0  0  0  0  0  0
   36.6740   31.4300   40.5530 N   0  0  0  0  0  0  0  0  0  0  0  0
   37.5280   31.6480   37.4210 H   0  0  0  0  0  0  0  0  0  0  0  0
   37.5860   33.9160   38.7250 H   0  0  0  0  0  0  0  0  0  0  0  0
   36.8700   33.4830   41.1850 H   0  0  0  0  0  0  0  0  0  0  0  0
  1  3  1  0  0  0  0
  2  1  2  0  0  0  0
  3  8  1  0  0  0  0
  3  4  1  0  0  0  0
  4  5  1  0  0  0  0
  4  9  1  0  0  0  0
  5  6  1  0  0  0  0
  5 12  1  0  0  0  0
  6  7  1  0  0  0  0
  6 13  1  0  0  0  0
  7 15  1  0  0  0  0
  7 16  1  0  0  0  0
  8 17  1  6  0  0  0
  8 18  1  0  0  0  0
  8  7  1  0  0  0  0
 10  4  1  0  0  0  0
 11  5  1  0  0  0  0
 14  6  1  0  0  0  0
 18 19  1  0  0  0  0
 20 18  1  0  0  0  0
 20 19  1  0  0  0  0
 21  1  1  0  0  0  0
 22 23  1  0  0  0  0
 22 21  1  0  0  0  0
 23 30  1  0  0  0  0
 24 28  1  0  0  0  0
 24 23  2  0  0  0  0
 25 24  1  0  0  0  0
 26 25  2  0  0  0  0
 26 27  1  0  0  0  0
 27 22  2  0  0  0  0
 29 26  1  0  0  0  0
 30 34  2  0  0  0  0
 31 32  2  0  0  0  0
 31 30  1  0  0  0  0
 32 33  1  0  0  0  0
 33 34  1  0  0  0  0
 33 37  1  0  0  0  0
 35 31  1  0  0  0  0
 36 32  1  0  0  0  0
M  END
>  <minimizedAffinity>
-5.5824852

$$$$

 OpenBabel03252508553D

 37 40  0  0  1  0  0  0  0  0999 V2000
   37.7200   27.8020   40.0200 C   0  0  0  0  0  0  0  0  0  0  0  0
   36.6910   27.0350   40.0100 O   0  0  0  0  0  0  0  0  0  0  0  0
   38.0150   27.7760   41.4380 N   0  0  0  0  0  0  0  0  0  0  0  0
   38.3090   26.4620   41.9810 C   0  0  0  0  0  0  0  0  0  0  0  0
   37.0030   26.0080   42.6640 C   0  0  0  0  0  0  0  0  0  0  0  0
   36.3790   27.2600   43.2700 C   0  0  0  0  0  0  0  0  0  0  0  0
   37.4640   28.2640   43.6710 C   0  0  0  0  0  0  0  0  0  0  0  0
   38.0610   28.8590   42.4040 C   0  0  1  0  0  0  0  0  0  0  0  0
   39.1430   26.4710   42.7000 H   0  0  0  0  0  0  0  0  0  0  0  0
   38.5240   25.7000   41.2270 H   0  0  0  0  0  0  0  0  0  0  0  0
   36.2910   25.6840   41.8750 H   0  0  0  0  0  0  0  0  0  0  0  0
   37.1920   25.2170   43.4160 H   0  0  0  0  0  0  0  0  0  0  0  0
   35.8260   26.9590   44.1650 H   0  0  0  0  0  0  0  0  0  0  0  0
   35.7250   27.7710   42.5370 H   0  0  0  0  0  0  0  0  0  0  0  0
   37.0330   29.0120   44.3370 H   0  0  0  0  0  0  0  0  0  0  0  0
   38.2820   27.6540   44.1230 H   0  0  0  0  0  0  0  0  0  0  0  0
   37.3880   29.6470   42.0220 H   0  0  0  0  0  0  0  0  0  0  0  0
   39.4650   29.3700   42.6440 C   0  0  0  0  0  3  0  0  0  0  0  0
   39.6030   30.8500   42.7440 C   0  0  0  0  0  2  0  0  0  0  0  0
   40.0460   30.1210   41.4970 C   0  0  0  0  0  2  0  0  0  0  0  0
   38.3190   28.4320   38.9670 O   0  0  0  0  0  0  0  0  0  0  0  0
   37.7230   28.7290   37.7560 C   0  0  0  0  0  0  0  0  0  0  0  0
   37.0890   29.9740   37.6360 C   0  0  0  0  0  0  0  0  0  0  0  0
   36.4860   30.2610   36.3970 C   0  0  0  0  0  0  0  0  0  0  0  0
   36.5570   29.3250   35.4050 N   0  0  0  0  0  0  0  0  0  0  0  0
   37.1730   28.1560   35.5750 C   0  0  0  0  0  0  0  0  0  0  0  0
   37.7580   27.8560   36.7500 N   0  0  0  0  0  0  0  0  0  0  0  0
   35.9890   31.2160   36.2740 H   0  0  0  0  0  0  0  0  0  0  0  0
   37.1950   27.4540   34.7450 H   0  0  0  0  0  0  0  0  0  0  0  0
   37.0740   30.8960   38.7560 C   0  0  0  0  0  0  0  0  0  0  0  0
   37.9170   31.9850   38.8370 C   0  0  0  0  0  0  0  0  0  0  0  0
   37.5890   32.5900   40.0250 C   0  0  0  0  0  0  0  0  0  0  0  0
   36.5960   31.8970   40.6290 N   0  0  0  0  0  0  0  0  0  0  0  0
   36.3050   30.8860   39.8450 N   0  0  0  0  0  0  0  0  0  0  0  0
   38.6750   32.2910   38.1150 H   0  0  0  0  0  0  0  0  0  0  0  0
   38.1060   33.5010   40.3640 H   0  0  0  0  0  0  0  0  0  0  0  0
   36.2000   32.1980   41.5540 H   0  0  0  0  0  0  0  0  0  0  0  0
  1  3  1  0  0  0  0
  2  1  2  0  0  0  0
  3  4  1  0  0  0  0
  3  8  1  0  0  0  0
  4  5  1  0  0  0  0
  4  9  1  0  0  0  0
  5  6  1  0  0  0  0
  5 12  1  0  0  0  0
  6  7  1  0  0  0  0
  6 13  1  0  0  0  0
  7 16  1  0  0  0  0
  7 15  1  0  0  0  0
  8 17  1  6  0  0  0
  8 18  1  0  0  0  0
  8  7  1  0  0  0  0
 10  4  1  0  0  0  0
 11  5  1  0  0  0  0
 14  6  1  0  0  0  0
 18 19  1  0  0  0  0
 20 18  1  0  0  0  0
 20 19  1  0  0  0  0
 21  1  1  0  0  0  0
 22 21  1  0  0  0  0
 23 22  1  0  0  0  0
 23 30  1  0  0  0  0
 24 23  2  0  0  0  0
 25 26  2  0  0  0  0
 25 24  1  0  0  0  0
 26 27  1  0  0  0  0
 27 22  2  0  0  0  0
 28 24  1  0  0  0  0
 29 26  1  0  0  0  0
 30 31  1  0  0  0  0
 30 34  2  0  0  0  0
 31 32  2  0  0  0  0
 32 36  1  0  0  0  0
 32 33  1  0  0  0  0
 33 37  1  0  0  0  0
 34 33  1  0  0  0  0
 35 31  1  0  0  0  0
M  END
>  <minimizedAffinity>
-5.49919891

$$$$

 OpenBabel03252508553D

 37 40  0  0  1  0  0  0  0  0999 V2000
   36.3830   29.5780   40.5930 C   0  0  0  0  0  0  0  0  0  0  0  0
   35.3600   28.8900   40.9510 O   0  0  0  0  0  0  0  0  0  0  0  0
   37.4060   28.8770   41.3410 N   0  0  0  0  0  0  0  0  0  0  0  0
   37.5540   27.4700   41.0120 C   0  0  0  0  0  0  0  0  0  0  0  0
   36.8040   26.7160   42.1290 C   0  0  0  0  0  0  0  0  0  0  0  0
   37.0380   27.5080   43.4110 C   0  0  0  0  0  0  0  0  0  0  0  0
   38.3960   28.2160   43.3690 C   0  0  0  0  0  0  0  0  0  0  0  0
   38.3100   29.3600   42.3690 C   0  0  1  0  0  0  0  0  0  0  0  0
   38.6060   27.1490   40.9620 H   0  0  0  0  0  0  0  0  0  0  0  0
   37.0660   27.1710   40.0800 H   0  0  0  0  0  0  0  0  0  0  0  0
   35.7130   26.7990   41.9340 H   0  0  0  0  0  0  0  0  0  0  0  0
   37.1430   25.6650   42.2070 H   0  0  0  0  0  0  0  0  0  0  0  0
   37.0320   26.8010   44.2460 H   0  0  0  0  0  0  0  0  0  0  0  0
   36.2700   28.2960   43.5360 H   0  0  0  0  0  0  0  0  0  0  0  0
   38.6620   28.5400   44.3750 H   0  0  0  0  0  0  0  0  0  0  0  0
   39.1000   27.4800   42.9140 H   0  0  0  0  0  0  0  0  0  0  0  0
   37.8080   30.2210   42.8470 H   0  0  0  0  0  0  0  0  0  0  0  0
   39.6760   29.7200   41.8270 C   0  0  0  0  0  3  0  0  0  0  0  0
   40.8260   29.4090   42.7210 C   0  0  0  0  0  2  0  0  0  0  0  0
   40.3480   30.8330   42.5530 C   0  0  0  0  0  2  0  0  0  0  0  0
   36.4310   30.6500   39.7480 O   0  0  0  0  0  0  0  0  0  0  0  0
   37.4610   31.5670   39.6630 C   0  0  0  0  0  0  0  0  0  0  0  0
   38.4030   31.3870   38.6400 C   0  0  0  0  0  0  0  0  0  0  0  0
   39.4470   32.3290   38.5680 C   0  0  0  0  0  0  0  0  0  0  0  0
   39.4740   33.3440   39.4810 N   0  0  0  0  0  0  0  0  0  0  0  0
   38.5500   33.4660   40.4340 C   0  0  0  0  0  0  0  0  0  0  0  0
   37.5420   32.5790   40.5260 N   0  0  0  0  0  0  0  0  0  0  0  0
   40.1900   32.2170   37.7880 H   0  0  0  0  0  0  0  0  0  0  0  0
   38.6280   34.2970   41.1310 H   0  0  0  0  0  0  0  0  0  0  0  0
   38.2790   30.2720   37.7210 C   0  0  0  0  0  0  0  0  0  0  0  0
   39.0420   29.1280   37.8290 C   0  0  0  0  0  0  0  0  0  0  0  0
   38.6270   28.3340   36.7880 C   0  0  0  0  0  0  0  0  0  0  0  0
   37.6590   28.9710   36.0880 N   0  0  0  0  0  0  0  0  0  0  0  0
   37.4700   30.1330   36.6710 N   0  0  0  0  0  0  0  0  0  0  0  0
   39.8060   28.9090   38.5760 H   0  0  0  0  0  0  0  0  0  0  0  0
   39.0660   27.3390   36.6180 H   0  0  0  0  0  0  0  0  0  0  0  0
   37.2070   28.5310   35.2490 H   0  0  0  0  0  0  0  0  0  0  0  0
  1  2  2  0  0  0  0
  1  3  1  0  0  0  0
  3  8  1  0  0  0  0
  4  3  1  0  0  0  0
  4  5  1  0  0  0  0
  5 12  1  0  0  0  0
  5  6  1  0  0  0  0
  6 14  1  0  0  0  0
  6 13  1  0  0  0  0
  7  6  1  0  0  0  0
  7 15  1  0  0  0  0
  8 17  1  1  0  0  0
  8  7  1  0  0  0  0
  9  4  1  0  0  0  0
 10  4  1  0  0  0  0
 11  5  1  0  0  0  0
 16  7  1  0  0  0  0
 18  8  1  0  0  0  0
 18 20  1  0  0  0  0
 18 19  1  0  0  0  0
 20 19  1  0  0  0  0
 21  1  1  0  0  0  0
 22 21  1  0  0  0  0
 22 27  1  0  0  0  0
 23 22  2  0  0  0  0
 24 23  1  0  0  0  0
 24 25  2  0  0  0  0
 25 26  1  0  0  0  0
 26 27  2  0  0  0  0
 26 29  1  0  0  0  0
 28 24  1  0  0  0  0
 30 31  1  0  0  0  0
 30 23  1  0  0  0  0
 31 35  1  0  0  0  0
 32 31  2  0  0  0  0
 33 34  1  0  0  0  0
 33 32  1  0  0  0  0
 34 30  2  0  0  0  0
 36 32  1  0  0  0  0
 37 33  1  0  0  0  0
M  END
>  <minimizedAffinity>
-5.39879704

$$$$
