
 OpenBabel03252507123D

 18 19  0  0  0  0  0  0  0  0999 V2000
   38.0820   28.2370   41.2310 C   0  0  0  0  0  0  0  0  0  0  0  0
   38.7480   29.3580   40.7360 C   0  0  0  0  0  0  0  0  0  0  0  0
   39.8210   29.1970   39.8190 C   0  0  0  0  0  0  0  0  0  0  0  0
   40.1580   27.9360   39.4620 N   0  0  0  0  0  0  0  0  0  0  0  0
   39.5050   26.8800   39.9570 C   0  0  0  0  0  0  0  0  0  0  0  0
   38.4750   27.0200   40.8320 N   0  0  0  0  0  0  0  0  0  0  0  0
   40.2000   30.1530   39.5520 H   0  0  0  0  0  0  0  0  0  0  0  0
   39.9280   25.9650   39.5510 H   0  0  0  0  0  0  0  0  0  0  0  0
   36.9210   28.0130   42.1460 C   0  0  0  0  0  3  0  0  0  0  0  0
   36.9230   26.9000   43.0990 C   0  0  0  0  0  2  0  0  0  0  0  0
   37.2550   28.1890   43.6730 C   0  0  0  0  0  2  0  0  0  0  0  0
   38.2730   30.5770   41.2200 O   0  0  0  0  0  0  0  0  0  0  0  0
   36.7330   30.8620   39.0890 O   0  0  0  0  0  0  0  0  0  0  0  0
   36.9510   31.3700   40.4790 P   0  0  0  0  0  0  0  0  0  0  0  0
   35.5450   31.0440   41.3570 O   0  0  0  0  0  0  0  0  0  0  0  0
   34.8830   31.7320   41.0860 H   0  0  0  0  0  0  0  0  0  0  0  0
   37.1210   33.0480   40.4480 O   0  0  0  0  0  0  0  0  0  0  0  0
   38.0280   33.3350   40.1960 H   0  0  0  0  0  0  0  0  0  0  0  0
  1  9  1  0  0  0  0
  2 12  1  0  0  0  0
  2  1  2  0  0  0  0
  3  2  1  0  0  0  0
  4  3  2  0  0  0  0
  4  5  1  0  0  0  0
  5  6  2  0  0  0  0
  6  1  1  0  0  0  0
  7  3  1  0  0  0  0
  8  5  1  0  0  0  0
  9 10  1  0  0  0  0
  9 11  1  0  0  0  0
 10 11  1  0  0  0  0
 13 14  2  0  0  0  0
 14 12  1  0  0  0  0
 14 15  1  0  0  0  0
 16 15  1  0  0  0  0
 17 14  1  0  0  0  0
 18 17  1  0  0  0  0
M  END
>  <minimizedAffinity>
-4.64126587

$$$$

 OpenBabel03252507123D

 18 19  0  0  0  0  0  0  0  0999 V2000
   38.1280   26.9270   41.7990 C   0  0  0  0  0  0  0  0  0  0  0  0
   37.5620   28.1830   42.0140 C   0  0  0  0  0  0  0  0  0  0  0  0
   38.3370   29.2200   42.5980 C   0  0  0  0  0  0  0  0  0  0  0  0
   39.6180   28.9340   42.9290 N   0  0  0  0  0  0  0  0  0  0  0  0
   40.1330   27.7190   42.7170 C   0  0  0  0  0  0  0  0  0  0  0  0
   39.4020   26.7200   42.1570 N   0  0  0  0  0  0  0  0  0  0  0  0
   37.7450   30.0980   42.6790 H   0  0  0  0  0  0  0  0  0  0  0  0
   41.1650   27.6960   43.0540 H   0  0  0  0  0  0  0  0  0  0  0  0
   37.6580   25.6430   41.1930 C   0  0  0  0  0  3  0  0  0  0  0  0
   38.0730   24.3550   41.7550 C   0  0  0  0  0  2  0  0  0  0  0  0
   36.7390   24.7800   42.1330 C   0  0  0  0  0  2  0  0  0  0  0  0
   36.2280   28.2940   41.6190 O   0  0  0  0  0  0  0  0  0  0  0  0
   36.5870   29.6460   39.3750 O   0  0  0  0  0  0  0  0  0  0  0  0
   35.7120   29.5540   40.5850 P   0  0  0  0  0  0  0  0  0  0  0  0
   34.1450   29.2220   40.0460 O   0  0  0  0  0  0  0  0  0  0  0  0
   33.7810   30.0820   39.7060 H   0  0  0  0  0  0  0  0  0  0  0  0
   35.6480   31.0550   41.3520 O   0  0  0  0  0  0  0  0  0  0  0  0
   36.4310   31.2240   41.9260 H   0  0  0  0  0  0  0  0  0  0  0  0
  1  2  2  0  0  0  0
  1  6  1  0  0  0  0
  2  3  1  0  0  0  0
  3  7  1  0  0  0  0
  3  4  2  0  0  0  0
  5  4  1  0  0  0  0
  5  8  1  0  0  0  0
  6  5  2  0  0  0  0
  9 10  1  0  0  0  0
  9  1  1  0  0  0  0
  9 11  1  0  0  0  0
 10 11  1  0  0  0  0
 12  2  1  0  0  0  0
 13 14  2  0  0  0  0
 14 17  1  0  0  0  0
 14 12  1  0  0  0  0
 15 14  1  0  0  0  0
 16 15  1  0  0  0  0
 17 18  1  0  0  0  0
M  END
>  <minimizedAffinity>
-4.55503178

$$$$

 OpenBabel03252507123D

 18 19  0  0  0  0  0  0  0  0999 V2000
   37.6280   28.0350   40.9520 C   0  0  0  0  0  0  0  0  0  0  0  0
   37.9980   29.2370   41.5560 C   0  0  0  0  0  0  0  0  0  0  0  0
   38.1610   29.3010   42.9660 C   0  0  0  0  0  0  0  0  0  0  0  0
   37.9420   28.1690   43.6750 N   0  0  0  0  0  0  0  0  0  0  0  0
   37.5830   27.0330   43.0690 C   0  0  0  0  0  0  0  0  0  0  0  0
   37.4260   26.9580   41.7220 N   0  0  0  0  0  0  0  0  0  0  0  0
   38.4460   30.2860   43.2410 H   0  0  0  0  0  0  0  0  0  0  0  0
   37.4540   26.2490   43.8110 H   0  0  0  0  0  0  0  0  0  0  0  0
   37.4060   27.5820   39.5450 C   0  0  0  0  0  3  0  0  0  0  0  0
   36.5130   26.4570   39.2530 C   0  0  0  0  0  2  0  0  0  0  0  0
   35.9310   27.7660   39.0280 C   0  0  0  0  0  2  0  0  0  0  0  0
   38.1720   30.3020   40.6720 O   0  0  0  0  0  0  0  0  0  0  0  0
   36.4560   31.2070   38.8740 O   0  0  0  0  0  0  0  0  0  0  0  0
   36.8840   31.3630   40.2990 P   0  0  0  0  0  0  0  0  0  0  0  0
   35.5520   30.9800   41.2660 O   0  0  0  0  0  0  0  0  0  0  0  0
   34.9520   31.7710   41.2390 H   0  0  0  0  0  0  0  0  0  0  0  0
   37.2500   32.9810   40.6060 O   0  0  0  0  0  0  0  0  0  0  0  0
   38.1540   33.2320   40.3030 H   0  0  0  0  0  0  0  0  0  0  0  0
  1  2  2  0  0  0  0
  1  6  1  0  0  0  0
  2  3  1  0  0  0  0
  3  7  1  0  0  0  0
  3  4  2  0  0  0  0
  5  4  1  0  0  0  0
  5  8  1  0  0  0  0
  6  5  2  0  0  0  0
  9  1  1  0  0  0  0
 10  9  1  0  0  0  0
 11 10  1  0  0  0  0
 11  9  1  0  0  0  0
 12  2  1  0  0  0  0
 13 14  2  0  0  0  0
 14 17  1  0  0  0  0
 14 12  1  0  0  0  0
 14 15  1  0  0  0  0
 16 15  1  0  0  0  0
 18 17  1  0  0  0  0
M  END
>  <minimizedAffinity>
-4.50642204

$$$$

 OpenBabel03252507123D

 18 19  0  0  0  0  0  0  0  0999 V2000
   37.6330   29.8020   41.8700 C   0  0  0  0  0  0  0  0  0  0  0  0
   37.5100   30.8510   40.9590 C   0  0  0  0  0  0  0  0  0  0  0  0
   36.4380   30.8580   40.0270 C   0  0  0  0  0  0  0  0  0  0  0  0
   35.5670   29.8220   40.0640 N   0  0  0  0  0  0  0  0  0  0  0  0
   35.7140   28.8270   40.9440 C   0  0  0  0  0  0  0  0  0  0  0  0
   36.7330   28.8100   41.8430 N   0  0  0  0  0  0  0  0  0  0  0  0
   36.5040   31.7290   39.4230 H   0  0  0  0  0  0  0  0  0  0  0  0
   34.9200   28.0980   40.8070 H   0  0  0  0  0  0  0  0  0  0  0  0
   38.5690   29.4760   42.9890 C   0  0  0  0  0  3  0  0  0  0  0  0
   39.0430   28.1050   43.1930 C   0  0  0  0  0  2  0  0  0  0  0  0
   39.9880   28.9800   42.5260 C   0  0  0  0  0  2  0  0  0  0  0  0
   38.5010   31.8270   41.0590 O   0  0  0  0  0  0  0  0  0  0  0  0
   39.5760   34.1580   40.4230 O   0  0  0  0  0  0  0  0  0  0  0  0
   38.5260   33.1760   40.0090 P   0  0  0  0  0  0  0  0  0  0  0  0
   38.9130   32.6570   38.4480 O   0  0  0  0  0  0  0  0  0  0  0  0
   38.6350   33.3870   37.8360 H   0  0  0  0  0  0  0  0  0  0  0  0
   37.0340   33.9560   39.9000 O   0  0  0  0  0  0  0  0  0  0  0  0
   36.5940   34.0640   40.7750 H   0  0  0  0  0  0  0  0  0  0  0  0
  1  9  1  0  0  0  0
  2 12  1  0  0  0  0
  2  1  2  0  0  0  0
  3  4  2  0  0  0  0
  3  2  1  0  0  0  0
  4  5  1  0  0  0  0
  5  6  2  0  0  0  0
  6  1  1  0  0  0  0
  7  3  1  0  0  0  0
  8  5  1  0  0  0  0
  9 10  1  0  0  0  0
 11  9  1  0  0  0  0
 11 10  1  0  0  0  0
 14 13  2  0  0  0  0
 14 12  1  0  0  0  0
 15 14  1  0  0  0  0
 16 15  1  0  0  0  0
 17 14  1  0  0  0  0
 17 18  1  0  0  0  0
M  END
>  <minimizedAffinity>
-4.42634201

$$$$

 OpenBabel03252507123D

 18 19  0  0  0  0  0  0  0  0999 V2000
   38.4290   31.6460   39.3740 C   0  0  0  0  0  0  0  0  0  0  0  0
   38.7770   30.8220   40.4450 C   0  0  0  0  0  0  0  0  0  0  0  0
   39.8340   31.2010   41.3160 C   0  0  0  0  0  0  0  0  0  0  0  0
   40.4700   32.3680   41.0600 N   0  0  0  0  0  0  0  0  0  0  0  0
   40.1180   33.1340   40.0230 C   0  0  0  0  0  0  0  0  0  0  0  0
   39.1080   32.7840   39.1840 N   0  0  0  0  0  0  0  0  0  0  0  0
   39.9520   30.4600   42.0670 H   0  0  0  0  0  0  0  0  0  0  0  0
   40.7490   34.0180   39.9910 H   0  0  0  0  0  0  0  0  0  0  0  0
   37.3850   31.6060   38.3050 C   0  0  0  0  0  3  0  0  0  0  0  0
   37.7510   31.7780   36.8960 C   0  0  0  0  0  2  0  0  0  0  0  0
   37.5300   30.4040   37.3010 C   0  0  0  0  0  2  0  0  0  0  0  0
   38.0210   29.6550   40.5500 O   0  0  0  0  0  0  0  0  0  0  0  0
   35.7710   28.4090   41.1660 O   0  0  0  0  0  0  0  0  0  0  0  0
   36.6090   29.5980   41.5130 P   0  0  0  0  0  0  0  0  0  0  0  0
   37.0510   29.4410   43.1370 O   0  0  0  0  0  0  0  0  0  0  0  0
   36.2540   29.7030   43.6680 H   0  0  0  0  0  0  0  0  0  0  0  0
   35.6770   31.0000   41.4030 O   0  0  0  0  0  0  0  0  0  0  0  0
   35.5880   31.3270   40.4780 H   0  0  0  0  0  0  0  0  0  0  0  0
  1  2  1  0  0  0  0
  2 12  1  0  0  0  0
  2  3  2  0  0  0  0
  3  7  1  0  0  0  0
  4  3  1  0  0  0  0
  5  4  2  0  0  0  0
  6  1  2  0  0  0  0
  6  5  1  0  0  0  0
  8  5  1  0  0  0  0
  9  1  1  0  0  0  0
 10 11  1  0  0  0  0
 10  9  1  0  0  0  0
 11  9  1  0  0  0  0
 12 14  1  0  0  0  0
 13 14  2  0  0  0  0
 14 15  1  0  0  0  0
 15 16  1  0  0  0  0
 17 14  1  0  0  0  0
 18 17  1  0  0  0  0
M  END
>  <minimizedAffinity>
-4.34727859

$$$$

 OpenBabel03252507123D

 18 19  0  0  0  0  0  0  0  0999 V2000
   37.1950   29.1520   41.3800 C   0  0  0  0  0  0  0  0  0  0  0  0
   37.7170   29.9770   40.3830 C   0  0  0  0  0  0  0  0  0  0  0  0
   37.2960   29.8140   39.0360 C   0  0  0  0  0  0  0  0  0  0  0  0
   36.3900   28.8430   38.7740 N   0  0  0  0  0  0  0  0  0  0  0  0
   35.9120   28.0640   39.7490 C   0  0  0  0  0  0  0  0  0  0  0  0
   36.3040   28.2110   41.0420 N   0  0  0  0  0  0  0  0  0  0  0  0
   37.7930   30.5270   38.4250 H   0  0  0  0  0  0  0  0  0  0  0  0
   35.2050   27.3510   39.3330 H   0  0  0  0  0  0  0  0  0  0  0  0
   37.3570   29.0510   42.8620 C   0  0  0  0  0  3  0  0  0  0  0  0
   37.2210   27.7600   43.5430 C   0  0  0  0  0  2  0  0  0  0  0  0
   38.5890   28.1870   43.3230 C   0  0  0  0  0  2  0  0  0  0  0  0
   38.6460   30.9150   40.8330 O   0  0  0  0  0  0  0  0  0  0  0  0
   39.1040   32.8280   39.0650 O   0  0  0  0  0  0  0  0  0  0  0  0
   38.5100   32.5680   40.4130 P   0  0  0  0  0  0  0  0  0  0  0  0
   36.8750   32.9850   40.3280 O   0  0  0  0  0  0  0  0  0  0  0  0
   36.8390   33.9770   40.3760 H   0  0  0  0  0  0  0  0  0  0  0  0
   39.2110   33.5980   41.5490 O   0  0  0  0  0  0  0  0  0  0  0  0
   40.0860   33.2770   41.8680 H   0  0  0  0  0  0  0  0  0  0  0  0
  1  9  1  0  0  0  0
  2 12  1  0  0  0  0
  2  1  2  0  0  0  0
  3  2  1  0  0  0  0
  4  3  2  0  0  0  0
  4  5  1  0  0  0  0
  5  6  2  0  0  0  0
  6  1  1  0  0  0  0
  7  3  1  0  0  0  0
  8  5  1  0  0  0  0
  9 11  1  0  0  0  0
  9 10  1  0  0  0  0
 11 10  1  0  0  0  0
 13 14  2  0  0  0  0
 14 12  1  0  0  0  0
 14 17  1  0  0  0  0
 15 16  1  0  0  0  0
 15 14  1  0  0  0  0
 17 18  1  0  0  0  0
M  END
>  <minimizedAffinity>
-4.25492573

$$$$

 OpenBabel03252507123D

 18 19  0  0  0  0  0  0  0  0999 V2000
   39.0840   28.1030   43.1220 C   0  0  0  0  0  0  0  0  0  0  0  0
   39.1310   29.3890   42.5840 C   0  0  0  0  0  0  0  0  0  0  0  0
   40.3650   29.9190   42.1200 C   0  0  0  0  0  0  0  0  0  0  0  0
   41.4630   29.1360   42.2270 N   0  0  0  0  0  0  0  0  0  0  0  0
   41.3890   27.9090   42.7520 C   0  0  0  0  0  0  0  0  0  0  0  0
   40.2150   27.3900   43.1970 N   0  0  0  0  0  0  0  0  0  0  0  0
   40.2060   30.9000   41.7440 H   0  0  0  0  0  0  0  0  0  0  0  0
   42.3740   27.4510   42.7500 H   0  0  0  0  0  0  0  0  0  0  0  0
   38.0040   27.2190   43.6570 C   0  0  0  0  0  3  0  0  0  0  0  0
   36.5950   27.4960   43.3620 C   0  0  0  0  0  2  0  0  0  0  0  0
   37.1890   26.4490   42.5530 C   0  0  0  0  0  2  0  0  0  0  0  0
   37.9050   30.0550   42.5610 O   0  0  0  0  0  0  0  0  0  0  0  0
   37.8640   31.6320   40.4380 O   0  0  0  0  0  0  0  0  0  0  0  0
   37.1560   30.4830   41.0840 P   0  0  0  0  0  0  0  0  0  0  0  0
   37.2470   29.1750   40.0170 O   0  0  0  0  0  0  0  0  0  0  0  0
   36.5700   29.3450   39.3110 H   0  0  0  0  0  0  0  0  0  0  0  0
   35.5190   30.8500   41.2550 O   0  0  0  0  0  0  0  0  0  0  0  0
   35.3340   31.4120   42.0420 H   0  0  0  0  0  0  0  0  0  0  0  0
  1  6  1  0  0  0  0
  1  9  1  0  0  0  0
  2  1  2  0  0  0  0
  3  4  2  0  0  0  0
  3  2  1  0  0  0  0
  4  5  1  0  0  0  0
  5  6  2  0  0  0  0
  7  3  1  0  0  0  0
  8  5  1  0  0  0  0
 10  9  1  0  0  0  0
 11 10  1  0  0  0  0
 11  9  1  0  0  0  0
 12  2  1  0  0  0  0
 13 14  2  0  0  0  0
 14 17  1  0  0  0  0
 14 12  1  0  0  0  0
 15 14  1  0  0  0  0
 16 15  1  0  0  0  0
 17 18  1  0  0  0  0
M  END
>  <minimizedAffinity>
-4.20917463

$$$$

 OpenBabel03252507123D

 18 19  0  0  0  0  0  0  0  0999 V2000
   38.8620   28.2780   42.9530 C   0  0  0  0  0  0  0  0  0  0  0  0
   40.1180   27.7200   43.1900 C   0  0  0  0  0  0  0  0  0  0  0  0
   41.2910   28.4770   42.9270 C   0  0  0  0  0  0  0  0  0  0  0  0
   41.1330   29.7320   42.4450 N   0  0  0  0  0  0  0  0  0  0  0  0
   39.9160   30.2390   42.2230 C   0  0  0  0  0  0  0  0  0  0  0  0
   38.7870   29.5260   42.4720 N   0  0  0  0  0  0  0  0  0  0  0  0
   42.1460   27.8950   43.1690 H   0  0  0  0  0  0  0  0  0  0  0  0
   40.0070   31.2500   41.8350 H   0  0  0  0  0  0  0  0  0  0  0  0
   37.4500   27.8240   43.1390 C   0  0  0  0  0  3  0  0  0  0  0  0
   36.4490   28.0450   42.0920 C   0  0  0  0  0  2  0  0  0  0  0  0
   36.9910   26.7020   42.1370 C   0  0  0  0  0  2  0  0  0  0  0  0
   40.0910   26.4140   43.6780 O   0  0  0  0  0  0  0  0  0  0  0  0
   40.4340   25.4070   41.2560 O   0  0  0  0  0  0  0  0  0  0  0  0
   40.5950   25.0960   42.7110 P   0  0  0  0  0  0  0  0  0  0  0  0
   42.2380   24.8060   42.9820 O   0  0  0  0  0  0  0  0  0  0  0  0
   42.4160   23.8880   42.6480 H   0  0  0  0  0  0  0  0  0  0  0  0
   39.7870   23.6610   43.0760 O   0  0  0  0  0  0  0  0  0  0  0  0
   38.8190   23.7910   43.2060 H   0  0  0  0  0  0  0  0  0  0  0  0
  1  9  1  0  0  0  0
  1  2  1  0  0  0  0
  2 12  1  0  0  0  0
  3  7  1  0  0  0  0
  3  2  2  0  0  0  0
  4  3  1  0  0  0  0
  5  4  2  0  0  0  0
  5  6  1  0  0  0  0
  6  1  2  0  0  0  0
  8  5  1  0  0  0  0
 10 11  1  0  0  0  0
 10  9  1  0  0  0  0
 11  9  1  0  0  0  0
 13 14  2  0  0  0  0
 14 15  1  0  0  0  0
 14 17  1  0  0  0  0
 14 12  1  0  0  0  0
 16 15  1  0  0  0  0
 17 18  1  0  0  0  0
M  END
>  <minimizedAffinity>
-4.20837927

$$$$

 OpenBabel03252507123D

 18 19  0  0  0  0  0  0  0  0999 V2000
   39.1450   28.5470   41.3360 C   0  0  0  0  0  0  0  0  0  0  0  0
   38.3310   29.4890   41.9640 C   0  0  0  0  0  0  0  0  0  0  0  0
   37.6010   29.1320   43.1290 C   0  0  0  0  0  0  0  0  0  0  0  0
   37.7310   27.8640   43.5860 N   0  0  0  0  0  0  0  0  0  0  0  0
   38.5150   26.9810   42.9600 C   0  0  0  0  0  0  0  0  0  0  0  0
   39.2190   27.3110   41.8460 N   0  0  0  0  0  0  0  0  0  0  0  0
   37.0450   29.9710   43.4660 H   0  0  0  0  0  0  0  0  0  0  0  0
   38.4770   26.0270   43.4790 H   0  0  0  0  0  0  0  0  0  0  0  0
   40.0650   28.5600   40.1570 C   0  0  0  0  0  3  0  0  0  0  0  0
   40.2210   27.3700   39.3170 C   0  0  0  0  0  2  0  0  0  0  0  0
   39.3430   28.3860   38.7700 C   0  0  0  0  0  2  0  0  0  0  0  0
   38.3120   30.7420   41.3500 O   0  0  0  0  0  0  0  0  0  0  0  0
   36.7590   30.6180   39.2130 O   0  0  0  0  0  0  0  0  0  0  0  0
   36.9200   31.3060   40.5320 P   0  0  0  0  0  0  0  0  0  0  0  0
   35.5510   30.9470   41.4550 O   0  0  0  0  0  0  0  0  0  0  0  0
   34.8230   31.5290   41.1100 H   0  0  0  0  0  0  0  0  0  0  0  0
   36.9200   32.9770   40.3020 O   0  0  0  0  0  0  0  0  0  0  0  0
   37.7960   33.3220   40.0100 H   0  0  0  0  0  0  0  0  0  0  0  0
  1  6  2  0  0  0  0
  1  2  1  0  0  0  0
  2  3  2  0  0  0  0
  3  7  1  0  0  0  0
  3  4  1  0  0  0  0
  5  8  1  0  0  0  0
  5  4  2  0  0  0  0
  6  5  1  0  0  0  0
  9  1  1  0  0  0  0
 10  9  1  0  0  0  0
 11 10  1  0  0  0  0
 11  9  1  0  0  0  0
 12  2  1  0  0  0  0
 13 14  2  0  0  0  0
 14 12  1  0  0  0  0
 14 15  1  0  0  0  0
 16 15  1  0  0  0  0
 17 14  1  0  0  0  0
 18 17  1  0  0  0  0
M  END
>  <minimizedAffinity>
-4.20774269

$$$$
