
 OpenBabel03252509243D

 21 23  0  0  1  0  0  0  0  0999 V2000
   44.6890   35.2800   45.0970 C   0  0  0  0  0  0  0  0  0  0  0  0
   45.1820   35.6620   43.8310 C   0  0  0  0  0  0  0  0  0  0  0  0
   46.1980   34.8920   43.3370 C   0  0  0  0  0  0  0  0  0  0  0  0
   46.6940   33.8120   44.0570 N   0  0  0  0  0  0  0  0  0  0  0  0
   46.1930   33.4900   45.2550 C   0  0  0  0  0  0  0  0  0  0  0  0
   45.1780   34.2350   45.7790 N   0  0  0  0  0  0  0  0  0  0  0  0
   43.8830   35.8670   45.5200 H   0  0  0  0  0  0  0  0  0  0  0  0
   46.6830   32.6310   45.6860 H   0  0  0  0  0  0  0  0  0  0  0  0
   46.7220   35.1710   41.9500 C   0  0  1  0  0  0  0  0  0  0  0  0
   48.2530   35.4110   41.9970 C   0  0  0  0  0  0  0  0  0  0  0  0
   47.5430   34.2090   41.3120 C   0  0  2  0  0  0  0  0  0  0  0  0
   46.1770   35.9610   41.4040 H   0  0  0  0  0  0  0  0  0  0  0  0
   48.6090   36.2070   41.3500 H   0  0  0  0  0  0  0  0  0  0  0  0
   48.8010   35.2130   42.9120 H   0  0  0  0  0  0  0  0  0  0  0  0
   47.7530   33.2420   41.8200 H   0  0  0  0  0  0  0  0  0  0  0  0
   47.6010   34.1620   39.8070 C   0  0  0  0  0  3  0  0  0  0  0  0
   48.3390   33.0980   39.0980 C   0  0  0  0  0  2  0  0  0  0  0  0
   46.8470   32.9850   39.1570 C   0  0  0  0  0  2  0  0  0  0  0  0
   44.6840   36.7940   43.1280 N   0  0  0  0  0  0  0  0  0  0  0  0
   44.2710   36.8860   42.2060 H   0  0  0  0  0  0  0  0  0  0  0  0
   44.7070   37.7540   43.5660 H   0  0  0  0  0  0  0  0  0  0  0  0
  1  7  1  0  0  0  0
  1  6  1  0  0  0  0
  2  1  2  0  0  0  0
  3  2  1  0  0  0  0
  3  4  2  0  0  0  0
  4  5  1  0  0  0  0
  5  8  1  0  0  0  0
  5  6  2  0  0  0  0
  9 12  1  6  0  0  0
  9 10  1  0  0  0  0
  9  3  1  0  0  0  0
 10 14  1  0  0  0  0
 11 15  1  1  0  0  0
 11  9  1  0  0  0  0
 11 10  1  0  0  0  0
 13 10  1  0  0  0  0
 16 11  1  0  0  0  0
 17 18  1  0  0  0  0
 17 16  1  0  0  0  0
 18 16  1  0  0  0  0
 19 21  1  0  0  0  0
 19  2  1  0  0  0  0
 20 19  1  0  0  0  0
M  END
>  <minimizedAffinity>
-4.39037943

>  <minimizedRMSD>
0.607767463

$$$$
