
 OpenBabel03252505413D

 30 33  0  0  1  0  0  0  0  0999 V2000
   48.0680   33.8340   41.9190 C   0  0  1  0  0  0  0  0  0  0  0  0
   48.3820   35.2460   41.3370 C   0  0  0  0  0  0  0  0  0  0  0  0
   46.9860   34.7110   41.5240 C   0  0  2  0  0  0  0  0  0  0  0  0
   48.3590   33.7210   42.9950 H   0  0  0  0  0  0  0  0  0  0  0  0
   48.8070   35.9530   42.0460 H   0  0  0  0  0  0  0  0  0  0  0  0
   48.7970   35.2800   40.3130 H   0  0  0  0  0  0  0  0  0  0  0  0
   46.4150   34.6340   40.6000 H   0  0  0  0  0  0  0  0  0  0  0  0
   48.5490   32.7310   41.0510 C   0  0  0  0  0  0  0  0  0  0  0  0
   47.6000   32.0110   40.2650 C   0  0  0  0  0  0  0  0  0  0  0  0
   48.0510   30.9840   39.4460 C   0  0  0  0  0  0  0  0  0  0  0  0
   49.3870   30.7190   39.4380 N   0  0  0  0  0  0  0  0  0  0  0  0
   50.2600   31.4230   40.1980 C   0  0  0  0  0  0  0  0  0  0  0  0
   49.8180   32.4210   40.9930 N   0  0  0  0  0  0  0  0  0  0  0  0
   46.5610   32.2210   40.2740 H   0  0  0  0  0  0  0  0  0  0  0  0
   47.3550   30.4200   38.8380 H   0  0  0  0  0  0  0  0  0  0  0  0
   51.6810   30.9800   40.0410 C   0  0  0  0  0  0  0  0  0  0  0  0
   52.3860   31.1060   41.2140 F   0  0  0  0  0  0  0  0  0  0  0  0
   52.3170   31.8030   39.0920 F   0  0  0  0  0  0  0  0  0  0  0  0
   51.7080   29.7090   39.5090 F   0  0  0  0  0  0  0  0  0  0  0  0
   46.1700   35.2470   42.6660 C   0  0  0  0  0  0  0  0  0  0  0  0
   45.7460   34.4310   43.7000 C   0  0  0  0  0  0  0  0  0  0  0  0
   45.0060   34.8870   44.7540 C   0  0  0  0  0  0  0  0  0  0  0  0
   44.6790   36.2010   44.7740 N   0  0  0  0  0  0  0  0  0  0  0  0
   45.0860   37.0130   43.7670 C   0  0  0  0  0  0  0  0  0  0  0  0
   45.8200   36.5590   42.7240 N   0  0  0  0  0  0  0  0  0  0  0  0
   46.0280   33.3870   43.6470 H   0  0  0  0  0  0  0  0  0  0  0  0
   44.7250   34.1720   45.5080 H   0  0  0  0  0  0  0  0  0  0  0  0
   44.7330   38.4500   43.7820 C   0  0  0  0  0  3  0  0  0  0  0  0
   45.3990   39.2020   44.9450 C   0  0  0  0  0  2  0  0  0  0  0  0
   45.7250   39.4980   43.5200 C   0  0  0  0  0  2  0  0  0  0  0  0
  1  4  1  1  0  0  0
  2  3  1  0  0  0  0
  2  1  1  0  0  0  0
  2  5  1  0  0  0  0
  3  7  1  6  0  0  0
  3  1  1  0  0  0  0
  3 20  1  0  0  0  0
  6  2  1  0  0  0  0
  8  1  1  0  0  0  0
  9 14  1  0  0  0  0
  9  8  2  0  0  0  0
 10  9  1  0  0  0  0
 11 10  2  0  0  0  0
 11 12  1  0  0  0  0
 12 13  2  0  0  0  0
 13  8  1  0  0  0  0
 15 10  1  0  0  0  0
 16 12  1  0  0  0  0
 16 17  1  0  0  0  0
 18 16  1  0  0  0  0
 19 16  1  0  0  0  0
 20 25  2  0  0  0  0
 20 21  1  0  0  0  0
 21 22  2  0  0  0  0
 22 23  1  0  0  0  0
 22 27  1  0  0  0  0
 24 28  1  0  0  0  0
 24 23  2  0  0  0  0
 25 24  1  0  0  0  0
 26 21  1  0  0  0  0
 28 29  1  0  0  0  0
 30 28  1  0  0  0  0
 30 29  1  0  0  0  0
M  END
>  <minimizedAffinity>
-3.40605021

>  <minimizedRMSD>
6.4710331

$$$$
