
 OpenBabel03252506203D

 27 29  0  0  0  0  0  0  0  0999 V2000
   45.3690   35.3200   42.9730 C   0  0  0  0  0  0  0  0  0  0  0  0
   44.5830   35.1210   41.8270 C   0  0  0  0  0  0  0  0  0  0  0  0
   45.1320   34.3030   40.8100 C   0  0  0  0  0  0  0  0  0  0  0  0
   46.3610   33.7640   40.9890 N   0  0  0  0  0  0  0  0  0  0  0  0
   47.0760   33.9920   42.1220 C   0  0  0  0  0  0  0  0  0  0  0  0
   46.5770   34.7710   43.1120 N   0  0  0  0  0  0  0  0  0  0  0  0
   43.6290   35.5820   41.7680 H   0  0  0  0  0  0  0  0  0  0  0  0
   44.5410   34.1500   39.9410 H   0  0  0  0  0  0  0  0  0  0  0  0
   49.4080   35.8990   41.8720 Cl  0  0  0  0  0  0  0  0  0  0  0  0
   49.5190   34.1840   42.1220 C   0  0  0  0  0  0  0  0  0  0  0  0
   48.3930   33.3700   42.2270 C   0  0  0  0  0  0  0  0  0  0  0  0
   48.4450   32.0130   42.4240 C   0  0  0  0  0  0  0  0  0  0  0  0
   49.7090   31.4510   42.5200 C   0  0  0  0  0  0  0  0  0  0  0  0
   50.8890   32.1670   42.4300 C   0  0  0  0  0  0  0  0  0  0  0  0
   50.7310   33.5360   42.2290 C   0  0  0  0  0  0  0  0  0  0  0  0
   47.5570   31.4200   42.4990 H   0  0  0  0  0  0  0  0  0  0  0  0
   49.7360   30.3740   42.6750 H   0  0  0  0  0  0  0  0  0  0  0  0
   51.8450   31.7050   42.5070 H   0  0  0  0  0  0  0  0  0  0  0  0
   51.6330   34.1260   42.1540 H   0  0  0  0  0  0  0  0  0  0  0  0
   44.8050   36.1650   44.0280 C   0  0  0  0  0  3  0  0  0  0  0  0
   45.1920   37.4130   44.1120 C   0  0  0  0  0  3  0  0  0  0  0  0
   44.6700   38.3390   45.1510 C   0  0  0  0  0  0  0  0  0  0  0  0
   44.7460   37.8200   46.1270 H   0  0  0  0  0  0  0  0  0  0  0  0
   43.5670   38.5120   44.9940 H   0  0  0  0  0  0  0  0  0  0  0  0
   45.4460   39.6300   45.2130 C   0  0  0  0  0  3  0  0  0  0  0  0
   44.7770   40.9360   45.0690 C   0  0  0  0  0  2  0  0  0  0  0  0
   45.1410   40.4640   46.4670 C   0  0  0  0  0  2  0  0  0  0  0  0
  1  6  1  0  0  0  0
  1 20  1  0  0  0  0
  2  1  2  0  0  0  0
  3  4  2  0  0  0  0
  3  2  1  0  0  0  0
  4  5  1  0  0  0  0
  5 11  1  0  0  0  0
  5  6  2  0  0  0  0
  7  2  1  0  0  0  0
  8  3  1  0  0  0  0
  9 10  1  0  0  0  0
 10 11  2  0  0  0  0
 10 15  1  0  0  0  0
 11 12  1  0  0  0  0
 12 16  1  0  0  0  0
 12 13  2  0  0  0  0
 13 17  1  0  0  0  0
 14 18  1  0  0  0  0
 14 13  1  0  0  0  0
 15 14  2  0  0  0  0
 19 15  1  0  0  0  0
 20 21  2  0  0  0  0
 21 22  1  0  0  0  0
 22 25  1  0  0  0  0
 22 23  1  0  0  0  0
 24 22  1  0  0  0  0
 25 27  1  0  0  0  0
 26 25  1  0  0  0  0
 26 27  1  0  0  0  0
M  END
>  <minimizedAffinity>
-3.4449513

>  <minimizedRMSD>
1.03396976

$$$$
