
 OpenBabel03252509113D

 25 28  0  0  0  0  0  0  0  0999 V2000
   47.1140   31.2470   45.0110 C   0  0  0  0  0  0  0  0  0  0  0  0
   47.7880   31.5300   43.8250 C   0  0  0  0  0  0  0  0  0  0  0  0
   48.9110   30.8090   43.4000 C   0  0  0  0  0  0  0  0  0  0  0  0
   49.3750   29.7680   44.1890 C   0  0  0  0  0  0  0  0  0  0  0  0
   50.3980   28.8850   44.1170 N   0  0  0  0  0  0  0  0  0  0  0  0
   50.3730   28.0790   45.2050 C   0  0  0  0  0  0  0  0  0  0  0  0
   49.3230   28.4780   45.9470 N   0  0  0  0  0  0  0  0  0  0  0  0
   48.6960   29.5070   45.3520 C   0  0  0  0  0  0  0  0  0  0  0  0
   47.5830   30.1980   45.8030 C   0  0  0  0  0  0  0  0  0  0  0  0
   46.2450   31.8530   45.2800 H   0  0  0  0  0  0  0  0  0  0  0  0
   51.1010   28.8340   43.3520 H   0  0  0  0  0  0  0  0  0  0  0  0
   51.1020   27.2850   45.3680 H   0  0  0  0  0  0  0  0  0  0  0  0
   47.0670   29.9770   46.7160 H   0  0  0  0  0  0  0  0  0  0  0  0
   47.1180   34.9050   42.5320 C   0  0  0  0  0  0  0  0  0  0  0  0
   46.4180   34.6490   41.3550 C   0  0  0  0  0  0  0  0  0  0  0  0
   46.1780   33.3140   41.0110 C   0  0  0  0  0  0  0  0  0  0  0  0
   46.6510   32.3500   41.8590 N   0  0  0  0  0  0  0  0  0  0  0  0
   47.3210   32.6170   42.9830 C   0  0  0  0  0  0  0  0  0  0  0  0
   47.5460   33.8870   43.3060 N   0  0  0  0  0  0  0  0  0  0  0  0
   47.3650   35.8700   42.9060 H   0  0  0  0  0  0  0  0  0  0  0  0
   46.0990   35.4800   40.7770 H   0  0  0  0  0  0  0  0  0  0  0  0
   45.6450   33.0920   40.1160 H   0  0  0  0  0  0  0  0  0  0  0  0
   49.5960   31.1650   42.1330 C   0  0  0  0  0  3  0  0  0  0  0  0
   51.1430   31.2160   42.2450 C   0  0  0  0  0  2  0  0  0  0  0  0
   50.3510   32.4430   41.9850 C   0  0  0  0  0  2  0  0  0  0  0  0
  1 10  1  0  0  0  0
  1  9  1  0  0  0  0
  2  1  2  0  0  0  0
  3  2  1  0  0  0  0
  3  4  2  0  0  0  0
  4  8  1  0  0  0  0
  5  4  1  0  0  0  0
  5  6  1  0  0  0  0
  6 12  1  0  0  0  0
  6  7  2  0  0  0  0
  8  9  2  0  0  0  0
  8  7  1  0  0  0  0
  9 13  1  0  0  0  0
 11  5  1  0  0  0  0
 14 20  1  0  0  0  0
 14 19  1  0  0  0  0
 15 14  2  0  0  0  0
 16 15  1  0  0  0  0
 16 17  2  0  0  0  0
 17 18  1  0  0  0  0
 18 19  2  0  0  0  0
 18  2  1  0  0  0  0
 21 15  1  0  0  0  0
 22 16  1  0  0  0  0
 23 24  1  0  0  0  0
 23  3  1  0  0  0  0
 25 23  1  0  0  0  0
 25 24  1  0  0  0  0
M  END
>  <minimizedAffinity>
-3.06822586

>  <minimizedRMSD>
4.46700764

$$$$
