
 OpenBabel03252507293D

 37 40  0  0  1  0  0  0  0  0999 V2000
   37.8320   26.4600   40.6330 C   0  0  2  0  0  0  0  0  0  0  0  0
   36.9760   25.2650   40.7720 C   0  0  0  0  0  0  0  0  0  0  0  0
   37.7840   24.0950   41.2270 C   0  0  0  0  0  0  0  0  0  0  0  0
   38.9050   24.3530   42.1730 C   0  0  0  0  0  0  0  0  0  0  0  0
   39.6060   25.6400   42.0400 C   0  0  0  0  0  0  0  0  0  0  0  0
   38.5740   26.7620   41.8540 C   0  0  2  0  0  0  0  0  0  0  0  0
   38.5990   26.1590   39.8520 H   0  0  0  0  0  0  0  0  0  0  0  0
   36.6900   25.0100   39.6960 H   0  0  0  0  0  0  0  0  0  0  0  0
   35.9990   25.3750   41.2370 H   0  0  0  0  0  0  0  0  0  0  0  0
   38.1030   23.4260   40.3960 H   0  0  0  0  0  0  0  0  0  0  0  0
   37.0600   23.4450   41.8040 H   0  0  0  0  0  0  0  0  0  0  0  0
   38.6390   24.1970   43.2600 H   0  0  0  0  0  0  0  0  0  0  0  0
   39.6640   23.5570   42.0060 H   0  0  0  0  0  0  0  0  0  0  0  0
   40.3180   25.5850   41.1910 H   0  0  0  0  0  0  0  0  0  0  0  0
   40.1780   25.8490   42.9630 H   0  0  0  0  0  0  0  0  0  0  0  0
   39.2800   27.5840   41.5900 H   0  0  0  0  0  0  0  0  0  0  0  0
   37.1860   27.6320   40.0400 C   0  0  0  0  0  0  0  0  0  0  0  0
   36.0700   27.4380   39.2200 C   0  0  0  0  0  0  0  0  0  0  0  0
   35.4830   28.5760   38.6460 C   0  0  0  0  0  0  0  0  0  0  0  0
   36.0360   29.8050   38.9210 N   0  0  0  0  0  0  0  0  0  0  0  0
   37.1140   29.9210   39.7220 C   0  0  0  0  0  0  0  0  0  0  0  0
   37.6860   28.8600   40.2760 N   0  0  0  0  0  0  0  0  0  0  0  0
   35.6010   26.5400   38.9800 H   0  0  0  0  0  0  0  0  0  0  0  0
   34.6190   28.5440   37.9960 H   0  0  0  0  0  0  0  0  0  0  0  0
   37.6530   31.2620   39.9780 C   0  0  0  0  0  0  0  0  0  0  0  0
   37.0550   32.3680   39.4100 C   0  0  0  0  0  0  0  0  0  0  0  0
   37.4900   33.6640   39.5950 C   0  0  0  0  0  0  0  0  0  0  0  0
   38.5960   33.7960   40.4080 C   0  0  0  0  0  0  0  0  0  0  0  0
   39.2140   32.6850   40.9910 C   0  0  0  0  0  0  0  0  0  0  0  0
   38.7300   31.4280   40.7660 N   0  0  0  0  0  0  0  0  0  0  0  0
   36.1850   32.2130   38.7760 H   0  0  0  0  0  0  0  0  0  0  0  0
   37.0060   34.5200   39.1390 H   0  0  0  0  0  0  0  0  0  0  0  0
   38.9980   34.7820   40.6010 H   0  0  0  0  0  0  0  0  0  0  0  0
   40.0780   32.7930   41.6250 H   0  0  0  0  0  0  0  0  0  0  0  0
   37.8960   27.0570   43.1360 C   0  0  0  0  0  3  0  0  0  0  0  0
   36.4780   27.4150   43.3040 C   0  0  0  0  0  2  0  0  0  0  0  0
   37.5900   28.3920   43.6790 C   0  0  0  0  0  2  0  0  0  0  0  0
  1  7  1  6  0  0  0
  1  2  1  0  0  0  0
  1  6  1  0  0  0  0
  2  3  1  0  0  0  0
  2  9  1  0  0  0  0
  3 11  1  0  0  0  0
  3  4  1  0  0  0  0
  4 12  1  0  0  0  0
  5  4  1  0  0  0  0
  5 15  1  0  0  0  0
  6 16  1  6  0  0  0
  6  5  1  0  0  0  0
  6 35  1  0  0  0  0
  8  2  1  0  0  0  0
 10  3  1  0  0  0  0
 13  4  1  0  0  0  0
 14  5  1  0  0  0  0
 17 22  1  0  0  0  0
 17  1  1  0  0  0  0
 18 17  2  0  0  0  0
 19 20  2  0  0  0  0
 19 18  1  0  0  0  0
 20 21  1  0  0  0  0
 21 25  1  0  0  0  0
 21 22  2  0  0  0  0
 23 18  1  0  0  0  0
 24 19  1  0  0  0  0
 25 30  1  0  0  0  0
 26 27  1  0  0  0  0
 26 25  2  0  0  0  0
 27 28  2  0  0  0  0
 28 33  1  0  0  0  0
 28 29  1  0  0  0  0
 29 34  1  0  0  0  0
 30 29  2  0  0  0  0
 31 26  1  0  0  0  0
 32 27  1  0  0  0  0
 35 36  1  0  0  0  0
 35 37  1  0  0  0  0
 36 37  1  0  0  0  0
M  END
>  <minimizedAffinity>
-5.8810358

$$$$

 OpenBabel03252507293D

 37 40  0  0  1  0  0  0  0  0999 V2000
   38.1960   27.1930   42.3690 C   0  0  2  0  0  0  0  0  0  0  0  0
   39.5280   27.5430   42.9000 C   0  0  0  0  0  0  0  0  0  0  0  0
   40.0950   26.4030   43.6790 C   0  0  0  0  0  0  0  0  0  0  0  0
   39.7920   25.0230   43.2080 C   0  0  0  0  0  0  0  0  0  0  0  0
   38.4850   24.8100   42.5650 C   0  0  0  0  0  0  0  0  0  0  0  0
   38.2110   25.9610   41.5860 C   0  0  2  0  0  0  0  0  0  0  0  0
   37.5790   26.9810   43.2980 H   0  0  0  0  0  0  0  0  0  0  0  0
   39.3070   28.3410   43.6850 H   0  0  0  0  0  0  0  0  0  0  0  0
   40.2280   28.0650   42.2500 H   0  0  0  0  0  0  0  0  0  0  0  0
   39.9420   26.4980   44.7780 H   0  0  0  0  0  0  0  0  0  0  0  0
   41.2170   26.5060   43.5760 H   0  0  0  0  0  0  0  0  0  0  0  0
   40.5950   24.5690   42.5560 H   0  0  0  0  0  0  0  0  0  0  0  0
   39.8200   24.3590   44.1010 H   0  0  0  0  0  0  0  0  0  0  0  0
   37.7000   24.7320   43.3440 H   0  0  0  0  0  0  0  0  0  0  0  0
   38.5040   23.8660   41.9890 H   0  0  0  0  0  0  0  0  0  0  0  0
   37.1450   25.7260   41.3600 H   0  0  0  0  0  0  0  0  0  0  0  0
   37.4690   28.2860   41.7210 C   0  0  0  0  0  0  0  0  0  0  0  0
   36.1410   28.0730   41.3400 C   0  0  0  0  0  0  0  0  0  0  0  0
   35.4730   29.1290   40.7010 C   0  0  0  0  0  0  0  0  0  0  0  0
   36.1600   30.3020   40.4880 N   0  0  0  0  0  0  0  0  0  0  0  0
   37.4420   30.4410   40.8830 C   0  0  0  0  0  0  0  0  0  0  0  0
   38.0930   29.4570   41.4880 N   0  0  0  0  0  0  0  0  0  0  0  0
   35.5650   27.2160   41.4790 H   0  0  0  0  0  0  0  0  0  0  0  0
   34.4470   29.0750   40.3640 H   0  0  0  0  0  0  0  0  0  0  0  0
   38.1150   31.7200   40.6290 C   0  0  0  0  0  0  0  0  0  0  0  0
   37.4010   32.7920   40.1370 C   0  0  0  0  0  0  0  0  0  0  0  0
   37.9490   34.0300   39.8690 C   0  0  0  0  0  0  0  0  0  0  0  0
   39.2990   34.1370   40.1320 C   0  0  0  0  0  0  0  0  0  0  0  0
   40.0370   33.0590   40.6310 C   0  0  0  0  0  0  0  0  0  0  0  0
   39.4310   31.8610   40.8730 N   0  0  0  0  0  0  0  0  0  0  0  0
   36.3400   32.6590   39.9460 H   0  0  0  0  0  0  0  0  0  0  0  0
   37.3710   34.8610   39.4820 H   0  0  0  0  0  0  0  0  0  0  0  0
   39.8020   35.0780   39.9470 H   0  0  0  0  0  0  0  0  0  0  0  0
   41.0910   33.1480   40.8340 H   0  0  0  0  0  0  0  0  0  0  0  0
   39.0390   25.8120   40.3680 C   0  0  0  0  0  3  0  0  0  0  0  0
   38.5640   25.9070   38.9790 C   0  0  0  0  0  2  0  0  0  0  0  0
   39.1510   24.6080   39.5260 C   0  0  0  0  0  2  0  0  0  0  0  0
  1  2  1  0  0  0  0
  1  7  1  1  0  0  0
  2  3  1  0  0  0  0
  2  8  1  0  0  0  0
  3 10  1  0  0  0  0
  4  3  1  0  0  0  0
  4 13  1  0  0  0  0
  5  4  1  0  0  0  0
  5 14  1  0  0  0  0
  6 16  1  6  0  0  0
  6  1  1  0  0  0  0
  6  5  1  0  0  0  0
  9  2  1  0  0  0  0
 11  3  1  0  0  0  0
 12  4  1  0  0  0  0
 15  5  1  0  0  0  0
 17  1  1  0  0  0  0
 18 23  1  0  0  0  0
 18 17  2  0  0  0  0
 19 18  1  0  0  0  0
 20 19  2  0  0  0  0
 20 21  1  0  0  0  0
 21 22  2  0  0  0  0
 22 17  1  0  0  0  0
 24 19  1  0  0  0  0
 25 30  1  0  0  0  0
 25 21  1  0  0  0  0
 26 25  2  0  0  0  0
 27 28  2  0  0  0  0
 27 26  1  0  0  0  0
 28 29  1  0  0  0  0
 29 34  1  0  0  0  0
 29 30  2  0  0  0  0
 31 26  1  0  0  0  0
 32 27  1  0  0  0  0
 33 28  1  0  0  0  0
 35  6  1  0  0  0  0
 36 37  1  0  0  0  0
 36 35  1  0  0  0  0
 37 35  1  0  0  0  0
M  END
>  <minimizedAffinity>
-5.5281601

$$$$

 OpenBabel03252507293D

 37 40  0  0  1  0  0  0  0  0999 V2000
   37.5840   30.1400   40.2390 C   0  0  2  0  0  0  0  0  0  0  0  0
   37.0300   31.4260   40.7090 C   0  0  0  0  0  0  0  0  0  0  0  0
   37.3240   32.5110   39.7280 C   0  0  0  0  0  0  0  0  0  0  0  0
   37.3240   32.1560   38.2810 C   0  0  0  0  0  0  0  0  0  0  0  0
   37.7660   30.7960   37.9290 C   0  0  0  0  0  0  0  0  0  0  0  0
   37.1270   29.7900   38.8980 C   0  0  2  0  0  0  0  0  0  0  0  0
   38.7000   30.3360   40.1620 H   0  0  0  0  0  0  0  0  0  0  0  0
   37.6720   31.6820   41.6170 H   0  0  0  0  0  0  0  0  0  0  0  0
   36.0300   31.4360   41.1390 H   0  0  0  0  0  0  0  0  0  0  0  0
   38.2180   33.1190   39.9950 H   0  0  0  0  0  0  0  0  0  0  0  0
   36.4770   33.2510   39.8450 H   0  0  0  0  0  0  0  0  0  0  0  0
   36.3500   32.3680   37.7520 H   0  0  0  0  0  0  0  0  0  0  0  0
   38.0200   32.8590   37.7720 H   0  0  0  0  0  0  0  0  0  0  0  0
   38.8730   30.7510   37.9550 H   0  0  0  0  0  0  0  0  0  0  0  0
   37.4280   30.5500   36.9050 H   0  0  0  0  0  0  0  0  0  0  0  0
   37.7100   28.8900   38.5980 H   0  0  0  0  0  0  0  0  0  0  0  0
   37.4990   29.0320   41.1910 C   0  0  0  0  0  0  0  0  0  0  0  0
   37.3880   29.3260   42.5530 C   0  0  0  0  0  0  0  0  0  0  0  0
   37.3300   28.2450   43.4470 C   0  0  0  0  0  0  0  0  0  0  0  0
   37.3860   26.9700   42.9330 N   0  0  0  0  0  0  0  0  0  0  0  0
   37.4920   26.7570   41.6060 C   0  0  0  0  0  0  0  0  0  0  0  0
   37.5490   27.7630   40.7430 N   0  0  0  0  0  0  0  0  0  0  0  0
   37.3330   30.2640   43.0030 H   0  0  0  0  0  0  0  0  0  0  0  0
   37.2450   28.3560   44.5200 H   0  0  0  0  0  0  0  0  0  0  0  0
   37.5430   25.3720   41.1240 C   0  0  0  0  0  0  0  0  0  0  0  0
   36.5740   24.9030   40.2630 C   0  0  0  0  0  0  0  0  0  0  0  0
   36.5430   23.6180   39.7580 C   0  0  0  0  0  0  0  0  0  0  0  0
   37.5720   22.8030   40.1800 C   0  0  0  0  0  0  0  0  0  0  0  0
   38.5610   23.2640   41.0530 C   0  0  0  0  0  0  0  0  0  0  0  0
   38.5320   24.5480   41.5150 N   0  0  0  0  0  0  0  0  0  0  0  0
   35.7840   25.5840   39.9580 H   0  0  0  0  0  0  0  0  0  0  0  0
   35.7720   23.2690   39.0810 H   0  0  0  0  0  0  0  0  0  0  0  0
   37.6160   21.7800   39.8280 H   0  0  0  0  0  0  0  0  0  0  0  0
   39.3630   22.6220   41.3800 H   0  0  0  0  0  0  0  0  0  0  0  0
   35.6930   29.6050   38.5780 C   0  0  0  0  0  3  0  0  0  0  0  0
   34.9980   28.3170   38.4300 C   0  0  0  0  0  2  0  0  0  0  0  0
   35.1240   29.2860   37.2570 C   0  0  0  0  0  2  0  0  0  0  0  0
  1  7  1  6  0  0  0
  1  2  1  0  0  0  0
  1 17  1  0  0  0  0
  2  9  1  0  0  0  0
  2  8  1  0  0  0  0
  3 11  1  0  0  0  0
  3 10  1  0  0  0  0
  3  2  1  0  0  0  0
  4  3  1  0  0  0  0
  5 14  1  0  0  0  0
  5  4  1  0  0  0  0
  5  6  1  0  0  0  0
  6 16  1  6  0  0  0
  6  1  1  0  0  0  0
 12  4  1  0  0  0  0
 13  4  1  0  0  0  0
 15  5  1  0  0  0  0
 17 18  1  0  0  0  0
 18 23  1  0  0  0  0
 18 19  2  0  0  0  0
 19 24  1  0  0  0  0
 20 19  1  0  0  0  0
 21 20  2  0  0  0  0
 22 17  2  0  0  0  0
 22 21  1  0  0  0  0
 25 30  1  0  0  0  0
 25 21  1  0  0  0  0
 26 25  2  0  0  0  0
 27 28  2  0  0  0  0
 27 26  1  0  0  0  0
 28 29  1  0  0  0  0
 29 34  1  0  0  0  0
 29 30  2  0  0  0  0
 31 26  1  0  0  0  0
 32 27  1  0  0  0  0
 33 28  1  0  0  0  0
 35  6  1  0  0  0  0
 36 35  1  0  0  0  0
 37 36  1  0  0  0  0
 37 35  1  0  0  0  0
M  END
>  <minimizedAffinity>
-5.44187498

$$$$

 OpenBabel03252507293D

 37 40  0  0  1  0  0  0  0  0999 V2000
   38.3940   26.3120   40.5740 C   0  0  2  0  0  0  0  0  0  0  0  0
   37.1560   26.3830   39.7730 C   0  0  0  0  0  0  0  0  0  0  0  0
   36.4740   25.0550   39.7470 C   0  0  0  0  0  0  0  0  0  0  0  0
   36.5500   24.2140   40.9740 C   0  0  0  0  0  0  0  0  0  0  0  0
   37.7760   24.3220   41.7810 C   0  0  0  0  0  0  0  0  0  0  0  0
   38.1610   25.8020   41.9220 C   0  0  2  0  0  0  0  0  0  0  0  0
   39.0230   25.5350   40.0370 H   0  0  0  0  0  0  0  0  0  0  0  0
   37.5320   26.5290   38.7050 H   0  0  0  0  0  0  0  0  0  0  0  0
   36.5050   27.2460   39.8950 H   0  0  0  0  0  0  0  0  0  0  0  0
   36.6990   24.4600   38.8340 H   0  0  0  0  0  0  0  0  0  0  0  0
   35.3750   25.2930   39.6250 H   0  0  0  0  0  0  0  0  0  0  0  0
   35.6560   24.3110   41.6580 H   0  0  0  0  0  0  0  0  0  0  0  0
   36.4750   23.1520   40.6470 H   0  0  0  0  0  0  0  0  0  0  0  0
   38.5830   23.7270   41.3060 H   0  0  0  0  0  0  0  0  0  0  0  0
   37.5910   23.9160   42.7940 H   0  0  0  0  0  0  0  0  0  0  0  0
   39.1680   25.6610   42.3770 H   0  0  0  0  0  0  0  0  0  0  0  0
   39.2350   27.5100   40.5430 C   0  0  0  0  0  0  0  0  0  0  0  0
   40.6130   27.3650   40.7250 C   0  0  0  0  0  0  0  0  0  0  0  0
   41.3940   28.5310   40.7130 C   0  0  0  0  0  0  0  0  0  0  0  0
   40.7620   29.7380   40.5240 N   0  0  0  0  0  0  0  0  0  0  0  0
   39.4260   29.8060   40.3530 C   0  0  0  0  0  0  0  0  0  0  0  0
   38.6680   28.7180   40.3610 N   0  0  0  0  0  0  0  0  0  0  0  0
   41.1510   26.4840   40.8650 H   0  0  0  0  0  0  0  0  0  0  0  0
   42.4680   28.5370   40.8450 H   0  0  0  0  0  0  0  0  0  0  0  0
   38.8150   31.1250   40.1520 C   0  0  0  0  0  0  0  0  0  0  0  0
   37.7760   31.2780   39.2590 C   0  0  0  0  0  0  0  0  0  0  0  0
   37.1400   32.4770   39.0070 C   0  0  0  0  0  0  0  0  0  0  0  0
   37.6230   33.5520   39.7240 C   0  0  0  0  0  0  0  0  0  0  0  0
   38.6760   33.4130   40.6330 C   0  0  0  0  0  0  0  0  0  0  0  0
   39.2600   32.1960   40.8340 N   0  0  0  0  0  0  0  0  0  0  0  0
   37.4310   30.4010   38.7170 H   0  0  0  0  0  0  0  0  0  0  0  0
   36.3250   32.5760   38.3000 H   0  0  0  0  0  0  0  0  0  0  0  0
   37.1760   34.5270   39.5810 H   0  0  0  0  0  0  0  0  0  0  0  0
   39.0490   34.2560   41.1910 H   0  0  0  0  0  0  0  0  0  0  0  0
   37.2550   26.4820   42.8750 C   0  0  0  0  0  3  0  0  0  0  0  0
   36.4750   27.7010   42.6100 C   0  0  0  0  0  2  0  0  0  0  0  0
   37.5650   27.6760   43.6800 C   0  0  0  0  0  2  0  0  0  0  0  0
  1  7  1  6  0  0  0
  1  6  1  0  0  0  0
  2  9  1  0  0  0  0
  2  1  1  0  0  0  0
  3  2  1  0  0  0  0
  3  4  1  0  0  0  0
  4 12  1  0  0  0  0
  4  5  1  0  0  0  0
  5  6  1  0  0  0  0
  5 15  1  0  0  0  0
  6 16  1  1  0  0  0
  6 35  1  0  0  0  0
  8  2  1  0  0  0  0
 10  3  1  0  0  0  0
 11  3  1  0  0  0  0
 13  4  1  0  0  0  0
 14  5  1  0  0  0  0
 17  1  1  0  0  0  0
 17 18  1  0  0  0  0
 18 23  1  0  0  0  0
 19 18  2  0  0  0  0
 19 24  1  0  0  0  0
 20 19  1  0  0  0  0
 21 22  1  0  0  0  0
 21 20  2  0  0  0  0
 22 17  2  0  0  0  0
 25 21  1  0  0  0  0
 25 30  1  0  0  0  0
 26 25  2  0  0  0  0
 27 26  1  0  0  0  0
 27 28  2  0  0  0  0
 28 29  1  0  0  0  0
 29 30  2  0  0  0  0
 29 34  1  0  0  0  0
 31 26  1  0  0  0  0
 32 27  1  0  0  0  0
 33 28  1  0  0  0  0
 35 37  1  0  0  0  0
 36 35  1  0  0  0  0
 36 37  1  0  0  0  0
M  END
>  <minimizedAffinity>
-5.43795681

$$$$

 OpenBabel03252507293D

 37 40  0  0  1  0  0  0  0  0999 V2000
   38.1040   31.8270   40.6960 C   0  0  2  0  0  0  0  0  0  0  0  0
   37.3180   32.8090   39.9220 C   0  0  0  0  0  0  0  0  0  0  0  0
   37.9940   34.1400   39.9290 C   0  0  0  0  0  0  0  0  0  0  0  0
   39.4840   34.1600   39.9120 C   0  0  0  0  0  0  0  0  0  0  0  0
   40.1730   33.0550   40.5970 C   0  0  0  0  0  0  0  0  0  0  0  0
   39.4860   31.7290   40.2370 C   0  0  2  0  0  0  0  0  0  0  0  0
   38.1390   32.2670   41.7420 H   0  0  0  0  0  0  0  0  0  0  0  0
   36.3810   32.9640   40.5550 H   0  0  0  0  0  0  0  0  0  0  0  0
   36.8910   32.5010   38.9700 H   0  0  0  0  0  0  0  0  0  0  0  0
   37.5900   34.8380   40.6950 H   0  0  0  0  0  0  0  0  0  0  0  0
   37.6860   34.6310   38.9580 H   0  0  0  0  0  0  0  0  0  0  0  0
   39.9340   34.2850   38.8830 H   0  0  0  0  0  0  0  0  0  0  0  0
   39.8040   35.0980   40.4170 H   0  0  0  0  0  0  0  0  0  0  0  0
   40.1700   33.2400   41.6900 H   0  0  0  0  0  0  0  0  0  0  0  0
   41.2240   33.0020   40.2540 H   0  0  0  0  0  0  0  0  0  0  0  0
   40.0100   31.0750   40.9720 H   0  0  0  0  0  0  0  0  0  0  0  0
   37.4640   30.5250   40.8970 C   0  0  0  0  0  0  0  0  0  0  0  0
   36.1250   30.3740   40.5240 C   0  0  0  0  0  0  0  0  0  0  0  0
   35.5290   29.1230   40.7480 C   0  0  0  0  0  0  0  0  0  0  0  0
   36.2910   28.1290   41.3160 N   0  0  0  0  0  0  0  0  0  0  0  0
   37.5790   28.3430   41.6510 C   0  0  0  0  0  0  0  0  0  0  0  0
   38.1640   29.5170   41.4500 N   0  0  0  0  0  0  0  0  0  0  0  0
   35.4990   31.0810   40.0840 H   0  0  0  0  0  0  0  0  0  0  0  0
   34.5010   28.8940   40.4990 H   0  0  0  0  0  0  0  0  0  0  0  0
   38.3370   27.2390   42.2510 C   0  0  0  0  0  0  0  0  0  0  0  0
   38.0330   25.9340   41.9250 C   0  0  0  0  0  0  0  0  0  0  0  0
   38.6910   24.8340   42.4370 C   0  0  0  0  0  0  0  0  0  0  0  0
   39.7060   25.1250   43.3250 C   0  0  0  0  0  0  0  0  0  0  0  0
   40.0260   26.4430   43.6650 C   0  0  0  0  0  0  0  0  0  0  0  0
   39.3330   27.4850   43.1210 N   0  0  0  0  0  0  0  0  0  0  0  0
   37.2250   25.7550   41.2200 H   0  0  0  0  0  0  0  0  0  0  0  0
   38.4370   23.8150   42.1680 H   0  0  0  0  0  0  0  0  0  0  0  0
   40.2690   24.3160   43.7700 H   0  0  0  0  0  0  0  0  0  0  0  0
   40.8190   26.6650   44.3600 H   0  0  0  0  0  0  0  0  0  0  0  0
   39.8310   31.3290   38.8540 C   0  0  0  0  0  3  0  0  0  0  0  0
   40.2460   29.9860   38.4180 C   0  0  0  0  0  2  0  0  0  0  0  0
   41.1860   31.1830   38.2950 C   0  0  0  0  0  2  0  0  0  0  0  0
  1 17  1  0  0  0  0
  1  7  1  1  0  0  0
  2  3  1  0  0  0  0
  2  8  1  0  0  0  0
  2  1  1  0  0  0  0
  3 10  1  0  0  0  0
  4  3  1  0  0  0  0
  4 13  1  0  0  0  0
  4  5  1  0  0  0  0
  5 14  1  0  0  0  0
  6  5  1  0  0  0  0
  6  1  1  0  0  0  0
  6 16  1  1  0  0  0
  9  2  1  0  0  0  0
 11  3  1  0  0  0  0
 12  4  1  0  0  0  0
 15  5  1  0  0  0  0
 17 22  1  0  0  0  0
 18 19  1  0  0  0  0
 18 17  2  0  0  0  0
 19 20  2  0  0  0  0
 20 21  1  0  0  0  0
 21 25  1  0  0  0  0
 22 21  2  0  0  0  0
 23 18  1  0  0  0  0
 24 19  1  0  0  0  0
 25 30  1  0  0  0  0
 26 25  2  0  0  0  0
 26 27  1  0  0  0  0
 27 28  2  0  0  0  0
 28 29  1  0  0  0  0
 28 33  1  0  0  0  0
 29 34  1  0  0  0  0
 30 29  2  0  0  0  0
 31 26  1  0  0  0  0
 32 27  1  0  0  0  0
 35  6  1  0  0  0  0
 36 35  1  0  0  0  0
 37 36  1  0  0  0  0
 37 35  1  0  0  0  0
M  END
>  <minimizedAffinity>
-5.39546824

$$$$

 OpenBabel03252507293D

 37 40  0  0  1  0  0  0  0  0999 V2000
   38.8510   29.0360   42.2750 C   0  0  2  0  0  0  0  0  0  0  0  0
   40.2570   28.5840   42.2440 C   0  0  0  0  0  0  0  0  0  0  0  0
   40.5090   27.5910   43.3290 C   0  0  0  0  0  0  0  0  0  0  0  0
   39.4060   26.6530   43.6800 C   0  0  0  0  0  0  0  0  0  0  0  0
   38.0310   27.1600   43.5430 C   0  0  0  0  0  0  0  0  0  0  0  0
   37.9050   27.9260   42.2180 C   0  0  2  0  0  0  0  0  0  0  0  0
   38.7380   29.5080   43.3020 H   0  0  0  0  0  0  0  0  0  0  0  0
   40.8460   29.5080   42.5640 H   0  0  0  0  0  0  0  0  0  0  0  0
   40.7100   28.3580   41.2820 H   0  0  0  0  0  0  0  0  0  0  0  0
   40.9650   28.0370   44.2410 H   0  0  0  0  0  0  0  0  0  0  0  0
   41.3380   26.9300   42.9350 H   0  0  0  0  0  0  0  0  0  0  0  0
   39.4740   25.6470   43.1700 H   0  0  0  0  0  0  0  0  0  0  0  0
   39.5390   26.3760   44.7500 H   0  0  0  0  0  0  0  0  0  0  0  0
   37.7850   27.7970   44.4160 H   0  0  0  0  0  0  0  0  0  0  0  0
   37.3230   26.3110   43.5180 H   0  0  0  0  0  0  0  0  0  0  0  0
   36.8970   28.3710   42.3880 H   0  0  0  0  0  0  0  0  0  0  0  0
   38.5210   30.1310   41.3610 C   0  0  0  0  0  0  0  0  0  0  0  0
   37.1960   30.5710   41.2950 C   0  0  0  0  0  0  0  0  0  0  0  0
   36.9020   31.6060   40.3940 C   0  0  0  0  0  0  0  0  0  0  0  0
   37.9260   32.1220   39.6360 N   0  0  0  0  0  0  0  0  0  0  0  0
   39.1840   31.6510   39.7500 C   0  0  0  0  0  0  0  0  0  0  0  0
   39.4860   30.6730   40.5940 N   0  0  0  0  0  0  0  0  0  0  0  0
   36.3800   30.2290   41.8450 H   0  0  0  0  0  0  0  0  0  0  0  0
   35.9120   32.0230   40.2600 H   0  0  0  0  0  0  0  0  0  0  0  0
   40.2320   32.2490   38.9140 C   0  0  0  0  0  0  0  0  0  0  0  0
   40.6920   33.5200   39.1840 C   0  0  0  0  0  0  0  0  0  0  0  0
   41.6730   34.1610   38.4540 C   0  0  0  0  0  0  0  0  0  0  0  0
   42.1840   33.4300   37.4020 C   0  0  0  0  0  0  0  0  0  0  0  0
   41.7290   32.1400   37.1150 C   0  0  0  0  0  0  0  0  0  0  0  0
   40.7540   31.5650   37.8790 N   0  0  0  0  0  0  0  0  0  0  0  0
   40.2570   34.0560   40.0240 H   0  0  0  0  0  0  0  0  0  0  0  0
   42.0200   35.1610   38.6830 H   0  0  0  0  0  0  0  0  0  0  0  0
   42.9570   33.8650   36.7820 H   0  0  0  0  0  0  0  0  0  0  0  0
   42.1310   31.5740   36.2920 H   0  0  0  0  0  0  0  0  0  0  0  0
   37.8650   26.9830   41.0780 C   0  0  0  0  0  3  0  0  0  0  0  0
   36.9140   27.0190   39.9560 C   0  0  0  0  0  2  0  0  0  0  0  0
   36.9550   25.8360   40.9200 C   0  0  0  0  0  2  0  0  0  0  0  0
  1  7  1  1  0  0  0
  2  1  1  0  0  0  0
  2  8  1  0  0  0  0
  2  3  1  0  0  0  0
  3  4  1  0  0  0  0
  3 10  1  0  0  0  0
  4 13  1  0  0  0  0
  5  4  1  0  0  0  0
  5 14  1  0  0  0  0
  6  1  1  0  0  0  0
  6 16  1  1  0  0  0
  6  5  1  0  0  0  0
  9  2  1  0  0  0  0
 11  3  1  0  0  0  0
 12  4  1  0  0  0  0
 15  5  1  0  0  0  0
 17  1  1  0  0  0  0
 18 17  1  0  0  0  0
 18 23  1  0  0  0  0
 19 18  2  0  0  0  0
 20 21  2  0  0  0  0
 20 19  1  0  0  0  0
 21 22  1  0  0  0  0
 22 17  2  0  0  0  0
 24 19  1  0  0  0  0
 25 26  1  0  0  0  0
 25 21  1  0  0  0  0
 26 31  1  0  0  0  0
 27 32  1  0  0  0  0
 27 26  2  0  0  0  0
 28 27  1  0  0  0  0
 29 28  2  0  0  0  0
 29 30  1  0  0  0  0
 30 25  2  0  0  0  0
 33 28  1  0  0  0  0
 34 29  1  0  0  0  0
 35  6  1  0  0  0  0
 36 37  1  0  0  0  0
 36 35  1  0  0  0  0
 37 35  1  0  0  0  0
M  END
>  <minimizedAffinity>
-5.28812885

$$$$

 OpenBabel03252507293D

 37 40  0  0  1  0  0  0  0  0999 V2000
   37.6330   27.1240   41.8840 C   0  0  2  0  0  0  0  0  0  0  0  0
   39.0940   26.9170   41.9370 C   0  0  0  0  0  0  0  0  0  0  0  0
   39.4120   25.6070   42.5780 C   0  0  0  0  0  0  0  0  0  0  0  0
   38.4820   24.4700   42.3300 C   0  0  0  0  0  0  0  0  0  0  0  0
   37.0590   24.8010   42.1520 C   0  0  0  0  0  0  0  0  0  0  0  0
   36.9350   26.0220   41.2290 C   0  0  2  0  0  0  0  0  0  0  0  0
   37.3150   27.1090   42.9740 H   0  0  0  0  0  0  0  0  0  0  0  0
   39.4510   27.6950   42.6910 H   0  0  0  0  0  0  0  0  0  0  0  0
   39.6890   27.1720   41.0620 H   0  0  0  0  0  0  0  0  0  0  0  0
   39.6670   25.6920   43.6580 H   0  0  0  0  0  0  0  0  0  0  0  0
   40.3940   25.2850   42.1160 H   0  0  0  0  0  0  0  0  0  0  0  0
   38.8020   23.7840   41.4910 H   0  0  0  0  0  0  0  0  0  0  0  0
   38.5450   23.7970   43.2140 H   0  0  0  0  0  0  0  0  0  0  0  0
   36.5960   24.9810   43.1440 H   0  0  0  0  0  0  0  0  0  0  0  0
   36.5370   23.9520   41.6710 H   0  0  0  0  0  0  0  0  0  0  0  0
   35.8470   26.2180   41.3720 H   0  0  0  0  0  0  0  0  0  0  0  0
   37.2000   28.4440   41.4220 C   0  0  0  0  0  0  0  0  0  0  0  0
   35.8550   28.6290   41.0930 C   0  0  0  0  0  0  0  0  0  0  0  0
   35.4700   29.8980   40.6310 C   0  0  0  0  0  0  0  0  0  0  0  0
   36.4320   30.8760   40.5310 N   0  0  0  0  0  0  0  0  0  0  0  0
   37.7140   30.6290   40.8680 C   0  0  0  0  0  0  0  0  0  0  0  0
   38.1020   29.4380   41.3060 N   0  0  0  0  0  0  0  0  0  0  0  0
   35.0790   27.9360   41.1530 H   0  0  0  0  0  0  0  0  0  0  0  0
   34.4570   30.1530   40.3480 H   0  0  0  0  0  0  0  0  0  0  0  0
   38.6900   31.7170   40.7410 C   0  0  0  0  0  0  0  0  0  0  0  0
   40.0300   31.4750   40.9640 C   0  0  0  0  0  0  0  0  0  0  0  0
   41.0170   32.4360   40.8670 C   0  0  0  0  0  0  0  0  0  0  0  0
   40.5710   33.6940   40.5220 C   0  0  0  0  0  0  0  0  0  0  0  0
   39.2170   33.9550   40.2930 C   0  0  0  0  0  0  0  0  0  0  0  0
   38.2920   32.9580   40.4060 N   0  0  0  0  0  0  0  0  0  0  0  0
   40.3320   30.4670   41.2340 H   0  0  0  0  0  0  0  0  0  0  0  0
   42.0650   32.2250   41.0470 H   0  0  0  0  0  0  0  0  0  0  0  0
   41.2860   34.5010   40.4260 H   0  0  0  0  0  0  0  0  0  0  0  0
   38.8740   34.9410   40.0240 H   0  0  0  0  0  0  0  0  0  0  0  0
   37.2090   25.6390   39.8260 C   0  0  0  0  0  3  0  0  0  0  0  0
   36.3710   25.9600   38.6600 C   0  0  0  0  0  2  0  0  0  0  0  0
   36.6060   24.5130   39.0910 C   0  0  0  0  0  2  0  0  0  0  0  0
  1  2  1  0  0  0  0
  1  7  1  1  0  0  0
  2  3  1  0  0  0  0
  2  8  1  0  0  0  0
  3 10  1  0  0  0  0
  4  3  1  0  0  0  0
  4 13  1  0  0  0  0
  5  4  1  0  0  0  0
  5 14  1  0  0  0  0
  6 16  1  1  0  0  0
  6  1  1  0  0  0  0
  6  5  1  0  0  0  0
  9  2  1  0  0  0  0
 11  3  1  0  0  0  0
 12  4  1  0  0  0  0
 15  5  1  0  0  0  0
 17  1  1  0  0  0  0
 18 23  1  0  0  0  0
 18 17  2  0  0  0  0
 19 18  1  0  0  0  0
 20 19  2  0  0  0  0
 20 21  1  0  0  0  0
 21 22  2  0  0  0  0
 22 17  1  0  0  0  0
 24 19  1  0  0  0  0
 25 21  1  0  0  0  0
 25 26  1  0  0  0  0
 26 31  1  0  0  0  0
 27 26  2  0  0  0  0
 27 32  1  0  0  0  0
 28 27  1  0  0  0  0
 29 30  1  0  0  0  0
 29 28  2  0  0  0  0
 30 25  2  0  0  0  0
 33 28  1  0  0  0  0
 34 29  1  0  0  0  0
 35  6  1  0  0  0  0
 36 37  1  0  0  0  0
 36 35  1  0  0  0  0
 37 35  1  0  0  0  0
M  END
>  <minimizedAffinity>
-5.28205585

$$$$

 OpenBabel03252507293D

 37 40  0  0  1  0  0  0  0  0999 V2000
   37.0410   25.9380   40.6350 C   0  0  2  0  0  0  0  0  0  0  0  0
   36.6030   24.7130   41.3320 C   0  0  0  0  0  0  0  0  0  0  0  0
   36.2390   23.6530   40.3460 C   0  0  0  0  0  0  0  0  0  0  0  0
   37.0270   23.5810   39.0840 C   0  0  0  0  0  0  0  0  0  0  0  0
   37.5370   24.8520   38.5440 C   0  0  0  0  0  0  0  0  0  0  0  0
   38.1250   25.6880   39.6900 C   0  0  2  0  0  0  0  0  0  0  0  0
   36.1360   26.2400   40.0200 H   0  0  0  0  0  0  0  0  0  0  0  0
   35.6090   25.0110   41.8070 H   0  0  0  0  0  0  0  0  0  0  0  0
   37.1670   24.3770   42.2000 H   0  0  0  0  0  0  0  0  0  0  0  0
   35.1460   23.5930   40.1440 H   0  0  0  0  0  0  0  0  0  0  0  0
   36.4480   22.6750   40.8750 H   0  0  0  0  0  0  0  0  0  0  0  0
   37.8710   22.8320   39.1070 H   0  0  0  0  0  0  0  0  0  0  0  0
   36.3580   23.1490   38.3050 H   0  0  0  0  0  0  0  0  0  0  0  0
   36.7190   25.3840   38.0190 H   0  0  0  0  0  0  0  0  0  0  0  0
   38.3460   24.6480   37.8170 H   0  0  0  0  0  0  0  0  0  0  0  0
   38.2730   26.6410   39.1310 H   0  0  0  0  0  0  0  0  0  0  0  0
   37.2720   27.1020   41.4920 C   0  0  0  0  0  0  0  0  0  0  0  0
   37.2790   26.9220   42.8780 C   0  0  0  0  0  0  0  0  0  0  0  0
   37.4810   28.0570   43.6780 C   0  0  0  0  0  0  0  0  0  0  0  0
   37.6580   29.2710   43.0560 N   0  0  0  0  0  0  0  0  0  0  0  0
   37.6410   29.3740   41.7110 C   0  0  0  0  0  0  0  0  0  0  0  0
   37.4520   28.3150   40.9350 N   0  0  0  0  0  0  0  0  0  0  0  0
   37.1590   26.0330   43.4090 H   0  0  0  0  0  0  0  0  0  0  0  0
   37.5040   28.0340   44.7600 H   0  0  0  0  0  0  0  0  0  0  0  0
   37.8410   30.6980   41.1110 C   0  0  0  0  0  0  0  0  0  0  0  0
   36.9410   31.1800   40.1840 C   0  0  0  0  0  0  0  0  0  0  0  0
   37.0470   32.4110   39.5690 C   0  0  0  0  0  0  0  0  0  0  0  0
   38.1430   33.1580   39.9480 C   0  0  0  0  0  0  0  0  0  0  0  0
   39.0640   32.6830   40.8870 C   0  0  0  0  0  0  0  0  0  0  0  0
   38.8990   31.4540   41.4570 N   0  0  0  0  0  0  0  0  0  0  0  0
   36.0930   30.5550   39.9170 H   0  0  0  0  0  0  0  0  0  0  0  0
   36.3290   32.7720   38.8420 H   0  0  0  0  0  0  0  0  0  0  0  0
   38.2960   34.1350   39.5100 H   0  0  0  0  0  0  0  0  0  0  0  0
   39.9190   33.2700   41.1790 H   0  0  0  0  0  0  0  0  0  0  0  0
   39.4300   25.1340   40.1170 C   0  0  0  0  0  3  0  0  0  0  0  0
   40.5850   25.9090   40.5980 C   0  0  0  0  0  2  0  0  0  0  0  0
   40.6650   25.0830   39.3160 C   0  0  0  0  0  2  0  0  0  0  0  0
  1  7  1  6  0  0  0
  1  2  1  0  0  0  0
  1 17  1  0  0  0  0
  2  8  1  0  0  0  0
  2  9  1  0  0  0  0
  3 11  1  0  0  0  0
  3  2  1  0  0  0  0
  4 12  1  0  0  0  0
  4  3  1  0  0  0  0
  5  4  1  0  0  0  0
  5  6  1  0  0  0  0
  6 16  1  6  0  0  0
  6 35  1  0  0  0  0
  6  1  1  0  0  0  0
 10  3  1  0  0  0  0
 13  4  1  0  0  0  0
 14  5  1  0  0  0  0
 15  5  1  0  0  0  0
 17 18  1  0  0  0  0
 18 23  1  0  0  0  0
 18 19  2  0  0  0  0
 19 24  1  0  0  0  0
 20 19  1  0  0  0  0
 21 20  2  0  0  0  0
 22 17  2  0  0  0  0
 22 21  1  0  0  0  0
 25 30  1  0  0  0  0
 25 21  1  0  0  0  0
 26 25  2  0  0  0  0
 27 28  2  0  0  0  0
 27 26  1  0  0  0  0
 28 29  1  0  0  0  0
 29 34  1  0  0  0  0
 29 30  2  0  0  0  0
 31 26  1  0  0  0  0
 32 27  1  0  0  0  0
 33 28  1  0  0  0  0
 35 36  1  0  0  0  0
 37 35  1  0  0  0  0
 37 36  1  0  0  0  0
M  END
>  <minimizedAffinity>
-5.24887562

$$$$

 OpenBabel03252507293D

 37 40  0  0  1  0  0  0  0  0999 V2000
   38.1410   28.0120   41.0800 C   0  0  2  0  0  0  0  0  0  0  0  0
   37.1000   26.9880   41.3030 C   0  0  0  0  0  0  0  0  0  0  0  0
   36.9040   26.7530   42.7650 C   0  0  0  0  0  0  0  0  0  0  0  0
   37.0430   27.9210   43.6780 C   0  0  0  0  0  0  0  0  0  0  0  0
   38.0130   28.9590   43.2910 C   0  0  0  0  0  0  0  0  0  0  0  0
   37.8640   29.2560   41.7920 C   0  0  2  0  0  0  0  0  0  0  0  0
   39.0700   27.5650   41.5560 H   0  0  0  0  0  0  0  0  0  0  0  0
   37.5820   26.0250   40.9240 H   0  0  0  0  0  0  0  0  0  0  0  0
   36.1930   27.0280   40.7050 H   0  0  0  0  0  0  0  0  0  0  0  0
   37.4600   25.8700   43.1500 H   0  0  0  0  0  0  0  0  0  0  0  0
   35.8240   26.4310   42.8670 H   0  0  0  0  0  0  0  0  0  0  0  0
   36.0650   28.4210   43.9440 H   0  0  0  0  0  0  0  0  0  0  0  0
   37.3750   27.5270   44.6650 H   0  0  0  0  0  0  0  0  0  0  0  0
   39.0370   28.6190   43.5470 H   0  0  0  0  0  0  0  0  0  0  0  0
   37.8030   29.8910   43.8490 H   0  0  0  0  0  0  0  0  0  0  0  0
   38.7700   29.8920   41.6660 H   0  0  0  0  0  0  0  0  0  0  0  0
   38.5370   28.2140   39.6860 C   0  0  0  0  0  0  0  0  0  0  0  0
   38.0480   27.3330   38.7170 C   0  0  0  0  0  0  0  0  0  0  0  0
   38.4610   27.5350   37.3910 C   0  0  0  0  0  0  0  0  0  0  0  0
   39.3150   28.5800   37.1250 N   0  0  0  0  0  0  0  0  0  0  0  0
   39.7480   29.3940   38.1090 C   0  0  0  0  0  0  0  0  0  0  0  0
   39.3720   29.2220   39.3700 N   0  0  0  0  0  0  0  0  0  0  0  0
   37.3960   26.5320   38.8510 H   0  0  0  0  0  0  0  0  0  0  0  0
   38.1460   26.9150   36.5620 H   0  0  0  0  0  0  0  0  0  0  0  0
   40.6550   30.4930   37.7570 C   0  0  0  0  0  0  0  0  0  0  0  0
   40.3420   31.7890   38.1090 C   0  0  0  0  0  0  0  0  0  0  0  0
   41.1340   32.8820   37.8220 C   0  0  0  0  0  0  0  0  0  0  0  0
   42.2980   32.5940   37.1390 C   0  0  0  0  0  0  0  0  0  0  0  0
   42.6290   31.2850   36.7750 C   0  0  0  0  0  0  0  0  0  0  0  0
   41.7990   30.2490   37.0910 N   0  0  0  0  0  0  0  0  0  0  0  0
   39.4140   31.9650   38.6470 H   0  0  0  0  0  0  0  0  0  0  0  0
   40.8700   33.8940   38.1080 H   0  0  0  0  0  0  0  0  0  0  0  0
   42.9710   33.3990   36.8770 H   0  0  0  0  0  0  0  0  0  0  0  0
   43.5380   31.0660   36.2410 H   0  0  0  0  0  0  0  0  0  0  0  0
   36.6390   30.0500   41.5430 C   0  0  0  0  0  3  0  0  0  0  0  0
   35.7760   29.9620   40.3530 C   0  0  0  0  0  2  0  0  0  0  0  0
   36.5290   31.2470   40.6920 C   0  0  0  0  0  2  0  0  0  0  0  0
  1  2  1  0  0  0  0
  1  7  1  1  0  0  0
  1  6  1  0  0  0  0
  2  3  1  0  0  0  0
  3 11  1  0  0  0  0
  3 10  1  0  0  0  0
  3  4  1  0  0  0  0
  4 12  1  0  0  0  0
  4 13  1  0  0  0  0
  5 14  1  0  0  0  0
  5  4  1  0  0  0  0
  5 15  1  0  0  0  0
  6 16  1  6  0  0  0
  6  5  1  0  0  0  0
  8  2  1  0  0  0  0
  9  2  1  0  0  0  0
 17  1  1  0  0  0  0
 18 23  1  0  0  0  0
 18 17  2  0  0  0  0
 19 18  1  0  0  0  0
 20 19  2  0  0  0  0
 20 21  1  0  0  0  0
 21 22  2  0  0  0  0
 22 17  1  0  0  0  0
 24 19  1  0  0  0  0
 25 26  1  0  0  0  0
 25 21  1  0  0  0  0
 26 31  1  0  0  0  0
 27 32  1  0  0  0  0
 27 26  2  0  0  0  0
 28 27  1  0  0  0  0
 29 30  1  0  0  0  0
 29 28  2  0  0  0  0
 30 25  2  0  0  0  0
 33 28  1  0  0  0  0
 34 29  1  0  0  0  0
 35  6  1  0  0  0  0
 36 37  1  0  0  0  0
 36 35  1  0  0  0  0
 37 35  1  0  0  0  0
M  END
>  <minimizedAffinity>
-5.22939682

$$$$
