
 OpenBabel03242511263D

 22 24  0  0  0  0  0  0  0  0999 V2000
   39.2730   30.2390   42.5270 Cl  0  0  0  0  0  0  0  0  0  0  0  0
   37.8540   29.9890   41.5400 C   0  0  0  0  0  0  0  0  0  0  0  0
   37.5930   30.7950   40.4730 C   0  0  0  0  0  0  0  0  0  0  0  0
   36.4690   30.6160   39.6700 C   0  0  0  0  0  0  0  0  0  0  0  0
   35.6290   29.5790   40.0100 C   0  0  0  0  0  0  0  0  0  0  0  0
   35.8870   28.7710   41.0790 C   0  0  0  0  0  0  0  0  0  0  0  0
   36.9870   28.9580   41.8510 C   0  0  0  0  0  0  0  0  0  0  0  0
   36.2690   31.2590   38.8270 H   0  0  0  0  0  0  0  0  0  0  0  0
   34.7500   29.4040   39.4200 H   0  0  0  0  0  0  0  0  0  0  0  0
   35.1830   27.9650   41.2970 H   0  0  0  0  0  0  0  0  0  0  0  0
   40.4200   32.6830   39.0320 C   0  0  0  0  0  0  0  0  0  0  0  0
   40.2540   33.9570   39.5930 C   0  0  0  0  0  0  0  0  0  0  0  0
   39.1740   34.1580   40.4590 C   0  0  0  0  0  0  0  0  0  0  0  0
   38.3420   33.1180   40.7170 N   0  0  0  0  0  0  0  0  0  0  0  0
   38.5290   31.8900   40.1570 C   0  0  0  0  0  0  0  0  0  0  0  0
   39.5630   31.6930   39.3250 N   0  0  0  0  0  0  0  0  0  0  0  0
   41.2640   32.5600   38.3660 H   0  0  0  0  0  0  0  0  0  0  0  0
   40.9040   34.7960   39.3990 H   0  0  0  0  0  0  0  0  0  0  0  0
   39.0070   35.1350   40.9180 H   0  0  0  0  0  0  0  0  0  0  0  0
   37.3080   28.1000   43.0250 C   0  0  0  0  0  3  0  0  0  0  0  0
   36.2460   27.3010   43.6790 C   0  0  0  0  0  2  0  0  0  0  0  0
   37.3350   26.6200   42.8820 C   0  0  0  0  0  2  0  0  0  0  0  0
  2  7  1  0  0  0  0
  2  1  1  0  0  0  0
  3  2  2  0  0  0  0
  4  5  2  0  0  0  0
  4  3  1  0  0  0  0
  5  6  1  0  0  0  0
  6 10  1  0  0  0  0
  6  7  2  0  0  0  0
  7 20  1  0  0  0  0
  8  4  1  0  0  0  0
  9  5  1  0  0  0  0
 11 16  2  0  0  0  0
 11 12  1  0  0  0  0
 12 13  2  0  0  0  0
 13 14  1  0  0  0  0
 13 19  1  0  0  0  0
 15  3  1  0  0  0  0
 15 14  2  0  0  0  0
 16 15  1  0  0  0  0
 17 11  1  0  0  0  0
 18 12  1  0  0  0  0
 20 21  1  0  0  0  0
 22 20  1  0  0  0  0
 22 21  1  0  0  0  0
M  END
>  <minimizedAffinity>
-5.037642

$$$$

 OpenBabel03242511263D

 22 24  0  0  0  0  0  0  0  0999 V2000
   37.5880   28.1870   39.2330 Cl  0  0  0  0  0  0  0  0  0  0  0  0
   37.4410   28.0270   40.9670 C   0  0  0  0  0  0  0  0  0  0  0  0
   37.6530   29.0930   41.7880 C   0  0  0  0  0  0  0  0  0  0  0  0
   37.5420   28.9920   43.1730 C   0  0  0  0  0  0  0  0  0  0  0  0
   37.2060   27.7550   43.6740 C   0  0  0  0  0  0  0  0  0  0  0  0
   36.9940   26.6840   42.8540 C   0  0  0  0  0  0  0  0  0  0  0  0
   37.1050   26.7990   41.5070 C   0  0  0  0  0  0  0  0  0  0  0  0
   37.7120   29.8410   43.8170 H   0  0  0  0  0  0  0  0  0  0  0  0
   37.1090   27.6290   44.7350 H   0  0  0  0  0  0  0  0  0  0  0  0
   36.7290   25.7290   43.3120 H   0  0  0  0  0  0  0  0  0  0  0  0
   39.6300   31.9360   40.5040 C   0  0  0  0  0  0  0  0  0  0  0  0
   38.6380   32.8320   40.0810 C   0  0  0  0  0  0  0  0  0  0  0  0
   37.3000   32.4530   40.2380 C   0  0  0  0  0  0  0  0  0  0  0  0
   37.0240   31.2450   40.7910 N   0  0  0  0  0  0  0  0  0  0  0  0
   38.0110   30.3950   41.1930 C   0  0  0  0  0  0  0  0  0  0  0  0
   39.2950   30.7540   41.0430 N   0  0  0  0  0  0  0  0  0  0  0  0
   40.6540   32.2570   40.3690 H   0  0  0  0  0  0  0  0  0  0  0  0
   38.8380   33.7950   39.6400 H   0  0  0  0  0  0  0  0  0  0  0  0
   36.4950   33.1200   39.9220 H   0  0  0  0  0  0  0  0  0  0  0  0
   36.8810   25.6600   40.5750 C   0  0  0  0  0  3  0  0  0  0  0  0
   37.9450   24.6510   40.3590 C   0  0  0  0  0  2  0  0  0  0  0  0
   36.6840   24.2870   41.1100 C   0  0  0  0  0  2  0  0  0  0  0  0
  1  2  1  0  0  0  0
  2  7  2  0  0  0  0
  2  3  1  0  0  0  0
  3  4  2  0  0  0  0
  4  5  1  0  0  0  0
  4  8  1  0  0  0  0
  5  9  1  0  0  0  0
  6 10  1  0  0  0  0
  6  5  2  0  0  0  0
  7  6  1  0  0  0  0
 11 16  1  0  0  0  0
 12 13  1  0  0  0  0
 12 11  2  0  0  0  0
 13 14  2  0  0  0  0
 14 15  1  0  0  0  0
 15  3  1  0  0  0  0
 16 15  2  0  0  0  0
 17 11  1  0  0  0  0
 18 12  1  0  0  0  0
 19 13  1  0  0  0  0
 20 22  1  0  0  0  0
 20  7  1  0  0  0  0
 21 20  1  0  0  0  0
 21 22  1  0  0  0  0
M  END
>  <minimizedAffinity>
-4.70768976

$$$$

 OpenBabel03242511263D

 22 24  0  0  0  0  0  0  0  0999 V2000
   37.5870   31.1020   37.1310 Cl  0  0  0  0  0  0  0  0  0  0  0  0
   36.5660   30.4140   38.3700 C   0  0  0  0  0  0  0  0  0  0  0  0
   36.6470   30.8420   39.6610 C   0  0  0  0  0  0  0  0  0  0  0  0
   35.8430   30.3100   40.6670 C   0  0  0  0  0  0  0  0  0  0  0  0
   34.9580   29.3250   40.2900 C   0  0  0  0  0  0  0  0  0  0  0  0
   34.8750   28.8940   38.9980 C   0  0  0  0  0  0  0  0  0  0  0  0
   35.6640   29.4230   38.0300 C   0  0  0  0  0  0  0  0  0  0  0  0
   35.9130   30.6530   41.6870 H   0  0  0  0  0  0  0  0  0  0  0  0
   34.3190   28.8860   41.0310 H   0  0  0  0  0  0  0  0  0  0  0  0
   34.1520   28.1100   38.7620 H   0  0  0  0  0  0  0  0  0  0  0  0
   38.2140   34.1600   40.0680 C   0  0  0  0  0  0  0  0  0  0  0  0
   39.4450   33.8460   40.6610 C   0  0  0  0  0  0  0  0  0  0  0  0
   39.7270   32.5000   40.9170 C   0  0  0  0  0  0  0  0  0  0  0  0
   38.8030   31.5650   40.5810 N   0  0  0  0  0  0  0  0  0  0  0  0
   37.6140   31.9010   40.0050 C   0  0  0  0  0  0  0  0  0  0  0  0
   37.3400   33.1910   39.7590 N   0  0  0  0  0  0  0  0  0  0  0  0
   38.0260   35.2100   39.8830 H   0  0  0  0  0  0  0  0  0  0  0  0
   40.1920   34.5760   40.9350 H   0  0  0  0  0  0  0  0  0  0  0  0
   40.6740   32.2100   41.3770 H   0  0  0  0  0  0  0  0  0  0  0  0
   35.6070   28.9840   36.6080 C   0  0  0  0  0  3  0  0  0  0  0  0
   35.0070   27.6770   36.2530 C   0  0  0  0  0  2  0  0  0  0  0  0
   34.3070   28.9660   35.8850 C   0  0  0  0  0  2  0  0  0  0  0  0
  1  2  1  0  0  0  0
  2  3  1  0  0  0  0
  3 15  1  0  0  0  0
  3  4  2  0  0  0  0
  4  8  1  0  0  0  0
  5  4  1  0  0  0  0
  5  9  1  0  0  0  0
  6  5  2  0  0  0  0
  7  2  2  0  0  0  0
  7  6  1  0  0  0  0
 10  6  1  0  0  0  0
 11 12  1  0  0  0  0
 12 13  2  0  0  0  0
 12 18  1  0  0  0  0
 13 19  1  0  0  0  0
 14 13  1  0  0  0  0
 15 14  2  0  0  0  0
 16 15  1  0  0  0  0
 16 11  2  0  0  0  0
 17 11  1  0  0  0  0
 20  7  1  0  0  0  0
 21 20  1  0  0  0  0
 22 21  1  0  0  0  0
 22 20  1  0  0  0  0
M  END
>  <minimizedAffinity>
-4.61387968

$$$$

 OpenBabel03242511263D

 22 24  0  0  0  0  0  0  0  0999 V2000
   36.2710   26.7970   39.3300 Cl  0  0  0  0  0  0  0  0  0  0  0  0
   36.4300   28.4200   39.9540 C   0  0  0  0  0  0  0  0  0  0  0  0
   36.2470   29.5010   39.1450 C   0  0  0  0  0  0  0  0  0  0  0  0
   36.3680   30.8060   39.6170 C   0  0  0  0  0  0  0  0  0  0  0  0
   36.6840   30.9500   40.9500 C   0  0  0  0  0  0  0  0  0  0  0  0
   36.8690   29.8700   41.7620 C   0  0  0  0  0  0  0  0  0  0  0  0
   36.7470   28.6050   41.2870 C   0  0  0  0  0  0  0  0  0  0  0  0
   36.2230   31.6570   38.9710 H   0  0  0  0  0  0  0  0  0  0  0  0
   36.7880   31.9370   41.3580 H   0  0  0  0  0  0  0  0  0  0  0  0
   37.1170   30.0500   42.8100 H   0  0  0  0  0  0  0  0  0  0  0  0
   36.5740   29.0300   35.4970 C   0  0  0  0  0  0  0  0  0  0  0  0
   35.2420   28.8800   35.0880 C   0  0  0  0  0  0  0  0  0  0  0  0
   34.2430   28.9390   36.0660 C   0  0  0  0  0  0  0  0  0  0  0  0
   34.6060   29.1410   37.3580 N   0  0  0  0  0  0  0  0  0  0  0  0
   35.9100   29.2840   37.7250 C   0  0  0  0  0  0  0  0  0  0  0  0
   36.8710   29.2270   36.7910 N   0  0  0  0  0  0  0  0  0  0  0  0
   37.3230   28.9790   34.7180 H   0  0  0  0  0  0  0  0  0  0  0  0
   34.9350   28.7190   34.0660 H   0  0  0  0  0  0  0  0  0  0  0  0
   33.1920   28.8270   35.7910 H   0  0  0  0  0  0  0  0  0  0  0  0
   36.9380   27.3980   42.1370 C   0  0  0  0  0  3  0  0  0  0  0  0
   37.9230   27.4110   43.2440 C   0  0  0  0  0  2  0  0  0  0  0  0
   36.4400   27.3850   43.5380 C   0  0  0  0  0  2  0  0  0  0  0  0
  1  2  1  0  0  0  0
  2  7  1  0  0  0  0
  3  4  1  0  0  0  0
  3  2  2  0  0  0  0
  4  5  2  0  0  0  0
  5  9  1  0  0  0  0
  5  6  1  0  0  0  0
  6 10  1  0  0  0  0
  7  6  2  0  0  0  0
  7 20  1  0  0  0  0
  8  4  1  0  0  0  0
 11 16  1  0  0  0  0
 12 11  2  0  0  0  0
 12 13  1  0  0  0  0
 13 14  2  0  0  0  0
 14 15  1  0  0  0  0
 15  3  1  0  0  0  0
 16 15  2  0  0  0  0
 17 11  1  0  0  0  0
 18 12  1  0  0  0  0
 19 13  1  0  0  0  0
 20 21  1  0  0  0  0
 20 22  1  0  0  0  0
 21 22  1  0  0  0  0
M  END
>  <minimizedAffinity>
-4.56129789

$$$$

 OpenBabel03242511263D

 22 24  0  0  0  0  0  0  0  0999 V2000
   36.3870   26.8640   39.3530 Cl  0  0  0  0  0  0  0  0  0  0  0  0
   37.0560   27.1840   40.9350 C   0  0  0  0  0  0  0  0  0  0  0  0
   37.8280   26.2570   41.5670 C   0  0  0  0  0  0  0  0  0  0  0  0
   38.3740   26.4870   42.8280 C   0  0  0  0  0  0  0  0  0  0  0  0
   38.0910   27.7040   43.4070 C   0  0  0  0  0  0  0  0  0  0  0  0
   37.3160   28.6340   42.7760 C   0  0  0  0  0  0  0  0  0  0  0  0
   36.7930   28.3950   41.5480 C   0  0  0  0  0  0  0  0  0  0  0  0
   38.9840   25.7490   43.3240 H   0  0  0  0  0  0  0  0  0  0  0  0
   38.4890   27.9260   44.3780 H   0  0  0  0  0  0  0  0  0  0  0  0
   37.1290   29.5810   43.2870 H   0  0  0  0  0  0  0  0  0  0  0  0
   37.5640   22.7240   40.5280 C   0  0  0  0  0  0  0  0  0  0  0  0
   38.6310   22.5890   39.6290 C   0  0  0  0  0  0  0  0  0  0  0  0
   39.4310   23.7110   39.3860 C   0  0  0  0  0  0  0  0  0  0  0  0
   39.1420   24.8700   40.0270 N   0  0  0  0  0  0  0  0  0  0  0  0
   38.0970   24.9710   40.8970 C   0  0  0  0  0  0  0  0  0  0  0  0
   37.3270   23.8980   41.1330 N   0  0  0  0  0  0  0  0  0  0  0  0
   36.9640   21.8390   40.6960 H   0  0  0  0  0  0  0  0  0  0  0  0
   38.8760   21.6760   39.1100 H   0  0  0  0  0  0  0  0  0  0  0  0
   40.2730   23.6500   38.6920 H   0  0  0  0  0  0  0  0  0  0  0  0
   35.9450   29.3800   40.8220 C   0  0  0  0  0  3  0  0  0  0  0  0
   36.1270   30.8320   41.0480 C   0  0  0  0  0  2  0  0  0  0  0  0
   36.5270   30.2060   39.7310 C   0  0  0  0  0  2  0  0  0  0  0  0
  1  2  1  0  0  0  0
  2  7  2  0  0  0  0
  2  3  1  0  0  0  0
  3  4  2  0  0  0  0
  4  8  1  0  0  0  0
  4  5  1  0  0  0  0
  5  9  1  0  0  0  0
  6 10  1  0  0  0  0
  6  5  2  0  0  0  0
  7  6  1  0  0  0  0
 11 17  1  0  0  0  0
 11 16  1  0  0  0  0
 12 11  2  0  0  0  0
 13 12  1  0  0  0  0
 13 14  2  0  0  0  0
 14 15  1  0  0  0  0
 15 16  2  0  0  0  0
 15  3  1  0  0  0  0
 18 12  1  0  0  0  0
 19 13  1  0  0  0  0
 20 21  1  0  0  0  0
 20  7  1  0  0  0  0
 22 20  1  0  0  0  0
 22 21  1  0  0  0  0
M  END
>  <minimizedAffinity>
-4.4618969

$$$$

 OpenBabel03242511263D

 22 24  0  0  0  0  0  0  0  0999 V2000
   36.4250   27.8220   40.0530 Cl  0  0  0  0  0  0  0  0  0  0  0  0
   37.6290   27.8170   41.3180 C   0  0  0  0  0  0  0  0  0  0  0  0
   38.3930   28.9190   41.5610 C   0  0  0  0  0  0  0  0  0  0  0  0
   39.3600   28.9410   42.5640 C   0  0  0  0  0  0  0  0  0  0  0  0
   39.5050   27.7880   43.3020 C   0  0  0  0  0  0  0  0  0  0  0  0
   38.7420   26.6830   43.0610 C   0  0  0  0  0  0  0  0  0  0  0  0
   37.8050   26.6780   42.0810 C   0  0  0  0  0  0  0  0  0  0  0  0
   39.9620   29.8160   42.7500 H   0  0  0  0  0  0  0  0  0  0  0  0
   40.2380   27.7580   44.0860 H   0  0  0  0  0  0  0  0  0  0  0  0
   38.9050   25.7990   43.6820 H   0  0  0  0  0  0  0  0  0  0  0  0
   38.8200   31.4850   38.9410 C   0  0  0  0  0  0  0  0  0  0  0  0
   37.7850   32.3870   39.2250 C   0  0  0  0  0  0  0  0  0  0  0  0
   36.9490   32.1070   40.3110 C   0  0  0  0  0  0  0  0  0  0  0  0
   37.1770   30.9840   41.0370 N   0  0  0  0  0  0  0  0  0  0  0  0
   38.1920   30.1260   40.7370 C   0  0  0  0  0  0  0  0  0  0  0  0
   38.9950   30.3900   39.6950 N   0  0  0  0  0  0  0  0  0  0  0  0
   39.4490   31.7300   38.0950 H   0  0  0  0  0  0  0  0  0  0  0  0
   37.5890   33.2850   38.6590 H   0  0  0  0  0  0  0  0  0  0  0  0
   36.1300   32.7830   40.5680 H   0  0  0  0  0  0  0  0  0  0  0  0
   36.9490   25.4960   41.7840 C   0  0  0  0  0  3  0  0  0  0  0  0
   37.3400   24.5380   40.7240 C   0  0  0  0  0  2  0  0  0  0  0  0
   37.3950   24.1340   42.1800 C   0  0  0  0  0  2  0  0  0  0  0  0
  1  2  1  0  0  0  0
  2  3  2  0  0  0  0
  2  7  1  0  0  0  0
  3  4  1  0  0  0  0
  4  8  1  0  0  0  0
  4  5  2  0  0  0  0
  5  9  1  0  0  0  0
  6  5  1  0  0  0  0
  6 10  1  0  0  0  0
  7  6  2  0  0  0  0
 11 12  2  0  0  0  0
 11 16  1  0  0  0  0
 12 13  1  0  0  0  0
 13 19  1  0  0  0  0
 13 14  2  0  0  0  0
 15 14  1  0  0  0  0
 15  3  1  0  0  0  0
 16 15  2  0  0  0  0
 17 11  1  0  0  0  0
 18 12  1  0  0  0  0
 20  7  1  0  0  0  0
 20 22  1  0  0  0  0
 21 20  1  0  0  0  0
 21 22  1  0  0  0  0
M  END
>  <minimizedAffinity>
-4.45841742

$$$$

 OpenBabel03242511263D

 22 24  0  0  0  0  0  0  0  0999 V2000
   40.5070   29.8690   41.2210 Cl  0  0  0  0  0  0  0  0  0  0  0  0
   38.8270   30.2910   40.9970 C   0  0  0  0  0  0  0  0  0  0  0  0
   38.4560   31.2140   40.0670 C   0  0  0  0  0  0  0  0  0  0  0  0
   37.1240   31.5690   39.8680 C   0  0  0  0  0  0  0  0  0  0  0  0
   36.1950   30.9370   40.6640 C   0  0  0  0  0  0  0  0  0  0  0  0
   36.5630   30.0120   41.5980 C   0  0  0  0  0  0  0  0  0  0  0  0
   37.8650   29.6780   41.7780 C   0  0  0  0  0  0  0  0  0  0  0  0
   36.8370   32.3010   39.1300 H   0  0  0  0  0  0  0  0  0  0  0  0
   35.1560   31.1780   40.5470 H   0  0  0  0  0  0  0  0  0  0  0  0
   35.7790   29.5450   42.1970 H   0  0  0  0  0  0  0  0  0  0  0  0
   40.8040   31.9180   37.3050 C   0  0  0  0  0  0  0  0  0  0  0  0
   41.4410   33.0900   37.7360 C   0  0  0  0  0  0  0  0  0  0  0  0
   41.0590   33.6300   38.9690 C   0  0  0  0  0  0  0  0  0  0  0  0
   40.0980   32.9980   39.6880 N   0  0  0  0  0  0  0  0  0  0  0  0
   39.4960   31.8590   39.2430 C   0  0  0  0  0  0  0  0  0  0  0  0
   39.8590   31.3390   38.0610 N   0  0  0  0  0  0  0  0  0  0  0  0
   41.1210   31.5250   36.3480 H   0  0  0  0  0  0  0  0  0  0  0  0
   42.2070   33.6060   37.1780 H   0  0  0  0  0  0  0  0  0  0  0  0
   41.5290   34.5420   39.3440 H   0  0  0  0  0  0  0  0  0  0  0  0
   38.3130   28.6740   42.7830 C   0  0  0  0  0  3  0  0  0  0  0  0
   37.3280   28.0250   43.6800 C   0  0  0  0  0  2  0  0  0  0  0  0
   38.0060   27.2330   42.5850 C   0  0  0  0  0  2  0  0  0  0  0  0
  2  1  1  0  0  0  0
  2  7  1  0  0  0  0
  3  2  2  0  0  0  0
  4  3  1  0  0  0  0
  4  5  2  0  0  0  0
  5  6  1  0  0  0  0
  6  7  2  0  0  0  0
  6 10  1  0  0  0  0
  7 20  1  0  0  0  0
  8  4  1  0  0  0  0
  9  5  1  0  0  0  0
 11 12  2  0  0  0  0
 11 16  1  0  0  0  0
 12 13  1  0  0  0  0
 13 19  1  0  0  0  0
 13 14  2  0  0  0  0
 15 14  1  0  0  0  0
 15  3  1  0  0  0  0
 16 15  2  0  0  0  0
 17 11  1  0  0  0  0
 18 12  1  0  0  0  0
 20 21  1  0  0  0  0
 22 20  1  0  0  0  0
 22 21  1  0  0  0  0
M  END
>  <minimizedAffinity>
-4.43159866

$$$$

 OpenBabel03242511263D

 22 24  0  0  0  0  0  0  0  0999 V2000
   37.1020   30.3390   40.7970 Cl  0  0  0  0  0  0  0  0  0  0  0  0
   38.4910   29.6770   41.6230 C   0  0  0  0  0  0  0  0  0  0  0  0
   39.6920   30.3200   41.5980 C   0  0  0  0  0  0  0  0  0  0  0  0
   40.8150   29.8130   42.2480 C   0  0  0  0  0  0  0  0  0  0  0  0
   40.6500   28.6240   42.9230 C   0  0  0  0  0  0  0  0  0  0  0  0
   39.4490   27.9770   42.9490 C   0  0  0  0  0  0  0  0  0  0  0  0
   38.3650   28.4840   42.3110 C   0  0  0  0  0  0  0  0  0  0  0  0
   41.7630   30.3270   42.2240 H   0  0  0  0  0  0  0  0  0  0  0  0
   41.4880   28.1950   43.4380 H   0  0  0  0  0  0  0  0  0  0  0  0
   39.3820   27.0380   43.5020 H   0  0  0  0  0  0  0  0  0  0  0  0
   39.3040   33.8640   40.6380 C   0  0  0  0  0  0  0  0  0  0  0  0
   40.0480   33.9430   39.4530 C   0  0  0  0  0  0  0  0  0  0  0  0
   40.6780   32.7810   38.9940 C   0  0  0  0  0  0  0  0  0  0  0  0
   40.5400   31.6370   39.7100 N   0  0  0  0  0  0  0  0  0  0  0  0
   39.8080   31.5910   40.8590 C   0  0  0  0  0  0  0  0  0  0  0  0
   39.2040   32.7030   41.3030 N   0  0  0  0  0  0  0  0  0  0  0  0
   38.8290   34.7790   40.9670 H   0  0  0  0  0  0  0  0  0  0  0  0
   40.1700   34.8430   38.8700 H   0  0  0  0  0  0  0  0  0  0  0  0
   41.2680   32.7980   38.0750 H   0  0  0  0  0  0  0  0  0  0  0  0
   37.0350   27.8140   42.3140 C   0  0  0  0  0  3  0  0  0  0  0  0
   36.9330   26.3590   42.5740 C   0  0  0  0  0  2  0  0  0  0  0  0
   36.4340   27.3560   43.5950 C   0  0  0  0  0  2  0  0  0  0  0  0
  1  2  1  0  0  0  0
  2  7  1  0  0  0  0
  3  2  2  0  0  0  0
  3  4  1  0  0  0  0
  4  5  2  0  0  0  0
  5  6  1  0  0  0  0
  5  9  1  0  0  0  0
  6 10  1  0  0  0  0
  7 20  1  0  0  0  0
  7  6  2  0  0  0  0
  8  4  1  0  0  0  0
 11 17  1  0  0  0  0
 11 16  1  0  0  0  0
 12 11  2  0  0  0  0
 13 12  1  0  0  0  0
 13 14  2  0  0  0  0
 14 15  1  0  0  0  0
 15 16  2  0  0  0  0
 15  3  1  0  0  0  0
 18 12  1  0  0  0  0
 19 13  1  0  0  0  0
 20 21  1  0  0  0  0
 20 22  1  0  0  0  0
 21 22  1  0  0  0  0
M  END
>  <minimizedAffinity>
-4.43126011

$$$$

 OpenBabel03242511263D

 22 24  0  0  0  0  0  0  0  0999 V2000
   39.7670   28.5120   39.6970 Cl  0  0  0  0  0  0  0  0  0  0  0  0
   38.0850   28.7540   40.1000 C   0  0  0  0  0  0  0  0  0  0  0  0
   37.5080   28.0720   41.1280 C   0  0  0  0  0  0  0  0  0  0  0  0
   36.1690   28.2470   41.4700 C   0  0  0  0  0  0  0  0  0  0  0  0
   35.4540   29.1490   40.7140 C   0  0  0  0  0  0  0  0  0  0  0  0
   36.0290   29.8330   39.6830 C   0  0  0  0  0  0  0  0  0  0  0  0
   37.3350   29.6520   39.3630 C   0  0  0  0  0  0  0  0  0  0  0  0
   35.7170   27.7030   42.2850 H   0  0  0  0  0  0  0  0  0  0  0  0
   34.4190   29.3160   40.9410 H   0  0  0  0  0  0  0  0  0  0  0  0
   35.4100   30.5350   39.1220 H   0  0  0  0  0  0  0  0  0  0  0  0
   39.7750   26.6640   43.6790 C   0  0  0  0  0  0  0  0  0  0  0  0
   39.8340   25.3100   43.3220 C   0  0  0  0  0  0  0  0  0  0  0  0
   39.0940   24.8910   42.2110 C   0  0  0  0  0  0  0  0  0  0  0  0
   38.3600   25.8070   41.5320 N   0  0  0  0  0  0  0  0  0  0  0  0
   38.3230   27.1180   41.9030 C   0  0  0  0  0  0  0  0  0  0  0  0
   39.0300   27.5240   42.9690 N   0  0  0  0  0  0  0  0  0  0  0  0
   40.3580   26.9570   44.5430 H   0  0  0  0  0  0  0  0  0  0  0  0
   40.4110   24.5670   43.8500 H   0  0  0  0  0  0  0  0  0  0  0  0
   39.1110   23.8440   41.8980 H   0  0  0  0  0  0  0  0  0  0  0  0
   38.0050   30.3780   38.2490 C   0  0  0  0  0  3  0  0  0  0  0  0
   37.3010   30.5820   36.9610 C   0  0  0  0  0  2  0  0  0  0  0  0
   37.5660   31.7510   37.8830 C   0  0  0  0  0  2  0  0  0  0  0  0
  1  2  1  0  0  0  0
  2  3  1  0  0  0  0
  3  4  2  0  0  0  0
  3 15  1  0  0  0  0
  4  8  1  0  0  0  0
  5  9  1  0  0  0  0
  5  4  1  0  0  0  0
  6  5  2  0  0  0  0
  7  6  1  0  0  0  0
  7  2  2  0  0  0  0
 10  6  1  0  0  0  0
 11 17  1  0  0  0  0
 12 11  1  0  0  0  0
 12 18  1  0  0  0  0
 13 12  2  0  0  0  0
 14 15  2  0  0  0  0
 14 13  1  0  0  0  0
 15 16  1  0  0  0  0
 16 11  2  0  0  0  0
 19 13  1  0  0  0  0
 20  7  1  0  0  0  0
 21 22  1  0  0  0  0
 21 20  1  0  0  0  0
 22 20  1  0  0  0  0
M  END
>  <minimizedAffinity>
-4.32744122

$$$$
