
 OpenBabel03252506033D

 22 24  0  0  0  0  0  0  0  0999 V2000
   40.8570   30.7120   42.9150 Cl  0  0  0  0  0  0  0  0  0  0  0  0
   39.3140   30.1910   42.3280 C   0  0  0  0  0  0  0  0  0  0  0  0
   38.7600   30.7870   41.2180 C   0  0  0  0  0  0  0  0  0  0  0  0
   37.5220   30.3100   40.8130 C   0  0  0  0  0  0  0  0  0  0  0  0
   36.8380   29.2920   41.4560 C   0  0  0  0  0  0  0  0  0  0  0  0
   37.4200   28.7200   42.5590 C   0  0  0  0  0  0  0  0  0  0  0  0
   36.5200   27.4350   43.3210 Cl  0  0  0  0  0  0  0  0  0  0  0  0
   38.6420   29.1640   42.9890 C   0  0  0  0  0  0  0  0  0  0  0  0
   37.1430   30.8340   39.9190 H   0  0  0  0  0  0  0  0  0  0  0  0
   39.0690   28.6920   43.8610 H   0  0  0  0  0  0  0  0  0  0  0  0
   39.7200   34.1610   40.2040 C   0  0  0  0  0  0  0  0  0  0  0  0
   40.6580   33.9240   39.1740 C   0  0  0  0  0  0  0  0  0  0  0  0
   40.9610   32.5790   38.8260 C   0  0  0  0  0  0  0  0  0  0  0  0
   40.3160   31.6210   39.5230 N   0  0  0  0  0  0  0  0  0  0  0  0
   39.4340   31.8700   40.4920 C   0  0  0  0  0  0  0  0  0  0  0  0
   39.1270   33.1340   40.8440 N   0  0  0  0  0  0  0  0  0  0  0  0
   39.5120   35.1950   40.4440 H   0  0  0  0  0  0  0  0  0  0  0  0
   41.1570   34.7220   38.6350 H   0  0  0  0  0  0  0  0  0  0  0  0
   41.6580   32.3210   38.0580 H   0  0  0  0  0  0  0  0  0  0  0  0
   35.5350   29.0090   40.8000 C   0  0  0  0  0  3  0  0  0  0  0  0
   35.6830   28.0000   39.6560 C   0  0  0  0  0  2  0  0  0  0  0  0
   35.1950   29.3910   39.4350 C   0  0  0  0  0  2  0  0  0  0  0  0
  2  1  1  0  0  0  0
  2  8  1  0  0  0  0
  3  2  2  0  0  0  0
  4  3  1  0  0  0  0
  4  5  2  0  0  0  0
  5  6  1  0  0  0  0
  6  8  2  0  0  0  0
  6  7  1  0  0  0  0
  8 10  1  0  0  0  0
  9  4  1  0  0  0  0
 11 17  1  0  0  0  0
 11 16  1  0  0  0  0
 12 11  2  0  0  0  0
 13 12  1  0  0  0  0
 13 14  2  0  0  0  0
 14 15  1  0  0  0  0
 15 16  2  0  0  0  0
 15  3  1  0  0  0  0
 18 12  1  0  0  0  0
 19 13  1  0  0  0  0
 20  5  1  0  0  0  0
 21 20  1  0  0  0  0
 22 21  1  0  0  0  0
 22 20  1  0  0  0  0
M  END
>  <minimizedAffinity>
-4.824893

$$$$

 OpenBabel03252506033D

 22 24  0  0  0  0  0  0  0  0999 V2000
   40.2290   29.4120   42.4790 Cl  0  0  0  0  0  0  0  0  0  0  0  0
   39.3290   27.9490   42.2630 C   0  0  0  0  0  0  0  0  0  0  0  0
   38.1860   27.9480   41.4990 C   0  0  0  0  0  0  0  0  0  0  0  0
   37.5260   26.7330   41.3770 C   0  0  0  0  0  0  0  0  0  0  0  0
   37.9530   25.5580   41.9710 C   0  0  0  0  0  0  0  0  0  0  0  0
   39.0970   25.5960   42.7260 C   0  0  0  0  0  0  0  0  0  0  0  0
   39.5950   24.0850   43.4410 Cl  0  0  0  0  0  0  0  0  0  0  0  0
   39.7770   26.7760   42.8710 C   0  0  0  0  0  0  0  0  0  0  0  0
   36.6210   26.8100   40.7510 H   0  0  0  0  0  0  0  0  0  0  0  0
   40.6730   26.7690   43.4720 H   0  0  0  0  0  0  0  0  0  0  0  0
   36.3190   31.0400   40.9710 C   0  0  0  0  0  0  0  0  0  0  0  0
   36.7090   31.4240   39.6680 C   0  0  0  0  0  0  0  0  0  0  0  0
   37.6290   30.6010   38.9650 C   0  0  0  0  0  0  0  0  0  0  0  0
   38.0640   29.5000   39.6120 N   0  0  0  0  0  0  0  0  0  0  0  0
   37.6810   29.1590   40.8420 C   0  0  0  0  0  0  0  0  0  0  0  0
   36.8100   29.9190   41.5350 N   0  0  0  0  0  0  0  0  0  0  0  0
   35.6170   31.6890   41.4800 H   0  0  0  0  0  0  0  0  0  0  0  0
   36.3370   32.3180   39.1800 H   0  0  0  0  0  0  0  0  0  0  0  0
   37.9710   30.8240   37.9760 H   0  0  0  0  0  0  0  0  0  0  0  0
   37.0360   24.4280   41.6710 C   0  0  0  0  0  3  0  0  0  0  0  0
   37.6340   23.4720   40.6340 C   0  0  0  0  0  2  0  0  0  0  0  0
   36.3690   24.2210   40.3910 C   0  0  0  0  0  2  0  0  0  0  0  0
  2  1  1  0  0  0  0
  2  8  1  0  0  0  0
  3  2  2  0  0  0  0
  4  3  1  0  0  0  0
  4  5  2  0  0  0  0
  5  6  1  0  0  0  0
  6  8  2  0  0  0  0
  6  7  1  0  0  0  0
  8 10  1  0  0  0  0
  9  4  1  0  0  0  0
 11 17  1  0  0  0  0
 11 16  1  0  0  0  0
 12 11  2  0  0  0  0
 13 14  2  0  0  0  0
 13 12  1  0  0  0  0
 14 15  1  0  0  0  0
 15  3  1  0  0  0  0
 15 16  2  0  0  0  0
 18 12  1  0  0  0  0
 19 13  1  0  0  0  0
 20  5  1  0  0  0  0
 21 20  1  0  0  0  0
 22 21  1  0  0  0  0
 22 20  1  0  0  0  0
M  END
>  <minimizedAffinity>
-4.75982285

$$$$

 OpenBabel03252506033D

 22 24  0  0  0  0  0  0  0  0999 V2000
   37.1190   30.3730   37.3310 Cl  0  0  0  0  0  0  0  0  0  0  0  0
   37.2850   29.4590   38.7920 C   0  0  0  0  0  0  0  0  0  0  0  0
   37.7910   30.0530   39.9250 C   0  0  0  0  0  0  0  0  0  0  0  0
   37.8890   29.2500   41.0520 C   0  0  0  0  0  0  0  0  0  0  0  0
   37.5130   27.9180   41.0880 C   0  0  0  0  0  0  0  0  0  0  0  0
   37.0120   27.3580   39.9400 C   0  0  0  0  0  0  0  0  0  0  0  0
   36.5440   25.6810   40.0450 Cl  0  0  0  0  0  0  0  0  0  0  0  0
   36.9000   28.1190   38.8060 C   0  0  0  0  0  0  0  0  0  0  0  0
   38.3020   29.7930   41.9180 H   0  0  0  0  0  0  0  0  0  0  0  0
   36.5020   27.6450   37.9210 H   0  0  0  0  0  0  0  0  0  0  0  0
   39.9590   32.9890   40.0200 C   0  0  0  0  0  0  0  0  0  0  0  0
   39.0370   34.0600   40.0060 C   0  0  0  0  0  0  0  0  0  0  0  0
   37.6480   33.7610   39.9630 C   0  0  0  0  0  0  0  0  0  0  0  0
   37.3180   32.4530   39.9380 N   0  0  0  0  0  0  0  0  0  0  0  0
   38.2070   31.4600   39.9520 C   0  0  0  0  0  0  0  0  0  0  0  0
   39.5300   31.7120   39.9930 N   0  0  0  0  0  0  0  0  0  0  0  0
   41.0090   33.2500   40.0530 H   0  0  0  0  0  0  0  0  0  0  0  0
   39.3420   35.1010   40.0270 H   0  0  0  0  0  0  0  0  0  0  0  0
   36.8920   34.5160   39.9510 H   0  0  0  0  0  0  0  0  0  0  0  0
   37.7480   27.3190   42.4270 C   0  0  0  0  0  3  0  0  0  0  0  0
   36.4850   27.3570   43.2950 C   0  0  0  0  0  2  0  0  0  0  0  0
   37.7390   28.0640   43.6800 C   0  0  0  0  0  2  0  0  0  0  0  0
  1  2  1  0  0  0  0
  2  8  2  0  0  0  0
  2  3  1  0  0  0  0
  3 15  1  0  0  0  0
  3  4  2  0  0  0  0
  4  5  1  0  0  0  0
  4  9  1  0  0  0  0
  5 20  1  0  0  0  0
  6  7  1  0  0  0  0
  6  5  2  0  0  0  0
  8  6  1  0  0  0  0
 10  8  1  0  0  0  0
 11 17  1  0  0  0  0
 12 11  1  0  0  0  0
 12 18  1  0  0  0  0
 13 12  2  0  0  0  0
 14 15  2  0  0  0  0
 14 13  1  0  0  0  0
 15 16  1  0  0  0  0
 16 11  2  0  0  0  0
 19 13  1  0  0  0  0
 20 21  1  0  0  0  0
 20 22  1  0  0  0  0
 21 22  1  0  0  0  0
M  END
>  <minimizedAffinity>
-4.64341021

$$$$

 OpenBabel03252506033D

 22 24  0  0  0  0  0  0  0  0999 V2000
   36.3670   29.4850   38.8290 Cl  0  0  0  0  0  0  0  0  0  0  0  0
   37.1520   28.7800   40.2020 C   0  0  0  0  0  0  0  0  0  0  0  0
   38.1460   29.4680   40.8580 C   0  0  0  0  0  0  0  0  0  0  0  0
   38.7210   28.8320   41.9480 C   0  0  0  0  0  0  0  0  0  0  0  0
   38.3510   27.5740   42.3940 C   0  0  0  0  0  0  0  0  0  0  0  0
   37.3560   26.9170   41.7160 C   0  0  0  0  0  0  0  0  0  0  0  0
   36.9230   25.3420   42.3270 Cl  0  0  0  0  0  0  0  0  0  0  0  0
   36.7630   27.5130   40.6340 C   0  0  0  0  0  0  0  0  0  0  0  0
   39.5080   29.4420   42.4220 H   0  0  0  0  0  0  0  0  0  0  0  0
   35.9840   26.9670   40.1240 H   0  0  0  0  0  0  0  0  0  0  0  0
   40.1020   32.0810   39.2220 C   0  0  0  0  0  0  0  0  0  0  0  0
   39.4420   33.2650   39.6230 C   0  0  0  0  0  0  0  0  0  0  0  0
   38.3070   33.1550   40.4710 C   0  0  0  0  0  0  0  0  0  0  0  0
   37.9450   31.9060   40.8280 N   0  0  0  0  0  0  0  0  0  0  0  0
   38.5840   30.8040   40.4370 C   0  0  0  0  0  0  0  0  0  0  0  0
   39.6630   30.8750   39.6330 N   0  0  0  0  0  0  0  0  0  0  0  0
   40.9630   32.1980   38.5770 H   0  0  0  0  0  0  0  0  0  0  0  0
   39.7640   34.2530   39.3140 H   0  0  0  0  0  0  0  0  0  0  0  0
   37.7560   34.0040   40.8170 H   0  0  0  0  0  0  0  0  0  0  0  0
   39.1530   27.1530   43.5720 C   0  0  0  0  0  3  0  0  0  0  0  0
   40.6490   27.0890   43.2450 C   0  0  0  0  0  2  0  0  0  0  0  0
   39.8740   25.8900   43.6730 C   0  0  0  0  0  2  0  0  0  0  0  0
  1  2  1  0  0  0  0
  2  8  2  0  0  0  0
  2  3  1  0  0  0  0
  3  4  2  0  0  0  0
  4  5  1  0  0  0  0
  4  9  1  0  0  0  0
  5 20  1  0  0  0  0
  6  7  1  0  0  0  0
  6  5  2  0  0  0  0
  8  6  1  0  0  0  0
 10  8  1  0  0  0  0
 11 12  2  0  0  0  0
 11 16  1  0  0  0  0
 12 13  1  0  0  0  0
 13 19  1  0  0  0  0
 13 14  2  0  0  0  0
 15 14  1  0  0  0  0
 15  3  1  0  0  0  0
 16 15  2  0  0  0  0
 17 11  1  0  0  0  0
 18 12  1  0  0  0  0
 20 22  1  0  0  0  0
 21 20  1  0  0  0  0
 21 22  1  0  0  0  0
M  END
>  <minimizedAffinity>
-4.61310863

$$$$

 OpenBabel03252506033D

 22 24  0  0  0  0  0  0  0  0999 V2000
   37.5880   30.7380   37.8460 Cl  0  0  0  0  0  0  0  0  0  0  0  0
   37.5840   30.1560   39.4760 C   0  0  0  0  0  0  0  0  0  0  0  0
   36.6780   29.1950   39.8640 C   0  0  0  0  0  0  0  0  0  0  0  0
   36.7430   28.7840   41.1880 C   0  0  0  0  0  0  0  0  0  0  0  0
   37.6510   29.2800   42.1080 C   0  0  0  0  0  0  0  0  0  0  0  0
   38.5390   30.2360   41.6860 C   0  0  0  0  0  0  0  0  0  0  0  0
   39.6660   30.8180   42.8840 Cl  0  0  0  0  0  0  0  0  0  0  0  0
   38.5060   30.6690   40.3870 C   0  0  0  0  0  0  0  0  0  0  0  0
   35.9890   28.0140   41.4240 H   0  0  0  0  0  0  0  0  0  0  0  0
   39.2200   31.4220   40.0900 H   0  0  0  0  0  0  0  0  0  0  0  0
   35.1240   26.8970   37.4920 C   0  0  0  0  0  0  0  0  0  0  0  0
   33.8930   27.5280   37.2030 C   0  0  0  0  0  0  0  0  0  0  0  0
   33.5990   28.7650   37.8390 C   0  0  0  0  0  0  0  0  0  0  0  0
   34.5370   29.2430   38.6810 N   0  0  0  0  0  0  0  0  0  0  0  0
   35.6920   28.6280   38.9370 C   0  0  0  0  0  0  0  0  0  0  0  0
   35.9990   27.4550   38.3510 N   0  0  0  0  0  0  0  0  0  0  0  0
   35.3170   25.9560   36.9920 H   0  0  0  0  0  0  0  0  0  0  0  0
   33.1630   27.1120   36.5180 H   0  0  0  0  0  0  0  0  0  0  0  0
   32.6900   29.3030   37.6710 H   0  0  0  0  0  0  0  0  0  0  0  0
   37.4700   28.6580   43.4450 C   0  0  0  0  0  3  0  0  0  0  0  0
   38.3190   27.3930   43.6020 C   0  0  0  0  0  2  0  0  0  0  0  0
   36.8310   27.3690   43.6790 C   0  0  0  0  0  2  0  0  0  0  0  0
  1  2  1  0  0  0  0
  2  3  2  0  0  0  0
  2  8  1  0  0  0  0
  3  4  1  0  0  0  0
  4  9  1  0  0  0  0
  4  5  2  0  0  0  0
  5 20  1  0  0  0  0
  6  5  1  0  0  0  0
  6  7  1  0  0  0  0
  8  6  2  0  0  0  0
 10  8  1  0  0  0  0
 11 16  1  0  0  0  0
 12 11  2  0  0  0  0
 12 13  1  0  0  0  0
 13 14  2  0  0  0  0
 14 15  1  0  0  0  0
 15  3  1  0  0  0  0
 16 15  2  0  0  0  0
 17 11  1  0  0  0  0
 18 12  1  0  0  0  0
 19 13  1  0  0  0  0
 20 21  1  0  0  0  0
 20 22  1  0  0  0  0
 21 22  1  0  0  0  0
M  END
>  <minimizedAffinity>
-4.53675842

$$$$

 OpenBabel03252506033D

 22 24  0  0  0  0  0  0  0  0999 V2000
   36.9180   27.2840   36.9800 Cl  0  0  0  0  0  0  0  0  0  0  0  0
   37.0990   27.1110   38.6930 C   0  0  0  0  0  0  0  0  0  0  0  0
   37.5440   28.1700   39.4510 C   0  0  0  0  0  0  0  0  0  0  0  0
   37.6590   27.9470   40.8150 C   0  0  0  0  0  0  0  0  0  0  0  0
   37.3550   26.7450   41.4310 C   0  0  0  0  0  0  0  0  0  0  0  0
   36.9130   25.7110   40.6450 C   0  0  0  0  0  0  0  0  0  0  0  0
   36.5350   24.2240   41.4750 Cl  0  0  0  0  0  0  0  0  0  0  0  0
   36.7870   25.8920   39.2930 C   0  0  0  0  0  0  0  0  0  0  0  0
   38.0200   28.8390   41.3560 H   0  0  0  0  0  0  0  0  0  0  0  0
   36.4370   25.0570   38.7050 H   0  0  0  0  0  0  0  0  0  0  0  0
   37.1830   31.6210   38.3150 C   0  0  0  0  0  0  0  0  0  0  0  0
   38.4560   31.9070   37.7700 C   0  0  0  0  0  0  0  0  0  0  0  0
   39.4500   30.8910   37.7970 C   0  0  0  0  0  0  0  0  0  0  0  0
   39.0900   29.7150   38.3520 N   0  0  0  0  0  0  0  0  0  0  0  0
   37.8820   29.4700   38.8590 C   0  0  0  0  0  0  0  0  0  0  0  0
   36.9190   30.4120   38.8480 N   0  0  0  0  0  0  0  0  0  0  0  0
   36.4490   32.4150   38.2780 H   0  0  0  0  0  0  0  0  0  0  0  0
   38.7080   32.8660   37.3310 H   0  0  0  0  0  0  0  0  0  0  0  0
   40.4340   31.0310   37.4040 H   0  0  0  0  0  0  0  0  0  0  0  0
   37.5890   26.8060   42.8970 C   0  0  0  0  0  3  0  0  0  0  0  0
   36.3510   27.3070   43.6490 C   0  0  0  0  0  2  0  0  0  0  0  0
   37.6500   28.0380   43.6750 C   0  0  0  0  0  2  0  0  0  0  0  0
  1  2  1  0  0  0  0
  2  8  2  0  0  0  0
  2  3  1  0  0  0  0
  3  4  2  0  0  0  0
  4  9  1  0  0  0  0
  4  5  1  0  0  0  0
  5 20  1  0  0  0  0
  6  5  2  0  0  0  0
  6  7  1  0  0  0  0
  8  6  1  0  0  0  0
 10  8  1  0  0  0  0
 11 16  1  0  0  0  0
 12 13  1  0  0  0  0
 12 11  2  0  0  0  0
 13 14  2  0  0  0  0
 14 15  1  0  0  0  0
 15  3  1  0  0  0  0
 16 15  2  0  0  0  0
 17 11  1  0  0  0  0
 18 12  1  0  0  0  0
 19 13  1  0  0  0  0
 20 21  1  0  0  0  0
 20 22  1  0  0  0  0
 21 22  1  0  0  0  0
M  END
>  <minimizedAffinity>
-4.43782139

$$$$

 OpenBabel03252506033D

 22 24  0  0  0  0  0  0  0  0999 V2000
   38.8770   31.8490   38.0590 Cl  0  0  0  0  0  0  0  0  0  0  0  0
   38.5370   31.0290   39.5450 C   0  0  0  0  0  0  0  0  0  0  0  0
   39.4250   31.0990   40.5920 C   0  0  0  0  0  0  0  0  0  0  0  0
   39.0750   30.4150   41.7470 C   0  0  0  0  0  0  0  0  0  0  0  0
   37.9070   29.6850   41.8890 C   0  0  0  0  0  0  0  0  0  0  0  0
   37.0440   29.6360   40.8240 C   0  0  0  0  0  0  0  0  0  0  0  0
   35.5830   28.7120   41.0630 Cl  0  0  0  0  0  0  0  0  0  0  0  0
   37.3550   30.3000   39.6670 C   0  0  0  0  0  0  0  0  0  0  0  0
   39.8340   30.5170   42.5410 H   0  0  0  0  0  0  0  0  0  0  0  0
   36.6520   30.2390   38.8490 H   0  0  0  0  0  0  0  0  0  0  0  0
   42.9720   31.8210   40.1090 C   0  0  0  0  0  0  0  0  0  0  0  0
   43.0420   33.2150   40.3320 C   0  0  0  0  0  0  0  0  0  0  0  0
   41.8460   33.9120   40.6550 C   0  0  0  0  0  0  0  0  0  0  0  0
   40.7210   33.1710   40.7210 N   0  0  0  0  0  0  0  0  0  0  0  0
   40.6800   31.8560   40.5060 C   0  0  0  0  0  0  0  0  0  0  0  0
   41.7970   31.1680   40.1980 N   0  0  0  0  0  0  0  0  0  0  0  0
   43.9000   31.3190   39.8660 H   0  0  0  0  0  0  0  0  0  0  0  0
   43.9680   33.7760   40.2700 H   0  0  0  0  0  0  0  0  0  0  0  0
   41.8190   34.9650   40.8380 H   0  0  0  0  0  0  0  0  0  0  0  0
   37.8160   29.0540   43.2310 C   0  0  0  0  0  3  0  0  0  0  0  0
   38.6940   27.8020   43.3300 C   0  0  0  0  0  2  0  0  0  0  0  0
   37.2140   27.7530   43.4950 C   0  0  0  0  0  2  0  0  0  0  0  0
  1  2  1  0  0  0  0
  2  8  2  0  0  0  0
  2  3  1  0  0  0  0
  3  4  2  0  0  0  0
  4  5  1  0  0  0  0
  4  9  1  0  0  0  0
  5 20  1  0  0  0  0
  6  7  1  0  0  0  0
  6  5  2  0  0  0  0
  8  6  1  0  0  0  0
 10  8  1  0  0  0  0
 11 16  2  0  0  0  0
 11 12  1  0  0  0  0
 12 13  2  0  0  0  0
 13 14  1  0  0  0  0
 13 19  1  0  0  0  0
 15  3  1  0  0  0  0
 15 14  2  0  0  0  0
 16 15  1  0  0  0  0
 17 11  1  0  0  0  0
 18 12  1  0  0  0  0
 20 21  1  0  0  0  0
 20 22  1  0  0  0  0
 21 22  1  0  0  0  0
M  END
>  <minimizedAffinity>
-4.37905693

$$$$

 OpenBabel03252506033D

 22 24  0  0  0  0  0  0  0  0999 V2000
   36.7840   31.2170   39.4610 Cl  0  0  0  0  0  0  0  0  0  0  0  0
   36.9030   29.6690   40.2270 C   0  0  0  0  0  0  0  0  0  0  0  0
   36.2430   28.5840   39.6980 C   0  0  0  0  0  0  0  0  0  0  0  0
   36.3920   27.3810   40.3730 C   0  0  0  0  0  0  0  0  0  0  0  0
   37.1520   27.2270   41.5210 C   0  0  0  0  0  0  0  0  0  0  0  0
   37.7960   28.3310   42.0200 C   0  0  0  0  0  0  0  0  0  0  0  0
   38.7470   28.0770   43.4600 Cl  0  0  0  0  0  0  0  0  0  0  0  0
   37.6730   29.5360   41.3820 C   0  0  0  0  0  0  0  0  0  0  0  0
   35.8370   26.5590   39.8910 H   0  0  0  0  0  0  0  0  0  0  0  0
   38.1930   30.3830   41.8030 H   0  0  0  0  0  0  0  0  0  0  0  0
   35.3490   28.6730   36.1590 C   0  0  0  0  0  0  0  0  0  0  0  0
   33.9470   28.8540   36.1940 C   0  0  0  0  0  0  0  0  0  0  0  0
   33.3060   28.9470   37.4590 C   0  0  0  0  0  0  0  0  0  0  0  0
   34.1030   28.8520   38.5430 N   0  0  0  0  0  0  0  0  0  0  0  0
   35.4230   28.6800   38.4840 C   0  0  0  0  0  0  0  0  0  0  0  0
   36.0600   28.5880   37.3000 N   0  0  0  0  0  0  0  0  0  0  0  0
   35.8070   28.6060   35.1810 H   0  0  0  0  0  0  0  0  0  0  0  0
   33.3400   28.9270   35.2990 H   0  0  0  0  0  0  0  0  0  0  0  0
   32.2510   29.0850   37.5670 H   0  0  0  0  0  0  0  0  0  0  0  0
   37.1100   25.8290   42.0210 C   0  0  0  0  0  3  0  0  0  0  0  0
   38.3310   25.0260   41.5620 C   0  0  0  0  0  2  0  0  0  0  0  0
   36.9410   24.6530   41.1770 C   0  0  0  0  0  2  0  0  0  0  0  0
  1  2  1  0  0  0  0
  2  8  1  0  0  0  0
  3  2  2  0  0  0  0
  3  4  1  0  0  0  0
  4  5  2  0  0  0  0
  5  6  1  0  0  0  0
  5 20  1  0  0  0  0
  6  7  1  0  0  0  0
  8 10  1  0  0  0  0
  8  6  2  0  0  0  0
  9  4  1  0  0  0  0
 11 12  2  0  0  0  0
 11 16  1  0  0  0  0
 12 13  1  0  0  0  0
 13 19  1  0  0  0  0
 13 14  2  0  0  0  0
 15 14  1  0  0  0  0
 15  3  1  0  0  0  0
 16 15  2  0  0  0  0
 17 11  1  0  0  0  0
 18 12  1  0  0  0  0
 21 20  1  0  0  0  0
 22 21  1  0  0  0  0
 22 20  1  0  0  0  0
M  END
>  <minimizedAffinity>
-4.36900043

$$$$

 OpenBabel03252506033D

 22 24  0  0  0  0  0  0  0  0999 V2000
   35.7360   26.6900   37.4530 Cl  0  0  0  0  0  0  0  0  0  0  0  0
   36.1610   27.2210   39.0450 C   0  0  0  0  0  0  0  0  0  0  0  0
   36.6890   26.3310   39.9510 C   0  0  0  0  0  0  0  0  0  0  0  0
   37.0030   26.8380   41.2040 C   0  0  0  0  0  0  0  0  0  0  0  0
   36.8150   28.1600   41.5730 C   0  0  0  0  0  0  0  0  0  0  0  0
   36.2860   29.0190   40.6430 C   0  0  0  0  0  0  0  0  0  0  0  0
   36.0810   30.6730   41.1580 Cl  0  0  0  0  0  0  0  0  0  0  0  0
   35.9630   28.5560   39.3950 C   0  0  0  0  0  0  0  0  0  0  0  0
   37.4210   26.0680   41.8740 H   0  0  0  0  0  0  0  0  0  0  0  0
   35.5490   29.2600   38.6900 H   0  0  0  0  0  0  0  0  0  0  0  0
   36.0180   22.7800   39.4280 C   0  0  0  0  0  0  0  0  0  0  0  0
   37.2760   22.2790   39.0230 C   0  0  0  0  0  0  0  0  0  0  0  0
   38.3690   23.1830   38.9310 C   0  0  0  0  0  0  0  0  0  0  0  0
   38.1110   24.4690   39.2430 N   0  0  0  0  0  0  0  0  0  0  0  0
   36.9140   24.9180   39.6220 C   0  0  0  0  0  0  0  0  0  0  0  0
   35.8590   24.0860   39.7190 N   0  0  0  0  0  0  0  0  0  0  0  0
   35.2060   22.0670   39.4880 H   0  0  0  0  0  0  0  0  0  0  0  0
   37.4450   21.2360   38.7810 H   0  0  0  0  0  0  0  0  0  0  0  0
   39.3500   22.8790   38.6340 H   0  0  0  0  0  0  0  0  0  0  0  0
   37.2320   28.4000   42.9780 C   0  0  0  0  0  3  0  0  0  0  0  0
   38.6660   28.9330   43.0610 C   0  0  0  0  0  2  0  0  0  0  0  0
   38.2590   27.6390   43.6780 C   0  0  0  0  0  2  0  0  0  0  0  0
  1  2  1  0  0  0  0
  2  8  2  0  0  0  0
  2  3  1  0  0  0  0
  3  4  2  0  0  0  0
  4  5  1  0  0  0  0
  4  9  1  0  0  0  0
  5 20  1  0  0  0  0
  6  7  1  0  0  0  0
  6  5  2  0  0  0  0
  8  6  1  0  0  0  0
 10  8  1  0  0  0  0
 11 17  1  0  0  0  0
 11 16  1  0  0  0  0
 12 11  2  0  0  0  0
 13 12  1  0  0  0  0
 13 14  2  0  0  0  0
 14 15  1  0  0  0  0
 15 16  2  0  0  0  0
 15  3  1  0  0  0  0
 18 12  1  0  0  0  0
 19 13  1  0  0  0  0
 20 21  1  0  0  0  0
 20 22  1  0  0  0  0
 21 22  1  0  0  0  0
M  END
>  <minimizedAffinity>
-4.29239511

$$$$
