
 OpenBabel03252500473D

 20 22  0  0  0  0  0  0  0  0999 V2000
   44.6080   35.3720   44.7470 C   0  0  0  0  0  0  0  0  0  0  0  0
   44.7480   34.8290   43.4670 C   0  0  0  0  0  0  0  0  0  0  0  0
   45.3230   33.5610   43.3340 C   0  0  0  0  0  0  0  0  0  0  0  0
   45.7220   32.9090   44.4790 N   0  0  0  0  0  0  0  0  0  0  0  0
   45.5670   33.4710   45.6920 C   0  0  0  0  0  0  0  0  0  0  0  0
   45.0150   34.6940   45.8440 N   0  0  0  0  0  0  0  0  0  0  0  0
   44.1660   36.3590   44.9060 H   0  0  0  0  0  0  0  0  0  0  0  0
   45.4390   33.1260   42.3680 H   0  0  0  0  0  0  0  0  0  0  0  0
   46.0000   32.7580   46.8880 C   0  0  0  0  0  0  0  0  0  0  0  0
   47.2380   32.1900   46.9770 C   0  0  0  0  0  0  0  0  0  0  0  0
   47.6710   31.5090   48.0990 C   0  0  0  0  0  0  0  0  0  0  0  0
   46.7850   31.4240   49.1440 N   0  0  0  0  0  0  0  0  0  0  0  0
   45.5770   31.9860   49.0350 C   0  0  0  0  0  0  0  0  0  0  0  0
   45.1300   32.6590   47.9480 N   0  0  0  0  0  0  0  0  0  0  0  0
   47.9010   32.2850   46.1280 H   0  0  0  0  0  0  0  0  0  0  0  0
   48.6610   31.0850   48.1070 H   0  0  0  0  0  0  0  0  0  0  0  0
   44.8750   31.9210   49.8570 H   0  0  0  0  0  0  0  0  0  0  0  0
   44.2890   35.6010   42.2800 C   0  0  0  0  0  0  0  0  0  0  0  0
   44.1400   34.9570   40.9800 C   0  0  0  0  0  0  0  0  0  0  0  0
   42.9090   35.3390   41.7590 C   0  0  0  0  0  0  0  0  0  0  0  0
  1  7  1  0  0  0  0
  1  6  1  0  0  0  0
  2  1  2  0  0  0  0
  3  2  1  0  0  0  0
  3  4  2  0  0  0  0
  4  5  1  0  0  0  0
  5  6  2  0  0  0  0
  5  9  1  0  0  0  0
  8  3  1  0  0  0  0
  9 10  2  0  0  0  0
  9 14  1  0  0  0  0
 10 11  1  0  0  0  0
 11 16  1  0  0  0  0
 11 12  2  0  0  0  0
 13 12  1  0  0  0  0
 13 17  1  0  0  0  0
 14 13  2  0  0  0  0
 15 10  1  0  0  0  0
 18  2  1  0  0  0  0
 19 20  1  0  0  0  0
 19 18  1  0  0  0  0
 20 18  1  0  0  0  0
M  END
>  <minimizedAffinity>
-4.81370401

>  <minimizedRMSD>
0.932853818

$$$$
