
 OpenBabel03252506073D

 37 41  0  0  0  0  0  0  0  0999 V2000
   36.6540   26.2310   38.4690 Cl  0  0  0  0  0  0  0  0  0  0  0  0
   35.3070   27.2080   37.9540 C   0  0  0  0  0  0  0  0  0  0  0  0
   35.0150   28.3830   38.6180 C   0  0  0  0  0  0  0  0  0  0  0  0
   33.9330   29.0810   38.1330 C   0  0  0  0  0  0  0  0  0  0  0  0
   33.1550   28.6830   37.0630 C   0  0  0  0  0  0  0  0  0  0  0  0
   33.4750   27.5100   36.4290 C   0  0  0  0  0  0  0  0  0  0  0  0
   32.4660   27.0430   35.0790 Cl  0  0  0  0  0  0  0  0  0  0  0  0
   34.5470   26.7820   36.8780 C   0  0  0  0  0  0  0  0  0  0  0  0
   33.7020   30.0140   38.6600 H   0  0  0  0  0  0  0  0  0  0  0  0
   34.7490   25.8680   36.3390 H   0  0  0  0  0  0  0  0  0  0  0  0
   32.0400   29.5690   36.6980 C   0  0  0  0  0  0  0  0  0  0  0  0
   30.9620   29.8090   37.5350 C   0  0  0  0  0  0  0  0  0  0  0  0
   29.9170   30.6380   37.1950 C   0  0  0  0  0  0  0  0  0  0  0  0
   29.9080   31.2730   35.9830 C   0  0  0  0  0  0  0  0  0  0  0  0
   28.8740   32.0710   35.6920 N   0  0  0  0  0  0  0  0  0  0  0  0
   28.7960   32.7330   34.5120 C   0  0  0  0  0  0  0  0  0  0  0  0
   29.8410   32.5460   33.6140 C   0  0  0  0  0  0  0  0  0  0  0  0
   30.8920   31.7310   33.9180 C   0  0  0  0  0  0  0  0  0  0  0  0
   30.9650   31.0620   35.1190 C   0  0  0  0  0  0  0  0  0  0  0  0
   32.0120   30.2290   35.4630 C   0  0  0  0  0  0  0  0  0  0  0  0
   31.0280   29.2780   38.4760 H   0  0  0  0  0  0  0  0  0  0  0  0
   29.1080   30.7740   37.9090 H   0  0  0  0  0  0  0  0  0  0  0  0
   27.9360   33.3540   34.3510 H   0  0  0  0  0  0  0  0  0  0  0  0
   29.7660   33.0810   32.6730 H   0  0  0  0  0  0  0  0  0  0  0  0
   31.6980   31.5960   33.2070 H   0  0  0  0  0  0  0  0  0  0  0  0
   32.8240   30.0810   34.7720 H   0  0  0  0  0  0  0  0  0  0  0  0
   37.1360   30.5080   40.6730 C   0  0  0  0  0  0  0  0  0  0  0  0
   37.2770   29.7800   41.8550 C   0  0  0  0  0  0  0  0  0  0  0  0
   36.6250   28.5160   41.9560 C   0  0  0  0  0  0  0  0  0  0  0  0
   35.9170   28.1350   40.8740 N   0  0  0  0  0  0  0  0  0  0  0  0
   35.7970   28.8550   39.7510 C   0  0  0  0  0  0  0  0  0  0  0  0
   36.4090   30.0540   39.6400 N   0  0  0  0  0  0  0  0  0  0  0  0
   37.6470   31.4700   40.6290 H   0  0  0  0  0  0  0  0  0  0  0  0
   37.8370   30.0910   42.6980 H   0  0  0  0  0  0  0  0  0  0  0  0
   36.7040   27.6550   43.1610 C   0  0  0  0  0  3  0  0  0  0  0  0
   37.2040   28.1570   44.4420 C   0  0  0  0  0  2  0  0  0  0  0  0
   38.1680   27.3560   43.6020 C   0  0  0  0  0  2  0  0  0  0  0  0
  2  1  1  0  0  0  0
  2  3  1  0  0  0  0
  3 31  1  0  0  0  0
  4  3  2  0  0  0  0
  4  9  1  0  0  0  0
  5  4  1  0  0  0  0
  6  8  1  0  0  0  0
  6  5  2  0  0  0  0
  7  6  1  0  0  0  0
  8  2  2  0  0  0  0
 10  8  1  0  0  0  0
 11  5  1  0  0  0  0
 11 12  1  0  0  0  0
 12 21  1  0  0  0  0
 13 12  2  0  0  0  0
 13 22  1  0  0  0  0
 14 13  1  0  0  0  0
 15 14  1  0  0  0  0
 16 15  2  0  0  0  0
 17 18  2  0  0  0  0
 17 16  1  0  0  0  0
 18 19  1  0  0  0  0
 19 20  1  0  0  0  0
 19 14  2  0  0  0  0
 20 11  2  0  0  0  0
 23 16  1  0  0  0  0
 24 17  1  0  0  0  0
 25 18  1  0  0  0  0
 26 20  1  0  0  0  0
 27 28  1  0  0  0  0
 28 29  2  0  0  0  0
 28 34  1  0  0  0  0
 29 35  1  0  0  0  0
 30 29  1  0  0  0  0
 31 30  2  0  0  0  0
 32 31  1  0  0  0  0
 32 27  2  0  0  0  0
 33 27  1  0  0  0  0
 35 37  1  0  0  0  0
 35 36  1  0  0  0  0
 37 36  1  0  0  0  0
M  END
>  <minimizedAffinity>
-6.94469213

$$$$

 OpenBabel03252506073D

 37 41  0  0  0  0  0  0  0  0999 V2000
   39.9470   35.4220   39.7150 Cl  0  0  0  0  0  0  0  0  0  0  0  0
   39.6760   33.7850   40.2450 C   0  0  0  0  0  0  0  0  0  0  0  0
   40.7460   32.9930   40.6120 C   0  0  0  0  0  0  0  0  0  0  0  0
   40.4250   31.7180   41.0160 C   0  0  0  0  0  0  0  0  0  0  0  0
   39.1420   31.2090   41.0700 C   0  0  0  0  0  0  0  0  0  0  0  0
   38.1040   32.0240   40.6990 C   0  0  0  0  0  0  0  0  0  0  0  0
   36.4960   31.3430   40.7830 Cl  0  0  0  0  0  0  0  0  0  0  0  0
   38.3770   33.3050   40.2890 C   0  0  0  0  0  0  0  0  0  0  0  0
   41.2760   31.0910   41.3060 H   0  0  0  0  0  0  0  0  0  0  0  0
   37.5200   33.8980   40.0090 H   0  0  0  0  0  0  0  0  0  0  0  0
   39.0080   29.8190   41.5300 C   0  0  0  0  0  0  0  0  0  0  0  0
   38.8340   29.4770   42.8610 C   0  0  0  0  0  0  0  0  0  0  0  0
   38.7070   28.1770   43.2930 C   0  0  0  0  0  0  0  0  0  0  0  0
   38.7510   27.1460   42.3940 C   0  0  0  0  0  0  0  0  0  0  0  0
   38.6250   25.8950   42.8550 N   0  0  0  0  0  0  0  0  0  0  0  0
   38.6570   24.8250   42.0250 C   0  0  0  0  0  0  0  0  0  0  0  0
   38.8290   25.0820   40.6700 C   0  0  0  0  0  0  0  0  0  0  0  0
   38.9570   26.3590   40.2080 C   0  0  0  0  0  0  0  0  0  0  0  0
   38.9230   27.4430   41.0560 C   0  0  0  0  0  0  0  0  0  0  0  0
   39.0490   28.7490   40.6260 C   0  0  0  0  0  0  0  0  0  0  0  0
   38.8080   30.3360   43.5200 H   0  0  0  0  0  0  0  0  0  0  0  0
   38.5730   27.9930   44.3560 H   0  0  0  0  0  0  0  0  0  0  0  0
   38.5490   23.8540   42.4690 H   0  0  0  0  0  0  0  0  0  0  0  0
   38.8540   24.2160   40.0170 H   0  0  0  0  0  0  0  0  0  0  0  0
   39.0910   26.5420   39.1490 H   0  0  0  0  0  0  0  0  0  0  0  0
   39.1810   28.9550   39.5780 H   0  0  0  0  0  0  0  0  0  0  0  0
   44.1190   33.6450   39.4130 C   0  0  0  0  0  0  0  0  0  0  0  0
   44.7060   34.3520   40.4620 C   0  0  0  0  0  0  0  0  0  0  0  0
   43.9230   34.6170   41.6250 C   0  0  0  0  0  0  0  0  0  0  0  0
   42.6590   34.1480   41.5970 N   0  0  0  0  0  0  0  0  0  0  0  0
   42.1190   33.4720   40.5750 C   0  0  0  0  0  0  0  0  0  0  0  0
   42.8490   33.2130   39.4680 N   0  0  0  0  0  0  0  0  0  0  0  0
   44.7450   33.4590   38.5390 H   0  0  0  0  0  0  0  0  0  0  0  0
   45.7010   34.7150   40.4700 H   0  0  0  0  0  0  0  0  0  0  0  0
   44.4390   35.3580   42.8000 C   0  0  0  0  0  3  0  0  0  0  0  0
   45.8720   35.4720   43.0780 C   0  0  0  0  0  2  0  0  0  0  0  0
   45.1090   34.4320   43.8600 C   0  0  0  0  0  2  0  0  0  0  0  0
  1  2  1  0  0  0  0
  2  8  2  0  0  0  0
  2  3  1  0  0  0  0
  3  4  2  0  0  0  0
  4  5  1  0  0  0  0
  4  9  1  0  0  0  0
  5 11  1  0  0  0  0
  6  7  1  0  0  0  0
  6  5  2  0  0  0  0
  8  6  1  0  0  0  0
 10  8  1  0  0  0  0
 11 12  1  0  0  0  0
 12 13  2  0  0  0  0
 12 21  1  0  0  0  0
 13 22  1  0  0  0  0
 14 15  1  0  0  0  0
 14 13  1  0  0  0  0
 16 23  1  0  0  0  0
 16 15  2  0  0  0  0
 17 16  1  0  0  0  0
 18 17  2  0  0  0  0
 18 19  1  0  0  0  0
 19 14  2  0  0  0  0
 20 19  1  0  0  0  0
 20 11  2  0  0  0  0
 24 17  1  0  0  0  0
 25 18  1  0  0  0  0
 26 20  1  0  0  0  0
 27 32  2  0  0  0  0
 27 28  1  0  0  0  0
 28 34  1  0  0  0  0
 28 29  2  0  0  0  0
 29 35  1  0  0  0  0
 30 29  1  0  0  0  0
 31  3  1  0  0  0  0
 31 30  2  0  0  0  0
 32 31  1  0  0  0  0
 33 27  1  0  0  0  0
 35 36  1  0  0  0  0
 35 37  1  0  0  0  0
 36 37  1  0  0  0  0
M  END
>  <minimizedAffinity>
-6.46858168

$$$$

 OpenBabel03252506073D

 37 41  0  0  0  0  0  0  0  0999 V2000
   31.3080   27.4640   35.3580 Cl  0  0  0  0  0  0  0  0  0  0  0  0
   32.6360   27.8310   36.4240 C   0  0  0  0  0  0  0  0  0  0  0  0
   32.6040   28.9760   37.1960 C   0  0  0  0  0  0  0  0  0  0  0  0
   33.6990   29.1730   38.0040 C   0  0  0  0  0  0  0  0  0  0  0  0
   34.7860   28.3230   38.0800 C   0  0  0  0  0  0  0  0  0  0  0  0
   34.7830   27.1960   37.2980 C   0  0  0  0  0  0  0  0  0  0  0  0
   36.1760   26.1460   37.4240 Cl  0  0  0  0  0  0  0  0  0  0  0  0
   33.7100   26.9580   36.4770 C   0  0  0  0  0  0  0  0  0  0  0  0
   33.6720   30.0820   38.6160 H   0  0  0  0  0  0  0  0  0  0  0  0
   33.7660   26.0560   35.8860 H   0  0  0  0  0  0  0  0  0  0  0  0
   35.8590   28.7120   39.0050 C   0  0  0  0  0  0  0  0  0  0  0  0
   36.9280   29.5100   38.6300 C   0  0  0  0  0  0  0  0  0  0  0  0
   37.9330   29.8750   39.4960 C   0  0  0  0  0  0  0  0  0  0  0  0
   37.9110   29.4490   40.7960 C   0  0  0  0  0  0  0  0  0  0  0  0
   38.9080   29.8270   41.6060 N   0  0  0  0  0  0  0  0  0  0  0  0
   38.9520   29.4450   42.9050 C   0  0  0  0  0  0  0  0  0  0  0  0
   37.9150   28.6410   43.3620 C   0  0  0  0  0  0  0  0  0  0  0  0
   36.9020   28.2600   42.5310 C   0  0  0  0  0  0  0  0  0  0  0  0
   36.8620   28.6520   41.2120 C   0  0  0  0  0  0  0  0  0  0  0  0
   35.8550   28.2870   40.3410 C   0  0  0  0  0  0  0  0  0  0  0  0
   36.8880   29.8130   37.5910 H   0  0  0  0  0  0  0  0  0  0  0  0
   38.7380   30.5050   39.1220 H   0  0  0  0  0  0  0  0  0  0  0  0
   39.7830   29.7880   43.4900 H   0  0  0  0  0  0  0  0  0  0  0  0
   37.9630   28.3420   44.4040 H   0  0  0  0  0  0  0  0  0  0  0  0
   36.1010   27.6330   42.9030 H   0  0  0  0  0  0  0  0  0  0  0  0
   35.0490   27.6650   40.6890 H   0  0  0  0  0  0  0  0  0  0  0  0
   29.6280   30.8030   38.2180 C   0  0  0  0  0  0  0  0  0  0  0  0
   29.3780   31.6490   37.1370 C   0  0  0  0  0  0  0  0  0  0  0  0
   30.2580   31.5940   36.0150 C   0  0  0  0  0  0  0  0  0  0  0  0
   31.2710   30.7100   36.1090 N   0  0  0  0  0  0  0  0  0  0  0  0
   31.4890   29.9090   37.1600 C   0  0  0  0  0  0  0  0  0  0  0  0
   30.6640   29.9490   38.2300 N   0  0  0  0  0  0  0  0  0  0  0  0
   28.9380   30.8690   39.0590 H   0  0  0  0  0  0  0  0  0  0  0  0
   28.5780   32.3390   37.0770 H   0  0  0  0  0  0  0  0  0  0  0  0
   30.0930   32.4440   34.8120 C   0  0  0  0  0  3  0  0  0  0  0  0
   30.3020   31.9240   33.4600 C   0  0  0  0  0  2  0  0  0  0  0  0
   31.4350   32.7140   34.0670 C   0  0  0  0  0  2  0  0  0  0  0  0
  1  2  1  0  0  0  0
  2  8  2  0  0  0  0
  2  3  1  0  0  0  0
  3  4  2  0  0  0  0
  4  5  1  0  0  0  0
  4  9  1  0  0  0  0
  5 11  1  0  0  0  0
  6  7  1  0  0  0  0
  6  5  2  0  0  0  0
  8  6  1  0  0  0  0
 10  8  1  0  0  0  0
 11 20  1  0  0  0  0
 12 11  2  0  0  0  0
 12 13  1  0  0  0  0
 13 14  2  0  0  0  0
 14 19  1  0  0  0  0
 14 15  1  0  0  0  0
 15 16  2  0  0  0  0
 16 17  1  0  0  0  0
 16 23  1  0  0  0  0
 17 24  1  0  0  0  0
 18 25  1  0  0  0  0
 18 17  2  0  0  0  0
 19 18  1  0  0  0  0
 20 26  1  0  0  0  0
 20 19  2  0  0  0  0
 21 12  1  0  0  0  0
 22 13  1  0  0  0  0
 27 32  1  0  0  0  0
 27 33  1  0  0  0  0
 28 27  2  0  0  0  0
 29 30  2  0  0  0  0
 29 28  1  0  0  0  0
 30 31  1  0  0  0  0
 31  3  1  0  0  0  0
 31 32  2  0  0  0  0
 34 28  1  0  0  0  0
 35 29  1  0  0  0  0
 36 37  1  0  0  0  0
 36 35  1  0  0  0  0
 37 35  1  0  0  0  0
M  END
>  <minimizedAffinity>
-6.40141296

$$$$

 OpenBabel03252506073D

 37 41  0  0  0  0  0  0  0  0999 V2000
   40.7710   31.3790   42.5300 Cl  0  0  0  0  0  0  0  0  0  0  0  0
   39.4160   30.8610   41.5650 C   0  0  0  0  0  0  0  0  0  0  0  0
   38.9210   31.6850   40.5740 C   0  0  0  0  0  0  0  0  0  0  0  0
   37.8500   31.1840   39.8700 C   0  0  0  0  0  0  0  0  0  0  0  0
   37.2680   29.9510   40.0940 C   0  0  0  0  0  0  0  0  0  0  0  0
   37.7860   29.1600   41.0870 C   0  0  0  0  0  0  0  0  0  0  0  0
   37.0220   27.6080   41.3380 Cl  0  0  0  0  0  0  0  0  0  0  0  0
   38.8550   29.6190   41.8140 C   0  0  0  0  0  0  0  0  0  0  0  0
   37.4590   31.8390   39.0830 H   0  0  0  0  0  0  0  0  0  0  0  0
   39.2180   28.9520   42.5820 H   0  0  0  0  0  0  0  0  0  0  0  0
   36.1310   29.5980   39.2330 C   0  0  0  0  0  0  0  0  0  0  0  0
   34.8550   29.3730   39.7230 C   0  0  0  0  0  0  0  0  0  0  0  0
   33.7880   29.0420   38.9180 C   0  0  0  0  0  0  0  0  0  0  0  0
   33.9580   28.9200   37.5660 C   0  0  0  0  0  0  0  0  0  0  0  0
   32.8950   28.5970   36.8190 N   0  0  0  0  0  0  0  0  0  0  0  0
   32.9860   28.4600   35.4740 C   0  0  0  0  0  0  0  0  0  0  0  0
   34.2360   28.6680   34.9020 C   0  0  0  0  0  0  0  0  0  0  0  0
   35.3140   28.9980   35.6700 C   0  0  0  0  0  0  0  0  0  0  0  0
   35.2150   29.1370   37.0360 C   0  0  0  0  0  0  0  0  0  0  0  0
   36.2830   29.4680   37.8460 C   0  0  0  0  0  0  0  0  0  0  0  0
   34.7860   29.4840   40.7980 H   0  0  0  0  0  0  0  0  0  0  0  0
   32.8170   28.8820   39.3820 H   0  0  0  0  0  0  0  0  0  0  0  0
   32.0910   28.1990   34.9440 H   0  0  0  0  0  0  0  0  0  0  0  0
   34.2950   28.5550   33.8250 H   0  0  0  0  0  0  0  0  0  0  0  0
   36.2810   29.1570   35.2090 H   0  0  0  0  0  0  0  0  0  0  0  0
   37.2520   29.6320   37.4090 H   0  0  0  0  0  0  0  0  0  0  0  0
   39.4790   35.2790   40.6860 C   0  0  0  0  0  0  0  0  0  0  0  0
   40.5290   35.4730   39.7880 C   0  0  0  0  0  0  0  0  0  0  0  0
   41.0680   34.3350   39.1170 C   0  0  0  0  0  0  0  0  0  0  0  0
   40.4980   33.1530   39.4220 N   0  0  0  0  0  0  0  0  0  0  0  0
   39.4900   32.9940   40.2900 C   0  0  0  0  0  0  0  0  0  0  0  0
   38.9690   34.0620   40.9330 N   0  0  0  0  0  0  0  0  0  0  0  0
   39.0900   36.1680   41.1820 H   0  0  0  0  0  0  0  0  0  0  0  0
   40.9670   36.4090   39.5580 H   0  0  0  0  0  0  0  0  0  0  0  0
   42.1820   34.4190   38.1430 C   0  0  0  0  0  3  0  0  0  0  0  0
   42.8590   33.2260   37.6330 C   0  0  0  0  0  2  0  0  0  0  0  0
   43.5510   33.9780   38.7430 C   0  0  0  0  0  2  0  0  0  0  0  0
  2  8  1  0  0  0  0
  2  1  1  0  0  0  0
  3  2  2  0  0  0  0
  4  5  2  0  0  0  0
  4  3  1  0  0  0  0
  5  6  1  0  0  0  0
  6  7  1  0  0  0  0
  6  8  2  0  0  0  0
  8 10  1  0  0  0  0
  9  4  1  0  0  0  0
 11 12  1  0  0  0  0
 11  5  1  0  0  0  0
 12 21  1  0  0  0  0
 13 22  1  0  0  0  0
 13 12  2  0  0  0  0
 14 13  1  0  0  0  0
 15 14  2  0  0  0  0
 16 15  1  0  0  0  0
 17 16  2  0  0  0  0
 17 18  1  0  0  0  0
 18 19  2  0  0  0  0
 19 14  1  0  0  0  0
 19 20  1  0  0  0  0
 20 11  2  0  0  0  0
 23 16  1  0  0  0  0
 24 17  1  0  0  0  0
 25 18  1  0  0  0  0
 26 20  1  0  0  0  0
 27 32  1  0  0  0  0
 27 33  1  0  0  0  0
 28 27  2  0  0  0  0
 29 30  2  0  0  0  0
 29 28  1  0  0  0  0
 30 31  1  0  0  0  0
 31  3  1  0  0  0  0
 31 32  2  0  0  0  0
 34 28  1  0  0  0  0
 35 37  1  0  0  0  0
 35 29  1  0  0  0  0
 36 35  1  0  0  0  0
 36 37  1  0  0  0  0
M  END
>  <minimizedAffinity>
-6.38127232

$$$$

 OpenBabel03252506073D

 37 41  0  0  0  0  0  0  0  0999 V2000
   36.7820   26.3560   38.7440 Cl  0  0  0  0  0  0  0  0  0  0  0  0
   35.4180   27.3040   38.2160 C   0  0  0  0  0  0  0  0  0  0  0  0
   35.2110   28.5640   38.7410 C   0  0  0  0  0  0  0  0  0  0  0  0
   34.1080   29.2300   38.2580 C   0  0  0  0  0  0  0  0  0  0  0  0
   33.2320   28.7240   37.3170 C   0  0  0  0  0  0  0  0  0  0  0  0
   33.4700   27.4690   36.8190 C   0  0  0  0  0  0  0  0  0  0  0  0
   32.3400   26.8650   35.6290 Cl  0  0  0  0  0  0  0  0  0  0  0  0
   34.5600   26.7680   37.2710 C   0  0  0  0  0  0  0  0  0  0  0  0
   33.9450   30.2300   38.6750 H   0  0  0  0  0  0  0  0  0  0  0  0
   34.6940   25.7860   36.8420 H   0  0  0  0  0  0  0  0  0  0  0  0
   32.1110   29.5920   36.9310 C   0  0  0  0  0  0  0  0  0  0  0  0
   31.0330   29.8470   37.7620 C   0  0  0  0  0  0  0  0  0  0  0  0
   29.9820   30.6610   37.4030 C   0  0  0  0  0  0  0  0  0  0  0  0
   29.9680   31.2630   36.1750 C   0  0  0  0  0  0  0  0  0  0  0  0
   28.9270   32.0460   35.8640 N   0  0  0  0  0  0  0  0  0  0  0  0
   28.8440   32.6770   34.6680 C   0  0  0  0  0  0  0  0  0  0  0  0
   29.8880   32.4730   33.7730 C   0  0  0  0  0  0  0  0  0  0  0  0
   30.9450   31.6730   34.0970 C   0  0  0  0  0  0  0  0  0  0  0  0
   31.0240   31.0360   35.3150 C   0  0  0  0  0  0  0  0  0  0  0  0
   32.0770   30.2190   35.6780 C   0  0  0  0  0  0  0  0  0  0  0  0
   31.1040   29.3420   38.7180 H   0  0  0  0  0  0  0  0  0  0  0  0
   29.1730   30.8100   38.1150 H   0  0  0  0  0  0  0  0  0  0  0  0
   27.9800   33.2880   34.4920 H   0  0  0  0  0  0  0  0  0  0  0  0
   29.8090   32.9830   32.8190 H   0  0  0  0  0  0  0  0  0  0  0  0
   31.7510   31.5240   33.3890 H   0  0  0  0  0  0  0  0  0  0  0  0
   32.8880   30.0580   34.9910 H   0  0  0  0  0  0  0  0  0  0  0  0
   36.9380   29.1140   41.8950 C   0  0  0  0  0  0  0  0  0  0  0  0
   37.7470   30.2210   41.6350 C   0  0  0  0  0  0  0  0  0  0  0  0
   37.7020   30.8030   40.3330 C   0  0  0  0  0  0  0  0  0  0  0  0
   36.8620   30.2150   39.4580 N   0  0  0  0  0  0  0  0  0  0  0  0
   36.0970   29.1510   39.7340 C   0  0  0  0  0  0  0  0  0  0  0  0
   36.1280   28.5890   40.9630 N   0  0  0  0  0  0  0  0  0  0  0  0
   36.9970   28.6930   42.8990 H   0  0  0  0  0  0  0  0  0  0  0  0
   38.4020   30.6740   42.3320 H   0  0  0  0  0  0  0  0  0  0  0  0
   38.5150   31.9800   39.9410 C   0  0  0  0  0  3  0  0  0  0  0  0
   38.8360   33.0500   40.8860 C   0  0  0  0  0  2  0  0  0  0  0  0
   37.6990   33.3080   39.9290 C   0  0  0  0  0  2  0  0  0  0  0  0
  2  3  1  0  0  0  0
  2  1  1  0  0  0  0
  3 31  1  0  0  0  0
  4  9  1  0  0  0  0
  4  3  2  0  0  0  0
  5  4  1  0  0  0  0
  6  8  1  0  0  0  0
  6  5  2  0  0  0  0
  7  6  1  0  0  0  0
  8  2  2  0  0  0  0
 10  8  1  0  0  0  0
 11  5  1  0  0  0  0
 11 12  1  0  0  0  0
 12 21  1  0  0  0  0
 13 12  2  0  0  0  0
 13 22  1  0  0  0  0
 14 13  1  0  0  0  0
 15 14  1  0  0  0  0
 16 15  2  0  0  0  0
 17 18  2  0  0  0  0
 17 16  1  0  0  0  0
 18 19  1  0  0  0  0
 19 20  1  0  0  0  0
 19 14  2  0  0  0  0
 20 11  2  0  0  0  0
 23 16  1  0  0  0  0
 24 17  1  0  0  0  0
 25 18  1  0  0  0  0
 26 20  1  0  0  0  0
 27 33  1  0  0  0  0
 28 27  1  0  0  0  0
 28 34  1  0  0  0  0
 29 28  2  0  0  0  0
 30 31  2  0  0  0  0
 30 29  1  0  0  0  0
 31 32  1  0  0  0  0
 32 27  2  0  0  0  0
 35 29  1  0  0  0  0
 35 36  1  0  0  0  0
 37 35  1  0  0  0  0
 37 36  1  0  0  0  0
M  END
>  <minimizedAffinity>
-6.37662077

$$$$

 OpenBabel03252506073D

 37 41  0  0  0  0  0  0  0  0999 V2000
   39.8110   35.3790   40.0350 Cl  0  0  0  0  0  0  0  0  0  0  0  0
   39.5950   33.6760   40.3350 C   0  0  0  0  0  0  0  0  0  0  0  0
   40.6970   32.8520   40.4460 C   0  0  0  0  0  0  0  0  0  0  0  0
   40.4190   31.5250   40.6840 C   0  0  0  0  0  0  0  0  0  0  0  0
   39.1480   30.9970   40.8090 C   0  0  0  0  0  0  0  0  0  0  0  0
   38.0780   31.8470   40.6920 C   0  0  0  0  0  0  0  0  0  0  0  0
   36.4880   31.1400   40.8590 Cl  0  0  0  0  0  0  0  0  0  0  0  0
   38.3080   33.1790   40.4560 C   0  0  0  0  0  0  0  0  0  0  0  0
   41.2940   30.8720   40.7720 H   0  0  0  0  0  0  0  0  0  0  0  0
   37.4270   33.7970   40.3740 H   0  0  0  0  0  0  0  0  0  0  0  0
   39.0620   29.5520   41.0610 C   0  0  0  0  0  0  0  0  0  0  0  0
   38.4780   28.6640   40.1720 C   0  0  0  0  0  0  0  0  0  0  0  0
   38.3960   27.3100   40.4060 C   0  0  0  0  0  0  0  0  0  0  0  0
   38.9040   26.7800   41.5610 C   0  0  0  0  0  0  0  0  0  0  0  0
   38.8040   25.4580   41.7500 N   0  0  0  0  0  0  0  0  0  0  0  0
   39.2850   24.8610   42.8670 C   0  0  0  0  0  0  0  0  0  0  0  0
   39.8870   25.6840   43.8120 C   0  0  0  0  0  0  0  0  0  0  0  0
   39.9850   27.0300   43.6120 C   0  0  0  0  0  0  0  0  0  0  0  0
   39.4960   27.6300   42.4740 C   0  0  0  0  0  0  0  0  0  0  0  0
   39.5760   28.9880   42.2360 C   0  0  0  0  0  0  0  0  0  0  0  0
   38.0950   29.1450   39.2810 H   0  0  0  0  0  0  0  0  0  0  0  0
   37.9220   26.6810   39.6570 H   0  0  0  0  0  0  0  0  0  0  0  0
   39.1680   23.7980   42.9470 H   0  0  0  0  0  0  0  0  0  0  0  0
   40.2670   25.1930   44.7020 H   0  0  0  0  0  0  0  0  0  0  0  0
   40.4580   27.6570   44.3580 H   0  0  0  0  0  0  0  0  0  0  0  0
   40.0420   29.6300   42.9630 H   0  0  0  0  0  0  0  0  0  0  0  0
   43.8390   34.4860   41.2800 C   0  0  0  0  0  0  0  0  0  0  0  0
   44.6150   34.3010   40.1360 C   0  0  0  0  0  0  0  0  0  0  0  0
   44.0470   33.5900   39.0370 C   0  0  0  0  0  0  0  0  0  0  0  0
   42.7830   33.1570   39.2130 N   0  0  0  0  0  0  0  0  0  0  0  0
   42.0590   33.3480   40.3230 C   0  0  0  0  0  0  0  0  0  0  0  0
   42.5830   34.0190   41.3720 N   0  0  0  0  0  0  0  0  0  0  0  0
   44.3030   35.0330   42.1020 H   0  0  0  0  0  0  0  0  0  0  0  0
   45.6080   34.6470   40.0120 H   0  0  0  0  0  0  0  0  0  0  0  0
   44.7760   33.3320   37.7730 C   0  0  0  0  0  3  0  0  0  0  0  0
   44.5830   32.1020   37.0030 C   0  0  0  0  0  2  0  0  0  0  0  0
   45.8030   32.1660   37.8880 C   0  0  0  0  0  2  0  0  0  0  0  0
  1  2  1  0  0  0  0
  2  3  2  0  0  0  0
  2  8  1  0  0  0  0
  3  4  1  0  0  0  0
  4  9  1  0  0  0  0
  4  5  2  0  0  0  0
  5 11  1  0  0  0  0
  6  5  1  0  0  0  0
  6  7  1  0  0  0  0
  8  6  2  0  0  0  0
 10  8  1  0  0  0  0
 11 20  1  0  0  0  0
 12 13  1  0  0  0  0
 12 11  2  0  0  0  0
 13 14  2  0  0  0  0
 14 15  1  0  0  0  0
 14 19  1  0  0  0  0
 15 16  2  0  0  0  0
 16 23  1  0  0  0  0
 16 17  1  0  0  0  0
 17 24  1  0  0  0  0
 18 17  2  0  0  0  0
 18 25  1  0  0  0  0
 19 18  1  0  0  0  0
 20 19  2  0  0  0  0
 20 26  1  0  0  0  0
 21 12  1  0  0  0  0
 22 13  1  0  0  0  0
 27 32  1  0  0  0  0
 27 33  1  0  0  0  0
 28 27  2  0  0  0  0
 29 30  2  0  0  0  0
 29 28  1  0  0  0  0
 30 31  1  0  0  0  0
 31  3  1  0  0  0  0
 31 32  2  0  0  0  0
 34 28  1  0  0  0  0
 35 37  1  0  0  0  0
 35 29  1  0  0  0  0
 36 35  1  0  0  0  0
 36 37  1  0  0  0  0
M  END
>  <minimizedAffinity>
-6.15371561

$$$$

 OpenBabel03252506073D

 37 41  0  0  0  0  0  0  0  0999 V2000
   36.2770   27.7660   43.0640 Cl  0  0  0  0  0  0  0  0  0  0  0  0
   37.3000   28.7540   42.0570 C   0  0  0  0  0  0  0  0  0  0  0  0
   38.5490   28.2970   41.6860 C   0  0  0  0  0  0  0  0  0  0  0  0
   39.2780   29.1510   40.8910 C   0  0  0  0  0  0  0  0  0  0  0  0
   38.8430   30.3910   40.4620 C   0  0  0  0  0  0  0  0  0  0  0  0
   37.5970   30.8110   40.8500 C   0  0  0  0  0  0  0  0  0  0  0  0
   37.0840   32.3840   40.2860 Cl  0  0  0  0  0  0  0  0  0  0  0  0
   36.8350   29.9910   41.6440 C   0  0  0  0  0  0  0  0  0  0  0  0
   40.2690   28.7870   40.5970 H   0  0  0  0  0  0  0  0  0  0  0  0
   35.8640   30.3770   41.9170 H   0  0  0  0  0  0  0  0  0  0  0  0
   39.7710   31.1540   39.6170 C   0  0  0  0  0  0  0  0  0  0  0  0
   39.6590   31.2160   38.2370 C   0  0  0  0  0  0  0  0  0  0  0  0
   40.5280   31.9300   37.4430 C   0  0  0  0  0  0  0  0  0  0  0  0
   41.5630   32.6250   38.0080 C   0  0  0  0  0  0  0  0  0  0  0  0
   42.3850   33.3060   37.2010 N   0  0  0  0  0  0  0  0  0  0  0  0
   43.4310   34.0180   37.6880 C   0  0  0  0  0  0  0  0  0  0  0  0
   43.6140   34.0070   39.0660 C   0  0  0  0  0  0  0  0  0  0  0  0
   42.7730   33.3100   39.8810 C   0  0  0  0  0  0  0  0  0  0  0  0
   41.7110   32.5900   39.3810 C   0  0  0  0  0  0  0  0  0  0  0  0
   40.8380   31.8710   40.1750 C   0  0  0  0  0  0  0  0  0  0  0  0
   38.8220   30.6460   37.8530 H   0  0  0  0  0  0  0  0  0  0  0  0
   40.3700   31.9280   36.3670 H   0  0  0  0  0  0  0  0  0  0  0  0
   44.0450   34.5380   36.9790 H   0  0  0  0  0  0  0  0  0  0  0  0
   44.4560   34.5800   39.4420 H   0  0  0  0  0  0  0  0  0  0  0  0
   42.9290   33.3120   40.9530 H   0  0  0  0  0  0  0  0  0  0  0  0
   40.9740   31.8600   41.2420 H   0  0  0  0  0  0  0  0  0  0  0  0
   40.2910   25.7680   43.6380 C   0  0  0  0  0  0  0  0  0  0  0  0
   40.0500   24.5890   42.9320 C   0  0  0  0  0  0  0  0  0  0  0  0
   39.2620   24.6580   41.7440 C   0  0  0  0  0  0  0  0  0  0  0  0
   38.8170   25.8850   41.4090 N   0  0  0  0  0  0  0  0  0  0  0  0
   39.0630   27.0020   42.1060 C   0  0  0  0  0  0  0  0  0  0  0  0
   39.8070   26.9530   43.2330 N   0  0  0  0  0  0  0  0  0  0  0  0
   40.8960   25.6800   44.5410 H   0  0  0  0  0  0  0  0  0  0  0  0
   40.4070   23.6310   43.2070 H   0  0  0  0  0  0  0  0  0  0  0  0
   38.9400   23.4730   40.9140 C   0  0  0  0  0  3  0  0  0  0  0  0
   38.2650   23.5920   39.6200 C   0  0  0  0  0  2  0  0  0  0  0  0
   37.4090   23.2050   40.8010 C   0  0  0  0  0  2  0  0  0  0  0  0
  2  1  1  0  0  0  0
  3  2  1  0  0  0  0
  3 31  1  0  0  0  0
  4  3  2  0  0  0  0
  5  6  2  0  0  0  0
  5  4  1  0  0  0  0
  6  8  1  0  0  0  0
  7  6  1  0  0  0  0
  8 10  1  0  0  0  0
  8  2  2  0  0  0  0
  9  4  1  0  0  0  0
 11 20  1  0  0  0  0
 11  5  1  0  0  0  0
 12 11  2  0  0  0  0
 13 14  2  0  0  0  0
 13 12  1  0  0  0  0
 14 19  1  0  0  0  0
 15 16  2  0  0  0  0
 15 14  1  0  0  0  0
 16 17  1  0  0  0  0
 17 24  1  0  0  0  0
 17 18  2  0  0  0  0
 18 25  1  0  0  0  0
 19 18  1  0  0  0  0
 19 20  2  0  0  0  0
 20 26  1  0  0  0  0
 21 12  1  0  0  0  0
 22 13  1  0  0  0  0
 23 16  1  0  0  0  0
 27 33  1  0  0  0  0
 28 34  1  0  0  0  0
 28 27  2  0  0  0  0
 29 28  1  0  0  0  0
 30 29  2  0  0  0  0
 30 31  1  0  0  0  0
 31 32  2  0  0  0  0
 32 27  1  0  0  0  0
 35 29  1  0  0  0  0
 36 37  1  0  0  0  0
 36 35  1  0  0  0  0
 37 35  1  0  0  0  0
M  END
>  <minimizedAffinity>
-6.11199999

$$$$

 OpenBabel03252506073D

 37 41  0  0  0  0  0  0  0  0999 V2000
   35.8910   30.6540   40.8510 Cl  0  0  0  0  0  0  0  0  0  0  0  0
   37.4410   31.3270   40.4280 C   0  0  0  0  0  0  0  0  0  0  0  0
   38.5000   30.4890   40.1400 C   0  0  0  0  0  0  0  0  0  0  0  0
   39.6800   31.1190   39.8180 C   0  0  0  0  0  0  0  0  0  0  0  0
   39.8540   32.4900   39.7720 C   0  0  0  0  0  0  0  0  0  0  0  0
   38.7800   33.2900   40.0650 C   0  0  0  0  0  0  0  0  0  0  0  0
   39.0400   35.0170   39.9950 Cl  0  0  0  0  0  0  0  0  0  0  0  0
   37.5820   32.7040   40.3910 C   0  0  0  0  0  0  0  0  0  0  0  0
   40.5200   30.4540   39.5890 H   0  0  0  0  0  0  0  0  0  0  0  0
   36.7740   33.3850   40.6120 H   0  0  0  0  0  0  0  0  0  0  0  0
   41.1940   32.9680   39.4070 C   0  0  0  0  0  0  0  0  0  0  0  0
   41.5910   33.1740   38.0960 C   0  0  0  0  0  0  0  0  0  0  0  0
   42.8460   33.6230   37.7520 C   0  0  0  0  0  0  0  0  0  0  0  0
   43.7730   33.8880   38.7240 C   0  0  0  0  0  0  0  0  0  0  0  0
   44.9820   34.3220   38.3470 N   0  0  0  0  0  0  0  0  0  0  0  0
   45.9490   34.6060   39.2520 C   0  0  0  0  0  0  0  0  0  0  0  0
   45.6310   34.4250   40.5930 C   0  0  0  0  0  0  0  0  0  0  0  0
   44.3960   33.9830   40.9690 C   0  0  0  0  0  0  0  0  0  0  0  0
   43.4170   33.6960   40.0450 C   0  0  0  0  0  0  0  0  0  0  0  0
   42.1570   33.2460   40.3860 C   0  0  0  0  0  0  0  0  0  0  0  0
   40.8150   32.9460   37.3760 H   0  0  0  0  0  0  0  0  0  0  0  0
   43.0790   33.7590   36.6980 H   0  0  0  0  0  0  0  0  0  0  0  0
   46.8920   34.9490   38.8740 H   0  0  0  0  0  0  0  0  0  0  0  0
   46.4140   34.6560   41.3080 H   0  0  0  0  0  0  0  0  0  0  0  0
   44.1640   33.8470   42.0190 H   0  0  0  0  0  0  0  0  0  0  0  0
   41.9050   33.1050   41.4230 H   0  0  0  0  0  0  0  0  0  0  0  0
   38.0410   27.0610   39.0090 C   0  0  0  0  0  0  0  0  0  0  0  0
   38.1460   26.3150   40.1840 C   0  0  0  0  0  0  0  0  0  0  0  0
   38.3820   27.0070   41.4090 C   0  0  0  0  0  0  0  0  0  0  0  0
   38.4840   28.3470   41.3130 N   0  0  0  0  0  0  0  0  0  0  0  0
   38.3800   29.0400   40.1720 C   0  0  0  0  0  0  0  0  0  0  0  0
   38.1550   28.3990   39.0030 N   0  0  0  0  0  0  0  0  0  0  0  0
   37.8600   26.5030   38.0910 H   0  0  0  0  0  0  0  0  0  0  0  0
   38.0630   25.2610   40.2440 H   0  0  0  0  0  0  0  0  0  0  0  0
   38.5120   26.3200   42.7170 C   0  0  0  0  0  3  0  0  0  0  0  0
   39.3050   26.8810   43.8120 C   0  0  0  0  0  2  0  0  0  0  0  0
   39.9540   25.7950   42.9890 C   0  0  0  0  0  2  0  0  0  0  0  0
  2  1  1  0  0  0  0
  3 31  1  0  0  0  0
  3  2  2  0  0  0  0
  4  3  1  0  0  0  0
  5  4  2  0  0  0  0
  5  6  1  0  0  0  0
  6  8  2  0  0  0  0
  7  6  1  0  0  0  0
  8  2  1  0  0  0  0
  8 10  1  0  0  0  0
  9  4  1  0  0  0  0
 11  5  1  0  0  0  0
 11 20  1  0  0  0  0
 12 11  2  0  0  0  0
 13 12  1  0  0  0  0
 13 14  2  0  0  0  0
 14 19  1  0  0  0  0
 15 14  1  0  0  0  0
 15 16  2  0  0  0  0
 16 17  1  0  0  0  0
 17 18  2  0  0  0  0
 17 24  1  0  0  0  0
 18 25  1  0  0  0  0
 19 20  2  0  0  0  0
 19 18  1  0  0  0  0
 20 26  1  0  0  0  0
 21 12  1  0  0  0  0
 22 13  1  0  0  0  0
 23 16  1  0  0  0  0
 27 28  1  0  0  0  0
 28 34  1  0  0  0  0
 28 29  2  0  0  0  0
 29 35  1  0  0  0  0
 30 29  1  0  0  0  0
 31 30  2  0  0  0  0
 32 27  2  0  0  0  0
 32 31  1  0  0  0  0
 33 27  1  0  0  0  0
 35 37  1  0  0  0  0
 35 36  1  0  0  0  0
 37 36  1  0  0  0  0
M  END
>  <minimizedAffinity>
-6.10930252

$$$$

 OpenBabel03252506073D

 37 41  0  0  0  0  0  0  0  0999 V2000
   34.8980   29.2680   40.1490 Cl  0  0  0  0  0  0  0  0  0  0  0  0
   36.4570   29.7560   39.5440 C   0  0  0  0  0  0  0  0  0  0  0  0
   37.6050   29.3680   40.2060 C   0  0  0  0  0  0  0  0  0  0  0  0
   38.7840   29.8050   39.6470 C   0  0  0  0  0  0  0  0  0  0  0  0
   38.8750   30.5810   38.5070 C   0  0  0  0  0  0  0  0  0  0  0  0
   37.7140   30.9470   37.8770 C   0  0  0  0  0  0  0  0  0  0  0  0
   37.8720   31.9260   36.4370 Cl  0  0  0  0  0  0  0  0  0  0  0  0
   36.5140   30.5330   38.3990 C   0  0  0  0  0  0  0  0  0  0  0  0
   39.6940   29.4970   40.1730 H   0  0  0  0  0  0  0  0  0  0  0  0
   35.6350   30.8530   37.8590 H   0  0  0  0  0  0  0  0  0  0  0  0
   40.2300   30.9450   38.0690 C   0  0  0  0  0  0  0  0  0  0  0  0
   40.8550   32.1220   38.4490 C   0  0  0  0  0  0  0  0  0  0  0  0
   42.1240   32.4650   38.0410 C   0  0  0  0  0  0  0  0  0  0  0  0
   42.8320   31.6290   37.2200 C   0  0  0  0  0  0  0  0  0  0  0  0
   44.0630   32.0000   36.8460 N   0  0  0  0  0  0  0  0  0  0  0  0
   44.8230   31.2240   36.0360 C   0  0  0  0  0  0  0  0  0  0  0  0
   44.2680   30.0240   35.6090 C   0  0  0  0  0  0  0  0  0  0  0  0
   43.0130   29.6530   35.9940 C   0  0  0  0  0  0  0  0  0  0  0  0
   42.2460   30.4450   36.8180 C   0  0  0  0  0  0  0  0  0  0  0  0
   40.9720   30.1040   37.2300 C   0  0  0  0  0  0  0  0  0  0  0  0
   40.2430   32.7380   39.0960 H   0  0  0  0  0  0  0  0  0  0  0  0
   42.5440   33.4080   38.3840 H   0  0  0  0  0  0  0  0  0  0  0  0
   45.7990   31.5890   35.7800 H   0  0  0  0  0  0  0  0  0  0  0  0
   44.8880   29.4130   34.9600 H   0  0  0  0  0  0  0  0  0  0  0  0
   42.5950   28.7140   35.6530 H   0  0  0  0  0  0  0  0  0  0  0  0
   40.5370   29.1760   36.9030 H   0  0  0  0  0  0  0  0  0  0  0  0
   37.3530   28.4470   43.7170 C   0  0  0  0  0  0  0  0  0  0  0  0
   37.5090   27.0610   43.7010 C   0  0  0  0  0  0  0  0  0  0  0  0
   37.7080   26.4140   42.4450 C   0  0  0  0  0  0  0  0  0  0  0  0
   37.7270   27.2240   41.3680 N   0  0  0  0  0  0  0  0  0  0  0  0
   37.5740   28.5530   41.4100 C   0  0  0  0  0  0  0  0  0  0  0  0
   37.3850   29.1800   42.5920 N   0  0  0  0  0  0  0  0  0  0  0  0
   37.2030   28.9110   44.6920 H   0  0  0  0  0  0  0  0  0  0  0  0
   37.4920   26.4370   44.5560 H   0  0  0  0  0  0  0  0  0  0  0  0
   37.8850   24.9490   42.3060 C   0  0  0  0  0  3  0  0  0  0  0  0
   38.0900   24.3120   41.0030 C   0  0  0  0  0  2  0  0  0  0  0  0
   36.6950   24.2570   41.5750 C   0  0  0  0  0  2  0  0  0  0  0  0
  2  1  1  0  0  0  0
  2  3  1  0  0  0  0
  3 31  1  0  0  0  0
  4  9  1  0  0  0  0
  4  3  2  0  0  0  0
  5  4  1  0  0  0  0
  6  8  1  0  0  0  0
  6  5  2  0  0  0  0
  7  6  1  0  0  0  0
  8  2  2  0  0  0  0
 10  8  1  0  0  0  0
 11 12  1  0  0  0  0
 11  5  1  0  0  0  0
 12 21  1  0  0  0  0
 13 22  1  0  0  0  0
 13 12  2  0  0  0  0
 14 13  1  0  0  0  0
 15 14  1  0  0  0  0
 16 15  2  0  0  0  0
 17 18  2  0  0  0  0
 17 16  1  0  0  0  0
 18 19  1  0  0  0  0
 19 14  2  0  0  0  0
 19 20  1  0  0  0  0
 20 11  2  0  0  0  0
 23 16  1  0  0  0  0
 24 17  1  0  0  0  0
 25 18  1  0  0  0  0
 26 20  1  0  0  0  0
 27 33  1  0  0  0  0
 28 27  1  0  0  0  0
 28 34  1  0  0  0  0
 29 28  2  0  0  0  0
 30 31  2  0  0  0  0
 30 29  1  0  0  0  0
 31 32  1  0  0  0  0
 32 27  2  0  0  0  0
 35 29  1  0  0  0  0
 36 37  1  0  0  0  0
 36 35  1  0  0  0  0
 37 35  1  0  0  0  0
M  END
>  <minimizedAffinity>
-6.08503103

$$$$
