
 OpenBabel03252502213D

 27 29  0  0  1  0  0  0  0  0999 V2000
   46.9020   34.6020   42.3030 N   0  0  0  0  0  0  0  0  0  0  0  0
   48.3470   34.6590   42.3510 C   0  0  0  0  0  0  0  0  0  0  0  0
   48.7190   35.4720   41.0910 C   0  0  0  0  0  0  0  0  0  0  0  0
   48.3560   34.7130   39.8560 C   0  0  0  0  0  0  0  0  0  0  0  0
   47.0720   33.9580   39.9400 C   0  0  0  0  0  0  0  0  0  0  0  0
   46.1820   34.3540   41.0770 C   0  0  1  0  0  0  0  0  0  0  0  0
   48.7020   35.1780   43.2410 H   0  0  0  0  0  0  0  0  0  0  0  0
   48.7990   33.6640   42.2140 H   0  0  0  0  0  0  0  0  0  0  0  0
   49.7760   35.7400   41.0860 H   0  0  0  0  0  0  0  0  0  0  0  0
   48.0320   36.3620   41.1360 H   0  0  0  0  0  0  0  0  0  0  0  0
   48.3740   35.4570   39.0170 H   0  0  0  0  0  0  0  0  0  0  0  0
   49.2160   34.0380   39.6230 H   0  0  0  0  0  0  0  0  0  0  0  0
   46.5070   34.1350   39.0010 H   0  0  0  0  0  0  0  0  0  0  0  0
   47.3160   32.8670   39.9480 H   0  0  0  0  0  0  0  0  0  0  0  0
   45.6600   35.2890   40.7950 H   0  0  0  0  0  0  0  0  0  0  0  0
   44.4730   35.9240   44.8310 C   0  0  0  0  0  0  0  0  0  0  0  0
   45.1950   35.8470   43.6340 C   0  0  0  0  0  0  0  0  0  0  0  0
   46.1050   34.7930   43.4750 C   0  0  0  0  0  0  0  0  0  0  0  0
   46.2080   33.9260   44.5150 N   0  0  0  0  0  0  0  0  0  0  0  0
   45.5000   34.0190   45.6650 C   0  0  0  0  0  0  0  0  0  0  0  0
   44.6280   35.0360   45.8050 N   0  0  0  0  0  0  0  0  0  0  0  0
   43.8090   36.7810   44.8210 H   0  0  0  0  0  0  0  0  0  0  0  0
   45.1290   36.5170   42.8050 H   0  0  0  0  0  0  0  0  0  0  0  0
   45.6170   33.3110   46.4550 H   0  0  0  0  0  0  0  0  0  0  0  0
   45.1480   33.3110   41.3770 C   0  0  0  0  0  0  0  0  0  0  0  0
   44.5860   32.4440   40.3190 C   0  0  0  0  0  0  0  0  0  0  0  0
   43.7220   33.4620   41.0280 C   0  0  0  0  0  0  0  0  0  0  0  0
  1  2  1  0  0  0  0
  1 18  1  0  0  0  0
  2  7  1  0  0  0  0
  3 10  1  0  0  0  0
  3  2  1  0  0  0  0
  4  5  1  0  0  0  0
  4  3  1  0  0  0  0
  5 14  1  0  0  0  0
  5  6  1  0  0  0  0
  6 15  1  6  0  0  0
  6 25  1  0  0  0  0
  6  1  1  0  0  0  0
  8  2  1  0  0  0  0
  9  3  1  0  0  0  0
 11  4  1  0  0  0  0
 12  4  1  0  0  0  0
 13  5  1  0  0  0  0
 16 21  1  0  0  0  0
 17 16  2  0  0  0  0
 18 17  1  0  0  0  0
 18 19  2  0  0  0  0
 19 20  1  0  0  0  0
 20 21  2  0  0  0  0
 20 24  1  0  0  0  0
 22 16  1  0  0  0  0
 23 17  1  0  0  0  0
 26 27  1  0  0  0  0
 26 25  1  0  0  0  0
 27 25  1  0  0  0  0
M  END
>  <minimizedAffinity>
-4.86235619

>  <minimizedRMSD>
0.825536013

$$$$
