
 OpenBabel03252503423D

 15 16  0  0  0  0  0  0  0  0999 V2000
   38.6240   31.4370   41.0460 C   0  0  0  0  0  0  0  0  0  0  0  0
   37.3720   31.6290   40.4660 C   0  0  0  0  0  0  0  0  0  0  0  0
   36.3280   30.7890   40.8390 C   0  0  0  0  0  0  0  0  0  0  0  0
   36.5870   29.8220   41.7540 N   0  0  0  0  0  0  0  0  0  0  0  0
   37.8040   29.6600   42.2960 C   0  0  0  0  0  0  0  0  0  0  0  0
   38.8540   30.4580   41.9600 N   0  0  0  0  0  0  0  0  0  0  0  0
   39.4950   32.0400   40.8190 H   0  0  0  0  0  0  0  0  0  0  0  0
   35.4060   30.9860   40.3650 H   0  0  0  0  0  0  0  0  0  0  0  0
   37.3230   32.7470   39.4920 C   0  0  0  0  0  0  0  0  0  0  0  0
   37.2140   33.7400   39.9940 H   0  0  0  0  0  0  0  0  0  0  0  0
   36.4530   32.5330   38.8200 H   0  0  0  0  0  0  0  0  0  0  0  0
   38.2330   32.7600   38.8830 H   0  0  0  0  0  0  0  0  0  0  0  0
   38.0580   28.5770   43.3080 C   0  0  0  0  0  3  0  0  0  0  0  0
   36.8680   27.7800   43.6800 C   0  0  0  0  0  2  0  0  0  0  0  0
   38.0020   27.1950   42.8250 C   0  0  0  0  0  2  0  0  0  0  0  0
  1  6  1  0  0  0  0
  2  3  1  0  0  0  0
  2  1  2  0  0  0  0
  3  4  2  0  0  0  0
  4  5  1  0  0  0  0
  5 13  1  0  0  0  0
  6  5  2  0  0  0  0
  7  1  1  0  0  0  0
  8  3  1  0  0  0  0
  9 10  1  0  0  0  0
  9  2  1  0  0  0  0
 11  9  1  0  0  0  0
 12  9  1  0  0  0  0
 13 14  1  0  0  0  0
 15 13  1  0  0  0  0
 15 14  1  0  0  0  0
M  END
>  <minimizedAffinity>
-3.7840426

$$$$

 OpenBabel03252503423D

 15 16  0  0  0  0  0  0  0  0999 V2000
   36.5020   30.7690   40.9200 C   0  0  0  0  0  0  0  0  0  0  0  0
   37.5500   31.6120   40.5540 C   0  0  0  0  0  0  0  0  0  0  0  0
   38.7920   31.4300   41.1520 C   0  0  0  0  0  0  0  0  0  0  0  0
   38.9180   30.4350   42.0660 N   0  0  0  0  0  0  0  0  0  0  0  0
   37.8900   29.6380   42.3990 C   0  0  0  0  0  0  0  0  0  0  0  0
   36.6580   29.7800   41.8390 N   0  0  0  0  0  0  0  0  0  0  0  0
   35.5020   30.8340   40.5090 H   0  0  0  0  0  0  0  0  0  0  0  0
   39.5430   32.0990   40.8330 H   0  0  0  0  0  0  0  0  0  0  0  0
   37.1800   32.6260   39.5370 C   0  0  0  0  0  0  0  0  0  0  0  0
   37.1890   32.2080   38.5000 H   0  0  0  0  0  0  0  0  0  0  0  0
   37.9230   33.4580   39.6470 H   0  0  0  0  0  0  0  0  0  0  0  0
   36.1820   33.0270   39.7450 H   0  0  0  0  0  0  0  0  0  0  0  0
   38.0630   28.5440   43.4160 C   0  0  0  0  0  3  0  0  0  0  0  0
   36.8520   27.7300   43.6670 C   0  0  0  0  0  2  0  0  0  0  0  0
   38.0650   27.1680   42.9120 C   0  0  0  0  0  2  0  0  0  0  0  0
  1  6  1  0  0  0  0
  2  1  2  0  0  0  0
  2  3  1  0  0  0  0
  3  4  2  0  0  0  0
  4  5  1  0  0  0  0
  5 13  1  0  0  0  0
  6  5  2  0  0  0  0
  7  1  1  0  0  0  0
  8  3  1  0  0  0  0
  9 11  1  0  0  0  0
  9 12  1  0  0  0  0
  9  2  1  0  0  0  0
 10  9  1  0  0  0  0
 13 14  1  0  0  0  0
 15 13  1  0  0  0  0
 15 14  1  0  0  0  0
M  END
>  <minimizedAffinity>
-3.75645185

$$$$

 OpenBabel03252503423D

 15 16  0  0  0  0  0  0  0  0999 V2000
   38.9460   29.1370   42.6910 C   0  0  0  0  0  0  0  0  0  0  0  0
   38.3700   27.8860   42.9030 C   0  0  0  0  0  0  0  0  0  0  0  0
   37.1020   27.6400   42.3900 C   0  0  0  0  0  0  0  0  0  0  0  0
   36.4890   28.6370   41.7040 N   0  0  0  0  0  0  0  0  0  0  0  0
   37.0690   29.8330   41.5140 C   0  0  0  0  0  0  0  0  0  0  0  0
   38.3080   30.1180   41.9990 N   0  0  0  0  0  0  0  0  0  0  0  0
   39.9270   29.4210   43.0510 H   0  0  0  0  0  0  0  0  0  0  0  0
   36.7220   26.6750   42.5850 H   0  0  0  0  0  0  0  0  0  0  0  0
   39.2240   26.9540   43.6800 C   0  0  0  0  0  0  0  0  0  0  0  0
   39.9980   26.4600   43.0420 H   0  0  0  0  0  0  0  0  0  0  0  0
   38.5270   26.2020   44.1310 H   0  0  0  0  0  0  0  0  0  0  0  0
   39.7280   27.4870   44.4930 H   0  0  0  0  0  0  0  0  0  0  0  0
   36.3620   30.9180   40.7490 C   0  0  0  0  0  3  0  0  0  0  0  0
   37.2040   32.0850   40.4020 C   0  0  0  0  0  2  0  0  0  0  0  0
   36.7310   31.0810   39.3400 C   0  0  0  0  0  2  0  0  0  0  0  0
  1  2  1  0  0  0  0
  1  7  1  0  0  0  0
  2  9  1  0  0  0  0
  3  8  1  0  0  0  0
  3  2  2  0  0  0  0
  4  3  1  0  0  0  0
  5  4  2  0  0  0  0
  5  6  1  0  0  0  0
  6  1  2  0  0  0  0
  9 11  1  0  0  0  0
  9 12  1  0  0  0  0
 10  9  1  0  0  0  0
 13  5  1  0  0  0  0
 14 13  1  0  0  0  0
 15 14  1  0  0  0  0
 15 13  1  0  0  0  0
M  END
>  <minimizedAffinity>
-3.63234925

$$$$

 OpenBabel03252503423D

 15 16  0  0  0  0  0  0  0  0999 V2000
   37.9390   29.2000   39.5810 C   0  0  0  0  0  0  0  0  0  0  0  0
   37.1050   30.2740   39.2790 C   0  0  0  0  0  0  0  0  0  0  0  0
   36.3920   30.8760   40.3100 C   0  0  0  0  0  0  0  0  0  0  0  0
   36.5490   30.3820   41.5640 N   0  0  0  0  0  0  0  0  0  0  0  0
   37.3610   29.3450   41.8260 C   0  0  0  0  0  0  0  0  0  0  0  0
   38.0770   28.7260   40.8480 N   0  0  0  0  0  0  0  0  0  0  0  0
   38.5330   28.6690   38.8470 H   0  0  0  0  0  0  0  0  0  0  0  0
   35.7780   31.6820   40.0160 H   0  0  0  0  0  0  0  0  0  0  0  0
   37.0910   30.6400   37.8410 C   0  0  0  0  0  0  0  0  0  0  0  0
   37.9670   31.2750   37.5590 H   0  0  0  0  0  0  0  0  0  0  0  0
   36.1240   31.1800   37.6700 H   0  0  0  0  0  0  0  0  0  0  0  0
   37.0970   29.7390   37.2190 H   0  0  0  0  0  0  0  0  0  0  0  0
   37.5130   28.8220   43.2270 C   0  0  0  0  0  3  0  0  0  0  0  0
   36.8020   27.5530   43.4990 C   0  0  0  0  0  2  0  0  0  0  0  0
   38.3330   27.6190   43.3990 C   0  0  0  0  0  2  0  0  0  0  0  0
  1  6  1  0  0  0  0
  2  1  2  0  0  0  0
  2  3  1  0  0  0  0
  3  4  2  0  0  0  0
  4  5  1  0  0  0  0
  5 13  1  0  0  0  0
  6  5  2  0  0  0  0
  7  1  1  0  0  0  0
  8  3  1  0  0  0  0
  9  2  1  0  0  0  0
 10  9  1  0  0  0  0
 11  9  1  0  0  0  0
 12  9  1  0  0  0  0
 13 15  1  0  0  0  0
 13 14  1  0  0  0  0
 15 14  1  0  0  0  0
M  END
>  <minimizedAffinity>
-3.5168016

$$$$

 OpenBabel03252503423D

 15 16  0  0  0  0  0  0  0  0999 V2000
   35.9830   27.4480   38.8890 C   0  0  0  0  0  0  0  0  0  0  0  0
   35.1730   28.5810   38.8750 C   0  0  0  0  0  0  0  0  0  0  0  0
   35.0460   29.3250   40.0430 C   0  0  0  0  0  0  0  0  0  0  0  0
   35.7220   28.9040   41.1410 N   0  0  0  0  0  0  0  0  0  0  0  0
   36.4960   27.8070   41.1250 C   0  0  0  0  0  0  0  0  0  0  0  0
   36.6490   27.0500   40.0050 N   0  0  0  0  0  0  0  0  0  0  0  0
   36.1440   26.8070   38.0310 H   0  0  0  0  0  0  0  0  0  0  0  0
   34.4190   30.1700   39.9670 H   0  0  0  0  0  0  0  0  0  0  0  0
   34.5330   28.8480   37.5630 C   0  0  0  0  0  0  0  0  0  0  0  0
   35.2240   29.3650   36.8530 H   0  0  0  0  0  0  0  0  0  0  0  0
   33.6310   29.4750   37.7830 H   0  0  0  0  0  0  0  0  0  0  0  0
   34.1980   27.9110   37.1070 H   0  0  0  0  0  0  0  0  0  0  0  0
   37.2330   27.3680   42.3600 C   0  0  0  0  0  3  0  0  0  0  0  0
   37.5570   28.4540   43.3120 C   0  0  0  0  0  2  0  0  0  0  0  0
   36.4870   27.3970   43.6210 C   0  0  0  0  0  2  0  0  0  0  0  0
  1  6  1  0  0  0  0
  2  1  2  0  0  0  0
  2  3  1  0  0  0  0
  3  4  2  0  0  0  0
  5  4  1  0  0  0  0
  5 13  1  0  0  0  0
  6  5  2  0  0  0  0
  7  1  1  0  0  0  0
  8  3  1  0  0  0  0
  9 11  1  0  0  0  0
  9  2  1  0  0  0  0
 10  9  1  0  0  0  0
 12  9  1  0  0  0  0
 13 14  1  0  0  0  0
 13 15  1  0  0  0  0
 14 15  1  0  0  0  0
M  END
>  <minimizedAffinity>
-3.51335955

$$$$

 OpenBabel03252503423D

 15 16  0  0  0  0  0  0  0  0999 V2000
   37.3760   27.1080   42.1220 C   0  0  0  0  0  0  0  0  0  0  0  0
   38.3610   27.7220   42.8930 C   0  0  0  0  0  0  0  0  0  0  0  0
   38.4500   29.1100   42.8800 C   0  0  0  0  0  0  0  0  0  0  0  0
   37.5650   29.7960   42.1140 N   0  0  0  0  0  0  0  0  0  0  0  0
   36.6260   29.1770   41.3810 C   0  0  0  0  0  0  0  0  0  0  0  0
   36.5040   27.8220   41.3630 N   0  0  0  0  0  0  0  0  0  0  0  0
   37.2300   26.0360   42.0680 H   0  0  0  0  0  0  0  0  0  0  0  0
   39.2150   29.5130   43.4840 H   0  0  0  0  0  0  0  0  0  0  0  0
   39.2140   26.7720   43.6490 C   0  0  0  0  0  0  0  0  0  0  0  0
   38.7260   26.4280   44.5940 H   0  0  0  0  0  0  0  0  0  0  0  0
   40.1700   27.3170   43.8590 H   0  0  0  0  0  0  0  0  0  0  0  0
   39.4450   25.8960   43.0340 H   0  0  0  0  0  0  0  0  0  0  0  0
   35.6610   29.9670   40.5410 C   0  0  0  0  0  3  0  0  0  0  0  0
   35.7790   29.7480   39.0820 C   0  0  0  0  0  2  0  0  0  0  0  0
   34.5850   29.2170   39.8870 C   0  0  0  0  0  2  0  0  0  0  0  0
  1  2  1  0  0  0  0
  2  9  1  0  0  0  0
  3  2  2  0  0  0  0
  3  8  1  0  0  0  0
  4  3  1  0  0  0  0
  5  4  2  0  0  0  0
  6  5  1  0  0  0  0
  6  1  2  0  0  0  0
  7  1  1  0  0  0  0
  9 11  1  0  0  0  0
  9 10  1  0  0  0  0
 12  9  1  0  0  0  0
 13  5  1  0  0  0  0
 14 15  1  0  0  0  0
 14 13  1  0  0  0  0
 15 13  1  0  0  0  0
M  END
>  <minimizedAffinity>
-3.48264456

$$$$

 OpenBabel03252503423D

 15 16  0  0  0  0  0  0  0  0999 V2000
   39.0360   28.0300   41.7110 C   0  0  0  0  0  0  0  0  0  0  0  0
   38.5600   28.9290   42.6630 C   0  0  0  0  0  0  0  0  0  0  0  0
   37.5100   28.5360   43.4860 C   0  0  0  0  0  0  0  0  0  0  0  0
   37.0030   27.2890   43.3170 N   0  0  0  0  0  0  0  0  0  0  0  0
   37.4830   26.4430   42.3900 C   0  0  0  0  0  0  0  0  0  0  0  0
   38.5080   26.7870   41.5640 N   0  0  0  0  0  0  0  0  0  0  0  0
   39.8480   28.2460   41.0280 H   0  0  0  0  0  0  0  0  0  0  0  0
   37.1950   29.2600   44.1850 H   0  0  0  0  0  0  0  0  0  0  0  0
   39.2660   30.2340   42.6670 C   0  0  0  0  0  0  0  0  0  0  0  0
   40.2310   30.1900   43.2300 H   0  0  0  0  0  0  0  0  0  0  0  0
   38.5570   30.9660   43.1310 H   0  0  0  0  0  0  0  0  0  0  0  0
   39.4720   30.5570   41.6420 H   0  0  0  0  0  0  0  0  0  0  0  0
   36.8990   25.0680   42.2280 C   0  0  0  0  0  3  0  0  0  0  0  0
   36.7830   24.6000   40.8280 C   0  0  0  0  0  2  0  0  0  0  0  0
   37.8140   24.0060   41.7990 C   0  0  0  0  0  2  0  0  0  0  0  0
  1  2  1  0  0  0  0
  2  9  1  0  0  0  0
  2  3  2  0  0  0  0
  3  8  1  0  0  0  0
  4  3  1  0  0  0  0
  5  4  2  0  0  0  0
  6  1  2  0  0  0  0
  6  5  1  0  0  0  0
  7  1  1  0  0  0  0
  9 11  1  0  0  0  0
  9 10  1  0  0  0  0
 12  9  1  0  0  0  0
 13  5  1  0  0  0  0
 14 15  1  0  0  0  0
 14 13  1  0  0  0  0
 15 13  1  0  0  0  0
M  END
>  <minimizedAffinity>
-3.47195268

$$$$

 OpenBabel03252503423D

 15 16  0  0  0  0  0  0  0  0999 V2000
   36.8910   26.1360   40.4700 C   0  0  0  0  0  0  0  0  0  0  0  0
   37.1930   25.9160   41.8120 C   0  0  0  0  0  0  0  0  0  0  0  0
   36.9640   26.9400   42.7240 C   0  0  0  0  0  0  0  0  0  0  0  0
   36.4550   28.1070   42.2550 N   0  0  0  0  0  0  0  0  0  0  0  0
   36.1730   28.2910   40.9540 C   0  0  0  0  0  0  0  0  0  0  0  0
   36.3820   27.3160   40.0280 N   0  0  0  0  0  0  0  0  0  0  0  0
   37.0350   25.4000   39.6880 H   0  0  0  0  0  0  0  0  0  0  0  0
   37.2120   26.7110   43.7240 H   0  0  0  0  0  0  0  0  0  0  0  0
   37.7380   24.5650   42.0930 C   0  0  0  0  0  0  0  0  0  0  0  0
   36.9340   23.7930   42.1740 H   0  0  0  0  0  0  0  0  0  0  0  0
   38.3120   24.6590   43.0510 H   0  0  0  0  0  0  0  0  0  0  0  0
   38.4350   24.2650   41.3040 H   0  0  0  0  0  0  0  0  0  0  0  0
   35.6100   29.5960   40.4660 C   0  0  0  0  0  3  0  0  0  0  0  0
   36.2820   30.8030   40.9990 C   0  0  0  0  0  2  0  0  0  0  0  0
   36.4380   30.3670   39.5350 C   0  0  0  0  0  2  0  0  0  0  0  0
  1  2  1  0  0  0  0
  2  9  1  0  0  0  0
  2  3  2  0  0  0  0
  3  8  1  0  0  0  0
  4  3  1  0  0  0  0
  5  4  2  0  0  0  0
  6  1  2  0  0  0  0
  6  5  1  0  0  0  0
  7  1  1  0  0  0  0
  9 10  1  0  0  0  0
  9 11  1  0  0  0  0
 12  9  1  0  0  0  0
 13  5  1  0  0  0  0
 13 14  1  0  0  0  0
 15 13  1  0  0  0  0
 15 14  1  0  0  0  0
M  END
>  <minimizedAffinity>
-3.47075844

$$$$

 OpenBabel03252503423D

 15 16  0  0  0  0  0  0  0  0999 V2000
   36.9620   26.8490   42.5000 C   0  0  0  0  0  0  0  0  0  0  0  0
   37.1790   25.8440   41.5600 C   0  0  0  0  0  0  0  0  0  0  0  0
   36.8610   26.0950   40.2300 C   0  0  0  0  0  0  0  0  0  0  0  0
   36.3540   27.3140   39.9170 N   0  0  0  0  0  0  0  0  0  0  0  0
   36.1560   28.2640   40.8450 C   0  0  0  0  0  0  0  0  0  0  0  0
   36.4520   28.0610   42.1570 N   0  0  0  0  0  0  0  0  0  0  0  0
   37.1790   26.7470   43.5560 H   0  0  0  0  0  0  0  0  0  0  0  0
   37.0480   25.2950   39.5680 H   0  0  0  0  0  0  0  0  0  0  0  0
   37.7410   24.5960   42.1310 C   0  0  0  0  0  0  0  0  0  0  0  0
   38.8470   24.6600   42.2790 H   0  0  0  0  0  0  0  0  0  0  0  0
   37.4730   23.7800   41.4120 H   0  0  0  0  0  0  0  0  0  0  0  0
   37.2710   24.3730   43.0950 H   0  0  0  0  0  0  0  0  0  0  0  0
   35.5910   29.6040   40.4650 C   0  0  0  0  0  3  0  0  0  0  0  0
   36.2980   30.7670   41.0490 C   0  0  0  0  0  2  0  0  0  0  0  0
   36.3940   30.4260   39.5540 C   0  0  0  0  0  2  0  0  0  0  0  0
  1  7  1  0  0  0  0
  2  9  1  0  0  0  0
  2  1  2  0  0  0  0
  3  2  1  0  0  0  0
  4  3  2  0  0  0  0
  4  5  1  0  0  0  0
  5  6  2  0  0  0  0
  6  1  1  0  0  0  0
  8  3  1  0  0  0  0
  9 10  1  0  0  0  0
  9 12  1  0  0  0  0
 11  9  1  0  0  0  0
 13  5  1  0  0  0  0
 13 14  1  0  0  0  0
 15 13  1  0  0  0  0
 15 14  1  0  0  0  0
M  END
>  <minimizedAffinity>
-3.43530226

$$$$
