
 OpenBabel03252504333D

 34 36  0  0  0  0  0  0  0  0999 V2000
   43.7060   35.2290   40.9290 C   0  0  0  0  0  0  0  0  0  0  0  0
   43.8010   35.5590   42.2120 C   0  0  0  0  0  0  0  0  0  0  0  0
   45.0700   35.5580   43.0390 C   0  0  0  0  0  0  0  0  0  0  0  0
   45.3030   36.5670   43.4320 H   0  0  0  0  0  0  0  0  0  0  0  0
   45.9190   35.2420   42.4070 H   0  0  0  0  0  0  0  0  0  0  0  0
   44.8690   34.6960   44.0990 O   0  0  0  0  0  0  0  0  0  0  0  0
   45.7230   32.5610   42.7570 O   0  0  0  0  0  0  0  0  0  0  0  0
   45.9200   33.3790   44.0090 P   0  0  1  0  0  0  0  0  0  0  0  0
   47.5370   33.9190   43.9970 O   0  0  0  0  0  0  0  0  0  0  0  0
   47.7840   34.2390   44.9010 H   0  0  0  0  0  0  0  0  0  0  0  0
   45.7320   32.4050   45.3750 O   0  0  0  0  0  0  0  0  0  0  0  0
   46.0660   33.0640   46.5410 C   0  0  0  0  0  0  0  0  0  0  0  0
   47.0160   32.4170   47.4980 C   0  0  0  0  0  0  0  0  0  0  0  0
   45.5370   32.4300   47.8070 C   0  0  0  0  0  0  0  0  0  0  0  0
   46.1900   34.1560   46.4590 H   0  0  0  0  0  0  0  0  0  0  0  0
   47.3720   31.4080   47.1700 H   0  0  0  0  0  0  0  0  0  0  0  0
   47.6910   33.0480   48.1020 H   0  0  0  0  0  0  0  0  0  0  0  0
   45.2300   33.1570   48.6060 H   0  0  0  0  0  0  0  0  0  0  0  0
   44.9300   31.5270   47.7560 H   0  0  0  0  0  0  0  0  0  0  0  0
   42.4430   35.3000   40.3710 O   0  0  0  0  0  0  0  0  0  0  0  0
   41.2610   35.5870   40.9880 C   0  0  0  0  0  0  0  0  0  0  0  0
   41.3060   35.8020   42.0920 H   0  0  0  0  0  0  0  0  0  0  0  0
   40.7840   36.4760   40.5280 H   0  0  0  0  0  0  0  0  0  0  0  0
   40.5100   33.4060   41.8080 C   0  0  0  0  0  0  0  0  0  0  0  0
   40.2730   34.4630   40.8940 C   0  0  0  0  0  0  0  0  0  0  0  0
   39.2030   34.3430   40.0600 C   0  0  0  0  0  0  0  0  0  0  0  0
   38.4650   33.2510   40.1640 N   0  0  0  0  0  0  0  0  0  0  0  0
   38.6850   32.2620   41.0180 C   0  0  0  0  0  0  0  0  0  0  0  0
   39.7510   32.3060   41.8990 N   0  0  0  0  0  0  0  0  0  0  0  0
   41.3350   33.4140   42.5080 H   0  0  0  0  0  0  0  0  0  0  0  0
   39.0710   35.1650   39.3940 H   0  0  0  0  0  0  0  0  0  0  0  0
   37.7820   31.0780   41.0420 C   0  0  0  0  0  0  0  0  0  0  0  0
   38.4290   29.7110   41.0830 C   0  0  0  0  0  0  0  0  0  0  0  0
   37.7150   30.1690   39.8700 C   0  0  0  0  0  0  0  0  0  0  0  0
  1  2  2  0  0  0  0
  2  3  1  0  0  0  0
  3  4  1  0  0  0  0
  3  6  1  0  0  0  0
  5  3  1  0  0  0  0
  8  7  2  6  0  0  0
  8  6  1  0  0  0  0
  8 11  1  0  0  0  0
  9  8  1  0  0  0  0
  9 10  1  0  0  0  0
 11 12  1  0  0  0  0
 12 13  1  0  0  0  0
 12 14  1  0  0  0  0
 13 14  1  0  0  0  0
 13 17  1  0  0  0  0
 14 18  1  0  0  0  0
 15 12  1  0  0  0  0
 16 13  1  0  0  0  0
 19 14  1  0  0  0  0
 20  1  1  0  0  0  0
 20 21  1  0  0  0  0
 21 22  1  0  0  0  0
 23 21  1  0  0  0  0
 24 29  1  0  0  0  0
 24 30  1  0  0  0  0
 25 21  1  0  0  0  0
 25 24  2  0  0  0  0
 26 27  2  0  0  0  0
 26 25  1  0  0  0  0
 27 28  1  0  0  0  0
 28 32  1  0  0  0  0
 28 29  2  0  0  0  0
 31 26  1  0  0  0  0
 32 33  1  0  0  0  0
 34 32  1  0  0  0  0
 34 33  1  0  0  0  0
M  END
>  <minimizedAffinity>
-4.85434961

>  <minimizedRMSD>
0.584928811

$$$$
