
 OpenBabel03252509213D

 19 21  0  0  0  0  0  0  0  0999 V2000
   44.9330   34.2710   43.9660 C   0  0  0  0  0  0  0  0  0  0  0  0
   45.5370   34.7370   42.7720 C   0  0  0  0  0  0  0  0  0  0  0  0
   46.8970   34.4470   42.6560 C   0  0  0  0  0  0  0  0  0  0  0  0
   47.5720   33.7560   43.6460 N   0  0  0  0  0  0  0  0  0  0  0  0
   46.9360   33.3410   44.7550 C   0  0  0  0  0  0  0  0  0  0  0  0
   45.6270   33.6010   44.9060 N   0  0  0  0  0  0  0  0  0  0  0  0
   43.8930   34.4720   44.0990 H   0  0  0  0  0  0  0  0  0  0  0  0
   47.6180   32.8210   45.4120 H   0  0  0  0  0  0  0  0  0  0  0  0
   47.5720   34.8450   41.3640 C   0  0  0  0  0  0  0  0  0  0  0  0
   48.8380   35.6680   41.6350 C   0  0  0  0  0  0  0  0  0  0  0  0
   48.8300   34.2200   41.0460 C   0  0  0  0  0  0  0  0  0  0  0  0
   46.9110   35.4490   40.7250 H   0  0  0  0  0  0  0  0  0  0  0  0
   49.1120   36.4700   40.9420 H   0  0  0  0  0  0  0  0  0  0  0  0
   49.1670   35.7620   42.6690 H   0  0  0  0  0  0  0  0  0  0  0  0
   49.1480   34.1930   39.9670 H   0  0  0  0  0  0  0  0  0  0  0  0
   49.3390   33.4850   41.6820 H   0  0  0  0  0  0  0  0  0  0  0  0
   44.8220   35.4710   41.7190 C   0  0  0  0  0  3  0  0  0  0  0  0
   44.0560   34.5790   40.7640 C   0  0  0  0  0  2  0  0  0  0  0  0
   43.3390   35.5230   41.6920 C   0  0  0  0  0  2  0  0  0  0  0  0
  1  7  1  0  0  0  0
  1  6  1  0  0  0  0
  2  1  2  0  0  0  0
  3  2  1  0  0  0  0
  3  4  2  0  0  0  0
  4  5  1  0  0  0  0
  5  6  2  0  0  0  0
  5  8  1  0  0  0  0
  9 10  1  0  0  0  0
  9  3  1  0  0  0  0
 10 14  1  0  0  0  0
 11  9  1  0  0  0  0
 11 10  1  0  0  0  0
 11 16  1  0  0  0  0
 12  9  1  0  0  0  0
 13 10  1  0  0  0  0
 15 11  1  0  0  0  0
 17  2  1  0  0  0  0
 18 19  1  0  0  0  0
 18 17  1  0  0  0  0
 19 17  1  0  0  0  0
M  END
>  <minimizedAffinity>
-3.86634541

>  <minimizedRMSD>
1.33298278

$$$$
