
 OpenBabel03252501203D

 20 21  0  0  0  0  0  0  0  0999 V2000
   36.7740   31.2540   40.7970 C   0  0  0  0  0  0  0  0  0  0  0  0
   36.3560   30.3020   39.8600 C   0  0  0  0  0  0  0  0  0  0  0  0
   36.6110   30.6010   38.5280 C   0  0  0  0  0  0  0  0  0  0  0  0
   37.2350   31.7740   38.2080 N   0  0  0  0  0  0  0  0  0  0  0  0
   37.6140   32.6520   39.1410 C   0  0  0  0  0  0  0  0  0  0  0  0
   37.3800   32.3850   40.4480 N   0  0  0  0  0  0  0  0  0  0  0  0
   36.6040   31.0790   41.8550 H   0  0  0  0  0  0  0  0  0  0  0  0
   38.0980   33.5340   38.7300 H   0  0  0  0  0  0  0  0  0  0  0  0
   36.1870   29.5880   37.5560 C   0  0  0  0  0  0  0  0  0  0  0  0
   36.5280   30.0100   36.2720 F   0  0  0  0  0  0  0  0  0  0  0  0
   34.8210   29.5540   37.5880 F   0  0  0  0  0  0  0  0  0  0  0  0
   36.7990   28.3920   37.7460 F   0  0  0  0  0  0  0  0  0  0  0  0
   35.6850   29.0730   40.2610 C   0  0  0  0  0  0  0  0  0  0  0  0
   36.0570   28.2400   39.6500 H   0  0  0  0  0  0  0  0  0  0  0  0
   34.6030   29.0540   40.2250 H   0  0  0  0  0  0  0  0  0  0  0  0
   35.8410   28.8390   41.6820 N   0  0  0  0  0  0  0  0  0  0  0  0
   34.8650   28.6360   42.0370 H   0  0  0  0  0  0  0  0  0  0  0  0
   36.7480   27.8450   42.0770 C   0  0  0  0  0  3  0  0  0  0  0  0
   36.5040   27.3650   43.5100 C   0  0  0  0  0  2  0  0  0  0  0  0
   37.8070   27.9860   43.0710 C   0  0  0  0  0  2  0  0  0  0  0  0
  1  7  1  0  0  0  0
  2 13  1  0  0  0  0
  2  1  2  0  0  0  0
  3  2  1  0  0  0  0
  4  3  2  0  0  0  0
  4  5  1  0  0  0  0
  5  6  2  0  0  0  0
  6  1  1  0  0  0  0
  8  5  1  0  0  0  0
  9 11  1  0  0  0  0
  9 12  1  0  0  0  0
  9  3  1  0  0  0  0
 10  9  1  0  0  0  0
 13 16  1  0  0  0  0
 14 13  1  0  0  0  0
 15 13  1  0  0  0  0
 16 17  1  0  0  0  0
 16 18  1  0  0  0  0
 18 20  1  0  0  0  0
 18 19  1  0  0  0  0
 20 19  1  0  0  0  0
M  END
>  <minimizedAffinity>
-4.22826099

$$$$

 OpenBabel03252501203D

 20 21  0  0  0  0  0  0  0  0999 V2000
   39.4610   27.7640   43.4100 C   0  0  0  0  0  0  0  0  0  0  0  0
   38.2700   27.1660   42.9790 C   0  0  0  0  0  0  0  0  0  0  0  0
   38.4030   25.9720   42.2810 C   0  0  0  0  0  0  0  0  0  0  0  0
   39.6490   25.4580   42.0540 N   0  0  0  0  0  0  0  0  0  0  0  0
   40.7560   26.0680   42.4870 C   0  0  0  0  0  0  0  0  0  0  0  0
   40.6570   27.2330   43.1720 N   0  0  0  0  0  0  0  0  0  0  0  0
   39.4250   28.6980   43.9620 H   0  0  0  0  0  0  0  0  0  0  0  0
   41.6680   25.5360   42.2300 H   0  0  0  0  0  0  0  0  0  0  0  0
   37.1490   25.3450   41.8500 C   0  0  0  0  0  0  0  0  0  0  0  0
   37.4300   24.1210   41.2460 F   0  0  0  0  0  0  0  0  0  0  0  0
   36.6250   26.1370   40.8660 F   0  0  0  0  0  0  0  0  0  0  0  0
   36.3130   25.0830   42.8860 F   0  0  0  0  0  0  0  0  0  0  0  0
   36.9700   27.7680   43.2410 C   0  0  0  0  0  0  0  0  0  0  0  0
   36.7230   27.6510   44.3030 H   0  0  0  0  0  0  0  0  0  0  0  0
   36.1260   27.4150   42.6620 H   0  0  0  0  0  0  0  0  0  0  0  0
   36.9440   29.1500   42.8080 N   0  0  0  0  0  0  0  0  0  0  0  0
   37.8140   29.5860   43.2250 H   0  0  0  0  0  0  0  0  0  0  0  0
   36.8570   29.3940   41.4300 C   0  0  0  0  0  3  0  0  0  0  0  0
   36.2390   30.7590   41.1140 C   0  0  0  0  0  2  0  0  0  0  0  0
   35.6330   29.4630   40.6390 C   0  0  0  0  0  2  0  0  0  0  0  0
  1  7  1  0  0  0  0
  2 13  1  0  0  0  0
  2  1  2  0  0  0  0
  3  2  1  0  0  0  0
  4  3  2  0  0  0  0
  4  5  1  0  0  0  0
  5  6  2  0  0  0  0
  6  1  1  0  0  0  0
  8  5  1  0  0  0  0
  9  3  1  0  0  0  0
  9 12  1  0  0  0  0
 10  9  1  0  0  0  0
 11  9  1  0  0  0  0
 13 14  1  0  0  0  0
 15 13  1  0  0  0  0
 16 17  1  0  0  0  0
 16 13  1  0  0  0  0
 18 16  1  0  0  0  0
 19 18  1  0  0  0  0
 20 19  1  0  0  0  0
 20 18  1  0  0  0  0
M  END
>  <minimizedAffinity>
-4.21108389

$$$$

 OpenBabel03252501203D

 20 21  0  0  0  0  0  0  0  0999 V2000
   34.9660   29.1740   39.7910 C   0  0  0  0  0  0  0  0  0  0  0  0
   35.8960   30.2190   39.8230 C   0  0  0  0  0  0  0  0  0  0  0  0
   36.5020   30.5370   38.6140 C   0  0  0  0  0  0  0  0  0  0  0  0
   36.1720   29.8340   37.4890 N   0  0  0  0  0  0  0  0  0  0  0  0
   35.2770   28.8420   37.5110 C   0  0  0  0  0  0  0  0  0  0  0  0
   34.6690   28.5120   38.6760 N   0  0  0  0  0  0  0  0  0  0  0  0
   34.4570   28.8780   40.7040 H   0  0  0  0  0  0  0  0  0  0  0  0
   35.1220   28.3820   36.5400 H   0  0  0  0  0  0  0  0  0  0  0  0
   37.4610   31.6450   38.6550 C   0  0  0  0  0  0  0  0  0  0  0  0
   37.9600   31.8710   37.3730 F   0  0  0  0  0  0  0  0  0  0  0  0
   38.5250   31.2240   39.4030 F   0  0  0  0  0  0  0  0  0  0  0  0
   36.8950   32.8110   39.0610 F   0  0  0  0  0  0  0  0  0  0  0  0
   36.2160   30.9260   41.0560 C   0  0  0  0  0  0  0  0  0  0  0  0
   35.3960   31.6120   41.3040 H   0  0  0  0  0  0  0  0  0  0  0  0
   37.1410   31.4870   41.0910 H   0  0  0  0  0  0  0  0  0  0  0  0
   36.5080   29.9930   42.1250 N   0  0  0  0  0  0  0  0  0  0  0  0
   35.7210   29.2860   42.0970 H   0  0  0  0  0  0  0  0  0  0  0  0
   37.7620   29.3660   42.1110 C   0  0  0  0  0  3  0  0  0  0  0  0
   38.1040   28.7080   43.4500 C   0  0  0  0  0  2  0  0  0  0  0  0
   38.9520   29.7950   42.8380 C   0  0  0  0  0  2  0  0  0  0  0  0
  1  2  1  0  0  0  0
  1  7  1  0  0  0  0
  2 13  1  0  0  0  0
  3  9  1  0  0  0  0
  3  2  2  0  0  0  0
  4  5  2  0  0  0  0
  4  3  1  0  0  0  0
  5  6  1  0  0  0  0
  6  1  2  0  0  0  0
  8  5  1  0  0  0  0
  9 12  1  0  0  0  0
  9 11  1  0  0  0  0
 10  9  1  0  0  0  0
 13 15  1  0  0  0  0
 13 14  1  0  0  0  0
 13 16  1  0  0  0  0
 17 16  1  0  0  0  0
 18 16  1  0  0  0  0
 18 20  1  0  0  0  0
 18 19  1  0  0  0  0
 20 19  1  0  0  0  0
M  END
>  <minimizedAffinity>
-4.1928525

$$$$

 OpenBabel03252501203D

 20 21  0  0  0  0  0  0  0  0999 V2000
   35.9220   29.7270   38.7850 C   0  0  0  0  0  0  0  0  0  0  0  0
   36.5580   30.6890   39.5780 C   0  0  0  0  0  0  0  0  0  0  0  0
   37.5150   31.4710   38.9430 C   0  0  0  0  0  0  0  0  0  0  0  0
   37.7810   31.2670   37.6180 N   0  0  0  0  0  0  0  0  0  0  0  0
   37.1460   30.3320   36.9040 C   0  0  0  0  0  0  0  0  0  0  0  0
   36.2070   29.5570   37.4970 N   0  0  0  0  0  0  0  0  0  0  0  0
   35.1630   29.0850   39.2230 H   0  0  0  0  0  0  0  0  0  0  0  0
   37.4670   30.2920   35.8670 H   0  0  0  0  0  0  0  0  0  0  0  0
   38.1610   32.4880   39.7780 C   0  0  0  0  0  0  0  0  0  0  0  0
   39.1900   33.0920   39.0560 F   0  0  0  0  0  0  0  0  0  0  0  0
   38.7660   31.8300   40.8120 F   0  0  0  0  0  0  0  0  0  0  0  0
   37.3110   33.4810   40.1430 F   0  0  0  0  0  0  0  0  0  0  0  0
   36.2390   30.8550   40.9900 C   0  0  0  0  0  0  0  0  0  0  0  0
   35.2980   31.4100   41.0870 H   0  0  0  0  0  0  0  0  0  0  0  0
   36.9760   31.3360   41.6200 H   0  0  0  0  0  0  0  0  0  0  0  0
   36.2060   29.5730   41.6650 N   0  0  0  0  0  0  0  0  0  0  0  0
   35.6400   28.9420   41.0310 H   0  0  0  0  0  0  0  0  0  0  0  0
   37.4340   28.9900   42.0070 C   0  0  0  0  0  3  0  0  0  0  0  0
   37.3720   28.2230   43.3300 C   0  0  0  0  0  2  0  0  0  0  0  0
   38.3030   29.3880   43.1100 C   0  0  0  0  0  2  0  0  0  0  0  0
  1  7  1  0  0  0  0
  1  2  1  0  0  0  0
  2 13  1  0  0  0  0
  3  2  2  0  0  0  0
  3  9  1  0  0  0  0
  4  3  1  0  0  0  0
  5  6  1  0  0  0  0
  5  4  2  0  0  0  0
  6  1  2  0  0  0  0
  8  5  1  0  0  0  0
  9 12  1  0  0  0  0
  9 11  1  0  0  0  0
 10  9  1  0  0  0  0
 13 14  1  0  0  0  0
 13 15  1  0  0  0  0
 13 16  1  0  0  0  0
 16 18  1  0  0  0  0
 17 16  1  0  0  0  0
 18 20  1  0  0  0  0
 18 19  1  0  0  0  0
 20 19  1  0  0  0  0
M  END
>  <minimizedAffinity>
-4.16102314

$$$$

 OpenBabel03252501203D

 20 21  0  0  0  0  0  0  0  0999 V2000
   39.4310   29.8180   42.4180 C   0  0  0  0  0  0  0  0  0  0  0  0
   38.2140   29.1360   42.3050 C   0  0  0  0  0  0  0  0  0  0  0  0
   38.2410   27.7810   42.6110 C   0  0  0  0  0  0  0  0  0  0  0  0
   39.4170   27.1990   42.9920 N   0  0  0  0  0  0  0  0  0  0  0  0
   40.5540   27.8940   43.0830 C   0  0  0  0  0  0  0  0  0  0  0  0
   40.5570   29.2170   42.7930 N   0  0  0  0  0  0  0  0  0  0  0  0
   39.4760   30.8790   42.1940 H   0  0  0  0  0  0  0  0  0  0  0  0
   41.4020   27.2920   43.3980 H   0  0  0  0  0  0  0  0  0  0  0  0
   36.9570   27.0810   42.5080 C   0  0  0  0  0  0  0  0  0  0  0  0
   37.1540   25.7200   42.7410 F   0  0  0  0  0  0  0  0  0  0  0  0
   36.5500   27.1830   41.2070 F   0  0  0  0  0  0  0  0  0  0  0  0
   36.0550   27.5040   43.4300 F   0  0  0  0  0  0  0  0  0  0  0  0
   36.9930   29.8080   41.8840 C   0  0  0  0  0  0  0  0  0  0  0  0
   36.7380   30.5890   42.6120 H   0  0  0  0  0  0  0  0  0  0  0  0
   36.1110   29.2000   41.7250 H   0  0  0  0  0  0  0  0  0  0  0  0
   37.1250   30.3230   40.5360 N   0  0  0  0  0  0  0  0  0  0  0  0
   36.5220   29.6900   39.9380 H   0  0  0  0  0  0  0  0  0  0  0  0
   36.8150   31.6740   40.3270 C   0  0  0  0  0  3  0  0  0  0  0  0
   37.2080   32.1560   38.9270 C   0  0  0  0  0  2  0  0  0  0  0  0
   37.7700   32.7680   40.1850 C   0  0  0  0  0  2  0  0  0  0  0  0
  1  6  1  0  0  0  0
  2  1  2  0  0  0  0
  2  3  1  0  0  0  0
  3  4  2  0  0  0  0
  4  5  1  0  0  0  0
  5  8  1  0  0  0  0
  6  5  2  0  0  0  0
  7  1  1  0  0  0  0
  9  3  1  0  0  0  0
  9 10  1  0  0  0  0
  9 12  1  0  0  0  0
 11  9  1  0  0  0  0
 13  2  1  0  0  0  0
 13 14  1  0  0  0  0
 15 13  1  0  0  0  0
 16 13  1  0  0  0  0
 17 16  1  0  0  0  0
 18 16  1  0  0  0  0
 19 20  1  0  0  0  0
 19 18  1  0  0  0  0
 20 18  1  0  0  0  0
M  END
>  <minimizedAffinity>
-4.13099146

$$$$

 OpenBabel03252501203D

 20 21  0  0  0  0  0  0  0  0999 V2000
   36.8530   27.7570   39.2930 C   0  0  0  0  0  0  0  0  0  0  0  0
   36.6690   28.0190   40.6550 C   0  0  0  0  0  0  0  0  0  0  0  0
   37.5540   27.3940   41.5250 C   0  0  0  0  0  0  0  0  0  0  0  0
   38.5280   26.5770   41.0230 N   0  0  0  0  0  0  0  0  0  0  0  0
   38.6620   26.3580   39.7110 C   0  0  0  0  0  0  0  0  0  0  0  0
   37.8140   26.9560   38.8410 N   0  0  0  0  0  0  0  0  0  0  0  0
   36.1950   28.2170   38.5620 H   0  0  0  0  0  0  0  0  0  0  0  0
   39.4810   25.6870   39.4690 H   0  0  0  0  0  0  0  0  0  0  0  0
   37.3640   27.6900   42.9480 C   0  0  0  0  0  0  0  0  0  0  0  0
   38.4080   27.1270   43.6800 F   0  0  0  0  0  0  0  0  0  0  0  0
   36.2320   27.0330   43.3440 F   0  0  0  0  0  0  0  0  0  0  0  0
   37.3800   29.0210   43.2110 F   0  0  0  0  0  0  0  0  0  0  0  0
   35.6050   28.8920   41.1330 C   0  0  0  0  0  0  0  0  0  0  0  0
   35.7280   29.0590   42.2100 H   0  0  0  0  0  0  0  0  0  0  0  0
   34.5820   28.5820   40.9590 H   0  0  0  0  0  0  0  0  0  0  0  0
   35.5700   30.1260   40.3750 N   0  0  0  0  0  0  0  0  0  0  0  0
   34.5480   30.4010   40.3400 H   0  0  0  0  0  0  0  0  0  0  0  0
   36.3710   31.1850   40.8280 C   0  0  0  0  0  3  0  0  0  0  0  0
   37.0300   31.9540   39.6800 C   0  0  0  0  0  2  0  0  0  0  0  0
   37.8260   31.2600   40.7560 C   0  0  0  0  0  2  0  0  0  0  0  0
  1  2  1  0  0  0  0
  2 13  1  0  0  0  0
  2  3  2  0  0  0  0
  3  9  1  0  0  0  0
  4  3  1  0  0  0  0
  5  4  2  0  0  0  0
  6  1  2  0  0  0  0
  6  5  1  0  0  0  0
  7  1  1  0  0  0  0
  8  5  1  0  0  0  0
  9 12  1  0  0  0  0
  9 11  1  0  0  0  0
  9 10  1  0  0  0  0
 13 14  1  0  0  0  0
 15 13  1  0  0  0  0
 16 18  1  0  0  0  0
 16 13  1  0  0  0  0
 17 16  1  0  0  0  0
 19 20  1  0  0  0  0
 19 18  1  0  0  0  0
 20 18  1  0  0  0  0
M  END
>  <minimizedAffinity>
-3.97770119

$$$$

 OpenBabel03252501203D

 20 21  0  0  0  0  0  0  0  0999 V2000
   36.0540   28.4310   40.5500 C   0  0  0  0  0  0  0  0  0  0  0  0
   36.5660   27.5230   41.4850 C   0  0  0  0  0  0  0  0  0  0  0  0
   36.9510   26.2850   40.9870 C   0  0  0  0  0  0  0  0  0  0  0  0
   36.8140   26.0220   39.6530 N   0  0  0  0  0  0  0  0  0  0  0  0
   36.3190   26.9250   38.8000 C   0  0  0  0  0  0  0  0  0  0  0  0
   35.9370   28.1410   39.2580 N   0  0  0  0  0  0  0  0  0  0  0  0
   35.7360   29.4170   40.8760 H   0  0  0  0  0  0  0  0  0  0  0  0
   36.2740   26.5680   37.7750 H   0  0  0  0  0  0  0  0  0  0  0  0
   37.5030   25.3480   41.9700 C   0  0  0  0  0  0  0  0  0  0  0  0
   38.0700   24.2620   41.3050 F   0  0  0  0  0  0  0  0  0  0  0  0
   36.4460   24.8440   42.6770 F   0  0  0  0  0  0  0  0  0  0  0  0
   38.4890   25.8990   42.7220 F   0  0  0  0  0  0  0  0  0  0  0  0
   36.6780   27.8560   42.8980 C   0  0  0  0  0  0  0  0  0  0  0  0
   37.2760   27.0890   43.4060 H   0  0  0  0  0  0  0  0  0  0  0  0
   35.7620   27.9890   43.4590 H   0  0  0  0  0  0  0  0  0  0  0  0
   37.2140   29.1910   43.0730 N   0  0  0  0  0  0  0  0  0  0  0  0
   36.6820   29.5960   43.8940 H   0  0  0  0  0  0  0  0  0  0  0  0
   38.6000   29.3120   43.2490 C   0  0  0  0  0  3  0  0  0  0  0  0
   39.1960   30.4630   42.4320 C   0  0  0  0  0  2  0  0  0  0  0  0
   39.6260   29.0290   42.2510 C   0  0  0  0  0  2  0  0  0  0  0  0
  1  7  1  0  0  0  0
  1  2  1  0  0  0  0
  2 13  1  0  0  0  0
  3  2  2  0  0  0  0
  3  9  1  0  0  0  0
  4  3  1  0  0  0  0
  5  6  1  0  0  0  0
  5  4  2  0  0  0  0
  6  1  2  0  0  0  0
  8  5  1  0  0  0  0
  9 11  1  0  0  0  0
  9 12  1  0  0  0  0
 10  9  1  0  0  0  0
 13 16  1  0  0  0  0
 13 14  1  0  0  0  0
 13 15  1  0  0  0  0
 16 18  1  0  0  0  0
 16 17  1  0  0  0  0
 19 18  1  0  0  0  0
 20 19  1  0  0  0  0
 20 18  1  0  0  0  0
M  END
>  <minimizedAffinity>
-3.96910548

$$$$

 OpenBabel03252501203D

 20 21  0  0  0  0  0  0  0  0999 V2000
   36.9980   31.5220   39.6750 C   0  0  0  0  0  0  0  0  0  0  0  0
   37.8000   30.7530   40.5270 C   0  0  0  0  0  0  0  0  0  0  0  0
   38.7870   31.4400   41.2240 C   0  0  0  0  0  0  0  0  0  0  0  0
   38.9230   32.7880   41.0470 N   0  0  0  0  0  0  0  0  0  0  0  0
   38.1300   33.4780   40.2210 C   0  0  0  0  0  0  0  0  0  0  0  0
   37.1590   32.8340   39.5300 N   0  0  0  0  0  0  0  0  0  0  0  0
   36.2080   31.0440   39.1030 H   0  0  0  0  0  0  0  0  0  0  0  0
   38.3610   34.5390   40.1900 H   0  0  0  0  0  0  0  0  0  0  0  0
   39.6090   30.6290   42.1270 C   0  0  0  0  0  0  0  0  0  0  0  0
   40.6670   31.4000   42.6050 F   0  0  0  0  0  0  0  0  0  0  0  0
   40.1770   29.6420   41.3700 F   0  0  0  0  0  0  0  0  0  0  0  0
   38.9210   30.1980   43.2150 F   0  0  0  0  0  0  0  0  0  0  0  0
   37.6160   29.3150   40.6660 C   0  0  0  0  0  0  0  0  0  0  0  0
   38.5690   28.8520   40.9480 H   0  0  0  0  0  0  0  0  0  0  0  0
   37.2210   28.7730   39.8160 H   0  0  0  0  0  0  0  0  0  0  0  0
   36.5510   29.0200   41.6030 N   0  0  0  0  0  0  0  0  0  0  0  0
   35.6560   29.2480   41.0850 H   0  0  0  0  0  0  0  0  0  0  0  0
   36.5120   27.7300   42.1510 C   0  0  0  0  0  3  0  0  0  0  0  0
   36.6110   27.7390   43.6800 C   0  0  0  0  0  2  0  0  0  0  0  0
   37.6160   27.0350   42.8040 C   0  0  0  0  0  2  0  0  0  0  0  0
  1  2  1  0  0  0  0
  2 13  1  0  0  0  0
  2  3  2  0  0  0  0
  3  9  1  0  0  0  0
  4  3  1  0  0  0  0
  5  4  2  0  0  0  0
  6  1  2  0  0  0  0
  6  5  1  0  0  0  0
  7  1  1  0  0  0  0
  8  5  1  0  0  0  0
  9 10  1  0  0  0  0
  9 12  1  0  0  0  0
 11  9  1  0  0  0  0
 13 14  1  0  0  0  0
 13 16  1  0  0  0  0
 15 13  1  0  0  0  0
 16 18  1  0  0  0  0
 17 16  1  0  0  0  0
 18 20  1  0  0  0  0
 18 19  1  0  0  0  0
 20 19  1  0  0  0  0
M  END
>  <minimizedAffinity>
-3.96469975

$$$$

 OpenBabel03252501203D

 20 21  0  0  0  0  0  0  0  0999 V2000
   37.6400   31.4280   39.2600 C   0  0  0  0  0  0  0  0  0  0  0  0
   36.7450   30.4610   39.7310 C   0  0  0  0  0  0  0  0  0  0  0  0
   36.1250   29.6790   38.7650 C   0  0  0  0  0  0  0  0  0  0  0  0
   36.4090   29.8860   37.4440 N   0  0  0  0  0  0  0  0  0  0  0  0
   37.2730   30.8250   37.0450 C   0  0  0  0  0  0  0  0  0  0  0  0
   37.8940   31.6010   37.9660 N   0  0  0  0  0  0  0  0  0  0  0  0
   38.1580   32.0710   39.9650 H   0  0  0  0  0  0  0  0  0  0  0  0
   37.3940   30.8670   35.9660 H   0  0  0  0  0  0  0  0  0  0  0  0
   35.2030   28.6560   39.2700 C   0  0  0  0  0  0  0  0  0  0  0  0
   34.6090   27.9990   38.1930 F   0  0  0  0  0  0  0  0  0  0  0  0
   34.1910   29.3140   39.9110 F   0  0  0  0  0  0  0  0  0  0  0  0
   35.8310   27.7040   40.0060 F   0  0  0  0  0  0  0  0  0  0  0  0
   36.4730   30.2920   41.1520 C   0  0  0  0  0  0  0  0  0  0  0  0
   35.5750   29.6750   41.2790 H   0  0  0  0  0  0  0  0  0  0  0  0
   36.3500   31.1860   41.7510 H   0  0  0  0  0  0  0  0  0  0  0  0
   37.6280   29.7500   41.8370 N   0  0  0  0  0  0  0  0  0  0  0  0
   38.2780   30.5740   41.9780 H   0  0  0  0  0  0  0  0  0  0  0  0
   37.4030   29.0630   43.0390 C   0  0  0  0  0  3  0  0  0  0  0  0
   38.4380   27.9620   43.2880 C   0  0  0  0  0  2  0  0  0  0  0  0
   36.9620   27.6780   43.1730 C   0  0  0  0  0  2  0  0  0  0  0  0
  1  2  1  0  0  0  0
  1  7  1  0  0  0  0
  2 13  1  0  0  0  0
  3  9  1  0  0  0  0
  3  2  2  0  0  0  0
  4  3  1  0  0  0  0
  5  4  2  0  0  0  0
  5  6  1  0  0  0  0
  6  1  2  0  0  0  0
  8  5  1  0  0  0  0
  9 11  1  0  0  0  0
  9 12  1  0  0  0  0
 10  9  1  0  0  0  0
 13 14  1  0  0  0  0
 13 15  1  0  0  0  0
 13 16  1  0  0  0  0
 16 17  1  0  0  0  0
 16 18  1  0  0  0  0
 18 20  1  0  0  0  0
 18 19  1  0  0  0  0
 20 19  1  0  0  0  0
M  END
>  <minimizedAffinity>
-3.87504053

$$$$
