
 OpenBabel03252504543D

 15 16  0  0  0  0  0  0  0  0999 V2000
   37.2340   32.2530   40.2770 C   0  0  0  0  0  0  0  0  0  0  0  0
   36.5440   31.0560   40.5390 C   0  0  0  0  0  0  0  0  0  0  0  0
   37.2230   30.0850   41.2640 C   0  0  0  0  0  0  0  0  0  0  0  0
   38.4930   30.3250   41.6790 N   0  0  0  0  0  0  0  0  0  0  0  0
   39.1220   31.4890   41.4070 C   0  0  0  0  0  0  0  0  0  0  0  0
   38.4790   32.4420   40.7050 N   0  0  0  0  0  0  0  0  0  0  0  0
   36.7590   33.0500   39.7170 H   0  0  0  0  0  0  0  0  0  0  0  0
   35.5500   30.9800   40.1630 H   0  0  0  0  0  0  0  0  0  0  0  0
   40.1290   31.7200   41.7180 H   0  0  0  0  0  0  0  0  0  0  0  0
   36.4980   28.8420   41.5320 C   0  0  0  0  0  0  0  0  0  0  0  0
   36.2700   28.3260   40.5810 H   0  0  0  0  0  0  0  0  0  0  0  0
   35.4990   29.1410   41.9440 H   0  0  0  0  0  0  0  0  0  0  0  0
   37.2600   27.9850   42.5000 C   0  0  0  0  0  3  0  0  0  0  0  0
   36.4220   27.4080   43.6180 C   0  0  0  0  0  2  0  0  0  0  0  0
   37.0620   26.5200   42.5640 C   0  0  0  0  0  2  0  0  0  0  0  0
  1  2  2  0  0  0  0
  1  6  1  0  0  0  0
  2  3  1  0  0  0  0
  3 10  1  0  0  0  0
  3  4  2  0  0  0  0
  5  4  1  0  0  0  0
  5  9  1  0  0  0  0
  6  5  2  0  0  0  0
  7  1  1  0  0  0  0
  8  2  1  0  0  0  0
 10 12  1  0  0  0  0
 10 13  1  0  0  0  0
 11 10  1  0  0  0  0
 13 15  1  0  0  0  0
 13 14  1  0  0  0  0
 15 14  1  0  0  0  0
M  END
>  <minimizedAffinity>
-3.46888995

$$$$

 OpenBabel03252504543D

 15 16  0  0  0  0  0  0  0  0999 V2000
   38.6930   28.8740   42.9250 C   0  0  0  0  0  0  0  0  0  0  0  0
   38.1570   29.9360   42.1740 C   0  0  0  0  0  0  0  0  0  0  0  0
   36.9150   29.7280   41.5880 C   0  0  0  0  0  0  0  0  0  0  0  0
   36.2850   28.5380   41.7600 N   0  0  0  0  0  0  0  0  0  0  0  0
   36.8330   27.5420   42.4890 C   0  0  0  0  0  0  0  0  0  0  0  0
   38.0370   27.7260   43.0650 N   0  0  0  0  0  0  0  0  0  0  0  0
   39.6580   28.9750   43.4070 H   0  0  0  0  0  0  0  0  0  0  0  0
   38.7430   30.8240   42.1090 H   0  0  0  0  0  0  0  0  0  0  0  0
   36.3660   26.5830   42.6500 H   0  0  0  0  0  0  0  0  0  0  0  0
   36.3650   30.8380   40.8080 C   0  0  0  0  0  0  0  0  0  0  0  0
   35.7210   31.4670   41.4510 H   0  0  0  0  0  0  0  0  0  0  0  0
   35.6650   30.3820   40.0590 H   0  0  0  0  0  0  0  0  0  0  0  0
   37.4630   31.6090   40.1390 C   0  0  0  0  0  3  0  0  0  0  0  0
   37.2390   31.8690   38.6670 C   0  0  0  0  0  2  0  0  0  0  0  0
   37.2690   33.0020   39.6800 C   0  0  0  0  0  2  0  0  0  0  0  0
  1  6  1  0  0  0  0
  1  7  1  0  0  0  0
  2  1  2  0  0  0  0
  3  4  2  0  0  0  0
  3  2  1  0  0  0  0
  4  5  1  0  0  0  0
  5  9  1  0  0  0  0
  5  6  2  0  0  0  0
  8  2  1  0  0  0  0
 10 11  1  0  0  0  0
 10  3  1  0  0  0  0
 12 10  1  0  0  0  0
 13 10  1  0  0  0  0
 14 15  1  0  0  0  0
 14 13  1  0  0  0  0
 15 13  1  0  0  0  0
M  END
>  <minimizedAffinity>
-3.40615416

$$$$

 OpenBabel03252504543D

 15 16  0  0  0  0  0  0  0  0999 V2000
   36.8970   30.7800   38.3080 C   0  0  0  0  0  0  0  0  0  0  0  0
   36.4530   29.6720   39.0520 C   0  0  0  0  0  0  0  0  0  0  0  0
   36.2980   29.8540   40.4200 C   0  0  0  0  0  0  0  0  0  0  0  0
   36.5740   31.0640   40.9690 N   0  0  0  0  0  0  0  0  0  0  0  0
   36.9990   32.1050   40.2200 C   0  0  0  0  0  0  0  0  0  0  0  0
   37.1550   31.9460   38.8920 N   0  0  0  0  0  0  0  0  0  0  0  0
   37.0370   30.7020   37.2360 H   0  0  0  0  0  0  0  0  0  0  0  0
   36.2670   28.7720   38.5120 H   0  0  0  0  0  0  0  0  0  0  0  0
   37.2290   33.0820   40.6170 H   0  0  0  0  0  0  0  0  0  0  0  0
   35.8360   28.6970   41.1870 C   0  0  0  0  0  0  0  0  0  0  0  0
   35.3510   27.9670   40.5120 H   0  0  0  0  0  0  0  0  0  0  0  0
   35.0100   29.0660   41.8510 H   0  0  0  0  0  0  0  0  0  0  0  0
   36.9620   28.1060   41.9830 C   0  0  0  0  0  3  0  0  0  0  0  0
   36.5310   27.3990   43.2470 C   0  0  0  0  0  2  0  0  0  0  0  0
   37.1580   26.6440   42.0870 C   0  0  0  0  0  2  0  0  0  0  0  0
  1  6  2  0  0  0  0
  1  2  1  0  0  0  0
  2  3  2  0  0  0  0
  3  4  1  0  0  0  0
  3 10  1  0  0  0  0
  5  9  1  0  0  0  0
  5  4  2  0  0  0  0
  6  5  1  0  0  0  0
  7  1  1  0  0  0  0
  8  2  1  0  0  0  0
 10 12  1  0  0  0  0
 10 13  1  0  0  0  0
 11 10  1  0  0  0  0
 13 15  1  0  0  0  0
 13 14  1  0  0  0  0
 15 14  1  0  0  0  0
M  END
>  <minimizedAffinity>
-3.40401793

$$$$

 OpenBabel03252504543D

 15 16  0  0  0  0  0  0  0  0999 V2000
   39.1020   30.0440   42.5380 C   0  0  0  0  0  0  0  0  0  0  0  0
   38.5940   28.8190   43.0090 C   0  0  0  0  0  0  0  0  0  0  0  0
   37.3550   28.4230   42.5210 C   0  0  0  0  0  0  0  0  0  0  0  0
   36.7020   29.2140   41.6320 N   0  0  0  0  0  0  0  0  0  0  0  0
   37.2230   30.3840   41.2040 C   0  0  0  0  0  0  0  0  0  0  0  0
   38.4230   30.7840   41.6660 N   0  0  0  0  0  0  0  0  0  0  0  0
   40.0630   30.4080   42.8800 H   0  0  0  0  0  0  0  0  0  0  0  0
   39.1970   28.2830   43.7060 H   0  0  0  0  0  0  0  0  0  0  0  0
   36.7370   31.0410   40.4990 H   0  0  0  0  0  0  0  0  0  0  0  0
   36.8350   27.1480   43.0160 C   0  0  0  0  0  0  0  0  0  0  0  0
   35.7430   27.0950   42.8440 H   0  0  0  0  0  0  0  0  0  0  0  0
   36.9490   27.1710   44.1320 H   0  0  0  0  0  0  0  0  0  0  0  0
   37.5840   25.9990   42.4080 C   0  0  0  0  0  3  0  0  0  0  0  0
   36.7420   24.7700   42.1490 C   0  0  0  0  0  2  0  0  0  0  0  0
   37.3530   25.5720   41.0110 C   0  0  0  0  0  2  0  0  0  0  0  0
  1  7  1  0  0  0  0
  1  2  1  0  0  0  0
  2  8  1  0  0  0  0
  3  2  2  0  0  0  0
  3 10  1  0  0  0  0
  4  3  1  0  0  0  0
  5  4  2  0  0  0  0
  5  6  1  0  0  0  0
  6  1  2  0  0  0  0
  9  5  1  0  0  0  0
 10 12  1  0  0  0  0
 11 10  1  0  0  0  0
 13 10  1  0  0  0  0
 14 13  1  0  0  0  0
 15 14  1  0  0  0  0
 15 13  1  0  0  0  0
M  END
>  <minimizedAffinity>
-3.37842989

$$$$

 OpenBabel03252504543D

 15 16  0  0  0  0  0  0  0  0999 V2000
   37.8570   24.3240   42.1800 C   0  0  0  0  0  0  0  0  0  0  0  0
   36.9910   25.4320   42.1580 C   0  0  0  0  0  0  0  0  0  0  0  0
   37.4910   26.6300   42.6520 C   0  0  0  0  0  0  0  0  0  0  0  0
   38.7640   26.6810   43.1220 N   0  0  0  0  0  0  0  0  0  0  0  0
   39.5650   25.5940   43.1260 C   0  0  0  0  0  0  0  0  0  0  0  0
   39.0960   24.4230   42.6510 N   0  0  0  0  0  0  0  0  0  0  0  0
   37.5260   23.3610   41.8090 H   0  0  0  0  0  0  0  0  0  0  0  0
   36.0140   25.2730   41.7650 H   0  0  0  0  0  0  0  0  0  0  0  0
   40.5810   25.5910   43.4900 H   0  0  0  0  0  0  0  0  0  0  0  0
   36.5840   27.7780   42.6260 C   0  0  0  0  0  0  0  0  0  0  0  0
   36.7320   28.3950   43.5320 H   0  0  0  0  0  0  0  0  0  0  0  0
   35.5460   27.3640   42.7260 H   0  0  0  0  0  0  0  0  0  0  0  0
   36.7490   28.5530   41.3530 C   0  0  0  0  0  3  0  0  0  0  0  0
   35.4500   28.9350   40.6800 C   0  0  0  0  0  2  0  0  0  0  0  0
   36.3840   29.9840   41.2590 C   0  0  0  0  0  2  0  0  0  0  0  0
  1  6  1  0  0  0  0
  2  1  2  0  0  0  0
  2  3  1  0  0  0  0
  3  4  2  0  0  0  0
  4  5  1  0  0  0  0
  5  9  1  0  0  0  0
  6  5  2  0  0  0  0
  7  1  1  0  0  0  0
  8  2  1  0  0  0  0
 10  3  1  0  0  0  0
 10 12  1  0  0  0  0
 10 11  1  0  0  0  0
 13 10  1  0  0  0  0
 14 15  1  0  0  0  0
 14 13  1  0  0  0  0
 15 13  1  0  0  0  0
M  END
>  <minimizedAffinity>
-3.35701752

$$$$

 OpenBabel03252504543D

 15 16  0  0  0  0  0  0  0  0999 V2000
   36.9030   27.2960   41.2960 C   0  0  0  0  0  0  0  0  0  0  0  0
   36.4570   28.5330   40.7960 C   0  0  0  0  0  0  0  0  0  0  0  0
   36.8140   29.6670   41.5140 C   0  0  0  0  0  0  0  0  0  0  0  0
   37.5600   29.5380   42.6410 N   0  0  0  0  0  0  0  0  0  0  0  0
   37.9680   28.3310   43.0900 C   0  0  0  0  0  0  0  0  0  0  0  0
   37.6310   27.2210   42.4060 N   0  0  0  0  0  0  0  0  0  0  0  0
   36.6570   26.3750   40.7810 H   0  0  0  0  0  0  0  0  0  0  0  0
   35.8780   28.5110   39.9020 H   0  0  0  0  0  0  0  0  0  0  0  0
   38.5610   28.1850   43.9800 H   0  0  0  0  0  0  0  0  0  0  0  0
   36.3470   30.9500   40.9870 C   0  0  0  0  0  0  0  0  0  0  0  0
   35.9910   31.5900   41.8150 H   0  0  0  0  0  0  0  0  0  0  0  0
   35.4300   30.7270   40.3800 H   0  0  0  0  0  0  0  0  0  0  0  0
   37.4130   31.6000   40.1570 C   0  0  0  0  0  3  0  0  0  0  0  0
   37.0950   31.6810   38.6810 C   0  0  0  0  0  2  0  0  0  0  0  0
   37.2170   32.9300   39.5400 C   0  0  0  0  0  2  0  0  0  0  0  0
  1  6  1  0  0  0  0
  2  1  2  0  0  0  0
  2  3  1  0  0  0  0
  3  4  2  0  0  0  0
  4  5  1  0  0  0  0
  5  9  1  0  0  0  0
  6  5  2  0  0  0  0
  7  1  1  0  0  0  0
  8  2  1  0  0  0  0
 10  3  1  0  0  0  0
 10 11  1  0  0  0  0
 12 10  1  0  0  0  0
 13 10  1  0  0  0  0
 14 15  1  0  0  0  0
 14 13  1  0  0  0  0
 15 13  1  0  0  0  0
M  END
>  <minimizedAffinity>
-3.35577059

$$$$

 OpenBabel03252504543D

 15 16  0  0  0  0  0  0  0  0999 V2000
   36.2080   28.3140   41.5330 C   0  0  0  0  0  0  0  0  0  0  0  0
   36.6920   29.4740   40.8990 C   0  0  0  0  0  0  0  0  0  0  0  0
   37.7180   30.1570   41.5380 C   0  0  0  0  0  0  0  0  0  0  0  0
   38.2010   29.6900   42.7170 N   0  0  0  0  0  0  0  0  0  0  0  0
   37.7100   28.5710   43.2940 C   0  0  0  0  0  0  0  0  0  0  0  0
   36.7140   27.8960   42.6890 N   0  0  0  0  0  0  0  0  0  0  0  0
   35.4080   27.7370   41.0850 H   0  0  0  0  0  0  0  0  0  0  0  0
   36.2350   29.7450   39.9750 H   0  0  0  0  0  0  0  0  0  0  0  0
   38.0660   28.1660   44.2290 H   0  0  0  0  0  0  0  0  0  0  0  0
   38.2150   31.3620   40.8730 C   0  0  0  0  0  0  0  0  0  0  0  0
   39.1270   31.1240   40.2950 H   0  0  0  0  0  0  0  0  0  0  0  0
   38.5630   32.0530   41.6870 H   0  0  0  0  0  0  0  0  0  0  0  0
   37.1360   31.9900   40.0410 C   0  0  0  0  0  3  0  0  0  0  0  0
   37.4080   33.4220   39.6390 C   0  0  0  0  0  2  0  0  0  0  0  0
   37.3410   32.3050   38.6100 C   0  0  0  0  0  2  0  0  0  0  0  0
  1  6  1  0  0  0  0
  2  1  2  0  0  0  0
  2  3  1  0  0  0  0
  3  4  2  0  0  0  0
  4  5  1  0  0  0  0
  5  9  1  0  0  0  0
  6  5  2  0  0  0  0
  7  1  1  0  0  0  0
  8  2  1  0  0  0  0
 10  3  1  0  0  0  0
 10 12  1  0  0  0  0
 11 10  1  0  0  0  0
 13 10  1  0  0  0  0
 14 13  1  0  0  0  0
 15 14  1  0  0  0  0
 15 13  1  0  0  0  0
M  END
>  <minimizedAffinity>
-3.3464644

$$$$

 OpenBabel03252504543D

 15 16  0  0  0  0  0  0  0  0999 V2000
   35.8260   29.9970   40.3160 C   0  0  0  0  0  0  0  0  0  0  0  0
   35.7170   28.8150   41.0710 C   0  0  0  0  0  0  0  0  0  0  0  0
   36.7460   28.5420   41.9630 C   0  0  0  0  0  0  0  0  0  0  0  0
   37.7870   29.4050   42.0680 N   0  0  0  0  0  0  0  0  0  0  0  0
   37.8560   30.5310   41.3250 C   0  0  0  0  0  0  0  0  0  0  0  0
   36.8670   30.8120   40.4540 N   0  0  0  0  0  0  0  0  0  0  0  0
   35.0560   30.2660   39.6020 H   0  0  0  0  0  0  0  0  0  0  0  0
   34.8530   28.2140   40.9040 H   0  0  0  0  0  0  0  0  0  0  0  0
   38.6650   31.2430   41.3780 H   0  0  0  0  0  0  0  0  0  0  0  0
   36.6240   27.3100   42.7450 C   0  0  0  0  0  0  0  0  0  0  0  0
   35.5620   27.0090   42.8110 H   0  0  0  0  0  0  0  0  0  0  0  0
   36.9150   27.5730   43.7960 H   0  0  0  0  0  0  0  0  0  0  0  0
   37.5070   26.2370   42.1800 C   0  0  0  0  0  3  0  0  0  0  0  0
   36.8870   24.8580   42.1690 C   0  0  0  0  0  2  0  0  0  0  0  0
   37.2150   25.5940   40.8800 C   0  0  0  0  0  2  0  0  0  0  0  0
  1  6  2  0  0  0  0
  1  2  1  0  0  0  0
  2  3  2  0  0  0  0
  3  4  1  0  0  0  0
  3 10  1  0  0  0  0
  5  9  1  0  0  0  0
  5  4  2  0  0  0  0
  6  5  1  0  0  0  0
  7  1  1  0  0  0  0
  8  2  1  0  0  0  0
 10 11  1  0  0  0  0
 10 12  1  0  0  0  0
 13 10  1  0  0  0  0
 14 13  1  0  0  0  0
 15 14  1  0  0  0  0
 15 13  1  0  0  0  0
M  END
>  <minimizedAffinity>
-3.33879304

$$$$

 OpenBabel03252504543D

 15 16  0  0  0  0  0  0  0  0999 V2000
   37.3280   28.5020   43.6800 C   0  0  0  0  0  0  0  0  0  0  0  0
   36.8680   27.3360   43.0400 C   0  0  0  0  0  0  0  0  0  0  0  0
   37.4340   27.0290   41.8100 C   0  0  0  0  0  0  0  0  0  0  0  0
   38.3850   27.8460   41.2880 N   0  0  0  0  0  0  0  0  0  0  0  0
   38.8000   28.9570   41.9340 C   0  0  0  0  0  0  0  0  0  0  0  0
   38.2620   29.2710   43.1280 N   0  0  0  0  0  0  0  0  0  0  0  0
   36.9250   28.7960   44.6420 H   0  0  0  0  0  0  0  0  0  0  0  0
   36.1180   26.7730   43.5460 H   0  0  0  0  0  0  0  0  0  0  0  0
   39.5520   29.6320   41.5540 H   0  0  0  0  0  0  0  0  0  0  0  0
   36.9500   25.8150   41.1510 C   0  0  0  0  0  0  0  0  0  0  0  0
   37.2800   25.8030   40.0950 H   0  0  0  0  0  0  0  0  0  0  0  0
   35.8330   25.9060   41.1020 H   0  0  0  0  0  0  0  0  0  0  0  0
   37.3720   24.5960   41.9150 C   0  0  0  0  0  3  0  0  0  0  0  0
   37.6710   23.3900   41.0540 C   0  0  0  0  0  2  0  0  0  0  0  0
   38.7580   24.0830   41.8590 C   0  0  0  0  0  2  0  0  0  0  0  0
  1  7  1  0  0  0  0
  2  8  1  0  0  0  0
  2  1  2  0  0  0  0
  3  2  1  0  0  0  0
  4  3  2  0  0  0  0
  4  5  1  0  0  0  0
  5  6  2  0  0  0  0
  6  1  1  0  0  0  0
  9  5  1  0  0  0  0
 10  3  1  0  0  0  0
 10 13  1  0  0  0  0
 11 10  1  0  0  0  0
 12 10  1  0  0  0  0
 14 15  1  0  0  0  0
 14 13  1  0  0  0  0
 15 13  1  0  0  0  0
M  END
>  <minimizedAffinity>
-3.24012661

$$$$
