
 OpenBabel03242515053D

 33 35  0  0  0  0  0  0  0  0999 V2000
   41.5480   35.2290   41.6740 C   0  0  0  0  0  0  0  0  0  0  0  0
   40.8030   34.4760   42.0440 H   0  0  0  0  0  0  0  0  0  0  0  0
   41.8310   35.8360   42.5690 H   0  0  0  0  0  0  0  0  0  0  0  0
   40.8350   36.1050   40.6990 C   0  0  0  0  0  0  0  0  0  0  0  0
   41.5930   36.6880   40.1340 H   0  0  0  0  0  0  0  0  0  0  0  0
   40.1590   36.8540   41.1780 H   0  0  0  0  0  0  0  0  0  0  0  0
   41.7950   36.2560   37.8090 Cl  0  0  0  0  0  0  0  0  0  0  0  0
   40.4420   35.2950   38.3520 C   0  0  0  0  0  0  0  0  0  0  0  0
   40.0900   35.3020   39.7020 C   0  0  0  0  0  0  0  0  0  0  0  0
   39.0180   34.5220   40.0440 C   0  0  0  0  0  0  0  0  0  0  0  0
   38.2570   33.7350   39.1830 C   0  0  0  0  0  0  0  0  0  0  0  0
   38.6310   33.7500   37.8590 C   0  0  0  0  0  0  0  0  0  0  0  0
   37.7300   32.7860   36.6860 Cl  0  0  0  0  0  0  0  0  0  0  0  0
   39.7090   34.5240   37.4600 C   0  0  0  0  0  0  0  0  0  0  0  0
   38.7080   34.4970   41.0850 H   0  0  0  0  0  0  0  0  0  0  0  0
   37.4240   33.1530   39.5600 H   0  0  0  0  0  0  0  0  0  0  0  0
   40.0220   34.5520   36.4210 H   0  0  0  0  0  0  0  0  0  0  0  0
   42.9560   34.3690   40.9850 S   0  0  0  0  0  0  0  0  0  0  0  0
   44.4140   34.4630   42.0220 C   0  0  0  0  0  0  0  0  0  0  0  0
   45.6340   34.6710   41.3660 C   0  0  0  0  0  0  0  0  0  0  0  0
   46.7910   34.7490   42.1400 C   0  0  0  0  0  0  0  0  0  0  0  0
   46.6680   34.6200   43.4790 N   0  0  0  0  0  0  0  0  0  0  0  0
   45.4870   34.4190   44.0950 C   0  0  0  0  0  0  0  0  0  0  0  0
   44.3760   34.3440   43.3560 N   0  0  0  0  0  0  0  0  0  0  0  0
   45.6930   34.7700   40.2910 H   0  0  0  0  0  0  0  0  0  0  0  0
   45.4910   34.2970   45.5340 C   0  0  0  0  0  0  0  0  0  0  0  0
   44.5690   34.8750   46.1710 O   0  0  0  0  0  0  0  0  0  0  0  0
   46.5560   33.5180   46.1270 N   0  0  0  0  0  0  0  0  0  0  0  0
   46.2430   32.9470   46.9400 H   0  0  0  0  0  0  0  0  0  0  0  0
   47.5140   33.5980   45.6960 H   0  0  0  0  0  0  0  0  0  0  0  0
   48.0970   34.9690   41.4730 C   0  0  0  0  0  3  0  0  0  0  0  0
   48.7600   33.6700   41.0440 C   0  0  0  0  0  2  0  0  0  0  0  0
   48.3050   34.6890   40.0430 C   0  0  0  0  0  2  0  0  0  0  0  0
  1  2  1  0  0  0  0
  1  3  1  0  0  0  0
  4  6  1  0  0  0  0
  4  1  1  0  0  0  0
  5  4  1  0  0  0  0
  7  8  1  0  0  0  0
  8  9  1  0  0  0  0
  9 10  2  0  0  0  0
  9  4  1  0  0  0  0
 10 15  1  0  0  0  0
 11 16  1  0  0  0  0
 11 10  1  0  0  0  0
 12 11  2  0  0  0  0
 13 12  1  0  0  0  0
 14 12  1  0  0  0  0
 14  8  2  0  0  0  0
 17 14  1  0  0  0  0
 18  1  1  0  0  0  0
 18 19  1  0  0  0  0
 19 24  1  0  0  0  0
 20 19  2  0  0  0  0
 20 21  1  0  0  0  0
 21 22  2  0  0  0  0
 22 23  1  0  0  0  0
 23 26  1  0  0  0  0
 24 23  2  0  0  0  0
 25 20  1  0  0  0  0
 26 28  1  0  0  0  0
 26 27  2  0  0  0  0
 28 29  1  0  0  0  0
 30 28  1  0  0  0  0
 31 21  1  0  0  0  0
 32 31  1  0  0  0  0
 33 32  1  0  0  0  0
 33 31  1  0  0  0  0
M  END
>  <minimizedAffinity>
-6.74338961

>  <minimizedRMSD>
0.480716676

$$$$
