
 OpenBabel03252509213D

 19 21  0  0  0  0  0  0  0  0999 V2000
   45.2560   34.4520   45.1620 C   0  0  0  0  0  0  0  0  0  0  0  0
   46.0060   34.5450   43.9630 C   0  0  0  0  0  0  0  0  0  0  0  0
   47.0320   33.6070   43.8450 C   0  0  0  0  0  0  0  0  0  0  0  0
   47.2710   32.6740   44.8370 N   0  0  0  0  0  0  0  0  0  0  0  0
   46.5190   32.6410   45.9510 C   0  0  0  0  0  0  0  0  0  0  0  0
   45.5220   33.5270   46.1040 N   0  0  0  0  0  0  0  0  0  0  0  0
   44.4600   35.1510   45.2970 H   0  0  0  0  0  0  0  0  0  0  0  0
   46.8490   31.8510   46.6090 H   0  0  0  0  0  0  0  0  0  0  0  0
   47.8080   33.6040   42.5480 C   0  0  0  0  0  0  0  0  0  0  0  0
   49.1870   34.2520   42.7300 C   0  0  0  0  0  0  0  0  0  0  0  0
   48.9500   32.7320   42.4540 C   0  0  0  0  0  0  0  0  0  0  0  0
   47.2820   34.1550   41.7540 H   0  0  0  0  0  0  0  0  0  0  0  0
   49.6170   34.8320   41.9070 H   0  0  0  0  0  0  0  0  0  0  0  0
   49.4920   34.5120   43.7430 H   0  0  0  0  0  0  0  0  0  0  0  0
   49.2950   32.4230   41.4280 H   0  0  0  0  0  0  0  0  0  0  0  0
   49.3040   32.0790   43.2610 H   0  0  0  0  0  0  0  0  0  0  0  0
   45.7530   35.5350   42.9070 C   0  0  0  0  0  3  0  0  0  0  0  0
   44.3210   35.5470   42.4120 C   0  0  0  0  0  2  0  0  0  0  0  0
   44.8990   36.7220   43.1570 C   0  0  0  0  0  2  0  0  0  0  0  0
  1  7  1  0  0  0  0
  1  6  1  0  0  0  0
  2  1  2  0  0  0  0
  3  2  1  0  0  0  0
  3  4  2  0  0  0  0
  4  5  1  0  0  0  0
  5  6  2  0  0  0  0
  5  8  1  0  0  0  0
  9 10  1  0  0  0  0
  9  3  1  0  0  0  0
 10 14  1  0  0  0  0
 11  9  1  0  0  0  0
 11 10  1  0  0  0  0
 11 16  1  0  0  0  0
 12  9  1  0  0  0  0
 13 10  1  0  0  0  0
 15 11  1  0  0  0  0
 17 19  1  0  0  0  0
 17  2  1  0  0  0  0
 18 17  1  0  0  0  0
 18 19  1  0  0  0  0
M  END
>  <minimizedAffinity>
-3.74522686

>  <minimizedRMSD>
1.75119936

$$$$
