
 OpenBabel03242512383D

 28 31  0  0  0  0  0  0  0  0999 V2000
   46.1860   33.7230   40.4170 C   0  0  0  0  0  0  0  0  0  0  0  0
   47.3330   34.4710   40.7160 C   0  0  0  0  0  0  0  0  0  0  0  0
   48.2830   34.6180   39.7380 C   0  0  0  0  0  0  0  0  0  0  0  0
   48.1820   34.0720   38.4670 C   0  0  0  0  0  0  0  0  0  0  0  0
   48.9720   34.0920   37.3790 N   0  0  0  0  0  0  0  0  0  0  0  0
   48.3960   33.3980   36.3950 C   0  0  0  0  0  0  0  0  0  0  0  0
   47.1920   32.9180   36.8750 C   0  0  0  0  0  0  0  0  0  0  0  0
   47.0350   33.3320   38.1880 C   0  0  0  0  0  0  0  0  0  0  0  0
   46.0710   33.1690   39.1430 C   0  0  0  0  0  0  0  0  0  0  0  0
   45.4520   33.6130   41.1840 H   0  0  0  0  0  0  0  0  0  0  0  0
   49.2190   35.1850   39.8730 H   0  0  0  0  0  0  0  0  0  0  0  0
   49.8930   34.5640   37.2890 H   0  0  0  0  0  0  0  0  0  0  0  0
   48.7160   33.1860   35.3790 H   0  0  0  0  0  0  0  0  0  0  0  0
   46.4140   32.3060   36.3970 H   0  0  0  0  0  0  0  0  0  0  0  0
   45.2020   32.5950   38.8980 H   0  0  0  0  0  0  0  0  0  0  0  0
   47.5600   35.1080   42.0170 C   0  0  0  0  0  0  0  0  0  0  0  0
   48.6250   35.7920   42.0570 O   0  0  0  0  0  0  0  0  0  0  0  0
   46.6260   34.9320   43.0910 C   0  0  0  0  0  0  0  0  0  0  0  0
   45.6150   35.8970   43.1860 C   0  0  0  0  0  0  0  0  0  0  0  0
   44.6940   35.7290   44.2360 C   0  0  0  0  0  0  0  0  0  0  0  0
   44.8440   34.6630   45.0750 N   0  0  0  0  0  0  0  0  0  0  0  0
   45.8440   33.7690   44.9250 C   0  0  0  0  0  0  0  0  0  0  0  0
   46.7350   33.9130   43.9240 N   0  0  0  0  0  0  0  0  0  0  0  0
   45.4850   36.7440   42.5300 H   0  0  0  0  0  0  0  0  0  0  0  0
   43.8910   36.4340   44.3680 H   0  0  0  0  0  0  0  0  0  0  0  0
   46.0010   32.6030   45.8470 C   0  0  0  0  0  0  0  0  0  0  0  0
   45.5170   32.7030   47.2460 C   0  0  0  0  0  0  0  0  0  0  0  0
   46.9970   32.7260   46.9770 C   0  0  0  0  0  0  0  0  0  0  0  0
  1  2  1  0  0  0  0
  1 10  1  0  0  0  0
  2 16  1  0  0  0  0
  3 11  1  0  0  0  0
  3  2  2  0  0  0  0
  4  3  1  0  0  0  0
  5  4  1  0  0  0  0
  6  7  2  0  0  0  0
  6  5  1  0  0  0  0
  7  8  1  0  0  0  0
  8  4  2  0  0  0  0
  8  9  1  0  0  0  0
  9  1  2  0  0  0  0
 12  5  1  0  0  0  0
 13  6  1  0  0  0  0
 14  7  1  0  0  0  0
 15  9  1  0  0  0  0
 16 17  2  0  0  0  0
 16 18  1  0  0  0  0
 18 19  2  0  0  0  0
 18 23  1  0  0  0  0
 19 20  1  0  0  0  0
 20 25  1  0  0  0  0
 20 21  2  0  0  0  0
 22 21  1  0  0  0  0
 22 26  1  0  0  0  0
 23 22  2  0  0  0  0
 24 19  1  0  0  0  0
 26 28  1  0  0  0  0
 26 27  1  0  0  0  0
 28 27  1  0  0  0  0
M  END
>  <minimizedAffinity>
-5.87554312

>  <minimizedRMSD>
0.408210307

$$$$
