
 OpenBabel03252509163D

 19 21  0  0  0  0  0  0  0  0999 V2000
   45.8200   33.1940   46.4520 C   0  0  0  0  0  0  0  0  0  0  0  0
   45.1550   33.0910   47.6980 C   0  0  0  0  0  0  0  0  0  0  0  0
   45.6580   32.2890   48.6570 C   0  0  0  0  0  0  0  0  0  0  0  0
   46.8430   31.5730   48.3830 C   0  0  0  0  0  0  0  0  0  0  0  0
   47.2380   32.0810   46.6720 S   0  0  0  0  0  0  0  0  0  0  0  0
   44.2410   33.6560   47.8850 H   0  0  0  0  0  0  0  0  0  0  0  0
   45.2770   32.1130   49.6220 H   0  0  0  0  0  0  0  0  0  0  0  0
   44.4010   35.8710   44.2980 C   0  0  0  0  0  0  0  0  0  0  0  0
   44.6300   35.2980   43.0200 C   0  0  0  0  0  0  0  0  0  0  0  0
   45.2560   34.0370   42.9680 C   0  0  0  0  0  0  0  0  0  0  0  0
   45.6010   33.4410   44.1520 N   0  0  0  0  0  0  0  0  0  0  0  0
   45.3570   34.0350   45.3440 C   0  0  0  0  0  0  0  0  0  0  0  0
   44.7570   35.2500   45.4230 N   0  0  0  0  0  0  0  0  0  0  0  0
   43.9220   36.8390   44.3520 H   0  0  0  0  0  0  0  0  0  0  0  0
   44.3490   35.7880   42.0990 H   0  0  0  0  0  0  0  0  0  0  0  0
   45.4680   33.5290   42.0390 H   0  0  0  0  0  0  0  0  0  0  0  0
   47.6870   30.6210   49.1430 C   0  0  0  0  0  3  0  0  0  0  0  0
   48.8380   29.9490   48.4080 C   0  0  0  0  0  2  0  0  0  0  0  0
   49.0520   31.0230   49.4670 C   0  0  0  0  0  2  0  0  0  0  0  0
  1  5  1  0  0  0  0
  1  2  2  0  0  0  0
  2  6  1  0  0  0  0
  2  3  1  0  0  0  0
  3  7  1  0  0  0  0
  4  3  2  0  0  0  0
  4 17  1  0  0  0  0
  5  4  1  0  0  0  0
  8 14  1  0  0  0  0
  8 13  1  0  0  0  0
  9  8  2  0  0  0  0
 10  9  1  0  0  0  0
 10 11  2  0  0  0  0
 11 12  1  0  0  0  0
 12 13  2  0  0  0  0
 12  1  1  0  0  0  0
 15  9  1  0  0  0  0
 16 10  1  0  0  0  0
 17 19  1  0  0  0  0
 18 17  1  0  0  0  0
 18 19  1  0  0  0  0
M  END
>  <minimizedAffinity>
-4.4134469

>  <minimizedRMSD>
0.993740737

$$$$
