
 OpenBabel03252509213D

 19 21  0  0  0  0  0  0  0  0999 V2000
   39.3600   24.3900   42.2530 C   0  0  0  0  0  0  0  0  0  0  0  0
   38.1720   25.1610   42.2340 C   0  0  0  0  0  0  0  0  0  0  0  0
   38.2360   26.3470   42.9670 C   0  0  0  0  0  0  0  0  0  0  0  0
   39.3850   26.7120   43.6460 N   0  0  0  0  0  0  0  0  0  0  0  0
   40.4800   25.9320   43.6200 C   0  0  0  0  0  0  0  0  0  0  0  0
   40.4590   24.7820   42.9270 N   0  0  0  0  0  0  0  0  0  0  0  0
   39.3570   23.4730   41.7060 H   0  0  0  0  0  0  0  0  0  0  0  0
   41.2750   26.3740   44.2020 H   0  0  0  0  0  0  0  0  0  0  0  0
   37.0260   27.2510   42.9110 C   0  0  0  0  0  0  0  0  0  0  0  0
   37.2770   28.5550   43.6800 C   0  0  0  0  0  0  0  0  0  0  0  0
   37.1270   28.4550   42.1270 C   0  0  0  0  0  0  0  0  0  0  0  0
   36.1360   26.7720   43.3450 H   0  0  0  0  0  0  0  0  0  0  0  0
   36.4460   29.0250   44.2170 H   0  0  0  0  0  0  0  0  0  0  0  0
   38.2840   28.7350   44.0520 H   0  0  0  0  0  0  0  0  0  0  0  0
   36.1730   28.9240   41.7570 H   0  0  0  0  0  0  0  0  0  0  0  0
   38.0230   28.7690   41.5780 H   0  0  0  0  0  0  0  0  0  0  0  0
   36.9510   24.7760   41.5140 C   0  0  0  0  0  3  0  0  0  0  0  0
   37.0060   25.0530   40.0260 C   0  0  0  0  0  2  0  0  0  0  0  0
   36.9510   23.6440   40.5540 C   0  0  0  0  0  2  0  0  0  0  0  0
  1  6  1  0  0  0  0
  2  1  2  0  0  0  0
  2  3  1  0  0  0  0
  3  4  2  0  0  0  0
  5  4  1  0  0  0  0
  5  8  1  0  0  0  0
  6  5  2  0  0  0  0
  7  1  1  0  0  0  0
  9  3  1  0  0  0  0
  9 12  1  0  0  0  0
  9 10  1  0  0  0  0
 10 14  1  0  0  0  0
 10 13  1  0  0  0  0
 11  9  1  0  0  0  0
 11 10  1  0  0  0  0
 15 11  1  0  0  0  0
 16 11  1  0  0  0  0
 17  2  1  0  0  0  0
 18 19  1  0  0  0  0
 18 17  1  0  0  0  0
 19 17  1  0  0  0  0
M  END
>  <minimizedAffinity>
-3.87099123

$$$$

 OpenBabel03252509213D

 19 21  0  0  0  0  0  0  0  0999 V2000
   36.5940   28.0140   40.7650 C   0  0  0  0  0  0  0  0  0  0  0  0
   36.9230   26.9390   41.6270 C   0  0  0  0  0  0  0  0  0  0  0  0
   36.9730   25.6900   41.0070 C   0  0  0  0  0  0  0  0  0  0  0  0
   36.7190   25.5470   39.6550 N   0  0  0  0  0  0  0  0  0  0  0  0
   36.4140   26.6120   38.8930 C   0  0  0  0  0  0  0  0  0  0  0  0
   36.3540   27.8320   39.4520 N   0  0  0  0  0  0  0  0  0  0  0  0
   36.5430   28.9890   41.1960 H   0  0  0  0  0  0  0  0  0  0  0  0
   36.2490   26.3120   37.8690 H   0  0  0  0  0  0  0  0  0  0  0  0
   37.4040   24.5210   41.8620 C   0  0  0  0  0  0  0  0  0  0  0  0
   37.6960   23.2860   40.9990 C   0  0  0  0  0  0  0  0  0  0  0  0
   38.7790   24.1010   41.7780 C   0  0  0  0  0  0  0  0  0  0  0  0
   36.6310   24.2420   42.5940 H   0  0  0  0  0  0  0  0  0  0  0  0
   37.4620   22.2920   41.3940 H   0  0  0  0  0  0  0  0  0  0  0  0
   37.6870   23.4130   39.9180 H   0  0  0  0  0  0  0  0  0  0  0  0
   39.2080   23.5250   42.6440 H   0  0  0  0  0  0  0  0  0  0  0  0
   39.5330   24.5620   41.1280 H   0  0  0  0  0  0  0  0  0  0  0  0
   37.1940   27.0880   43.0640 C   0  0  0  0  0  3  0  0  0  0  0  0
   38.5790   27.6180   43.3730 C   0  0  0  0  0  2  0  0  0  0  0  0
   37.3490   28.4290   43.6800 C   0  0  0  0  0  2  0  0  0  0  0  0
  1  7  1  0  0  0  0
  1  2  1  0  0  0  0
  2 17  1  0  0  0  0
  3  2  2  0  0  0  0
  3  9  1  0  0  0  0
  4  3  1  0  0  0  0
  5  6  1  0  0  0  0
  5  4  2  0  0  0  0
  6  1  2  0  0  0  0
  8  5  1  0  0  0  0
  9 12  1  0  0  0  0
 10 13  1  0  0  0  0
 10 11  1  0  0  0  0
 10  9  1  0  0  0  0
 11  9  1  0  0  0  0
 11 15  1  0  0  0  0
 14 10  1  0  0  0  0
 16 11  1  0  0  0  0
 17 18  1  0  0  0  0
 17 19  1  0  0  0  0
 18 19  1  0  0  0  0
M  END
>  <minimizedAffinity>
-3.79433393

$$$$

 OpenBabel03252509213D

 19 21  0  0  0  0  0  0  0  0999 V2000
   38.1490   31.1620   40.8620 C   0  0  0  0  0  0  0  0  0  0  0  0
   38.4030   30.2990   41.9560 C   0  0  0  0  0  0  0  0  0  0  0  0
   37.3770   29.3960   42.2350 C   0  0  0  0  0  0  0  0  0  0  0  0
   36.2170   29.3700   41.4830 N   0  0  0  0  0  0  0  0  0  0  0  0
   36.0410   30.2180   40.4540 C   0  0  0  0  0  0  0  0  0  0  0  0
   37.0040   31.1040   40.1530 N   0  0  0  0  0  0  0  0  0  0  0  0
   38.9070   31.8720   40.6120 H   0  0  0  0  0  0  0  0  0  0  0  0
   35.0830   30.0530   39.9850 H   0  0  0  0  0  0  0  0  0  0  0  0
   37.6300   28.3940   43.3380 C   0  0  0  0  0  0  0  0  0  0  0  0
   36.4740   27.3910   43.4470 C   0  0  0  0  0  0  0  0  0  0  0  0
   37.9140   27.0350   42.9540 C   0  0  0  0  0  0  0  0  0  0  0  0
   37.7440   28.8820   44.3170 H   0  0  0  0  0  0  0  0  0  0  0  0
   36.1920   27.0080   44.4340 H   0  0  0  0  0  0  0  0  0  0  0  0
   35.7010   27.4270   42.6810 H   0  0  0  0  0  0  0  0  0  0  0  0
   38.4700   26.3860   43.6860 H   0  0  0  0  0  0  0  0  0  0  0  0
   37.9470   26.6730   41.9190 H   0  0  0  0  0  0  0  0  0  0  0  0
   39.6350   30.3240   42.7570 C   0  0  0  0  0  3  0  0  0  0  0  0
   40.8200   29.6720   42.0770 C   0  0  0  0  0  2  0  0  0  0  0  0
   40.7970   31.1520   42.3500 C   0  0  0  0  0  2  0  0  0  0  0  0
  1  2  1  0  0  0  0
  2  3  2  0  0  0  0
  2 17  1  0  0  0  0
  3  9  1  0  0  0  0
  4  3  1  0  0  0  0
  5  4  2  0  0  0  0
  6  5  1  0  0  0  0
  6  1  2  0  0  0  0
  7  1  1  0  0  0  0
  8  5  1  0  0  0  0
  9 10  1  0  0  0  0
  9 12  1  0  0  0  0
 10 13  1  0  0  0  0
 11  9  1  0  0  0  0
 11 10  1  0  0  0  0
 11 15  1  0  0  0  0
 14 10  1  0  0  0  0
 16 11  1  0  0  0  0
 18 19  1  0  0  0  0
 18 17  1  0  0  0  0
 19 17  1  0  0  0  0
M  END
>  <minimizedAffinity>
-3.73713636

$$$$

 OpenBabel03252509213D

 19 21  0  0  0  0  0  0  0  0999 V2000
   40.2680   27.3220   43.4500 C   0  0  0  0  0  0  0  0  0  0  0  0
   39.1150   26.9880   42.6970 C   0  0  0  0  0  0  0  0  0  0  0  0
   39.1290   25.7050   42.1490 C   0  0  0  0  0  0  0  0  0  0  0  0
   40.1990   24.8510   42.3450 N   0  0  0  0  0  0  0  0  0  0  0  0
   41.2630   25.2320   43.0730 C   0  0  0  0  0  0  0  0  0  0  0  0
   41.2900   26.4590   43.6170 N   0  0  0  0  0  0  0  0  0  0  0  0
   40.3020   28.2950   43.8880 H   0  0  0  0  0  0  0  0  0  0  0  0
   41.9950   24.4390   43.1180 H   0  0  0  0  0  0  0  0  0  0  0  0
   37.8870   25.2660   41.4090 C   0  0  0  0  0  0  0  0  0  0  0  0
   37.9200   23.7590   41.1240 C   0  0  0  0  0  0  0  0  0  0  0  0
   36.9360   24.4510   42.1220 C   0  0  0  0  0  0  0  0  0  0  0  0
   37.7780   25.7860   40.4450 H   0  0  0  0  0  0  0  0  0  0  0  0
   37.4800   23.3820   40.1940 H   0  0  0  0  0  0  0  0  0  0  0  0
   38.7260   23.1780   41.5710 H   0  0  0  0  0  0  0  0  0  0  0  0
   35.8730   24.4390   41.7540 H   0  0  0  0  0  0  0  0  0  0  0  0
   37.0560   24.1180   43.1590 H   0  0  0  0  0  0  0  0  0  0  0  0
   37.9770   27.8940   42.4880 C   0  0  0  0  0  3  0  0  0  0  0  0
   37.0390   27.9800   43.6730 C   0  0  0  0  0  2  0  0  0  0  0  0
   37.8610   29.1660   43.2430 C   0  0  0  0  0  2  0  0  0  0  0  0
  1  6  1  0  0  0  0
  1  7  1  0  0  0  0
  2  1  2  0  0  0  0
  3  4  2  0  0  0  0
  3  2  1  0  0  0  0
  4  5  1  0  0  0  0
  5  8  1  0  0  0  0
  5  6  2  0  0  0  0
  9 11  1  0  0  0  0
  9  3  1  0  0  0  0
 10  9  1  0  0  0  0
 10 14  1  0  0  0  0
 10 11  1  0  0  0  0
 11 16  1  0  0  0  0
 12  9  1  0  0  0  0
 13 10  1  0  0  0  0
 15 11  1  0  0  0  0
 17  2  1  0  0  0  0
 17 19  1  0  0  0  0
 17 18  1  0  0  0  0
 19 18  1  0  0  0  0
M  END
>  <minimizedAffinity>
-3.7346487

$$$$

 OpenBabel03252509213D

 19 21  0  0  0  0  0  0  0  0999 V2000
   37.5840   30.4620   39.8720 C   0  0  0  0  0  0  0  0  0  0  0  0
   36.8910   29.3290   40.3650 C   0  0  0  0  0  0  0  0  0  0  0  0
   37.2220   28.9660   41.6710 C   0  0  0  0  0  0  0  0  0  0  0  0
   38.1570   29.6780   42.4000 N   0  0  0  0  0  0  0  0  0  0  0  0
   38.7770   30.7470   41.8700 C   0  0  0  0  0  0  0  0  0  0  0  0
   38.4880   31.1290   40.6160 N   0  0  0  0  0  0  0  0  0  0  0  0
   37.3630   30.7760   38.8760 H   0  0  0  0  0  0  0  0  0  0  0  0
   39.4690   31.1750   42.5810 H   0  0  0  0  0  0  0  0  0  0  0  0
   36.4500   27.8170   42.2770 C   0  0  0  0  0  0  0  0  0  0  0  0
   37.3810   26.6460   42.6150 C   0  0  0  0  0  0  0  0  0  0  0  0
   36.6550   27.5370   43.6750 C   0  0  0  0  0  0  0  0  0  0  0  0
   35.6720   27.4400   41.5960 H   0  0  0  0  0  0  0  0  0  0  0  0
   37.0090   25.6210   42.5090 H   0  0  0  0  0  0  0  0  0  0  0  0
   38.4530   26.8060   42.5080 H   0  0  0  0  0  0  0  0  0  0  0  0
   35.8480   26.9780   44.2250 H   0  0  0  0  0  0  0  0  0  0  0  0
   37.3420   28.0900   44.3270 H   0  0  0  0  0  0  0  0  0  0  0  0
   35.8960   28.5710   39.5930 C   0  0  0  0  0  3  0  0  0  0  0  0
   34.5280   29.2170   39.5560 C   0  0  0  0  0  2  0  0  0  0  0  0
   35.3620   29.0910   38.3100 C   0  0  0  0  0  2  0  0  0  0  0  0
  1  2  2  0  0  0  0
  1  6  1  0  0  0  0
  2  3  1  0  0  0  0
  3  9  1  0  0  0  0
  3  4  2  0  0  0  0
  5  4  1  0  0  0  0
  5  8  1  0  0  0  0
  6  5  2  0  0  0  0
  7  1  1  0  0  0  0
  9 10  1  0  0  0  0
  9 11  1  0  0  0  0
 10 11  1  0  0  0  0
 11 15  1  0  0  0  0
 11 16  1  0  0  0  0
 12  9  1  0  0  0  0
 13 10  1  0  0  0  0
 14 10  1  0  0  0  0
 17  2  1  0  0  0  0
 18 17  1  0  0  0  0
 19 18  1  0  0  0  0
 19 17  1  0  0  0  0
M  END
>  <minimizedAffinity>
-3.72947693

$$$$

 OpenBabel03252509213D

 19 21  0  0  0  0  0  0  0  0999 V2000
   37.6290   31.8890   37.7700 C   0  0  0  0  0  0  0  0  0  0  0  0
   37.1460   31.7110   39.0900 C   0  0  0  0  0  0  0  0  0  0  0  0
   36.4650   30.5120   39.3040 C   0  0  0  0  0  0  0  0  0  0  0  0
   36.2940   29.5910   38.2870 N   0  0  0  0  0  0  0  0  0  0  0  0
   36.7810   29.8230   37.0550 C   0  0  0  0  0  0  0  0  0  0  0  0
   37.4410   30.9660   36.8080 N   0  0  0  0  0  0  0  0  0  0  0  0
   38.1560   32.7940   37.5600 H   0  0  0  0  0  0  0  0  0  0  0  0
   36.5540   28.9990   36.3960 H   0  0  0  0  0  0  0  0  0  0  0  0
   36.0030   30.2320   40.7160 C   0  0  0  0  0  0  0  0  0  0  0  0
   35.5320   28.7790   40.8620 C   0  0  0  0  0  0  0  0  0  0  0  0
   36.8200   29.3660   41.5270 C   0  0  0  0  0  0  0  0  0  0  0  0
   35.1700   30.8860   41.0120 H   0  0  0  0  0  0  0  0  0  0  0  0
   34.6990   28.5540   41.5370 H   0  0  0  0  0  0  0  0  0  0  0  0
   35.6920   28.1100   40.0180 H   0  0  0  0  0  0  0  0  0  0  0  0
   36.7260   29.4480   42.6450 H   0  0  0  0  0  0  0  0  0  0  0  0
   37.7460   28.8850   41.1880 H   0  0  0  0  0  0  0  0  0  0  0  0
   37.3280   32.6880   40.1730 C   0  0  0  0  0  3  0  0  0  0  0  0
   38.7290   32.7120   40.7470 C   0  0  0  0  0  2  0  0  0  0  0  0
   38.1780   33.8900   39.9870 C   0  0  0  0  0  2  0  0  0  0  0  0
  1  2  1  0  0  0  0
  2  3  2  0  0  0  0
  2 17  1  0  0  0  0
  3  9  1  0  0  0  0
  4  3  1  0  0  0  0
  5  4  2  0  0  0  0
  6  5  1  0  0  0  0
  6  1  2  0  0  0  0
  7  1  1  0  0  0  0
  8  5  1  0  0  0  0
  9 10  1  0  0  0  0
  9 12  1  0  0  0  0
  9 11  1  0  0  0  0
 10 11  1  0  0  0  0
 10 13  1  0  0  0  0
 11 15  1  0  0  0  0
 14 10  1  0  0  0  0
 16 11  1  0  0  0  0
 17 18  1  0  0  0  0
 19 17  1  0  0  0  0
 19 18  1  0  0  0  0
M  END
>  <minimizedAffinity>
-3.71166921

$$$$

 OpenBabel03252509213D

 19 21  0  0  0  0  0  0  0  0999 V2000
   38.5930   29.5540   42.9420 C   0  0  0  0  0  0  0  0  0  0  0  0
   37.5430   29.3100   42.0230 C   0  0  0  0  0  0  0  0  0  0  0  0
   37.5220   30.1690   40.9230 C   0  0  0  0  0  0  0  0  0  0  0  0
   38.4660   31.1680   40.7720 N   0  0  0  0  0  0  0  0  0  0  0  0
   39.4390   31.3430   41.6840 C   0  0  0  0  0  0  0  0  0  0  0  0
   39.4940   30.5380   42.7570 N   0  0  0  0  0  0  0  0  0  0  0  0
   38.6490   28.9210   43.8010 H   0  0  0  0  0  0  0  0  0  0  0  0
   40.0810   32.1640   41.4010 H   0  0  0  0  0  0  0  0  0  0  0  0
   36.4750   29.8990   39.8670 C   0  0  0  0  0  0  0  0  0  0  0  0
   36.7080   30.7710   38.6260 C   0  0  0  0  0  0  0  0  0  0  0  0
   36.8930   29.2190   38.6680 C   0  0  0  0  0  0  0  0  0  0  0  0
   35.4590   30.1060   40.2350 H   0  0  0  0  0  0  0  0  0  0  0  0
   35.8430   31.1390   38.0630 H   0  0  0  0  0  0  0  0  0  0  0  0
   37.6220   31.3610   38.5890 H   0  0  0  0  0  0  0  0  0  0  0  0
   36.1100   28.6770   38.0700 H   0  0  0  0  0  0  0  0  0  0  0  0
   37.9210   28.8940   38.4630 H   0  0  0  0  0  0  0  0  0  0  0  0
   36.5390   28.2490   42.1810 C   0  0  0  0  0  3  0  0  0  0  0  0
   37.0910   26.8520   41.9910 C   0  0  0  0  0  2  0  0  0  0  0  0
   36.5860   27.3140   43.3320 C   0  0  0  0  0  2  0  0  0  0  0  0
  1  7  1  0  0  0  0
  2 17  1  0  0  0  0
  2  1  2  0  0  0  0
  3  2  1  0  0  0  0
  4  3  2  0  0  0  0
  4  5  1  0  0  0  0
  5  6  2  0  0  0  0
  6  1  1  0  0  0  0
  8  5  1  0  0  0  0
  9 12  1  0  0  0  0
  9  3  1  0  0  0  0
 10 11  1  0  0  0  0
 10  9  1  0  0  0  0
 11  9  1  0  0  0  0
 13 10  1  0  0  0  0
 14 10  1  0  0  0  0
 15 11  1  0  0  0  0
 16 11  1  0  0  0  0
 17 19  1  0  0  0  0
 18 17  1  0  0  0  0
 18 19  1  0  0  0  0
M  END
>  <minimizedAffinity>
-3.70877981

$$$$

 OpenBabel03252509213D

 19 21  0  0  0  0  0  0  0  0999 V2000
   38.9740   27.0140   42.9860 C   0  0  0  0  0  0  0  0  0  0  0  0
   37.7050   27.0470   42.3560 C   0  0  0  0  0  0  0  0  0  0  0  0
   37.2780   28.3190   41.9740 C   0  0  0  0  0  0  0  0  0  0  0  0
   38.0560   29.4390   42.2050 N   0  0  0  0  0  0  0  0  0  0  0  0
   39.2540   29.3360   42.8070 C   0  0  0  0  0  0  0  0  0  0  0  0
   39.7010   28.1300   43.1920 N   0  0  0  0  0  0  0  0  0  0  0  0
   39.3420   26.0610   43.2970 H   0  0  0  0  0  0  0  0  0  0  0  0
   39.7150   30.3070   42.9020 H   0  0  0  0  0  0  0  0  0  0  0  0
   35.9700   28.4020   41.2210 C   0  0  0  0  0  0  0  0  0  0  0  0
   35.7460   29.8120   40.6600 C   0  0  0  0  0  0  0  0  0  0  0  0
   36.0310   28.5460   39.7890 C   0  0  0  0  0  0  0  0  0  0  0  0
   35.1110   28.1560   41.8620 H   0  0  0  0  0  0  0  0  0  0  0  0
   34.7280   30.2120   40.6130 H   0  0  0  0  0  0  0  0  0  0  0  0
   36.5640   30.5260   40.7490 H   0  0  0  0  0  0  0  0  0  0  0  0
   35.1350   28.2280   39.1880 H   0  0  0  0  0  0  0  0  0  0  0  0
   36.9600   28.6130   39.2080 H   0  0  0  0  0  0  0  0  0  0  0  0
   36.8780   25.8580   42.1090 C   0  0  0  0  0  3  0  0  0  0  0  0
   37.2500   25.1040   40.8500 C   0  0  0  0  0  2  0  0  0  0  0  0
   37.4470   24.4920   42.2100 C   0  0  0  0  0  2  0  0  0  0  0  0
  1  6  1  0  0  0  0
  1  7  1  0  0  0  0
  2  1  2  0  0  0  0
  3  4  2  0  0  0  0
  3  2  1  0  0  0  0
  4  5  1  0  0  0  0
  5  8  1  0  0  0  0
  5  6  2  0  0  0  0
  9 12  1  0  0  0  0
  9  3  1  0  0  0  0
 10 14  1  0  0  0  0
 10  9  1  0  0  0  0
 11 10  1  0  0  0  0
 11  9  1  0  0  0  0
 13 10  1  0  0  0  0
 15 11  1  0  0  0  0
 16 11  1  0  0  0  0
 17 19  1  0  0  0  0
 17  2  1  0  0  0  0
 18 17  1  0  0  0  0
 18 19  1  0  0  0  0
M  END
>  <minimizedAffinity>
-3.69913387

$$$$

 OpenBabel03252509213D

 19 21  0  0  0  0  0  0  0  0999 V2000
   36.0030   27.2440   38.9510 C   0  0  0  0  0  0  0  0  0  0  0  0
   36.6880   26.8470   40.1260 C   0  0  0  0  0  0  0  0  0  0  0  0
   36.6040   27.7550   41.1830 C   0  0  0  0  0  0  0  0  0  0  0  0
   35.9000   28.9380   41.0600 N   0  0  0  0  0  0  0  0  0  0  0  0
   35.2700   29.2520   39.9140 C   0  0  0  0  0  0  0  0  0  0  0  0
   35.3270   28.4060   38.8730 N   0  0  0  0  0  0  0  0  0  0  0  0
   36.0410   26.5800   38.1150 H   0  0  0  0  0  0  0  0  0  0  0  0
   34.7750   30.2080   40.0020 H   0  0  0  0  0  0  0  0  0  0  0  0
   37.2430   27.3430   42.4890 C   0  0  0  0  0  0  0  0  0  0  0  0
   37.4620   28.5570   43.4020 C   0  0  0  0  0  0  0  0  0  0  0  0
   36.4360   27.4110   43.6800 C   0  0  0  0  0  0  0  0  0  0  0  0
   38.2200   26.8610   42.3330 H   0  0  0  0  0  0  0  0  0  0  0  0
   38.3440   28.5840   44.0510 H   0  0  0  0  0  0  0  0  0  0  0  0
   37.0410   29.5090   43.0840 H   0  0  0  0  0  0  0  0  0  0  0  0
   36.7340   26.7710   44.5560 H   0  0  0  0  0  0  0  0  0  0  0  0
   35.3940   27.7520   43.7070 H   0  0  0  0  0  0  0  0  0  0  0  0
   37.4360   25.5900   40.2590 C   0  0  0  0  0  3  0  0  0  0  0  0
   36.5690   24.3940   40.5940 C   0  0  0  0  0  2  0  0  0  0  0  0
   37.2790   24.4950   39.2700 C   0  0  0  0  0  2  0  0  0  0  0  0
  1  2  1  0  0  0  0
  2 17  1  0  0  0  0
  2  3  2  0  0  0  0
  3  9  1  0  0  0  0
  4  3  1  0  0  0  0
  5  8  1  0  0  0  0
  5  4  2  0  0  0  0
  6  1  2  0  0  0  0
  6  5  1  0  0  0  0
  7  1  1  0  0  0  0
  9 10  1  0  0  0  0
  9 11  1  0  0  0  0
 10 11  1  0  0  0  0
 10 13  1  0  0  0  0
 11 16  1  0  0  0  0
 11 15  1  0  0  0  0
 12  9  1  0  0  0  0
 14 10  1  0  0  0  0
 17 18  1  0  0  0  0
 19 17  1  0  0  0  0
 19 18  1  0  0  0  0
M  END
>  <minimizedAffinity>
-3.67698956

$$$$
