
 OpenBabel03252509243D

 21 23  0  0  1  0  0  0  0  0999 V2000
   44.5350   35.5990   45.0230 C   0  0  0  0  0  0  0  0  0  0  0  0
   45.0950   35.6760   43.7300 C   0  0  0  0  0  0  0  0  0  0  0  0
   46.0320   34.7260   43.4350 C   0  0  0  0  0  0  0  0  0  0  0  0
   46.3920   33.7600   44.3670 N   0  0  0  0  0  0  0  0  0  0  0  0
   45.8320   33.7290   45.5820 C   0  0  0  0  0  0  0  0  0  0  0  0
   44.8920   34.6600   45.9120 N   0  0  0  0  0  0  0  0  0  0  0  0
   43.7880   36.3350   45.2920 H   0  0  0  0  0  0  0  0  0  0  0  0
   46.2160   32.9230   46.1890 H   0  0  0  0  0  0  0  0  0  0  0  0
   46.6140   34.6760   42.0440 C   0  0  1  0  0  0  0  0  0  0  0  0
   48.0290   35.3110   42.0350 C   0  0  0  0  0  0  0  0  0  0  0  0
   47.7050   33.8120   41.7790 C   0  0  2  0  0  0  0  0  0  0  0  0
   45.9550   35.0800   41.2560 H   0  0  0  0  0  0  0  0  0  0  0  0
   48.2480   35.9240   41.1660 H   0  0  0  0  0  0  0  0  0  0  0  0
   48.5100   35.5650   42.9740 H   0  0  0  0  0  0  0  0  0  0  0  0
   48.0880   33.1480   42.5840 H   0  0  0  0  0  0  0  0  0  0  0  0
   47.9280   33.3070   40.3770 C   0  0  0  0  0  3  0  0  0  0  0  0
   46.9150   33.4960   39.3190 C   0  0  0  0  0  2  0  0  0  0  0  0
   48.1100   34.4000   39.3050 C   0  0  0  0  0  2  0  0  0  0  0  0
   44.7390   36.6960   42.8040 N   0  0  0  0  0  0  0  0  0  0  0  0
   44.3590   36.6500   41.8650 H   0  0  0  0  0  0  0  0  0  0  0  0
   44.8560   37.7150   43.0530 H   0  0  0  0  0  0  0  0  0  0  0  0
  1  7  1  0  0  0  0
  1  6  1  0  0  0  0
  2  1  2  0  0  0  0
  3  2  1  0  0  0  0
  3  4  2  0  0  0  0
  4  5  1  0  0  0  0
  5  6  2  0  0  0  0
  5  8  1  0  0  0  0
  9 12  1  6  0  0  0
  9  3  1  0  0  0  0
 10  9  1  0  0  0  0
 10 14  1  0  0  0  0
 11 10  1  0  0  0  0
 11  9  1  0  0  0  0
 11 15  1  1  0  0  0
 13 10  1  0  0  0  0
 16 11  1  0  0  0  0
 17 16  1  0  0  0  0
 18 17  1  0  0  0  0
 18 16  1  0  0  0  0
 19 21  1  0  0  0  0
 19  2  1  0  0  0  0
 20 19  1  0  0  0  0
M  END
>  <minimizedAffinity>
-4.46578264

>  <minimizedRMSD>
0.493961126

$$$$
