
 OpenBabel03252509163D

 19 21  0  0  0  0  0  0  0  0999 V2000
   45.8830   33.3120   46.3260 C   0  0  0  0  0  0  0  0  0  0  0  0
   45.1470   33.1810   47.5300 C   0  0  0  0  0  0  0  0  0  0  0  0
   45.5320   32.2760   48.4510 C   0  0  0  0  0  0  0  0  0  0  0  0
   46.6660   31.4800   48.1800 C   0  0  0  0  0  0  0  0  0  0  0  0
   47.1910   32.0680   46.5310 S   0  0  0  0  0  0  0  0  0  0  0  0
   44.2750   33.8100   47.7140 H   0  0  0  0  0  0  0  0  0  0  0  0
   45.0880   32.0690   49.3810 H   0  0  0  0  0  0  0  0  0  0  0  0
   44.4780   36.0450   44.2350 C   0  0  0  0  0  0  0  0  0  0  0  0
   45.2080   35.8310   43.0370 C   0  0  0  0  0  0  0  0  0  0  0  0
   46.1350   34.7700   43.0130 C   0  0  0  0  0  0  0  0  0  0  0  0
   46.2740   34.0110   44.1450 N   0  0  0  0  0  0  0  0  0  0  0  0
   45.5490   34.2620   45.2610 C   0  0  0  0  0  0  0  0  0  0  0  0
   44.6500   35.2770   45.3120 N   0  0  0  0  0  0  0  0  0  0  0  0
   43.7640   36.8560   44.2670 H   0  0  0  0  0  0  0  0  0  0  0  0
   45.0820   36.4430   42.1560 H   0  0  0  0  0  0  0  0  0  0  0  0
   46.7320   34.5360   42.1440 H   0  0  0  0  0  0  0  0  0  0  0  0
   47.3870   30.4100   48.9080 C   0  0  0  0  0  3  0  0  0  0  0  0
   48.5930   29.7770   48.2290 C   0  0  0  0  0  2  0  0  0  0  0  0
   48.7180   30.7110   49.4260 C   0  0  0  0  0  2  0  0  0  0  0  0
  1  5  1  0  0  0  0
  1  2  2  0  0  0  0
  2  6  1  0  0  0  0
  2  3  1  0  0  0  0
  3  7  1  0  0  0  0
  4  3  2  0  0  0  0
  4 17  1  0  0  0  0
  5  4  1  0  0  0  0
  8 14  1  0  0  0  0
  8 13  1  0  0  0  0
  9  8  2  0  0  0  0
 10  9  1  0  0  0  0
 10 11  2  0  0  0  0
 11 12  1  0  0  0  0
 12 13  2  0  0  0  0
 12  1  1  0  0  0  0
 15  9  1  0  0  0  0
 16 10  1  0  0  0  0
 17 19  1  0  0  0  0
 18 17  1  0  0  0  0
 18 19  1  0  0  0  0
M  END
>  <minimizedAffinity>
-4.42904139

>  <minimizedRMSD>
0.761291504

$$$$
