
 OpenBabel03242518583D

 19 21  0  0  1  0  0  0  0  0999 V2000
   35.6510   29.1190   40.6670 C   0  0  1  0  0  0  0  0  0  0  0  0
   36.2190   27.7720   40.1730 C   0  0  0  0  0  0  0  0  0  0  0  0
   36.3330   28.2180   41.5750 C   0  0  1  0  0  0  0  0  0  0  0  0
   34.5440   29.2010   40.6460 H   0  0  0  0  0  0  0  0  0  0  0  0
   37.0390   27.7740   39.4510 H   0  0  0  0  0  0  0  0  0  0  0  0
   35.4460   26.9880   39.9420 H   0  0  0  0  0  0  0  0  0  0  0  0
   35.7120   27.6870   42.3390 H   0  0  0  0  0  0  0  0  0  0  0  0
   36.3470   30.2920   40.0560 C   0  0  0  0  0  0  0  0  0  0  0  0
   36.6130   30.2400   38.6540 C   0  0  0  0  0  0  0  0  0  0  0  0
   37.2470   31.3350   38.0770 C   0  0  0  0  0  0  0  0  0  0  0  0
   37.5680   32.3810   38.8890 N   0  0  0  0  0  0  0  0  0  0  0  0
   37.2980   32.3920   40.2180 C   0  0  0  0  0  0  0  0  0  0  0  0
   36.6920   31.3520   40.7890 N   0  0  0  0  0  0  0  0  0  0  0  0
   36.3510   29.4020   38.0270 H   0  0  0  0  0  0  0  0  0  0  0  0
   37.4860   31.3780   37.0220 H   0  0  0  0  0  0  0  0  0  0  0  0
   37.6060   33.2950   40.7670 H   0  0  0  0  0  0  0  0  0  0  0  0
   37.7710   28.5070   41.9970 C   0  0  0  0  0  3  0  0  0  0  0  0
   38.2020   27.6710   43.2280 C   0  0  0  0  0  2  0  0  0  0  0  0
   38.0750   29.1430   43.2980 C   0  0  0  0  0  2  0  0  0  0  0  0
  1  4  1  1  0  0  0
  1  3  1  0  0  0  0
  2  1  1  0  0  0  0
  2  3  1  0  0  0  0
  3 17  1  0  0  0  0
  3  7  1  1  0  0  0
  5  2  1  0  0  0  0
  6  2  1  0  0  0  0
  8  1  1  0  0  0  0
  8 13  1  0  0  0  0
  9  8  2  0  0  0  0
 10  9  1  0  0  0  0
 10 11  2  0  0  0  0
 11 12  1  0  0  0  0
 12 16  1  0  0  0  0
 12 13  2  0  0  0  0
 14  9  1  0  0  0  0
 15 10  1  0  0  0  0
 17 18  1  0  0  0  0
 17 19  1  0  0  0  0
 18 19  1  0  0  0  0
M  END
>  <minimizedAffinity>
-3.97421479

$$$$

 OpenBabel03242518583D

 19 21  0  0  1  0  0  0  0  0999 V2000
   37.4690   27.6210   43.5120 C   0  0  1  0  0  0  0  0  0  0  0  0
   36.5750   27.9890   42.3090 C   0  0  0  0  0  0  0  0  0  0  0  0
   36.7240   26.6040   42.7980 C   0  0  1  0  0  0  0  0  0  0  0  0
   37.1280   28.0160   44.4930 H   0  0  0  0  0  0  0  0  0  0  0  0
   37.0400   28.3810   41.4020 H   0  0  0  0  0  0  0  0  0  0  0  0
   35.6240   28.5290   42.5740 H   0  0  0  0  0  0  0  0  0  0  0  0
   35.8490   26.1420   43.3200 H   0  0  0  0  0  0  0  0  0  0  0  0
   38.9190   27.8670   43.2430 C   0  0  0  0  0  0  0  0  0  0  0  0
   39.8460   26.8730   43.6800 C   0  0  0  0  0  0  0  0  0  0  0  0
   41.1950   27.0900   43.4180 C   0  0  0  0  0  0  0  0  0  0  0  0
   41.5360   28.2350   42.7630 N   0  0  0  0  0  0  0  0  0  0  0  0
   40.6240   29.1560   42.3630 C   0  0  0  0  0  0  0  0  0  0  0  0
   39.3280   28.9660   42.6060 N   0  0  0  0  0  0  0  0  0  0  0  0
   39.5560   25.9730   44.1970 H   0  0  0  0  0  0  0  0  0  0  0  0
   41.9640   26.3880   43.7140 H   0  0  0  0  0  0  0  0  0  0  0  0
   41.0250   30.0390   41.8420 H   0  0  0  0  0  0  0  0  0  0  0  0
   37.4400   25.6920   41.8050 C   0  0  0  0  0  3  0  0  0  0  0  0
   36.5890   24.4560   41.4210 C   0  0  0  0  0  2  0  0  0  0  0  0
   37.8500   24.3210   42.1810 C   0  0  0  0  0  2  0  0  0  0  0  0
  1  4  1  1  0  0  0
  2  6  1  0  0  0  0
  2  3  1  0  0  0  0
  2  1  1  0  0  0  0
  3  7  1  1  0  0  0
  3  1  1  0  0  0  0
  5  2  1  0  0  0  0
  8  1  1  0  0  0  0
  8  9  1  0  0  0  0
  9 14  1  0  0  0  0
 10  9  2  0  0  0  0
 10 15  1  0  0  0  0
 11 10  1  0  0  0  0
 12 13  1  0  0  0  0
 12 11  2  0  0  0  0
 13  8  2  0  0  0  0
 16 12  1  0  0  0  0
 17 19  1  0  0  0  0
 17  3  1  0  0  0  0
 18 17  1  0  0  0  0
 18 19  1  0  0  0  0
M  END
>  <minimizedAffinity>
-3.96326518

$$$$

 OpenBabel03242518583D

 19 21  0  0  1  0  0  0  0  0999 V2000
   37.4960   28.7340   43.3770 C   0  0  1  0  0  0  0  0  0  0  0  0
   36.7990   27.4600   42.8540 C   0  0  0  0  0  0  0  0  0  0  0  0
   38.0210   27.4180   43.6800 C   0  0  1  0  0  0  0  0  0  0  0  0
   36.9150   29.3180   44.1230 H   0  0  0  0  0  0  0  0  0  0  0  0
   36.7700   27.2750   41.7780 H   0  0  0  0  0  0  0  0  0  0  0  0
   35.8260   27.2110   43.3600 H   0  0  0  0  0  0  0  0  0  0  0  0
   37.9230   27.0510   44.7320 H   0  0  0  0  0  0  0  0  0  0  0  0
   38.0600   29.5710   42.2750 C   0  0  0  0  0  0  0  0  0  0  0  0
   39.2020   30.3730   42.5780 C   0  0  0  0  0  0  0  0  0  0  0  0
   39.7400   31.1420   41.5510 C   0  0  0  0  0  0  0  0  0  0  0  0
   39.1410   31.0750   40.3290 N   0  0  0  0  0  0  0  0  0  0  0  0
   38.0570   30.2990   40.0810 C   0  0  0  0  0  0  0  0  0  0  0  0
   37.5270   29.5560   41.0520 N   0  0  0  0  0  0  0  0  0  0  0  0
   39.6620   30.4130   43.5530 H   0  0  0  0  0  0  0  0  0  0  0  0
   40.6050   31.7790   41.6950 H   0  0  0  0  0  0  0  0  0  0  0  0
   37.6650   30.3300   39.0530 H   0  0  0  0  0  0  0  0  0  0  0  0
   39.2380   26.8920   42.9230 C   0  0  0  0  0  3  0  0  0  0  0  0
   39.9490   25.7410   43.6770 C   0  0  0  0  0  2  0  0  0  0  0  0
   40.6060   27.0480   43.4650 C   0  0  0  0  0  2  0  0  0  0  0  0
  1  3  1  0  0  0  0
  1  4  1  1  0  0  0
  2  6  1  0  0  0  0
  2  1  1  0  0  0  0
  2  3  1  0  0  0  0
  3  7  1  1  0  0  0
  5  2  1  0  0  0  0
  8  9  1  0  0  0  0
  8  1  1  0  0  0  0
  9 14  1  0  0  0  0
 10 15  1  0  0  0  0
 10  9  2  0  0  0  0
 11 10  1  0  0  0  0
 12 11  2  0  0  0  0
 12 13  1  0  0  0  0
 13  8  2  0  0  0  0
 16 12  1  0  0  0  0
 17 19  1  0  0  0  0
 17 18  1  0  0  0  0
 17  3  1  0  0  0  0
 19 18  1  0  0  0  0
M  END
>  <minimizedAffinity>
-3.89079809

$$$$

 OpenBabel03242518583D

 19 21  0  0  1  0  0  0  0  0999 V2000
   38.4800   28.4300   42.4800 C   0  0  1  0  0  0  0  0  0  0  0  0
   37.5490   28.1540   43.6800 C   0  0  0  0  0  0  0  0  0  0  0  0
   38.0610   27.0810   42.8060 C   0  0  1  0  0  0  0  0  0  0  0  0
   39.4900   28.8090   42.7440 H   0  0  0  0  0  0  0  0  0  0  0  0
   36.5260   28.5380   43.6580 H   0  0  0  0  0  0  0  0  0  0  0  0
   38.0300   28.2700   44.6890 H   0  0  0  0  0  0  0  0  0  0  0  0
   38.8310   26.3890   43.2310 H   0  0  0  0  0  0  0  0  0  0  0  0
   37.8080   29.2220   41.4060 C   0  0  0  0  0  0  0  0  0  0  0  0
   38.2850   29.0570   40.0710 C   0  0  0  0  0  0  0  0  0  0  0  0
   37.6540   29.7810   39.0650 C   0  0  0  0  0  0  0  0  0  0  0  0
   36.6230   30.5970   39.4250 N   0  0  0  0  0  0  0  0  0  0  0  0
   36.1980   30.7270   40.7060 C   0  0  0  0  0  0  0  0  0  0  0  0
   36.7920   30.0420   41.6830 N   0  0  0  0  0  0  0  0  0  0  0  0
   39.1030   28.4050   39.8060 H   0  0  0  0  0  0  0  0  0  0  0  0
   37.9520   29.7140   38.0260 H   0  0  0  0  0  0  0  0  0  0  0  0
   35.3560   31.4170   40.8690 H   0  0  0  0  0  0  0  0  0  0  0  0
   36.9680   26.4040   41.9830 C   0  0  0  0  0  3  0  0  0  0  0  0
   36.9520   24.8670   42.1770 C   0  0  0  0  0  2  0  0  0  0  0  0
   37.3010   25.4790   40.8770 C   0  0  0  0  0  2  0  0  0  0  0  0
  1  4  1  1  0  0  0
  1  3  1  0  0  0  0
  1  2  1  0  0  0  0
  2  6  1  0  0  0  0
  3  7  1  1  0  0  0
  3  2  1  0  0  0  0
  5  2  1  0  0  0  0
  8 13  1  0  0  0  0
  8  1  1  0  0  0  0
  9  8  2  0  0  0  0
 10 11  2  0  0  0  0
 10  9  1  0  0  0  0
 11 12  1  0  0  0  0
 12 16  1  0  0  0  0
 12 13  2  0  0  0  0
 14  9  1  0  0  0  0
 15 10  1  0  0  0  0
 17 18  1  0  0  0  0
 17  3  1  0  0  0  0
 19 17  1  0  0  0  0
 19 18  1  0  0  0  0
M  END
>  <minimizedAffinity>
-3.81447697

$$$$

 OpenBabel03242518583D

 19 21  0  0  1  0  0  0  0  0999 V2000
   37.9030   28.0320   43.3510 C   0  0  1  0  0  0  0  0  0  0  0  0
   38.8590   29.1380   42.8560 C   0  0  0  0  0  0  0  0  0  0  0  0
   37.3970   29.2030   42.6630 C   0  0  1  0  0  0  0  0  0  0  0  0
   37.8340   27.9260   44.4540 H   0  0  0  0  0  0  0  0  0  0  0  0
   39.5800   28.9040   42.0690 H   0  0  0  0  0  0  0  0  0  0  0  0
   39.3000   29.7810   43.6670 H   0  0  0  0  0  0  0  0  0  0  0  0
   36.8270   29.9510   43.2670 H   0  0  0  0  0  0  0  0  0  0  0  0
   38.1150   26.7340   42.6410 C   0  0  0  0  0  0  0  0  0  0  0  0
   36.9880   25.8690   42.5030 C   0  0  0  0  0  0  0  0  0  0  0  0
   37.1760   24.6660   41.8300 C   0  0  0  0  0  0  0  0  0  0  0  0
   38.4220   24.3990   41.3480 N   0  0  0  0  0  0  0  0  0  0  0  0
   39.4680   25.2480   41.4990 C   0  0  0  0  0  0  0  0  0  0  0  0
   39.3080   26.4040   42.1410 N   0  0  0  0  0  0  0  0  0  0  0  0
   36.0080   26.0980   42.8930 H   0  0  0  0  0  0  0  0  0  0  0  0
   36.3750   23.9520   41.6810 H   0  0  0  0  0  0  0  0  0  0  0  0
   40.4250   24.9200   41.0640 H   0  0  0  0  0  0  0  0  0  0  0  0
   36.9810   29.1040   41.1970 C   0  0  0  0  0  3  0  0  0  0  0  0
   36.0600   30.2720   40.7660 C   0  0  0  0  0  2  0  0  0  0  0  0
   35.5700   28.8780   40.8140 C   0  0  0  0  0  2  0  0  0  0  0  0
  1  4  1  1  0  0  0
  2  1  1  0  0  0  0
  2  6  1  0  0  0  0
  3  2  1  0  0  0  0
  3  7  1  1  0  0  0
  3  1  1  0  0  0  0
  5  2  1  0  0  0  0
  8  1  1  0  0  0  0
  9  8  1  0  0  0  0
  9 14  1  0  0  0  0
 10  9  2  0  0  0  0
 11 12  2  0  0  0  0
 11 10  1  0  0  0  0
 12 13  1  0  0  0  0
 13  8  2  0  0  0  0
 15 10  1  0  0  0  0
 16 12  1  0  0  0  0
 17  3  1  0  0  0  0
 18 19  1  0  0  0  0
 18 17  1  0  0  0  0
 19 17  1  0  0  0  0
M  END
>  <minimizedAffinity>
-3.78850389

$$$$

 OpenBabel03242518583D

 19 21  0  0  1  0  0  0  0  0999 V2000
   36.2960   30.8580   40.9590 C   0  0  1  0  0  0  0  0  0  0  0  0
   37.3100   31.9360   40.5220 C   0  0  0  0  0  0  0  0  0  0  0  0
   36.5260   31.1420   39.5560 C   0  0  1  0  0  0  0  0  0  0  0  0
   35.4010   31.2390   41.4940 H   0  0  0  0  0  0  0  0  0  0  0  0
   38.3700   31.7850   40.7350 H   0  0  0  0  0  0  0  0  0  0  0  0
   36.9810   32.9960   40.7040 H   0  0  0  0  0  0  0  0  0  0  0  0
   35.7120   31.6650   38.9950 H   0  0  0  0  0  0  0  0  0  0  0  0
   36.9510   29.7020   41.6430 C   0  0  0  0  0  0  0  0  0  0  0  0
   36.3140   28.4280   41.5370 C   0  0  0  0  0  0  0  0  0  0  0  0
   36.9270   27.3460   42.1590 C   0  0  0  0  0  0  0  0  0  0  0  0
   38.0940   27.5760   42.8250 N   0  0  0  0  0  0  0  0  0  0  0  0
   38.6680   28.8020   42.9030 C   0  0  0  0  0  0  0  0  0  0  0  0
   38.0950   29.8510   42.3140 N   0  0  0  0  0  0  0  0  0  0  0  0
   35.3900   28.2660   41.0040 H   0  0  0  0  0  0  0  0  0  0  0  0
   36.5120   26.3460   42.1280 H   0  0  0  0  0  0  0  0  0  0  0  0
   39.6100   28.8600   43.4690 H   0  0  0  0  0  0  0  0  0  0  0  0
   37.3850   30.1990   38.7190 C   0  0  0  0  0  3  0  0  0  0  0  0
   37.1800   30.4080   37.1980 C   0  0  0  0  0  2  0  0  0  0  0  0
   36.7730   29.1550   37.8680 C   0  0  0  0  0  2  0  0  0  0  0  0
  1  4  1  1  0  0  0
  1  8  1  0  0  0  0
  2  6  1  0  0  0  0
  2  5  1  0  0  0  0
  2  1  1  0  0  0  0
  3  7  1  6  0  0  0
  3  2  1  0  0  0  0
  3  1  1  0  0  0  0
  8 13  1  0  0  0  0
  9  8  2  0  0  0  0
  9 10  1  0  0  0  0
 10 11  2  0  0  0  0
 11 12  1  0  0  0  0
 12 16  1  0  0  0  0
 13 12  2  0  0  0  0
 14  9  1  0  0  0  0
 15 10  1  0  0  0  0
 17  3  1  0  0  0  0
 18 19  1  0  0  0  0
 18 17  1  0  0  0  0
 19 17  1  0  0  0  0
M  END
>  <minimizedAffinity>
-3.78432131

$$$$

 OpenBabel03242518583D

 19 21  0  0  1  0  0  0  0  0999 V2000
   37.5670   29.5510   39.4620 C   0  0  1  0  0  0  0  0  0  0  0  0
   36.1650   29.9680   38.9710 C   0  0  0  0  0  0  0  0  0  0  0  0
   37.2990   30.9100   39.0380 C   0  0  1  0  0  0  0  0  0  0  0  0
   38.1010   28.8280   38.8090 H   0  0  0  0  0  0  0  0  0  0  0  0
   35.3290   29.9510   39.6740 H   0  0  0  0  0  0  0  0  0  0  0  0
   35.8820   29.5730   37.9570 H   0  0  0  0  0  0  0  0  0  0  0  0
   37.7490   31.2480   38.0720 H   0  0  0  0  0  0  0  0  0  0  0  0
   37.5760   29.1660   40.9060 C   0  0  0  0  0  0  0  0  0  0  0  0
   36.5850   28.2360   41.3450 C   0  0  0  0  0  0  0  0  0  0  0  0
   36.5980   27.8630   42.6850 C   0  0  0  0  0  0  0  0  0  0  0  0
   37.5560   28.4120   43.4850 N   0  0  0  0  0  0  0  0  0  0  0  0
   38.4810   29.2930   43.0300 C   0  0  0  0  0  0  0  0  0  0  0  0
   38.4830   29.6620   41.7500 N   0  0  0  0  0  0  0  0  0  0  0  0
   35.8350   27.8130   40.6950 H   0  0  0  0  0  0  0  0  0  0  0  0
   35.8840   27.1640   43.1000 H   0  0  0  0  0  0  0  0  0  0  0  0
   39.2020   29.6650   43.7740 H   0  0  0  0  0  0  0  0  0  0  0  0
   37.1040   32.0080   40.0800 C   0  0  0  0  0  3  0  0  0  0  0  0
   37.2220   33.4270   39.4690 C   0  0  0  0  0  2  0  0  0  0  0  0
   38.2090   32.9220   40.4470 C   0  0  0  0  0  2  0  0  0  0  0  0
  1  4  1  6  0  0  0
  1  8  1  0  0  0  0
  2  3  1  0  0  0  0
  2  1  1  0  0  0  0
  2  5  1  0  0  0  0
  3  7  1  6  0  0  0
  3  1  1  0  0  0  0
  3 17  1  0  0  0  0
  6  2  1  0  0  0  0
  8  9  2  0  0  0  0
  8 13  1  0  0  0  0
  9 10  1  0  0  0  0
 10 15  1  0  0  0  0
 10 11  2  0  0  0  0
 12 11  1  0  0  0  0
 12 16  1  0  0  0  0
 13 12  2  0  0  0  0
 14  9  1  0  0  0  0
 17 19  1  0  0  0  0
 18 17  1  0  0  0  0
 18 19  1  0  0  0  0
M  END
>  <minimizedAffinity>
-3.7734468

$$$$

 OpenBabel03242518583D

 19 21  0  0  1  0  0  0  0  0999 V2000
   36.4790   28.6060   40.0500 C   0  0  1  0  0  0  0  0  0  0  0  0
   35.0790   29.2320   40.2250 C   0  0  0  0  0  0  0  0  0  0  0  0
   36.2340   29.9940   39.7140 C   0  0  1  0  0  0  0  0  0  0  0  0
   36.5510   27.8190   39.2690 H   0  0  0  0  0  0  0  0  0  0  0  0
   34.6640   29.3310   41.2300 H   0  0  0  0  0  0  0  0  0  0  0  0
   34.3120   28.8930   39.4750 H   0  0  0  0  0  0  0  0  0  0  0  0
   36.2330   30.2720   38.6300 H   0  0  0  0  0  0  0  0  0  0  0  0
   37.0950   28.2110   41.3520 C   0  0  0  0  0  0  0  0  0  0  0  0
   38.5190   28.1090   41.4020 C   0  0  0  0  0  0  0  0  0  0  0  0
   39.0990   27.7560   42.6160 C   0  0  0  0  0  0  0  0  0  0  0  0
   38.2680   27.5330   43.6730 N   0  0  0  0  0  0  0  0  0  0  0  0
   36.9190   27.6400   43.5860 C   0  0  0  0  0  0  0  0  0  0  0  0
   36.3450   27.9770   42.4310 N   0  0  0  0  0  0  0  0  0  0  0  0
   39.1600   28.2900   40.5540 H   0  0  0  0  0  0  0  0  0  0  0  0
   40.1700   27.6570   42.7410 H   0  0  0  0  0  0  0  0  0  0  0  0
   36.3560   27.4350   44.5090 H   0  0  0  0  0  0  0  0  0  0  0  0
   36.6900   31.0990   40.6630 C   0  0  0  0  0  3  0  0  0  0  0  0
   37.0190   32.4170   39.9190 C   0  0  0  0  0  2  0  0  0  0  0  0
   38.0680   31.6370   40.6100 C   0  0  0  0  0  2  0  0  0  0  0  0
  1  4  1  6  0  0  0
  1  2  1  0  0  0  0
  1  8  1  0  0  0  0
  2  5  1  0  0  0  0
  3  7  1  6  0  0  0
  3  1  1  0  0  0  0
  3  2  1  0  0  0  0
  3 17  1  0  0  0  0
  6  2  1  0  0  0  0
  8  9  2  0  0  0  0
  8 13  1  0  0  0  0
  9 10  1  0  0  0  0
 10 15  1  0  0  0  0
 10 11  2  0  0  0  0
 12 11  1  0  0  0  0
 12 16  1  0  0  0  0
 13 12  2  0  0  0  0
 14  9  1  0  0  0  0
 18 19  1  0  0  0  0
 18 17  1  0  0  0  0
 19 17  1  0  0  0  0
M  END
>  <minimizedAffinity>
-3.69458127

$$$$

 OpenBabel03242518583D

 19 21  0  0  1  0  0  0  0  0999 V2000
   39.4740   29.7910   41.3960 C   0  0  1  0  0  0  0  0  0  0  0  0
   39.6030   30.3280   42.8370 C   0  0  0  0  0  0  0  0  0  0  0  0
   38.9640   29.0360   42.5230 C   0  0  1  0  0  0  0  0  0  0  0  0
   40.4330   29.5290   40.9020 H   0  0  0  0  0  0  0  0  0  0  0  0
   39.0650   31.2360   43.1160 H   0  0  0  0  0  0  0  0  0  0  0  0
   40.6450   30.2980   43.2620 H   0  0  0  0  0  0  0  0  0  0  0  0
   39.5110   28.1030   42.8100 H   0  0  0  0  0  0  0  0  0  0  0  0
   38.5790   30.6380   40.5500 C   0  0  0  0  0  0  0  0  0  0  0  0
   37.9610   30.0180   39.4220 C   0  0  0  0  0  0  0  0  0  0  0  0
   37.1160   30.7970   38.6390 C   0  0  0  0  0  0  0  0  0  0  0  0
   36.9370   32.0980   39.0040 N   0  0  0  0  0  0  0  0  0  0  0  0
   37.5420   32.6510   40.0840 C   0  0  0  0  0  0  0  0  0  0  0  0
   38.3560   31.9200   40.8450 N   0  0  0  0  0  0  0  0  0  0  0  0
   38.1170   28.9860   39.1490 H   0  0  0  0  0  0  0  0  0  0  0  0
   36.6080   30.4060   37.7670 H   0  0  0  0  0  0  0  0  0  0  0  0
   37.3170   33.7110   40.2750 H   0  0  0  0  0  0  0  0  0  0  0  0
   37.4660   29.0220   42.8150 C   0  0  0  0  0  3  0  0  0  0  0  0
   37.0450   27.8070   43.6790 C   0  0  0  0  0  2  0  0  0  0  0  0
   36.5890   27.9560   42.2800 C   0  0  0  0  0  2  0  0  0  0  0  0
  1  4  1  6  0  0  0
  1  3  1  0  0  0  0
  1  2  1  0  0  0  0
  2  5  1  0  0  0  0
  2  6  1  0  0  0  0
  3  7  1  1  0  0  0
  3 17  1  0  0  0  0
  3  2  1  0  0  0  0
  8 13  1  0  0  0  0
  8  1  1  0  0  0  0
  9  8  2  0  0  0  0
 10 11  2  0  0  0  0
 10  9  1  0  0  0  0
 11 12  1  0  0  0  0
 12 16  1  0  0  0  0
 12 13  2  0  0  0  0
 14  9  1  0  0  0  0
 15 10  1  0  0  0  0
 17 18  1  0  0  0  0
 19 17  1  0  0  0  0
 19 18  1  0  0  0  0
M  END
>  <minimizedAffinity>
-3.64511943

$$$$
