
 OpenBabel03242517093D

 28 30  0  0  1  0  0  0  0  0999 V2000
   36.4410   30.2750   40.2470 C   0  0  2  0  0  0  0  0  0  0  0  0
   36.6650   29.6130   38.9400 C   0  0  2  0  0  0  0  0  0  0  0  0
   37.7590   30.2910   38.1350 C   0  0  0  0  0  0  0  0  0  0  0  0
   37.5840   31.7680   37.9590 C   0  0  0  0  0  0  0  0  0  0  0  0
   37.0400   32.4600   39.1820 C   0  0  0  0  0  0  0  0  0  0  0  0
   37.1720   31.6000   40.4070 C   0  0  0  0  0  0  0  0  0  0  0  0
   35.3380   30.5160   40.3350 H   0  0  0  0  0  0  0  0  0  0  0  0
   37.1000   28.6110   39.1500 H   0  0  0  0  0  0  0  0  0  0  0  0
   37.6430   29.8630   37.0940 H   0  0  0  0  0  0  0  0  0  0  0  0
   38.7710   30.0450   38.4300 H   0  0  0  0  0  0  0  0  0  0  0  0
   38.5900   32.1570   37.6580 H   0  0  0  0  0  0  0  0  0  0  0  0
   36.9180   32.0570   37.1200 H   0  0  0  0  0  0  0  0  0  0  0  0
   37.7090   33.3470   39.3650 H   0  0  0  0  0  0  0  0  0  0  0  0
   36.0230   32.8430   39.0760 H   0  0  0  0  0  0  0  0  0  0  0  0
   36.6480   32.1520   41.2290 H   0  0  0  0  0  0  0  0  0  0  0  0
   38.2060   31.4490   40.7330 H   0  0  0  0  0  0  0  0  0  0  0  0
   36.8360   29.4220   41.3830 C   0  0  0  0  0  0  0  0  0  0  0  0
   37.9630   29.8590   42.1080 C   0  0  0  0  0  0  0  0  0  0  0  0
   38.4330   29.1300   43.2070 C   0  0  0  0  0  0  0  0  0  0  0  0
   37.7250   27.9840   43.5140 N   0  0  0  0  0  0  0  0  0  0  0  0
   36.6480   27.5860   42.8060 C   0  0  0  0  0  0  0  0  0  0  0  0
   36.2070   28.3040   41.7440 N   0  0  0  0  0  0  0  0  0  0  0  0
   38.5790   30.7310   41.9480 H   0  0  0  0  0  0  0  0  0  0  0  0
   39.2780   29.3900   43.8080 H   0  0  0  0  0  0  0  0  0  0  0  0
   36.1390   26.6750   43.1020 H   0  0  0  0  0  0  0  0  0  0  0  0
   35.4270   29.3840   38.1430 C   0  0  0  0  0  3  0  0  0  0  0  0
   34.7690   28.1100   37.9530 C   0  0  0  0  0  2  0  0  0  0  0  0
   34.1650   29.1120   38.9440 C   0  0  0  0  0  2  0  0  0  0  0  0
  1  7  1  1  0  0  0
  1  6  1  0  0  0  0
  1 17  1  0  0  0  0
  2  8  1  1  0  0  0
  2  1  1  0  0  0  0
  3 10  1  0  0  0  0
  3  2  1  0  0  0  0
  4  3  1  0  0  0  0
  4  5  1  0  0  0  0
  5 13  1  0  0  0  0
  5  6  1  0  0  0  0
  6 16  1  0  0  0  0
  6 15  1  0  0  0  0
  9  3  1  0  0  0  0
 11  4  1  0  0  0  0
 12  4  1  0  0  0  0
 14  5  1  0  0  0  0
 17 22  2  0  0  0  0
 17 18  1  0  0  0  0
 18 19  2  0  0  0  0
 19 20  1  0  0  0  0
 19 24  1  0  0  0  0
 21 25  1  0  0  0  0
 21 20  2  0  0  0  0
 22 21  1  0  0  0  0
 23 18  1  0  0  0  0
 26  2  1  0  0  0  0
 26 28  1  0  0  0  0
 27 26  1  0  0  0  0
 27 28  1  0  0  0  0
M  END
>  <minimizedAffinity>
-4.69091845

$$$$

 OpenBabel03242517093D

 28 30  0  0  1  0  0  0  0  0999 V2000
   36.5060   29.8810   40.5770 C   0  0  2  0  0  0  0  0  0  0  0  0
   37.1370   28.6160   41.0240 C   0  0  2  0  0  0  0  0  0  0  0  0
   37.3090   27.6280   39.8850 C   0  0  0  0  0  0  0  0  0  0  0  0
   36.0620   27.3510   39.1020 C   0  0  0  0  0  0  0  0  0  0  0  0
   35.2010   28.5700   38.8910 C   0  0  0  0  0  0  0  0  0  0  0  0
   35.9640   29.8370   39.1560 C   0  0  0  0  0  0  0  0  0  0  0  0
   35.6140   30.0840   41.2440 H   0  0  0  0  0  0  0  0  0  0  0  0
   38.1870   28.8540   41.3030 H   0  0  0  0  0  0  0  0  0  0  0  0
   37.5460   26.6490   40.4010 H   0  0  0  0  0  0  0  0  0  0  0  0
   38.1510   27.8140   39.2330 H   0  0  0  0  0  0  0  0  0  0  0  0
   36.4050   26.8960   38.1390 H   0  0  0  0  0  0  0  0  0  0  0  0
   35.4000   26.5800   39.5470 H   0  0  0  0  0  0  0  0  0  0  0  0
   34.9540   28.5930   37.7920 H   0  0  0  0  0  0  0  0  0  0  0  0
   34.2520   28.5590   39.4310 H   0  0  0  0  0  0  0  0  0  0  0  0
   35.2170   30.6680   39.0780 H   0  0  0  0  0  0  0  0  0  0  0  0
   36.7490   30.0440   38.4210 H   0  0  0  0  0  0  0  0  0  0  0  0
   37.4320   31.0270   40.6530 C   0  0  0  0  0  0  0  0  0  0  0  0
   37.0310   32.1780   39.9460 C   0  0  0  0  0  0  0  0  0  0  0  0
   37.8290   33.3290   39.9430 C   0  0  0  0  0  0  0  0  0  0  0  0
   39.0020   33.2470   40.6670 N   0  0  0  0  0  0  0  0  0  0  0  0
   39.3650   32.1330   41.3360 C   0  0  0  0  0  0  0  0  0  0  0  0
   38.5800   31.0280   41.3280 N   0  0  0  0  0  0  0  0  0  0  0  0
   36.1420   32.3400   39.3560 H   0  0  0  0  0  0  0  0  0  0  0  0
   37.5990   34.2420   39.4350 H   0  0  0  0  0  0  0  0  0  0  0  0
   40.3000   32.1380   41.8840 H   0  0  0  0  0  0  0  0  0  0  0  0
   36.5040   28.0010   42.2250 C   0  0  0  0  0  3  0  0  0  0  0  0
   36.9500   26.7960   42.8900 C   0  0  0  0  0  2  0  0  0  0  0  0
   37.2710   28.1530   43.5280 C   0  0  0  0  0  2  0  0  0  0  0  0
  1 17  1  0  0  0  0
  1  2  1  0  0  0  0
  1  7  1  1  0  0  0
  2  8  1  1  0  0  0
  2 26  1  0  0  0  0
  3  9  1  0  0  0  0
  3  2  1  0  0  0  0
  4 12  1  0  0  0  0
  4  3  1  0  0  0  0
  5  4  1  0  0  0  0
  5  6  1  0  0  0  0
  5 14  1  0  0  0  0
  6  1  1  0  0  0  0
 10  3  1  0  0  0  0
 11  4  1  0  0  0  0
 13  5  1  0  0  0  0
 15  6  1  0  0  0  0
 16  6  1  0  0  0  0
 17 22  1  0  0  0  0
 18 17  2  0  0  0  0
 19 18  1  0  0  0  0
 19 20  2  0  0  0  0
 20 21  1  0  0  0  0
 21 25  1  0  0  0  0
 22 21  2  0  0  0  0
 23 18  1  0  0  0  0
 24 19  1  0  0  0  0
 26 27  1  0  0  0  0
 26 28  1  0  0  0  0
 27 28  1  0  0  0  0
M  END
>  <minimizedAffinity>
-4.68918705

$$$$

 OpenBabel03242517093D

 28 30  0  0  1  0  0  0  0  0999 V2000
   38.2460   29.9370   40.9300 C   0  0  2  0  0  0  0  0  0  0  0  0
   37.2140   29.5590   41.9240 C   0  0  2  0  0  0  0  0  0  0  0  0
   37.8240   29.0810   43.2300 C   0  0  0  0  0  0  0  0  0  0  0  0
   38.8440   27.9940   43.0840 C   0  0  0  0  0  0  0  0  0  0  0  0
   39.7320   28.1600   41.8780 C   0  0  0  0  0  0  0  0  0  0  0  0
   39.6640   29.5570   41.3310 C   0  0  0  0  0  0  0  0  0  0  0  0
   38.0340   29.3740   39.9710 H   0  0  0  0  0  0  0  0  0  0  0  0
   36.6910   30.4930   42.2250 H   0  0  0  0  0  0  0  0  0  0  0  0
   36.9610   28.5930   43.7760 H   0  0  0  0  0  0  0  0  0  0  0  0
   38.1710   29.8620   43.8920 H   0  0  0  0  0  0  0  0  0  0  0  0
   39.4190   27.9890   44.0440 H   0  0  0  0  0  0  0  0  0  0  0  0
   38.4200   26.9700   43.0160 H   0  0  0  0  0  0  0  0  0  0  0  0
   40.7890   28.0330   42.2480 H   0  0  0  0  0  0  0  0  0  0  0  0
   39.5780   27.4180   41.0910 H   0  0  0  0  0  0  0  0  0  0  0  0
   40.2670   29.5470   40.3870 H   0  0  0  0  0  0  0  0  0  0  0  0
   40.1110   30.3120   41.9860 H   0  0  0  0  0  0  0  0  0  0  0  0
   38.2490   31.3840   40.6460 C   0  0  0  0  0  0  0  0  0  0  0  0
   37.2830   31.8220   39.7190 C   0  0  0  0  0  0  0  0  0  0  0  0
   37.1890   33.1750   39.3690 C   0  0  0  0  0  0  0  0  0  0  0  0
   38.0920   34.0180   39.9870 N   0  0  0  0  0  0  0  0  0  0  0  0
   39.0080   33.5750   40.8720 C   0  0  0  0  0  0  0  0  0  0  0  0
   39.0850   32.2620   41.1990 N   0  0  0  0  0  0  0  0  0  0  0  0
   36.5400   31.2480   39.1860 H   0  0  0  0  0  0  0  0  0  0  0  0
   36.4870   33.5890   38.6770 H   0  0  0  0  0  0  0  0  0  0  0  0
   39.6870   34.2920   41.3200 H   0  0  0  0  0  0  0  0  0  0  0  0
   36.1690   28.6300   41.4070 C   0  0  0  0  0  3  0  0  0  0  0  0
   35.1520   28.9620   40.4330 C   0  0  0  0  0  2  0  0  0  0  0  0
   36.3660   28.1400   39.9820 C   0  0  0  0  0  2  0  0  0  0  0  0
  1  7  1  6  0  0  0
  1  6  1  0  0  0  0
  1  2  1  0  0  0  0
  2  8  1  1  0  0  0
  2  3  1  0  0  0  0
  3  9  1  0  0  0  0
  3 10  1  0  0  0  0
  4  3  1  0  0  0  0
  4 11  1  0  0  0  0
  5 13  1  0  0  0  0
  5  4  1  0  0  0  0
  6  5  1  0  0  0  0
  6 16  1  0  0  0  0
 12  4  1  0  0  0  0
 14  5  1  0  0  0  0
 15  6  1  0  0  0  0
 17  1  1  0  0  0  0
 17 22  1  0  0  0  0
 18 17  2  0  0  0  0
 19 18  1  0  0  0  0
 19 20  2  0  0  0  0
 20 21  1  0  0  0  0
 21 22  2  0  0  0  0
 21 25  1  0  0  0  0
 23 18  1  0  0  0  0
 24 19  1  0  0  0  0
 26  2  1  0  0  0  0
 27 26  1  0  0  0  0
 28 27  1  0  0  0  0
 28 26  1  0  0  0  0
M  END
>  <minimizedAffinity>
-4.61888456

$$$$

 OpenBabel03242517093D

 28 30  0  0  1  0  0  0  0  0999 V2000
   38.8940   25.9280   42.9670 C   0  0  2  0  0  0  0  0  0  0  0  0
   38.0970   25.6990   41.7380 C   0  0  2  0  0  0  0  0  0  0  0  0
   37.4020   26.9630   41.2630 C   0  0  0  0  0  0  0  0  0  0  0  0
   36.5810   27.6560   42.3070 C   0  0  0  0  0  0  0  0  0  0  0  0
   37.2080   27.6360   43.6770 C   0  0  0  0  0  0  0  0  0  0  0  0
   38.6680   27.2880   43.6110 C   0  0  0  0  0  0  0  0  0  0  0  0
   38.5770   25.1620   43.7380 H   0  0  0  0  0  0  0  0  0  0  0  0
   38.8160   25.4910   40.9150 H   0  0  0  0  0  0  0  0  0  0  0  0
   36.6490   26.5960   40.5030 H   0  0  0  0  0  0  0  0  0  0  0  0
   38.0280   27.6610   40.7240 H   0  0  0  0  0  0  0  0  0  0  0  0
   36.4210   28.6960   41.9230 H   0  0  0  0  0  0  0  0  0  0  0  0
   35.5550   27.2520   42.4310 H   0  0  0  0  0  0  0  0  0  0  0  0
   37.1700   28.6970   44.0550 H   0  0  0  0  0  0  0  0  0  0  0  0
   36.6860   27.0170   44.4090 H   0  0  0  0  0  0  0  0  0  0  0  0
   39.0110   27.1940   44.6730 H   0  0  0  0  0  0  0  0  0  0  0  0
   39.2870   28.0600   43.1430 H   0  0  0  0  0  0  0  0  0  0  0  0
   40.3430   25.7960   42.7280 C   0  0  0  0  0  0  0  0  0  0  0  0
   40.7190   25.5560   41.3920 C   0  0  0  0  0  0  0  0  0  0  0  0
   42.0680   25.4120   41.0420 C   0  0  0  0  0  0  0  0  0  0  0  0
   42.9710   25.5210   42.0820 N   0  0  0  0  0  0  0  0  0  0  0  0
   42.5870   25.7520   43.3540 C   0  0  0  0  0  0  0  0  0  0  0  0
   41.2770   25.8880   43.6740 N   0  0  0  0  0  0  0  0  0  0  0  0
   40.0950   25.4550   40.5160 H   0  0  0  0  0  0  0  0  0  0  0  0
   42.4370   25.2290   40.0560 H   0  0  0  0  0  0  0  0  0  0  0  0
   43.3500   25.8260   44.1210 H   0  0  0  0  0  0  0  0  0  0  0  0
   37.1750   24.5310   41.8070 C   0  0  0  0  0  3  0  0  0  0  0  0
   36.2780   24.1000   40.7580 C   0  0  0  0  0  2  0  0  0  0  0  0
   37.5780   23.3190   40.9830 C   0  0  0  0  0  2  0  0  0  0  0  0
  1  6  1  0  0  0  0
  1  7  1  1  0  0  0
  2  8  1  6  0  0  0
  2 26  1  0  0  0  0
  2  1  1  0  0  0  0
  3  2  1  0  0  0  0
  3  4  1  0  0  0  0
  4 12  1  0  0  0  0
  4  5  1  0  0  0  0
  5 13  1  0  0  0  0
  5 14  1  0  0  0  0
  6  5  1  0  0  0  0
  6 15  1  0  0  0  0
  9  3  1  0  0  0  0
 10  3  1  0  0  0  0
 11  4  1  0  0  0  0
 16  6  1  0  0  0  0
 17  1  1  0  0  0  0
 17 22  1  0  0  0  0
 18 17  2  0  0  0  0
 19 18  1  0  0  0  0
 19 20  2  0  0  0  0
 20 21  1  0  0  0  0
 21 22  2  0  0  0  0
 21 25  1  0  0  0  0
 23 18  1  0  0  0  0
 24 19  1  0  0  0  0
 27 28  1  0  0  0  0
 27 26  1  0  0  0  0
 28 26  1  0  0  0  0
M  END
>  <minimizedAffinity>
-4.48759174

$$$$

 OpenBabel03242517093D

 28 30  0  0  1  0  0  0  0  0999 V2000
   36.9830   26.7150   41.0110 C   0  0  2  0  0  0  0  0  0  0  0  0
   38.1930   26.8110   41.8620 C   0  0  2  0  0  0  0  0  0  0  0  0
   39.0470   25.5590   41.7860 C   0  0  0  0  0  0  0  0  0  0  0  0
   38.3120   24.2810   42.0500 C   0  0  0  0  0  0  0  0  0  0  0  0
   36.9220   24.2550   41.4690 C   0  0  0  0  0  0  0  0  0  0  0  0
   36.7370   25.3290   40.4340 C   0  0  0  0  0  0  0  0  0  0  0  0
   36.0810   26.9490   41.6540 H   0  0  0  0  0  0  0  0  0  0  0  0
   38.8510   27.5850   41.4110 H   0  0  0  0  0  0  0  0  0  0  0  0
   39.7660   25.6600   42.6540 H   0  0  0  0  0  0  0  0  0  0  0  0
   39.6750   25.4790   40.9090 H   0  0  0  0  0  0  0  0  0  0  0  0
   38.9630   23.4670   41.6410 H   0  0  0  0  0  0  0  0  0  0  0  0
   38.2010   24.0260   43.1250 H   0  0  0  0  0  0  0  0  0  0  0  0
   36.8340   23.2810   40.9090 H   0  0  0  0  0  0  0  0  0  0  0  0
   36.1170   24.2730   42.2070 H   0  0  0  0  0  0  0  0  0  0  0  0
   35.6550   25.2950   40.1460 H   0  0  0  0  0  0  0  0  0  0  0  0
   37.3150   25.1670   39.5190 H   0  0  0  0  0  0  0  0  0  0  0  0
   37.0200   27.6560   39.8760 C   0  0  0  0  0  0  0  0  0  0  0  0
   36.1450   28.7560   39.9710 C   0  0  0  0  0  0  0  0  0  0  0  0
   36.0900   29.7170   38.9540 C   0  0  0  0  0  0  0  0  0  0  0  0
   36.9370   29.5050   37.8830 N   0  0  0  0  0  0  0  0  0  0  0  0
   37.7670   28.4440   37.8150 C   0  0  0  0  0  0  0  0  0  0  0  0
   37.8070   27.5240   38.8090 N   0  0  0  0  0  0  0  0  0  0  0  0
   35.4500   29.0080   40.7580 H   0  0  0  0  0  0  0  0  0  0  0  0
   35.4570   30.5790   38.9480 H   0  0  0  0  0  0  0  0  0  0  0  0
   38.4060   28.3400   36.9440 H   0  0  0  0  0  0  0  0  0  0  0  0
   37.9280   27.2380   43.2650 C   0  0  0  0  0  3  0  0  0  0  0  0
   37.4780   28.5500   43.6780 C   0  0  0  0  0  2  0  0  0  0  0  0
   36.4650   27.3990   43.6430 C   0  0  0  0  0  2  0  0  0  0  0  0
  1  7  1  1  0  0  0
  1  2  1  0  0  0  0
  2  8  1  6  0  0  0
  2 26  1  0  0  0  0
  3  2  1  0  0  0  0
  3  4  1  0  0  0  0
  3  9  1  0  0  0  0
  4 12  1  0  0  0  0
  5  4  1  0  0  0  0
  5 14  1  0  0  0  0
  6  1  1  0  0  0  0
  6  5  1  0  0  0  0
 10  3  1  0  0  0  0
 11  4  1  0  0  0  0
 13  5  1  0  0  0  0
 15  6  1  0  0  0  0
 16  6  1  0  0  0  0
 17 18  1  0  0  0  0
 17  1  1  0  0  0  0
 18 23  1  0  0  0  0
 19 18  2  0  0  0  0
 20 19  1  0  0  0  0
 21 20  2  0  0  0  0
 21 22  1  0  0  0  0
 22 17  2  0  0  0  0
 24 19  1  0  0  0  0
 25 21  1  0  0  0  0
 26 28  1  0  0  0  0
 26 27  1  0  0  0  0
 28 27  1  0  0  0  0
M  END
>  <minimizedAffinity>
-4.44588709

$$$$

 OpenBabel03242517093D

 28 30  0  0  1  0  0  0  0  0999 V2000
   37.2480   27.2770   40.9190 C   0  0  2  0  0  0  0  0  0  0  0  0
   36.6410   26.6030   42.0920 C   0  0  2  0  0  0  0  0  0  0  0  0
   36.7360   27.4480   43.3500 C   0  0  0  0  0  0  0  0  0  0  0  0
   38.1140   27.9380   43.6740 C   0  0  0  0  0  0  0  0  0  0  0  0
   38.9100   28.3410   42.4600 C   0  0  0  0  0  0  0  0  0  0  0  0
   38.0250   28.5400   41.2610 C   0  0  0  0  0  0  0  0  0  0  0  0
   37.9980   26.5670   40.4550 H   0  0  0  0  0  0  0  0  0  0  0  0
   35.5450   26.5540   41.9110 H   0  0  0  0  0  0  0  0  0  0  0  0
   36.4840   26.7280   44.1860 H   0  0  0  0  0  0  0  0  0  0  0  0
   36.0050   28.2410   43.4310 H   0  0  0  0  0  0  0  0  0  0  0  0
   37.9720   28.7830   44.3940 H   0  0  0  0  0  0  0  0  0  0  0  0
   38.7430   27.2110   44.2280 H   0  0  0  0  0  0  0  0  0  0  0  0
   39.3370   29.3590   42.6880 H   0  0  0  0  0  0  0  0  0  0  0  0
   39.7510   27.6860   42.2270 H   0  0  0  0  0  0  0  0  0  0  0  0
   38.7140   28.7290   40.3980 H   0  0  0  0  0  0  0  0  0  0  0  0
   37.3640   29.4090   41.3370 H   0  0  0  0  0  0  0  0  0  0  0  0
   36.2450   27.6470   39.9030 C   0  0  0  0  0  0  0  0  0  0  0  0
   35.4630   28.7790   40.2070 C   0  0  0  0  0  0  0  0  0  0  0  0
   34.4770   29.2260   39.3180 C   0  0  0  0  0  0  0  0  0  0  0  0
   34.3380   28.4900   38.1580 N   0  0  0  0  0  0  0  0  0  0  0  0
   35.0990   27.4090   37.8890 C   0  0  0  0  0  0  0  0  0  0  0  0
   36.0490   26.9910   38.7600 N   0  0  0  0  0  0  0  0  0  0  0  0
   35.4940   29.4150   41.0780 H   0  0  0  0  0  0  0  0  0  0  0  0
   33.8420   30.0730   39.4710 H   0  0  0  0  0  0  0  0  0  0  0  0
   34.9360   26.8780   36.9580 H   0  0  0  0  0  0  0  0  0  0  0  0
   37.1030   25.2030   42.3070 C   0  0  0  0  0  3  0  0  0  0  0  0
   36.9690   24.1150   41.3630 C   0  0  0  0  0  2  0  0  0  0  0  0
   38.3380   24.7850   41.5260 C   0  0  0  0  0  2  0  0  0  0  0  0
  1  7  1  6  0  0  0
  1  6  1  0  0  0  0
  1  2  1  0  0  0  0
  2  8  1  6  0  0  0
  2 26  1  0  0  0  0
  2  3  1  0  0  0  0
  3 10  1  0  0  0  0
  3  4  1  0  0  0  0
  3  9  1  0  0  0  0
  4 12  1  0  0  0  0
  4 11  1  0  0  0  0
  5 13  1  0  0  0  0
  5  4  1  0  0  0  0
  6 16  1  0  0  0  0
  6  5  1  0  0  0  0
 14  5  1  0  0  0  0
 15  6  1  0  0  0  0
 17 18  1  0  0  0  0
 17  1  1  0  0  0  0
 18 23  1  0  0  0  0
 19 24  1  0  0  0  0
 19 18  2  0  0  0  0
 20 19  1  0  0  0  0
 21 20  2  0  0  0  0
 21 22  1  0  0  0  0
 22 17  2  0  0  0  0
 25 21  1  0  0  0  0
 27 28  1  0  0  0  0
 27 26  1  0  0  0  0
 28 26  1  0  0  0  0
M  END
>  <minimizedAffinity>
-4.43303871

$$$$

 OpenBabel03242517093D

 28 30  0  0  1  0  0  0  0  0999 V2000
   38.5760   29.2510   41.4610 C   0  0  2  0  0  0  0  0  0  0  0  0
   37.3590   29.1220   42.2990 C   0  0  2  0  0  0  0  0  0  0  0  0
   37.6690   28.5690   43.6780 C   0  0  0  0  0  0  0  0  0  0  0  0
   38.4520   27.2920   43.6800 C   0  0  0  0  0  0  0  0  0  0  0  0
   39.5150   27.2360   42.6120 C   0  0  0  0  0  0  0  0  0  0  0  0
   39.8150   28.6020   42.0610 C   0  0  0  0  0  0  0  0  0  0  0  0
   38.3870   28.7150   40.4820 H   0  0  0  0  0  0  0  0  0  0  0  0
   37.0030   30.1520   42.5220 H   0  0  0  0  0  0  0  0  0  0  0  0
   36.6570   28.2850   44.0960 H   0  0  0  0  0  0  0  0  0  0  0  0
   38.0750   29.2820   44.3830 H   0  0  0  0  0  0  0  0  0  0  0  0
   38.8750   27.1990   44.7120 H   0  0  0  0  0  0  0  0  0  0  0  0
   37.8400   26.3750   43.5530 H   0  0  0  0  0  0  0  0  0  0  0  0
   40.4610   26.9080   43.1290 H   0  0  0  0  0  0  0  0  0  0  0  0
   39.3220   26.5190   41.8120 H   0  0  0  0  0  0  0  0  0  0  0  0
   40.5270   28.4400   41.2120 H   0  0  0  0  0  0  0  0  0  0  0  0
   40.3120   29.2680   42.7720 H   0  0  0  0  0  0  0  0  0  0  0  0
   38.9160   30.6580   41.1800 C   0  0  0  0  0  0  0  0  0  0  0  0
   40.2840   30.9820   41.2800 C   0  0  0  0  0  0  0  0  0  0  0  0
   40.7290   32.2880   41.0360 C   0  0  0  0  0  0  0  0  0  0  0  0
   39.7490   33.2020   40.7010 N   0  0  0  0  0  0  0  0  0  0  0  0
   38.4450   32.8680   40.6120 C   0  0  0  0  0  0  0  0  0  0  0  0
   38.0330   31.5990   40.8510 N   0  0  0  0  0  0  0  0  0  0  0  0
   41.1180   30.3460   41.5330 H   0  0  0  0  0  0  0  0  0  0  0  0
   41.7450   32.6170   41.0900 H   0  0  0  0  0  0  0  0  0  0  0  0
   37.7290   33.6360   40.3440 H   0  0  0  0  0  0  0  0  0  0  0  0
   36.2270   28.4120   41.6390 C   0  0  0  0  0  3  0  0  0  0  0  0
   35.4530   28.9110   40.5240 C   0  0  0  0  0  2  0  0  0  0  0  0
   36.5180   27.8390   40.2610 C   0  0  0  0  0  2  0  0  0  0  0  0
  1  7  1  6  0  0  0
  1  6  1  0  0  0  0
  1  2  1  0  0  0  0
  2  8  1  1  0  0  0
  2  3  1  0  0  0  0
  3  4  1  0  0  0  0
  3  9  1  0  0  0  0
  3 10  1  0  0  0  0
  4 11  1  0  0  0  0
  5 13  1  0  0  0  0
  5  4  1  0  0  0  0
  6  5  1  0  0  0  0
  6 16  1  0  0  0  0
 12  4  1  0  0  0  0
 14  5  1  0  0  0  0
 15  6  1  0  0  0  0
 17 18  1  0  0  0  0
 17  1  1  0  0  0  0
 18 23  1  0  0  0  0
 19 24  1  0  0  0  0
 19 18  2  0  0  0  0
 20 19  1  0  0  0  0
 21 20  2  0  0  0  0
 21 22  1  0  0  0  0
 22 17  2  0  0  0  0
 25 21  1  0  0  0  0
 26  2  1  0  0  0  0
 27 26  1  0  0  0  0
 28 27  1  0  0  0  0
 28 26  1  0  0  0  0
M  END
>  <minimizedAffinity>
-4.42989826

$$$$

 OpenBabel03242517093D

 28 30  0  0  1  0  0  0  0  0999 V2000
   37.8310   26.8600   42.5290 C   0  0  2  0  0  0  0  0  0  0  0  0
   39.2650   26.5800   42.2820 C   0  0  2  0  0  0  0  0  0  0  0  0
   39.4650   25.4310   41.3090 C   0  0  0  0  0  0  0  0  0  0  0  0
   38.7320   24.1740   41.6650 C   0  0  0  0  0  0  0  0  0  0  0  0
   37.3600   24.4190   42.2370 C   0  0  0  0  0  0  0  0  0  0  0  0
   36.8850   25.8160   41.9540 C   0  0  0  0  0  0  0  0  0  0  0  0
   37.6590   26.8520   43.6490 H   0  0  0  0  0  0  0  0  0  0  0  0
   39.6780   27.4490   41.7240 H   0  0  0  0  0  0  0  0  0  0  0  0
   40.5590   25.1650   41.4170 H   0  0  0  0  0  0  0  0  0  0  0  0
   39.3370   25.6810   40.2650 H   0  0  0  0  0  0  0  0  0  0  0  0
   38.7030   23.5660   40.7260 H   0  0  0  0  0  0  0  0  0  0  0  0
   39.2580   23.5240   42.3940 H   0  0  0  0  0  0  0  0  0  0  0  0
   36.6580   23.7440   41.6700 H   0  0  0  0  0  0  0  0  0  0  0  0
   37.2550   24.1720   43.2960 H   0  0  0  0  0  0  0  0  0  0  0  0
   35.9170   25.9300   42.5060 H   0  0  0  0  0  0  0  0  0  0  0  0
   36.6740   26.0070   40.8970 H   0  0  0  0  0  0  0  0  0  0  0  0
   37.4130   28.1680   41.9900 C   0  0  0  0  0  0  0  0  0  0  0  0
   36.1740   28.1800   41.3200 C   0  0  0  0  0  0  0  0  0  0  0  0
   35.6730   29.3640   40.7640 C   0  0  0  0  0  0  0  0  0  0  0  0
   36.4680   30.4830   40.9220 N   0  0  0  0  0  0  0  0  0  0  0  0
   37.6510   30.4460   41.5680 C   0  0  0  0  0  0  0  0  0  0  0  0
   38.1200   29.2910   42.1000 N   0  0  0  0  0  0  0  0  0  0  0  0
   35.4860   27.3670   41.1450 H   0  0  0  0  0  0  0  0  0  0  0  0
   34.7450   29.4600   40.2410 H   0  0  0  0  0  0  0  0  0  0  0  0
   38.2240   31.3630   41.6550 H   0  0  0  0  0  0  0  0  0  0  0  0
   40.0880   26.4340   43.5160 C   0  0  0  0  0  3  0  0  0  0  0  0
   41.4400   25.9220   43.5740 C   0  0  0  0  0  2  0  0  0  0  0  0
   41.2190   27.4360   43.6800 C   0  0  0  0  0  2  0  0  0  0  0  0
  1  7  1  1  0  0  0
  2  8  1  6  0  0  0
  2  1  1  0  0  0  0
  2 26  1  0  0  0  0
  3  9  1  0  0  0  0
  3  4  1  0  0  0  0
  3  2  1  0  0  0  0
  4  5  1  0  0  0  0
  4 12  1  0  0  0  0
  5 14  1  0  0  0  0
  6  5  1  0  0  0  0
  6 15  1  0  0  0  0
  6  1  1  0  0  0  0
 10  3  1  0  0  0  0
 11  4  1  0  0  0  0
 13  5  1  0  0  0  0
 16  6  1  0  0  0  0
 17 22  1  0  0  0  0
 17  1  1  0  0  0  0
 18 17  2  0  0  0  0
 19 20  2  0  0  0  0
 19 18  1  0  0  0  0
 20 21  1  0  0  0  0
 21 25  1  0  0  0  0
 21 22  2  0  0  0  0
 23 18  1  0  0  0  0
 24 19  1  0  0  0  0
 26 27  1  0  0  0  0
 26 28  1  0  0  0  0
 27 28  1  0  0  0  0
M  END
>  <minimizedAffinity>
-4.42749596

$$$$

 OpenBabel03242517093D

 28 30  0  0  1  0  0  0  0  0999 V2000
   36.9750   26.8490   41.3670 C   0  0  2  0  0  0  0  0  0  0  0  0
   37.6840   28.0680   40.9090 C   0  0  2  0  0  0  0  0  0  0  0  0
   38.5930   28.6390   41.9820 C   0  0  0  0  0  0  0  0  0  0  0  0
   37.9310   28.8750   43.3050 C   0  0  0  0  0  0  0  0  0  0  0  0
   36.9370   27.8060   43.6800 C   0  0  0  0  0  0  0  0  0  0  0  0
   37.1250   26.5640   42.8540 C   0  0  0  0  0  0  0  0  0  0  0  0
   35.8670   26.9990   41.1890 H   0  0  0  0  0  0  0  0  0  0  0  0
   38.4020   27.7540   40.1200 H   0  0  0  0  0  0  0  0  0  0  0  0
   38.8530   29.6730   41.6040 H   0  0  0  0  0  0  0  0  0  0  0  0
   39.5430   28.1350   42.1010 H   0  0  0  0  0  0  0  0  0  0  0  0
   38.7630   28.9660   44.0470 H   0  0  0  0  0  0  0  0  0  0  0  0
   37.3890   29.8400   43.3840 H   0  0  0  0  0  0  0  0  0  0  0  0
   37.1860   27.5030   44.7360 H   0  0  0  0  0  0  0  0  0  0  0  0
   35.8940   28.1290   43.6770 H   0  0  0  0  0  0  0  0  0  0  0  0
   36.2810   25.8810   43.1300 H   0  0  0  0  0  0  0  0  0  0  0  0
   38.0540   26.0260   43.0670 H   0  0  0  0  0  0  0  0  0  0  0  0
   37.4160   25.6400   40.6470 C   0  0  0  0  0  0  0  0  0  0  0  0
   37.1110   24.4160   41.2730 C   0  0  0  0  0  0  0  0  0  0  0  0
   37.4800   23.2000   40.6850 C   0  0  0  0  0  0  0  0  0  0  0  0
   38.1480   23.2960   39.4800 N   0  0  0  0  0  0  0  0  0  0  0  0
   38.4290   24.4800   38.8990 C   0  0  0  0  0  0  0  0  0  0  0  0
   38.0640   25.6470   39.4830 N   0  0  0  0  0  0  0  0  0  0  0  0
   36.5980   24.2370   42.2070 H   0  0  0  0  0  0  0  0  0  0  0  0
   37.2880   22.2300   41.0920 H   0  0  0  0  0  0  0  0  0  0  0  0
   38.9560   24.4820   37.9510 H   0  0  0  0  0  0  0  0  0  0  0  0
   36.8020   29.1030   40.2980 C   0  0  0  0  0  3  0  0  0  0  0  0
   35.9340   28.9050   39.1580 C   0  0  0  0  0  2  0  0  0  0  0  0
   35.3130   28.9430   40.5600 C   0  0  0  0  0  2  0  0  0  0  0  0
  1  7  1  6  0  0  0
  1  6  1  0  0  0  0
  2  8  1  6  0  0  0
  2  1  1  0  0  0  0
  2  3  1  0  0  0  0
  3 10  1  0  0  0  0
  3  4  1  0  0  0  0
  4 12  1  0  0  0  0
  4  5  1  0  0  0  0
  4 11  1  0  0  0  0
  5 13  1  0  0  0  0
  6 16  1  0  0  0  0
  6 15  1  0  0  0  0
  6  5  1  0  0  0  0
  9  3  1  0  0  0  0
 14  5  1  0  0  0  0
 17 18  1  0  0  0  0
 17  1  1  0  0  0  0
 18 23  1  0  0  0  0
 19 24  1  0  0  0  0
 19 18  2  0  0  0  0
 20 19  1  0  0  0  0
 21 20  2  0  0  0  0
 21 22  1  0  0  0  0
 22 17  2  0  0  0  0
 25 21  1  0  0  0  0
 26 28  1  0  0  0  0
 26  2  1  0  0  0  0
 27 26  1  0  0  0  0
 27 28  1  0  0  0  0
M  END
>  <minimizedAffinity>
-4.34769583

$$$$
