
 OpenBabel03252509163D

 19 21  0  0  0  0  0  0  0  0999 V2000
   45.8810   33.2880   46.3950 C   0  0  0  0  0  0  0  0  0  0  0  0
   45.1460   33.1190   47.5950 C   0  0  0  0  0  0  0  0  0  0  0  0
   45.5480   32.2040   48.4990 C   0  0  0  0  0  0  0  0  0  0  0  0
   46.6990   31.4370   48.2140 C   0  0  0  0  0  0  0  0  0  0  0  0
   47.2140   32.0670   46.5780 S   0  0  0  0  0  0  0  0  0  0  0  0
   44.2610   33.7250   47.7900 H   0  0  0  0  0  0  0  0  0  0  0  0
   45.1070   31.9690   49.4240 H   0  0  0  0  0  0  0  0  0  0  0  0
   44.4500   36.0550   44.3680 C   0  0  0  0  0  0  0  0  0  0  0  0
   45.1460   35.8460   43.1490 C   0  0  0  0  0  0  0  0  0  0  0  0
   46.0620   34.7760   43.0910 C   0  0  0  0  0  0  0  0  0  0  0  0
   46.2220   34.0050   44.2120 N   0  0  0  0  0  0  0  0  0  0  0  0
   45.5300   34.2520   45.3480 C   0  0  0  0  0  0  0  0  0  0  0  0
   44.6420   35.2760   45.4320 N   0  0  0  0  0  0  0  0  0  0  0  0
   43.7450   36.8730   44.4260 H   0  0  0  0  0  0  0  0  0  0  0  0
   45.0030   36.4680   42.2770 H   0  0  0  0  0  0  0  0  0  0  0  0
   46.6330   34.5450   42.2040 H   0  0  0  0  0  0  0  0  0  0  0  0
   47.4410   30.3670   48.9230 C   0  0  0  0  0  3  0  0  0  0  0  0
   48.6630   29.7750   48.2340 C   0  0  0  0  0  2  0  0  0  0  0  0
   48.7630   30.6860   49.4510 C   0  0  0  0  0  2  0  0  0  0  0  0
  1  5  1  0  0  0  0
  1  2  2  0  0  0  0
  2  6  1  0  0  0  0
  2  3  1  0  0  0  0
  3  7  1  0  0  0  0
  4  3  2  0  0  0  0
  4 17  1  0  0  0  0
  5  4  1  0  0  0  0
  8 14  1  0  0  0  0
  8 13  1  0  0  0  0
  9  8  2  0  0  0  0
 10  9  1  0  0  0  0
 10 11  2  0  0  0  0
 11 12  1  0  0  0  0
 12 13  2  0  0  0  0
 12  1  1  0  0  0  0
 15  9  1  0  0  0  0
 16 10  1  0  0  0  0
 17 19  1  0  0  0  0
 18 17  1  0  0  0  0
 18 19  1  0  0  0  0
M  END
>  <minimizedAffinity>
-4.44038248

>  <minimizedRMSD>
0.517301559

$$$$
