
 OpenBabel03242514573D

 19 20  0  0  0  0  0  0  0  0999 V2000
   44.6400   35.9520   42.9400 S   0  0  0  0  0  0  0  0  0  0  0  0
   45.4700   34.7480   43.9790 C   0  0  0  0  0  0  0  0  0  0  0  0
   46.5470   34.0870   43.3810 C   0  0  0  0  0  0  0  0  0  0  0  0
   47.2310   33.1390   44.1370 C   0  0  0  0  0  0  0  0  0  0  0  0
   46.8240   32.8990   45.4240 N   0  0  0  0  0  0  0  0  0  0  0  0
   45.7760   33.5560   45.9750 C   0  0  0  0  0  0  0  0  0  0  0  0
   45.1040   34.4730   45.2620 N   0  0  0  0  0  0  0  0  0  0  0  0
   46.8590   34.2810   42.3720 H   0  0  0  0  0  0  0  0  0  0  0  0
   48.0720   32.6010   43.7190 H   0  0  0  0  0  0  0  0  0  0  0  0
   45.4760   33.3450   46.9990 H   0  0  0  0  0  0  0  0  0  0  0  0
   44.0820   35.3020   41.3930 C   0  0  0  0  0  0  0  0  0  0  0  0
   43.9520   36.1750   40.6860 H   0  0  0  0  0  0  0  0  0  0  0  0
   44.8920   34.7050   40.9270 H   0  0  0  0  0  0  0  0  0  0  0  0
   42.8090   34.5520   41.4050 C   0  0  0  0  0  0  0  0  0  0  0  0
   42.6850   33.9930   40.4520 H   0  0  0  0  0  0  0  0  0  0  0  0
   42.8920   33.7450   42.1840 H   0  0  0  0  0  0  0  0  0  0  0  0
   41.5670   35.3140   41.6670 C   0  0  0  0  0  0  0  0  0  0  0  0
   40.2170   34.7080   41.3950 C   0  0  0  0  0  0  0  0  0  0  0  0
   40.7210   35.9620   40.6730 C   0  0  0  0  0  0  0  0  0  0  0  0
  1  2  1  0  0  0  0
  2  7  1  0  0  0  0
  3  2  2  0  0  0  0
  3  4  1  0  0  0  0
  4  5  2  0  0  0  0
  5  6  1  0  0  0  0
  6 10  1  0  0  0  0
  7  6  2  0  0  0  0
  8  3  1  0  0  0  0
  9  4  1  0  0  0  0
 11 14  1  0  0  0  0
 11  1  1  0  0  0  0
 12 11  1  0  0  0  0
 13 11  1  0  0  0  0
 14 17  1  0  0  0  0
 14 16  1  0  0  0  0
 15 14  1  0  0  0  0
 18 17  1  0  0  0  0
 19 18  1  0  0  0  0
 19 17  1  0  0  0  0
M  END
>  <minimizedAffinity>
-3.56590557

>  <minimizedRMSD>
0.878860354

$$$$
