
 OpenBabel03252509143D

 39 43  0  0  1  0  0  0  0  0999 V2000
   47.4650   32.6080   44.0270 C   0  0  0  0  0  0  0  0  0  0  0  0
   46.7730   33.4510   43.1620 C   0  0  0  0  0  0  0  0  0  0  0  0
   45.7150   34.2510   43.5640 C   0  0  0  0  0  0  0  0  0  0  0  0
   45.3190   34.2140   44.9040 C   0  0  0  0  0  0  0  0  0  0  0  0
   44.3630   34.8330   45.6360 N   0  0  0  0  0  0  0  0  0  0  0  0
   44.4390   34.4070   46.9150 C   0  0  0  0  0  0  0  0  0  0  0  0
   45.4450   33.5270   46.9540 N   0  0  0  0  0  0  0  0  0  0  0  0
   46.0100   33.3820   45.7390 C   0  0  0  0  0  0  0  0  0  0  0  0
   47.0700   32.5700   45.3730 C   0  0  0  0  0  0  0  0  0  0  0  0
   48.2830   32.0030   43.6660 H   0  0  0  0  0  0  0  0  0  0  0  0
   43.7020   35.5240   45.2140 H   0  0  0  0  0  0  0  0  0  0  0  0
   43.7940   34.7320   47.7370 H   0  0  0  0  0  0  0  0  0  0  0  0
   47.5770   31.9310   46.0830 H   0  0  0  0  0  0  0  0  0  0  0  0
   47.3340   32.4530   39.6740 C   0  0  0  0  0  0  0  0  0  0  0  0
   47.9400   33.5790   39.1270 C   0  0  0  0  0  0  0  0  0  0  0  0
   48.1540   34.6750   39.9570 C   0  0  0  0  0  0  0  0  0  0  0  0
   47.7670   34.6170   41.2740 N   0  0  0  0  0  0  0  0  0  0  0  0
   47.1790   33.4950   41.7580 C   0  0  0  0  0  0  0  0  0  0  0  0
   46.9490   32.3990   40.9860 N   0  0  0  0  0  0  0  0  0  0  0  0
   47.1460   31.5780   39.0730 H   0  0  0  0  0  0  0  0  0  0  0  0
   48.2290   33.5770   38.0780 H   0  0  0  0  0  0  0  0  0  0  0  0
   48.6200   35.5600   39.5700 H   0  0  0  0  0  0  0  0  0  0  0  0
   44.8560   35.3100   42.4400 S   0  0  0  0  0  0  0  0  0  0  0  0
   42.4390   35.3380   41.4060 N   0  0  0  0  0  0  0  0  0  0  0  0
   43.5790   34.4510   41.4670 C   0  0  1  0  0  0  0  0  0  0  0  0
   44.1940   34.2700   40.0730 C   0  0  0  0  0  0  0  0  0  0  0  0
   43.2440   34.0560   39.0940 O   0  0  0  0  0  0  0  0  0  0  0  0
   41.9620   33.8320   39.5390 C   0  0  0  0  0  0  0  0  0  0  0  0
   41.5250   35.0140   40.3540 C   0  0  1  0  0  0  0  0  0  0  0  0
   42.0320   35.3850   42.3520 H   0  0  0  0  0  0  0  0  0  0  0  0
   43.3220   33.4640   41.8990 H   0  0  0  0  0  0  0  0  0  0  0  0
   44.8200   33.3860   40.0440 H   0  0  0  0  0  0  0  0  0  0  0  0
   44.7290   35.2050   39.8080 H   0  0  0  0  0  0  0  0  0  0  0  0
   41.9740   32.9030   40.1490 H   0  0  0  0  0  0  0  0  0  0  0  0
   41.3260   33.7110   38.6600 H   0  0  0  0  0  0  0  0  0  0  0  0
   41.5540   35.8910   39.6450 H   0  0  0  0  0  0  0  0  0  0  0  0
   40.0930   34.9350   40.8120 C   0  0  0  0  0  3  0  0  0  0  0  0
   38.9750   34.7060   39.8790 C   0  0  0  0  0  2  0  0  0  0  0  0
   39.3410   33.6850   40.9250 C   0  0  0  0  0  2  0  0  0  0  0  0
  1  9  1  0  0  0  0
  2  3  1  0  0  0  0
  2  1  2  0  0  0  0
  3  4  2  0  0  0  0
  4  5  1  0  0  0  0
  4  8  1  0  0  0  0
  5  6  1  0  0  0  0
  6  7  2  0  0  0  0
  6 12  1  0  0  0  0
  8  7  1  0  0  0  0
  9  8  2  0  0  0  0
  9 13  1  0  0  0  0
 10  1  1  0  0  0  0
 11  5  1  0  0  0  0
 14 19  1  0  0  0  0
 15 14  2  0  0  0  0
 15 16  1  0  0  0  0
 16 17  2  0  0  0  0
 17 18  1  0  0  0  0
 18  2  1  0  0  0  0
 19 18  2  0  0  0  0
 20 14  1  0  0  0  0
 21 15  1  0  0  0  0
 22 16  1  0  0  0  0
 23  3  1  0  0  0  0
 24 25  1  0  0  0  0
 24 30  1  0  0  0  0
 25 31  1  1  0  0  0
 25 23  1  0  0  0  0
 26 25  1  0  0  0  0
 27 28  1  0  0  0  0
 27 26  1  0  0  0  0
 28 34  1  0  0  0  0
 28 29  1  0  0  0  0
 29 36  1  6  0  0  0
 29 37  1  0  0  0  0
 29 24  1  0  0  0  0
 32 26  1  0  0  0  0
 33 26  1  0  0  0  0
 35 28  1  0  0  0  0
 37 39  1  0  0  0  0
 38 37  1  0  0  0  0
 38 39  1  0  0  0  0
M  END
>  <minimizedAffinity>
-5.71823788

>  <minimizedRMSD>
1.16838837

$$$$
