
 OpenBabel03252507433D

 25 27  0  0  0  0  0  0  0  0999 V2000
   46.4400   34.3310   40.8980 C   0  0  0  0  0  0  0  0  0  0  0  0
   46.1510   33.4230   40.3830 H   0  0  0  0  0  0  0  0  0  0  0  0
   46.3490   35.1470   40.1210 H   0  0  0  0  0  0  0  0  0  0  0  0
   47.8210   34.2930   41.4140 C   0  0  0  0  0  0  0  0  0  0  0  0
   48.4860   33.0690   41.3280 C   0  0  0  0  0  0  0  0  0  0  0  0
   49.7960   32.9680   41.7990 C   0  0  0  0  0  0  0  0  0  0  0  0
   50.3680   34.0850   42.3240 N   0  0  0  0  0  0  0  0  0  0  0  0
   49.6950   35.2570   42.3920 C   0  0  0  0  0  0  0  0  0  0  0  0
   48.4530   35.3340   41.9410 N   0  0  0  0  0  0  0  0  0  0  0  0
   50.3290   32.0250   41.7410 H   0  0  0  0  0  0  0  0  0  0  0  0
   50.2370   36.0850   42.8260 H   0  0  0  0  0  0  0  0  0  0  0  0
   47.6620   31.6300   40.6190 S   0  0  0  0  0  0  0  0  0  0  0  0
   47.1760   31.9100   39.3370 H   0  0  0  0  0  0  0  0  0  0  0  0
   45.4190   34.6310   41.9380 C   0  0  0  0  0  0  0  0  0  0  0  0
   45.3190   33.7360   42.5980 H   0  0  0  0  0  0  0  0  0  0  0  0
   45.7560   35.4510   42.6220 H   0  0  0  0  0  0  0  0  0  0  0  0
   44.0550   34.9130   41.4080 C   0  0  0  0  0  0  0  0  0  0  0  0
   43.0060   35.3210   42.2990 C   0  0  0  0  0  0  0  0  0  0  0  0
   41.5720   35.5260   41.1320 S   0  0  0  0  0  0  0  0  0  0  0  0
   42.6550   35.0240   39.6700 C   0  0  0  0  0  0  0  0  0  0  0  0
   43.6680   34.8290   40.1560 N   0  0  0  0  0  0  0  0  0  0  0  0
   43.0930   35.4550   43.3560 H   0  0  0  0  0  0  0  0  0  0  0  0
   42.1470   34.9490   38.2600 C   0  0  0  0  0  0  0  0  0  0  0  0
   40.6650   34.8140   38.1270 C   0  0  0  0  0  0  0  0  0  0  0  0
   41.3310   36.0770   37.7380 C   0  0  0  0  0  0  0  0  0  0  0  0
  1  4  1  0  0  0  0
  1 14  1  0  0  0  0
  2  1  1  0  0  0  0
  3  1  1  0  0  0  0
  4  9  1  0  0  0  0
  5  4  2  0  0  0  0
  5  6  1  0  0  0  0
  6  7  2  0  0  0  0
  7  8  1  0  0  0  0
  8 11  1  0  0  0  0
  9  8  2  0  0  0  0
 10  6  1  0  0  0  0
 12  5  1  0  0  0  0
 13 12  1  0  0  0  0
 14 15  1  0  0  0  0
 14 16  1  0  0  0  0
 17 14  1  0  0  0  0
 17 18  2  0  0  0  0
 18 22  1  0  0  0  0
 19 18  1  0  0  0  0
 20 21  2  0  0  0  0
 20 19  1  0  0  0  0
 21 17  1  0  0  0  0
 23 20  1  0  0  0  0
 24 23  1  0  0  0  0
 25 24  1  0  0  0  0
 25 23  1  0  0  0  0
M  END
>  <minimizedAffinity>
-4.47416687

>  <minimizedRMSD>
0.797582805

$$$$
