
 OpenBabel03252509183D

 35 38  0  0  1  0  0  0  0  0999 V2000
   47.8250   29.7690   48.1940 C   0  0  1  0  0  0  0  0  0  0  0  0
   47.7900   28.6500   47.2100 C   0  0  0  0  0  0  0  0  0  0  0  0
   49.0830   27.9280   47.0210 C   0  0  0  0  0  0  0  0  0  0  0  0
   49.8230   27.6800   48.3090 C   0  0  0  0  0  0  0  0  0  0  0  0
   49.8280   28.8750   49.2330 C   0  0  0  0  0  0  0  0  0  0  0  0
   49.3060   30.1000   48.4830 C   0  0  2  0  0  0  0  0  0  0  0  0
   47.4430   29.4490   49.1890 H   0  0  0  0  0  0  0  0  0  0  0  0
   47.0080   27.9230   47.5190 H   0  0  0  0  0  0  0  0  0  0  0  0
   47.4660   28.9940   46.1840 H   0  0  0  0  0  0  0  0  0  0  0  0
   48.8240   26.9190   46.6130 H   0  0  0  0  0  0  0  0  0  0  0  0
   49.6790   28.4370   46.2440 H   0  0  0  0  0  0  0  0  0  0  0  0
   50.8970   27.4900   48.0290 H   0  0  0  0  0  0  0  0  0  0  0  0
   49.4810   26.7530   48.8100 H   0  0  0  0  0  0  0  0  0  0  0  0
   50.8060   29.0640   49.6910 H   0  0  0  0  0  0  0  0  0  0  0  0
   49.0870   28.6750   50.0500 H   0  0  0  0  0  0  0  0  0  0  0  0
   49.8570   30.2890   47.5600 H   0  0  0  0  0  0  0  0  0  0  0  0
   46.0630   32.9780   46.3440 C   0  0  0  0  0  0  0  0  0  0  0  0
   45.5440   32.7430   47.6260 C   0  0  0  0  0  0  0  0  0  0  0  0
   46.0460   31.7180   48.3340 C   0  0  0  0  0  0  0  0  0  0  0  0
   47.0650   30.9130   47.7850 C   0  0  0  0  0  0  0  0  0  0  0  0
   47.3320   31.6650   46.1460 S   0  0  0  0  0  0  0  0  0  0  0  0
   44.7630   33.3610   48.0430 H   0  0  0  0  0  0  0  0  0  0  0  0
   45.7790   31.3830   49.3250 H   0  0  0  0  0  0  0  0  0  0  0  0
   44.4340   35.9310   44.7710 C   0  0  0  0  0  0  0  0  0  0  0  0
   45.0480   35.8890   43.4930 C   0  0  0  0  0  0  0  0  0  0  0  0
   45.9860   34.8580   43.2300 C   0  0  0  0  0  0  0  0  0  0  0  0
   46.2350   33.9720   44.2290 N   0  0  0  0  0  0  0  0  0  0  0  0
   45.6200   34.0530   45.4440 C   0  0  0  0  0  0  0  0  0  0  0  0
   44.7200   35.0290   45.7180 N   0  0  0  0  0  0  0  0  0  0  0  0
   43.7240   36.7040   44.9860 H   0  0  0  0  0  0  0  0  0  0  0  0
   44.8170   36.6180   42.7280 H   0  0  0  0  0  0  0  0  0  0  0  0
   46.4620   34.8010   42.2810 H   0  0  0  0  0  0  0  0  0  0  0  0
   49.3150   31.2640   49.4500 C   0  0  0  0  0  3  0  0  0  0  0  0
   50.1290   31.0960   50.6810 C   0  0  0  0  0  2  0  0  0  0  0  0
   50.5780   32.0310   49.5710 C   0  0  0  0  0  2  0  0  0  0  0  0
  1  6  1  0  0  0  0
  1  7  1  1  0  0  0
  2  8  1  0  0  0  0
  2  1  1  0  0  0  0
  3  2  1  0  0  0  0
  3  4  1  0  0  0  0
  4 13  1  0  0  0  0
  4  5  1  0  0  0  0
  5 14  1  0  0  0  0
  5 15  1  0  0  0  0
  6 16  1  6  0  0  0
  6  5  1  0  0  0  0
  6 33  1  0  0  0  0
  9  2  1  0  0  0  0
 10  3  1  0  0  0  0
 11  3  1  0  0  0  0
 12  4  1  0  0  0  0
 17 18  2  0  0  0  0
 18 22  1  0  0  0  0
 18 19  1  0  0  0  0
 19 23  1  0  0  0  0
 20  1  1  0  0  0  0
 20 19  2  0  0  0  0
 21 17  1  0  0  0  0
 21 20  1  0  0  0  0
 24 30  1  0  0  0  0
 24 29  1  0  0  0  0
 25 24  2  0  0  0  0
 26 25  1  0  0  0  0
 26 27  2  0  0  0  0
 27 28  1  0  0  0  0
 28 29  2  0  0  0  0
 28 17  1  0  0  0  0
 31 25  1  0  0  0  0
 32 26  1  0  0  0  0
 33 35  1  0  0  0  0
 33 34  1  0  0  0  0
 35 34  1  0  0  0  0
M  END
>  <minimizedAffinity>
-5.20996284

>  <minimizedRMSD>
1.23894894

$$$$
