
 OpenBabel03242521403D

 15 16  0  0  0  0  0  0  0  0999 V2000
   37.6810   30.9940   40.8750 C   0  0  0  0  0  0  0  0  0  0  0  0
   37.1950   29.9610   41.6980 C   0  0  0  0  0  0  0  0  0  0  0  0
   38.0340   29.5100   42.7430 C   0  0  0  0  0  0  0  0  0  0  0  0
   39.2400   30.0980   42.8820 N   0  0  0  0  0  0  0  0  0  0  0  0
   39.6630   31.0920   42.0600 C   0  0  0  0  0  0  0  0  0  0  0  0
   38.8850   31.5370   41.0610 N   0  0  0  0  0  0  0  0  0  0  0  0
   36.2160   29.5390   41.5240 H   0  0  0  0  0  0  0  0  0  0  0  0
   40.6470   31.4850   42.2690 H   0  0  0  0  0  0  0  0  0  0  0  0
   36.7780   31.4610   39.7690 C   0  0  0  0  0  0  0  0  0  0  0  0
   36.2970   30.6190   39.2300 H   0  0  0  0  0  0  0  0  0  0  0  0
   37.4240   32.0400   39.0490 H   0  0  0  0  0  0  0  0  0  0  0  0
   36.0220   32.1910   40.1280 H   0  0  0  0  0  0  0  0  0  0  0  0
   37.5750   28.4340   43.6310 C   0  0  0  0  0  3  0  0  0  0  0  0
   38.0820   27.0530   43.2150 C   0  0  0  0  0  2  0  0  0  0  0  0
   36.6170   27.4070   43.1940 C   0  0  0  0  0  2  0  0  0  0  0  0
  1  6  2  0  0  0  0
  1  2  1  0  0  0  0
  2  3  2  0  0  0  0
  3  4  1  0  0  0  0
  3 13  1  0  0  0  0
  5  8  1  0  0  0  0
  5  4  2  0  0  0  0
  6  5  1  0  0  0  0
  7  2  1  0  0  0  0
  9 12  1  0  0  0  0
  9  1  1  0  0  0  0
 10  9  1  0  0  0  0
 11  9  1  0  0  0  0
 14 13  1  0  0  0  0
 15 14  1  0  0  0  0
 15 13  1  0  0  0  0
M  END
>  <minimizedAffinity>
-3.65584803

$$$$

 OpenBabel03242521403D

 15 16  0  0  0  0  0  0  0  0999 V2000
   38.8910   31.2250   41.3440 C   0  0  0  0  0  0  0  0  0  0  0  0
   38.9020   30.1690   42.2730 C   0  0  0  0  0  0  0  0  0  0  0  0
   37.6860   29.4800   42.4920 C   0  0  0  0  0  0  0  0  0  0  0  0
   36.6010   29.8790   41.7970 N   0  0  0  0  0  0  0  0  0  0  0  0
   36.6430   30.9060   40.9090 C   0  0  0  0  0  0  0  0  0  0  0  0
   37.7840   31.5740   40.6850 N   0  0  0  0  0  0  0  0  0  0  0  0
   39.8120   29.9070   42.7930 H   0  0  0  0  0  0  0  0  0  0  0  0
   35.7120   31.1330   40.4130 H   0  0  0  0  0  0  0  0  0  0  0  0
   40.1890   31.9470   41.1240 C   0  0  0  0  0  0  0  0  0  0  0  0
   40.7200   32.1640   42.0740 H   0  0  0  0  0  0  0  0  0  0  0  0
   39.9350   32.9190   40.6130 H   0  0  0  0  0  0  0  0  0  0  0  0
   40.8490   31.4110   40.4090 H   0  0  0  0  0  0  0  0  0  0  0  0
   37.6420   28.3690   43.4520 C   0  0  0  0  0  3  0  0  0  0  0  0
   37.7830   26.9980   42.7920 C   0  0  0  0  0  2  0  0  0  0  0  0
   36.5220   27.4180   43.5030 C   0  0  0  0  0  2  0  0  0  0  0  0
  1  2  1  0  0  0  0
  2  3  2  0  0  0  0
  2  7  1  0  0  0  0
  3 13  1  0  0  0  0
  4  3  1  0  0  0  0
  5  4  2  0  0  0  0
  6  5  1  0  0  0  0
  6  1  2  0  0  0  0
  8  5  1  0  0  0  0
  9  1  1  0  0  0  0
  9 10  1  0  0  0  0
 11  9  1  0  0  0  0
 12  9  1  0  0  0  0
 13 15  1  0  0  0  0
 14 13  1  0  0  0  0
 14 15  1  0  0  0  0
M  END
>  <minimizedAffinity>
-3.61001396

$$$$

 OpenBabel03242521403D

 15 16  0  0  0  0  0  0  0  0999 V2000
   37.3290   28.6050   42.7120 C   0  0  0  0  0  0  0  0  0  0  0  0
   36.6290   29.3030   41.7110 C   0  0  0  0  0  0  0  0  0  0  0  0
   37.2540   30.4410   41.1500 C   0  0  0  0  0  0  0  0  0  0  0  0
   38.4770   30.7800   41.6080 N   0  0  0  0  0  0  0  0  0  0  0  0
   39.1110   30.0720   42.5780 C   0  0  0  0  0  0  0  0  0  0  0  0
   38.5390   28.9900   43.1260 N   0  0  0  0  0  0  0  0  0  0  0  0
   35.6510   28.9700   41.3960 H   0  0  0  0  0  0  0  0  0  0  0  0
   40.0860   30.4390   42.8630 H   0  0  0  0  0  0  0  0  0  0  0  0
   36.6520   27.4010   43.2990 C   0  0  0  0  0  0  0  0  0  0  0  0
   35.5790   27.5820   43.5170 H   0  0  0  0  0  0  0  0  0  0  0  0
   37.1900   27.1650   44.2620 H   0  0  0  0  0  0  0  0  0  0  0  0
   36.7850   26.4970   42.6670 H   0  0  0  0  0  0  0  0  0  0  0  0
   36.5660   31.2060   40.1020 C   0  0  0  0  0  3  0  0  0  0  0  0
   37.0060   30.8210   38.6890 C   0  0  0  0  0  2  0  0  0  0  0  0
   37.2630   32.1920   39.2610 C   0  0  0  0  0  2  0  0  0  0  0  0
  1  6  1  0  0  0  0
  1  9  1  0  0  0  0
  2  1  2  0  0  0  0
  3  4  2  0  0  0  0
  3  2  1  0  0  0  0
  4  5  1  0  0  0  0
  5  8  1  0  0  0  0
  5  6  2  0  0  0  0
  7  2  1  0  0  0  0
  9 10  1  0  0  0  0
  9 11  1  0  0  0  0
 12  9  1  0  0  0  0
 13  3  1  0  0  0  0
 14 15  1  0  0  0  0
 14 13  1  0  0  0  0
 15 13  1  0  0  0  0
M  END
>  <minimizedAffinity>
-3.58011007

$$$$

 OpenBabel03242521403D

 15 16  0  0  0  0  0  0  0  0999 V2000
   37.7290   25.0870   42.2100 C   0  0  0  0  0  0  0  0  0  0  0  0
   37.3440   26.4240   42.4200 C   0  0  0  0  0  0  0  0  0  0  0  0
   38.2490   27.2610   43.1140 C   0  0  0  0  0  0  0  0  0  0  0  0
   39.4160   26.7250   43.5270 N   0  0  0  0  0  0  0  0  0  0  0  0
   39.7400   25.4260   43.2980 C   0  0  0  0  0  0  0  0  0  0  0  0
   38.8980   24.6120   42.6420 N   0  0  0  0  0  0  0  0  0  0  0  0
   36.3910   26.7820   42.0600 H   0  0  0  0  0  0  0  0  0  0  0  0
   40.7010   25.1100   43.6750 H   0  0  0  0  0  0  0  0  0  0  0  0
   36.7570   24.2110   41.4720 C   0  0  0  0  0  0  0  0  0  0  0  0
   35.7130   24.3500   41.8200 H   0  0  0  0  0  0  0  0  0  0  0  0
   37.0720   23.1460   41.6660 H   0  0  0  0  0  0  0  0  0  0  0  0
   36.8330   24.3380   40.3710 H   0  0  0  0  0  0  0  0  0  0  0  0
   37.8970   28.6660   43.3610 C   0  0  0  0  0  3  0  0  0  0  0  0
   37.6960   29.4690   42.0770 C   0  0  0  0  0  2  0  0  0  0  0  0
   38.8120   29.7730   43.0440 C   0  0  0  0  0  2  0  0  0  0  0  0
  1  2  2  0  0  0  0
  1  6  1  0  0  0  0
  2  3  1  0  0  0  0
  3 13  1  0  0  0  0
  3  4  2  0  0  0  0
  5  4  1  0  0  0  0
  5  8  1  0  0  0  0
  6  5  2  0  0  0  0
  7  2  1  0  0  0  0
  9 11  1  0  0  0  0
  9 10  1  0  0  0  0
  9  1  1  0  0  0  0
 12  9  1  0  0  0  0
 14 15  1  0  0  0  0
 14 13  1  0  0  0  0
 15 13  1  0  0  0  0
M  END
>  <minimizedAffinity>
-3.55000234

$$$$

 OpenBabel03242521403D

 15 16  0  0  0  0  0  0  0  0999 V2000
   36.6750   29.0780   41.5440 C   0  0  0  0  0  0  0  0  0  0  0  0
   36.4810   27.6860   41.4820 C   0  0  0  0  0  0  0  0  0  0  0  0
   37.2120   26.8850   42.3900 C   0  0  0  0  0  0  0  0  0  0  0  0
   38.0420   27.5060   43.2540 N   0  0  0  0  0  0  0  0  0  0  0  0
   38.1920   28.8560   43.2730 C   0  0  0  0  0  0  0  0  0  0  0  0
   37.5110   29.6370   42.4210 N   0  0  0  0  0  0  0  0  0  0  0  0
   35.7990   27.2610   40.7610 H   0  0  0  0  0  0  0  0  0  0  0  0
   38.8850   29.2380   44.0090 H   0  0  0  0  0  0  0  0  0  0  0  0
   35.8930   29.9150   40.5720 C   0  0  0  0  0  0  0  0  0  0  0  0
   35.8930   29.4870   39.5490 H   0  0  0  0  0  0  0  0  0  0  0  0
   36.3870   30.9280   40.5490 H   0  0  0  0  0  0  0  0  0  0  0  0
   34.8580   30.1080   40.9260 H   0  0  0  0  0  0  0  0  0  0  0  0
   37.0480   25.4260   42.3680 C   0  0  0  0  0  3  0  0  0  0  0  0
   38.2300   24.6970   41.7290 C   0  0  0  0  0  2  0  0  0  0  0  0
   36.8520   24.6750   41.1180 C   0  0  0  0  0  2  0  0  0  0  0  0
  1  6  1  0  0  0  0
  2  1  2  0  0  0  0
  2  3  1  0  0  0  0
  3  4  2  0  0  0  0
  4  5  1  0  0  0  0
  5  8  1  0  0  0  0
  6  5  2  0  0  0  0
  7  2  1  0  0  0  0
  9 12  1  0  0  0  0
  9  1  1  0  0  0  0
 10  9  1  0  0  0  0
 11  9  1  0  0  0  0
 13  3  1  0  0  0  0
 14 13  1  0  0  0  0
 15 14  1  0  0  0  0
 15 13  1  0  0  0  0
M  END
>  <minimizedAffinity>
-3.51292467

$$$$

 OpenBabel03242521403D

 15 16  0  0  0  0  0  0  0  0999 V2000
   36.7810   30.9080   40.3300 C   0  0  0  0  0  0  0  0  0  0  0  0
   37.5000   30.5230   41.4770 C   0  0  0  0  0  0  0  0  0  0  0  0
   37.1660   29.2830   42.0700 C   0  0  0  0  0  0  0  0  0  0  0  0
   36.1860   28.5540   41.4990 N   0  0  0  0  0  0  0  0  0  0  0  0
   35.5210   28.9710   40.3900 C   0  0  0  0  0  0  0  0  0  0  0  0
   35.8190   30.1430   39.8100 N   0  0  0  0  0  0  0  0  0  0  0  0
   38.2730   31.1620   41.8770 H   0  0  0  0  0  0  0  0  0  0  0  0
   34.7570   28.3020   40.0240 H   0  0  0  0  0  0  0  0  0  0  0  0
   37.1450   32.2280   39.7130 C   0  0  0  0  0  0  0  0  0  0  0  0
   37.2820   33.0270   40.4710 H   0  0  0  0  0  0  0  0  0  0  0  0
   36.2940   32.5100   39.0290 H   0  0  0  0  0  0  0  0  0  0  0  0
   38.0330   32.1480   39.0500 H   0  0  0  0  0  0  0  0  0  0  0  0
   37.8860   28.8330   43.2690 C   0  0  0  0  0  3  0  0  0  0  0  0
   39.1170   27.9860   42.9490 C   0  0  0  0  0  2  0  0  0  0  0  0
   37.9250   27.4220   43.6800 C   0  0  0  0  0  2  0  0  0  0  0  0
  1  2  1  0  0  0  0
  2  7  1  0  0  0  0
  2  3  2  0  0  0  0
  3 13  1  0  0  0  0
  4  3  1  0  0  0  0
  5  4  2  0  0  0  0
  6  1  2  0  0  0  0
  6  5  1  0  0  0  0
  8  5  1  0  0  0  0
  9  1  1  0  0  0  0
  9 10  1  0  0  0  0
 11  9  1  0  0  0  0
 12  9  1  0  0  0  0
 13 15  1  0  0  0  0
 14 13  1  0  0  0  0
 14 15  1  0  0  0  0
M  END
>  <minimizedAffinity>
-3.47595119

$$$$

 OpenBabel03242521403D

 15 16  0  0  0  0  0  0  0  0999 V2000
   35.9140   29.4330   39.8450 C   0  0  0  0  0  0  0  0  0  0  0  0
   36.0730   28.8590   41.1190 C   0  0  0  0  0  0  0  0  0  0  0  0
   37.1420   29.3290   41.9180 C   0  0  0  0  0  0  0  0  0  0  0  0
   37.9330   30.2950   41.4080 N   0  0  0  0  0  0  0  0  0  0  0  0
   37.7370   30.8170   40.1700 C   0  0  0  0  0  0  0  0  0  0  0  0
   36.7310   30.3870   39.3940 N   0  0  0  0  0  0  0  0  0  0  0  0
   35.3970   28.0880   41.4590 H   0  0  0  0  0  0  0  0  0  0  0  0
   38.4350   31.5850   39.8700 H   0  0  0  0  0  0  0  0  0  0  0  0
   34.7760   28.9220   39.0090 C   0  0  0  0  0  0  0  0  0  0  0  0
   34.6920   27.8160   39.0380 H   0  0  0  0  0  0  0  0  0  0  0  0
   34.9830   29.2490   37.9490 H   0  0  0  0  0  0  0  0  0  0  0  0
   33.8120   29.4060   39.2750 H   0  0  0  0  0  0  0  0  0  0  0  0
   37.3530   28.7630   43.2570 C   0  0  0  0  0  3  0  0  0  0  0  0
   38.1860   27.4820   43.2440 C   0  0  0  0  0  2  0  0  0  0  0  0
   36.7430   27.4930   43.6790 C   0  0  0  0  0  2  0  0  0  0  0  0
  1  2  1  0  0  0  0
  2  7  1  0  0  0  0
  2  3  2  0  0  0  0
  3 13  1  0  0  0  0
  4  3  1  0  0  0  0
  5  4  2  0  0  0  0
  6  1  2  0  0  0  0
  6  5  1  0  0  0  0
  8  5  1  0  0  0  0
  9 10  1  0  0  0  0
  9 12  1  0  0  0  0
  9  1  1  0  0  0  0
 11  9  1  0  0  0  0
 13 15  1  0  0  0  0
 14 13  1  0  0  0  0
 14 15  1  0  0  0  0
M  END
>  <minimizedAffinity>
-3.45145869

$$$$

 OpenBabel03242521403D

 15 16  0  0  0  0  0  0  0  0999 V2000
   37.6900   32.3980   40.3640 C   0  0  0  0  0  0  0  0  0  0  0  0
   36.6640   31.4370   40.3020 C   0  0  0  0  0  0  0  0  0  0  0  0
   36.8810   30.2080   40.9690 C   0  0  0  0  0  0  0  0  0  0  0  0
   38.0520   30.0410   41.6180 N   0  0  0  0  0  0  0  0  0  0  0  0
   39.0110   31.0010   41.6470 C   0  0  0  0  0  0  0  0  0  0  0  0
   38.8280   32.1740   41.0220 N   0  0  0  0  0  0  0  0  0  0  0  0
   35.7530   31.6440   39.7620 H   0  0  0  0  0  0  0  0  0  0  0  0
   39.9050   30.7520   42.1990 H   0  0  0  0  0  0  0  0  0  0  0  0
   37.4450   33.6970   39.6500 C   0  0  0  0  0  0  0  0  0  0  0  0
   36.9990   33.5500   38.6450 H   0  0  0  0  0  0  0  0  0  0  0  0
   38.4490   34.1980   39.5390 H   0  0  0  0  0  0  0  0  0  0  0  0
   36.8380   34.4000   40.2590 H   0  0  0  0  0  0  0  0  0  0  0  0
   35.8430   29.1700   40.9360 C   0  0  0  0  0  3  0  0  0  0  0  0
   36.0050   28.1940   39.7720 C   0  0  0  0  0  2  0  0  0  0  0  0
   34.8170   29.1160   39.8840 C   0  0  0  0  0  2  0  0  0  0  0  0
  1  6  1  0  0  0  0
  2  1  2  0  0  0  0
  2  3  1  0  0  0  0
  3  4  2  0  0  0  0
  4  5  1  0  0  0  0
  5  8  1  0  0  0  0
  6  5  2  0  0  0  0
  7  2  1  0  0  0  0
  9 12  1  0  0  0  0
  9  1  1  0  0  0  0
 10  9  1  0  0  0  0
 11  9  1  0  0  0  0
 13  3  1  0  0  0  0
 14 15  1  0  0  0  0
 14 13  1  0  0  0  0
 15 13  1  0  0  0  0
M  END
>  <minimizedAffinity>
-3.42750525

$$$$

 OpenBabel03242521403D

 15 16  0  0  0  0  0  0  0  0999 V2000
   37.3040   29.1260   42.1220 C   0  0  0  0  0  0  0  0  0  0  0  0
   37.5680   30.4080   41.6060 C   0  0  0  0  0  0  0  0  0  0  0  0
   36.6990   30.8990   40.6040 C   0  0  0  0  0  0  0  0  0  0  0  0
   35.6780   30.1100   40.2110 N   0  0  0  0  0  0  0  0  0  0  0  0
   35.4660   28.8780   40.7420 C   0  0  0  0  0  0  0  0  0  0  0  0
   36.2760   28.3900   41.6930 N   0  0  0  0  0  0  0  0  0  0  0  0
   38.4070   30.9810   41.9710 H   0  0  0  0  0  0  0  0  0  0  0  0
   34.6170   28.3390   40.3480 H   0  0  0  0  0  0  0  0  0  0  0  0
   38.2360   28.6180   43.1840 C   0  0  0  0  0  0  0  0  0  0  0  0
   39.3000   28.8160   42.9440 H   0  0  0  0  0  0  0  0  0  0  0  0
   38.0730   27.5040   43.2500 H   0  0  0  0  0  0  0  0  0  0  0  0
   37.9720   29.0060   44.1910 H   0  0  0  0  0  0  0  0  0  0  0  0
   36.9300   32.2320   40.0310 C   0  0  0  0  0  3  0  0  0  0  0  0
   37.5460   32.1870   38.6330 C   0  0  0  0  0  2  0  0  0  0  0  0
   38.2800   32.7710   39.8130 C   0  0  0  0  0  2  0  0  0  0  0  0
  1  9  1  0  0  0  0
  2  7  1  0  0  0  0
  2  1  2  0  0  0  0
  3  2  1  0  0  0  0
  4  3  2  0  0  0  0
  4  5  1  0  0  0  0
  5  6  2  0  0  0  0
  6  1  1  0  0  0  0
  8  5  1  0  0  0  0
  9 11  1  0  0  0  0
  9 12  1  0  0  0  0
 10  9  1  0  0  0  0
 13  3  1  0  0  0  0
 14 15  1  0  0  0  0
 14 13  1  0  0  0  0
 15 13  1  0  0  0  0
M  END
>  <minimizedAffinity>
-3.37585974

$$$$
