
 OpenBabel03252502353D

 34 36  0  0  1  0  0  0  0  0999 V2000
   38.1750   31.7840   40.9450 C   0  0  2  0  0  0  0  0  0  0  0  0
   37.6910   32.7100   39.8160 C   0  0  0  0  0  0  0  0  0  0  0  0
   38.3000   34.0690   40.1810 C   0  0  0  0  0  0  0  0  0  0  0  0
   39.7740   33.9010   39.8740 C   0  0  0  0  0  0  0  0  0  0  0  0
   40.3790   32.8920   40.7880 C   0  0  0  0  0  0  0  0  0  0  0  0
   39.6470   31.5950   40.9120 C   0  0  1  0  0  0  0  0  0  0  0  0
   37.9160   32.3280   41.9020 H   0  0  0  0  0  0  0  0  0  0  0  0
   36.6000   32.6980   39.8650 H   0  0  0  0  0  0  0  0  0  0  0  0
   38.1220   32.4190   38.8450 H   0  0  0  0  0  0  0  0  0  0  0  0
   37.8560   34.8610   39.5320 H   0  0  0  0  0  0  0  0  0  0  0  0
   38.1620   34.2790   41.2460 H   0  0  0  0  0  0  0  0  0  0  0  0
   39.9210   33.6080   38.8250 H   0  0  0  0  0  0  0  0  0  0  0  0
   40.3030   34.8580   40.0430 H   0  0  0  0  0  0  0  0  0  0  0  0
   41.4260   32.6850   40.4720 H   0  0  0  0  0  0  0  0  0  0  0  0
   40.4630   33.3750   41.7950 H   0  0  0  0  0  0  0  0  0  0  0  0
   39.8860   30.9620   40.0120 H   0  0  0  0  0  0  0  0  0  0  0  0
   35.7810   29.1160   39.8170 C   0  0  0  0  0  0  0  0  0  0  0  0
   36.4910   30.3280   39.7940 C   0  0  0  0  0  0  0  0  0  0  0  0
   37.3880   30.5680   40.8510 C   0  0  0  0  0  0  0  0  0  0  0  0
   37.5040   29.6170   41.8150 N   0  0  0  0  0  0  0  0  0  0  0  0
   36.8170   28.4730   41.8130 C   0  0  0  0  0  0  0  0  0  0  0  0
   35.9430   28.2180   40.8000 N   0  0  0  0  0  0  0  0  0  0  0  0
   36.3850   31.0610   39.0270 H   0  0  0  0  0  0  0  0  0  0  0  0
   34.8350   28.8740   38.6880 C   0  0  0  0  0  0  0  0  0  0  0  0
   34.9050   27.5680   38.2420 F   0  0  0  0  0  0  0  0  0  0  0  0
   33.5470   29.2110   39.1040 F   0  0  0  0  0  0  0  0  0  0  0  0
   35.1190   29.7480   37.6450 F   0  0  0  0  0  0  0  0  0  0  0  0
   36.9760   27.4630   42.8950 C   0  0  0  0  0  0  0  0  0  0  0  0
   38.0620   27.7230   43.6700 F   0  0  0  0  0  0  0  0  0  0  0  0
   37.0630   26.1720   42.3290 F   0  0  0  0  0  0  0  0  0  0  0  0
   35.8520   27.3960   43.6790 F   0  0  0  0  0  0  0  0  0  0  0  0
   40.0570   30.9150   42.2030 C   0  0  0  0  0  3  0  0  0  0  0  0
   41.4070   31.1170   42.7660 C   0  0  0  0  0  2  0  0  0  0  0  0
   41.0710   29.8190   42.0190 C   0  0  0  0  0  2  0  0  0  0  0  0
  1  7  1  1  0  0  0
  2  8  1  0  0  0  0
  2  3  1  0  0  0  0
  2  1  1  0  0  0  0
  3 11  1  0  0  0  0
  4 13  1  0  0  0  0
  4  3  1  0  0  0  0
  4  5  1  0  0  0  0
  5  6  1  0  0  0  0
  5 15  1  0  0  0  0
  6 16  1  6  0  0  0
  6  1  1  0  0  0  0
  6 32  1  0  0  0  0
  9  2  1  0  0  0  0
 10  3  1  0  0  0  0
 12  4  1  0  0  0  0
 14  5  1  0  0  0  0
 17 22  1  0  0  0  0
 18 17  2  0  0  0  0
 18 19  1  0  0  0  0
 19  1  1  0  0  0  0
 19 20  2  0  0  0  0
 21 20  1  0  0  0  0
 21 28  1  0  0  0  0
 22 21  2  0  0  0  0
 23 18  1  0  0  0  0
 24 26  1  0  0  0  0
 24 17  1  0  0  0  0
 25 24  1  0  0  0  0
 27 24  1  0  0  0  0
 28 29  1  0  0  0  0
 28 31  1  0  0  0  0
 30 28  1  0  0  0  0
 32 33  1  0  0  0  0
 34 32  1  0  0  0  0
 34 33  1  0  0  0  0
M  END
>  <minimizedAffinity>
-6.10263109

$$$$

 OpenBabel03252502353D

 34 36  0  0  1  0  0  0  0  0999 V2000
   35.2110   29.4080   38.1260 C   0  0  2  0  0  0  0  0  0  0  0  0
   33.8380   29.0330   38.7090 C   0  0  0  0  0  0  0  0  0  0  0  0
   32.9260   28.9830   37.4760 C   0  0  0  0  0  0  0  0  0  0  0  0
   33.3500   27.7160   36.7620 C   0  0  0  0  0  0  0  0  0  0  0  0
   34.7480   27.8460   36.2660 C   0  0  0  0  0  0  0  0  0  0  0  0
   35.7550   28.3340   37.2570 C   0  0  1  0  0  0  0  0  0  0  0  0
   35.0170   30.3140   37.4780 H   0  0  0  0  0  0  0  0  0  0  0  0
   33.5790   29.8330   39.4050 H   0  0  0  0  0  0  0  0  0  0  0  0
   33.8470   28.0190   39.1380 H   0  0  0  0  0  0  0  0  0  0  0  0
   31.8630   28.9070   37.8040 H   0  0  0  0  0  0  0  0  0  0  0  0
   33.1020   29.8500   36.8330 H   0  0  0  0  0  0  0  0  0  0  0  0
   33.2580   26.8460   37.4270 H   0  0  0  0  0  0  0  0  0  0  0  0
   32.7020   27.5490   35.8810 H   0  0  0  0  0  0  0  0  0  0  0  0
   35.0910   26.8700   35.8570 H   0  0  0  0  0  0  0  0  0  0  0  0
   34.7180   28.5420   35.3880 H   0  0  0  0  0  0  0  0  0  0  0  0
   36.0450   27.4740   37.9250 H   0  0  0  0  0  0  0  0  0  0  0  0
   37.0920   29.4210   41.3790 C   0  0  0  0  0  0  0  0  0  0  0  0
   36.2640   28.9390   40.3500 C   0  0  0  0  0  0  0  0  0  0  0  0
   36.0500   29.7870   39.2480 C   0  0  0  0  0  0  0  0  0  0  0  0
   36.6530   31.0050   39.2550 N   0  0  0  0  0  0  0  0  0  0  0  0
   37.4350   31.4380   40.2460 C   0  0  0  0  0  0  0  0  0  0  0  0
   37.6580   30.6360   41.3230 N   0  0  0  0  0  0  0  0  0  0  0  0
   35.8000   27.9790   40.3660 H   0  0  0  0  0  0  0  0  0  0  0  0
   37.3120   28.5110   42.5410 C   0  0  0  0  0  0  0  0  0  0  0  0
   36.1650   27.8040   42.8520 F   0  0  0  0  0  0  0  0  0  0  0  0
   38.3800   27.6630   42.2490 F   0  0  0  0  0  0  0  0  0  0  0  0
   37.7260   29.2500   43.6430 F   0  0  0  0  0  0  0  0  0  0  0  0
   38.0720   32.7830   40.2090 C   0  0  0  0  0  0  0  0  0  0  0  0
   38.6410   33.1030   41.4020 F   0  0  0  0  0  0  0  0  0  0  0  0
   37.1140   33.7520   39.8380 F   0  0  0  0  0  0  0  0  0  0  0  0
   39.0110   32.8590   39.2110 F   0  0  0  0  0  0  0  0  0  0  0  0
   36.9510   28.8970   36.5150 C   0  0  0  0  0  3  0  0  0  0  0  0
   36.8090   30.0840   35.6470 C   0  0  0  0  0  2  0  0  0  0  0  0
   36.9000   28.6830   35.0270 C   0  0  0  0  0  2  0  0  0  0  0  0
  1  7  1  6  0  0  0
  1  2  1  0  0  0  0
  1 19  1  0  0  0  0
  2  9  1  0  0  0  0
  2  8  1  0  0  0  0
  3 10  1  0  0  0  0
  3  2  1  0  0  0  0
  4 12  1  0  0  0  0
  4  3  1  0  0  0  0
  5  4  1  0  0  0  0
  5  6  1  0  0  0  0
  6 16  1  1  0  0  0
  6  1  1  0  0  0  0
 11  3  1  0  0  0  0
 13  4  1  0  0  0  0
 14  5  1  0  0  0  0
 15  5  1  0  0  0  0
 17 24  1  0  0  0  0
 18 23  1  0  0  0  0
 18 17  2  0  0  0  0
 19 20  2  0  0  0  0
 19 18  1  0  0  0  0
 20 21  1  0  0  0  0
 21 22  2  0  0  0  0
 22 17  1  0  0  0  0
 24 25  1  0  0  0  0
 24 27  1  0  0  0  0
 26 24  1  0  0  0  0
 28 21  1  0  0  0  0
 28 29  1  0  0  0  0
 30 28  1  0  0  0  0
 31 28  1  0  0  0  0
 32  6  1  0  0  0  0
 33 32  1  0  0  0  0
 34 33  1  0  0  0  0
 34 32  1  0  0  0  0
M  END
>  <minimizedAffinity>
-5.53364086

$$$$

 OpenBabel03252502353D

 34 36  0  0  1  0  0  0  0  0999 V2000
   36.8810   27.8720   41.3330 C   0  0  2  0  0  0  0  0  0  0  0  0
   37.2470   28.9600   42.3570 C   0  0  0  0  0  0  0  0  0  0  0  0
   37.3450   28.1880   43.6790 C   0  0  0  0  0  0  0  0  0  0  0  0
   38.6320   27.4010   43.5460 C   0  0  0  0  0  0  0  0  0  0  0  0
   38.5090   26.3900   42.4590 C   0  0  0  0  0  0  0  0  0  0  0  0
   37.9810   26.8900   41.1530 C   0  0  1  0  0  0  0  0  0  0  0  0
   36.0000   27.3270   41.7840 H   0  0  0  0  0  0  0  0  0  0  0  0
   36.4250   29.6780   42.3360 H   0  0  0  0  0  0  0  0  0  0  0  0
   38.2460   29.3790   42.1600 H   0  0  0  0  0  0  0  0  0  0  0  0
   37.4170   28.9110   44.5260 H   0  0  0  0  0  0  0  0  0  0  0  0
   36.4990   27.5030   43.7880 H   0  0  0  0  0  0  0  0  0  0  0  0
   39.4800   28.0730   43.3520 H   0  0  0  0  0  0  0  0  0  0  0  0
   38.8340   26.8520   44.4850 H   0  0  0  0  0  0  0  0  0  0  0  0
   39.4960   25.9070   42.2860 H   0  0  0  0  0  0  0  0  0  0  0  0
   37.8440   25.5760   42.8470 H   0  0  0  0  0  0  0  0  0  0  0  0
   38.8150   27.4130   40.6070 H   0  0  0  0  0  0  0  0  0  0  0  0
   35.0770   28.8590   38.1870 C   0  0  0  0  0  0  0  0  0  0  0  0
   35.3870   28.1100   39.3350 C   0  0  0  0  0  0  0  0  0  0  0  0
   36.4590   28.5610   40.1270 C   0  0  0  0  0  0  0  0  0  0  0  0
   37.1160   29.6820   39.7290 N   0  0  0  0  0  0  0  0  0  0  0  0
   36.8010   30.3760   38.6340 C   0  0  0  0  0  0  0  0  0  0  0  0
   35.7680   29.9590   37.8510 N   0  0  0  0  0  0  0  0  0  0  0  0
   34.8580   27.2320   39.6290 H   0  0  0  0  0  0  0  0  0  0  0  0
   33.9370   28.3700   37.3580 C   0  0  0  0  0  0  0  0  0  0  0  0
   33.8340   26.9920   37.4060 F   0  0  0  0  0  0  0  0  0  0  0  0
   32.7680   28.9930   37.7920 F   0  0  0  0  0  0  0  0  0  0  0  0
   34.1030   28.7870   36.0420 F   0  0  0  0  0  0  0  0  0  0  0  0
   37.5540   31.5970   38.2370 C   0  0  0  0  0  0  0  0  0  0  0  0
   37.6650   31.7030   36.8860 F   0  0  0  0  0  0  0  0  0  0  0  0
   38.8290   31.5870   38.8440 F   0  0  0  0  0  0  0  0  0  0  0  0
   36.9650   32.7280   38.7450 F   0  0  0  0  0  0  0  0  0  0  0  0
   37.4340   25.7210   40.3580 C   0  0  0  0  0  3  0  0  0  0  0  0
   36.7170   24.6200   41.0320 C   0  0  0  0  0  2  0  0  0  0  0  0
   38.1730   24.4300   40.5870 C   0  0  0  0  0  2  0  0  0  0  0  0
  1  7  1  1  0  0  0
  1  2  1  0  0  0  0
  2  3  1  0  0  0  0
  3 11  1  0  0  0  0
  3 10  1  0  0  0  0
  4  3  1  0  0  0  0
  4 13  1  0  0  0  0
  5 15  1  0  0  0  0
  5  4  1  0  0  0  0
  6 16  1  6  0  0  0
  6  1  1  0  0  0  0
  6  5  1  0  0  0  0
  8  2  1  0  0  0  0
  9  2  1  0  0  0  0
 12  4  1  0  0  0  0
 14  5  1  0  0  0  0
 17 18  1  0  0  0  0
 18 23  1  0  0  0  0
 18 19  2  0  0  0  0
 19  1  1  0  0  0  0
 20 19  1  0  0  0  0
 21 20  2  0  0  0  0
 22 17  2  0  0  0  0
 22 21  1  0  0  0  0
 24 25  1  0  0  0  0
 24 26  1  0  0  0  0
 24 17  1  0  0  0  0
 27 24  1  0  0  0  0
 28 21  1  0  0  0  0
 28 31  1  0  0  0  0
 28 30  1  0  0  0  0
 29 28  1  0  0  0  0
 32 34  1  0  0  0  0
 32 33  1  0  0  0  0
 32  6  1  0  0  0  0
 34 33  1  0  0  0  0
M  END
>  <minimizedAffinity>
-5.49268484

$$$$

 OpenBabel03252502353D

 34 36  0  0  1  0  0  0  0  0999 V2000
   37.7510   27.1190   40.1360 C   0  0  2  0  0  0  0  0  0  0  0  0
   38.1070   25.9320   39.2230 C   0  0  0  0  0  0  0  0  0  0  0  0
   39.0210   25.0670   40.1010 C   0  0  0  0  0  0  0  0  0  0  0  0
   38.0740   24.4470   41.1090 C   0  0  0  0  0  0  0  0  0  0  0  0
   37.4950   25.5010   41.9880 C   0  0  0  0  0  0  0  0  0  0  0  0
   36.9240   26.6950   41.2940 C   0  0  1  0  0  0  0  0  0  0  0  0
   38.7410   27.4910   40.5330 H   0  0  0  0  0  0  0  0  0  0  0  0
   38.6190   26.3620   38.3600 H   0  0  0  0  0  0  0  0  0  0  0  0
   37.2200   25.3230   38.9900 H   0  0  0  0  0  0  0  0  0  0  0  0
   39.4940   24.2750   39.4750 H   0  0  0  0  0  0  0  0  0  0  0  0
   39.7600   25.6880   40.6160 H   0  0  0  0  0  0  0  0  0  0  0  0
   37.2760   23.8890   40.6000 H   0  0  0  0  0  0  0  0  0  0  0  0
   38.6290   23.7440   41.7580 H   0  0  0  0  0  0  0  0  0  0  0  0
   36.7100   25.0540   42.6370 H   0  0  0  0  0  0  0  0  0  0  0  0
   38.3090   25.8260   42.6860 H   0  0  0  0  0  0  0  0  0  0  0  0
   35.9040   26.4260   40.9000 H   0  0  0  0  0  0  0  0  0  0  0  0
   37.1480   30.2320   38.1200 C   0  0  0  0  0  0  0  0  0  0  0  0
   37.8300   29.3230   38.9460 C   0  0  0  0  0  0  0  0  0  0  0  0
   37.1580   28.1340   39.2840 C   0  0  0  0  0  0  0  0  0  0  0  0
   35.9040   27.9490   38.7920 N   0  0  0  0  0  0  0  0  0  0  0  0
   35.2800   28.8300   38.0080 C   0  0  0  0  0  0  0  0  0  0  0  0
   35.9100   29.9880   37.6670 N   0  0  0  0  0  0  0  0  0  0  0  0
   38.8140   29.4880   39.3220 H   0  0  0  0  0  0  0  0  0  0  0  0
   37.8740   31.4880   37.7680 C   0  0  0  0  0  0  0  0  0  0  0  0
   39.2310   31.3700   38.0060 F   0  0  0  0  0  0  0  0  0  0  0  0
   37.6070   31.8010   36.4350 F   0  0  0  0  0  0  0  0  0  0  0  0
   37.3550   32.5500   38.5000 F   0  0  0  0  0  0  0  0  0  0  0  0
   33.9040   28.5840   37.4960 C   0  0  0  0  0  0  0  0  0  0  0  0
   33.7290   29.1080   36.2540 F   0  0  0  0  0  0  0  0  0  0  0  0
   32.9590   29.1160   38.4000 F   0  0  0  0  0  0  0  0  0  0  0  0
   33.6150   27.2430   37.4790 F   0  0  0  0  0  0  0  0  0  0  0  0
   36.8630   27.8550   42.2690 C   0  0  0  0  0  3  0  0  0  0  0  0
   37.9040   28.0270   43.3020 C   0  0  0  0  0  2  0  0  0  0  0  0
   36.5340   27.4470   43.6790 C   0  0  0  0  0  2  0  0  0  0  0  0
  1  7  1  1  0  0  0
  1  6  1  0  0  0  0
  2  3  1  0  0  0  0
  2  1  1  0  0  0  0
  3 11  1  0  0  0  0
  3  4  1  0  0  0  0
  4 13  1  0  0  0  0
  4  5  1  0  0  0  0
  5 14  1  0  0  0  0
  5 15  1  0  0  0  0
  6 16  1  6  0  0  0
  6  5  1  0  0  0  0
  6 32  1  0  0  0  0
  8  2  1  0  0  0  0
  9  2  1  0  0  0  0
 10  3  1  0  0  0  0
 12  4  1  0  0  0  0
 17 18  1  0  0  0  0
 18 19  2  0  0  0  0
 18 23  1  0  0  0  0
 19  1  1  0  0  0  0
 20 19  1  0  0  0  0
 21 20  2  0  0  0  0
 22 21  1  0  0  0  0
 22 17  2  0  0  0  0
 24 25  1  0  0  0  0
 24 17  1  0  0  0  0
 24 27  1  0  0  0  0
 26 24  1  0  0  0  0
 28 21  1  0  0  0  0
 28 30  1  0  0  0  0
 29 28  1  0  0  0  0
 31 28  1  0  0  0  0
 32 33  1  0  0  0  0
 32 34  1  0  0  0  0
 33 34  1  0  0  0  0
M  END
>  <minimizedAffinity>
-5.39813089

$$$$

 OpenBabel03252502353D

 34 36  0  0  1  0  0  0  0  0999 V2000
   35.5410   28.8540   38.0660 C   0  0  2  0  0  0  0  0  0  0  0  0
   34.0450   28.9180   38.4180 C   0  0  0  0  0  0  0  0  0  0  0  0
   33.3510   28.5780   37.0930 C   0  0  0  0  0  0  0  0  0  0  0  0
   33.5970   27.0930   36.9240 C   0  0  0  0  0  0  0  0  0  0  0  0
   35.0500   26.8290   36.7350 C   0  0  0  0  0  0  0  0  0  0  0  0
   35.9690   27.4740   37.7210 C   0  0  1  0  0  0  0  0  0  0  0  0
   35.6530   29.4940   37.1410 H   0  0  0  0  0  0  0  0  0  0  0  0
   33.8600   29.9400   38.7530 H   0  0  0  0  0  0  0  0  0  0  0  0
   33.7660   28.1290   39.1340 H   0  0  0  0  0  0  0  0  0  0  0  0
   32.2580   28.7830   37.1840 H   0  0  0  0  0  0  0  0  0  0  0  0
   33.8100   29.1290   36.2670 H   0  0  0  0  0  0  0  0  0  0  0  0
   33.2140   26.5350   37.7910 H   0  0  0  0  0  0  0  0  0  0  0  0
   33.0750   26.7280   36.0200 H   0  0  0  0  0  0  0  0  0  0  0  0
   35.2330   25.7320   36.7390 H   0  0  0  0  0  0  0  0  0  0  0  0
   35.3100   27.1700   35.7000 H   0  0  0  0  0  0  0  0  0  0  0  0
   35.9560   26.8700   38.6710 H   0  0  0  0  0  0  0  0  0  0  0  0
   37.4560   31.2580   40.2300 C   0  0  0  0  0  0  0  0  0  0  0  0
   36.7790   30.7730   39.0970 C   0  0  0  0  0  0  0  0  0  0  0  0
   36.2550   29.4700   39.1700 C   0  0  0  0  0  0  0  0  0  0  0  0
   36.4380   28.7740   40.3230 N   0  0  0  0  0  0  0  0  0  0  0  0
   37.0850   29.2580   41.3850 C   0  0  0  0  0  0  0  0  0  0  0  0
   37.6020   30.5170   41.3380 N   0  0  0  0  0  0  0  0  0  0  0  0
   36.6460   31.3380   38.2010 H   0  0  0  0  0  0  0  0  0  0  0  0
   38.0050   32.6420   40.1380 C   0  0  0  0  0  0  0  0  0  0  0  0
   38.5520   33.0480   41.3410 F   0  0  0  0  0  0  0  0  0  0  0  0
   38.9390   32.6860   39.1040 F   0  0  0  0  0  0  0  0  0  0  0  0
   36.9980   33.5210   39.7550 F   0  0  0  0  0  0  0  0  0  0  0  0
   37.2640   28.4550   42.6250 C   0  0  0  0  0  0  0  0  0  0  0  0
   37.6280   29.2320   43.6800 F   0  0  0  0  0  0  0  0  0  0  0  0
   38.2190   27.4400   42.4000 F   0  0  0  0  0  0  0  0  0  0  0  0
   36.1210   27.7600   42.9340 F   0  0  0  0  0  0  0  0  0  0  0  0
   37.3610   27.5550   37.1250 C   0  0  0  0  0  3  0  0  0  0  0  0
   37.5910   28.2440   35.8390 C   0  0  0  0  0  2  0  0  0  0  0  0
   37.5450   26.7110   35.8930 C   0  0  0  0  0  2  0  0  0  0  0  0
  1  7  1  6  0  0  0
  1  2  1  0  0  0  0
  1 19  1  0  0  0  0
  2  8  1  0  0  0  0
  2  9  1  0  0  0  0
  3 10  1  0  0  0  0
  3  2  1  0  0  0  0
  4  3  1  0  0  0  0
  4 12  1  0  0  0  0
  5 14  1  0  0  0  0
  5  4  1  0  0  0  0
  5  6  1  0  0  0  0
  6  1  1  0  0  0  0
  6 16  1  1  0  0  0
 11  3  1  0  0  0  0
 13  4  1  0  0  0  0
 15  5  1  0  0  0  0
 17 22  1  0  0  0  0
 18 19  1  0  0  0  0
 18 17  2  0  0  0  0
 19 20  2  0  0  0  0
 20 21  1  0  0  0  0
 21 28  1  0  0  0  0
 22 21  2  0  0  0  0
 23 18  1  0  0  0  0
 24 17  1  0  0  0  0
 24 25  1  0  0  0  0
 26 24  1  0  0  0  0
 27 24  1  0  0  0  0
 28 31  1  0  0  0  0
 28 29  1  0  0  0  0
 30 28  1  0  0  0  0
 32  6  1  0  0  0  0
 33 34  1  0  0  0  0
 33 32  1  0  0  0  0
 34 32  1  0  0  0  0
M  END
>  <minimizedAffinity>
-5.39155102

$$$$

 OpenBabel03252502353D

 34 36  0  0  1  0  0  0  0  0999 V2000
   39.0040   30.4710   40.1060 C   0  0  2  0  0  0  0  0  0  0  0  0
   40.4260   30.0150   40.4760 C   0  0  0  0  0  0  0  0  0  0  0  0
   41.3160   31.1340   39.9200 C   0  0  0  0  0  0  0  0  0  0  0  0
   41.0750   32.2930   40.8650 C   0  0  0  0  0  0  0  0  0  0  0  0
   39.6660   32.7630   40.7560 C   0  0  0  0  0  0  0  0  0  0  0  0
   38.6130   31.7050   40.8340 C   0  0  1  0  0  0  0  0  0  0  0  0
   39.0520   30.7170   39.0050 H   0  0  0  0  0  0  0  0  0  0  0  0
   40.5730   29.0560   39.9740 H   0  0  0  0  0  0  0  0  0  0  0  0
   40.5740   30.0040   41.5670 H   0  0  0  0  0  0  0  0  0  0  0  0
   42.3840   30.8140   39.9630 H   0  0  0  0  0  0  0  0  0  0  0  0
   41.0040   31.4060   38.9080 H   0  0  0  0  0  0  0  0  0  0  0  0
   41.3060   32.0050   41.9000 H   0  0  0  0  0  0  0  0  0  0  0  0
   41.7280   33.1420   40.5880 H   0  0  0  0  0  0  0  0  0  0  0  0
   39.4670   33.5260   41.5400 H   0  0  0  0  0  0  0  0  0  0  0  0
   39.5800   33.3080   39.7810 H   0  0  0  0  0  0  0  0  0  0  0  0
   38.4640   31.4270   41.9150 H   0  0  0  0  0  0  0  0  0  0  0  0
   37.1420   27.5810   41.6250 C   0  0  0  0  0  0  0  0  0  0  0  0
   38.0110   28.6840   41.5550 C   0  0  0  0  0  0  0  0  0  0  0  0
   38.1350   29.3260   40.3100 C   0  0  0  0  0  0  0  0  0  0  0  0
   37.4110   28.8390   39.2670 N   0  0  0  0  0  0  0  0  0  0  0  0
   36.5930   27.7890   39.3610 C   0  0  0  0  0  0  0  0  0  0  0  0
   36.4560   27.1510   40.5560 N   0  0  0  0  0  0  0  0  0  0  0  0
   38.5700   29.0500   42.3870 H   0  0  0  0  0  0  0  0  0  0  0  0
   37.0190   26.9110   42.9530 C   0  0  0  0  0  0  0  0  0  0  0  0
   38.1910   27.0130   43.6790 F   0  0  0  0  0  0  0  0  0  0  0  0
   35.9370   27.4640   43.6350 F   0  0  0  0  0  0  0  0  0  0  0  0
   36.6880   25.5720   42.7720 F   0  0  0  0  0  0  0  0  0  0  0  0
   35.8240   27.2900   38.1880 C   0  0  0  0  0  0  0  0  0  0  0  0
   34.6800   28.0000   37.9980 F   0  0  0  0  0  0  0  0  0  0  0  0
   35.5370   25.9180   38.3580 F   0  0  0  0  0  0  0  0  0  0  0  0
   36.5850   27.3210   37.0470 F   0  0  0  0  0  0  0  0  0  0  0  0
   37.3360   32.2290   40.2070 C   0  0  0  0  0  3  0  0  0  0  0  0
   37.2520   32.4640   38.7510 C   0  0  0  0  0  2  0  0  0  0  0  0
   37.4370   33.6460   39.7120 C   0  0  0  0  0  2  0  0  0  0  0  0
  1  7  1  6  0  0  0
  1 19  1  0  0  0  0
  1  2  1  0  0  0  0
  1  6  1  0  0  0  0
  2  9  1  0  0  0  0
  3 10  1  0  0  0  0
  3  2  1  0  0  0  0
  3  4  1  0  0  0  0
  4 12  1  0  0  0  0
  5  6  1  0  0  0  0
  5  4  1  0  0  0  0
  5 14  1  0  0  0  0
  6 16  1  1  0  0  0
  8  2  1  0  0  0  0
 11  3  1  0  0  0  0
 13  4  1  0  0  0  0
 15  5  1  0  0  0  0
 17 24  1  0  0  0  0
 18 17  1  0  0  0  0
 18 23  1  0  0  0  0
 19 18  2  0  0  0  0
 20 21  2  0  0  0  0
 20 19  1  0  0  0  0
 21 22  1  0  0  0  0
 22 17  2  0  0  0  0
 24 26  1  0  0  0  0
 24 25  1  0  0  0  0
 27 24  1  0  0  0  0
 28 30  1  0  0  0  0
 28 21  1  0  0  0  0
 29 28  1  0  0  0  0
 31 28  1  0  0  0  0
 32  6  1  0  0  0  0
 33 34  1  0  0  0  0
 33 32  1  0  0  0  0
 34 32  1  0  0  0  0
M  END
>  <minimizedAffinity>
-5.39042711

$$$$

 OpenBabel03252502353D

 34 36  0  0  1  0  0  0  0  0999 V2000
   37.7620   27.2960   40.1840 C   0  0  2  0  0  0  0  0  0  0  0  0
   38.4000   26.1960   39.3180 C   0  0  0  0  0  0  0  0  0  0  0  0
   39.3800   25.5100   40.2780 C   0  0  0  0  0  0  0  0  0  0  0  0
   38.4830   24.7270   41.2160 C   0  0  0  0  0  0  0  0  0  0  0  0
   37.6540   25.6570   42.0310 C   0  0  0  0  0  0  0  0  0  0  0  0
   36.9340   26.7280   41.2780 C   0  0  1  0  0  0  0  0  0  0  0  0
   38.6320   27.8420   40.6550 H   0  0  0  0  0  0  0  0  0  0  0  0
   38.8940   26.7130   38.4930 H   0  0  0  0  0  0  0  0  0  0  0  0
   37.6590   25.4360   39.0240 H   0  0  0  0  0  0  0  0  0  0  0  0
   40.0390   24.8170   39.7030 H   0  0  0  0  0  0  0  0  0  0  0  0
   39.9500   26.2530   40.8420 H   0  0  0  0  0  0  0  0  0  0  0  0
   37.8430   24.0340   40.6520 H   0  0  0  0  0  0  0  0  0  0  0  0
   39.1010   24.1350   41.9160 H   0  0  0  0  0  0  0  0  0  0  0  0
   36.9130   25.0740   42.6220 H   0  0  0  0  0  0  0  0  0  0  0  0
   38.3360   26.1220   42.7880 H   0  0  0  0  0  0  0  0  0  0  0  0
   36.0140   26.2790   40.8070 H   0  0  0  0  0  0  0  0  0  0  0  0
   35.2400   28.8160   37.8470 C   0  0  0  0  0  0  0  0  0  0  0  0
   35.8110   27.8740   38.7200 C   0  0  0  0  0  0  0  0  0  0  0  0
   37.0650   28.1890   39.2740 C   0  0  0  0  0  0  0  0  0  0  0  0
   37.6340   29.3740   38.9290 N   0  0  0  0  0  0  0  0  0  0  0  0
   37.0700   30.2510   38.0970 C   0  0  0  0  0  0  0  0  0  0  0  0
   35.8570   29.9690   37.5480 N   0  0  0  0  0  0  0  0  0  0  0  0
   35.3460   26.9490   38.9780 H   0  0  0  0  0  0  0  0  0  0  0  0
   33.9090   28.4690   37.2680 C   0  0  0  0  0  0  0  0  0  0  0  0
   33.6690   27.1100   37.3360 F   0  0  0  0  0  0  0  0  0  0  0  0
   32.9280   29.2030   37.9330 F   0  0  0  0  0  0  0  0  0  0  0  0
   33.8490   28.8960   35.9460 F   0  0  0  0  0  0  0  0  0  0  0  0
   37.7350   31.5360   37.7460 C   0  0  0  0  0  0  0  0  0  0  0  0
   39.0520   31.5290   38.0840 F   0  0  0  0  0  0  0  0  0  0  0  0
   37.0640   32.6060   38.3770 F   0  0  0  0  0  0  0  0  0  0  0  0
   37.6010   31.8140   36.4090 F   0  0  0  0  0  0  0  0  0  0  0  0
   36.5850   27.8560   42.2300 C   0  0  0  0  0  3  0  0  0  0  0  0
   37.6160   28.4520   43.1030 C   0  0  0  0  0  2  0  0  0  0  0  0
   36.6000   27.4550   43.6800 C   0  0  0  0  0  2  0  0  0  0  0  0
  1  7  1  1  0  0  0
  1  6  1  0  0  0  0
  2  1  1  0  0  0  0
  2  3  1  0  0  0  0
  3 11  1  0  0  0  0
  3  4  1  0  0  0  0
  4 13  1  0  0  0  0
  4  5  1  0  0  0  0
  5 14  1  0  0  0  0
  5 15  1  0  0  0  0
  6 16  1  6  0  0  0
  6  5  1  0  0  0  0
  6 32  1  0  0  0  0
  8  2  1  0  0  0  0
  9  2  1  0  0  0  0
 10  3  1  0  0  0  0
 12  4  1  0  0  0  0
 17 18  1  0  0  0  0
 18 23  1  0  0  0  0
 18 19  2  0  0  0  0
 19  1  1  0  0  0  0
 20 19  1  0  0  0  0
 21 20  2  0  0  0  0
 22 17  2  0  0  0  0
 22 21  1  0  0  0  0
 24 25  1  0  0  0  0
 24 17  1  0  0  0  0
 24 26  1  0  0  0  0
 27 24  1  0  0  0  0
 28 29  1  0  0  0  0
 28 21  1  0  0  0  0
 28 30  1  0  0  0  0
 31 28  1  0  0  0  0
 32 33  1  0  0  0  0
 32 34  1  0  0  0  0
 33 34  1  0  0  0  0
M  END
>  <minimizedAffinity>
-5.3784852

$$$$

 OpenBabel03252502353D

 34 36  0  0  1  0  0  0  0  0999 V2000
   35.6930   28.5630   38.2830 C   0  0  2  0  0  0  0  0  0  0  0  0
   34.5300   27.7610   37.6740 C   0  0  0  0  0  0  0  0  0  0  0  0
   33.7820   28.8000   36.8280 C   0  0  0  0  0  0  0  0  0  0  0  0
   34.6960   29.0280   35.6410 C   0  0  0  0  0  0  0  0  0  0  0  0
   35.9680   29.6610   36.0850 C   0  0  0  0  0  0  0  0  0  0  0  0
   36.6540   29.0160   37.2460 C   0  0  1  0  0  0  0  0  0  0  0  0
   35.2120   29.4800   38.7350 H   0  0  0  0  0  0  0  0  0  0  0  0
   33.9460   27.3910   38.5190 H   0  0  0  0  0  0  0  0  0  0  0  0
   34.8950   26.9890   36.9780 H   0  0  0  0  0  0  0  0  0  0  0  0
   32.8080   28.3720   36.4920 H   0  0  0  0  0  0  0  0  0  0  0  0
   33.6570   29.7310   37.3870 H   0  0  0  0  0  0  0  0  0  0  0  0
   34.8980   28.0820   35.1200 H   0  0  0  0  0  0  0  0  0  0  0  0
   34.2140   29.7210   34.9270 H   0  0  0  0  0  0  0  0  0  0  0  0
   36.6780   29.7080   35.2300 H   0  0  0  0  0  0  0  0  0  0  0  0
   35.7320   30.7270   36.3330 H   0  0  0  0  0  0  0  0  0  0  0  0
   37.2050   28.1060   36.8760 H   0  0  0  0  0  0  0  0  0  0  0  0
   36.9140   27.2970   41.6040 C   0  0  0  0  0  0  0  0  0  0  0  0
   36.3420   28.1810   40.6730 C   0  0  0  0  0  0  0  0  0  0  0  0
   36.2560   27.7410   39.3390 C   0  0  0  0  0  0  0  0  0  0  0  0
   36.7300   26.5020   39.0450 N   0  0  0  0  0  0  0  0  0  0  0  0
   37.2690   25.6820   39.9490 C   0  0  0  0  0  0  0  0  0  0  0  0
   37.3630   26.0840   41.2470 N   0  0  0  0  0  0  0  0  0  0  0  0
   35.9760   29.1500   40.9260 H   0  0  0  0  0  0  0  0  0  0  0  0
   36.9960   27.7750   43.0150 C   0  0  0  0  0  0  0  0  0  0  0  0
   37.2180   29.1380   43.0730 F   0  0  0  0  0  0  0  0  0  0  0  0
   35.8250   27.4110   43.6800 F   0  0  0  0  0  0  0  0  0  0  0  0
   38.0140   27.1000   43.6790 F   0  0  0  0  0  0  0  0  0  0  0  0
   37.7780   24.3340   39.5770 C   0  0  0  0  0  0  0  0  0  0  0  0
   39.1370   24.2930   39.5720 F   0  0  0  0  0  0  0  0  0  0  0  0
   37.2630   23.9630   38.3160 F   0  0  0  0  0  0  0  0  0  0  0  0
   37.2890   23.3700   40.4230 F   0  0  0  0  0  0  0  0  0  0  0  0
   37.5920   30.0190   37.8890 C   0  0  0  0  0  3  0  0  0  0  0  0
   37.0650   31.2370   38.5360 C   0  0  0  0  0  2  0  0  0  0  0  0
   37.6990   31.3190   37.1400 C   0  0  0  0  0  2  0  0  0  0  0  0
  1  7  1  1  0  0  0
  1 19  1  0  0  0  0
  2  1  1  0  0  0  0
  2  8  1  0  0  0  0
  3 11  1  0  0  0  0
  3  2  1  0  0  0  0
  4  5  1  0  0  0  0
  4  3  1  0  0  0  0
  5 15  1  0  0  0  0
  5  6  1  0  0  0  0
  6 16  1  6  0  0  0
  6 32  1  0  0  0  0
  6  1  1  0  0  0  0
  9  2  1  0  0  0  0
 10  3  1  0  0  0  0
 12  4  1  0  0  0  0
 13  4  1  0  0  0  0
 14  5  1  0  0  0  0
 17 24  1  0  0  0  0
 18 23  1  0  0  0  0
 18 17  2  0  0  0  0
 19 18  1  0  0  0  0
 20 19  2  0  0  0  0
 20 21  1  0  0  0  0
 21 22  2  0  0  0  0
 22 17  1  0  0  0  0
 24 25  1  0  0  0  0
 24 27  1  0  0  0  0
 24 26  1  0  0  0  0
 28 21  1  0  0  0  0
 28 31  1  0  0  0  0
 29 28  1  0  0  0  0
 30 28  1  0  0  0  0
 32 33  1  0  0  0  0
 34 32  1  0  0  0  0
 34 33  1  0  0  0  0
M  END
>  <minimizedAffinity>
-5.32153368

$$$$

 OpenBabel03252502353D

 34 36  0  0  1  0  0  0  0  0999 V2000
   35.6840   28.4540   38.2890 C   0  0  2  0  0  0  0  0  0  0  0  0
   34.4960   27.6900   37.6790 C   0  0  0  0  0  0  0  0  0  0  0  0
   33.7380   28.7710   36.8990 C   0  0  0  0  0  0  0  0  0  0  0  0
   34.6210   29.0400   35.6980 C   0  0  0  0  0  0  0  0  0  0  0  0
   35.9130   29.6410   36.1320 C   0  0  0  0  0  0  0  0  0  0  0  0
   36.6220   28.9410   37.2460 C   0  0  1  0  0  0  0  0  0  0  0  0
   35.2260   29.3570   38.7920 H   0  0  0  0  0  0  0  0  0  0  0  0
   33.9320   27.2910   38.5240 H   0  0  0  0  0  0  0  0  0  0  0  0
   34.8330   26.9450   36.9420 H   0  0  0  0  0  0  0  0  0  0  0  0
   32.7500   28.3690   36.5720 H   0  0  0  0  0  0  0  0  0  0  0  0
   33.6380   29.6800   37.5000 H   0  0  0  0  0  0  0  0  0  0  0  0
   34.7980   28.1150   35.1320 H   0  0  0  0  0  0  0  0  0  0  0  0
   34.1280   29.7680   35.0270 H   0  0  0  0  0  0  0  0  0  0  0  0
   36.6000   29.7160   35.2610 H   0  0  0  0  0  0  0  0  0  0  0  0
   35.6950   30.6980   36.4310 H   0  0  0  0  0  0  0  0  0  0  0  0
   37.1530   28.0420   36.8230 H   0  0  0  0  0  0  0  0  0  0  0  0
   37.2780   25.5430   40.0520 C   0  0  0  0  0  0  0  0  0  0  0  0
   36.7410   26.2940   38.9920 C   0  0  0  0  0  0  0  0  0  0  0  0
   36.2670   27.5830   39.2940 C   0  0  0  0  0  0  0  0  0  0  0  0
   36.3590   28.0100   40.5810 N   0  0  0  0  0  0  0  0  0  0  0  0
   36.8740   27.2760   41.5690 C   0  0  0  0  0  0  0  0  0  0  0  0
   37.3390   26.0250   41.3020 N   0  0  0  0  0  0  0  0  0  0  0  0
   36.6780   25.9380   37.9880 H   0  0  0  0  0  0  0  0  0  0  0  0
   37.7780   24.1770   39.7170 C   0  0  0  0  0  0  0  0  0  0  0  0
   37.1040   23.2040   40.4300 F   0  0  0  0  0  0  0  0  0  0  0  0
   37.6640   23.9840   38.3410 F   0  0  0  0  0  0  0  0  0  0  0  0
   39.1410   24.1010   39.9810 F   0  0  0  0  0  0  0  0  0  0  0  0
   36.9500   27.7870   42.9660 C   0  0  0  0  0  0  0  0  0  0  0  0
   35.8380   27.4670   43.6790 F   0  0  0  0  0  0  0  0  0  0  0  0
   37.1480   29.1850   42.9490 F   0  0  0  0  0  0  0  0  0  0  0  0
   38.0660   27.3110   43.6070 F   0  0  0  0  0  0  0  0  0  0  0  0
   37.5890   29.9060   37.9040 C   0  0  0  0  0  3  0  0  0  0  0  0
   37.0920   31.0860   38.6400 C   0  0  0  0  0  2  0  0  0  0  0  0
   37.6660   31.2460   37.2260 C   0  0  0  0  0  2  0  0  0  0  0  0
  1  7  1  1  0  0  0
  1 19  1  0  0  0  0
  2  1  1  0  0  0  0
  2  8  1  0  0  0  0
  3 11  1  0  0  0  0
  3  2  1  0  0  0  0
  4  5  1  0  0  0  0
  4  3  1  0  0  0  0
  5 15  1  0  0  0  0
  5  6  1  0  0  0  0
  6 16  1  6  0  0  0
  6 32  1  0  0  0  0
  6  1  1  0  0  0  0
  9  2  1  0  0  0  0
 10  3  1  0  0  0  0
 12  4  1  0  0  0  0
 13  4  1  0  0  0  0
 14  5  1  0  0  0  0
 17 22  1  0  0  0  0
 18 19  1  0  0  0  0
 18 17  2  0  0  0  0
 19 20  2  0  0  0  0
 20 21  1  0  0  0  0
 21 28  1  0  0  0  0
 22 21  2  0  0  0  0
 23 18  1  0  0  0  0
 24 27  1  0  0  0  0
 24 17  1  0  0  0  0
 24 25  1  0  0  0  0
 26 24  1  0  0  0  0
 28 31  1  0  0  0  0
 28 29  1  0  0  0  0
 30 28  1  0  0  0  0
 32 33  1  0  0  0  0
 34 32  1  0  0  0  0
 34 33  1  0  0  0  0
M  END
>  <minimizedAffinity>
-5.28487635

$$$$
