
 OpenBabel03242523473D

 13 14  0  0  0  0  0  0  0  0999 V2000
   44.8480   35.1760   44.1170 C   0  0  0  0  0  0  0  0  0  0  0  0
   45.6000   35.4560   42.9470 C   0  0  0  0  0  0  0  0  0  0  0  0
   46.8060   34.7580   42.7860 C   0  0  0  0  0  0  0  0  0  0  0  0
   47.1830   33.8620   43.7460 N   0  0  0  0  0  0  0  0  0  0  0  0
   46.4330   33.6350   44.8330 C   0  0  0  0  0  0  0  0  0  0  0  0
   45.2750   34.2900   45.0130 N   0  0  0  0  0  0  0  0  0  0  0  0
   45.2690   36.1670   42.2180 H   0  0  0  0  0  0  0  0  0  0  0  0
   46.8190   32.9050   45.5390 H   0  0  0  0  0  0  0  0  0  0  0  0
   47.6660   34.9840   41.5910 C   0  0  0  0  0  0  0  0  0  0  0  0
   48.9110   35.7790   41.6920 C   0  0  0  0  0  0  0  0  0  0  0  0
   48.9470   34.2700   41.4850 C   0  0  0  0  0  0  0  0  0  0  0  0
   43.6700   35.8650   44.2640 O   0  0  0  0  0  0  0  0  0  0  0  0
   42.8560   35.6060   43.7280 H   0  0  0  0  0  0  0  0  0  0  0  0
  1 12  1  0  0  0  0
  1  6  1  0  0  0  0
  2  1  2  0  0  0  0
  3  2  1  0  0  0  0
  3  4  2  0  0  0  0
  4  5  1  0  0  0  0
  5  6  2  0  0  0  0
  5  8  1  0  0  0  0
  7  2  1  0  0  0  0
  9 10  1  0  0  0  0
  9  3  1  0  0  0  0
 11  9  1  0  0  0  0
 11 10  1  0  0  0  0
 13 12  1  0  0  0  0
M  END
>  <minimizedAffinity>
-4.481143

>  <minimizedRMSD>
1.9914428

$$$$
