
 OpenBabel03252504423D

 39 42  0  0  0  0  0  0  0  0999 V2000
   46.3850   32.2080   47.7260 C   0  0  0  0  0  0  0  0  0  0  0  0
   45.9150   31.8310   48.9480 C   0  0  0  0  0  0  0  0  0  0  0  0
   46.8950   31.1460   49.5380 N   0  0  0  0  0  0  0  0  0  0  0  0
   47.9690   31.0690   48.7440 C   0  0  0  0  0  0  0  0  0  0  0  0
   47.6380   31.7420   47.6050 N   0  0  0  0  0  0  0  0  0  0  0  0
   49.2420   30.4570   48.9230 N   0  0  0  0  0  0  0  0  0  0  0  0
   50.2960   31.2780   49.5650 C   0  0  0  0  0  0  0  0  0  0  0  0
   50.3910   30.7320   50.9880 C   0  0  0  0  0  0  0  0  0  0  0  0
   50.4860   29.2300   50.9670 C   0  0  0  0  0  0  0  0  0  0  0  0
   50.8420   28.7560   49.5670 C   0  0  0  0  0  0  0  0  0  0  0  0
   49.7470   29.1610   48.6040 C   0  0  0  0  0  0  0  0  0  0  0  0
   44.9300   32.0490   49.3600 H   0  0  0  0  0  0  0  0  0  0  0  0
   46.8710   30.7090   50.4900 H   0  0  0  0  0  0  0  0  0  0  0  0
   51.2420   31.1910   49.0190 H   0  0  0  0  0  0  0  0  0  0  0  0
   49.9720   32.3330   49.6580 H   0  0  0  0  0  0  0  0  0  0  0  0
   49.4940   31.0150   51.5420 H   0  0  0  0  0  0  0  0  0  0  0  0
   51.3150   31.1500   51.4590 H   0  0  0  0  0  0  0  0  0  0  0  0
   49.5150   28.7500   51.2060 H   0  0  0  0  0  0  0  0  0  0  0  0
   51.2570   28.8300   51.6720 H   0  0  0  0  0  0  0  0  0  0  0  0
   50.9590   27.6590   49.5710 H   0  0  0  0  0  0  0  0  0  0  0  0
   51.8000   29.2440   49.3020 H   0  0  0  0  0  0  0  0  0  0  0  0
   50.1100   29.1000   47.5550 H   0  0  0  0  0  0  0  0  0  0  0  0
   48.9330   28.3960   48.7540 H   0  0  0  0  0  0  0  0  0  0  0  0
   45.6490   33.0030   46.6980 C   0  0  0  0  0  0  0  0  0  0  0  0
   45.3620   33.9850   47.1400 H   0  0  0  0  0  0  0  0  0  0  0  0
   44.7180   32.4650   46.3990 H   0  0  0  0  0  0  0  0  0  0  0  0
   46.0810   33.8900   44.4380 C   0  0  0  0  0  3  0  0  0  0  0  0
   46.4980   33.2570   45.5170 C   0  0  0  0  0  3  0  0  0  0  0  0
   47.0310   34.0660   43.3450 C   0  0  0  0  0  0  0  0  0  0  0  0
   46.7250   34.8790   42.2180 C   0  0  0  0  0  0  0  0  0  0  0  0
   47.6800   34.9880   41.2290 C   0  0  0  0  0  0  0  0  0  0  0  0
   48.8520   34.3340   41.3530 N   0  0  0  0  0  0  0  0  0  0  0  0
   49.1190   33.5690   42.4300 C   0  0  0  0  0  0  0  0  0  0  0  0
   48.2390   33.4350   43.4000 N   0  0  0  0  0  0  0  0  0  0  0  0
   45.7630   35.3640   42.2050 H   0  0  0  0  0  0  0  0  0  0  0  0
   47.4190   35.6110   40.3860 H   0  0  0  0  0  0  0  0  0  0  0  0
   50.4260   32.8700   42.5190 C   0  0  0  0  0  3  0  0  0  0  0  0
   50.9680   32.1670   41.3060 C   0  0  0  0  0  2  0  0  0  0  0  0
   50.5210   31.4010   42.5240 C   0  0  0  0  0  2  0  0  0  0  0  0
  1  2  2  0  0  0  0
  2 12  1  0  0  0  0
  2  3  1  0  0  0  0
  3 13  1  0  0  0  0
  4  6  1  0  0  0  0
  4  3  1  0  0  0  0
  5  1  1  0  0  0  0
  5  4  2  0  0  0  0
  6  7  1  0  0  0  0
  7 15  1  0  0  0  0
  7  8  1  0  0  0  0
  8 17  1  0  0  0  0
  8 16  1  0  0  0  0
  9  8  1  0  0  0  0
  9 18  1  0  0  0  0
  9 19  1  0  0  0  0
 10 20  1  0  0  0  0
 10  9  1  0  0  0  0
 11 23  1  0  0  0  0
 11  6  1  0  0  0  0
 11 10  1  0  0  0  0
 14  7  1  0  0  0  0
 21 10  1  0  0  0  0
 22 11  1  0  0  0  0
 24 25  1  0  0  0  0
 24  1  1  0  0  0  0
 26 24  1  0  0  0  0
 27 28  2  0  0  0  0
 28 24  1  0  0  0  0
 29 34  1  0  0  0  0
 29 27  1  0  0  0  0
 30 29  2  0  0  0  0
 31 32  2  0  0  0  0
 31 30  1  0  0  0  0
 32 33  1  0  0  0  0
 33 37  1  0  0  0  0
 33 34  2  0  0  0  0
 35 30  1  0  0  0  0
 36 31  1  0  0  0  0
 37 39  1  0  0  0  0
 38 37  1  0  0  0  0
 38 39  1  0  0  0  0
M  END
>  <minimizedAffinity>
-5.83095789

>  <minimizedRMSD>
0.261097014

$$$$
