
 OpenBabel03252508383D

 35 38  0  0  0  0  0  0  0  0999 V2000
   45.1510   33.9520   40.7070 C   0  0  0  0  0  0  0  0  0  0  0  0
   44.1070   33.6340   39.8950 C   0  0  0  0  0  0  0  0  0  0  0  0
   44.4020   33.1340   38.6520 C   0  0  0  0  0  0  0  0  0  0  0  0
   45.6840   32.9420   38.2000 C   0  0  0  0  0  0  0  0  0  0  0  0
   46.7130   33.2720   39.0440 C   0  0  0  0  0  0  0  0  0  0  0  0
   46.4700   33.7790   40.3020 C   0  0  0  0  0  0  0  0  0  0  0  0
   43.5770   32.8790   38.0020 H   0  0  0  0  0  0  0  0  0  0  0  0
   45.8650   32.5380   37.1990 H   0  0  0  0  0  0  0  0  0  0  0  0
   47.7370   33.1240   38.6940 H   0  0  0  0  0  0  0  0  0  0  0  0
   40.8220   35.2580   40.7940 C   0  0  0  0  0  0  0  0  0  0  0  0
   42.1280   35.0980   40.2710 C   0  0  0  0  0  0  0  0  0  0  0  0
   42.7650   33.8530   40.4130 C   0  0  0  0  0  0  0  0  0  0  0  0
   42.0630   32.8970   41.0480 N   0  0  0  0  0  0  0  0  0  0  0  0
   40.8320   33.0730   41.5320 C   0  0  0  0  0  0  0  0  0  0  0  0
   40.2150   34.2590   41.4020 N   0  0  0  0  0  0  0  0  0  0  0  0
   40.2190   36.5240   40.6300 N   0  0  0  0  0  0  0  0  0  0  0  0
   42.6960   35.8540   39.7630 H   0  0  0  0  0  0  0  0  0  0  0  0
   40.3000   32.2790   42.0370 H   0  0  0  0  0  0  0  0  0  0  0  0
   39.8110   36.5300   39.6570 H   0  0  0  0  0  0  0  0  0  0  0  0
   40.4150   36.9590   41.5380 H   0  0  0  0  0  0  0  0  0  0  0  0
   47.6310   34.0990   41.1220 C   0  0  0  0  0  0  0  0  0  0  0  0
   48.1380   35.3700   40.9490 C   0  0  0  0  0  0  0  0  0  0  0  0
   49.2490   35.8460   41.6540 C   0  0  0  0  0  0  0  0  0  0  0  0
   49.8470   34.9830   42.5600 C   0  0  0  0  0  0  0  0  0  0  0  0
   49.3530   33.7210   42.7400 C   0  0  0  0  0  0  0  0  0  0  0  0
   48.2510   33.2750   42.0280 C   0  0  0  0  0  0  0  0  0  0  0  0
   47.7280   36.1000   40.2640 H   0  0  0  0  0  0  0  0  0  0  0  0
   49.6450   36.8420   41.5180 H   0  0  0  0  0  0  0  0  0  0  0  0
   50.7160   35.2680   43.1530 H   0  0  0  0  0  0  0  0  0  0  0  0
   49.7840   33.0270   43.4260 H   0  0  0  0  0  0  0  0  0  0  0  0
   47.6260   31.9170   42.1430 C   0  0  0  0  0  3  0  0  0  0  0  0
   48.1150   30.9070   43.0850 C   0  0  0  0  0  2  0  0  0  0  0  0
   46.8640   31.6490   43.4570 C   0  0  0  0  0  2  0  0  0  0  0  0
   44.7560   34.9120   43.1040 N   0  0  0  0  0  0  0  0  0  0  0  0
   44.9300   34.4850   42.0290 C   0  0  0  0  0  0  0  0  0  0  0  0
  1 35  1  0  0  0  0
  2 12  1  0  0  0  0
  2  1  2  0  0  0  0
  3  2  1  0  0  0  0
  4  3  2  0  0  0  0
  4  5  1  0  0  0  0
  5  6  2  0  0  0  0
  6  1  1  0  0  0  0
  6 21  1  0  0  0  0
  7  3  1  0  0  0  0
  8  4  1  0  0  0  0
  9  5  1  0  0  0  0
 10 15  1  0  0  0  0
 11 12  1  0  0  0  0
 11 10  2  0  0  0  0
 12 13  2  0  0  0  0
 13 14  1  0  0  0  0
 14 18  1  0  0  0  0
 15 14  2  0  0  0  0
 16 10  1  0  0  0  0
 16 20  1  0  0  0  0
 17 11  1  0  0  0  0
 19 16  1  0  0  0  0
 21 26  1  0  0  0  0
 22 21  2  0  0  0  0
 22 23  1  0  0  0  0
 23 24  2  0  0  0  0
 24 25  1  0  0  0  0
 24 29  1  0  0  0  0
 25 30  1  0  0  0  0
 26 31  1  0  0  0  0
 26 25  2  0  0  0  0
 27 22  1  0  0  0  0
 28 23  1  0  0  0  0
 31 32  1  0  0  0  0
 31 33  1  0  0  0  0
 32 33  1  0  0  0  0
 35 34  3  0  0  0  0
M  END
>  <minimizedAffinity>
-5.91646051

>  <minimizedRMSD>
0.37680614

$$$$
