
 OpenBabel03242515053D

 33 35  0  0  0  0  0  0  0  0999 V2000
   41.8900   35.1510   41.5550 C   0  0  0  0  0  0  0  0  0  0  0  0
   41.3190   34.2010   41.7300 H   0  0  0  0  0  0  0  0  0  0  0  0
   42.0440   35.5990   42.5660 H   0  0  0  0  0  0  0  0  0  0  0  0
   41.0070   36.0490   40.7540 C   0  0  0  0  0  0  0  0  0  0  0  0
   41.6500   36.7380   40.1670 H   0  0  0  0  0  0  0  0  0  0  0  0
   40.3430   36.6960   41.3750 H   0  0  0  0  0  0  0  0  0  0  0  0
   41.8290   36.2640   37.8250 Cl  0  0  0  0  0  0  0  0  0  0  0  0
   40.4940   35.3030   38.4090 C   0  0  0  0  0  0  0  0  0  0  0  0
   40.2070   35.2790   39.7740 C   0  0  0  0  0  0  0  0  0  0  0  0
   39.1440   34.5020   40.1480 C   0  0  0  0  0  0  0  0  0  0  0  0
   38.3330   33.7450   39.3050 C   0  0  0  0  0  0  0  0  0  0  0  0
   38.6430   33.7900   37.9660 C   0  0  0  0  0  0  0  0  0  0  0  0
   37.6770   32.8650   36.8130 Cl  0  0  0  0  0  0  0  0  0  0  0  0
   39.7100   34.5620   37.5350 C   0  0  0  0  0  0  0  0  0  0  0  0
   38.8840   34.4530   41.2010 H   0  0  0  0  0  0  0  0  0  0  0  0
   37.5130   33.1610   39.7070 H   0  0  0  0  0  0  0  0  0  0  0  0
   39.9730   34.6140   36.4820 H   0  0  0  0  0  0  0  0  0  0  0  0
   43.4440   34.7610   40.7600 S   0  0  0  0  0  0  0  0  0  0  0  0
   44.8100   34.6300   41.9110 C   0  0  0  0  0  0  0  0  0  0  0  0
   46.0970   34.6530   41.3590 C   0  0  0  0  0  0  0  0  0  0  0  0
   47.1850   34.5540   42.2240 C   0  0  0  0  0  0  0  0  0  0  0  0
   46.9350   34.4400   43.5460 N   0  0  0  0  0  0  0  0  0  0  0  0
   45.6910   34.4180   44.0630 C   0  0  0  0  0  0  0  0  0  0  0  0
   44.6460   34.5140   43.2360 N   0  0  0  0  0  0  0  0  0  0  0  0
   46.2570   34.7460   40.2930 H   0  0  0  0  0  0  0  0  0  0  0  0
   45.5590   34.2920   45.4950 C   0  0  0  0  0  0  0  0  0  0  0  0
   44.5950   34.8890   46.0470 O   0  0  0  0  0  0  0  0  0  0  0  0
   46.5480   33.4880   46.1800 N   0  0  0  0  0  0  0  0  0  0  0  0
   46.1490   32.9220   46.9580 H   0  0  0  0  0  0  0  0  0  0  0  0
   47.5430   33.5490   45.8410 H   0  0  0  0  0  0  0  0  0  0  0  0
   48.5600   34.5760   41.6670 C   0  0  0  0  0  3  0  0  0  0  0  0
   49.1170   35.9860   41.5430 C   0  0  0  0  0  2  0  0  0  0  0  0
   49.7260   34.9760   42.4700 C   0  0  0  0  0  2  0  0  0  0  0  0
  1  2  1  0  0  0  0
  1  3  1  0  0  0  0
  4  6  1  0  0  0  0
  4  1  1  0  0  0  0
  5  4  1  0  0  0  0
  7  8  1  0  0  0  0
  8  9  1  0  0  0  0
  9 10  2  0  0  0  0
  9  4  1  0  0  0  0
 10 15  1  0  0  0  0
 11 16  1  0  0  0  0
 11 10  1  0  0  0  0
 12 11  2  0  0  0  0
 13 12  1  0  0  0  0
 14 12  1  0  0  0  0
 14  8  2  0  0  0  0
 17 14  1  0  0  0  0
 18  1  1  0  0  0  0
 18 19  1  0  0  0  0
 19 24  1  0  0  0  0
 20 19  2  0  0  0  0
 20 21  1  0  0  0  0
 21 22  2  0  0  0  0
 22 23  1  0  0  0  0
 23 26  1  0  0  0  0
 24 23  2  0  0  0  0
 25 20  1  0  0  0  0
 26 27  2  0  0  0  0
 26 28  1  0  0  0  0
 28 29  1  0  0  0  0
 30 28  1  0  0  0  0
 31 21  1  0  0  0  0
 31 33  1  0  0  0  0
 32 31  1  0  0  0  0
 32 33  1  0  0  0  0
M  END
>  <minimizedAffinity>
-7.29878139

>  <minimizedRMSD>
0.384094328

$$$$
