
 OpenBabel03252508293D

 33 36  0  0  1  0  0  0  0  0999 V2000
   40.7490   32.9700   39.5360 N   0  0  0  0  0  0  0  0  0  0  0  0
   41.3440   32.4000   40.7480 C   0  0  2  0  0  0  0  0  0  0  0  0
   40.3850   32.3270   41.8790 C   0  0  0  0  0  0  0  0  0  0  0  0
   39.0190   32.6080   41.4730 N   0  0  0  0  0  0  0  0  0  0  0  0
   38.8480   33.7800   40.6940 C   0  0  0  0  0  0  0  0  0  0  0  0
   40.1140   34.2210   40.0100 C   0  0  2  0  0  0  0  0  0  0  0  0
   40.0110   32.2990   39.2430 H   0  0  0  0  0  0  0  0  0  0  0  0
   41.7150   31.3750   40.4790 H   0  0  0  0  0  0  0  0  0  0  0  0
   40.5050   33.0700   42.6870 H   0  0  0  0  0  0  0  0  0  0  0  0
   40.3510   31.2790   42.2840 H   0  0  0  0  0  0  0  0  0  0  0  0
   38.5260   31.7610   41.1220 H   0  0  0  0  0  0  0  0  0  0  0  0
   38.0770   33.5790   39.9190 H   0  0  0  0  0  0  0  0  0  0  0  0
   38.4680   34.6200   41.3320 H   0  0  0  0  0  0  0  0  0  0  0  0
   40.7910   34.6590   40.7810 H   0  0  0  0  0  0  0  0  0  0  0  0
   44.4940   33.9880   41.4900 C   0  0  0  0  0  0  0  0  0  0  0  0
   43.5370   34.9430   41.8550 C   0  0  0  0  0  0  0  0  0  0  0  0
   42.2660   34.4430   41.6180 C   0  0  0  0  0  0  0  0  0  0  0  0
   42.4720   33.2240   41.1260 N   0  0  0  0  0  0  0  0  0  0  0  0
   43.7680   32.9600   41.0520 N   0  0  0  0  0  0  0  0  0  0  0  0
   43.8940   35.9020   42.2530 H   0  0  0  0  0  0  0  0  0  0  0  0
   41.5240   35.1790   41.9060 H   0  0  0  0  0  0  0  0  0  0  0  0
   48.1610   34.4400   40.7960 C   0  0  0  0  0  0  0  0  0  0  0  0
   46.7690   34.2680   40.5210 C   0  0  0  0  0  0  0  0  0  0  0  0
   45.9430   34.1590   41.6120 C   0  0  0  0  0  0  0  0  0  0  0  0
   46.4690   34.2210   42.8590 N   0  0  0  0  0  0  0  0  0  0  0  0
   47.7830   34.3830   43.1030 C   0  0  0  0  0  0  0  0  0  0  0  0
   48.6030   34.4900   42.0620 N   0  0  0  0  0  0  0  0  0  0  0  0
   48.7980   34.5230   39.9490 H   0  0  0  0  0  0  0  0  0  0  0  0
   46.3480   34.2200   39.5430 H   0  0  0  0  0  0  0  0  0  0  0  0
   48.1830   34.4280   44.1070 H   0  0  0  0  0  0  0  0  0  0  0  0
   39.9070   35.1470   38.8770 C   0  0  0  0  0  0  0  0  0  0  0  0
   40.3350   34.9010   37.5050 C   0  0  0  0  0  0  0  0  0  0  0  0
   41.1680   35.8280   38.3520 C   0  0  0  0  0  0  0  0  0  0  0  0
  1  6  1  0  0  0  0
  1  2  1  0  0  0  0
  2  8  1  6  0  0  0
  2 18  1  0  0  0  0
  2  3  1  0  0  0  0
  3 10  1  0  0  0  0
  3  9  1  0  0  0  0
  4  3  1  0  0  0  0
  5 13  1  0  0  0  0
  5  4  1  0  0  0  0
  6  5  1  0  0  0  0
  6 14  1  1  0  0  0
  7  1  1  0  0  0  0
 11  4  1  0  0  0  0
 12  5  1  0  0  0  0
 15 24  1  0  0  0  0
 15 16  1  0  0  0  0
 16 20  1  0  0  0  0
 17 16  2  0  0  0  0
 17 21  1  0  0  0  0
 18 17  1  0  0  0  0
 19 18  1  0  0  0  0
 19 15  2  0  0  0  0
 22 27  1  0  0  0  0
 23 22  2  0  0  0  0
 23 24  1  0  0  0  0
 24 25  2  0  0  0  0
 25 26  1  0  0  0  0
 26 30  1  0  0  0  0
 27 26  2  0  0  0  0
 28 22  1  0  0  0  0
 29 23  1  0  0  0  0
 31  6  1  0  0  0  0
 32 33  1  0  0  0  0
 32 31  1  0  0  0  0
 33 31  1  0  0  0  0
M  END
>  <minimizedAffinity>
-5.06141043

>  <minimizedRMSD>
2.22353101

$$$$
