
 OpenBabel03242521263D

 36 39  0  0  0  0  0  0  0  0999 V2000
   37.5020   28.5830   41.2880 C   0  0  0  0  0  0  0  0  0  0  0  0
   37.1490   29.6960   41.9850 C   0  0  0  0  0  0  0  0  0  0  0  0
   36.4720   30.7600   41.4450 C   0  0  0  0  0  0  0  0  0  0  0  0
   36.1560   30.6460   40.1320 N   0  0  0  0  0  0  0  0  0  0  0  0
   36.5010   29.5520   39.4410 C   0  0  0  0  0  0  0  0  0  0  0  0
   37.1670   28.5140   39.9850 N   0  0  0  0  0  0  0  0  0  0  0  0
   37.4080   29.7810   43.0450 H   0  0  0  0  0  0  0  0  0  0  0  0
   36.1950   31.6410   42.0010 H   0  0  0  0  0  0  0  0  0  0  0  0
   36.1440   29.4510   38.0060 C   0  0  0  0  0  0  0  0  0  0  0  0
   34.8730   29.0830   37.6500 C   0  0  0  0  0  0  0  0  0  0  0  0
   34.4360   28.9580   36.3400 C   0  0  0  0  0  0  0  0  0  0  0  0
   35.3580   29.2250   35.3450 C   0  0  0  0  0  0  0  0  0  0  0  0
   36.6280   29.5910   35.7000 C   0  0  0  0  0  0  0  0  0  0  0  0
   37.0460   29.7120   37.0040 C   0  0  0  0  0  0  0  0  0  0  0  0
   34.1550   28.8760   38.4450 H   0  0  0  0  0  0  0  0  0  0  0  0
   33.4400   28.6710   36.0650 H   0  0  0  0  0  0  0  0  0  0  0  0
   35.1550   29.1670   34.2950 H   0  0  0  0  0  0  0  0  0  0  0  0
   37.3770   29.8090   34.9410 H   0  0  0  0  0  0  0  0  0  0  0  0
   38.3190   30.0780   37.3880 O   0  0  0  0  0  0  0  0  0  0  0  0
   39.5430   31.5960   39.1270 O   0  0  0  0  0  0  0  0  0  0  0  0
   38.8260   31.6470   37.7770 P   0  0  0  0  0  0  0  0  0  0  0  0
   39.7980   32.3670   36.6340 O   0  0  0  0  0  0  0  0  0  0  0  0
   39.7750   31.8300   35.8050 H   0  0  0  0  0  0  0  0  0  0  0  0
   37.4450   32.6090   38.0010 O   0  0  0  0  0  0  0  0  0  0  0  0
   36.6330   32.0510   38.1450 H   0  0  0  0  0  0  0  0  0  0  0  0
   39.5170   26.6770   43.6800 C   0  0  0  0  0  0  0  0  0  0  0  0
   39.5690   25.4140   43.0730 C   0  0  0  0  0  0  0  0  0  0  0  0
   38.9280   25.2270   41.8750 C   0  0  0  0  0  0  0  0  0  0  0  0
   38.2550   26.2640   41.2950 N   0  0  0  0  0  0  0  0  0  0  0  0
   38.2200   27.4800   41.9080 C   0  0  0  0  0  0  0  0  0  0  0  0
   38.8430   27.6710   43.0780 N   0  0  0  0  0  0  0  0  0  0  0  0
   40.0260   26.8170   44.6270 H   0  0  0  0  0  0  0  0  0  0  0  0
   40.0960   24.5820   43.5140 H   0  0  0  0  0  0  0  0  0  0  0  0
   38.9750   23.9080   41.2280 C   0  0  0  0  0  3  0  0  0  0  0  0
   38.4930   23.6950   39.8500 C   0  0  0  0  0  2  0  0  0  0  0  0
   37.6020   23.2830   41.0040 C   0  0  0  0  0  2  0  0  0  0  0  0
  1 30  1  0  0  0  0
  1  2  1  0  0  0  0
  2  7  1  0  0  0  0
  3  2  2  0  0  0  0
  3  8  1  0  0  0  0
  4  3  1  0  0  0  0
  5  6  1  0  0  0  0
  5  4  2  0  0  0  0
  6  1  2  0  0  0  0
  9  5  1  0  0  0  0
 10  9  1  0  0  0  0
 10 15  1  0  0  0  0
 11 10  2  0  0  0  0
 12 13  2  0  0  0  0
 12 11  1  0  0  0  0
 13 14  1  0  0  0  0
 14 19  1  0  0  0  0
 14  9  2  0  0  0  0
 16 11  1  0  0  0  0
 17 12  1  0  0  0  0
 18 13  1  0  0  0  0
 19 21  1  0  0  0  0
 21 24  1  0  0  0  0
 21 20  2  0  0  0  0
 22 21  1  0  0  0  0
 23 22  1  0  0  0  0
 24 25  1  0  0  0  0
 26 32  1  0  0  0  0
 27 33  1  0  0  0  0
 27 26  2  0  0  0  0
 28 27  1  0  0  0  0
 29 28  2  0  0  0  0
 29 30  1  0  0  0  0
 30 31  2  0  0  0  0
 31 26  1  0  0  0  0
 34 28  1  0  0  0  0
 35 36  1  0  0  0  0
 35 34  1  0  0  0  0
 36 34  1  0  0  0  0
M  END
>  <minimizedAffinity>
-6.18557739

$$$$

 OpenBabel03242521263D

 36 39  0  0  0  0  0  0  0  0999 V2000
   38.5430   31.8340   40.7070 C   0  0  0  0  0  0  0  0  0  0  0  0
   38.2180   33.1260   40.4340 C   0  0  0  0  0  0  0  0  0  0  0  0
   39.1270   34.1510   40.3660 C   0  0  0  0  0  0  0  0  0  0  0  0
   40.4170   33.8040   40.5910 N   0  0  0  0  0  0  0  0  0  0  0  0
   40.7430   32.5330   40.8600 C   0  0  0  0  0  0  0  0  0  0  0  0
   39.8390   31.5350   40.9240 N   0  0  0  0  0  0  0  0  0  0  0  0
   37.1730   33.3980   40.2520 H   0  0  0  0  0  0  0  0  0  0  0  0
   38.8640   35.1740   40.1500 H   0  0  0  0  0  0  0  0  0  0  0  0
   42.1620   32.1780   41.1030 C   0  0  0  0  0  0  0  0  0  0  0  0
   42.5990   31.9870   42.3870 C   0  0  0  0  0  0  0  0  0  0  0  0
   43.9020   31.6530   42.7250 C   0  0  0  0  0  0  0  0  0  0  0  0
   44.8010   31.5100   41.6850 C   0  0  0  0  0  0  0  0  0  0  0  0
   44.3640   31.7020   40.4020 C   0  0  0  0  0  0  0  0  0  0  0  0
   43.0690   32.0320   40.0830 C   0  0  0  0  0  0  0  0  0  0  0  0
   41.8800   32.1020   43.2000 H   0  0  0  0  0  0  0  0  0  0  0  0
   44.2410   31.5040   43.7320 H   0  0  0  0  0  0  0  0  0  0  0  0
   45.8340   31.2560   41.8030 H   0  0  0  0  0  0  0  0  0  0  0  0
   45.0460   31.5970   39.5600 H   0  0  0  0  0  0  0  0  0  0  0  0
   42.6050   32.2310   38.8000 O   0  0  0  0  0  0  0  0  0  0  0  0
   44.2900   34.1600   38.2850 O   0  0  0  0  0  0  0  0  0  0  0  0
   43.3670   33.1520   37.6000 P   0  0  0  0  0  0  0  0  0  0  0  0
   44.2160   32.2630   36.4760 O   0  0  0  0  0  0  0  0  0  0  0  0
   43.9830   31.3080   36.5770 H   0  0  0  0  0  0  0  0  0  0  0  0
   42.1790   34.0580   36.7920 O   0  0  0  0  0  0  0  0  0  0  0  0
   41.3390   34.1090   37.3240 H   0  0  0  0  0  0  0  0  0  0  0  0
   35.6460   29.7640   39.8500 C   0  0  0  0  0  0  0  0  0  0  0  0
   35.6580   28.8100   40.8770 C   0  0  0  0  0  0  0  0  0  0  0  0
   36.6360   28.8790   41.8350 C   0  0  0  0  0  0  0  0  0  0  0  0
   37.5760   29.8680   41.7770 N   0  0  0  0  0  0  0  0  0  0  0  0
   37.5400   30.7810   40.7670 C   0  0  0  0  0  0  0  0  0  0  0  0
   36.5880   30.7200   39.8260 N   0  0  0  0  0  0  0  0  0  0  0  0
   34.8690   29.7020   39.0950 H   0  0  0  0  0  0  0  0  0  0  0  0
   34.9240   28.0210   40.9420 H   0  0  0  0  0  0  0  0  0  0  0  0
   36.6590   27.8860   42.9180 C   0  0  0  0  0  3  0  0  0  0  0  0
   37.8870   27.5870   43.6800 C   0  0  0  0  0  2  0  0  0  0  0  0
   37.4600   26.6310   42.5850 C   0  0  0  0  0  2  0  0  0  0  0  0
  1 30  1  0  0  0  0
  1  6  1  0  0  0  0
  2  1  2  0  0  0  0
  3  2  1  0  0  0  0
  3  4  2  0  0  0  0
  4  5  1  0  0  0  0
  5  6  2  0  0  0  0
  5  9  1  0  0  0  0
  7  2  1  0  0  0  0
  8  3  1  0  0  0  0
  9 10  1  0  0  0  0
 10 11  2  0  0  0  0
 10 15  1  0  0  0  0
 11 16  1  0  0  0  0
 12 17  1  0  0  0  0
 12 11  1  0  0  0  0
 13 12  2  0  0  0  0
 14 13  1  0  0  0  0
 14  9  2  0  0  0  0
 18 13  1  0  0  0  0
 19 14  1  0  0  0  0
 21 20  2  0  0  0  0
 21 19  1  0  0  0  0
 22 23  1  0  0  0  0
 22 21  1  0  0  0  0
 24 25  1  0  0  0  0
 24 21  1  0  0  0  0
 26 27  1  0  0  0  0
 27 33  1  0  0  0  0
 27 28  2  0  0  0  0
 28 34  1  0  0  0  0
 29 28  1  0  0  0  0
 30 29  2  0  0  0  0
 31 26  2  0  0  0  0
 31 30  1  0  0  0  0
 32 26  1  0  0  0  0
 34 35  1  0  0  0  0
 36 34  1  0  0  0  0
 36 35  1  0  0  0  0
M  END
>  <minimizedAffinity>
-6.13161564

$$$$

 OpenBabel03242521263D

 36 39  0  0  0  0  0  0  0  0999 V2000
   36.8740   27.7580   40.7830 C   0  0  0  0  0  0  0  0  0  0  0  0
   36.6740   28.8130   41.6170 C   0  0  0  0  0  0  0  0  0  0  0  0
   36.2410   30.0470   41.2060 C   0  0  0  0  0  0  0  0  0  0  0  0
   36.0100   30.1730   39.8770 N   0  0  0  0  0  0  0  0  0  0  0  0
   36.2040   29.1380   39.0510 C   0  0  0  0  0  0  0  0  0  0  0  0
   36.6310   27.9290   39.4690 N   0  0  0  0  0  0  0  0  0  0  0  0
   36.8630   28.7030   42.6900 H   0  0  0  0  0  0  0  0  0  0  0  0
   36.0850   30.8820   41.8710 H   0  0  0  0  0  0  0  0  0  0  0  0
   35.9450   29.3000   37.6000 C   0  0  0  0  0  0  0  0  0  0  0  0
   34.7050   29.0010   37.0990 C   0  0  0  0  0  0  0  0  0  0  0  0
   34.3570   29.1170   35.7610 C   0  0  0  0  0  0  0  0  0  0  0  0
   35.3390   29.5620   34.8960 C   0  0  0  0  0  0  0  0  0  0  0  0
   36.5780   29.8600   35.3970 C   0  0  0  0  0  0  0  0  0  0  0  0
   36.9070   29.7400   36.7260 C   0  0  0  0  0  0  0  0  0  0  0  0
   33.9390   28.6510   37.7920 H   0  0  0  0  0  0  0  0  0  0  0  0
   33.3860   28.8830   35.3720 H   0  0  0  0  0  0  0  0  0  0  0  0
   35.2070   29.6970   33.8420 H   0  0  0  0  0  0  0  0  0  0  0  0
   37.3720   30.2130   34.7430 H   0  0  0  0  0  0  0  0  0  0  0  0
   38.1470   30.0330   37.2550 O   0  0  0  0  0  0  0  0  0  0  0  0
   39.3970   31.4200   39.0820 O   0  0  0  0  0  0  0  0  0  0  0  0
   38.6850   31.5650   37.7360 P   0  0  0  0  0  0  0  0  0  0  0  0
   39.6750   32.3310   36.6390 O   0  0  0  0  0  0  0  0  0  0  0  0
   39.6430   31.8440   35.7800 H   0  0  0  0  0  0  0  0  0  0  0  0
   37.3230   32.5410   38.0150 O   0  0  0  0  0  0  0  0  0  0  0  0
   36.5000   31.9920   38.1250 H   0  0  0  0  0  0  0  0  0  0  0  0
   37.0650   24.1450   41.3540 C   0  0  0  0  0  0  0  0  0  0  0  0
   38.1950   24.0410   42.1790 C   0  0  0  0  0  0  0  0  0  0  0  0
   38.8680   25.1840   42.5260 C   0  0  0  0  0  0  0  0  0  0  0  0
   38.4340   26.3950   42.0690 N   0  0  0  0  0  0  0  0  0  0  0  0
   37.3340   26.4650   41.2690 C   0  0  0  0  0  0  0  0  0  0  0  0
   36.6700   25.3540   40.9240 N   0  0  0  0  0  0  0  0  0  0  0  0
   36.5370   23.2360   41.0840 H   0  0  0  0  0  0  0  0  0  0  0  0
   38.5540   23.0940   42.5510 H   0  0  0  0  0  0  0  0  0  0  0  0
   40.0540   25.0890   43.3900 C   0  0  0  0  0  3  0  0  0  0  0  0
   40.9060   26.2580   43.6800 C   0  0  0  0  0  2  0  0  0  0  0  0
   41.3740   25.2550   42.6440 C   0  0  0  0  0  2  0  0  0  0  0  0
  1 30  1  0  0  0  0
  1  2  1  0  0  0  0
  2  7  1  0  0  0  0
  3  2  2  0  0  0  0
  3  8  1  0  0  0  0
  4  3  1  0  0  0  0
  5  6  1  0  0  0  0
  5  4  2  0  0  0  0
  6  1  2  0  0  0  0
  9  5  1  0  0  0  0
 10  9  1  0  0  0  0
 10 15  1  0  0  0  0
 11 10  2  0  0  0  0
 12 13  2  0  0  0  0
 12 11  1  0  0  0  0
 13 14  1  0  0  0  0
 14 19  1  0  0  0  0
 14  9  2  0  0  0  0
 16 11  1  0  0  0  0
 17 12  1  0  0  0  0
 18 13  1  0  0  0  0
 19 21  1  0  0  0  0
 21 24  1  0  0  0  0
 21 20  2  0  0  0  0
 22 21  1  0  0  0  0
 23 22  1  0  0  0  0
 24 25  1  0  0  0  0
 26 27  1  0  0  0  0
 27 28  2  0  0  0  0
 27 33  1  0  0  0  0
 28 34  1  0  0  0  0
 29 28  1  0  0  0  0
 30 29  2  0  0  0  0
 31 30  1  0  0  0  0
 31 26  2  0  0  0  0
 32 26  1  0  0  0  0
 34 35  1  0  0  0  0
 36 34  1  0  0  0  0
 36 35  1  0  0  0  0
M  END
>  <minimizedAffinity>
-6.12934065

$$$$

 OpenBabel03242521263D

 36 39  0  0  0  0  0  0  0  0999 V2000
   40.1330   28.7730   37.7680 C   0  0  0  0  0  0  0  0  0  0  0  0
   39.3370   28.0550   36.9330 C   0  0  0  0  0  0  0  0  0  0  0  0
   38.2500   27.3270   37.3430 C   0  0  0  0  0  0  0  0  0  0  0  0
   37.9940   27.3570   38.6740 N   0  0  0  0  0  0  0  0  0  0  0  0
   38.7750   28.0630   39.5010 C   0  0  0  0  0  0  0  0  0  0  0  0
   39.8420   28.7750   39.0830 N   0  0  0  0  0  0  0  0  0  0  0  0
   39.5490   28.0360   35.8590 H   0  0  0  0  0  0  0  0  0  0  0  0
   37.6210   26.7580   36.6780 H   0  0  0  0  0  0  0  0  0  0  0  0
   38.4760   28.0810   40.9530 C   0  0  0  0  0  0  0  0  0  0  0  0
   38.4460   26.9020   41.6500 C   0  0  0  0  0  0  0  0  0  0  0  0
   38.1760   26.8060   43.0070 C   0  0  0  0  0  0  0  0  0  0  0  0
   37.9240   27.9870   43.6800 C   0  0  0  0  0  0  0  0  0  0  0  0
   37.9530   29.1650   42.9820 C   0  0  0  0  0  0  0  0  0  0  0  0
   38.2220   29.2430   41.6370 C   0  0  0  0  0  0  0  0  0  0  0  0
   38.6480   25.9770   41.1080 H   0  0  0  0  0  0  0  0  0  0  0  0
   38.1550   25.8820   43.5500 H   0  0  0  0  0  0  0  0  0  0  0  0
   37.7020   28.0580   44.7250 H   0  0  0  0  0  0  0  0  0  0  0  0
   37.7590   30.1120   43.4820 H   0  0  0  0  0  0  0  0  0  0  0  0
   38.2560   30.4170   40.9130 O   0  0  0  0  0  0  0  0  0  0  0  0
   36.6920   31.0540   38.9200 O   0  0  0  0  0  0  0  0  0  0  0  0
   36.9100   31.3140   40.4110 P   0  0  0  0  0  0  0  0  0  0  0  0
   35.5130   31.0050   41.2620 O   0  0  0  0  0  0  0  0  0  0  0  0
   35.7350   30.4740   42.0650 H   0  0  0  0  0  0  0  0  0  0  0  0
   37.2870   32.9630   40.5620 O   0  0  0  0  0  0  0  0  0  0  0  0
   38.2700   33.1060   40.6350 H   0  0  0  0  0  0  0  0  0  0  0  0
   43.0600   29.7280   35.7830 C   0  0  0  0  0  0  0  0  0  0  0  0
   43.4220   30.9500   36.3690 C   0  0  0  0  0  0  0  0  0  0  0  0
   42.6780   31.4280   37.4170 C   0  0  0  0  0  0  0  0  0  0  0  0
   41.6050   30.7150   37.8710 N   0  0  0  0  0  0  0  0  0  0  0  0
   41.2770   29.5320   37.2820 C   0  0  0  0  0  0  0  0  0  0  0  0
   41.9990   29.0570   36.2580 N   0  0  0  0  0  0  0  0  0  0  0  0
   43.6530   29.3560   34.9550 H   0  0  0  0  0  0  0  0  0  0  0  0
   44.2660   31.5290   36.0250 H   0  0  0  0  0  0  0  0  0  0  0  0
   43.0460   32.7070   38.0400 C   0  0  0  0  0  3  0  0  0  0  0  0
   42.0810   33.5040   38.8210 C   0  0  0  0  0  2  0  0  0  0  0  0
   42.3830   33.9200   37.3960 C   0  0  0  0  0  2  0  0  0  0  0  0
  1  6  1  0  0  0  0
  2  3  1  0  0  0  0
  2  1  2  0  0  0  0
  3  4  2  0  0  0  0
  4  5  1  0  0  0  0
  5  9  1  0  0  0  0
  6  5  2  0  0  0  0
  7  2  1  0  0  0  0
  8  3  1  0  0  0  0
  9 14  2  0  0  0  0
  9 10  1  0  0  0  0
 10 11  2  0  0  0  0
 11 16  1  0  0  0  0
 11 12  1  0  0  0  0
 12 17  1  0  0  0  0
 13 18  1  0  0  0  0
 13 12  2  0  0  0  0
 14 13  1  0  0  0  0
 15 10  1  0  0  0  0
 19 14  1  0  0  0  0
 20 21  2  0  0  0  0
 21 24  1  0  0  0  0
 21 19  1  0  0  0  0
 21 22  1  0  0  0  0
 22 23  1  0  0  0  0
 24 25  1  0  0  0  0
 26 31  2  0  0  0  0
 26 27  1  0  0  0  0
 27 28  2  0  0  0  0
 28 29  1  0  0  0  0
 28 34  1  0  0  0  0
 30  1  1  0  0  0  0
 30 29  2  0  0  0  0
 31 30  1  0  0  0  0
 32 26  1  0  0  0  0
 33 27  1  0  0  0  0
 34 35  1  0  0  0  0
 36 34  1  0  0  0  0
 36 35  1  0  0  0  0
M  END
>  <minimizedAffinity>
-6.0011282

$$$$

 OpenBabel03242521263D

 36 39  0  0  0  0  0  0  0  0999 V2000
   38.8370   31.8500   40.9400 C   0  0  0  0  0  0  0  0  0  0  0  0
   38.1490   32.9750   40.6110 C   0  0  0  0  0  0  0  0  0  0  0  0
   38.7370   34.1610   40.2550 C   0  0  0  0  0  0  0  0  0  0  0  0
   40.0920   34.1610   40.2440 N   0  0  0  0  0  0  0  0  0  0  0  0
   40.7760   33.0560   40.5670 C   0  0  0  0  0  0  0  0  0  0  0  0
   40.1830   31.8960   40.9160 N   0  0  0  0  0  0  0  0  0  0  0  0
   37.0530   32.9670   40.6220 H   0  0  0  0  0  0  0  0  0  0  0  0
   38.1880   35.0520   39.9950 H   0  0  0  0  0  0  0  0  0  0  0  0
   42.2580   33.0800   40.5480 C   0  0  0  0  0  0  0  0  0  0  0  0
   42.9330   33.8260   41.4780 C   0  0  0  0  0  0  0  0  0  0  0  0
   44.3150   33.9190   41.5490 C   0  0  0  0  0  0  0  0  0  0  0  0
   45.0380   33.2060   40.6110 C   0  0  0  0  0  0  0  0  0  0  0  0
   44.3640   32.4610   39.6810 C   0  0  0  0  0  0  0  0  0  0  0  0
   42.9930   32.3790   39.6240 C   0  0  0  0  0  0  0  0  0  0  0  0
   42.3500   34.3840   42.2130 H   0  0  0  0  0  0  0  0  0  0  0  0
   44.8400   34.5030   42.2790 H   0  0  0  0  0  0  0  0  0  0  0  0
   46.1070   33.1880   40.5510 H   0  0  0  0  0  0  0  0  0  0  0  0
   44.9040   31.8880   38.9300 H   0  0  0  0  0  0  0  0  0  0  0  0
   42.2910   31.6370   38.6970 O   0  0  0  0  0  0  0  0  0  0  0  0
   42.5120   31.1410   36.1420 O   0  0  0  0  0  0  0  0  0  0  0  0
   41.8900   32.1310   37.1280 P   0  0  0  0  0  0  0  0  0  0  0  0
   40.2570   32.2820   36.8420 O   0  0  0  0  0  0  0  0  0  0  0  0
   39.7740   32.2400   37.7020 H   0  0  0  0  0  0  0  0  0  0  0  0
   42.6340   33.6300   36.8380 O   0  0  0  0  0  0  0  0  0  0  0  0
   43.3660   33.8040   37.4900 H   0  0  0  0  0  0  0  0  0  0  0  0
   37.8340   28.9020   42.8690 C   0  0  0  0  0  0  0  0  0  0  0  0
   36.9060   28.2960   42.0100 C   0  0  0  0  0  0  0  0  0  0  0  0
   36.6360   28.8870   40.8030 C   0  0  0  0  0  0  0  0  0  0  0  0
   37.2680   30.0470   40.4570 N   0  0  0  0  0  0  0  0  0  0  0  0
   38.1640   30.6140   41.3120 C   0  0  0  0  0  0  0  0  0  0  0  0
   38.4340   30.0430   42.4930 N   0  0  0  0  0  0  0  0  0  0  0  0
   38.0420   28.4290   43.8230 H   0  0  0  0  0  0  0  0  0  0  0  0
   36.3950   27.3800   42.2650 H   0  0  0  0  0  0  0  0  0  0  0  0
   35.6650   28.2620   39.8940 C   0  0  0  0  0  3  0  0  0  0  0  0
   35.3190   28.8570   38.5890 C   0  0  0  0  0  2  0  0  0  0  0  0
   34.3630   29.0430   39.7500 C   0  0  0  0  0  2  0  0  0  0  0  0
  1 30  1  0  0  0  0
  2  7  1  0  0  0  0
  2  1  2  0  0  0  0
  3  2  1  0  0  0  0
  4  3  2  0  0  0  0
  4  5  1  0  0  0  0
  5  6  2  0  0  0  0
  6  1  1  0  0  0  0
  8  3  1  0  0  0  0
  9  5  1  0  0  0  0
  9 10  1  0  0  0  0
 10 11  2  0  0  0  0
 10 15  1  0  0  0  0
 11 16  1  0  0  0  0
 12 11  1  0  0  0  0
 13 12  2  0  0  0  0
 14 13  1  0  0  0  0
 14  9  2  0  0  0  0
 17 12  1  0  0  0  0
 18 13  1  0  0  0  0
 19 14  1  0  0  0  0
 20 21  2  0  0  0  0
 21 19  1  0  0  0  0
 22 21  1  0  0  0  0
 22 23  1  0  0  0  0
 24 21  1  0  0  0  0
 24 25  1  0  0  0  0
 26 32  1  0  0  0  0
 27 33  1  0  0  0  0
 27 26  2  0  0  0  0
 28 27  1  0  0  0  0
 29 28  2  0  0  0  0
 29 30  1  0  0  0  0
 30 31  2  0  0  0  0
 31 26  1  0  0  0  0
 34 28  1  0  0  0  0
 35 36  1  0  0  0  0
 35 34  1  0  0  0  0
 36 34  1  0  0  0  0
M  END
>  <minimizedAffinity>
-5.97641993

$$$$

 OpenBabel03242521263D

 36 39  0  0  0  0  0  0  0  0999 V2000
   34.6050   28.8830   37.3650 C   0  0  0  0  0  0  0  0  0  0  0  0
   35.5930   28.9920   36.4370 C   0  0  0  0  0  0  0  0  0  0  0  0
   36.9310   28.9200   36.7250 C   0  0  0  0  0  0  0  0  0  0  0  0
   37.2380   28.7260   38.0310 N   0  0  0  0  0  0  0  0  0  0  0  0
   36.2700   28.6170   38.9490 C   0  0  0  0  0  0  0  0  0  0  0  0
   34.9570   28.6900   38.6510 N   0  0  0  0  0  0  0  0  0  0  0  0
   35.3370   29.1490   35.3830 H   0  0  0  0  0  0  0  0  0  0  0  0
   37.7120   29.0080   35.9860 H   0  0  0  0  0  0  0  0  0  0  0  0
   36.6300   28.4050   40.3710 C   0  0  0  0  0  0  0  0  0  0  0  0
   36.8560   27.1330   40.8280 C   0  0  0  0  0  0  0  0  0  0  0  0
   37.1970   26.8240   42.1360 C   0  0  0  0  0  0  0  0  0  0  0  0
   37.3110   27.8800   43.0190 C   0  0  0  0  0  0  0  0  0  0  0  0
   37.0840   29.1520   42.5630 C   0  0  0  0  0  0  0  0  0  0  0  0
   36.7470   29.4410   41.2630 C   0  0  0  0  0  0  0  0  0  0  0  0
   36.7640   26.3070   40.1210 H   0  0  0  0  0  0  0  0  0  0  0  0
   37.3740   25.8270   42.4900 H   0  0  0  0  0  0  0  0  0  0  0  0
   37.5670   27.7850   44.0540 H   0  0  0  0  0  0  0  0  0  0  0  0
   37.1660   30.0060   43.2320 H   0  0  0  0  0  0  0  0  0  0  0  0
   36.5130   30.7120   40.7790 O   0  0  0  0  0  0  0  0  0  0  0  0
   38.7960   31.8610   41.3220 O   0  0  0  0  0  0  0  0  0  0  0  0
   37.6940   31.8110   40.2630 P   0  0  0  0  0  0  0  0  0  0  0  0
   38.3460   31.4790   38.7670 O   0  0  0  0  0  0  0  0  0  0  0  0
   37.7990   30.7870   38.3240 H   0  0  0  0  0  0  0  0  0  0  0  0
   36.9950   33.3590   40.2210 O   0  0  0  0  0  0  0  0  0  0  0  0
   36.1550   33.3920   40.7540 H   0  0  0  0  0  0  0  0  0  0  0  0
   31.4750   28.4500   35.5110 C   0  0  0  0  0  0  0  0  0  0  0  0
   30.5570   29.1210   36.3320 C   0  0  0  0  0  0  0  0  0  0  0  0
   31.0060   29.7040   37.4890 C   0  0  0  0  0  0  0  0  0  0  0  0
   32.3280   29.6250   37.8230 N   0  0  0  0  0  0  0  0  0  0  0  0
   33.1960   28.9660   37.0070 C   0  0  0  0  0  0  0  0  0  0  0  0
   32.7670   28.3930   35.8750 N   0  0  0  0  0  0  0  0  0  0  0  0
   31.1130   27.9910   34.5980 H   0  0  0  0  0  0  0  0  0  0  0  0
   29.5090   29.1950   36.0860 H   0  0  0  0  0  0  0  0  0  0  0  0
   30.0540   30.4100   38.3580 C   0  0  0  0  0  3  0  0  0  0  0  0
   28.7090   30.7990   37.8930 C   0  0  0  0  0  2  0  0  0  0  0  0
   29.7950   31.8550   37.9420 C   0  0  0  0  0  2  0  0  0  0  0  0
  1  6  1  0  0  0  0
  2  3  1  0  0  0  0
  2  1  2  0  0  0  0
  3  4  2  0  0  0  0
  4  5  1  0  0  0  0
  5  9  1  0  0  0  0
  6  5  2  0  0  0  0
  7  2  1  0  0  0  0
  8  3  1  0  0  0  0
  9 10  2  0  0  0  0
  9 14  1  0  0  0  0
 10 11  1  0  0  0  0
 11 16  1  0  0  0  0
 11 12  2  0  0  0  0
 12 17  1  0  0  0  0
 13 12  1  0  0  0  0
 13 18  1  0  0  0  0
 14 13  2  0  0  0  0
 15 10  1  0  0  0  0
 19 14  1  0  0  0  0
 21 19  1  0  0  0  0
 21 20  2  0  0  0  0
 22 21  1  0  0  0  0
 23 22  1  0  0  0  0
 24 21  1  0  0  0  0
 24 25  1  0  0  0  0
 26 31  2  0  0  0  0
 26 27  1  0  0  0  0
 27 28  2  0  0  0  0
 28 29  1  0  0  0  0
 28 34  1  0  0  0  0
 30  1  1  0  0  0  0
 30 29  2  0  0  0  0
 31 30  1  0  0  0  0
 32 26  1  0  0  0  0
 33 27  1  0  0  0  0
 35 36  1  0  0  0  0
 35 34  1  0  0  0  0
 36 34  1  0  0  0  0
M  END
>  <minimizedAffinity>
-5.8187108

$$$$

 OpenBabel03242521263D

 36 39  0  0  0  0  0  0  0  0999 V2000
   37.9210   31.4570   39.2030 C   0  0  0  0  0  0  0  0  0  0  0  0
   37.2350   32.6250   39.3200 C   0  0  0  0  0  0  0  0  0  0  0  0
   37.7260   33.7490   39.9340 C   0  0  0  0  0  0  0  0  0  0  0  0
   38.9780   33.6380   40.4390 N   0  0  0  0  0  0  0  0  0  0  0  0
   39.6590   32.4910   40.3270 C   0  0  0  0  0  0  0  0  0  0  0  0
   39.1630   31.3930   39.7200 N   0  0  0  0  0  0  0  0  0  0  0  0
   36.2230   32.7060   38.9080 H   0  0  0  0  0  0  0  0  0  0  0  0
   37.1780   34.6720   40.0250 H   0  0  0  0  0  0  0  0  0  0  0  0
   41.0280   32.3950   40.8880 C   0  0  0  0  0  0  0  0  0  0  0  0
   41.2340   31.6980   42.0490 C   0  0  0  0  0  0  0  0  0  0  0  0
   42.4710   31.5470   42.6590 C   0  0  0  0  0  0  0  0  0  0  0  0
   43.5510   32.1460   42.0380 C   0  0  0  0  0  0  0  0  0  0  0  0
   43.3450   32.8430   40.8780 C   0  0  0  0  0  0  0  0  0  0  0  0
   42.1130   32.9830   40.2860 C   0  0  0  0  0  0  0  0  0  0  0  0
   40.3730   31.2300   42.5290 H   0  0  0  0  0  0  0  0  0  0  0  0
   42.6280   31.0000   43.5680 H   0  0  0  0  0  0  0  0  0  0  0  0
   44.5580   32.1090   42.3990 H   0  0  0  0  0  0  0  0  0  0  0  0
   44.1740   33.3250   40.3640 H   0  0  0  0  0  0  0  0  0  0  0  0
   41.8790   33.6800   39.1190 O   0  0  0  0  0  0  0  0  0  0  0  0
   42.7950   31.7980   37.5550 O   0  0  0  0  0  0  0  0  0  0  0  0
   41.8870   33.0290   37.5550 P   0  0  0  0  0  0  0  0  0  0  0  0
   40.3840   32.6380   36.9570 O   0  0  0  0  0  0  0  0  0  0  0  0
   39.6920   33.0270   37.5440 H   0  0  0  0  0  0  0  0  0  0  0  0
   42.6100   34.1600   36.5140 O   0  0  0  0  0  0  0  0  0  0  0  0
   43.1330   34.8380   37.0220 H   0  0  0  0  0  0  0  0  0  0  0  0
   36.5520   29.2900   36.5870 C   0  0  0  0  0  0  0  0  0  0  0  0
   36.2930   28.1080   37.2960 C   0  0  0  0  0  0  0  0  0  0  0  0
   36.5820   28.0620   38.6350 C   0  0  0  0  0  0  0  0  0  0  0  0
   37.1130   29.1570   39.2540 N   0  0  0  0  0  0  0  0  0  0  0  0
   37.3550   30.2910   38.5410 C   0  0  0  0  0  0  0  0  0  0  0  0
   37.0750   30.3450   37.2320 N   0  0  0  0  0  0  0  0  0  0  0  0
   36.3200   29.3190   35.5270 H   0  0  0  0  0  0  0  0  0  0  0  0
   35.8730   27.2320   36.8250 H   0  0  0  0  0  0  0  0  0  0  0  0
   36.3150   26.8290   39.3900 C   0  0  0  0  0  3  0  0  0  0  0  0
   36.9930   26.5310   40.6660 C   0  0  0  0  0  2  0  0  0  0  0  0
   37.4850   25.8510   39.4050 C   0  0  0  0  0  2  0  0  0  0  0  0
  1  2  2  0  0  0  0
  1  6  1  0  0  0  0
  2  3  1  0  0  0  0
  3  8  1  0  0  0  0
  3  4  2  0  0  0  0
  5  4  1  0  0  0  0
  5  9  1  0  0  0  0
  6  5  2  0  0  0  0
  7  2  1  0  0  0  0
  9 10  1  0  0  0  0
 10 15  1  0  0  0  0
 10 11  2  0  0  0  0
 11 16  1  0  0  0  0
 12 17  1  0  0  0  0
 12 11  1  0  0  0  0
 13 12  2  0  0  0  0
 14 13  1  0  0  0  0
 14  9  2  0  0  0  0
 18 13  1  0  0  0  0
 19 14  1  0  0  0  0
 20 21  2  0  0  0  0
 21 19  1  0  0  0  0
 22 23  1  0  0  0  0
 22 21  1  0  0  0  0
 24 25  1  0  0  0  0
 24 21  1  0  0  0  0
 26 31  2  0  0  0  0
 26 27  1  0  0  0  0
 27 28  2  0  0  0  0
 28 29  1  0  0  0  0
 28 34  1  0  0  0  0
 30  1  1  0  0  0  0
 30 29  2  0  0  0  0
 31 30  1  0  0  0  0
 32 26  1  0  0  0  0
 33 27  1  0  0  0  0
 34 36  1  0  0  0  0
 34 35  1  0  0  0  0
 36 35  1  0  0  0  0
M  END
>  <minimizedAffinity>
-5.79835129

$$$$

 OpenBabel03242521263D

 36 39  0  0  0  0  0  0  0  0999 V2000
   39.4140   27.8190   37.4130 C   0  0  0  0  0  0  0  0  0  0  0  0
   38.3450   27.9070   36.5770 C   0  0  0  0  0  0  0  0  0  0  0  0
   37.0400   27.9340   36.9970 C   0  0  0  0  0  0  0  0  0  0  0  0
   36.8560   27.8670   38.3380 N   0  0  0  0  0  0  0  0  0  0  0  0
   37.9060   27.7810   39.1650 C   0  0  0  0  0  0  0  0  0  0  0  0
   39.1840   27.7550   38.7380 N   0  0  0  0  0  0  0  0  0  0  0  0
   38.5020   27.9610   35.4940 H   0  0  0  0  0  0  0  0  0  0  0  0
   36.1950   28.0020   36.3310 H   0  0  0  0  0  0  0  0  0  0  0  0
   37.6790   27.7100   40.6290 C   0  0  0  0  0  0  0  0  0  0  0  0
   37.3690   26.5060   41.2060 C   0  0  0  0  0  0  0  0  0  0  0  0
   37.1380   26.3290   42.5620 C   0  0  0  0  0  0  0  0  0  0  0  0
   37.2300   27.4500   43.3640 C   0  0  0  0  0  0  0  0  0  0  0  0
   37.5400   28.6530   42.7870 C   0  0  0  0  0  0  0  0  0  0  0  0
   37.7670   28.8120   41.4420 C   0  0  0  0  0  0  0  0  0  0  0  0
   37.2980   25.6280   40.5620 H   0  0  0  0  0  0  0  0  0  0  0  0
   36.8950   25.3850   43.0100 H   0  0  0  0  0  0  0  0  0  0  0  0
   37.0770   27.4560   44.4240 H   0  0  0  0  0  0  0  0  0  0  0  0
   37.6220   29.5550   43.3910 H   0  0  0  0  0  0  0  0  0  0  0  0
   38.0790   30.0120   40.8370 O   0  0  0  0  0  0  0  0  0  0  0  0
   36.7200   31.2410   38.9750 O   0  0  0  0  0  0  0  0  0  0  0  0
   36.9890   31.2580   40.4800 P   0  0  0  0  0  0  0  0  0  0  0  0
   35.5550   31.1890   41.3230 O   0  0  0  0  0  0  0  0  0  0  0  0
   35.6400   30.5270   42.0510 H   0  0  0  0  0  0  0  0  0  0  0  0
   37.7480   32.7390   40.8170 O   0  0  0  0  0  0  0  0  0  0  0  0
   38.7360   32.6340   40.8810 H   0  0  0  0  0  0  0  0  0  0  0  0
   42.6970   26.5660   36.3770 C   0  0  0  0  0  0  0  0  0  0  0  0
   43.3470   27.7450   35.9860 C   0  0  0  0  0  0  0  0  0  0  0  0
   42.6730   28.9350   36.0780 C   0  0  0  0  0  0  0  0  0  0  0  0
   41.3900   28.9560   36.5450 N   0  0  0  0  0  0  0  0  0  0  0  0
   40.7830   27.7950   36.9160 C   0  0  0  0  0  0  0  0  0  0  0  0
   41.4340   26.6270   36.8290 N   0  0  0  0  0  0  0  0  0  0  0  0
   43.2370   25.6280   36.3010 H   0  0  0  0  0  0  0  0  0  0  0  0
   44.3610   27.7500   35.6160 H   0  0  0  0  0  0  0  0  0  0  0  0
   43.3430   30.1780   35.6730 C   0  0  0  0  0  3  0  0  0  0  0  0
   44.8130   30.2880   35.6000 C   0  0  0  0  0  2  0  0  0  0  0  0
   44.1000   30.8680   36.8040 C   0  0  0  0  0  2  0  0  0  0  0  0
  1  6  1  0  0  0  0
  2  3  1  0  0  0  0
  2  1  2  0  0  0  0
  3  4  2  0  0  0  0
  4  5  1  0  0  0  0
  5  9  1  0  0  0  0
  6  5  2  0  0  0  0
  7  2  1  0  0  0  0
  8  3  1  0  0  0  0
  9 10  2  0  0  0  0
  9 14  1  0  0  0  0
 10 11  1  0  0  0  0
 11 16  1  0  0  0  0
 11 12  2  0  0  0  0
 12 17  1  0  0  0  0
 13 12  1  0  0  0  0
 13 18  1  0  0  0  0
 14 13  2  0  0  0  0
 15 10  1  0  0  0  0
 19 14  1  0  0  0  0
 20 21  2  0  0  0  0
 21 24  1  0  0  0  0
 21 19  1  0  0  0  0
 21 22  1  0  0  0  0
 22 23  1  0  0  0  0
 24 25  1  0  0  0  0
 26 31  1  0  0  0  0
 27 28  1  0  0  0  0
 27 26  2  0  0  0  0
 28 29  2  0  0  0  0
 29 30  1  0  0  0  0
 30  1  1  0  0  0  0
 31 30  2  0  0  0  0
 32 26  1  0  0  0  0
 33 27  1  0  0  0  0
 34 28  1  0  0  0  0
 34 36  1  0  0  0  0
 35 34  1  0  0  0  0
 35 36  1  0  0  0  0
M  END
>  <minimizedAffinity>
-5.77134752

$$$$

 OpenBabel03242521263D

 36 39  0  0  0  0  0  0  0  0999 V2000
   39.0290   28.8010   39.9600 C   0  0  0  0  0  0  0  0  0  0  0  0
   39.0350   28.2800   38.7040 C   0  0  0  0  0  0  0  0  0  0  0  0
   39.7350   28.8130   37.6530 C   0  0  0  0  0  0  0  0  0  0  0  0
   40.4520   29.9290   37.9330 N   0  0  0  0  0  0  0  0  0  0  0  0
   40.4500   30.4460   39.1680 C   0  0  0  0  0  0  0  0  0  0  0  0
   39.7560   29.9110   40.1930 N   0  0  0  0  0  0  0  0  0  0  0  0
   38.4530   27.3780   38.4850 H   0  0  0  0  0  0  0  0  0  0  0  0
   39.7370   28.3970   36.6580 H   0  0  0  0  0  0  0  0  0  0  0  0
   41.2410   31.6670   39.4510 C   0  0  0  0  0  0  0  0  0  0  0  0
   42.5630   31.5500   39.7940 C   0  0  0  0  0  0  0  0  0  0  0  0
   43.3920   32.6250   40.0790 C   0  0  0  0  0  0  0  0  0  0  0  0
   42.8290   33.8850   40.0080 C   0  0  0  0  0  0  0  0  0  0  0  0
   41.5080   34.0020   39.6650 C   0  0  0  0  0  0  0  0  0  0  0  0
   40.7000   32.9260   39.3860 C   0  0  0  0  0  0  0  0  0  0  0  0
   42.9960   30.5500   39.8470 H   0  0  0  0  0  0  0  0  0  0  0  0
   44.4260   32.5300   40.3470 H   0  0  0  0  0  0  0  0  0  0  0  0
   43.3520   34.7990   40.2010 H   0  0  0  0  0  0  0  0  0  0  0  0
   41.0350   34.9800   39.5990 H   0  0  0  0  0  0  0  0  0  0  0  0
   39.3670   33.0170   39.0400 O   0  0  0  0  0  0  0  0  0  0  0  0
   37.0220   34.1060   39.4110 O   0  0  0  0  0  0  0  0  0  0  0  0
   38.0770   33.2490   40.1120 P   0  0  0  0  0  0  0  0  0  0  0  0
   37.3910   31.8460   40.6880 O   0  0  0  0  0  0  0  0  0  0  0  0
   37.9740   31.0830   40.4570 H   0  0  0  0  0  0  0  0  0  0  0  0
   38.6400   34.1610   41.4290 O   0  0  0  0  0  0  0  0  0  0  0  0
   39.4970   34.6200   41.2130 H   0  0  0  0  0  0  0  0  0  0  0  0
   37.0090   28.4560   42.9960 C   0  0  0  0  0  0  0  0  0  0  0  0
   36.8410   27.0660   43.0760 C   0  0  0  0  0  0  0  0  0  0  0  0
   37.4080   26.2740   42.1110 C   0  0  0  0  0  0  0  0  0  0  0  0
   38.1210   26.8440   41.0960 N   0  0  0  0  0  0  0  0  0  0  0  0
   38.2670   28.1960   41.0430 C   0  0  0  0  0  0  0  0  0  0  0  0
   37.7170   28.9780   41.9810 N   0  0  0  0  0  0  0  0  0  0  0  0
   36.5580   29.0770   43.7630 H   0  0  0  0  0  0  0  0  0  0  0  0
   36.2810   26.5960   43.8700 H   0  0  0  0  0  0  0  0  0  0  0  0
   37.2390   24.8160   42.1830 C   0  0  0  0  0  3  0  0  0  0  0  0
   38.0080   23.8950   41.3240 C   0  0  0  0  0  2  0  0  0  0  0  0
   36.5740   24.2100   40.9510 C   0  0  0  0  0  2  0  0  0  0  0  0
  1  6  1  0  0  0  0
  1 30  1  0  0  0  0
  2  1  2  0  0  0  0
  3  4  2  0  0  0  0
  3  2  1  0  0  0  0
  4  5  1  0  0  0  0
  5  9  1  0  0  0  0
  5  6  2  0  0  0  0
  7  2  1  0  0  0  0
  8  3  1  0  0  0  0
  9 10  1  0  0  0  0
 10 15  1  0  0  0  0
 10 11  2  0  0  0  0
 11 16  1  0  0  0  0
 12 11  1  0  0  0  0
 12 17  1  0  0  0  0
 13 12  2  0  0  0  0
 14  9  2  0  0  0  0
 14 13  1  0  0  0  0
 18 13  1  0  0  0  0
 19 14  1  0  0  0  0
 19 21  1  0  0  0  0
 20 21  2  0  0  0  0
 21 22  1  0  0  0  0
 21 24  1  0  0  0  0
 23 22  1  0  0  0  0
 25 24  1  0  0  0  0
 26 27  1  0  0  0  0
 26 32  1  0  0  0  0
 27 33  1  0  0  0  0
 28 34  1  0  0  0  0
 28 27  2  0  0  0  0
 29 28  1  0  0  0  0
 30 29  2  0  0  0  0
 30 31  1  0  0  0  0
 31 26  2  0  0  0  0
 35 34  1  0  0  0  0
 36 35  1  0  0  0  0
 36 34  1  0  0  0  0
M  END
>  <minimizedAffinity>
-5.76672602

$$$$
