
 OpenBabel03242512253D

 14 15  0  0  0  0  0  0  0  0999 V2000
   45.7880   33.9450   44.7470 C   0  0  0  0  0  0  0  0  0  0  0  0
   44.8300   34.9540   44.4800 C   0  0  0  0  0  0  0  0  0  0  0  0
   45.0590   35.8330   43.4080 C   0  0  0  0  0  0  0  0  0  0  0  0
   46.2150   35.6450   42.6880 N   0  0  0  0  0  0  0  0  0  0  0  0
   47.0970   34.6810   42.9680 C   0  0  0  0  0  0  0  0  0  0  0  0
   46.8800   33.8480   43.9860 N   0  0  0  0  0  0  0  0  0  0  0  0
   45.5530   33.0520   45.8370 N   0  0  0  0  0  0  0  0  0  0  0  0
   43.9290   35.0700   45.0730 H   0  0  0  0  0  0  0  0  0  0  0  0
   44.3510   36.6220   43.1670 H   0  0  0  0  0  0  0  0  0  0  0  0
   45.3670   32.1020   45.4410 H   0  0  0  0  0  0  0  0  0  0  0  0
   45.5470   33.2270   46.8700 H   0  0  0  0  0  0  0  0  0  0  0  0
   48.3280   34.5510   42.1310 C   0  0  0  0  0  0  0  0  0  0  0  0
   48.9720   35.7410   41.5540 C   0  0  0  0  0  0  0  0  0  0  0  0
   48.1540   34.8330   40.6580 C   0  0  0  0  0  0  0  0  0  0  0  0
  1  7  1  0  0  0  0
  2  1  1  0  0  0  0
  2  8  1  0  0  0  0
  3  2  2  0  0  0  0
  4  5  2  0  0  0  0
  4  3  1  0  0  0  0
  5  6  1  0  0  0  0
  6  1  2  0  0  0  0
  7 11  1  0  0  0  0
  9  3  1  0  0  0  0
 10  7  1  0  0  0  0
 12  5  1  0  0  0  0
 13 12  1  0  0  0  0
 14 13  1  0  0  0  0
 14 12  1  0  0  0  0
M  END
>  <minimizedAffinity>
-4.1076479

>  <minimizedRMSD>
4.75516558

$$$$
