
 OpenBabel03252506323D

 26 28  0  0  1  0  0  0  0  0999 V2000
   37.8150   30.1430   42.0770 C   0  0  0  0  0  0  0  0  0  0  0  0
   36.5800   29.8720   41.4960 C   0  0  0  0  0  0  0  0  0  0  0  0
   36.2010   28.5580   41.3590 C   0  0  0  0  0  0  0  0  0  0  0  0
   37.0610   27.5960   41.8010 N   0  0  0  0  0  0  0  0  0  0  0  0
   38.2410   27.8880   42.3550 C   0  0  0  0  0  0  0  0  0  0  0  0
   38.6190   29.1570   42.4940 N   0  0  0  0  0  0  0  0  0  0  0  0
   39.0670   26.8230   42.7850 N   0  0  0  0  0  0  0  0  0  0  0  0
   40.2090   26.9510   43.6790 C   0  0  0  0  0  0  0  0  0  0  0  0
   41.1920   25.9650   43.0750 C   0  0  0  0  0  0  0  0  0  0  0  0
   40.4310   25.1440   42.0690 C   0  0  0  0  0  0  0  0  0  0  0  0
   38.9970   25.4180   42.4680 C   0  0  2  0  0  0  0  0  0  0  0  0
   38.1490   31.1640   42.2030 H   0  0  0  0  0  0  0  0  0  0  0  0
   35.2430   28.3490   40.9080 H   0  0  0  0  0  0  0  0  0  0  0  0
   39.8840   26.6940   44.6930 H   0  0  0  0  0  0  0  0  0  0  0  0
   40.6000   27.9750   43.5790 H   0  0  0  0  0  0  0  0  0  0  0  0
   41.5620   25.3290   43.9070 H   0  0  0  0  0  0  0  0  0  0  0  0
   42.0770   26.4660   42.6270 H   0  0  0  0  0  0  0  0  0  0  0  0
   40.7160   24.0890   42.1750 H   0  0  0  0  0  0  0  0  0  0  0  0
   40.6340   25.5750   41.0630 H   0  0  0  0  0  0  0  0  0  0  0  0
   38.7880   24.8010   43.3670 H   0  0  0  0  0  0  0  0  0  0  0  0
   35.7890   30.9970   41.0800 N   0  0  0  0  0  0  0  0  0  0  0  0
   35.0740   31.2370   41.7960 H   0  0  0  0  0  0  0  0  0  0  0  0
   35.8890   31.5130   40.2030 H   0  0  0  0  0  0  0  0  0  0  0  0
   37.9910   25.0580   41.4320 C   0  0  0  0  0  3  0  0  0  0  0  0
   37.7820   23.6260   41.0290 C   0  0  0  0  0  2  0  0  0  0  0  0
   36.7770   24.3500   41.8550 C   0  0  0  0  0  2  0  0  0  0  0  0
  1 12  1  0  0  0  0
  1  6  1  0  0  0  0
  2  1  2  0  0  0  0
  3  2  1  0  0  0  0
  3  4  2  0  0  0  0
  4  5  1  0  0  0  0
  5  6  2  0  0  0  0
  5  7  1  0  0  0  0
  7  8  1  0  0  0  0
  8 14  1  0  0  0  0
  9  8  1  0  0  0  0
  9 16  1  0  0  0  0
 10 18  1  0  0  0  0
 10 11  1  0  0  0  0
 10  9  1  0  0  0  0
 11  7  1  0  0  0  0
 11 20  1  1  0  0  0
 13  3  1  0  0  0  0
 15  8  1  0  0  0  0
 17  9  1  0  0  0  0
 19 10  1  0  0  0  0
 21  2  1  0  0  0  0
 21 22  1  0  0  0  0
 23 21  1  0  0  0  0
 24 26  1  0  0  0  0
 24 11  1  0  0  0  0
 25 24  1  0  0  0  0
 25 26  1  0  0  0  0
M  END
>  <minimizedAffinity>
-4.9196372

$$$$

 OpenBabel03252506323D

 26 28  0  0  1  0  0  0  0  0999 V2000
   38.8340   32.2180   40.5420 C   0  0  0  0  0  0  0  0  0  0  0  0
   37.4440   32.2210   40.4670 C   0  0  0  0  0  0  0  0  0  0  0  0
   36.7610   31.1780   41.0430 C   0  0  0  0  0  0  0  0  0  0  0  0
   37.4860   30.2000   41.6560 N   0  0  0  0  0  0  0  0  0  0  0  0
   38.8210   30.2240   41.7120 C   0  0  0  0  0  0  0  0  0  0  0  0
   39.4940   31.2300   41.1570 N   0  0  0  0  0  0  0  0  0  0  0  0
   39.4880   29.1650   42.3700 N   0  0  0  0  0  0  0  0  0  0  0  0
   40.8790   29.1840   42.8010 C   0  0  0  0  0  0  0  0  0  0  0  0
   41.3210   27.7640   42.5010 C   0  0  0  0  0  0  0  0  0  0  0  0
   40.0780   26.9710   42.2000 C   0  0  0  0  0  0  0  0  0  0  0  0
   38.9960   27.8670   42.7610 C   0  0  2  0  0  0  0  0  0  0  0  0
   39.4090   33.0200   40.1010 H   0  0  0  0  0  0  0  0  0  0  0  0
   35.6830   31.1820   40.9840 H   0  0  0  0  0  0  0  0  0  0  0  0
   40.9070   29.4460   43.8640 H   0  0  0  0  0  0  0  0  0  0  0  0
   41.4210   29.8880   42.1510 H   0  0  0  0  0  0  0  0  0  0  0  0
   41.8230   27.3830   43.4150 H   0  0  0  0  0  0  0  0  0  0  0  0
   42.0630   27.7150   41.6740 H   0  0  0  0  0  0  0  0  0  0  0  0
   40.1400   25.9980   42.7060 H   0  0  0  0  0  0  0  0  0  0  0  0
   39.9820   26.9060   41.0930 H   0  0  0  0  0  0  0  0  0  0  0  0
   39.0050   27.7350   43.8630 H   0  0  0  0  0  0  0  0  0  0  0  0
   36.8260   33.3250   39.7850 N   0  0  0  0  0  0  0  0  0  0  0  0
   36.5030   34.0470   40.4590 H   0  0  0  0  0  0  0  0  0  0  0  0
   36.7050   33.4170   38.7740 H   0  0  0  0  0  0  0  0  0  0  0  0
   37.6230   27.5470   42.2820 C   0  0  0  0  0  3  0  0  0  0  0  0
   37.0390   26.1780   42.4830 C   0  0  0  0  0  2  0  0  0  0  0  0
   36.5660   27.3430   43.2790 C   0  0  0  0  0  2  0  0  0  0  0  0
  1  6  1  0  0  0  0
  2  1  2  0  0  0  0
  2  3  1  0  0  0  0
  3  4  2  0  0  0  0
  4  5  1  0  0  0  0
  5  7  1  0  0  0  0
  6  5  2  0  0  0  0
  7 11  1  0  0  0  0
  7  8  1  0  0  0  0
  8 14  1  0  0  0  0
  9  8  1  0  0  0  0
  9 16  1  0  0  0  0
 10  9  1  0  0  0  0
 10 18  1  0  0  0  0
 10 11  1  0  0  0  0
 11 20  1  1  0  0  0
 12  1  1  0  0  0  0
 13  3  1  0  0  0  0
 15  8  1  0  0  0  0
 17  9  1  0  0  0  0
 19 10  1  0  0  0  0
 21 22  1  0  0  0  0
 21  2  1  0  0  0  0
 23 21  1  0  0  0  0
 24 25  1  0  0  0  0
 24 11  1  0  0  0  0
 24 26  1  0  0  0  0
 25 26  1  0  0  0  0
M  END
>  <minimizedAffinity>
-4.81487131

$$$$

 OpenBabel03252506323D

 26 28  0  0  1  0  0  0  0  0999 V2000
   37.3970   31.5700   38.3420 C   0  0  0  0  0  0  0  0  0  0  0  0
   37.2050   32.3940   39.4460 C   0  0  0  0  0  0  0  0  0  0  0  0
   37.2350   31.8240   40.6960 C   0  0  0  0  0  0  0  0  0  0  0  0
   37.4520   30.4800   40.7790 N   0  0  0  0  0  0  0  0  0  0  0  0
   37.6320   29.7130   39.7000 C   0  0  0  0  0  0  0  0  0  0  0  0
   37.6060   30.2550   38.4840 N   0  0  0  0  0  0  0  0  0  0  0  0
   37.8500   28.3280   39.8840 N   0  0  0  0  0  0  0  0  0  0  0  0
   38.3750   27.4160   38.8770 C   0  0  0  0  0  0  0  0  0  0  0  0
   37.5550   26.1640   39.1300 C   0  0  0  0  0  0  0  0  0  0  0  0
   36.8430   26.3620   40.4410 C   0  0  0  0  0  0  0  0  0  0  0  0
   37.6240   27.5070   41.0480 C   0  0  2  0  0  0  0  0  0  0  0  0
   37.3810   31.9800   37.3420 H   0  0  0  0  0  0  0  0  0  0  0  0
   37.0860   32.4640   41.5510 H   0  0  0  0  0  0  0  0  0  0  0  0
   39.4490   27.2900   39.0500 H   0  0  0  0  0  0  0  0  0  0  0  0
   38.1260   27.8310   37.8880 H   0  0  0  0  0  0  0  0  0  0  0  0
   38.2710   25.3180   39.1910 H   0  0  0  0  0  0  0  0  0  0  0  0
   36.8530   25.9400   38.2980 H   0  0  0  0  0  0  0  0  0  0  0  0
   36.9050   25.4360   41.0280 H   0  0  0  0  0  0  0  0  0  0  0  0
   35.8050   26.6900   40.2120 H   0  0  0  0  0  0  0  0  0  0  0  0
   38.5690   27.0800   41.4440 H   0  0  0  0  0  0  0  0  0  0  0  0
   36.9880   33.7910   39.1920 N   0  0  0  0  0  0  0  0  0  0  0  0
   37.8680   34.3330   39.3040 H   0  0  0  0  0  0  0  0  0  0  0  0
   36.0990   34.2260   38.9350 H   0  0  0  0  0  0  0  0  0  0  0  0
   36.9340   28.1930   42.1750 C   0  0  0  0  0  3  0  0  0  0  0  0
   36.5130   27.4280   43.3970 C   0  0  0  0  0  2  0  0  0  0  0  0
   37.6650   28.3700   43.4350 C   0  0  0  0  0  2  0  0  0  0  0  0
  1  6  2  0  0  0  0
  1  2  1  0  0  0  0
  2  3  2  0  0  0  0
  3  4  1  0  0  0  0
  3 13  1  0  0  0  0
  5  7  1  0  0  0  0
  5  4  2  0  0  0  0
  6  5  1  0  0  0  0
  7 11  1  0  0  0  0
  8 14  1  0  0  0  0
  8  9  1  0  0  0  0
  8  7  1  0  0  0  0
  9 16  1  0  0  0  0
  9 10  1  0  0  0  0
 10 18  1  0  0  0  0
 10 11  1  0  0  0  0
 11 20  1  1  0  0  0
 11 24  1  0  0  0  0
 12  1  1  0  0  0  0
 15  8  1  0  0  0  0
 17  9  1  0  0  0  0
 19 10  1  0  0  0  0
 21 22  1  0  0  0  0
 21  2  1  0  0  0  0
 23 21  1  0  0  0  0
 24 25  1  0  0  0  0
 24 26  1  0  0  0  0
 25 26  1  0  0  0  0
M  END
>  <minimizedAffinity>
-4.75013733

$$$$

 OpenBabel03252506323D

 26 28  0  0  1  0  0  0  0  0999 V2000
   35.5930   29.1720   40.4750 C   0  0  0  0  0  0  0  0  0  0  0  0
   36.3570   30.0820   41.2000 C   0  0  0  0  0  0  0  0  0  0  0  0
   37.5120   29.6340   41.7930 C   0  0  0  0  0  0  0  0  0  0  0  0
   37.8430   28.3200   41.6340 N   0  0  0  0  0  0  0  0  0  0  0  0
   37.0900   27.4690   40.9320 C   0  0  0  0  0  0  0  0  0  0  0  0
   35.9680   27.8930   40.3520 N   0  0  0  0  0  0  0  0  0  0  0  0
   37.5130   26.1250   40.8220 N   0  0  0  0  0  0  0  0  0  0  0  0
   37.0070   25.1580   39.8560 C   0  0  0  0  0  0  0  0  0  0  0  0
   36.9610   23.8850   40.6810 C   0  0  0  0  0  0  0  0  0  0  0  0
   37.7150   24.1580   41.9540 C   0  0  0  0  0  0  0  0  0  0  0  0
   38.4960   25.4030   41.5920 C   0  0  2  0  0  0  0  0  0  0  0  0
   34.6780   29.4850   39.9930 H   0  0  0  0  0  0  0  0  0  0  0  0
   38.1030   30.3400   42.3550 H   0  0  0  0  0  0  0  0  0  0  0  0
   37.7030   25.1190   39.0120 H   0  0  0  0  0  0  0  0  0  0  0  0
   35.9860   25.4620   39.5820 H   0  0  0  0  0  0  0  0  0  0  0  0
   37.4640   23.0970   40.0840 H   0  0  0  0  0  0  0  0  0  0  0  0
   35.9220   23.5400   40.8720 H   0  0  0  0  0  0  0  0  0  0  0  0
   38.3560   23.2970   42.1860 H   0  0  0  0  0  0  0  0  0  0  0  0
   36.9660   24.3960   42.7430 H   0  0  0  0  0  0  0  0  0  0  0  0
   39.3530   25.0760   40.9670 H   0  0  0  0  0  0  0  0  0  0  0  0
   35.8730   31.4330   41.2740 N   0  0  0  0  0  0  0  0  0  0  0  0
   36.3430   32.0380   40.5730 H   0  0  0  0  0  0  0  0  0  0  0  0
   35.1610   31.7830   41.9200 H   0  0  0  0  0  0  0  0  0  0  0  0
   39.0470   26.1440   42.7590 C   0  0  0  0  0  3  0  0  0  0  0  0
   40.0480   25.5010   43.6740 C   0  0  0  0  0  2  0  0  0  0  0  0
   40.4510   26.5660   42.7160 C   0  0  0  0  0  2  0  0  0  0  0  0
  1  2  1  0  0  0  0
  2 21  1  0  0  0  0
  2  3  2  0  0  0  0
  3 13  1  0  0  0  0
  4  3  1  0  0  0  0
  5  4  2  0  0  0  0
  6  1  2  0  0  0  0
  6  5  1  0  0  0  0
  7  5  1  0  0  0  0
  7 11  1  0  0  0  0
  8  9  1  0  0  0  0
  8  7  1  0  0  0  0
  9 17  1  0  0  0  0
  9 10  1  0  0  0  0
 10 18  1  0  0  0  0
 10 19  1  0  0  0  0
 11 20  1  6  0  0  0
 11 10  1  0  0  0  0
 11 24  1  0  0  0  0
 12  1  1  0  0  0  0
 14  8  1  0  0  0  0
 15  8  1  0  0  0  0
 16  9  1  0  0  0  0
 21 23  1  0  0  0  0
 22 21  1  0  0  0  0
 24 25  1  0  0  0  0
 26 24  1  0  0  0  0
 26 25  1  0  0  0  0
M  END
>  <minimizedAffinity>
-4.73496437

$$$$

 OpenBabel03252506323D

 26 28  0  0  1  0  0  0  0  0999 V2000
   40.3630   31.3210   38.9810 C   0  0  0  0  0  0  0  0  0  0  0  0
   39.6850   31.8600   37.8920 C   0  0  0  0  0  0  0  0  0  0  0  0
   38.3130   31.7880   37.8810 C   0  0  0  0  0  0  0  0  0  0  0  0
   37.6960   31.1920   38.9410 N   0  0  0  0  0  0  0  0  0  0  0  0
   38.3750   30.6830   39.9730 C   0  0  0  0  0  0  0  0  0  0  0  0
   39.7050   30.7470   39.9950 N   0  0  0  0  0  0  0  0  0  0  0  0
   37.6500   30.0830   41.0290 N   0  0  0  0  0  0  0  0  0  0  0  0
   38.1820   29.7750   42.3490 C   0  0  0  0  0  0  0  0  0  0  0  0
   37.5160   28.4460   42.6530 C   0  0  0  0  0  0  0  0  0  0  0  0
   36.4380   28.2470   41.6220 C   0  0  0  0  0  0  0  0  0  0  0  0
   36.2760   29.6470   41.0710 C   0  0  2  0  0  0  0  0  0  0  0  0
   41.4430   31.3570   39.0270 H   0  0  0  0  0  0  0  0  0  0  0  0
   37.7880   32.2060   37.0360 H   0  0  0  0  0  0  0  0  0  0  0  0
   37.9010   30.5830   43.0320 H   0  0  0  0  0  0  0  0  0  0  0  0
   39.2680   29.6320   42.2460 H   0  0  0  0  0  0  0  0  0  0  0  0
   37.0800   28.5300   43.6710 H   0  0  0  0  0  0  0  0  0  0  0  0
   38.2390   27.6020   42.6750 H   0  0  0  0  0  0  0  0  0  0  0  0
   35.5330   27.8680   42.1150 H   0  0  0  0  0  0  0  0  0  0  0  0
   36.8470   27.5740   40.8360 H   0  0  0  0  0  0  0  0  0  0  0  0
   35.6810   30.2200   41.8120 H   0  0  0  0  0  0  0  0  0  0  0  0
   40.4790   32.4540   36.8530 N   0  0  0  0  0  0  0  0  0  0  0  0
   40.5290   33.4860   36.9630 H   0  0  0  0  0  0  0  0  0  0  0  0
   40.9460   31.9560   36.0910 H   0  0  0  0  0  0  0  0  0  0  0  0
   35.5560   29.7150   39.7690 C   0  0  0  0  0  3  0  0  0  0  0  0
   35.4030   28.4920   38.9110 C   0  0  0  0  0  2  0  0  0  0  0  0
   34.2480   29.0580   39.6610 C   0  0  0  0  0  2  0  0  0  0  0  0
  1 12  1  0  0  0  0
  1  6  1  0  0  0  0
  2  1  2  0  0  0  0
  3  2  1  0  0  0  0
  3  4  2  0  0  0  0
  4  5  1  0  0  0  0
  5  6  2  0  0  0  0
  5  7  1  0  0  0  0
  7 11  1  0  0  0  0
  7  8  1  0  0  0  0
  8  9  1  0  0  0  0
  8 14  1  0  0  0  0
  9 17  1  0  0  0  0
  9 16  1  0  0  0  0
 10 18  1  0  0  0  0
 10  9  1  0  0  0  0
 11 10  1  0  0  0  0
 11 20  1  1  0  0  0
 13  3  1  0  0  0  0
 15  8  1  0  0  0  0
 19 10  1  0  0  0  0
 21 22  1  0  0  0  0
 21  2  1  0  0  0  0
 23 21  1  0  0  0  0
 24 11  1  0  0  0  0
 25 26  1  0  0  0  0
 25 24  1  0  0  0  0
 26 24  1  0  0  0  0
M  END
>  <minimizedAffinity>
-4.67100334

$$$$

 OpenBabel03252506323D

 26 28  0  0  1  0  0  0  0  0999 V2000
   36.9560   32.0680   40.3330 C   0  0  0  0  0  0  0  0  0  0  0  0
   38.2230   32.5620   40.0390 C   0  0  0  0  0  0  0  0  0  0  0  0
   39.3100   31.7750   40.3310 C   0  0  0  0  0  0  0  0  0  0  0  0
   39.0830   30.5540   40.8930 N   0  0  0  0  0  0  0  0  0  0  0  0
   37.8530   30.1060   41.1650 C   0  0  0  0  0  0  0  0  0  0  0  0
   36.7920   30.8600   40.8860 N   0  0  0  0  0  0  0  0  0  0  0  0
   37.7140   28.8260   41.7490 N   0  0  0  0  0  0  0  0  0  0  0  0
   36.4770   28.0590   41.8140 C   0  0  0  0  0  0  0  0  0  0  0  0
   36.5740   27.4240   43.1890 C   0  0  0  0  0  0  0  0  0  0  0  0
   37.9810   27.6400   43.6750 C   0  0  0  0  0  0  0  0  0  0  0  0
   38.7010   27.9950   42.3930 C   0  0  2  0  0  0  0  0  0  0  0  0
   36.0740   32.6560   40.1190 H   0  0  0  0  0  0  0  0  0  0  0  0
   40.2930   32.1590   40.1030 H   0  0  0  0  0  0  0  0  0  0  0  0
   36.4730   27.3390   40.9890 H   0  0  0  0  0  0  0  0  0  0  0  0
   35.6400   28.7730   41.7910 H   0  0  0  0  0  0  0  0  0  0  0  0
   36.3600   26.3430   43.0600 H   0  0  0  0  0  0  0  0  0  0  0  0
   35.8170   27.8260   43.8970 H   0  0  0  0  0  0  0  0  0  0  0  0
   38.3490   26.7130   44.1360 H   0  0  0  0  0  0  0  0  0  0  0  0
   37.9690   28.5180   44.3600 H   0  0  0  0  0  0  0  0  0  0  0  0
   38.8680   27.0460   41.8420 H   0  0  0  0  0  0  0  0  0  0  0  0
   38.2970   33.8690   39.4480 N   0  0  0  0  0  0  0  0  0  0  0  0
   38.3980   33.8080   38.4150 H   0  0  0  0  0  0  0  0  0  0  0  0
   38.2590   34.7600   39.9480 H   0  0  0  0  0  0  0  0  0  0  0  0
   40.0290   28.6370   42.5910 C   0  0  0  0  0  3  0  0  0  0  0  0
   41.1460   27.8990   43.2710 C   0  0  0  0  0  2  0  0  0  0  0  0
   41.1660   28.1470   41.8030 C   0  0  0  0  0  2  0  0  0  0  0  0
  1  6  1  0  0  0  0
  2  3  1  0  0  0  0
  2  1  2  0  0  0  0
  3  4  2  0  0  0  0
  4  5  1  0  0  0  0
  5  7  1  0  0  0  0
  6  5  2  0  0  0  0
  7  8  1  0  0  0  0
  7 11  1  0  0  0  0
  8  9  1  0  0  0  0
  9 10  1  0  0  0  0
  9 17  1  0  0  0  0
 10 18  1  0  0  0  0
 10 19  1  0  0  0  0
 11 20  1  6  0  0  0
 11 24  1  0  0  0  0
 11 10  1  0  0  0  0
 12  1  1  0  0  0  0
 13  3  1  0  0  0  0
 14  8  1  0  0  0  0
 15  8  1  0  0  0  0
 16  9  1  0  0  0  0
 21 23  1  0  0  0  0
 21  2  1  0  0  0  0
 22 21  1  0  0  0  0
 24 25  1  0  0  0  0
 26 24  1  0  0  0  0
 26 25  1  0  0  0  0
M  END
>  <minimizedAffinity>
-4.66909075

$$$$

 OpenBabel03252506323D

 26 28  0  0  1  0  0  0  0  0999 V2000
   39.9420   31.3610   42.2560 C   0  0  0  0  0  0  0  0  0  0  0  0
   39.4750   32.2780   41.3190 C   0  0  0  0  0  0  0  0  0  0  0  0
   38.3060   31.9910   40.6570 C   0  0  0  0  0  0  0  0  0  0  0  0
   37.6710   30.8230   40.9580 N   0  0  0  0  0  0  0  0  0  0  0  0
   38.1440   29.9610   41.8630 C   0  0  0  0  0  0  0  0  0  0  0  0
   39.2760   30.2290   42.5120 N   0  0  0  0  0  0  0  0  0  0  0  0
   37.4180   28.7740   42.1100 N   0  0  0  0  0  0  0  0  0  0  0  0
   37.6000   27.8980   43.2600 C   0  0  0  0  0  0  0  0  0  0  0  0
   37.4280   26.5240   42.6370 C   0  0  0  0  0  0  0  0  0  0  0  0
   36.8740   26.7340   41.2540 C   0  0  0  0  0  0  0  0  0  0  0  0
   36.3690   28.1580   41.3350 C   0  0  2  0  0  0  0  0  0  0  0  0
   40.8580   31.5500   42.7990 H   0  0  0  0  0  0  0  0  0  0  0  0
   37.9450   32.7030   39.9300 H   0  0  0  0  0  0  0  0  0  0  0  0
   36.8400   28.1470   44.0080 H   0  0  0  0  0  0  0  0  0  0  0  0
   38.6350   28.0200   43.6130 H   0  0  0  0  0  0  0  0  0  0  0  0
   36.7070   25.9700   43.2740 H   0  0  0  0  0  0  0  0  0  0  0  0
   38.3740   25.9400   42.6290 H   0  0  0  0  0  0  0  0  0  0  0  0
   36.0770   26.0010   41.0700 H   0  0  0  0  0  0  0  0  0  0  0  0
   37.7260   26.6730   40.5400 H   0  0  0  0  0  0  0  0  0  0  0  0
   35.4070   28.1280   41.8880 H   0  0  0  0  0  0  0  0  0  0  0  0
   40.2590   33.4640   41.1140 N   0  0  0  0  0  0  0  0  0  0  0  0
   39.8780   34.2640   41.6570 H   0  0  0  0  0  0  0  0  0  0  0  0
   41.0870   33.5440   40.5180 H   0  0  0  0  0  0  0  0  0  0  0  0
   36.1090   28.7940   40.0150 C   0  0  0  0  0  3  0  0  0  0  0  0
   35.3210   28.0750   38.9580 C   0  0  0  0  0  2  0  0  0  0  0  0
   34.7400   29.2240   39.7060 C   0  0  0  0  0  2  0  0  0  0  0  0
  1  6  1  0  0  0  0
  1 12  1  0  0  0  0
  2  1  2  0  0  0  0
  3  4  2  0  0  0  0
  3  2  1  0  0  0  0
  4  5  1  0  0  0  0
  5  7  1  0  0  0  0
  5  6  2  0  0  0  0
  7  8  1  0  0  0  0
  8 15  1  0  0  0  0
  8 14  1  0  0  0  0
  9  8  1  0  0  0  0
  9 16  1  0  0  0  0
 10 11  1  0  0  0  0
 10  9  1  0  0  0  0
 11 20  1  1  0  0  0
 11  7  1  0  0  0  0
 13  3  1  0  0  0  0
 17  9  1  0  0  0  0
 18 10  1  0  0  0  0
 19 10  1  0  0  0  0
 21  2  1  0  0  0  0
 21 22  1  0  0  0  0
 23 21  1  0  0  0  0
 24 11  1  0  0  0  0
 25 26  1  0  0  0  0
 25 24  1  0  0  0  0
 26 24  1  0  0  0  0
M  END
>  <minimizedAffinity>
-4.59091663

$$$$

 OpenBabel03252506323D

 26 28  0  0  1  0  0  0  0  0999 V2000
   39.3570   32.7820   39.7120 C   0  0  0  0  0  0  0  0  0  0  0  0
   40.1970   32.6740   40.8160 C   0  0  0  0  0  0  0  0  0  0  0  0
   40.0540   31.5810   41.6360 C   0  0  0  0  0  0  0  0  0  0  0  0
   39.0960   30.6650   41.3180 N   0  0  0  0  0  0  0  0  0  0  0  0
   38.3030   30.7960   40.2500 C   0  0  0  0  0  0  0  0  0  0  0  0
   38.4330   31.8510   39.4480 N   0  0  0  0  0  0  0  0  0  0  0  0
   37.3360   29.7950   40.0000 N   0  0  0  0  0  0  0  0  0  0  0  0
   36.6250   29.6070   38.7430 C   0  0  0  0  0  0  0  0  0  0  0  0
   35.2360   29.2280   39.2220 C   0  0  0  0  0  0  0  0  0  0  0  0
   35.3410   28.9440   40.6970 C   0  0  0  0  0  0  0  0  0  0  0  0
   36.8330   28.7620   40.8710 C   0  0  2  0  0  0  0  0  0  0  0  0
   39.4380   33.6270   39.0420 H   0  0  0  0  0  0  0  0  0  0  0  0
   40.7060   31.4990   42.4920 H   0  0  0  0  0  0  0  0  0  0  0  0
   37.1310   28.8200   38.1740 H   0  0  0  0  0  0  0  0  0  0  0  0
   36.5890   30.5790   38.2290 H   0  0  0  0  0  0  0  0  0  0  0  0
   34.9400   28.3160   38.6630 H   0  0  0  0  0  0  0  0  0  0  0  0
   34.4800   30.0110   38.9970 H   0  0  0  0  0  0  0  0  0  0  0  0
   34.7640   28.0400   40.9320 H   0  0  0  0  0  0  0  0  0  0  0  0
   35.0040   29.8560   41.2380 H   0  0  0  0  0  0  0  0  0  0  0  0
   37.0810   27.7470   40.4960 H   0  0  0  0  0  0  0  0  0  0  0  0
   41.1570   33.7240   41.0160 N   0  0  0  0  0  0  0  0  0  0  0  0
   42.0900   33.4540   40.6440 H   0  0  0  0  0  0  0  0  0  0  0  0
   40.9790   34.6270   41.4610 H   0  0  0  0  0  0  0  0  0  0  0  0
   37.3020   28.8470   42.2810 C   0  0  0  0  0  3  0  0  0  0  0  0
   36.8570   27.8390   43.3010 C   0  0  0  0  0  2  0  0  0  0  0  0
   38.2450   27.8330   42.7640 C   0  0  0  0  0  2  0  0  0  0  0  0
  1  2  1  0  0  0  0
  2 21  1  0  0  0  0
  2  3  2  0  0  0  0
  3 13  1  0  0  0  0
  4  3  1  0  0  0  0
  5  4  2  0  0  0  0
  6  1  2  0  0  0  0
  6  5  1  0  0  0  0
  7  5  1  0  0  0  0
  7 11  1  0  0  0  0
  8  9  1  0  0  0  0
  8  7  1  0  0  0  0
  9 10  1  0  0  0  0
 10 11  1  0  0  0  0
 10 18  1  0  0  0  0
 10 19  1  0  0  0  0
 11 20  1  6  0  0  0
 11 24  1  0  0  0  0
 12  1  1  0  0  0  0
 14  8  1  0  0  0  0
 15  8  1  0  0  0  0
 16  9  1  0  0  0  0
 17  9  1  0  0  0  0
 21 23  1  0  0  0  0
 22 21  1  0  0  0  0
 24 26  1  0  0  0  0
 24 25  1  0  0  0  0
 26 25  1  0  0  0  0
M  END
>  <minimizedAffinity>
-4.40954828

$$$$

 OpenBabel03252506323D

 26 28  0  0  1  0  0  0  0  0999 V2000
   39.4790   31.7480   39.1930 C   0  0  0  0  0  0  0  0  0  0  0  0
   39.2310   31.4550   37.8560 C   0  0  0  0  0  0  0  0  0  0  0  0
   38.4100   30.3920   37.5660 C   0  0  0  0  0  0  0  0  0  0  0  0
   37.8870   29.6860   38.6080 N   0  0  0  0  0  0  0  0  0  0  0  0
   38.1440   29.9910   39.8830 C   0  0  0  0  0  0  0  0  0  0  0  0
   38.9370   31.0190   40.1770 N   0  0  0  0  0  0  0  0  0  0  0  0
   37.5560   29.2020   40.8990 N   0  0  0  0  0  0  0  0  0  0  0  0
   37.4620   29.5700   42.3050 C   0  0  0  0  0  0  0  0  0  0  0  0
   37.7120   28.2420   42.9950 C   0  0  0  0  0  0  0  0  0  0  0  0
   37.6360   27.1750   41.9360 C   0  0  0  0  0  0  0  0  0  0  0  0
   36.9330   27.9040   40.8120 C   0  0  2  0  0  0  0  0  0  0  0  0
   40.1200   32.5760   39.4630 H   0  0  0  0  0  0  0  0  0  0  0  0
   38.2180   30.1650   36.5280 H   0  0  0  0  0  0  0  0  0  0  0  0
   36.4660   29.9880   42.4870 H   0  0  0  0  0  0  0  0  0  0  0  0
   38.2870   30.2650   42.5240 H   0  0  0  0  0  0  0  0  0  0  0  0
   36.9060   28.1130   43.7470 H   0  0  0  0  0  0  0  0  0  0  0  0
   38.6790   28.2230   43.5440 H   0  0  0  0  0  0  0  0  0  0  0  0
   37.0640   26.3220   42.3250 H   0  0  0  0  0  0  0  0  0  0  0  0
   38.6790   26.9270   41.6350 H   0  0  0  0  0  0  0  0  0  0  0  0
   35.8560   27.9420   41.0760 H   0  0  0  0  0  0  0  0  0  0  0  0
   39.8580   32.2930   36.8730 N   0  0  0  0  0  0  0  0  0  0  0  0
   39.2040   33.0260   36.5340 H   0  0  0  0  0  0  0  0  0  0  0  0
   40.8180   32.2070   36.5300 H   0  0  0  0  0  0  0  0  0  0  0  0
   37.0470   27.2410   39.4840 C   0  0  0  0  0  3  0  0  0  0  0  0
   36.4700   25.8730   39.2560 C   0  0  0  0  0  2  0  0  0  0  0  0
   35.8330   27.0870   38.6760 C   0  0  0  0  0  2  0  0  0  0  0  0
  1 12  1  0  0  0  0
  1  6  1  0  0  0  0
  2  1  2  0  0  0  0
  3  2  1  0  0  0  0
  3  4  2  0  0  0  0
  4  5  1  0  0  0  0
  5  6  2  0  0  0  0
  5  7  1  0  0  0  0
  7  8  1  0  0  0  0
  8 14  1  0  0  0  0
  8 15  1  0  0  0  0
  8  9  1  0  0  0  0
  9 17  1  0  0  0  0
  9 16  1  0  0  0  0
 10 18  1  0  0  0  0
 10  9  1  0  0  0  0
 11  7  1  0  0  0  0
 11 20  1  1  0  0  0
 11 10  1  0  0  0  0
 13  3  1  0  0  0  0
 19 10  1  0  0  0  0
 21  2  1  0  0  0  0
 22 21  1  0  0  0  0
 23 21  1  0  0  0  0
 24 11  1  0  0  0  0
 25 24  1  0  0  0  0
 26 25  1  0  0  0  0
 26 24  1  0  0  0  0
M  END
>  <minimizedAffinity>
-4.38298178

$$$$
