
 OpenBabel03252508263D

 35 39  0  0  1  0  0  0  0  0999 V2000
   46.8570   32.1930   45.7900 C   0  0  1  0  0  0  0  0  0  0  0  0
   46.9950   32.5580   47.2080 C   0  0  0  0  0  0  0  0  0  0  0  0
   45.7100   31.8570   46.6080 C   0  0  2  0  0  0  0  0  0  0  0  0
   47.7510   31.5040   45.5750 H   0  0  0  0  0  0  0  0  0  0  0  0
   46.8900   33.5920   47.5240 H   0  0  0  0  0  0  0  0  0  0  0  0
   47.4530   31.9130   47.9760 H   0  0  0  0  0  0  0  0  0  0  0  0
   44.8810   32.5900   46.8710 H   0  0  0  0  0  0  0  0  0  0  0  0
   45.3510   30.5100   47.0570 C   0  0  0  0  0  0  0  0  0  0  0  0
   45.2490   30.0600   48.3340 C   0  0  0  0  0  0  0  0  0  0  0  0
   45.0310   28.7410   48.7180 C   0  0  0  0  0  0  0  0  0  0  0  0
   44.9070   27.8040   47.6820 C   0  0  0  0  0  0  0  0  0  0  0  0
   45.0050   28.2380   46.3600 C   0  0  0  0  0  0  0  0  0  0  0  0
   44.8110   27.2850   45.3760 C   0  0  0  0  0  0  0  0  0  0  0  0
   44.8270   27.6890   44.0430 C   0  0  0  0  0  0  0  0  0  0  0  0
   45.0290   29.0120   43.7070 C   0  0  0  0  0  0  0  0  0  0  0  0
   45.2170   29.9130   44.7280 C   0  0  0  0  0  0  0  0  0  0  0  0
   45.2190   29.5640   46.0720 C   0  0  0  0  0  0  0  0  0  0  0  0
   45.3510   30.8190   49.1070 H   0  0  0  0  0  0  0  0  0  0  0  0
   44.9600   28.4570   49.7550 H   0  0  0  0  0  0  0  0  0  0  0  0
   44.7430   26.7900   47.9810 H   0  0  0  0  0  0  0  0  0  0  0  0
   44.6540   26.2550   45.6700 H   0  0  0  0  0  0  0  0  0  0  0  0
   44.6670   26.8530   43.3530 H   0  0  0  0  0  0  0  0  0  0  0  0
   45.0030   29.1190   42.6510 H   0  0  0  0  0  0  0  0  0  0  0  0
   45.2610   30.8440   44.2380 H   0  0  0  0  0  0  0  0  0  0  0  0
   45.4360   34.8730   43.6870 C   0  0  0  0  0  0  0  0  0  0  0  0
   46.4890   35.1090   42.7370 C   0  0  0  0  0  0  0  0  0  0  0  0
   47.6810   34.3260   42.8710 C   0  0  0  0  0  0  0  0  0  0  0  0
   47.7730   33.4180   43.8560 N   0  0  0  0  0  0  0  0  0  0  0  0
   46.7230   33.2390   44.7340 C   0  0  0  0  0  0  0  0  0  0  0  0
   45.5970   33.9430   44.6510 N   0  0  0  0  0  0  0  0  0  0  0  0
   44.5640   35.4880   43.5400 H   0  0  0  0  0  0  0  0  0  0  0  0
   46.3730   35.8510   41.9590 H   0  0  0  0  0  0  0  0  0  0  0  0
   48.7520   34.5810   41.8910 C   0  0  0  0  0  0  0  0  0  0  0  0
   48.3280   34.9620   40.5170 C   0  0  0  0  0  0  0  0  0  0  0  0
   49.0580   35.9460   41.4360 C   0  0  0  0  0  0  0  0  0  0  0  0
  1  4  1  6  0  0  0
  1  3  1  0  0  0  0
  1  2  1  0  0  0  0
  2  5  1  0  0  0  0
  2  6  1  0  0  0  0
  3  7  1  6  0  0  0
  3  8  1  0  0  0  0
  3  2  1  0  0  0  0
  8  9  1  0  0  0  0
  9 10  2  0  0  0  0
  9 18  1  0  0  0  0
 10 19  1  0  0  0  0
 11 20  1  0  0  0  0
 11 10  1  0  0  0  0
 12 11  2  0  0  0  0
 13 21  1  0  0  0  0
 13 12  1  0  0  0  0
 14 13  2  0  0  0  0
 15 14  1  0  0  0  0
 15 16  2  0  0  0  0
 16 17  1  0  0  0  0
 17 12  1  0  0  0  0
 17  8  2  0  0  0  0
 22 14  1  0  0  0  0
 23 15  1  0  0  0  0
 24 16  1  0  0  0  0
 25 30  1  0  0  0  0
 26 27  1  0  0  0  0
 26 25  2  0  0  0  0
 27 28  2  0  0  0  0
 28 29  1  0  0  0  0
 29  1  1  0  0  0  0
 30 29  2  0  0  0  0
 31 25  1  0  0  0  0
 32 26  1  0  0  0  0
 33 27  1  0  0  0  0
 34 35  1  0  0  0  0
 34 33  1  0  0  0  0
 35 33  1  0  0  0  0
M  END
>  <minimizedAffinity>
-5.47435331

>  <minimizedRMSD>
1.22728837

$$$$
