
 OpenBabel03252506203D

 27 29  0  0  0  0  0  0  0  0999 V2000
   45.3160   33.2710   39.5500 C   0  0  0  0  0  0  0  0  0  0  0  0
   45.4580   33.2180   38.1530 C   0  0  0  0  0  0  0  0  0  0  0  0
   46.7780   33.1530   37.6480 C   0  0  0  0  0  0  0  0  0  0  0  0
   47.8180   33.1460   38.5150 N   0  0  0  0  0  0  0  0  0  0  0  0
   47.6190   33.1980   39.8590 C   0  0  0  0  0  0  0  0  0  0  0  0
   46.3670   33.2610   40.3730 N   0  0  0  0  0  0  0  0  0  0  0  0
   44.5890   33.2290   37.5460 H   0  0  0  0  0  0  0  0  0  0  0  0
   46.8900   33.1140   36.5920 H   0  0  0  0  0  0  0  0  0  0  0  0
   47.8190   35.5230   41.7790 Cl  0  0  0  0  0  0  0  0  0  0  0  0
   48.9630   34.2250   41.6320 C   0  0  0  0  0  0  0  0  0  0  0  0
   48.7990   33.1850   40.7180 C   0  0  0  0  0  0  0  0  0  0  0  0
   49.6820   32.1440   40.5750 C   0  0  0  0  0  0  0  0  0  0  0  0
   50.7930   32.1590   41.4060 C   0  0  0  0  0  0  0  0  0  0  0  0
   51.0510   33.1420   42.3440 C   0  0  0  0  0  0  0  0  0  0  0  0
   50.0960   34.1540   42.4120 C   0  0  0  0  0  0  0  0  0  0  0  0
   49.5220   31.3630   39.8610 H   0  0  0  0  0  0  0  0  0  0  0  0
   51.4860   31.3290   41.2810 H   0  0  0  0  0  0  0  0  0  0  0  0
   51.9150   33.1250   42.9670 H   0  0  0  0  0  0  0  0  0  0  0  0
   50.2670   34.9380   43.1360 H   0  0  0  0  0  0  0  0  0  0  0  0
   43.9520   33.3380   40.0770 C   0  0  0  0  0  0  0  0  0  0  0  0
   43.4590   34.5040   40.4110 C   0  0  0  0  0  0  0  0  0  0  0  0
   42.0850   34.6620   40.9530 C   0  0  0  0  0  0  0  0  0  0  0  0
   42.1570   35.2880   41.8650 H   0  0  0  0  0  0  0  0  0  0  0  0
   41.6930   33.6670   41.3100 H   0  0  0  0  0  0  0  0  0  0  0  0
   41.1510   35.3230   39.9710 C   0  0  0  0  0  0  0  0  0  0  0  0
   39.6990   35.0660   40.0010 C   0  0  0  0  0  0  0  0  0  0  0  0
   40.2150   36.3550   40.6200 C   0  0  0  0  0  0  0  0  0  0  0  0
  1 20  1  0  0  0  0
  1  6  1  0  0  0  0
  2  1  2  0  0  0  0
  3  2  1  0  0  0  0
  3  4  2  0  0  0  0
  4  5  1  0  0  0  0
  5  6  2  0  0  0  0
  5 11  1  0  0  0  0
  7  2  1  0  0  0  0
  8  3  1  0  0  0  0
 10  9  1  0  0  0  0
 10 15  1  0  0  0  0
 11 10  2  0  0  0  0
 12 11  1  0  0  0  0
 12 13  2  0  0  0  0
 13 14  1  0  0  0  0
 14 15  2  0  0  0  0
 14 18  1  0  0  0  0
 15 19  1  0  0  0  0
 16 12  1  0  0  0  0
 17 13  1  0  0  0  0
 20 21  2  0  0  0  0
 21 22  1  0  0  0  0
 22 24  1  0  0  0  0
 22 23  1  0  0  0  0
 25 26  1  0  0  0  0
 25 27  1  0  0  0  0
 25 22  1  0  0  0  0
 26 27  1  0  0  0  0
M  END
>  <minimizedAffinity>
-4.8966794

>  <minimizedRMSD>
5.14202547

$$$$
