
 OpenBabel03252509183D

 35 38  0  0  1  0  0  0  0  0999 V2000
   47.7720   29.7480   48.1280 C   0  0  1  0  0  0  0  0  0  0  0  0
   47.7450   28.6470   47.1230 C   0  0  0  0  0  0  0  0  0  0  0  0
   49.0370   27.9220   46.9400 C   0  0  0  0  0  0  0  0  0  0  0  0
   49.7580   27.6460   48.2330 C   0  0  0  0  0  0  0  0  0  0  0  0
   49.7550   28.8240   49.1790 C   0  0  0  0  0  0  0  0  0  0  0  0
   49.2500   30.0650   48.4450 C   0  0  2  0  0  0  0  0  0  0  0  0
   47.3730   29.4110   49.1120 H   0  0  0  0  0  0  0  0  0  0  0  0
   46.9550   27.9180   47.4070 H   0  0  0  0  0  0  0  0  0  0  0  0
   47.4380   29.0120   46.0990 H   0  0  0  0  0  0  0  0  0  0  0  0
   48.7800   26.9220   46.5090 H   0  0  0  0  0  0  0  0  0  0  0  0
   49.6470   28.4420   46.1810 H   0  0  0  0  0  0  0  0  0  0  0  0
   50.8340   27.4560   47.9650 H   0  0  0  0  0  0  0  0  0  0  0  0
   49.4030   26.7120   48.7120 H   0  0  0  0  0  0  0  0  0  0  0  0
   50.7260   28.9990   49.6550 H   0  0  0  0  0  0  0  0  0  0  0  0
   49.0000   28.6120   49.9820 H   0  0  0  0  0  0  0  0  0  0  0  0
   49.8150   30.2680   47.5330 H   0  0  0  0  0  0  0  0  0  0  0  0
   46.0400   32.9880   46.3050 C   0  0  0  0  0  0  0  0  0  0  0  0
   45.5230   32.7520   47.5880 C   0  0  0  0  0  0  0  0  0  0  0  0
   46.0160   31.7160   48.2880 C   0  0  0  0  0  0  0  0  0  0  0  0
   47.0240   30.9030   47.7300 C   0  0  0  0  0  0  0  0  0  0  0  0
   47.2920   31.6620   46.0940 S   0  0  0  0  0  0  0  0  0  0  0  0
   44.7510   33.3760   48.0120 H   0  0  0  0  0  0  0  0  0  0  0  0
   45.7490   31.3780   49.2770 H   0  0  0  0  0  0  0  0  0  0  0  0
   44.4330   35.9650   44.7550 C   0  0  0  0  0  0  0  0  0  0  0  0
   45.0500   35.9310   43.4780 C   0  0  0  0  0  0  0  0  0  0  0  0
   45.9830   34.8970   43.2090 C   0  0  0  0  0  0  0  0  0  0  0  0
   46.2240   34.0000   44.2000 N   0  0  0  0  0  0  0  0  0  0  0  0
   45.6050   34.0740   45.4140 C   0  0  0  0  0  0  0  0  0  0  0  0
   44.7110   35.0530   45.6940 N   0  0  0  0  0  0  0  0  0  0  0  0
   43.7260   36.7400   44.9750 H   0  0  0  0  0  0  0  0  0  0  0  0
   44.8250   36.6680   42.7190 H   0  0  0  0  0  0  0  0  0  0  0  0
   46.4610   34.8460   42.2600 H   0  0  0  0  0  0  0  0  0  0  0  0
   49.2500   31.2120   49.4330 C   0  0  0  0  0  3  0  0  0  0  0  0
   50.0810   31.0340   50.6520 C   0  0  0  0  0  2  0  0  0  0  0  0
   50.5010   31.9980   49.5530 C   0  0  0  0  0  2  0  0  0  0  0  0
  1  6  1  0  0  0  0
  1  7  1  1  0  0  0
  2  8  1  0  0  0  0
  2  1  1  0  0  0  0
  3  2  1  0  0  0  0
  3  4  1  0  0  0  0
  4 13  1  0  0  0  0
  4  5  1  0  0  0  0
  5 14  1  0  0  0  0
  5 15  1  0  0  0  0
  6 16  1  6  0  0  0
  6  5  1  0  0  0  0
  6 33  1  0  0  0  0
  9  2  1  0  0  0  0
 10  3  1  0  0  0  0
 11  3  1  0  0  0  0
 12  4  1  0  0  0  0
 17 18  2  0  0  0  0
 18 22  1  0  0  0  0
 18 19  1  0  0  0  0
 19 23  1  0  0  0  0
 20  1  1  0  0  0  0
 20 19  2  0  0  0  0
 21 17  1  0  0  0  0
 21 20  1  0  0  0  0
 24 30  1  0  0  0  0
 24 29  1  0  0  0  0
 25 24  2  0  0  0  0
 26 25  1  0  0  0  0
 26 27  2  0  0  0  0
 27 28  1  0  0  0  0
 28 29  2  0  0  0  0
 28 17  1  0  0  0  0
 31 25  1  0  0  0  0
 32 26  1  0  0  0  0
 33 35  1  0  0  0  0
 33 34  1  0  0  0  0
 35 34  1  0  0  0  0
M  END
>  <minimizedAffinity>
-5.22459602

>  <minimizedRMSD>
1.32038856

$$$$
