
 OpenBabel03252505463D

 22 24  0  0  1  0  0  0  0  0999 V2000
   45.1540   33.5880   43.7010 C   0  0  1  0  0  0  0  0  0  0  0  0
   45.8310   34.9590   43.3750 C   0  0  1  0  0  0  0  0  0  0  0  0
   45.5840   33.8710   42.3690 C   0  0  0  0  0  0  0  0  0  0  0  0
   44.0740   33.6810   43.9780 H   0  0  0  0  0  0  0  0  0  0  0  0
   46.8330   35.1430   43.7530 H   0  0  0  0  0  0  0  0  0  0  0  0
   46.5110   33.4280   41.9380 H   0  0  0  0  0  0  0  0  0  0  0  0
   44.8110   34.0470   41.5770 H   0  0  0  0  0  0  0  0  0  0  0  0
   45.9420   32.8190   44.6800 C   0  0  0  0  0  0  0  0  0  0  0  0
   46.0470   33.3090   46.0130 C   0  0  0  0  0  0  0  0  0  0  0  0
   46.7740   32.6020   46.9730 C   0  0  0  0  0  0  0  0  0  0  0  0
   47.3600   31.4410   46.5550 N   0  0  0  0  0  0  0  0  0  0  0  0
   47.2340   31.0040   45.2660 C   0  0  0  0  0  0  0  0  0  0  0  0
   46.5450   31.6790   44.3600 N   0  0  0  0  0  0  0  0  0  0  0  0
   45.5600   34.2380   46.2880 H   0  0  0  0  0  0  0  0  0  0  0  0
   46.8660   32.9510   47.9780 H   0  0  0  0  0  0  0  0  0  0  0  0
   47.9050   29.7170   44.8760 C   0  0  0  0  0  3  0  0  0  0  0  0
   49.2020   29.7350   44.1760 C   0  0  0  0  0  2  0  0  0  0  0  0
   49.1430   29.3180   45.6560 C   0  0  0  0  0  2  0  0  0  0  0  0
   44.8590   36.1130   43.3040 C   0  0  0  0  0  0  0  0  0  0  0  0
   45.4950   37.3330   43.2340 F   0  0  0  0  0  0  0  0  0  0  0  0
   44.1010   35.9750   42.1310 F   0  0  0  0  0  0  0  0  0  0  0  0
   43.9630   36.0630   44.3490 F   0  0  0  0  0  0  0  0  0  0  0  0
  1  4  1  1  0  0  0
  1  8  1  0  0  0  0
  2  1  1  0  0  0  0
  2  5  1  1  0  0  0
  3  2  1  0  0  0  0
  3  1  1  0  0  0  0
  6  3  1  0  0  0  0
  7  3  1  0  0  0  0
  8  9  1  0  0  0  0
  9 14  1  0  0  0  0
  9 10  2  0  0  0  0
 10 15  1  0  0  0  0
 11 10  1  0  0  0  0
 12 11  2  0  0  0  0
 13  8  2  0  0  0  0
 13 12  1  0  0  0  0
 16 12  1  0  0  0  0
 16 18  1  0  0  0  0
 17 16  1  0  0  0  0
 17 18  1  0  0  0  0
 19  2  1  0  0  0  0
 19 22  1  0  0  0  0
 20 19  1  0  0  0  0
 21 19  1  0  0  0  0
M  END
>  <minimizedAffinity>
-4.02466869

>  <minimizedRMSD>
2.94503784

$$$$
