
 OpenBabel03242511063D

 21 23  0  0  1  0  0  0  0  0999 V2000
   48.1220   34.5160   42.0590 C   0  0  1  0  0  0  0  0  0  0  0  0
   48.9070   35.7120   41.6090 C   0  0  0  0  0  0  0  0  0  0  0  0
   49.4900   34.6570   42.5720 C   0  0  2  0  0  0  0  0  0  0  0  0
   47.9160   33.7530   41.2890 H   0  0  0  0  0  0  0  0  0  0  0  0
   49.2720   35.6920   40.5840 H   0  0  0  0  0  0  0  0  0  0  0  0
   48.5810   36.6650   42.0410 H   0  0  0  0  0  0  0  0  0  0  0  0
   49.5410   34.9510   43.6470 H   0  0  0  0  0  0  0  0  0  0  0  0
   45.7340   34.0430   44.8620 C   0  0  0  0  0  0  0  0  0  0  0  0
   44.7930   35.1020   44.6060 C   0  0  0  0  0  0  0  0  0  0  0  0
   45.0210   35.9490   43.4770 C   0  0  0  0  0  0  0  0  0  0  0  0
   46.0910   35.7290   42.7060 N   0  0  0  0  0  0  0  0  0  0  0  0
   46.9650   34.7140   42.9800 C   0  0  0  0  0  0  0  0  0  0  0  0
   46.7810   33.8840   44.0480 N   0  0  0  0  0  0  0  0  0  0  0  0
   45.5320   33.4260   45.7200 H   0  0  0  0  0  0  0  0  0  0  0  0
   43.9450   35.2360   45.2610 H   0  0  0  0  0  0  0  0  0  0  0  0
   44.2870   36.7280   43.3280 H   0  0  0  0  0  0  0  0  0  0  0  0
   50.5970   33.9150   42.0720 N   0  0  0  0  0  0  0  0  0  0  0  0
   51.4030   34.0260   42.7220 H   0  0  0  0  0  0  0  0  0  0  0  0
   50.2110   32.5200   41.9280 C   0  0  0  0  0  0  0  0  0  0  0  0
   50.3450   31.8250   40.6460 C   0  0  0  0  0  0  0  0  0  0  0  0
   51.2690   31.4700   41.8040 C   0  0  0  0  0  0  0  0  0  0  0  0
  1  4  1  6  0  0  0
  1  3  1  0  0  0  0
  1 12  1  0  0  0  0
  2  6  1  0  0  0  0
  2  1  1  0  0  0  0
  2  3  1  0  0  0  0
  3  7  1  1  0  0  0
  5  2  1  0  0  0  0
  8 14  1  0  0  0  0
  9  8  1  0  0  0  0
  9 15  1  0  0  0  0
 10  9  2  0  0  0  0
 11 12  2  0  0  0  0
 11 10  1  0  0  0  0
 12 13  1  0  0  0  0
 13  8  2  0  0  0  0
 16 10  1  0  0  0  0
 17  3  1  0  0  0  0
 17 18  1  0  0  0  0
 19 17  1  0  0  0  0
 20 21  1  0  0  0  0
 20 19  1  0  0  0  0
 21 19  1  0  0  0  0
M  END
>  <minimizedAffinity>
-4.20703793

>  <minimizedRMSD>
6.48150873

$$$$
