
 OpenBabel03242519163D

 36 39  0  0  1  0  0  0  0  0999 V2000
   47.9180   35.1220   41.9820 C   0  0  0  0  0  0  0  0  0  0  0  0
   48.5040   34.9780   42.9060 H   0  0  0  0  0  0  0  0  0  0  0  0
   48.1320   36.1780   41.6530 H   0  0  0  0  0  0  0  0  0  0  0  0
   48.3180   34.2150   40.9300 C   0  0  0  0  0  0  0  0  0  0  0  0
   47.8110   34.3100   39.6530 C   0  0  0  0  0  0  0  0  0  0  0  0
   48.1750   33.4360   38.6210 C   0  0  0  0  0  0  0  0  0  0  0  0
   49.0740   32.4720   38.9660 N   0  0  0  0  0  0  0  0  0  0  0  0
   49.5600   32.3900   40.2140 C   0  0  0  0  0  0  0  0  0  0  0  0
   49.1890   33.2450   41.1750 N   0  0  0  0  0  0  0  0  0  0  0  0
   47.0960   35.0720   39.3640 H   0  0  0  0  0  0  0  0  0  0  0  0
   47.7680   33.5300   37.6400 H   0  0  0  0  0  0  0  0  0  0  0  0
   50.5280   31.3120   40.6020 C   0  0  2  0  0  0  0  0  0  0  0  0
   51.1720   31.3820   41.9500 C   0  0  0  0  0  0  0  0  0  0  0  0
   51.9620   31.7030   40.6720 C   0  0  1  0  0  0  0  0  0  0  0  0
   50.2950   30.3170   40.1810 H   0  0  0  0  0  0  0  0  0  0  0  0
   51.3960   30.4550   42.5010 H   0  0  0  0  0  0  0  0  0  0  0  0
   50.9370   32.2380   42.6340 H   0  0  0  0  0  0  0  0  0  0  0  0
   52.2480   32.7620   40.5400 H   0  0  0  0  0  0  0  0  0  0  0  0
   52.9500   30.6950   40.1660 C   0  0  0  0  0  0  0  0  0  0  0  0
   52.6290   29.9290   38.9350 C   0  0  0  0  0  0  0  0  0  0  0  0
   53.7970   30.8980   38.9880 C   0  0  0  0  0  0  0  0  0  0  0  0
   46.4670   34.9430   42.2920 C   0  0  0  0  0  0  0  0  0  0  0  0
   45.9600   35.9220   42.2250 H   0  0  0  0  0  0  0  0  0  0  0  0
   45.9800   34.2830   41.5600 H   0  0  0  0  0  0  0  0  0  0  0  0
   44.5470   36.4160   44.0380 Cl  0  0  0  0  0  0  0  0  0  0  0  0
   45.3690   34.9780   44.5510 C   0  0  0  0  0  0  0  0  0  0  0  0
   46.2310   34.3830   43.6610 C   0  0  0  0  0  0  0  0  0  0  0  0
   46.8890   33.2380   44.0630 C   0  0  0  0  0  0  0  0  0  0  0  0
   46.6850   32.7080   45.3220 C   0  0  0  0  0  0  0  0  0  0  0  0
   45.8090   33.3190   46.2160 C   0  0  0  0  0  0  0  0  0  0  0  0
   45.1520   34.4690   45.8040 C   0  0  0  0  0  0  0  0  0  0  0  0
   47.5860   32.7050   43.4230 H   0  0  0  0  0  0  0  0  0  0  0  0
   47.1730   31.8190   45.6780 H   0  0  0  0  0  0  0  0  0  0  0  0
   45.6370   32.9180   47.2060 H   0  0  0  0  0  0  0  0  0  0  0  0
   44.2570   35.1490   46.6310 O   0  0  0  0  0  0  0  0  0  0  0  0
   43.5540   34.5910   47.1100 H   0  0  0  0  0  0  0  0  0  0  0  0
  1 22  1  0  0  0  0
  1  2  1  0  0  0  0
  3  1  1  0  0  0  0
  4  9  1  0  0  0  0
  4  1  1  0  0  0  0
  5  4  2  0  0  0  0
  6  7  2  0  0  0  0
  6  5  1  0  0  0  0
  7  8  1  0  0  0  0
  8 12  1  0  0  0  0
  8  9  2  0  0  0  0
 10  5  1  0  0  0  0
 11  6  1  0  0  0  0
 12 15  1  6  0  0  0
 12 14  1  0  0  0  0
 12 13  1  0  0  0  0
 13 16  1  0  0  0  0
 13 17  1  0  0  0  0
 14 18  1  6  0  0  0
 14 13  1  0  0  0  0
 19 14  1  0  0  0  0
 20 21  1  0  0  0  0
 20 19  1  0  0  0  0
 21 19  1  0  0  0  0
 22 27  1  0  0  0  0
 23 22  1  0  0  0  0
 24 22  1  0  0  0  0
 25 26  1  0  0  0  0
 26 31  1  0  0  0  0
 27 28  1  0  0  0  0
 27 26  2  0  0  0  0
 28 29  2  0  0  0  0
 29 33  1  0  0  0  0
 29 30  1  0  0  0  0
 30 34  1  0  0  0  0
 31 30  2  0  0  0  0
 31 35  1  0  0  0  0
 32 28  1  0  0  0  0
 35 36  1  0  0  0  0
M  END
>  <minimizedAffinity>
-5.70608711

>  <minimizedRMSD>
0.647546828

$$$$
