
 OpenBabel03252509243D

 21 23  0  0  1  0  0  0  0  0999 V2000
   44.6890   35.2790   45.0950 C   0  0  0  0  0  0  0  0  0  0  0  0
   45.1820   35.6610   43.8300 C   0  0  0  0  0  0  0  0  0  0  0  0
   46.1990   34.8920   43.3360 C   0  0  0  0  0  0  0  0  0  0  0  0
   46.6970   33.8120   44.0570 N   0  0  0  0  0  0  0  0  0  0  0  0
   46.1950   33.4910   45.2550 C   0  0  0  0  0  0  0  0  0  0  0  0
   45.1790   34.2340   45.7780 N   0  0  0  0  0  0  0  0  0  0  0  0
   43.8820   35.8650   45.5180 H   0  0  0  0  0  0  0  0  0  0  0  0
   46.6860   32.6320   45.6860 H   0  0  0  0  0  0  0  0  0  0  0  0
   46.7240   35.1710   41.9500 C   0  0  1  0  0  0  0  0  0  0  0  0
   48.2540   35.4110   41.9960 C   0  0  0  0  0  0  0  0  0  0  0  0
   47.5450   34.2090   41.3110 C   0  0  2  0  0  0  0  0  0  0  0  0
   46.1790   35.9620   41.4030 H   0  0  0  0  0  0  0  0  0  0  0  0
   48.6110   36.2070   41.3500 H   0  0  0  0  0  0  0  0  0  0  0  0
   48.8030   35.2130   42.9120 H   0  0  0  0  0  0  0  0  0  0  0  0
   47.7550   33.2430   41.8190 H   0  0  0  0  0  0  0  0  0  0  0  0
   47.6040   34.1630   39.8070 C   0  0  0  0  0  3  0  0  0  0  0  0
   48.3380   33.0960   39.0970 C   0  0  0  0  0  2  0  0  0  0  0  0
   46.8450   32.9880   39.1570 C   0  0  0  0  0  2  0  0  0  0  0  0
   44.6830   36.7920   43.1260 N   0  0  0  0  0  0  0  0  0  0  0  0
   44.2710   36.8830   42.2040 H   0  0  0  0  0  0  0  0  0  0  0  0
   44.7050   37.7520   43.5640 H   0  0  0  0  0  0  0  0  0  0  0  0
  1  7  1  0  0  0  0
  1  6  1  0  0  0  0
  2  1  2  0  0  0  0
  3  2  1  0  0  0  0
  3  4  2  0  0  0  0
  4  5  1  0  0  0  0
  5  8  1  0  0  0  0
  5  6  2  0  0  0  0
  9 12  1  6  0  0  0
  9 10  1  0  0  0  0
  9  3  1  0  0  0  0
 10 14  1  0  0  0  0
 11 15  1  1  0  0  0
 11  9  1  0  0  0  0
 11 10  1  0  0  0  0
 13 10  1  0  0  0  0
 16 11  1  0  0  0  0
 17 18  1  0  0  0  0
 17 16  1  0  0  0  0
 18 16  1  0  0  0  0
 19 21  1  0  0  0  0
 19  2  1  0  0  0  0
 20 19  1  0  0  0  0
M  END
>  <minimizedAffinity>
-4.39077425

>  <minimizedRMSD>
0.384682208

$$$$
