
 OpenBabel03252506203D

 27 29  0  0  0  0  0  0  0  0999 V2000
   45.3730   35.2840   42.8550 C   0  0  0  0  0  0  0  0  0  0  0  0
   44.6030   35.0640   41.7010 C   0  0  0  0  0  0  0  0  0  0  0  0
   45.1710   34.2360   40.7030 C   0  0  0  0  0  0  0  0  0  0  0  0
   46.4020   33.7080   40.9050 N   0  0  0  0  0  0  0  0  0  0  0  0
   47.1010   33.9570   42.0430 C   0  0  0  0  0  0  0  0  0  0  0  0
   46.5840   34.7460   43.0160 N   0  0  0  0  0  0  0  0  0  0  0  0
   43.6480   35.5170   41.6240 H   0  0  0  0  0  0  0  0  0  0  0  0
   44.5920   34.0670   39.8280 H   0  0  0  0  0  0  0  0  0  0  0  0
   49.4200   35.8880   41.8750 Cl  0  0  0  0  0  0  0  0  0  0  0  0
   49.5410   34.1710   42.1070 C   0  0  0  0  0  0  0  0  0  0  0  0
   48.4200   33.3450   42.1740 C   0  0  0  0  0  0  0  0  0  0  0  0
   48.4790   31.9860   42.3560 C   0  0  0  0  0  0  0  0  0  0  0  0
   49.7460   31.4350   42.4770 C   0  0  0  0  0  0  0  0  0  0  0  0
   50.9210   32.1630   42.4250 C   0  0  0  0  0  0  0  0  0  0  0  0
   50.7550   33.5330   42.2370 C   0  0  0  0  0  0  0  0  0  0  0  0
   47.5950   31.3840   42.4020 H   0  0  0  0  0  0  0  0  0  0  0  0
   49.7790   30.3560   42.6210 H   0  0  0  0  0  0  0  0  0  0  0  0
   51.8790   31.7090   42.5210 H   0  0  0  0  0  0  0  0  0  0  0  0
   51.6540   34.1320   42.1920 H   0  0  0  0  0  0  0  0  0  0  0  0
   44.7900   36.1400   43.8890 C   0  0  0  0  0  3  0  0  0  0  0  0
   45.2120   37.3740   44.0010 C   0  0  0  0  0  3  0  0  0  0  0  0
   44.6740   38.3100   45.0230 C   0  0  0  0  0  0  0  0  0  0  0  0
   44.7220   37.7950   46.0030 H   0  0  0  0  0  0  0  0  0  0  0  0
   43.5770   38.4930   44.8390 H   0  0  0  0  0  0  0  0  0  0  0  0
   45.4610   39.5940   45.0980 C   0  0  0  0  0  3  0  0  0  0  0  0
   44.7950   40.9080   45.0220 C   0  0  0  0  0  2  0  0  0  0  0  0
   45.2070   40.3890   46.3890 C   0  0  0  0  0  2  0  0  0  0  0  0
  1  6  1  0  0  0  0
  1 20  1  0  0  0  0
  2  1  2  0  0  0  0
  3  4  2  0  0  0  0
  3  2  1  0  0  0  0
  4  5  1  0  0  0  0
  5 11  1  0  0  0  0
  5  6  2  0  0  0  0
  7  2  1  0  0  0  0
  8  3  1  0  0  0  0
  9 10  1  0  0  0  0
 10 11  2  0  0  0  0
 10 15  1  0  0  0  0
 11 12  1  0  0  0  0
 12 16  1  0  0  0  0
 12 13  2  0  0  0  0
 13 17  1  0  0  0  0
 14 13  1  0  0  0  0
 14 18  1  0  0  0  0
 15 14  2  0  0  0  0
 19 15  1  0  0  0  0
 20 21  2  0  0  0  0
 21 22  1  0  0  0  0
 22 25  1  0  0  0  0
 22 23  1  0  0  0  0
 24 22  1  0  0  0  0
 25 27  1  0  0  0  0
 26 25  1  0  0  0  0
 26 27  1  0  0  0  0
M  END
>  <minimizedAffinity>
-3.45387101

>  <minimizedRMSD>
1.20817304

$$$$
