
 OpenBabel03252506493D

 23 25  0  0  0  0  0  0  0  0999 V2000
   43.4340   33.7550   39.5260 S   0  0  0  0  0  0  0  0  0  0  0  0
   41.2960   32.1160   37.8000 Cl  0  0  0  0  0  0  0  0  0  0  0  0
   40.7210   33.4270   38.8040 C   0  0  0  0  0  0  0  0  0  0  0  0
   41.6940   34.0820   39.5140 C   0  0  0  0  0  0  0  0  0  0  0  0
   41.2980   35.1400   40.3360 C   0  0  0  0  0  0  0  0  0  0  0  0
   39.9540   35.4850   40.4040 C   0  0  0  0  0  0  0  0  0  0  0  0
   38.9740   34.8310   39.6950 C   0  0  0  0  0  0  0  0  0  0  0  0
   39.3930   33.7770   38.8800 C   0  0  0  0  0  0  0  0  0  0  0  0
   38.2410   32.8540   37.9170 Cl  0  0  0  0  0  0  0  0  0  0  0  0
   41.9860   35.7190   40.9330 H   0  0  0  0  0  0  0  0  0  0  0  0
   39.6150   36.2970   41.0290 H   0  0  0  0  0  0  0  0  0  0  0  0
   37.9290   35.0550   39.7110 H   0  0  0  0  0  0  0  0  0  0  0  0
   44.0660   33.3380   41.1470 C   0  0  0  0  0  0  0  0  0  0  0  0
   44.0590   31.9680   41.4460 C   0  0  0  0  0  0  0  0  0  0  0  0
   44.5450   31.5750   42.7120 C   0  0  0  0  0  0  0  0  0  0  0  0
   44.9860   32.5280   43.5570 N   0  0  0  0  0  0  0  0  0  0  0  0
   44.9760   33.8370   43.2330 C   0  0  0  0  0  0  0  0  0  0  0  0
   44.5170   34.2640   42.0240 N   0  0  0  0  0  0  0  0  0  0  0  0
   43.7000   31.2260   40.7500 H   0  0  0  0  0  0  0  0  0  0  0  0
   44.5630   30.5300   42.9940 H   0  0  0  0  0  0  0  0  0  0  0  0
   45.4590   34.9130   44.1530 C   0  0  0  0  0  0  0  0  0  0  0  0
   44.7180   36.2290   44.1740 C   0  0  0  0  0  0  0  0  0  0  0  0
   44.6800   35.2410   45.3730 C   0  0  0  0  0  0  0  0  0  0  0  0
  1 13  1  0  0  0  0
  2  3  1  0  0  0  0
  3  8  2  0  0  0  0
  3  4  1  0  0  0  0
  4  1  1  0  0  0  0
  4  5  2  0  0  0  0
  5  6  1  0  0  0  0
  5 10  1  0  0  0  0
  6 11  1  0  0  0  0
  7 12  1  0  0  0  0
  7  6  2  0  0  0  0
  8  7  1  0  0  0  0
  9  8  1  0  0  0  0
 13 14  2  0  0  0  0
 13 18  1  0  0  0  0
 14 15  1  0  0  0  0
 15 20  1  0  0  0  0
 15 16  2  0  0  0  0
 17 16  1  0  0  0  0
 17 21  1  0  0  0  0
 18 17  2  0  0  0  0
 19 14  1  0  0  0  0
 21 22  1  0  0  0  0
 21 23  1  0  0  0  0
 22 23  1  0  0  0  0
M  END
>  <minimizedAffinity>
-4.96230793

>  <minimizedRMSD>
2.39970517

$$$$
