
 OpenBabel03252509123D

 25 28  0  0  0  0  0  0  0  0999 V2000
   40.1540   29.8860   42.2390 C   0  0  0  0  0  0  0  0  0  0  0  0
   39.1530   30.5900   41.5740 C   0  0  0  0  0  0  0  0  0  0  0  0
   37.8080   30.1970   41.5930 C   0  0  0  0  0  0  0  0  0  0  0  0
   37.4540   29.0610   42.3040 C   0  0  0  0  0  0  0  0  0  0  0  0
   36.3020   28.3890   42.5380 N   0  0  0  0  0  0  0  0  0  0  0  0
   36.5610   27.3110   43.3150 C   0  0  0  0  0  0  0  0  0  0  0  0
   37.8860   27.3280   43.5570 N   0  0  0  0  0  0  0  0  0  0  0  0
   38.4560   28.3840   42.9520 C   0  0  0  0  0  0  0  0  0  0  0  0
   39.7950   28.7430   42.9550 C   0  0  0  0  0  0  0  0  0  0  0  0
   41.1830   30.2510   42.1790 H   0  0  0  0  0  0  0  0  0  0  0  0
   35.3650   28.6510   42.1720 H   0  0  0  0  0  0  0  0  0  0  0  0
   35.7860   26.6160   43.6370 H   0  0  0  0  0  0  0  0  0  0  0  0
   40.5620   28.1990   43.4680 H   0  0  0  0  0  0  0  0  0  0  0  0
   39.4460   34.1060   40.5440 C   0  0  0  0  0  0  0  0  0  0  0  0
   40.1830   34.0190   39.3640 C   0  0  0  0  0  0  0  0  0  0  0  0
   40.5760   32.7500   38.9270 C   0  0  0  0  0  0  0  0  0  0  0  0
   40.2070   31.6780   39.6930 N   0  0  0  0  0  0  0  0  0  0  0  0
   39.5010   31.7820   40.8220 C   0  0  0  0  0  0  0  0  0  0  0  0
   39.1290   32.9910   41.2330 N   0  0  0  0  0  0  0  0  0  0  0  0
   39.0870   35.0060   40.9830 H   0  0  0  0  0  0  0  0  0  0  0  0
   40.4090   34.9220   38.8540 H   0  0  0  0  0  0  0  0  0  0  0  0
   41.1390   32.6580   38.0290 H   0  0  0  0  0  0  0  0  0  0  0  0
   36.7880   30.9800   40.8540 C   0  0  0  0  0  3  0  0  0  0  0  0
   35.7940   30.1090   40.0390 C   0  0  0  0  0  2  0  0  0  0  0  0
   36.7570   31.0110   39.3630 C   0  0  0  0  0  2  0  0  0  0  0  0
  1  9  1  0  0  0  0
  2  3  1  0  0  0  0
  2  1  2  0  0  0  0
  3  4  2  0  0  0  0
  4  5  1  0  0  0  0
  4  8  1  0  0  0  0
  5  6  1  0  0  0  0
  6  7  2  0  0  0  0
  6 12  1  0  0  0  0
  8  9  2  0  0  0  0
  8  7  1  0  0  0  0
  9 13  1  0  0  0  0
 10  1  1  0  0  0  0
 11  5  1  0  0  0  0
 14 20  1  0  0  0  0
 14 19  1  0  0  0  0
 15 14  2  0  0  0  0
 16 15  1  0  0  0  0
 16 17  2  0  0  0  0
 17 18  1  0  0  0  0
 18 19  2  0  0  0  0
 18  2  1  0  0  0  0
 21 15  1  0  0  0  0
 22 16  1  0  0  0  0
 23  3  1  0  0  0  0
 24 23  1  0  0  0  0
 25 24  1  0  0  0  0
 25 23  1  0  0  0  0
M  END
>  <minimizedAffinity>
-5.223979

$$$$

 OpenBabel03252509123D

 25 28  0  0  0  0  0  0  0  0999 V2000
   36.8150   30.2880   39.7870 C   0  0  0  0  0  0  0  0  0  0  0  0
   37.5950   29.8820   40.8670 C   0  0  0  0  0  0  0  0  0  0  0  0
   38.4930   30.7370   41.5200 C   0  0  0  0  0  0  0  0  0  0  0  0
   38.6120   32.0450   41.0760 C   0  0  0  0  0  0  0  0  0  0  0  0
   39.3510   33.1210   41.4330 N   0  0  0  0  0  0  0  0  0  0  0  0
   39.0530   34.1610   40.6180 C   0  0  0  0  0  0  0  0  0  0  0  0
   38.1210   33.7110   39.7560 N   0  0  0  0  0  0  0  0  0  0  0  0
   37.8330   32.4240   40.0110 C   0  0  0  0  0  0  0  0  0  0  0  0
   36.9370   31.6050   39.3430 C   0  0  0  0  0  0  0  0  0  0  0  0
   36.1370   29.5650   39.3270 H   0  0  0  0  0  0  0  0  0  0  0  0
   40.0470   33.1490   42.2050 H   0  0  0  0  0  0  0  0  0  0  0  0
   39.5240   35.1400   40.7130 H   0  0  0  0  0  0  0  0  0  0  0  0
   36.3380   31.9210   38.5120 H   0  0  0  0  0  0  0  0  0  0  0  0
   36.7520   26.9680   42.9430 C   0  0  0  0  0  0  0  0  0  0  0  0
   37.3080   25.9100   42.2270 C   0  0  0  0  0  0  0  0  0  0  0  0
   37.9720   26.2040   41.0320 C   0  0  0  0  0  0  0  0  0  0  0  0
   38.0290   27.5160   40.6480 N   0  0  0  0  0  0  0  0  0  0  0  0
   37.4880   28.5170   41.3490 C   0  0  0  0  0  0  0  0  0  0  0  0
   36.8580   28.2320   42.4850 N   0  0  0  0  0  0  0  0  0  0  0  0
   36.2230   26.8810   43.8620 H   0  0  0  0  0  0  0  0  0  0  0  0
   37.2000   24.9320   42.6250 H   0  0  0  0  0  0  0  0  0  0  0  0
   38.4060   25.4130   40.4660 H   0  0  0  0  0  0  0  0  0  0  0  0
   39.3070   30.2450   42.6570 C   0  0  0  0  0  3  0  0  0  0  0  0
   40.7960   30.6810   42.6020 C   0  0  0  0  0  2  0  0  0  0  0  0
   40.4070   29.2570   42.4590 C   0  0  0  0  0  2  0  0  0  0  0  0
  1  2  1  0  0  0  0
  2 18  1  0  0  0  0
  2  3  2  0  0  0  0
  3 23  1  0  0  0  0
  4  5  1  0  0  0  0
  4  3  1  0  0  0  0
  5 11  1  0  0  0  0
  6 12  1  0  0  0  0
  6  5  1  0  0  0  0
  7  8  1  0  0  0  0
  7  6  2  0  0  0  0
  8  4  2  0  0  0  0
  9  1  2  0  0  0  0
  9  8  1  0  0  0  0
 10  1  1  0  0  0  0
 13  9  1  0  0  0  0
 14 20  1  0  0  0  0
 15 21  1  0  0  0  0
 15 14  2  0  0  0  0
 16 15  1  0  0  0  0
 17 16  2  0  0  0  0
 17 18  1  0  0  0  0
 18 19  2  0  0  0  0
 19 14  1  0  0  0  0
 22 16  1  0  0  0  0
 24 23  1  0  0  0  0
 25 24  1  0  0  0  0
 25 23  1  0  0  0  0
M  END
>  <minimizedAffinity>
-5.11664581

$$$$

 OpenBabel03252509123D

 25 28  0  0  0  0  0  0  0  0999 V2000
   36.5590   26.5830   39.6880 C   0  0  0  0  0  0  0  0  0  0  0  0
   36.1630   27.8950   39.4370 C   0  0  0  0  0  0  0  0  0  0  0  0
   36.2900   28.9200   40.3840 C   0  0  0  0  0  0  0  0  0  0  0  0
   36.8320   28.6210   41.6250 C   0  0  0  0  0  0  0  0  0  0  0  0
   37.0930   29.3160   42.7560 N   0  0  0  0  0  0  0  0  0  0  0  0
   37.6300   28.4850   43.6800 C   0  0  0  0  0  0  0  0  0  0  0  0
   37.6960   27.2700   43.1030 N   0  0  0  0  0  0  0  0  0  0  0  0
   37.2150   27.3230   41.8490 C   0  0  0  0  0  0  0  0  0  0  0  0
   37.1050   26.2850   40.9370 C   0  0  0  0  0  0  0  0  0  0  0  0
   36.4300   25.8350   38.9020 H   0  0  0  0  0  0  0  0  0  0  0  0
   36.9040   30.3290   42.9010 H   0  0  0  0  0  0  0  0  0  0  0  0
   37.9250   28.8200   44.6750 H   0  0  0  0  0  0  0  0  0  0  0  0
   37.4110   25.2770   41.1340 H   0  0  0  0  0  0  0  0  0  0  0  0
   33.7360   28.6800   36.7910 C   0  0  0  0  0  0  0  0  0  0  0  0
   34.5490   28.8730   35.6770 C   0  0  0  0  0  0  0  0  0  0  0  0
   35.9310   28.7300   35.8390 C   0  0  0  0  0  0  0  0  0  0  0  0
   36.3890   28.4110   37.0890 N   0  0  0  0  0  0  0  0  0  0  0  0
   35.5920   28.2320   38.1460 C   0  0  0  0  0  0  0  0  0  0  0  0
   34.2790   28.3680   37.9850 N   0  0  0  0  0  0  0  0  0  0  0  0
   32.6750   28.7590   36.8030 H   0  0  0  0  0  0  0  0  0  0  0  0
   34.0800   29.1170   34.7570 H   0  0  0  0  0  0  0  0  0  0  0  0
   36.5740   28.8720   35.0030 H   0  0  0  0  0  0  0  0  0  0  0  0
   35.8380   30.2960   40.0650 C   0  0  0  0  0  3  0  0  0  0  0  0
   36.8820   31.1370   39.2810 C   0  0  0  0  0  2  0  0  0  0  0  0
   36.4940   31.4930   40.6670 C   0  0  0  0  0  2  0  0  0  0  0  0
  1  9  1  0  0  0  0
  2  1  2  0  0  0  0
  2  3  1  0  0  0  0
  3  4  2  0  0  0  0
  4  8  1  0  0  0  0
  4  5  1  0  0  0  0
  5 11  1  0  0  0  0
  5  6  1  0  0  0  0
  6 12  1  0  0  0  0
  7  6  2  0  0  0  0
  8  7  1  0  0  0  0
  9 13  1  0  0  0  0
  9  8  2  0  0  0  0
 10  1  1  0  0  0  0
 14 20  1  0  0  0  0
 14 19  1  0  0  0  0
 15 16  1  0  0  0  0
 15 14  2  0  0  0  0
 16 17  2  0  0  0  0
 17 18  1  0  0  0  0
 18  2  1  0  0  0  0
 19 18  2  0  0  0  0
 21 15  1  0  0  0  0
 22 16  1  0  0  0  0
 23  3  1  0  0  0  0
 23 25  1  0  0  0  0
 24 23  1  0  0  0  0
 24 25  1  0  0  0  0
M  END
>  <minimizedAffinity>
-4.87728214

$$$$

 OpenBabel03252509123D

 25 28  0  0  0  0  0  0  0  0999 V2000
   36.7260   27.3280   38.6970 C   0  0  0  0  0  0  0  0  0  0  0  0
   37.1030   26.8910   39.9650 C   0  0  0  0  0  0  0  0  0  0  0  0
   37.1430   27.7400   41.0800 C   0  0  0  0  0  0  0  0  0  0  0  0
   36.7920   29.0720   40.9180 C   0  0  0  0  0  0  0  0  0  0  0  0
   36.7200   30.1550   41.7260 N   0  0  0  0  0  0  0  0  0  0  0  0
   36.3150   31.2270   41.0040 C   0  0  0  0  0  0  0  0  0  0  0  0
   36.1390   30.7890   39.7440 N   0  0  0  0  0  0  0  0  0  0  0  0
   36.4230   29.4790   39.6610 C   0  0  0  0  0  0  0  0  0  0  0  0
   36.3720   28.6680   38.5380 C   0  0  0  0  0  0  0  0  0  0  0  0
   36.7190   26.6080   37.8740 H   0  0  0  0  0  0  0  0  0  0  0  0
   36.9480   30.1700   42.7400 H   0  0  0  0  0  0  0  0  0  0  0  0
   36.1820   32.2170   41.4420 H   0  0  0  0  0  0  0  0  0  0  0  0
   36.0800   29.0070   37.5640 H   0  0  0  0  0  0  0  0  0  0  0  0
   36.9070   23.2880   40.6640 C   0  0  0  0  0  0  0  0  0  0  0  0
   38.2290   22.8740   40.5140 C   0  0  0  0  0  0  0  0  0  0  0  0
   39.1840   23.8380   40.1730 C   0  0  0  0  0  0  0  0  0  0  0  0
   38.7500   25.1250   40.0100 N   0  0  0  0  0  0  0  0  0  0  0  0
   37.4770   25.5020   40.1580 C   0  0  0  0  0  0  0  0  0  0  0  0
   36.5730   24.5820   40.4830 N   0  0  0  0  0  0  0  0  0  0  0  0
   36.0880   22.6590   40.9200 H   0  0  0  0  0  0  0  0  0  0  0  0
   38.4470   21.8470   40.6660 H   0  0  0  0  0  0  0  0  0  0  0  0
   40.2010   23.5470   40.0530 H   0  0  0  0  0  0  0  0  0  0  0  0
   37.5670   27.2220   42.4030 C   0  0  0  0  0  3  0  0  0  0  0  0
   36.4070   27.0820   43.4260 C   0  0  0  0  0  2  0  0  0  0  0  0
   37.4980   28.0660   43.6310 C   0  0  0  0  0  2  0  0  0  0  0  0
  1  2  1  0  0  0  0
  2 18  1  0  0  0  0
  2  3  2  0  0  0  0
  3 23  1  0  0  0  0
  4  3  1  0  0  0  0
  4  5  1  0  0  0  0
  5 11  1  0  0  0  0
  6 12  1  0  0  0  0
  6  5  1  0  0  0  0
  7  6  2  0  0  0  0
  8  7  1  0  0  0  0
  8  4  2  0  0  0  0
  9  1  2  0  0  0  0
  9  8  1  0  0  0  0
 10  1  1  0  0  0  0
 13  9  1  0  0  0  0
 14 20  1  0  0  0  0
 15 14  1  0  0  0  0
 15 21  1  0  0  0  0
 16 15  2  0  0  0  0
 17 18  2  0  0  0  0
 17 16  1  0  0  0  0
 18 19  1  0  0  0  0
 19 14  2  0  0  0  0
 22 16  1  0  0  0  0
 23 24  1  0  0  0  0
 23 25  1  0  0  0  0
 24 25  1  0  0  0  0
M  END
>  <minimizedAffinity>
-4.76203108

$$$$

 OpenBabel03252509123D

 25 28  0  0  0  0  0  0  0  0999 V2000
   40.7880   29.9940   42.3850 C   0  0  0  0  0  0  0  0  0  0  0  0
   39.4650   30.0630   41.9570 C   0  0  0  0  0  0  0  0  0  0  0  0
   38.9570   31.1490   41.2310 C   0  0  0  0  0  0  0  0  0  0  0  0
   39.8050   32.2010   40.9230 C   0  0  0  0  0  0  0  0  0  0  0  0
   39.6810   33.3820   40.2720 N   0  0  0  0  0  0  0  0  0  0  0  0
   40.8700   34.0290   40.2870 C   0  0  0  0  0  0  0  0  0  0  0  0
   41.7260   33.2330   40.9540 N   0  0  0  0  0  0  0  0  0  0  0  0
   41.1050   32.1120   41.3550 C   0  0  0  0  0  0  0  0  0  0  0  0
   41.6400   31.0540   42.0730 C   0  0  0  0  0  0  0  0  0  0  0  0
   41.1140   29.1150   42.9470 H   0  0  0  0  0  0  0  0  0  0  0  0
   38.8090   33.7430   39.8360 H   0  0  0  0  0  0  0  0  0  0  0  0
   41.0160   35.0050   39.8220 H   0  0  0  0  0  0  0  0  0  0  0  0
   42.6590   31.0040   42.4000 H   0  0  0  0  0  0  0  0  0  0  0  0
   36.9810   27.9710   43.6800 C   0  0  0  0  0  0  0  0  0  0  0  0
   36.8480   26.8830   42.8200 C   0  0  0  0  0  0  0  0  0  0  0  0
   37.6150   26.8720   41.6500 C   0  0  0  0  0  0  0  0  0  0  0  0
   38.4450   27.9370   41.4310 N   0  0  0  0  0  0  0  0  0  0  0  0
   38.5580   28.9730   42.2680 C   0  0  0  0  0  0  0  0  0  0  0  0
   37.8270   28.9770   43.3790 N   0  0  0  0  0  0  0  0  0  0  0  0
   36.4580   28.1020   44.5970 H   0  0  0  0  0  0  0  0  0  0  0  0
   36.1710   26.1140   43.0960 H   0  0  0  0  0  0  0  0  0  0  0  0
   37.5310   26.0510   40.9780 H   0  0  0  0  0  0  0  0  0  0  0  0
   37.5340   31.1730   40.8130 C   0  0  0  0  0  3  0  0  0  0  0  0
   37.2930   30.6580   39.3690 C   0  0  0  0  0  2  0  0  0  0  0  0
   37.0540   32.0760   39.7280 C   0  0  0  0  0  2  0  0  0  0  0  0
  1 10  1  0  0  0  0
  2 18  1  0  0  0  0
  2  1  2  0  0  0  0
  3  2  1  0  0  0  0
  4  3  2  0  0  0  0
  4  8  1  0  0  0  0
  5  6  1  0  0  0  0
  5  4  1  0  0  0  0
  6  7  2  0  0  0  0
  7  8  1  0  0  0  0
  8  9  2  0  0  0  0
  9  1  1  0  0  0  0
  9 13  1  0  0  0  0
 11  5  1  0  0  0  0
 12  6  1  0  0  0  0
 14 20  1  0  0  0  0
 15 21  1  0  0  0  0
 15 14  2  0  0  0  0
 16 15  1  0  0  0  0
 17 16  2  0  0  0  0
 17 18  1  0  0  0  0
 18 19  2  0  0  0  0
 19 14  1  0  0  0  0
 22 16  1  0  0  0  0
 23  3  1  0  0  0  0
 24 25  1  0  0  0  0
 24 23  1  0  0  0  0
 25 23  1  0  0  0  0
M  END
>  <minimizedAffinity>
-4.76105738

$$$$

 OpenBabel03252509123D

 25 28  0  0  0  0  0  0  0  0999 V2000
   38.8440   27.5380   39.2710 C   0  0  0  0  0  0  0  0  0  0  0  0
   38.1090   28.1200   40.3010 C   0  0  0  0  0  0  0  0  0  0  0  0
   37.4750   27.3680   41.3000 C   0  0  0  0  0  0  0  0  0  0  0  0
   37.5820   25.9860   41.2650 C   0  0  0  0  0  0  0  0  0  0  0  0
   37.1180   24.9640   42.0200 N   0  0  0  0  0  0  0  0  0  0  0  0
   37.5390   23.7900   41.4940 C   0  0  0  0  0  0  0  0  0  0  0  0
   38.2680   24.1030   40.4060 N   0  0  0  0  0  0  0  0  0  0  0  0
   38.3110   25.4350   40.2410 C   0  0  0  0  0  0  0  0  0  0  0  0
   38.9510   26.1470   39.2390 C   0  0  0  0  0  0  0  0  0  0  0  0
   39.3110   28.1880   38.5260 H   0  0  0  0  0  0  0  0  0  0  0  0
   36.5220   25.0590   42.8670 H   0  0  0  0  0  0  0  0  0  0  0  0
   37.2900   22.8230   41.9330 H   0  0  0  0  0  0  0  0  0  0  0  0
   39.5160   25.6960   38.4480 H   0  0  0  0  0  0  0  0  0  0  0  0
   38.7720   31.6560   41.0540 C   0  0  0  0  0  0  0  0  0  0  0  0
   37.7040   32.3060   40.4390 C   0  0  0  0  0  0  0  0  0  0  0  0
   36.7580   31.5240   39.7680 C   0  0  0  0  0  0  0  0  0  0  0  0
   36.9500   30.1690   39.7630 N   0  0  0  0  0  0  0  0  0  0  0  0
   37.9820   29.5650   40.3580 C   0  0  0  0  0  0  0  0  0  0  0  0
   38.8790   30.3130   40.9950 N   0  0  0  0  0  0  0  0  0  0  0  0
   39.5560   32.1310   41.5940 H   0  0  0  0  0  0  0  0  0  0  0  0
   37.6600   33.3640   40.5110 H   0  0  0  0  0  0  0  0  0  0  0  0
   35.9330   31.9960   39.2900 H   0  0  0  0  0  0  0  0  0  0  0  0
   36.6950   28.0430   42.3650 C   0  0  0  0  0  3  0  0  0  0  0  0
   37.5030   28.3190   43.6610 C   0  0  0  0  0  2  0  0  0  0  0  0
   36.3740   27.3580   43.6510 C   0  0  0  0  0  2  0  0  0  0  0  0
  1  2  1  0  0  0  0
  2 18  1  0  0  0  0
  2  3  2  0  0  0  0
  3 23  1  0  0  0  0
  4  3  1  0  0  0  0
  4  5  1  0  0  0  0
  5 11  1  0  0  0  0
  6 12  1  0  0  0  0
  6  5  1  0  0  0  0
  7  6  2  0  0  0  0
  8  7  1  0  0  0  0
  8  4  2  0  0  0  0
  9  1  2  0  0  0  0
  9  8  1  0  0  0  0
 10  1  1  0  0  0  0
 13  9  1  0  0  0  0
 14 20  1  0  0  0  0
 15 21  1  0  0  0  0
 15 14  2  0  0  0  0
 16 15  1  0  0  0  0
 17 16  2  0  0  0  0
 17 18  1  0  0  0  0
 18 19  2  0  0  0  0
 19 14  1  0  0  0  0
 22 16  1  0  0  0  0
 23 25  1  0  0  0  0
 23 24  1  0  0  0  0
 25 24  1  0  0  0  0
M  END
>  <minimizedAffinity>
-4.72696733

$$$$

 OpenBabel03252509123D

 25 28  0  0  0  0  0  0  0  0999 V2000
   38.8930   27.5440   39.2950 C   0  0  0  0  0  0  0  0  0  0  0  0
   38.1310   28.1180   40.3110 C   0  0  0  0  0  0  0  0  0  0  0  0
   37.4900   27.3590   41.3000 C   0  0  0  0  0  0  0  0  0  0  0  0
   37.6170   25.9790   41.2700 C   0  0  0  0  0  0  0  0  0  0  0  0
   37.1530   24.9520   42.0190 N   0  0  0  0  0  0  0  0  0  0  0  0
   37.6010   23.7820   41.5040 C   0  0  0  0  0  0  0  0  0  0  0  0
   38.3450   24.1030   40.4290 N   0  0  0  0  0  0  0  0  0  0  0  0
   38.3720   25.4360   40.2610 C   0  0  0  0  0  0  0  0  0  0  0  0
   39.0190   26.1540   39.2690 C   0  0  0  0  0  0  0  0  0  0  0  0
   39.3640   28.1990   38.5570 H   0  0  0  0  0  0  0  0  0  0  0  0
   36.5410   25.0400   42.8550 H   0  0  0  0  0  0  0  0  0  0  0  0
   37.3570   22.8130   41.9400 H   0  0  0  0  0  0  0  0  0  0  0  0
   39.6050   25.7100   38.4890 H   0  0  0  0  0  0  0  0  0  0  0  0
   36.7920   31.5080   39.8440 C   0  0  0  0  0  0  0  0  0  0  0  0
   37.7410   32.3040   40.4810 C   0  0  0  0  0  0  0  0  0  0  0  0
   38.8410   31.6690   41.0690 C   0  0  0  0  0  0  0  0  0  0  0  0
   38.9060   30.3060   40.9770 N   0  0  0  0  0  0  0  0  0  0  0  0
   37.9830   29.5610   40.3610 C   0  0  0  0  0  0  0  0  0  0  0  0
   36.9400   30.1690   39.8040 N   0  0  0  0  0  0  0  0  0  0  0  0
   35.9130   31.8630   39.3600 H   0  0  0  0  0  0  0  0  0  0  0  0
   37.5840   33.3530   40.4890 H   0  0  0  0  0  0  0  0  0  0  0  0
   39.5800   32.2550   41.5620 H   0  0  0  0  0  0  0  0  0  0  0  0
   36.6810   28.0250   42.3490 C   0  0  0  0  0  3  0  0  0  0  0  0
   37.4750   28.3590   43.6400 C   0  0  0  0  0  2  0  0  0  0  0  0
   36.3830   27.3560   43.6480 C   0  0  0  0  0  2  0  0  0  0  0  0
  1  2  1  0  0  0  0
  2 18  1  0  0  0  0
  2  3  2  0  0  0  0
  3 23  1  0  0  0  0
  4  3  1  0  0  0  0
  4  5  1  0  0  0  0
  5 11  1  0  0  0  0
  6 12  1  0  0  0  0
  6  5  1  0  0  0  0
  7  6  2  0  0  0  0
  8  7  1  0  0  0  0
  8  4  2  0  0  0  0
  9  1  2  0  0  0  0
  9  8  1  0  0  0  0
 10  1  1  0  0  0  0
 13  9  1  0  0  0  0
 14 15  1  0  0  0  0
 15 21  1  0  0  0  0
 15 16  2  0  0  0  0
 16 22  1  0  0  0  0
 17 16  1  0  0  0  0
 18 17  2  0  0  0  0
 19 14  2  0  0  0  0
 19 18  1  0  0  0  0
 20 14  1  0  0  0  0
 23 24  1  0  0  0  0
 23 25  1  0  0  0  0
 24 25  1  0  0  0  0
M  END
>  <minimizedAffinity>
-4.71942806

$$$$

 OpenBabel03252509123D

 25 28  0  0  0  0  0  0  0  0999 V2000
   40.9610   29.7870   40.5020 C   0  0  0  0  0  0  0  0  0  0  0  0
   39.6660   30.2770   40.6520 C   0  0  0  0  0  0  0  0  0  0  0  0
   39.2720   31.5370   40.1810 C   0  0  0  0  0  0  0  0  0  0  0  0
   40.2080   32.3320   39.5380 C   0  0  0  0  0  0  0  0  0  0  0  0
   40.2050   33.5640   38.9780 N   0  0  0  0  0  0  0  0  0  0  0  0
   41.4400   33.8410   38.4950 C   0  0  0  0  0  0  0  0  0  0  0  0
   42.2020   32.7650   38.7660 N   0  0  0  0  0  0  0  0  0  0  0  0
   41.4770   31.8290   39.4020 C   0  0  0  0  0  0  0  0  0  0  0  0
   41.9010   30.5890   39.8540 C   0  0  0  0  0  0  0  0  0  0  0  0
   41.1960   28.7940   40.8960 H   0  0  0  0  0  0  0  0  0  0  0  0
   39.3880   34.2050   38.9310 H   0  0  0  0  0  0  0  0  0  0  0  0
   41.6820   34.7800   37.9970 H   0  0  0  0  0  0  0  0  0  0  0  0
   42.8980   30.2150   39.7370 H   0  0  0  0  0  0  0  0  0  0  0  0
   36.9590   27.8650   41.2550 C   0  0  0  0  0  0  0  0  0  0  0  0
   36.7900   27.9330   42.6360 C   0  0  0  0  0  0  0  0  0  0  0  0
   37.6090   28.8100   43.3560 C   0  0  0  0  0  0  0  0  0  0  0  0
   38.5220   29.5430   42.6480 N   0  0  0  0  0  0  0  0  0  0  0  0
   38.6690   29.4620   41.3220 C   0  0  0  0  0  0  0  0  0  0  0  0
   37.8880   28.6270   40.6440 N   0  0  0  0  0  0  0  0  0  0  0  0
   36.4040   27.2420   40.5950 H   0  0  0  0  0  0  0  0  0  0  0  0
   36.0470   27.3160   43.0760 H   0  0  0  0  0  0  0  0  0  0  0  0
   37.4990   28.8800   44.4120 H   0  0  0  0  0  0  0  0  0  0  0  0
   37.8810   32.0110   40.3810 C   0  0  0  0  0  3  0  0  0  0  0  0
   36.9570   31.7890   39.1540 C   0  0  0  0  0  2  0  0  0  0  0  0
   37.3260   33.1540   39.5990 C   0  0  0  0  0  2  0  0  0  0  0  0
  1  2  1  0  0  0  0
  1 10  1  0  0  0  0
  2 18  1  0  0  0  0
  3 23  1  0  0  0  0
  3  2  2  0  0  0  0
  4  3  1  0  0  0  0
  5  4  1  0  0  0  0
  6  7  2  0  0  0  0
  6  5  1  0  0  0  0
  7  8  1  0  0  0  0
  8  4  2  0  0  0  0
  8  9  1  0  0  0  0
  9  1  2  0  0  0  0
 11  5  1  0  0  0  0
 12  6  1  0  0  0  0
 13  9  1  0  0  0  0
 14 15  1  0  0  0  0
 15 21  1  0  0  0  0
 15 16  2  0  0  0  0
 16 22  1  0  0  0  0
 17 16  1  0  0  0  0
 18 17  2  0  0  0  0
 19 14  2  0  0  0  0
 19 18  1  0  0  0  0
 20 14  1  0  0  0  0
 24 25  1  0  0  0  0
 24 23  1  0  0  0  0
 25 23  1  0  0  0  0
M  END
>  <minimizedAffinity>
-4.55860662

$$$$

 OpenBabel03252509123D

 25 28  0  0  0  0  0  0  0  0999 V2000
   37.3570   28.6710   43.0110 C   0  0  0  0  0  0  0  0  0  0  0  0
   37.5790   28.9660   41.6680 C   0  0  0  0  0  0  0  0  0  0  0  0
   37.5420   27.9930   40.6600 C   0  0  0  0  0  0  0  0  0  0  0  0
   37.2730   26.6790   41.0120 C   0  0  0  0  0  0  0  0  0  0  0  0
   37.1680   25.5050   40.3460 N   0  0  0  0  0  0  0  0  0  0  0  0
   36.8920   24.5130   41.2260 C   0  0  0  0  0  0  0  0  0  0  0  0
   36.8280   25.0910   42.4400 N   0  0  0  0  0  0  0  0  0  0  0  0
   37.0570   26.4120   42.3400 C   0  0  0  0  0  0  0  0  0  0  0  0
   37.0860   27.3480   43.3610 C   0  0  0  0  0  0  0  0  0  0  0  0
   37.4030   29.4830   43.7420 H   0  0  0  0  0  0  0  0  0  0  0  0
   37.2880   25.3770   39.3210 H   0  0  0  0  0  0  0  0  0  0  0  0
   36.7610   23.4740   40.9220 H   0  0  0  0  0  0  0  0  0  0  0  0
   36.9140   27.1180   44.3940 H   0  0  0  0  0  0  0  0  0  0  0  0
   37.2070   32.3510   40.2840 C   0  0  0  0  0  0  0  0  0  0  0  0
   38.4460   32.9300   40.5530 C   0  0  0  0  0  0  0  0  0  0  0  0
   39.4060   32.1520   41.2090 C   0  0  0  0  0  0  0  0  0  0  0  0
   39.0580   30.8710   41.5430 N   0  0  0  0  0  0  0  0  0  0  0  0
   37.8640   30.3350   41.2770 C   0  0  0  0  0  0  0  0  0  0  0  0
   36.9550   31.0790   40.6520 N   0  0  0  0  0  0  0  0  0  0  0  0
   36.3950   32.8320   39.7940 H   0  0  0  0  0  0  0  0  0  0  0  0
   38.6010   33.9340   40.2460 H   0  0  0  0  0  0  0  0  0  0  0  0
   40.3600   32.5710   41.4260 H   0  0  0  0  0  0  0  0  0  0  0  0
   37.7990   28.3640   39.2480 C   0  0  0  0  0  3  0  0  0  0  0  0
   38.7860   27.4150   38.5160 C   0  0  0  0  0  2  0  0  0  0  0  0
   39.1420   28.8270   38.7950 C   0  0  0  0  0  2  0  0  0  0  0  0
  1  9  1  0  0  0  0
  1 10  1  0  0  0  0
  2  1  2  0  0  0  0
  3  4  2  0  0  0  0
  3  2  1  0  0  0  0
  4  8  1  0  0  0  0
  5  4  1  0  0  0  0
  5  6  1  0  0  0  0
  6  7  2  0  0  0  0
  8  7  1  0  0  0  0
  8  9  2  0  0  0  0
  9 13  1  0  0  0  0
 11  5  1  0  0  0  0
 12  6  1  0  0  0  0
 14 15  2  0  0  0  0
 14 19  1  0  0  0  0
 15 16  1  0  0  0  0
 16 22  1  0  0  0  0
 16 17  2  0  0  0  0
 18 17  1  0  0  0  0
 18  2  1  0  0  0  0
 19 18  2  0  0  0  0
 20 14  1  0  0  0  0
 21 15  1  0  0  0  0
 23  3  1  0  0  0  0
 24 25  1  0  0  0  0
 24 23  1  0  0  0  0
 25 23  1  0  0  0  0
M  END
>  <minimizedAffinity>
-4.55217266

$$$$
