
 OpenBabel03252507583D

 21 23  0  0  1  0  0  0  0  0999 V2000
   46.1860   34.8470   43.2090 C   0  0  0  0  0  0  0  0  0  0  0  0
   45.2760   35.8360   43.5990 C   0  0  0  0  0  0  0  0  0  0  0  0
   44.6260   35.6820   44.8380 C   0  0  0  0  0  0  0  0  0  0  0  0
   44.9250   34.5790   45.5790 N   0  0  0  0  0  0  0  0  0  0  0  0
   45.8220   33.6520   45.1390 C   0  0  0  0  0  0  0  0  0  0  0  0
   46.4550   33.7620   43.9740 N   0  0  0  0  0  0  0  0  0  0  0  0
   45.0330   36.7010   43.0340 H   0  0  0  0  0  0  0  0  0  0  0  0
   43.9210   36.4130   45.1800 H   0  0  0  0  0  0  0  0  0  0  0  0
   46.1150   32.4770   46.0150 C   0  0  1  0  0  0  0  0  0  0  0  0
   47.0320   32.6380   47.1880 C   0  0  0  0  0  0  0  0  0  0  0  0
   45.5600   32.5950   47.3990 C   0  0  2  0  0  0  0  0  0  0  0  0
   46.0360   31.4810   45.5380 H   0  0  0  0  0  0  0  0  0  0  0  0
   47.7090   31.8050   47.3670 H   0  0  0  0  0  0  0  0  0  0  0  0
   47.5270   33.6350   47.2240 H   0  0  0  0  0  0  0  0  0  0  0  0
   45.0690   33.5410   47.7170 H   0  0  0  0  0  0  0  0  0  0  0  0
   45.1000   31.3800   48.1490 C   0  0  0  0  0  0  0  0  0  0  0  0
   45.1290   31.5250   49.6760 C   0  0  0  0  0  0  0  0  0  0  0  0
   46.0010   30.5550   48.9670 C   0  0  0  0  0  0  0  0  0  0  0  0
   46.8180   35.0780   41.9430 C   0  0  0  0  0  0  0  0  0  0  0  0
   48.0270   35.4320   41.7820 O   0  0  0  0  0  0  0  0  0  0  0  0
   46.4560   35.0160   40.9070 H   0  0  0  0  0  0  0  0  0  0  0  0
  1  2  2  0  0  0  0
  1  6  1  0  0  0  0
  2  3  1  0  0  0  0
  3  8  1  0  0  0  0
  3  4  2  0  0  0  0
  5  4  1  0  0  0  0
  5  9  1  0  0  0  0
  6  5  2  0  0  0  0
  7  2  1  0  0  0  0
  9 12  1  6  0  0  0
  9 10  1  0  0  0  0
  9 11  1  0  0  0  0
 10 14  1  0  0  0  0
 10 13  1  0  0  0  0
 10 11  1  0  0  0  0
 11 15  1  1  0  0  0
 11 16  1  0  0  0  0
 16 18  1  0  0  0  0
 16 17  1  0  0  0  0
 18 17  1  0  0  0  0
 19  1  1  0  0  0  0
 20 19  2  0  0  0  0
 21 19  1  0  0  0  0
M  END
>  <minimizedAffinity>
-4.72469044

>  <minimizedRMSD>
0.834959209

$$$$
