
 OpenBabel03242521193D

 32 34  0  0  0  0  0  0  0  0999 V2000
   36.1400   30.5860   40.3060 C   0  0  0  0  0  0  0  0  0  0  0  0
   37.1010   31.2490   39.5230 C   0  0  0  0  0  0  0  0  0  0  0  0
   38.4150   31.2380   40.0060 C   0  0  0  0  0  0  0  0  0  0  0  0
   38.6920   30.5980   41.1930 N   0  0  0  0  0  0  0  0  0  0  0  0
   37.7190   29.9820   41.8910 C   0  0  0  0  0  0  0  0  0  0  0  0
   36.4250   29.9620   41.4680 N   0  0  0  0  0  0  0  0  0  0  0  0
   35.1010   30.5620   39.9780 H   0  0  0  0  0  0  0  0  0  0  0  0
   36.7860   31.7160   38.6180 H   0  0  0  0  0  0  0  0  0  0  0  0
   39.4120   31.8990   39.2380 N   0  0  0  0  0  0  0  0  0  0  0  0
   39.9950   31.2330   38.2310 C   0  0  0  0  0  0  0  0  0  0  0  0
   40.9680   31.8580   37.4710 C   0  0  0  0  0  0  0  0  0  0  0  0
   41.2950   33.1540   37.7930 C   0  0  0  0  0  0  0  0  0  0  0  0
   42.1920   33.7190   37.0870 O   0  0  0  0  0  0  0  0  0  0  0  0
   40.7220   33.8390   38.8010 N   0  0  0  0  0  0  0  0  0  0  0  0
   39.7780   33.1680   39.5040 C   0  0  0  0  0  0  0  0  0  0  0  0
   39.1860   33.7110   40.4570 O   0  0  0  0  0  0  0  0  0  0  0  0
   39.7360   30.2020   37.9720 H   0  0  0  0  0  0  0  0  0  0  0  0
   41.4690   31.3700   36.6490 H   0  0  0  0  0  0  0  0  0  0  0  0
   40.9930   34.8200   39.0200 H   0  0  0  0  0  0  0  0  0  0  0  0
   38.2870   29.3730   43.1280 C   0  0  0  0  0  0  0  0  0  0  0  0
   39.2930   28.9780   42.8560 H   0  0  0  0  0  0  0  0  0  0  0  0
   38.4820   30.1440   43.9090 H   0  0  0  0  0  0  0  0  0  0  0  0
   37.4140   28.2370   43.6190 C   0  0  0  0  0  0  0  0  0  0  0  0
   37.8820   27.6870   44.4380 H   0  0  0  0  0  0  0  0  0  0  0  0
   36.4360   28.6590   43.9630 H   0  0  0  0  0  0  0  0  0  0  0  0
   37.9420   26.2130   42.3400 C   0  0  0  0  0  0  0  0  0  0  0  0
   38.8310   26.0230   43.2160 O   0  0  0  0  0  0  0  0  0  0  0  0
   37.1240   27.3460   42.5210 N   0  0  0  0  0  0  0  0  0  0  0  0
   36.3400   27.4870   41.8410 H   0  0  0  0  0  0  0  0  0  0  0  0
   37.8430   25.2440   41.2290 C   0  0  0  0  0  3  0  0  0  0  0  0
   36.6770   24.2380   41.3060 C   0  0  0  0  0  2  0  0  0  0  0  0
   38.0670   23.8000   41.4710 C   0  0  0  0  0  2  0  0  0  0  0  0
  1  6  1  0  0  0  0
  2  3  1  0  0  0  0
  2  1  2  0  0  0  0
  3  4  2  0  0  0  0
  4  5  1  0  0  0  0
  5 20  1  0  0  0  0
  6  5  2  0  0  0  0
  7  1  1  0  0  0  0
  8  2  1  0  0  0  0
  9 15  1  0  0  0  0
  9  3  1  0  0  0  0
 10  9  1  0  0  0  0
 11 12  1  0  0  0  0
 11 10  2  0  0  0  0
 12 14  1  0  0  0  0
 13 12  2  0  0  0  0
 14 19  1  0  0  0  0
 14 15  1  0  0  0  0
 15 16  2  0  0  0  0
 17 10  1  0  0  0  0
 18 11  1  0  0  0  0
 20 23  1  0  0  0  0
 20 22  1  0  0  0  0
 21 20  1  0  0  0  0
 23 25  1  0  0  0  0
 23 24  1  0  0  0  0
 26 28  1  0  0  0  0
 26 27  2  0  0  0  0
 28 23  1  0  0  0  0
 29 28  1  0  0  0  0
 30 31  1  0  0  0  0
 30 32  1  0  0  0  0
 30 26  1  0  0  0  0
 31 32  1  0  0  0  0
M  END
>  <minimizedAffinity>
-5.43499374

$$$$

 OpenBabel03242521193D

 32 34  0  0  0  0  0  0  0  0999 V2000
   36.0960   30.7760   40.9670 C   0  0  0  0  0  0  0  0  0  0  0  0
   37.1950   31.3990   40.3500 C   0  0  0  0  0  0  0  0  0  0  0  0
   37.8950   30.6380   39.4060 C   0  0  0  0  0  0  0  0  0  0  0  0
   37.4840   29.3520   39.1380 N   0  0  0  0  0  0  0  0  0  0  0  0
   36.4200   28.8190   39.7680 C   0  0  0  0  0  0  0  0  0  0  0  0
   35.7030   29.5140   40.6940 N   0  0  0  0  0  0  0  0  0  0  0  0
   35.5140   31.3210   41.7100 H   0  0  0  0  0  0  0  0  0  0  0  0
   37.4340   32.4010   40.6270 H   0  0  0  0  0  0  0  0  0  0  0  0
   39.0120   31.2380   38.7630 N   0  0  0  0  0  0  0  0  0  0  0  0
   40.1810   31.2870   39.4170 C   0  0  0  0  0  0  0  0  0  0  0  0
   41.2810   31.8660   38.8090 C   0  0  0  0  0  0  0  0  0  0  0  0
   41.1160   32.3740   37.5420 C   0  0  0  0  0  0  0  0  0  0  0  0
   42.1350   32.9050   36.9920 O   0  0  0  0  0  0  0  0  0  0  0  0
   39.9500   32.3360   36.8690 N   0  0  0  0  0  0  0  0  0  0  0  0
   38.9140   31.7550   37.5230 C   0  0  0  0  0  0  0  0  0  0  0  0
   37.7920   31.6680   36.9890 O   0  0  0  0  0  0  0  0  0  0  0  0
   40.3160   30.8830   40.4250 H   0  0  0  0  0  0  0  0  0  0  0  0
   42.2460   31.9320   39.2880 H   0  0  0  0  0  0  0  0  0  0  0  0
   39.8580   32.7300   35.9100 H   0  0  0  0  0  0  0  0  0  0  0  0
   36.1930   27.4240   39.2940 C   0  0  0  0  0  0  0  0  0  0  0  0
   35.0910   27.2690   39.2730 H   0  0  0  0  0  0  0  0  0  0  0  0
   36.5230   27.2950   38.2380 H   0  0  0  0  0  0  0  0  0  0  0  0
   36.8260   26.4240   40.2400 C   0  0  0  0  0  0  0  0  0  0  0  0
   36.0990   26.0100   40.9420 H   0  0  0  0  0  0  0  0  0  0  0  0
   37.2780   25.5960   39.6380 H   0  0  0  0  0  0  0  0  0  0  0  0
   37.8070   27.1790   42.3570 C   0  0  0  0  0  0  0  0  0  0  0  0
   36.7970   26.6410   42.8910 O   0  0  0  0  0  0  0  0  0  0  0  0
   37.9070   27.0600   40.9560 N   0  0  0  0  0  0  0  0  0  0  0  0
   38.7690   27.4440   40.5010 H   0  0  0  0  0  0  0  0  0  0  0  0
   38.7730   27.8690   43.2360 C   0  0  0  0  0  3  0  0  0  0  0  0
   38.8460   29.4020   43.0950 C   0  0  0  0  0  2  0  0  0  0  0  0
   39.9570   28.5490   42.6620 C   0  0  0  0  0  2  0  0  0  0  0  0
  1  7  1  0  0  0  0
  2  8  1  0  0  0  0
  2  1  2  0  0  0  0
  3  2  1  0  0  0  0
  4  3  2  0  0  0  0
  4  5  1  0  0  0  0
  5  6  2  0  0  0  0
  6  1  1  0  0  0  0
  9  3  1  0  0  0  0
  9 10  1  0  0  0  0
 10 17  1  0  0  0  0
 11 18  1  0  0  0  0
 11 10  2  0  0  0  0
 12 11  1  0  0  0  0
 13 12  2  0  0  0  0
 14 15  1  0  0  0  0
 14 12  1  0  0  0  0
 15  9  1  0  0  0  0
 16 15  2  0  0  0  0
 19 14  1  0  0  0  0
 20  5  1  0  0  0  0
 20 23  1  0  0  0  0
 21 20  1  0  0  0  0
 22 20  1  0  0  0  0
 23 24  1  0  0  0  0
 23 28  1  0  0  0  0
 25 23  1  0  0  0  0
 26 27  2  0  0  0  0
 26 30  1  0  0  0  0
 28 26  1  0  0  0  0
 29 28  1  0  0  0  0
 31 30  1  0  0  0  0
 32 31  1  0  0  0  0
 32 30  1  0  0  0  0
M  END
>  <minimizedAffinity>
-5.41612482

$$$$

 OpenBabel03242521193D

 32 34  0  0  0  0  0  0  0  0999 V2000
   37.1650   27.6140   43.6030 C   0  0  0  0  0  0  0  0  0  0  0  0
   37.4140   28.9340   43.1890 C   0  0  0  0  0  0  0  0  0  0  0  0
   37.4780   29.1530   41.8070 C   0  0  0  0  0  0  0  0  0  0  0  0
   37.3000   28.0920   40.9480 N   0  0  0  0  0  0  0  0  0  0  0  0
   37.0650   26.8520   41.4170 C   0  0  0  0  0  0  0  0  0  0  0  0
   36.9920   26.5830   42.7500 N   0  0  0  0  0  0  0  0  0  0  0  0
   37.1060   27.3850   44.6670 H   0  0  0  0  0  0  0  0  0  0  0  0
   37.5390   29.6870   43.9330 H   0  0  0  0  0  0  0  0  0  0  0  0
   37.7280   30.4770   41.3540 N   0  0  0  0  0  0  0  0  0  0  0  0
   38.9620   30.9820   41.4920 C   0  0  0  0  0  0  0  0  0  0  0  0
   39.2270   32.2680   41.0560 C   0  0  0  0  0  0  0  0  0  0  0  0
   38.1910   32.9770   40.4940 C   0  0  0  0  0  0  0  0  0  0  0  0
   38.4460   34.1610   40.0970 O   0  0  0  0  0  0  0  0  0  0  0  0
   36.9460   32.4890   40.3480 N   0  0  0  0  0  0  0  0  0  0  0  0
   36.7550   31.2230   40.7950 C   0  0  0  0  0  0  0  0  0  0  0  0
   35.6400   30.6760   40.7060 O   0  0  0  0  0  0  0  0  0  0  0  0
   39.7880   30.4200   41.9370 H   0  0  0  0  0  0  0  0  0  0  0  0
   40.2010   32.7250   41.1420 H   0  0  0  0  0  0  0  0  0  0  0  0
   36.1830   33.0520   39.9180 H   0  0  0  0  0  0  0  0  0  0  0  0
   36.9100   25.8990   40.2810 C   0  0  0  0  0  0  0  0  0  0  0  0
   36.0550   25.2320   40.5380 H   0  0  0  0  0  0  0  0  0  0  0  0
   36.5970   26.4230   39.3490 H   0  0  0  0  0  0  0  0  0  0  0  0
   38.1640   25.0670   40.1010 C   0  0  0  0  0  0  0  0  0  0  0  0
   38.0740   24.0870   40.5750 H   0  0  0  0  0  0  0  0  0  0  0  0
   38.3550   24.9370   39.0070 H   0  0  0  0  0  0  0  0  0  0  0  0
   39.9750   25.2300   41.7460 C   0  0  0  0  0  0  0  0  0  0  0  0
   39.5800   24.0940   42.1310 O   0  0  0  0  0  0  0  0  0  0  0  0
   39.2950   25.7830   40.6430 N   0  0  0  0  0  0  0  0  0  0  0  0
   39.6480   26.6950   40.2680 H   0  0  0  0  0  0  0  0  0  0  0  0
   41.0940   25.8600   42.4760 C   0  0  0  0  0  3  0  0  0  0  0  0
   40.7090   26.7440   43.6790 C   0  0  0  0  0  2  0  0  0  0  0  0
   41.2680   27.3310   42.4560 C   0  0  0  0  0  2  0  0  0  0  0  0
  1  7  1  0  0  0  0
  2  1  1  0  0  0  0
  2  8  1  0  0  0  0
  3  2  2  0  0  0  0
  4  5  2  0  0  0  0
  4  3  1  0  0  0  0
  5  6  1  0  0  0  0
  6  1  2  0  0  0  0
  9 10  1  0  0  0  0
  9  3  1  0  0  0  0
 10 17  1  0  0  0  0
 11 18  1  0  0  0  0
 11 10  2  0  0  0  0
 12 11  1  0  0  0  0
 13 12  2  0  0  0  0
 14 12  1  0  0  0  0
 14 15  1  0  0  0  0
 15  9  1  0  0  0  0
 16 15  2  0  0  0  0
 19 14  1  0  0  0  0
 20 21  1  0  0  0  0
 20  5  1  0  0  0  0
 22 20  1  0  0  0  0
 23 20  1  0  0  0  0
 23 24  1  0  0  0  0
 23 28  1  0  0  0  0
 25 23  1  0  0  0  0
 26 27  2  0  0  0  0
 26 30  1  0  0  0  0
 28 26  1  0  0  0  0
 29 28  1  0  0  0  0
 30 31  1  0  0  0  0
 32 30  1  0  0  0  0
 32 31  1  0  0  0  0
M  END
>  <minimizedAffinity>
-5.28103399

$$$$

 OpenBabel03242521193D

 32 34  0  0  0  0  0  0  0  0999 V2000
   34.6820   27.7150   37.5770 C   0  0  0  0  0  0  0  0  0  0  0  0
   35.0740   29.0310   37.8800 C   0  0  0  0  0  0  0  0  0  0  0  0
   36.2030   29.1740   38.6960 C   0  0  0  0  0  0  0  0  0  0  0  0
   36.8530   28.0490   39.1500 N   0  0  0  0  0  0  0  0  0  0  0  0
   36.4210   26.8180   38.8190 C   0  0  0  0  0  0  0  0  0  0  0  0
   35.3290   26.6210   38.0290 N   0  0  0  0  0  0  0  0  0  0  0  0
   33.8100   27.5450   36.9460 H   0  0  0  0  0  0  0  0  0  0  0  0
   34.5030   29.8380   37.4790 H   0  0  0  0  0  0  0  0  0  0  0  0
   36.6270   30.4910   39.0220 N   0  0  0  0  0  0  0  0  0  0  0  0
   37.2690   31.2090   38.0890 C   0  0  0  0  0  0  0  0  0  0  0  0
   37.6900   32.4940   38.3850 C   0  0  0  0  0  0  0  0  0  0  0  0
   37.4250   32.9780   39.6440 C   0  0  0  0  0  0  0  0  0  0  0  0
   37.8180   34.1610   39.9060 O   0  0  0  0  0  0  0  0  0  0  0  0
   36.7830   32.2730   40.5950 N   0  0  0  0  0  0  0  0  0  0  0  0
   36.3990   31.0220   40.2390 C   0  0  0  0  0  0  0  0  0  0  0  0
   35.7970   30.2870   41.0440 O   0  0  0  0  0  0  0  0  0  0  0  0
   37.4800   30.8270   37.0860 H   0  0  0  0  0  0  0  0  0  0  0  0
   38.2100   33.1160   37.6730 H   0  0  0  0  0  0  0  0  0  0  0  0
   36.5980   32.6680   41.5400 H   0  0  0  0  0  0  0  0  0  0  0  0
   37.3000   25.7850   39.4390 C   0  0  0  0  0  0  0  0  0  0  0  0
   37.0210   24.8100   38.9770 H   0  0  0  0  0  0  0  0  0  0  0  0
   38.3680   25.9410   39.1610 H   0  0  0  0  0  0  0  0  0  0  0  0
   37.0790   25.7170   40.9360 C   0  0  0  0  0  0  0  0  0  0  0  0
   36.0810   26.0580   41.2170 H   0  0  0  0  0  0  0  0  0  0  0  0
   37.2220   24.6600   41.2730 H   0  0  0  0  0  0  0  0  0  0  0  0
   37.6680   27.4480   42.5710 C   0  0  0  0  0  0  0  0  0  0  0  0
   36.4340   27.4650   42.8350 O   0  0  0  0  0  0  0  0  0  0  0  0
   38.0840   26.5100   41.6040 N   0  0  0  0  0  0  0  0  0  0  0  0
   39.1120   26.4360   41.4170 H   0  0  0  0  0  0  0  0  0  0  0  0
   38.5450   28.3950   43.2890 C   0  0  0  0  0  3  0  0  0  0  0  0
   38.9940   29.6400   42.4980 C   0  0  0  0  0  2  0  0  0  0  0  0
   39.9500   28.5880   42.8620 C   0  0  0  0  0  2  0  0  0  0  0  0
  1  2  2  0  0  0  0
  1  6  1  0  0  0  0
  2  3  1  0  0  0  0
  3  9  1  0  0  0  0
  3  4  2  0  0  0  0
  5  4  1  0  0  0  0
  5 20  1  0  0  0  0
  6  5  2  0  0  0  0
  7  1  1  0  0  0  0
  8  2  1  0  0  0  0
  9 15  1  0  0  0  0
 10 11  2  0  0  0  0
 10  9  1  0  0  0  0
 11 12  1  0  0  0  0
 12 13  2  0  0  0  0
 12 14  1  0  0  0  0
 14 19  1  0  0  0  0
 15 14  1  0  0  0  0
 15 16  2  0  0  0  0
 17 10  1  0  0  0  0
 18 11  1  0  0  0  0
 20 23  1  0  0  0  0
 21 20  1  0  0  0  0
 22 20  1  0  0  0  0
 23 24  1  0  0  0  0
 23 25  1  0  0  0  0
 23 28  1  0  0  0  0
 26 27  2  0  0  0  0
 26 30  1  0  0  0  0
 28 26  1  0  0  0  0
 29 28  1  0  0  0  0
 31 32  1  0  0  0  0
 31 30  1  0  0  0  0
 32 30  1  0  0  0  0
M  END
>  <minimizedAffinity>
-5.26160002

$$$$

 OpenBabel03242521193D

 32 34  0  0  0  0  0  0  0  0999 V2000
   37.2760   28.4790   43.6020 C   0  0  0  0  0  0  0  0  0  0  0  0
   37.0430   27.2230   43.0150 C   0  0  0  0  0  0  0  0  0  0  0  0
   38.0680   26.7110   42.2090 C   0  0  0  0  0  0  0  0  0  0  0  0
   39.2190   27.4450   42.0360 N   0  0  0  0  0  0  0  0  0  0  0  0
   39.3730   28.6440   42.6300 C   0  0  0  0  0  0  0  0  0  0  0  0
   38.4100   29.1880   43.4240 N   0  0  0  0  0  0  0  0  0  0  0  0
   36.5130   28.9260   44.2390 H   0  0  0  0  0  0  0  0  0  0  0  0
   36.1170   26.7330   43.2110 H   0  0  0  0  0  0  0  0  0  0  0  0
   37.8660   25.4430   41.6000 N   0  0  0  0  0  0  0  0  0  0  0  0
   37.0340   25.3570   40.5520 C   0  0  0  0  0  0  0  0  0  0  0  0
   36.8230   24.1320   39.9450 C   0  0  0  0  0  0  0  0  0  0  0  0
   37.4890   23.0430   40.4570 C   0  0  0  0  0  0  0  0  0  0  0  0
   37.2870   21.9200   39.8910 O   0  0  0  0  0  0  0  0  0  0  0  0
   38.3270   23.1080   41.5090 N   0  0  0  0  0  0  0  0  0  0  0  0
   38.4880   24.3380   42.0560 C   0  0  0  0  0  0  0  0  0  0  0  0
   39.2420   24.5080   43.0330 O   0  0  0  0  0  0  0  0  0  0  0  0
   36.5030   26.2220   40.1430 H   0  0  0  0  0  0  0  0  0  0  0  0
   36.1650   24.0050   39.0990 H   0  0  0  0  0  0  0  0  0  0  0  0
   38.8160   22.2640   41.8730 H   0  0  0  0  0  0  0  0  0  0  0  0
   40.7030   29.2200   42.2780 C   0  0  0  0  0  0  0  0  0  0  0  0
   41.1700   29.5520   43.2340 H   0  0  0  0  0  0  0  0  0  0  0  0
   41.3910   28.4400   41.8770 H   0  0  0  0  0  0  0  0  0  0  0  0
   40.5470   30.4080   41.3520 C   0  0  0  0  0  0  0  0  0  0  0  0
   40.6760   31.3560   41.8790 H   0  0  0  0  0  0  0  0  0  0  0  0
   41.3080   30.3290   40.5350 H   0  0  0  0  0  0  0  0  0  0  0  0
   38.4530   31.5200   40.7300 C   0  0  0  0  0  0  0  0  0  0  0  0
   38.9800   32.5540   41.2270 O   0  0  0  0  0  0  0  0  0  0  0  0
   39.2490   30.3580   40.7230 N   0  0  0  0  0  0  0  0  0  0  0  0
   38.8530   29.5070   40.2570 H   0  0  0  0  0  0  0  0  0  0  0  0
   37.0740   31.6270   40.2090 C   0  0  0  0  0  3  0  0  0  0  0  0
   36.0310   30.6910   40.8510 C   0  0  0  0  0  2  0  0  0  0  0  0
   36.4650   30.5010   39.4630 C   0  0  0  0  0  2  0  0  0  0  0  0
  1  7  1  0  0  0  0
  2  8  1  0  0  0  0
  2  1  2  0  0  0  0
  3  2  1  0  0  0  0
  4  3  2  0  0  0  0
  4  5  1  0  0  0  0
  5  6  2  0  0  0  0
  6  1  1  0  0  0  0
  9 15  1  0  0  0  0
  9  3  1  0  0  0  0
 10  9  1  0  0  0  0
 11 12  1  0  0  0  0
 11 10  2  0  0  0  0
 12 14  1  0  0  0  0
 13 12  2  0  0  0  0
 14 19  1  0  0  0  0
 14 15  1  0  0  0  0
 15 16  2  0  0  0  0
 17 10  1  0  0  0  0
 18 11  1  0  0  0  0
 20  5  1  0  0  0  0
 20 21  1  0  0  0  0
 22 20  1  0  0  0  0
 23 24  1  0  0  0  0
 23 20  1  0  0  0  0
 25 23  1  0  0  0  0
 26 27  2  0  0  0  0
 28 26  1  0  0  0  0
 28 23  1  0  0  0  0
 29 28  1  0  0  0  0
 30 26  1  0  0  0  0
 30 31  1  0  0  0  0
 32 30  1  0  0  0  0
 32 31  1  0  0  0  0
M  END
>  <minimizedAffinity>
-5.23204327

$$$$

 OpenBabel03242521193D

 32 34  0  0  0  0  0  0  0  0999 V2000
   37.2170   27.6240   43.6520 C   0  0  0  0  0  0  0  0  0  0  0  0
   37.4030   28.9490   43.2210 C   0  0  0  0  0  0  0  0  0  0  0  0
   37.6020   29.1360   41.8470 C   0  0  0  0  0  0  0  0  0  0  0  0
   37.6070   28.0410   41.0120 N   0  0  0  0  0  0  0  0  0  0  0  0
   37.4220   26.7990   41.4960 C   0  0  0  0  0  0  0  0  0  0  0  0
   37.2240   26.5610   42.8220 N   0  0  0  0  0  0  0  0  0  0  0  0
   37.0570   27.4200   44.7110 H   0  0  0  0  0  0  0  0  0  0  0  0
   37.3820   29.7290   43.9470 H   0  0  0  0  0  0  0  0  0  0  0  0
   37.7930   30.4630   41.3760 N   0  0  0  0  0  0  0  0  0  0  0  0
   39.0070   31.0200   41.4970 C   0  0  0  0  0  0  0  0  0  0  0  0
   39.2140   32.3120   41.0450 C   0  0  0  0  0  0  0  0  0  0  0  0
   38.1450   32.9710   40.4850 C   0  0  0  0  0  0  0  0  0  0  0  0
   38.3480   34.1590   40.0730 O   0  0  0  0  0  0  0  0  0  0  0  0
   36.9200   32.4300   40.3560 N   0  0  0  0  0  0  0  0  0  0  0  0
   36.7860   31.1630   40.8190 C   0  0  0  0  0  0  0  0  0  0  0  0
   35.6920   30.5700   40.7470 O   0  0  0  0  0  0  0  0  0  0  0  0
   39.8590   30.4980   41.9410 H   0  0  0  0  0  0  0  0  0  0  0  0
   40.1700   32.8080   41.1160 H   0  0  0  0  0  0  0  0  0  0  0  0
   36.1300   32.9560   39.9280 H   0  0  0  0  0  0  0  0  0  0  0  0
   37.4730   25.8060   40.3850 C   0  0  0  0  0  0  0  0  0  0  0  0
   38.4730   25.3190   40.4380 H   0  0  0  0  0  0  0  0  0  0  0  0
   36.7420   24.9800   40.5440 H   0  0  0  0  0  0  0  0  0  0  0  0
   37.3140   26.4900   39.0430 C   0  0  0  0  0  0  0  0  0  0  0  0
   37.9700   27.3570   38.9470 H   0  0  0  0  0  0  0  0  0  0  0  0
   37.5480   25.7530   38.2340 H   0  0  0  0  0  0  0  0  0  0  0  0
   35.6520   27.9850   38.0360 C   0  0  0  0  0  0  0  0  0  0  0  0
   36.6380   28.5030   37.4420 O   0  0  0  0  0  0  0  0  0  0  0  0
   35.9350   26.8830   38.8670 N   0  0  0  0  0  0  0  0  0  0  0  0
   35.1230   26.4000   39.3190 H   0  0  0  0  0  0  0  0  0  0  0  0
   34.3160   28.5740   37.8080 C   0  0  0  0  0  3  0  0  0  0  0  0
   33.3910   27.8070   36.8420 C   0  0  0  0  0  2  0  0  0  0  0  0
   33.9510   29.1120   36.4760 C   0  0  0  0  0  2  0  0  0  0  0  0
  1  7  1  0  0  0  0
  2  1  1  0  0  0  0
  2  8  1  0  0  0  0
  3  2  2  0  0  0  0
  4  5  2  0  0  0  0
  4  3  1  0  0  0  0
  5  6  1  0  0  0  0
  6  1  2  0  0  0  0
  9 10  1  0  0  0  0
  9  3  1  0  0  0  0
 10 17  1  0  0  0  0
 11 18  1  0  0  0  0
 11 10  2  0  0  0  0
 12 11  1  0  0  0  0
 13 12  2  0  0  0  0
 14 12  1  0  0  0  0
 14 15  1  0  0  0  0
 15  9  1  0  0  0  0
 16 15  2  0  0  0  0
 19 14  1  0  0  0  0
 20 21  1  0  0  0  0
 20 22  1  0  0  0  0
 20  5  1  0  0  0  0
 23 20  1  0  0  0  0
 24 23  1  0  0  0  0
 25 23  1  0  0  0  0
 26 28  1  0  0  0  0
 27 26  2  0  0  0  0
 28 23  1  0  0  0  0
 28 29  1  0  0  0  0
 30 26  1  0  0  0  0
 31 30  1  0  0  0  0
 32 31  1  0  0  0  0
 32 30  1  0  0  0  0
M  END
>  <minimizedAffinity>
-5.19995737

$$$$

 OpenBabel03242521193D

 32 34  0  0  0  0  0  0  0  0999 V2000
   35.3620   25.9170   37.7730 C   0  0  0  0  0  0  0  0  0  0  0  0
   35.5500   27.2920   37.9980 C   0  0  0  0  0  0  0  0  0  0  0  0
   36.3200   27.6420   39.1140 C   0  0  0  0  0  0  0  0  0  0  0  0
   36.8370   26.6490   39.9140 N   0  0  0  0  0  0  0  0  0  0  0  0
   36.6160   25.3500   39.6380 C   0  0  0  0  0  0  0  0  0  0  0  0
   35.8750   24.9540   38.5660 N   0  0  0  0  0  0  0  0  0  0  0  0
   34.7710   25.5870   36.9190 H   0  0  0  0  0  0  0  0  0  0  0  0
   35.1070   27.9840   37.3190 H   0  0  0  0  0  0  0  0  0  0  0  0
   36.5310   29.0240   39.3700 N   0  0  0  0  0  0  0  0  0  0  0  0
   37.4940   29.6640   38.6920 C   0  0  0  0  0  0  0  0  0  0  0  0
   37.7160   31.0100   38.9270 C   0  0  0  0  0  0  0  0  0  0  0  0
   36.9230   31.6340   39.8600 C   0  0  0  0  0  0  0  0  0  0  0  0
   37.1360   32.8730   40.0680 O   0  0  0  0  0  0  0  0  0  0  0  0
   35.9520   31.0090   40.5520 N   0  0  0  0  0  0  0  0  0  0  0  0
   35.7880   29.6930   40.2740 C   0  0  0  0  0  0  0  0  0  0  0  0
   34.9160   29.0210   40.8570 O   0  0  0  0  0  0  0  0  0  0  0  0
   38.1260   29.1710   37.9480 H   0  0  0  0  0  0  0  0  0  0  0  0
   38.4770   31.5750   38.4100 H   0  0  0  0  0  0  0  0  0  0  0  0
   35.3680   31.5110   41.2530 H   0  0  0  0  0  0  0  0  0  0  0  0
   37.2850   24.4910   40.6560 C   0  0  0  0  0  0  0  0  0  0  0  0
   36.8870   23.4600   40.5150 H   0  0  0  0  0  0  0  0  0  0  0  0
   38.3790   24.4060   40.4600 H   0  0  0  0  0  0  0  0  0  0  0  0
   36.9680   24.9690   42.0580 C   0  0  0  0  0  0  0  0  0  0  0  0
   35.9770   25.4210   42.1200 H   0  0  0  0  0  0  0  0  0  0  0  0
   37.0260   24.0970   42.7570 H   0  0  0  0  0  0  0  0  0  0  0  0
   37.5610   27.0990   43.1190 C   0  0  0  0  0  0  0  0  0  0  0  0
   36.3230   27.2070   43.3420 O   0  0  0  0  0  0  0  0  0  0  0  0
   37.9760   25.9130   42.4810 N   0  0  0  0  0  0  0  0  0  0  0  0
   39.0050   25.7750   42.3440 H   0  0  0  0  0  0  0  0  0  0  0  0
   38.4420   28.2060   43.5420 C   0  0  0  0  0  3  0  0  0  0  0  0
   38.6470   29.3410   42.5180 C   0  0  0  0  0  2  0  0  0  0  0  0
   39.7420   28.4300   42.8670 C   0  0  0  0  0  2  0  0  0  0  0  0
  1  2  2  0  0  0  0
  1  6  1  0  0  0  0
  2  3  1  0  0  0  0
  3  9  1  0  0  0  0
  3  4  2  0  0  0  0
  5  4  1  0  0  0  0
  5 20  1  0  0  0  0
  6  5  2  0  0  0  0
  7  1  1  0  0  0  0
  8  2  1  0  0  0  0
  9 15  1  0  0  0  0
 10 11  2  0  0  0  0
 10  9  1  0  0  0  0
 11 12  1  0  0  0  0
 12 13  2  0  0  0  0
 12 14  1  0  0  0  0
 14 19  1  0  0  0  0
 15 14  1  0  0  0  0
 15 16  2  0  0  0  0
 17 10  1  0  0  0  0
 18 11  1  0  0  0  0
 20 23  1  0  0  0  0
 21 20  1  0  0  0  0
 22 20  1  0  0  0  0
 23 24  1  0  0  0  0
 23 28  1  0  0  0  0
 23 25  1  0  0  0  0
 26 27  2  0  0  0  0
 26 30  1  0  0  0  0
 28 26  1  0  0  0  0
 29 28  1  0  0  0  0
 31 32  1  0  0  0  0
 31 30  1  0  0  0  0
 32 30  1  0  0  0  0
M  END
>  <minimizedAffinity>
-5.10041094

$$$$

 OpenBabel03242521193D

 32 34  0  0  0  0  0  0  0  0999 V2000
   36.9420   30.2160   36.9170 C   0  0  0  0  0  0  0  0  0  0  0  0
   37.9840   31.0010   37.4390 C   0  0  0  0  0  0  0  0  0  0  0  0
   37.9880   31.1900   38.8270 C   0  0  0  0  0  0  0  0  0  0  0  0
   36.9970   30.6120   39.5880 N   0  0  0  0  0  0  0  0  0  0  0  0
   36.0280   29.8710   39.0190 C   0  0  0  0  0  0  0  0  0  0  0  0
   35.9770   29.6560   37.6750 N   0  0  0  0  0  0  0  0  0  0  0  0
   36.8890   30.0360   35.8430 H   0  0  0  0  0  0  0  0  0  0  0  0
   38.7040   31.4050   36.7650 H   0  0  0  0  0  0  0  0  0  0  0  0
   39.0280   31.9790   39.3890 N   0  0  0  0  0  0  0  0  0  0  0  0
   40.2590   31.4540   39.4750 C   0  0  0  0  0  0  0  0  0  0  0  0
   41.2860   32.2060   40.0180 C   0  0  0  0  0  0  0  0  0  0  0  0
   40.9870   33.4760   40.4520 C   0  0  0  0  0  0  0  0  0  0  0  0
   41.9400   34.1580   40.9510 O   0  0  0  0  0  0  0  0  0  0  0  0
   39.7580   34.0200   40.3750 N   0  0  0  0  0  0  0  0  0  0  0  0
   38.7990   33.2300   39.8320 C   0  0  0  0  0  0  0  0  0  0  0  0
   37.6280   33.6390   39.7140 O   0  0  0  0  0  0  0  0  0  0  0  0
   40.5000   30.4440   39.1300 H   0  0  0  0  0  0  0  0  0  0  0  0
   42.2950   31.8340   40.1110 H   0  0  0  0  0  0  0  0  0  0  0  0
   39.5640   34.9860   40.7120 H   0  0  0  0  0  0  0  0  0  0  0  0
   35.0910   29.3680   40.0630 C   0  0  0  0  0  0  0  0  0  0  0  0
   34.5310   30.2530   40.4430 H   0  0  0  0  0  0  0  0  0  0  0  0
   34.3130   28.7020   39.6240 H   0  0  0  0  0  0  0  0  0  0  0  0
   35.8500   28.7220   41.2040 C   0  0  0  0  0  0  0  0  0  0  0  0
   36.5510   29.4160   41.6720 H   0  0  0  0  0  0  0  0  0  0  0  0
   35.1150   28.3620   41.9670 H   0  0  0  0  0  0  0  0  0  0  0  0
   37.0720   26.6440   41.6510 C   0  0  0  0  0  0  0  0  0  0  0  0
   36.8150   26.8810   42.8640 O   0  0  0  0  0  0  0  0  0  0  0  0
   36.5510   27.5580   40.7140 N   0  0  0  0  0  0  0  0  0  0  0  0
   36.6990   27.3450   39.7000 H   0  0  0  0  0  0  0  0  0  0  0  0
   37.8820   25.4500   41.3340 C   0  0  0  0  0  3  0  0  0  0  0  0
   37.0990   24.1480   41.0690 C   0  0  0  0  0  2  0  0  0  0  0  0
   37.9250   24.3030   42.2710 C   0  0  0  0  0  2  0  0  0  0  0  0
  1  2  2  0  0  0  0
  1  6  1  0  0  0  0
  2  3  1  0  0  0  0
  3  9  1  0  0  0  0
  3  4  2  0  0  0  0
  5  4  1  0  0  0  0
  5 20  1  0  0  0  0
  6  5  2  0  0  0  0
  7  1  1  0  0  0  0
  8  2  1  0  0  0  0
  9 10  1  0  0  0  0
  9 15  1  0  0  0  0
 10 11  2  0  0  0  0
 11 18  1  0  0  0  0
 11 12  1  0  0  0  0
 12 13  2  0  0  0  0
 14 12  1  0  0  0  0
 14 19  1  0  0  0  0
 15 14  1  0  0  0  0
 16 15  2  0  0  0  0
 17 10  1  0  0  0  0
 20 21  1  0  0  0  0
 20 23  1  0  0  0  0
 22 20  1  0  0  0  0
 23 24  1  0  0  0  0
 23 25  1  0  0  0  0
 26 27  2  0  0  0  0
 28 23  1  0  0  0  0
 28 26  1  0  0  0  0
 29 28  1  0  0  0  0
 30 26  1  0  0  0  0
 30 32  1  0  0  0  0
 31 30  1  0  0  0  0
 31 32  1  0  0  0  0
M  END
>  <minimizedAffinity>
-4.96852732

$$$$

 OpenBabel03242521193D

 32 34  0  0  0  0  0  0  0  0999 V2000
   37.4450   31.0120   36.7730 C   0  0  0  0  0  0  0  0  0  0  0  0
   36.7120   29.8330   36.5540 C   0  0  0  0  0  0  0  0  0  0  0  0
   36.0550   29.2900   37.6650 C   0  0  0  0  0  0  0  0  0  0  0  0
   36.1590   29.9220   38.8840 N   0  0  0  0  0  0  0  0  0  0  0  0
   36.8800   31.0500   39.0200 C   0  0  0  0  0  0  0  0  0  0  0  0
   37.5380   31.6210   37.9740 N   0  0  0  0  0  0  0  0  0  0  0  0
   37.9770   31.4780   35.9440 H   0  0  0  0  0  0  0  0  0  0  0  0
   36.6930   29.4200   35.5710 H   0  0  0  0  0  0  0  0  0  0  0  0
   35.3040   28.0980   37.4780 N   0  0  0  0  0  0  0  0  0  0  0  0
   35.9340   26.9180   37.5780 C   0  0  0  0  0  0  0  0  0  0  0  0
   35.2210   25.7460   37.4000 C   0  0  0  0  0  0  0  0  0  0  0  0
   33.8790   25.8510   37.1230 C   0  0  0  0  0  0  0  0  0  0  0  0
   33.2330   24.7650   36.9610 O   0  0  0  0  0  0  0  0  0  0  0  0
   33.2290   27.0250   37.0180 N   0  0  0  0  0  0  0  0  0  0  0  0
   33.9860   28.1340   37.2040 C   0  0  0  0  0  0  0  0  0  0  0  0
   33.4810   29.2700   37.1290 O   0  0  0  0  0  0  0  0  0  0  0  0
   37.0020   26.8320   37.7980 H   0  0  0  0  0  0  0  0  0  0  0  0
   35.6770   24.7700   37.4690 H   0  0  0  0  0  0  0  0  0  0  0  0
   32.2100   27.0700   36.8070 H   0  0  0  0  0  0  0  0  0  0  0  0
   36.8260   31.5220   40.4340 C   0  0  0  0  0  0  0  0  0  0  0  0
   37.8800   31.6090   40.7820 H   0  0  0  0  0  0  0  0  0  0  0  0
   36.4130   32.5550   40.5020 H   0  0  0  0  0  0  0  0  0  0  0  0
   36.0850   30.5290   41.3060 C   0  0  0  0  0  0  0  0  0  0  0  0
   35.2160   30.9790   41.7890 H   0  0  0  0  0  0  0  0  0  0  0  0
   35.7570   29.6680   40.6700 H   0  0  0  0  0  0  0  0  0  0  0  0
   37.0950   28.5970   42.4290 C   0  0  0  0  0  0  0  0  0  0  0  0
   36.4360   27.9090   41.6020 O   0  0  0  0  0  0  0  0  0  0  0  0
   36.9890   29.9960   42.2980 N   0  0  0  0  0  0  0  0  0  0  0  0
   37.5780   30.5850   42.9340 H   0  0  0  0  0  0  0  0  0  0  0  0
   37.9020   27.8820   43.4390 C   0  0  0  0  0  3  0  0  0  0  0  0
   39.4300   27.9160   43.2360 C   0  0  0  0  0  2  0  0  0  0  0  0
   38.6720   26.6720   43.0650 C   0  0  0  0  0  2  0  0  0  0  0  0
  1  6  1  0  0  0  0
  2  1  2  0  0  0  0
  2  3  1  0  0  0  0
  3  4  2  0  0  0  0
  4  5  1  0  0  0  0
  5 20  1  0  0  0  0
  6  5  2  0  0  0  0
  7  1  1  0  0  0  0
  8  2  1  0  0  0  0
  9 10  1  0  0  0  0
  9  3  1  0  0  0  0
 10 17  1  0  0  0  0
 11 18  1  0  0  0  0
 11 10  2  0  0  0  0
 12 11  1  0  0  0  0
 13 12  2  0  0  0  0
 14 12  1  0  0  0  0
 14 15  1  0  0  0  0
 15  9  1  0  0  0  0
 16 15  2  0  0  0  0
 19 14  1  0  0  0  0
 20 22  1  0  0  0  0
 20 21  1  0  0  0  0
 20 23  1  0  0  0  0
 23 24  1  0  0  0  0
 23 28  1  0  0  0  0
 25 23  1  0  0  0  0
 26 30  1  0  0  0  0
 27 26  2  0  0  0  0
 28 26  1  0  0  0  0
 28 29  1  0  0  0  0
 31 30  1  0  0  0  0
 32 31  1  0  0  0  0
 32 30  1  0  0  0  0
M  END
>  <minimizedAffinity>
-4.95992899

$$$$
