
 OpenBabel03242522503D

 20 22  0  0  1  0  0  0  0  0999 V2000
   45.0860   33.3630   47.6470 O   0  0  0  0  0  0  0  0  0  0  0  0
   46.7890   33.4210   44.4350 C   0  0  0  0  0  0  0  0  0  0  0  0
   46.4230   33.0580   45.7420 C   0  0  0  0  0  0  0  0  0  0  0  0
   45.4130   33.7470   46.3650 C   0  0  0  0  0  0  0  0  0  0  0  0
   44.8070   34.7570   45.6770 N   0  0  0  0  0  0  0  0  0  0  0  0
   45.1580   35.1000   44.4290 C   0  0  0  0  0  0  0  0  0  0  0  0
   46.1530   34.4290   43.8050 N   0  0  0  0  0  0  0  0  0  0  0  0
   47.5700   32.9370   43.8660 H   0  0  0  0  0  0  0  0  0  0  0  0
   47.0160   32.2430   46.0950 H   0  0  0  0  0  0  0  0  0  0  0  0
   44.5770   35.9260   44.0240 H   0  0  0  0  0  0  0  0  0  0  0  0
   45.4260   30.7620   47.5690 O   0  0  0  0  0  0  0  0  0  0  0  0
   45.8210   32.0260   48.3620 P   0  0  2  0  0  0  0  0  0  0  0  0
   45.2110   31.7960   49.9170 O   0  0  0  0  0  0  0  0  0  0  0  0
   44.2860   31.4130   49.8910 H   0  0  0  0  0  0  0  0  0  0  0  0
   47.4680   32.1900   48.3490 O   0  0  0  0  0  0  0  0  0  0  0  0
   48.4450   31.3580   48.7640 C   0  0  2  0  0  3  0  0  0  0  0  0
   49.4340   31.9440   49.3260 O   0  0  0  0  0  0  0  0  0  0  0  0
   49.2830   30.2040   49.0750 C   0  0  0  0  0  0  0  0  0  0  0  0
   49.0500   28.9530   48.2520 C   0  0  0  0  0  2  0  0  0  0  0  0
   50.3310   29.7010   48.1620 C   0  0  0  0  0  2  0  0  0  0  0  0
  1 12  1  0  0  0  0
  2  3  1  0  0  0  0
  3  9  1  0  0  0  0
  3  4  2  0  0  0  0
  4  1  1  0  0  0  0
  5  4  1  0  0  0  0
  6  5  2  0  0  0  0
  7  6  1  0  0  0  0
  7  2  2  0  0  0  0
  8  2  1  0  0  0  0
 10  6  1  0  0  0  0
 12 11  2  6  0  0  0
 12 13  1  0  0  0  0
 14 13  1  0  0  0  0
 15 12  1  0  0  0  0
 16 15  1  6  0  0  0
 16 18  1  0  0  0  0
 16 17  1  0  0  0  0
 18 17  1  0  0  0  0
 19 18  1  0  0  0  0
 20 19  1  0  0  0  0
 20 18  1  0  0  0  0
M  END
>  <minimizedAffinity>
-4.38588572

>  <minimizedRMSD>
0.253585547

$$$$
