
 OpenBabel03242522513D

 20 22  0  0  1  0  0  0  0  0999 V2000
   45.0850   33.3620   47.6490 O   0  0  0  0  0  0  0  0  0  0  0  0
   46.7870   33.4220   44.4370 C   0  0  0  0  0  0  0  0  0  0  0  0
   46.4210   33.0580   45.7440 C   0  0  0  0  0  0  0  0  0  0  0  0
   45.4110   33.7470   46.3670 C   0  0  0  0  0  0  0  0  0  0  0  0
   44.8050   34.7580   45.6800 N   0  0  0  0  0  0  0  0  0  0  0  0
   45.1560   35.1020   44.4330 C   0  0  0  0  0  0  0  0  0  0  0  0
   46.1510   34.4310   43.8080 N   0  0  0  0  0  0  0  0  0  0  0  0
   47.5670   32.9380   43.8680 H   0  0  0  0  0  0  0  0  0  0  0  0
   47.0140   32.2430   46.0960 H   0  0  0  0  0  0  0  0  0  0  0  0
   44.5750   35.9280   44.0280 H   0  0  0  0  0  0  0  0  0  0  0  0
   45.4250   30.7610   47.5710 O   0  0  0  0  0  0  0  0  0  0  0  0
   45.8200   32.0260   48.3640 P   0  0  2  0  0  0  0  0  0  0  0  0
   45.2110   31.7950   49.9190 O   0  0  0  0  0  0  0  0  0  0  0  0
   44.2860   31.4110   49.8930 H   0  0  0  0  0  0  0  0  0  0  0  0
   47.4670   32.1890   48.3500 O   0  0  0  0  0  0  0  0  0  0  0  0
   48.4450   31.3580   48.7650 C   0  0  2  0  0  3  0  0  0  0  0  0
   49.4340   31.9440   49.3260 O   0  0  0  0  0  0  0  0  0  0  0  0
   49.2830   30.2040   49.0750 C   0  0  0  0  0  0  0  0  0  0  0  0
   49.0510   28.9530   48.2530 C   0  0  0  0  0  2  0  0  0  0  0  0
   50.3300   29.7010   48.1600 C   0  0  0  0  0  2  0  0  0  0  0  0
  1 12  1  0  0  0  0
  2  3  1  0  0  0  0
  3  9  1  0  0  0  0
  3  4  2  0  0  0  0
  4  1  1  0  0  0  0
  5  4  1  0  0  0  0
  6  5  2  0  0  0  0
  7  6  1  0  0  0  0
  7  2  2  0  0  0  0
  8  2  1  0  0  0  0
 10  6  1  0  0  0  0
 12 11  2  6  0  0  0
 12 13  1  0  0  0  0
 14 13  1  0  0  0  0
 15 12  1  0  0  0  0
 16 15  1  6  0  0  0
 16 18  1  0  0  0  0
 16 17  1  0  0  0  0
 18 17  1  0  0  0  0
 19 18  1  0  0  0  0
 20 19  1  0  0  0  0
 20 18  1  0  0  0  0
M  END
>  <minimizedAffinity>
-4.38527918

>  <minimizedRMSD>
0.262103021

$$$$
