
 OpenBabel03242522503D

 20 22  0  0  1  0  0  0  0  0999 V2000
   45.2260   32.7690   47.5450 O   0  0  0  0  0  0  0  0  0  0  0  0
   47.2150   32.6730   44.5040 C   0  0  0  0  0  0  0  0  0  0  0  0
   46.6850   32.3330   45.7600 C   0  0  0  0  0  0  0  0  0  0  0  0
   45.7170   33.1350   46.3110 C   0  0  0  0  0  0  0  0  0  0  0  0
   45.3120   34.2290   45.6060 N   0  0  0  0  0  0  0  0  0  0  0  0
   45.8190   34.5500   44.4070 C   0  0  0  0  0  0  0  0  0  0  0  0
   46.7750   33.7690   43.8530 N   0  0  0  0  0  0  0  0  0  0  0  0
   47.9780   32.1040   43.9920 H   0  0  0  0  0  0  0  0  0  0  0  0
   47.1340   31.4410   46.1370 H   0  0  0  0  0  0  0  0  0  0  0  0
   45.3890   35.4530   43.9780 H   0  0  0  0  0  0  0  0  0  0  0  0
   46.0830   30.3660   48.1600 O   0  0  0  0  0  0  0  0  0  0  0  0
   46.1520   31.8430   48.6050 P   0  0  2  0  0  0  0  0  0  0  0  0
   45.4770   31.8840   50.1490 O   0  0  0  0  0  0  0  0  0  0  0  0
   44.6520   31.3170   50.1990 H   0  0  0  0  0  0  0  0  0  0  0  0
   47.7290   32.3460   48.5930 O   0  0  0  0  0  0  0  0  0  0  0  0
   48.8650   31.7110   48.9460 C   0  0  2  0  0  3  0  0  0  0  0  0
   49.7940   32.4840   49.3670 O   0  0  0  0  0  0  0  0  0  0  0  0
   49.9070   30.7280   49.2280 C   0  0  0  0  0  0  0  0  0  0  0  0
   49.7010   29.8470   50.4410 C   0  0  0  0  0  2  0  0  0  0  0  0
   49.7020   29.2700   49.0720 C   0  0  0  0  0  2  0  0  0  0  0  0
  1 12  1  0  0  0  0
  2  3  1  0  0  0  0
  3  9  1  0  0  0  0
  3  4  2  0  0  0  0
  4  1  1  0  0  0  0
  5  4  1  0  0  0  0
  6  5  2  0  0  0  0
  7  6  1  0  0  0  0
  7  2  2  0  0  0  0
  8  2  1  0  0  0  0
 10  6  1  0  0  0  0
 12 11  2  6  0  0  0
 12 13  1  0  0  0  0
 13 14  1  0  0  0  0
 15 12  1  0  0  0  0
 16 15  1  6  0  0  0
 16 18  1  0  0  0  0
 16 17  1  0  0  0  0
 18 17  1  0  0  0  0
 18 19  1  0  0  0  0
 20 18  1  0  0  0  0
 20 19  1  0  0  0  0
M  END
>  <minimizedAffinity>
-4.03992891

>  <minimizedRMSD>
0.892939448

$$$$
