
 OpenBabel03242518483D

 38 40  0  0  1  0  0  0  0  0999 V2000
   38.4470   30.7140   38.8440 C   0  0  2  0  0  0  0  0  0  0  0  0
   38.9120   32.1240   38.8930 C   0  0  1  0  0  0  0  0  0  0  0  0
   38.5580   32.7970   40.2200 C   0  0  0  0  0  0  0  0  0  0  0  0
   37.1810   32.6130   40.3400 O   0  0  0  0  0  0  0  0  0  0  0  0
   36.8620   31.3070   40.6460 C   0  0  0  0  0  0  0  0  0  0  0  0
   37.8980   30.3100   40.2260 C   0  0  1  0  0  0  0  0  0  0  0  0
   37.6110   30.6000   38.1380 H   0  0  0  0  0  0  0  0  0  0  0  0
   38.4090   32.7380   38.0910 H   0  0  0  0  0  0  0  0  0  0  0  0
   39.1170   32.3330   41.0560 H   0  0  0  0  0  0  0  0  0  0  0  0
   38.7340   33.8700   40.1890 H   0  0  0  0  0  0  0  0  0  0  0  0
   36.5340   31.1690   41.6780 H   0  0  0  0  0  0  0  0  0  0  0  0
   35.9510   31.0750   40.0200 H   0  0  0  0  0  0  0  0  0  0  0  0
   38.7530   30.3080   40.9310 H   0  0  0  0  0  0  0  0  0  0  0  0
   42.1340   33.2760   37.5840 C   0  0  0  0  0  0  0  0  0  0  0  0
   43.0930   32.6600   38.4380 C   0  0  0  0  0  0  0  0  0  0  0  0
   42.5620   31.8450   39.4660 C   0  0  0  0  0  0  0  0  0  0  0  0
   41.2220   31.7050   39.5710 N   0  0  0  0  0  0  0  0  0  0  0  0
   40.3640   32.3150   38.7320 C   0  0  0  0  0  0  0  0  0  0  0  0
   40.8260   33.1000   37.7390 N   0  0  0  0  0  0  0  0  0  0  0  0
   44.1510   32.7860   38.3340 H   0  0  0  0  0  0  0  0  0  0  0  0
   43.2470   31.3540   40.1410 H   0  0  0  0  0  0  0  0  0  0  0  0
   42.6300   34.0620   36.5910 O   0  0  0  0  0  0  0  0  0  0  0  0
   43.2920   33.7690   35.9050 H   0  0  0  0  0  0  0  0  0  0  0  0
   39.4510   29.8020   38.5000 O   0  0  0  0  0  0  0  0  0  0  0  0
   39.9540   29.5790   39.3080 H   0  0  0  0  0  0  0  0  0  0  0  0
   37.4080   29.0300   40.0980 O   0  0  0  0  0  0  0  0  0  0  0  0
   38.2000   26.6810   39.0160 F   0  0  0  0  0  0  0  0  0  0  0  0
   37.6960   26.8240   40.2570 C   0  0  0  0  0  0  0  0  0  0  0  0
   37.2730   27.9810   40.8880 C   0  0  0  0  0  0  0  0  0  0  0  0
   36.8110   27.8040   42.1830 C   0  0  0  0  0  0  0  0  0  0  0  0
   36.7460   26.6060   42.8620 C   0  0  0  0  0  0  0  0  0  0  0  0
   37.1750   25.4960   42.1930 C   0  0  0  0  0  0  0  0  0  0  0  0
   37.6510   25.5850   40.8990 C   0  0  0  0  0  0  0  0  0  0  0  0
   36.4930   28.7680   42.6210 H   0  0  0  0  0  0  0  0  0  0  0  0
   36.3620   26.6180   43.8720 H   0  0  0  0  0  0  0  0  0  0  0  0
   37.1150   24.5620   42.7470 H   0  0  0  0  0  0  0  0  0  0  0  0
   38.1660   24.0270   40.1920 S   0  0  0  0  0  0  0  0  0  0  0  0
   37.3500   23.7060   39.0850 H   0  0  0  0  0  0  0  0  0  0  0  0
  1  7  1  6  0  0  0
  1  2  1  0  0  0  0
  1  6  1  0  0  0  0
  2  8  1  6  0  0  0
  2  3  1  0  0  0  0
  3  4  1  0  0  0  0
  3  9  1  0  0  0  0
  4  5  1  0  0  0  0
  5 11  1  0  0  0  0
  6  5  1  0  0  0  0
  6 13  1  1  0  0  0
 10  3  1  0  0  0  0
 12  5  1  0  0  0  0
 14 19  2  0  0  0  0
 14 15  1  0  0  0  0
 15 16  2  0  0  0  0
 16 17  1  0  0  0  0
 16 21  1  0  0  0  0
 18  2  1  0  0  0  0
 18 17  2  0  0  0  0
 19 18  1  0  0  0  0
 20 15  1  0  0  0  0
 22 14  1  0  0  0  0
 23 22  1  0  0  0  0
 24  1  1  0  0  0  0
 24 25  1  0  0  0  0
 26  6  1  0  0  0  0
 26 29  1  0  0  0  0
 27 28  1  0  0  0  0
 28 29  2  0  0  0  0
 28 33  1  0  0  0  0
 29 30  1  0  0  0  0
 30 34  1  0  0  0  0
 30 31  2  0  0  0  0
 31 35  1  0  0  0  0
 32 36  1  0  0  0  0
 32 31  1  0  0  0  0
 33 32  2  0  0  0  0
 37 33  1  0  0  0  0
 38 37  1  0  0  0  0
M  END
>  <minimizedAffinity>
-5.60302067

$$$$

 OpenBabel03242518483D

 38 40  0  0  1  0  0  0  0  0999 V2000
   36.4790   28.5230   41.1660 C   0  0  2  0  0  0  0  0  0  0  0  0
   37.0580   29.6670   41.9180 C   0  0  1  0  0  0  0  0  0  0  0  0
   38.1370   29.2150   42.9030 C   0  0  0  0  0  0  0  0  0  0  0  0
   37.5060   28.2420   43.6800 O   0  0  0  0  0  0  0  0  0  0  0  0
   37.3200   27.0690   42.9800 C   0  0  0  0  0  0  0  0  0  0  0  0
   37.2730   27.2440   41.4930 C   0  0  1  0  0  0  0  0  0  0  0  0
   35.4430   28.3290   41.4820 H   0  0  0  0  0  0  0  0  0  0  0  0
   36.2670   30.1780   42.5380 H   0  0  0  0  0  0  0  0  0  0  0  0
   39.0180   28.8130   42.3640 H   0  0  0  0  0  0  0  0  0  0  0  0
   38.4310   30.0170   43.5770 H   0  0  0  0  0  0  0  0  0  0  0  0
   37.9900   26.2650   43.2910 H   0  0  0  0  0  0  0  0  0  0  0  0
   36.2880   26.7150   43.2740 H   0  0  0  0  0  0  0  0  0  0  0  0
   38.2930   27.3750   41.0780 H   0  0  0  0  0  0  0  0  0  0  0  0
   37.5590   32.7510   40.0060 C   0  0  0  0  0  0  0  0  0  0  0  0
   38.8980   32.6510   39.5350 C   0  0  0  0  0  0  0  0  0  0  0  0
   39.5940   31.4780   39.9130 C   0  0  0  0  0  0  0  0  0  0  0  0
   38.9650   30.5550   40.6750 N   0  0  0  0  0  0  0  0  0  0  0  0
   37.6940   30.7070   41.0910 C   0  0  0  0  0  0  0  0  0  0  0  0
   36.9950   31.8080   40.7530 N   0  0  0  0  0  0  0  0  0  0  0  0
   39.3750   33.3960   38.9310 H   0  0  0  0  0  0  0  0  0  0  0  0
   40.6130   31.3520   39.5810 H   0  0  0  0  0  0  0  0  0  0  0  0
   36.8780   33.8730   39.6490 O   0  0  0  0  0  0  0  0  0  0  0  0
   36.7420   34.1870   38.7120 H   0  0  0  0  0  0  0  0  0  0  0  0
   36.4980   28.6960   39.7780 O   0  0  0  0  0  0  0  0  0  0  0  0
   37.3800   28.4310   39.4470 H   0  0  0  0  0  0  0  0  0  0  0  0
   36.6430   26.2100   40.8380 O   0  0  0  0  0  0  0  0  0  0  0  0
   35.4880   25.3350   38.5540 F   0  0  0  0  0  0  0  0  0  0  0  0
   36.3180   24.6040   39.3250 C   0  0  0  0  0  0  0  0  0  0  0  0
   36.9520   24.9720   40.4980 C   0  0  0  0  0  0  0  0  0  0  0  0
   37.7600   23.9940   41.0560 C   0  0  0  0  0  0  0  0  0  0  0  0
   37.9700   22.7300   40.5470 C   0  0  0  0  0  0  0  0  0  0  0  0
   37.3190   22.4190   39.3870 C   0  0  0  0  0  0  0  0  0  0  0  0
   36.4950   23.3380   38.7660 C   0  0  0  0  0  0  0  0  0  0  0  0
   38.2320   24.3590   41.9870 H   0  0  0  0  0  0  0  0  0  0  0  0
   38.6290   22.0690   41.0900 H   0  0  0  0  0  0  0  0  0  0  0  0
   37.4990   21.4170   39.0020 H   0  0  0  0  0  0  0  0  0  0  0  0
   35.7330   22.7470   37.2620 S   0  0  0  0  0  0  0  0  0  0  0  0
   34.3300   22.7000   37.4170 H   0  0  0  0  0  0  0  0  0  0  0  0
  1  7  1  1  0  0  0
  1  6  1  0  0  0  0
  1  2  1  0  0  0  0
  2  8  1  1  0  0  0
  2  3  1  0  0  0  0
  3 10  1  0  0  0  0
  3  4  1  0  0  0  0
  5 12  1  0  0  0  0
  5 11  1  0  0  0  0
  5  4  1  0  0  0  0
  6 13  1  6  0  0  0
  6  5  1  0  0  0  0
  9  3  1  0  0  0  0
 14 19  1  0  0  0  0
 15 16  1  0  0  0  0
 15 14  2  0  0  0  0
 16 17  2  0  0  0  0
 17 18  1  0  0  0  0
 18  2  1  0  0  0  0
 19 18  2  0  0  0  0
 20 15  1  0  0  0  0
 21 16  1  0  0  0  0
 22 14  1  0  0  0  0
 23 22  1  0  0  0  0
 24  1  1  0  0  0  0
 25 24  1  0  0  0  0
 26  6  1  0  0  0  0
 27 28  1  0  0  0  0
 28 29  1  0  0  0  0
 29 26  1  0  0  0  0
 29 30  2  0  0  0  0
 30 34  1  0  0  0  0
 31 30  1  0  0  0  0
 31 35  1  0  0  0  0
 32 31  2  0  0  0  0
 33 28  2  0  0  0  0
 33 32  1  0  0  0  0
 36 32  1  0  0  0  0
 37 38  1  0  0  0  0
 37 33  1  0  0  0  0
M  END
>  <minimizedAffinity>
-5.60087013

$$$$

 OpenBabel03242518483D

 38 40  0  0  1  0  0  0  0  0999 V2000
   39.4840   32.0820   39.0290 C   0  0  2  0  0  0  0  0  0  0  0  0
   39.9850   33.4560   39.2990 C   0  0  1  0  0  0  0  0  0  0  0  0
   39.1630   34.1610   40.3790 C   0  0  0  0  0  0  0  0  0  0  0  0
   37.8490   34.0790   39.9180 O   0  0  0  0  0  0  0  0  0  0  0  0
   37.3430   32.8020   40.0340 C   0  0  0  0  0  0  0  0  0  0  0  0
   38.3880   31.7290   40.0530 C   0  0  1  0  0  0  0  0  0  0  0  0
   39.0070   32.0250   38.0390 H   0  0  0  0  0  0  0  0  0  0  0  0
   39.9000   34.0990   38.3770 H   0  0  0  0  0  0  0  0  0  0  0  0
   39.2940   33.6620   41.3600 H   0  0  0  0  0  0  0  0  0  0  0  0
   39.4100   35.2180   40.4500 H   0  0  0  0  0  0  0  0  0  0  0  0
   36.6110   32.6940   40.8370 H   0  0  0  0  0  0  0  0  0  0  0  0
   36.7570   32.6330   39.0830 H   0  0  0  0  0  0  0  0  0  0  0  0
   38.8750   31.6690   41.0480 H   0  0  0  0  0  0  0  0  0  0  0  0
   42.9180   33.5430   41.4900 C   0  0  0  0  0  0  0  0  0  0  0  0
   44.0130   33.7010   40.5940 C   0  0  0  0  0  0  0  0  0  0  0  0
   43.6760   33.7730   39.2220 C   0  0  0  0  0  0  0  0  0  0  0  0
   42.3760   33.6890   38.8570 N   0  0  0  0  0  0  0  0  0  0  0  0
   41.3830   33.5390   39.7530 C   0  0  0  0  0  0  0  0  0  0  0  0
   41.6600   33.4670   41.0700 N   0  0  0  0  0  0  0  0  0  0  0  0
   45.0360   33.7660   40.9070 H   0  0  0  0  0  0  0  0  0  0  0  0
   44.4690   33.8930   38.4990 H   0  0  0  0  0  0  0  0  0  0  0  0
   43.2290   33.4740   42.8130 O   0  0  0  0  0  0  0  0  0  0  0  0
   43.7500   34.1590   43.3150 H   0  0  0  0  0  0  0  0  0  0  0  0
   40.4750   31.0980   39.1050 O   0  0  0  0  0  0  0  0  0  0  0  0
   40.5840   30.8430   40.0440 H   0  0  0  0  0  0  0  0  0  0  0  0
   37.9080   30.4870   39.7040 O   0  0  0  0  0  0  0  0  0  0  0  0
   37.5730   30.0560   37.0550 F   0  0  0  0  0  0  0  0  0  0  0  0
   36.6460   29.7970   37.9980 C   0  0  0  0  0  0  0  0  0  0  0  0
   36.7350   29.9820   39.3670 C   0  0  0  0  0  0  0  0  0  0  0  0
   35.6080   29.6070   40.0810 C   0  0  0  0  0  0  0  0  0  0  0  0
   34.4500   29.0820   39.5470 C   0  0  0  0  0  0  0  0  0  0  0  0
   34.4160   28.9210   38.1920 C   0  0  0  0  0  0  0  0  0  0  0  0
   35.4980   29.2700   37.4060 C   0  0  0  0  0  0  0  0  0  0  0  0
   35.7520   29.7820   41.1630 H   0  0  0  0  0  0  0  0  0  0  0  0
   33.6470   28.8330   40.2270 H   0  0  0  0  0  0  0  0  0  0  0  0
   33.4930   28.5050   37.7920 H   0  0  0  0  0  0  0  0  0  0  0  0
   35.2640   28.9860   35.6580 S   0  0  0  0  0  0  0  0  0  0  0  0
   35.3000   30.2130   34.9600 H   0  0  0  0  0  0  0  0  0  0  0  0
  1  7  1  6  0  0  0
  1 24  1  0  0  0  0
  1  2  1  0  0  0  0
  1  6  1  0  0  0  0
  2  8  1  6  0  0  0
  2 18  1  0  0  0  0
  2  3  1  0  0  0  0
  3 10  1  0  0  0  0
  3  9  1  0  0  0  0
  4  5  1  0  0  0  0
  4  3  1  0  0  0  0
  5  6  1  0  0  0  0
  5 11  1  0  0  0  0
  6 13  1  1  0  0  0
 12  5  1  0  0  0  0
 14 22  1  0  0  0  0
 15 20  1  0  0  0  0
 15 14  2  0  0  0  0
 16 15  1  0  0  0  0
 17 16  2  0  0  0  0
 17 18  1  0  0  0  0
 18 19  2  0  0  0  0
 19 14  1  0  0  0  0
 21 16  1  0  0  0  0
 22 23  1  0  0  0  0
 24 25  1  0  0  0  0
 26  6  1  0  0  0  0
 27 28  1  0  0  0  0
 28 29  1  0  0  0  0
 29 26  1  0  0  0  0
 29 30  2  0  0  0  0
 30 34  1  0  0  0  0
 31 30  1  0  0  0  0
 31 35  1  0  0  0  0
 32 31  2  0  0  0  0
 33 28  2  0  0  0  0
 33 32  1  0  0  0  0
 36 32  1  0  0  0  0
 37 33  1  0  0  0  0
 38 37  1  0  0  0  0
M  END
>  <minimizedAffinity>
-5.43102598

$$$$

 OpenBabel03242518483D

 38 40  0  0  1  0  0  0  0  0999 V2000
   38.6700   29.3400   38.2570 C   0  0  2  0  0  0  0  0  0  0  0  0
   38.2020   30.7200   37.9660 C   0  0  1  0  0  0  0  0  0  0  0  0
   36.7610   30.9430   38.4260 C   0  0  0  0  0  0  0  0  0  0  0  0
   36.0410   29.9210   37.8070 O   0  0  0  0  0  0  0  0  0  0  0  0
   36.2870   28.6950   38.3900 C   0  0  0  0  0  0  0  0  0  0  0  0
   37.6050   28.6070   39.0950 C   0  0  1  0  0  0  0  0  0  0  0  0
   38.7820   28.7590   37.3300 H   0  0  0  0  0  0  0  0  0  0  0  0
   38.2060   30.9160   36.8560 H   0  0  0  0  0  0  0  0  0  0  0  0
   36.6890   30.8950   39.5310 H   0  0  0  0  0  0  0  0  0  0  0  0
   36.3580   31.8840   38.0560 H   0  0  0  0  0  0  0  0  0  0  0  0
   35.4560   28.3260   38.9950 H   0  0  0  0  0  0  0  0  0  0  0  0
   36.3600   27.9710   37.5250 H   0  0  0  0  0  0  0  0  0  0  0  0
   37.5600   29.1110   40.0820 H   0  0  0  0  0  0  0  0  0  0  0  0
   39.2240   33.3590   40.2910 C   0  0  0  0  0  0  0  0  0  0  0  0
   40.4630   33.8220   39.7640 C   0  0  0  0  0  0  0  0  0  0  0  0
   40.9050   33.1770   38.5840 C   0  0  0  0  0  0  0  0  0  0  0  0
   40.1500   32.1920   38.0490 N   0  0  0  0  0  0  0  0  0  0  0  0
   38.9850   31.7970   38.5950 C   0  0  0  0  0  0  0  0  0  0  0  0
   38.5260   32.3850   39.7170 N   0  0  0  0  0  0  0  0  0  0  0  0
   41.0440   34.6050   40.2070 H   0  0  0  0  0  0  0  0  0  0  0  0
   41.8390   33.4900   38.1430 H   0  0  0  0  0  0  0  0  0  0  0  0
   38.7870   33.9720   41.4240 O   0  0  0  0  0  0  0  0  0  0  0  0
   38.6490   34.9530   41.5280 H   0  0  0  0  0  0  0  0  0  0  0  0
   39.8770   29.2930   38.9630 O   0  0  0  0  0  0  0  0  0  0  0  0
   39.6810   29.3970   39.9160 H   0  0  0  0  0  0  0  0  0  0  0  0
   38.0530   27.3160   39.2620 O   0  0  0  0  0  0  0  0  0  0  0  0
   39.9220   27.0750   41.2030 F   0  0  0  0  0  0  0  0  0  0  0  0
   38.8390   26.2830   41.0770 C   0  0  0  0  0  0  0  0  0  0  0  0
   37.8370   26.3380   40.1230 C   0  0  0  0  0  0  0  0  0  0  0  0
   36.8420   25.3860   40.2680 C   0  0  0  0  0  0  0  0  0  0  0  0
   36.7780   24.4240   41.2540 C   0  0  0  0  0  0  0  0  0  0  0  0
   37.7920   24.4140   42.1680 C   0  0  0  0  0  0  0  0  0  0  0  0
   38.8240   25.3310   42.0960 C   0  0  0  0  0  0  0  0  0  0  0  0
   36.0790   25.4910   39.4740 H   0  0  0  0  0  0  0  0  0  0  0  0
   35.9390   23.7440   41.2430 H   0  0  0  0  0  0  0  0  0  0  0  0
   37.7220   23.6480   42.9380 H   0  0  0  0  0  0  0  0  0  0  0  0
   40.0550   25.1590   43.3790 S   0  0  0  0  0  0  0  0  0  0  0  0
   41.3020   24.8190   42.8100 H   0  0  0  0  0  0  0  0  0  0  0  0
  1  7  1  6  0  0  0
  1 24  1  0  0  0  0
  1  6  1  0  0  0  0
  2  8  1  6  0  0  0
  2  1  1  0  0  0  0
  2  3  1  0  0  0  0
  2 18  1  0  0  0  0
  3  9  1  0  0  0  0
  4  5  1  0  0  0  0
  4  3  1  0  0  0  0
  5 11  1  0  0  0  0
  5  6  1  0  0  0  0
  6 26  1  0  0  0  0
  6 13  1  1  0  0  0
 10  3  1  0  0  0  0
 12  5  1  0  0  0  0
 14 22  1  0  0  0  0
 15 20  1  0  0  0  0
 15 14  1  0  0  0  0
 16 15  2  0  0  0  0
 17 16  1  0  0  0  0
 17 18  2  0  0  0  0
 18 19  1  0  0  0  0
 19 14  2  0  0  0  0
 21 16  1  0  0  0  0
 22 23  1  0  0  0  0
 24 25  1  0  0  0  0
 26 29  1  0  0  0  0
 28 27  1  0  0  0  0
 28 33  1  0  0  0  0
 29 30  1  0  0  0  0
 29 28  2  0  0  0  0
 30 31  2  0  0  0  0
 31 32  1  0  0  0  0
 32 36  1  0  0  0  0
 33 32  2  0  0  0  0
 33 37  1  0  0  0  0
 34 30  1  0  0  0  0
 35 31  1  0  0  0  0
 38 37  1  0  0  0  0
M  END
>  <minimizedAffinity>
-5.34872627

$$$$

 OpenBabel03242518483D

 38 40  0  0  1  0  0  0  0  0999 V2000
   37.6160   29.0730   42.0020 C   0  0  2  0  0  0  0  0  0  0  0  0
   36.6630   28.0250   41.5520 C   0  0  1  0  0  0  0  0  0  0  0  0
   35.8560   28.4730   40.3320 C   0  0  0  0  0  0  0  0  0  0  0  0
   35.2800   29.6800   40.7280 O   0  0  0  0  0  0  0  0  0  0  0  0
   36.2080   30.6990   40.7820 C   0  0  0  0  0  0  0  0  0  0  0  0
   37.6160   30.2320   40.9860 C   0  0  1  0  0  0  0  0  0  0  0  0
   37.2980   29.5090   42.9610 H   0  0  0  0  0  0  0  0  0  0  0  0
   35.9080   27.8020   42.3580 H   0  0  0  0  0  0  0  0  0  0  0  0
   36.5140   28.5930   39.4490 H   0  0  0  0  0  0  0  0  0  0  0  0
   35.0400   27.7880   40.1140 H   0  0  0  0  0  0  0  0  0  0  0  0
   36.1140   31.4180   39.9660 H   0  0  0  0  0  0  0  0  0  0  0  0
   35.9470   31.2820   41.7140 H   0  0  0  0  0  0  0  0  0  0  0  0
   38.0440   29.8400   40.0410 H   0  0  0  0  0  0  0  0  0  0  0  0
   38.0550   24.6450   41.7710 C   0  0  0  0  0  0  0  0  0  0  0  0
   38.4280   24.3370   40.4320 C   0  0  0  0  0  0  0  0  0  0  0  0
   38.1710   25.3500   39.4780 C   0  0  0  0  0  0  0  0  0  0  0  0
   37.6060   26.5100   39.8830 N   0  0  0  0  0  0  0  0  0  0  0  0
   37.2750   26.7410   41.1670 C   0  0  0  0  0  0  0  0  0  0  0  0
   37.5030   25.8050   42.1080 N   0  0  0  0  0  0  0  0  0  0  0  0
   38.8750   23.4100   40.1350 H   0  0  0  0  0  0  0  0  0  0  0  0
   38.4340   25.1680   38.4470 H   0  0  0  0  0  0  0  0  0  0  0  0
   38.2980   23.6790   42.6990 O   0  0  0  0  0  0  0  0  0  0  0  0
   39.1860   23.2610   42.8710 H   0  0  0  0  0  0  0  0  0  0  0  0
   38.9330   28.6190   42.1320 O   0  0  0  0  0  0  0  0  0  0  0  0
   39.3580   28.6500   41.2510 H   0  0  0  0  0  0  0  0  0  0  0  0
   38.4490   31.2040   41.4950 O   0  0  0  0  0  0  0  0  0  0  0  0
   41.0010   30.9300   42.3470 F   0  0  0  0  0  0  0  0  0  0  0  0
   40.5760   31.8760   41.4860 C   0  0  0  0  0  0  0  0  0  0  0  0
   39.2980   32.0840   40.9970 C   0  0  0  0  0  0  0  0  0  0  0  0
   39.1780   33.1410   40.1090 C   0  0  0  0  0  0  0  0  0  0  0  0
   40.1990   33.9680   39.6930 C   0  0  0  0  0  0  0  0  0  0  0  0
   41.4400   33.7190   40.2060 C   0  0  0  0  0  0  0  0  0  0  0  0
   41.6450   32.6830   41.0980 C   0  0  0  0  0  0  0  0  0  0  0  0
   38.1330   33.2450   39.7610 H   0  0  0  0  0  0  0  0  0  0  0  0
   39.9590   34.7550   38.9930 H   0  0  0  0  0  0  0  0  0  0  0  0
   42.2320   34.3830   39.8650 H   0  0  0  0  0  0  0  0  0  0  0  0
   43.3340   32.5160   41.6590 S   0  0  0  0  0  0  0  0  0  0  0  0
   43.4060   32.7470   43.0490 H   0  0  0  0  0  0  0  0  0  0  0  0
  1 24  1  0  0  0  0
  1  7  1  1  0  0  0
  2  1  1  0  0  0  0
  2  8  1  1  0  0  0
  3  4  1  0  0  0  0
  3  2  1  0  0  0  0
  4  5  1  0  0  0  0
  5  6  1  0  0  0  0
  5 12  1  0  0  0  0
  6 13  1  6  0  0  0
  6 26  1  0  0  0  0
  6  1  1  0  0  0  0
  9  3  1  0  0  0  0
 10  3  1  0  0  0  0
 11  5  1  0  0  0  0
 14 19  1  0  0  0  0
 14 22  1  0  0  0  0
 15 14  2  0  0  0  0
 16 17  2  0  0  0  0
 16 15  1  0  0  0  0
 17 18  1  0  0  0  0
 18  2  1  0  0  0  0
 18 19  2  0  0  0  0
 20 15  1  0  0  0  0
 21 16  1  0  0  0  0
 22 23  1  0  0  0  0
 25 24  1  0  0  0  0
 28 27  1  0  0  0  0
 29 28  2  0  0  0  0
 29 26  1  0  0  0  0
 30 29  1  0  0  0  0
 31 30  2  0  0  0  0
 31 32  1  0  0  0  0
 32 33  2  0  0  0  0
 33 28  1  0  0  0  0
 33 37  1  0  0  0  0
 34 30  1  0  0  0  0
 35 31  1  0  0  0  0
 36 32  1  0  0  0  0
 37 38  1  0  0  0  0
M  END
>  <minimizedAffinity>
-5.28064013

$$$$

 OpenBabel03242518483D

 38 40  0  0  1  0  0  0  0  0999 V2000
   37.3010   28.4640   40.5030 C   0  0  2  0  0  0  0  0  0  0  0  0
   37.0790   29.5770   41.4620 C   0  0  1  0  0  0  0  0  0  0  0  0
   37.7010   29.2850   42.8290 C   0  0  0  0  0  0  0  0  0  0  0  0
   37.1560   28.0550   43.1980 O   0  0  0  0  0  0  0  0  0  0  0  0
   37.6940   27.0160   42.4680 C   0  0  0  0  0  0  0  0  0  0  0  0
   38.2460   27.4250   41.1370 C   0  0  1  0  0  0  0  0  0  0  0  0
   36.3610   27.9330   40.2920 H   0  0  0  0  0  0  0  0  0  0  0  0
   35.9770   29.7270   41.6490 H   0  0  0  0  0  0  0  0  0  0  0  0
   38.8060   29.2490   42.7580 H   0  0  0  0  0  0  0  0  0  0  0  0
   37.3870   30.0090   43.5790 H   0  0  0  0  0  0  0  0  0  0  0  0
   38.3850   26.3940   43.0400 H   0  0  0  0  0  0  0  0  0  0  0  0
   36.8200   26.3400   42.2360 H   0  0  0  0  0  0  0  0  0  0  0  0
   39.2370   27.9100   41.2520 H   0  0  0  0  0  0  0  0  0  0  0  0
   39.3770   32.4010   41.0660 C   0  0  0  0  0  0  0  0  0  0  0  0
   38.6430   33.3350   40.2810 C   0  0  0  0  0  0  0  0  0  0  0  0
   37.3380   32.9310   39.9110 C   0  0  0  0  0  0  0  0  0  0  0  0
   36.8840   31.7230   40.3110 N   0  0  0  0  0  0  0  0  0  0  0  0
   37.6270   30.8810   41.0530 C   0  0  0  0  0  0  0  0  0  0  0  0
   38.8740   31.2260   41.4290 N   0  0  0  0  0  0  0  0  0  0  0  0
   39.0250   34.2890   39.9770 H   0  0  0  0  0  0  0  0  0  0  0  0
   36.7390   33.6030   39.3150 H   0  0  0  0  0  0  0  0  0  0  0  0
   40.6330   32.7780   41.4300 O   0  0  0  0  0  0  0  0  0  0  0  0
   40.8600   33.6140   41.9220 H   0  0  0  0  0  0  0  0  0  0  0  0
   37.8660   28.8720   39.2900 O   0  0  0  0  0  0  0  0  0  0  0  0
   38.8360   28.9290   39.4050 H   0  0  0  0  0  0  0  0  0  0  0  0
   38.3480   26.3850   40.2420 O   0  0  0  0  0  0  0  0  0  0  0  0
   36.0330   25.8410   38.9520 F   0  0  0  0  0  0  0  0  0  0  0  0
   36.8140   24.9200   39.5500 C   0  0  0  0  0  0  0  0  0  0  0  0
   38.0080   25.1090   40.2240 C   0  0  0  0  0  0  0  0  0  0  0  0
   38.5850   23.9520   40.7230 C   0  0  0  0  0  0  0  0  0  0  0  0
   38.0760   22.6770   40.6020 C   0  0  0  0  0  0  0  0  0  0  0  0
   36.8950   22.5470   39.9290 C   0  0  0  0  0  0  0  0  0  0  0  0
   36.2540   23.6510   39.3990 C   0  0  0  0  0  0  0  0  0  0  0  0
   39.5330   24.1800   41.2460 H   0  0  0  0  0  0  0  0  0  0  0  0
   38.6360   21.8650   41.0430 H   0  0  0  0  0  0  0  0  0  0  0  0
   36.5120   21.5320   39.8450 H   0  0  0  0  0  0  0  0  0  0  0  0
   34.7240   23.2810   38.5540 S   0  0  0  0  0  0  0  0  0  0  0  0
   33.6430   23.8950   39.2230 H   0  0  0  0  0  0  0  0  0  0  0  0
  1  7  1  6  0  0  0
  1  6  1  0  0  0  0
  1  2  1  0  0  0  0
  2  8  1  1  0  0  0
  2  3  1  0  0  0  0
  3  4  1  0  0  0  0
  3 10  1  0  0  0  0
  5 11  1  0  0  0  0
  5  4  1  0  0  0  0
  6 13  1  1  0  0  0
  6  5  1  0  0  0  0
  9  3  1  0  0  0  0
 12  5  1  0  0  0  0
 14 19  1  0  0  0  0
 14 22  1  0  0  0  0
 15 14  2  0  0  0  0
 16 15  1  0  0  0  0
 16 17  2  0  0  0  0
 17 18  1  0  0  0  0
 18 19  2  0  0  0  0
 18  2  1  0  0  0  0
 20 15  1  0  0  0  0
 21 16  1  0  0  0  0
 22 23  1  0  0  0  0
 24 25  1  0  0  0  0
 24  1  1  0  0  0  0
 26  6  1  0  0  0  0
 27 28  1  0  0  0  0
 28 29  1  0  0  0  0
 29 26  1  0  0  0  0
 29 30  2  0  0  0  0
 30 34  1  0  0  0  0
 31 30  1  0  0  0  0
 31 35  1  0  0  0  0
 32 31  2  0  0  0  0
 33 28  2  0  0  0  0
 33 32  1  0  0  0  0
 36 32  1  0  0  0  0
 37 38  1  0  0  0  0
 37 33  1  0  0  0  0
M  END
>  <minimizedAffinity>
-5.24061537

$$$$

 OpenBabel03242518483D

 38 40  0  0  1  0  0  0  0  0999 V2000
   37.5470   29.6870   39.0290 C   0  0  2  0  0  0  0  0  0  0  0  0
   37.5720   31.1210   39.4200 C   0  0  1  0  0  0  0  0  0  0  0  0
   37.0220   31.3380   40.8310 C   0  0  0  0  0  0  0  0  0  0  0  0
   35.7600   30.7430   40.8020 O   0  0  0  0  0  0  0  0  0  0  0  0
   35.8420   29.3670   40.7900 C   0  0  0  0  0  0  0  0  0  0  0  0
   37.1310   28.8350   40.2430 C   0  0  1  0  0  0  0  0  0  0  0  0
   36.7890   29.5040   38.2530 H   0  0  0  0  0  0  0  0  0  0  0  0
   36.9160   31.7320   38.7360 H   0  0  0  0  0  0  0  0  0  0  0  0
   37.6860   30.8730   41.5870 H   0  0  0  0  0  0  0  0  0  0  0  0
   36.8710   32.3930   41.0490 H   0  0  0  0  0  0  0  0  0  0  0  0
   35.5610   28.9050   41.7390 H   0  0  0  0  0  0  0  0  0  0  0  0
   35.0460   29.0340   40.0600 H   0  0  0  0  0  0  0  0  0  0  0  0
   37.9420   28.9160   40.9950 H   0  0  0  0  0  0  0  0  0  0  0  0
   40.6320   32.7530   38.2420 C   0  0  0  0  0  0  0  0  0  0  0  0
   41.4040   32.9320   39.4250 C   0  0  0  0  0  0  0  0  0  0  0  0
   40.8100   32.4630   40.6210 C   0  0  0  0  0  0  0  0  0  0  0  0
   39.5850   31.8930   40.5690 N   0  0  0  0  0  0  0  0  0  0  0  0
   38.9020   31.7530   39.4170 C   0  0  0  0  0  0  0  0  0  0  0  0
   39.4320   32.1840   38.2550 N   0  0  0  0  0  0  0  0  0  0  0  0
   42.3740   33.3860   39.4410 H   0  0  0  0  0  0  0  0  0  0  0  0
   41.3540   32.5750   41.5460 H   0  0  0  0  0  0  0  0  0  0  0  0
   41.1920   33.1980   37.0850 O   0  0  0  0  0  0  0  0  0  0  0  0
   42.0850   32.9210   36.7380 H   0  0  0  0  0  0  0  0  0  0  0  0
   38.7800   29.2080   38.5730 O   0  0  0  0  0  0  0  0  0  0  0  0
   39.3200   28.9580   39.3490 H   0  0  0  0  0  0  0  0  0  0  0  0
   37.0450   27.5340   39.8020 O   0  0  0  0  0  0  0  0  0  0  0  0
   35.7070   25.5620   38.5230 F   0  0  0  0  0  0  0  0  0  0  0  0
   36.4520   25.3900   39.6320 C   0  0  0  0  0  0  0  0  0  0  0  0
   37.1690   26.3360   40.3440 C   0  0  0  0  0  0  0  0  0  0  0  0
   37.8520   25.8440   41.4440 C   0  0  0  0  0  0  0  0  0  0  0  0
   37.8690   24.5320   41.8660 C   0  0  0  0  0  0  0  0  0  0  0  0
   37.1450   23.6390   41.1280 C   0  0  0  0  0  0  0  0  0  0  0  0
   36.4350   24.0480   40.0140 C   0  0  0  0  0  0  0  0  0  0  0  0
   38.4000   26.6540   41.9610 H   0  0  0  0  0  0  0  0  0  0  0  0
   38.4490   24.2900   42.7450 H   0  0  0  0  0  0  0  0  0  0  0  0
   37.1720   22.6090   41.4770 H   0  0  0  0  0  0  0  0  0  0  0  0
   35.5510   22.7390   39.1810 S   0  0  0  0  0  0  0  0  0  0  0  0
   34.1610   22.9790   39.2420 H   0  0  0  0  0  0  0  0  0  0  0  0
  1  7  1  6  0  0  0
  1  2  1  0  0  0  0
  1  6  1  0  0  0  0
  2  8  1  6  0  0  0
  2  3  1  0  0  0  0
  3 10  1  0  0  0  0
  3  9  1  0  0  0  0
  4  3  1  0  0  0  0
  5  4  1  0  0  0  0
  5 11  1  0  0  0  0
  6  5  1  0  0  0  0
  6 13  1  1  0  0  0
 12  5  1  0  0  0  0
 14 19  2  0  0  0  0
 14 15  1  0  0  0  0
 15 20  1  0  0  0  0
 15 16  2  0  0  0  0
 16 21  1  0  0  0  0
 17 16  1  0  0  0  0
 18  2  1  0  0  0  0
 18 17  2  0  0  0  0
 19 18  1  0  0  0  0
 22 14  1  0  0  0  0
 23 22  1  0  0  0  0
 24  1  1  0  0  0  0
 24 25  1  0  0  0  0
 26  6  1  0  0  0  0
 26 29  1  0  0  0  0
 27 28  1  0  0  0  0
 28 33  2  0  0  0  0
 28 29  1  0  0  0  0
 29 30  2  0  0  0  0
 30 31  1  0  0  0  0
 30 34  1  0  0  0  0
 31 35  1  0  0  0  0
 32 36  1  0  0  0  0
 32 31  2  0  0  0  0
 33 32  1  0  0  0  0
 37 38  1  0  0  0  0
 37 33  1  0  0  0  0
M  END
>  <minimizedAffinity>
-5.2136035

$$$$

 OpenBabel03242518483D

 38 40  0  0  1  0  0  0  0  0999 V2000
   38.0070   29.3680   41.7960 C   0  0  2  0  0  0  0  0  0  0  0  0
   36.7100   28.6440   41.7360 C   0  0  1  0  0  0  0  0  0  0  0  0
   35.7750   29.2330   40.6780 C   0  0  0  0  0  0  0  0  0  0  0  0
   35.6940   30.5860   41.0080 O   0  0  0  0  0  0  0  0  0  0  0  0
   36.8560   31.2610   40.6980 C   0  0  0  0  0  0  0  0  0  0  0  0
   38.0730   30.3900   40.6450 C   0  0  1  0  0  0  0  0  0  0  0  0
   38.0890   29.9500   42.7260 H   0  0  0  0  0  0  0  0  0  0  0  0
   36.1600   28.7300   42.7170 H   0  0  0  0  0  0  0  0  0  0  0  0
   36.1840   29.0750   39.6610 H   0  0  0  0  0  0  0  0  0  0  0  0
   34.7690   28.8270   40.7560 H   0  0  0  0  0  0  0  0  0  0  0  0
   36.7620   31.9120   39.8260 H   0  0  0  0  0  0  0  0  0  0  0  0
   37.0260   31.9630   41.5660 H   0  0  0  0  0  0  0  0  0  0  0  0
   38.1070   29.8150   39.6970 H   0  0  0  0  0  0  0  0  0  0  0  0
   36.7760   25.5080   39.8450 C   0  0  0  0  0  0  0  0  0  0  0  0
   36.9770   24.5100   40.8400 C   0  0  0  0  0  0  0  0  0  0  0  0
   37.0840   24.9830   42.1690 C   0  0  0  0  0  0  0  0  0  0  0  0
   36.9930   26.3110   42.4050 N   0  0  0  0  0  0  0  0  0  0  0  0
   36.8040   27.2080   41.4200 C   0  0  0  0  0  0  0  0  0  0  0  0
   36.6950   26.8010   40.1400 N   0  0  0  0  0  0  0  0  0  0  0  0
   37.0450   23.4620   40.6280 H   0  0  0  0  0  0  0  0  0  0  0  0
   37.2370   24.2670   42.9620 H   0  0  0  0  0  0  0  0  0  0  0  0
   36.6700   25.0660   38.5630 O   0  0  0  0  0  0  0  0  0  0  0  0
   36.0140   24.3870   38.2430 H   0  0  0  0  0  0  0  0  0  0  0  0
   39.1230   28.5320   41.6910 O   0  0  0  0  0  0  0  0  0  0  0  0
   39.2930   28.3630   40.7420 H   0  0  0  0  0  0  0  0  0  0  0  0
   39.2520   31.0840   40.8000 O   0  0  0  0  0  0  0  0  0  0  0  0
   40.8100   30.0730   38.8340 F   0  0  0  0  0  0  0  0  0  0  0  0
   40.6960   31.3830   39.1260 C   0  0  0  0  0  0  0  0  0  0  0  0
   39.9240   31.9840   40.1060 C   0  0  0  0  0  0  0  0  0  0  0  0
   40.0110   33.3660   40.1510 C   0  0  0  0  0  0  0  0  0  0  0  0
   40.7800   34.1560   39.3240 C   0  0  0  0  0  0  0  0  0  0  0  0
   41.5230   33.5130   38.3750 C   0  0  0  0  0  0  0  0  0  0  0  0
   41.4930   32.1360   38.2620 C   0  0  0  0  0  0  0  0  0  0  0  0
   39.3690   33.7730   40.9540 H   0  0  0  0  0  0  0  0  0  0  0  0
   40.7490   35.2260   39.4740 H   0  0  0  0  0  0  0  0  0  0  0  0
   42.1220   34.1550   37.7330 H   0  0  0  0  0  0  0  0  0  0  0  0
   42.5300   31.4790   36.9640 S   0  0  0  0  0  0  0  0  0  0  0  0
   43.5470   30.6740   37.5200 H   0  0  0  0  0  0  0  0  0  0  0  0
  1  7  1  1  0  0  0
  2  1  1  0  0  0  0
  2  8  1  1  0  0  0
  3 10  1  0  0  0  0
  3  4  1  0  0  0  0
  3  2  1  0  0  0  0
  5  4  1  0  0  0  0
  5 12  1  0  0  0  0
  6 13  1  6  0  0  0
  6  5  1  0  0  0  0
  6 26  1  0  0  0  0
  6  1  1  0  0  0  0
  9  3  1  0  0  0  0
 11  5  1  0  0  0  0
 14 19  2  0  0  0  0
 14 15  1  0  0  0  0
 15 16  2  0  0  0  0
 16 17  1  0  0  0  0
 16 21  1  0  0  0  0
 18  2  1  0  0  0  0
 18 17  2  0  0  0  0
 19 18  1  0  0  0  0
 20 15  1  0  0  0  0
 22 14  1  0  0  0  0
 23 22  1  0  0  0  0
 24  1  1  0  0  0  0
 25 24  1  0  0  0  0
 27 28  1  0  0  0  0
 28 29  1  0  0  0  0
 29 30  2  0  0  0  0
 29 26  1  0  0  0  0
 30 34  1  0  0  0  0
 31 35  1  0  0  0  0
 31 30  1  0  0  0  0
 32 31  2  0  0  0  0
 33 32  1  0  0  0  0
 33 28  2  0  0  0  0
 36 32  1  0  0  0  0
 37 38  1  0  0  0  0
 37 33  1  0  0  0  0
M  END
>  <minimizedAffinity>
-5.12515354

$$$$

 OpenBabel03242518483D

 38 40  0  0  1  0  0  0  0  0999 V2000
   38.4040   28.5360   40.0710 C   0  0  2  0  0  0  0  0  0  0  0  0
   37.9440   29.9490   40.0380 C   0  0  1  0  0  0  0  0  0  0  0  0
   37.4370   30.4160   41.4030 C   0  0  0  0  0  0  0  0  0  0  0  0
   36.4660   29.4760   41.7480 O   0  0  0  0  0  0  0  0  0  0  0  0
   37.0270   28.2680   42.1060 C   0  0  0  0  0  0  0  0  0  0  0  0
   38.3860   28.0280   41.5250 C   0  0  1  0  0  0  0  0  0  0  0  0
   37.7150   27.8860   39.5120 H   0  0  0  0  0  0  0  0  0  0  0  0
   37.0770   30.0690   39.3280 H   0  0  0  0  0  0  0  0  0  0  0  0
   38.2650   30.4520   42.1380 H   0  0  0  0  0  0  0  0  0  0  0  0
   36.9370   31.3810   41.3410 H   0  0  0  0  0  0  0  0  0  0  0  0
   36.9820   28.0680   43.1790 H   0  0  0  0  0  0  0  0  0  0  0  0
   36.3580   27.4870   41.6390 H   0  0  0  0  0  0  0  0  0  0  0  0
   39.1590   28.5960   42.0810 H   0  0  0  0  0  0  0  0  0  0  0  0
   40.0220   32.1480   37.9730 C   0  0  0  0  0  0  0  0  0  0  0  0
   40.8880   32.7820   38.9090 C   0  0  0  0  0  0  0  0  0  0  0  0
   40.7080   32.4070   40.2610 C   0  0  0  0  0  0  0  0  0  0  0  0
   39.7550   31.5000   40.5720 N   0  0  0  0  0  0  0  0  0  0  0  0
   38.9650   30.9350   39.6410 C   0  0  0  0  0  0  0  0  0  0  0  0
   39.1030   31.2620   38.3410 N   0  0  0  0  0  0  0  0  0  0  0  0
   41.6370   33.4990   38.6370 H   0  0  0  0  0  0  0  0  0  0  0  0
   41.3390   32.8590   41.0110 H   0  0  0  0  0  0  0  0  0  0  0  0
   40.1860   32.4990   36.6690 O   0  0  0  0  0  0  0  0  0  0  0  0
   41.0420   32.4370   36.1620 H   0  0  0  0  0  0  0  0  0  0  0  0
   39.6970   28.3540   39.5700 O   0  0  0  0  0  0  0  0  0  0  0  0
   40.3350   28.5480   40.2860 H   0  0  0  0  0  0  0  0  0  0  0  0
   38.7390   26.6980   41.4840 O   0  0  0  0  0  0  0  0  0  0  0  0
   40.2570   25.2540   39.7730 F   0  0  0  0  0  0  0  0  0  0  0  0
   39.0210   24.9070   40.1840 C   0  0  0  0  0  0  0  0  0  0  0  0
   38.1820   25.5800   41.0550 C   0  0  0  0  0  0  0  0  0  0  0  0
   36.9670   24.9570   41.2920 C   0  0  0  0  0  0  0  0  0  0  0  0
   36.5500   23.7620   40.7460 C   0  0  0  0  0  0  0  0  0  0  0  0
   37.4170   23.1400   39.8930 C   0  0  0  0  0  0  0  0  0  0  0  0
   38.6490   23.6950   39.6030 C   0  0  0  0  0  0  0  0  0  0  0  0
   36.3530   25.5500   41.9950 H   0  0  0  0  0  0  0  0  0  0  0  0
   35.5720   23.3940   41.0220 H   0  0  0  0  0  0  0  0  0  0  0  0
   37.0680   22.1990   39.4730 H   0  0  0  0  0  0  0  0  0  0  0  0
   39.6400   22.7360   38.4680 S   0  0  0  0  0  0  0  0  0  0  0  0
   39.8570   23.4660   37.2790 H   0  0  0  0  0  0  0  0  0  0  0  0
  1  7  1  6  0  0  0
  1  6  1  0  0  0  0
  2  8  1  6  0  0  0
  2  1  1  0  0  0  0
  2  3  1  0  0  0  0
  3  4  1  0  0  0  0
  3  9  1  0  0  0  0
  4  5  1  0  0  0  0
  5 11  1  0  0  0  0
  6 13  1  1  0  0  0
  6  5  1  0  0  0  0
 10  3  1  0  0  0  0
 12  5  1  0  0  0  0
 14 19  2  0  0  0  0
 14 15  1  0  0  0  0
 15 16  2  0  0  0  0
 16 17  1  0  0  0  0
 16 21  1  0  0  0  0
 18  2  1  0  0  0  0
 18 17  2  0  0  0  0
 19 18  1  0  0  0  0
 20 15  1  0  0  0  0
 22 14  1  0  0  0  0
 23 22  1  0  0  0  0
 24  1  1  0  0  0  0
 24 25  1  0  0  0  0
 26  6  1  0  0  0  0
 27 28  1  0  0  0  0
 28 29  1  0  0  0  0
 29 30  2  0  0  0  0
 29 26  1  0  0  0  0
 30 34  1  0  0  0  0
 31 35  1  0  0  0  0
 31 30  1  0  0  0  0
 32 31  2  0  0  0  0
 33 32  1  0  0  0  0
 33 28  2  0  0  0  0
 36 32  1  0  0  0  0
 37 33  1  0  0  0  0
 38 37  1  0  0  0  0
M  END
>  <minimizedAffinity>
-5.09538937

$$$$
