
 OpenBabel03252506493D

 22 23  0  0  0  0  0  0  0  0999 V2000
   41.3130   31.5100   40.7540 Cl  0  0  0  0  0  0  0  0  0  0  0  0
   40.8840   33.1360   40.2670 C   0  0  0  0  0  0  0  0  0  0  0  0
   41.9230   33.9400   39.9320 C   0  0  0  0  0  0  0  0  0  0  0  0
   41.6280   35.2500   39.5370 C   0  0  0  0  0  0  0  0  0  0  0  0
   40.3060   35.6750   39.5020 C   0  0  0  0  0  0  0  0  0  0  0  0
   39.2490   34.8570   39.8440 C   0  0  0  0  0  0  0  0  0  0  0  0
   39.5610   33.5620   40.2330 C   0  0  0  0  0  0  0  0  0  0  0  0
   38.3020   32.4250   40.6920 Cl  0  0  0  0  0  0  0  0  0  0  0  0
   42.3850   35.9640   39.2500 H   0  0  0  0  0  0  0  0  0  0  0  0
   40.0730   36.6900   39.1960 H   0  0  0  0  0  0  0  0  0  0  0  0
   38.2160   35.1860   39.8180 H   0  0  0  0  0  0  0  0  0  0  0  0
   43.6440   33.5370   39.9290 S   0  0  0  0  0  0  0  0  0  0  0  0
   44.3810   33.5740   41.5600 C   0  0  0  0  0  0  0  0  0  0  0  0
   45.1580   32.4550   41.8890 C   0  0  0  0  0  0  0  0  0  0  0  0
   45.7670   32.4110   43.1480 C   0  0  0  0  0  0  0  0  0  0  0  0
   45.5730   33.4600   43.9900 N   0  0  0  0  0  0  0  0  0  0  0  0
   44.8180   34.5160   43.6370 C   0  0  0  0  0  0  0  0  0  0  0  0
   44.2120   34.5950   42.4230 N   0  0  0  0  0  0  0  0  0  0  0  0
   45.2950   31.6300   41.1910 H   0  0  0  0  0  0  0  0  0  0  0  0
   46.3780   31.5620   43.4430 H   0  0  0  0  0  0  0  0  0  0  0  0
   44.6320   35.8380   44.8260 S   0  0  0  0  0  0  0  0  0  0  0  0
   43.2690   35.9950   45.1530 H   0  0  0  0  0  0  0  0  0  0  0  0
  2  1  1  0  0  0  0
  3  2  2  0  0  0  0
  4  3  1  0  0  0  0
  5  4  2  0  0  0  0
  5  6  1  0  0  0  0
  6  7  2  0  0  0  0
  7  2  1  0  0  0  0
  7  8  1  0  0  0  0
  9  4  1  0  0  0  0
 10  5  1  0  0  0  0
 11  6  1  0  0  0  0
 12  3  1  0  0  0  0
 12 13  1  0  0  0  0
 13 14  2  0  0  0  0
 13 18  1  0  0  0  0
 14 15  1  0  0  0  0
 15 20  1  0  0  0  0
 15 16  2  0  0  0  0
 17 16  1  0  0  0  0
 17 21  1  0  0  0  0
 18 17  2  0  0  0  0
 19 14  1  0  0  0  0
 21 22  1  0  0  0  0
M  END
>  <minimizedAffinity>
-4.20718908

>  <minimizedRMSD>
1.34568453

$$$$
