
 OpenBabel03242517593D

 17 17  0  0  0  0  0  0  0  0999 V2000
   38.8370   27.0080   43.4730 C   0  0  0  0  0  0  0  0  0  0  0  0
   37.6840   26.7310   42.7380 C   0  0  0  0  0  0  0  0  0  0  0  0
   37.5560   25.4440   42.2140 C   0  0  0  0  0  0  0  0  0  0  0  0
   38.5310   24.5420   42.4380 N   0  0  0  0  0  0  0  0  0  0  0  0
   39.6430   24.8400   43.1580 C   0  0  0  0  0  0  0  0  0  0  0  0
   39.7940   26.0770   43.6770 N   0  0  0  0  0  0  0  0  0  0  0  0
   38.9740   27.9950   43.8970 H   0  0  0  0  0  0  0  0  0  0  0  0
   36.6780   25.2030   41.6440 H   0  0  0  0  0  0  0  0  0  0  0  0
   40.3910   24.0710   43.3020 H   0  0  0  0  0  0  0  0  0  0  0  0
   36.7040   27.7750   42.5650 C   0  0  0  0  0  0  0  0  0  0  0  0
   35.9520   27.7660   43.3450 H   0  0  0  0  0  0  0  0  0  0  0  0
   36.1720   27.6570   41.5780 H   0  0  0  0  0  0  0  0  0  0  0  0
   37.4350   29.1110   42.4780 C   0  0  0  0  0  0  0  0  0  0  0  0
   37.4970   29.5670   43.4950 H   0  0  0  0  0  0  0  0  0  0  0  0
   38.4740   28.9280   42.1410 H   0  0  0  0  0  0  0  0  0  0  0  0
   36.6530   30.2040   41.2650 S   0  0  0  0  0  0  0  0  0  0  0  0
   35.3990   30.6490   41.6600 H   0  0  0  0  0  0  0  0  0  0  0  0
  1  6  1  0  0  0  0
  1  7  1  0  0  0  0
  2  1  2  0  0  0  0
  3  4  2  0  0  0  0
  3  2  1  0  0  0  0
  4  5  1  0  0  0  0
  5  9  1  0  0  0  0
  5  6  2  0  0  0  0
  8  3  1  0  0  0  0
 10  2  1  0  0  0  0
 10 11  1  0  0  0  0
 12 10  1  0  0  0  0
 13 10  1  0  0  0  0
 13 14  1  0  0  0  0
 15 13  1  0  0  0  0
 16 17  1  0  0  0  0
 16 13  1  0  0  0  0
M  END
>  <minimizedAffinity>
-2.97054839

$$$$

 OpenBabel03242517593D

 17 17  0  0  0  0  0  0  0  0999 V2000
   38.6900   26.7820   43.0400 C   0  0  0  0  0  0  0  0  0  0  0  0
   37.4080   26.6350   42.5090 C   0  0  0  0  0  0  0  0  0  0  0  0
   36.6790   27.8010   42.2720 C   0  0  0  0  0  0  0  0  0  0  0  0
   37.2340   28.9940   42.5590 N   0  0  0  0  0  0  0  0  0  0  0  0
   38.4850   29.1070   43.0750 C   0  0  0  0  0  0  0  0  0  0  0  0
   39.2130   27.9960   43.3160 N   0  0  0  0  0  0  0  0  0  0  0  0
   39.2880   25.9010   43.2390 H   0  0  0  0  0  0  0  0  0  0  0  0
   35.6900   27.7180   41.8630 H   0  0  0  0  0  0  0  0  0  0  0  0
   38.8730   30.0950   43.2850 H   0  0  0  0  0  0  0  0  0  0  0  0
   36.9180   25.3070   42.2380 C   0  0  0  0  0  0  0  0  0  0  0  0
   36.3190   25.2650   41.3360 H   0  0  0  0  0  0  0  0  0  0  0  0
   36.2750   24.9410   43.0890 H   0  0  0  0  0  0  0  0  0  0  0  0
   38.1090   24.3550   42.1890 C   0  0  0  0  0  0  0  0  0  0  0  0
   39.0560   24.9430   42.2520 H   0  0  0  0  0  0  0  0  0  0  0  0
   38.0770   23.6970   43.0780 H   0  0  0  0  0  0  0  0  0  0  0  0
   38.0370   23.2950   40.7240 S   0  0  0  0  0  0  0  0  0  0  0  0
   38.2430   23.9870   39.5380 H   0  0  0  0  0  0  0  0  0  0  0  0
  1  7  1  0  0  0  0
  1  6  1  0  0  0  0
  2  1  2  0  0  0  0
  3  2  1  0  0  0  0
  3  4  2  0  0  0  0
  4  5  1  0  0  0  0
  5  9  1  0  0  0  0
  5  6  2  0  0  0  0
  8  3  1  0  0  0  0
 10  2  1  0  0  0  0
 10 12  1  0  0  0  0
 11 10  1  0  0  0  0
 13 10  1  0  0  0  0
 13 14  1  0  0  0  0
 13 15  1  0  0  0  0
 16 13  1  0  0  0  0
 17 16  1  0  0  0  0
M  END
>  <minimizedAffinity>
-2.92588139

$$$$

 OpenBabel03242517593D

 17 17  0  0  0  0  0  0  0  0999 V2000
   37.3900   26.3050   42.5200 C   0  0  0  0  0  0  0  0  0  0  0  0
   38.1900   27.1590   43.2810 C   0  0  0  0  0  0  0  0  0  0  0  0
   39.4370   26.6760   43.6800 C   0  0  0  0  0  0  0  0  0  0  0  0
   39.8070   25.4320   43.3200 N   0  0  0  0  0  0  0  0  0  0  0  0
   39.0070   24.6230   42.5790 C   0  0  0  0  0  0  0  0  0  0  0  0
   37.7950   25.0630   42.1790 N   0  0  0  0  0  0  0  0  0  0  0  0
   36.4150   26.6430   42.1910 H   0  0  0  0  0  0  0  0  0  0  0  0
   40.0740   27.3110   44.2660 H   0  0  0  0  0  0  0  0  0  0  0  0
   39.3620   23.6330   42.3240 H   0  0  0  0  0  0  0  0  0  0  0  0
   37.6920   28.4730   43.6040 C   0  0  0  0  0  0  0  0  0  0  0  0
   37.9230   28.7620   44.6220 H   0  0  0  0  0  0  0  0  0  0  0  0
   36.5700   28.5100   43.4870 H   0  0  0  0  0  0  0  0  0  0  0  0
   38.2410   29.4610   42.5790 C   0  0  0  0  0  0  0  0  0  0  0  0
   38.7270   30.3140   43.1110 H   0  0  0  0  0  0  0  0  0  0  0  0
   39.0280   28.9580   41.9850 H   0  0  0  0  0  0  0  0  0  0  0  0
   36.9480   29.9950   41.4310 S   0  0  0  0  0  0  0  0  0  0  0  0
   35.9820   30.7920   42.0290 H   0  0  0  0  0  0  0  0  0  0  0  0
  1  2  1  0  0  0  0
  2 10  1  0  0  0  0
  2  3  2  0  0  0  0
  3  8  1  0  0  0  0
  4  3  1  0  0  0  0
  5  4  2  0  0  0  0
  6  1  2  0  0  0  0
  6  5  1  0  0  0  0
  7  1  1  0  0  0  0
  9  5  1  0  0  0  0
 10 11  1  0  0  0  0
 12 10  1  0  0  0  0
 13 14  1  0  0  0  0
 13 10  1  0  0  0  0
 15 13  1  0  0  0  0
 16 17  1  0  0  0  0
 16 13  1  0  0  0  0
M  END
>  <minimizedAffinity>
-2.91950917

$$$$

 OpenBabel03242517593D

 17 17  0  0  0  0  0  0  0  0999 V2000
   35.6900   28.7110   40.9360 C   0  0  0  0  0  0  0  0  0  0  0  0
   36.7430   28.6110   41.8460 C   0  0  0  0  0  0  0  0  0  0  0  0
   37.5860   29.7160   41.9680 C   0  0  0  0  0  0  0  0  0  0  0  0
   37.3510   30.8100   41.2180 N   0  0  0  0  0  0  0  0  0  0  0  0
   36.3170   30.8790   40.3410 C   0  0  0  0  0  0  0  0  0  0  0  0
   35.4850   29.8250   40.2010 N   0  0  0  0  0  0  0  0  0  0  0  0
   35.0130   27.8750   40.8110 H   0  0  0  0  0  0  0  0  0  0  0  0
   38.4050   29.6680   42.6610 H   0  0  0  0  0  0  0  0  0  0  0  0
   36.1820   31.7870   39.7670 H   0  0  0  0  0  0  0  0  0  0  0  0
   36.8970   27.3910   42.5980 C   0  0  0  0  0  0  0  0  0  0  0  0
   37.1280   26.5430   41.9640 H   0  0  0  0  0  0  0  0  0  0  0  0
   35.9480   27.1490   43.1570 H   0  0  0  0  0  0  0  0  0  0  0  0
   37.9560   27.6190   43.6720 C   0  0  0  0  0  0  0  0  0  0  0  0
   38.2180   28.7030   43.7100 H   0  0  0  0  0  0  0  0  0  0  0  0
   37.5280   27.3540   44.6580 H   0  0  0  0  0  0  0  0  0  0  0  0
   39.3980   26.5580   43.4010 S   0  0  0  0  0  0  0  0  0  0  0  0
   40.1290   26.9080   42.2750 H   0  0  0  0  0  0  0  0  0  0  0  0
  1  2  1  0  0  0  0
  2  3  2  0  0  0  0
  2 10  1  0  0  0  0
  3  8  1  0  0  0  0
  4  3  1  0  0  0  0
  5  4  2  0  0  0  0
  6  5  1  0  0  0  0
  6  1  2  0  0  0  0
  7  1  1  0  0  0  0
  9  5  1  0  0  0  0
 10 12  1  0  0  0  0
 10 13  1  0  0  0  0
 11 10  1  0  0  0  0
 13 14  1  0  0  0  0
 13 15  1  0  0  0  0
 16 13  1  0  0  0  0
 17 16  1  0  0  0  0
M  END
>  <minimizedAffinity>
-2.91172576

$$$$

 OpenBabel03242517593D

 17 17  0  0  0  0  0  0  0  0999 V2000
   37.4800   29.3310   42.5490 C   0  0  0  0  0  0  0  0  0  0  0  0
   36.7110   28.5730   41.6640 C   0  0  0  0  0  0  0  0  0  0  0  0
   36.8850   27.1890   41.6950 C   0  0  0  0  0  0  0  0  0  0  0  0
   37.7690   26.6550   42.5600 N   0  0  0  0  0  0  0  0  0  0  0  0
   38.5030   27.4180   43.4100 C   0  0  0  0  0  0  0  0  0  0  0  0
   38.3560   28.7600   43.4020 N   0  0  0  0  0  0  0  0  0  0  0  0
   37.3740   30.4090   42.5560 H   0  0  0  0  0  0  0  0  0  0  0  0
   36.3070   26.5800   41.0250 H   0  0  0  0  0  0  0  0  0  0  0  0
   39.1970   26.9290   44.0800 H   0  0  0  0  0  0  0  0  0  0  0  0
   35.7940   29.2530   40.7840 C   0  0  0  0  0  0  0  0  0  0  0  0
   34.7600   29.0870   41.0600 H   0  0  0  0  0  0  0  0  0  0  0  0
   35.9240   28.8930   39.7230 H   0  0  0  0  0  0  0  0  0  0  0  0
   36.1590   30.7340   40.7600 C   0  0  0  0  0  0  0  0  0  0  0  0
   35.2490   31.3430   40.9780 H   0  0  0  0  0  0  0  0  0  0  0  0
   36.8860   30.9360   41.5690 H   0  0  0  0  0  0  0  0  0  0  0  0
   36.9460   31.1860   39.1940 S   0  0  0  0  0  0  0  0  0  0  0  0
   36.0770   31.1420   38.1130 H   0  0  0  0  0  0  0  0  0  0  0  0
  1  7  1  0  0  0  0
  1  6  1  0  0  0  0
  2  3  1  0  0  0  0
  2  1  2  0  0  0  0
  3  4  2  0  0  0  0
  4  5  1  0  0  0  0
  5  9  1  0  0  0  0
  6  5  2  0  0  0  0
  8  3  1  0  0  0  0
 10 11  1  0  0  0  0
 10  2  1  0  0  0  0
 12 10  1  0  0  0  0
 13 10  1  0  0  0  0
 13 14  1  0  0  0  0
 13 15  1  0  0  0  0
 16 13  1  0  0  0  0
 17 16  1  0  0  0  0
M  END
>  <minimizedAffinity>
-2.89591265

$$$$

 OpenBabel03242517593D

 17 17  0  0  0  0  0  0  0  0999 V2000
   36.8650   27.2090   41.7600 C   0  0  0  0  0  0  0  0  0  0  0  0
   36.7730   28.6000   41.7060 C   0  0  0  0  0  0  0  0  0  0  0  0
   37.5810   29.3260   42.5820 C   0  0  0  0  0  0  0  0  0  0  0  0
   38.3990   28.6660   43.4240 N   0  0  0  0  0  0  0  0  0  0  0  0
   38.4680   27.3100   43.4540 C   0  0  0  0  0  0  0  0  0  0  0  0
   37.6980   26.5820   42.6180 N   0  0  0  0  0  0  0  0  0  0  0  0
   36.2550   26.6090   41.0960 H   0  0  0  0  0  0  0  0  0  0  0  0
   37.5310   30.3990   42.5620 H   0  0  0  0  0  0  0  0  0  0  0  0
   39.1450   26.8400   44.1540 H   0  0  0  0  0  0  0  0  0  0  0  0
   35.8630   29.1990   40.7610 C   0  0  0  0  0  0  0  0  0  0  0  0
   34.8290   28.9640   40.9790 H   0  0  0  0  0  0  0  0  0  0  0  0
   36.0820   28.8350   39.7160 H   0  0  0  0  0  0  0  0  0  0  0  0
   36.1230   30.7020   40.7310 C   0  0  0  0  0  0  0  0  0  0  0  0
   35.1620   31.2480   40.8870 H   0  0  0  0  0  0  0  0  0  0  0  0
   36.7870   30.9670   41.5760 H   0  0  0  0  0  0  0  0  0  0  0  0
   36.9640   31.1870   39.2030 S   0  0  0  0  0  0  0  0  0  0  0  0
   36.1630   31.0660   38.0770 H   0  0  0  0  0  0  0  0  0  0  0  0
  1  6  1  0  0  0  0
  2  1  2  0  0  0  0
  2  3  1  0  0  0  0
  3  4  2  0  0  0  0
  4  5  1  0  0  0  0
  5  9  1  0  0  0  0
  6  5  2  0  0  0  0
  7  1  1  0  0  0  0
  8  3  1  0  0  0  0
 10 11  1  0  0  0  0
 10  2  1  0  0  0  0
 12 10  1  0  0  0  0
 13 10  1  0  0  0  0
 13 14  1  0  0  0  0
 13 15  1  0  0  0  0
 16 13  1  0  0  0  0
 17 16  1  0  0  0  0
M  END
>  <minimizedAffinity>
-2.86700273

$$$$

 OpenBabel03242517593D

 17 17  0  0  0  0  0  0  0  0999 V2000
   36.9530   29.8130   41.7910 C   0  0  0  0  0  0  0  0  0  0  0  0
   37.8720   29.3850   42.7500 C   0  0  0  0  0  0  0  0  0  0  0  0
   39.1260   29.9960   42.7460 C   0  0  0  0  0  0  0  0  0  0  0  0
   39.3910   30.9520   41.8350 N   0  0  0  0  0  0  0  0  0  0  0  0
   38.4760   31.3480   40.9130 C   0  0  0  0  0  0  0  0  0  0  0  0
   37.2530   30.7750   40.8930 N   0  0  0  0  0  0  0  0  0  0  0  0
   35.9670   29.3630   41.7610 H   0  0  0  0  0  0  0  0  0  0  0  0
   39.8540   29.6870   43.4730 H   0  0  0  0  0  0  0  0  0  0  0  0
   38.7500   32.1220   40.2080 H   0  0  0  0  0  0  0  0  0  0  0  0
   37.4780   28.3550   43.6780 C   0  0  0  0  0  0  0  0  0  0  0  0
   36.8650   28.7390   44.4840 H   0  0  0  0  0  0  0  0  0  0  0  0
   38.3860   27.8730   44.1420 H   0  0  0  0  0  0  0  0  0  0  0  0
   36.7820   27.2450   42.8970 C   0  0  0  0  0  0  0  0  0  0  0  0
   36.0320   26.7430   43.5540 H   0  0  0  0  0  0  0  0  0  0  0  0
   36.2230   27.6970   42.0550 H   0  0  0  0  0  0  0  0  0  0  0  0
   37.9840   26.0890   42.1950 S   0  0  0  0  0  0  0  0  0  0  0  0
   38.6330   25.3260   43.1550 H   0  0  0  0  0  0  0  0  0  0  0  0
  1  2  1  0  0  0  0
  2 10  1  0  0  0  0
  3  2  2  0  0  0  0
  3  8  1  0  0  0  0
  4  3  1  0  0  0  0
  5  4  2  0  0  0  0
  6  5  1  0  0  0  0
  6  1  2  0  0  0  0
  7  1  1  0  0  0  0
  9  5  1  0  0  0  0
 10 12  1  0  0  0  0
 10 11  1  0  0  0  0
 13 14  1  0  0  0  0
 13 10  1  0  0  0  0
 15 13  1  0  0  0  0
 16 13  1  0  0  0  0
 16 17  1  0  0  0  0
M  END
>  <minimizedAffinity>
-2.84379983

$$$$

 OpenBabel03242517593D

 17 17  0  0  0  0  0  0  0  0999 V2000
   36.6130   27.8090   42.0250 C   0  0  0  0  0  0  0  0  0  0  0  0
   37.7300   28.2800   42.7160 C   0  0  0  0  0  0  0  0  0  0  0  0
   38.0990   29.6080   42.5000 C   0  0  0  0  0  0  0  0  0  0  0  0
   37.3760   30.3630   41.6500 N   0  0  0  0  0  0  0  0  0  0  0  0
   36.2930   29.8780   40.9910 C   0  0  0  0  0  0  0  0  0  0  0  0
   35.9120   28.5960   41.1810 N   0  0  0  0  0  0  0  0  0  0  0  0
   36.2940   26.7840   42.1650 H   0  0  0  0  0  0  0  0  0  0  0  0
   38.9550   29.9980   43.0190 H   0  0  0  0  0  0  0  0  0  0  0  0
   35.7540   30.5350   40.3210 H   0  0  0  0  0  0  0  0  0  0  0  0
   38.4260   27.3820   43.6030 C   0  0  0  0  0  0  0  0  0  0  0  0
   37.8670   27.1810   44.5090 H   0  0  0  0  0  0  0  0  0  0  0  0
   39.4200   27.8200   43.9080 H   0  0  0  0  0  0  0  0  0  0  0  0
   38.7610   26.1090   42.8320 C   0  0  0  0  0  0  0  0  0  0  0  0
   37.9520   25.3560   42.9920 H   0  0  0  0  0  0  0  0  0  0  0  0
   38.7790   26.3410   41.7500 H   0  0  0  0  0  0  0  0  0  0  0  0
   40.3990   25.4850   43.2840 S   0  0  0  0  0  0  0  0  0  0  0  0
   40.4580   24.9950   44.5810 H   0  0  0  0  0  0  0  0  0  0  0  0
  1  7  1  0  0  0  0
  1  2  1  0  0  0  0
  2 10  1  0  0  0  0
  3  2  2  0  0  0  0
  3  8  1  0  0  0  0
  4  3  1  0  0  0  0
  5  6  1  0  0  0  0
  5  4  2  0  0  0  0
  6  1  2  0  0  0  0
  9  5  1  0  0  0  0
 10 12  1  0  0  0  0
 10 11  1  0  0  0  0
 13 14  1  0  0  0  0
 13 16  1  0  0  0  0
 13 10  1  0  0  0  0
 15 13  1  0  0  0  0
 16 17  1  0  0  0  0
M  END
>  <minimizedAffinity>
-2.83717752

$$$$

 OpenBabel03242517593D

 17 17  0  0  0  0  0  0  0  0999 V2000
   36.3360   30.0410   38.7790 C   0  0  0  0  0  0  0  0  0  0  0  0
   36.1330   30.0030   40.1590 C   0  0  0  0  0  0  0  0  0  0  0  0
   36.5540   31.1110   40.8950 C   0  0  0  0  0  0  0  0  0  0  0  0
   37.1270   32.1480   40.2550 N   0  0  0  0  0  0  0  0  0  0  0  0
   37.3110   32.1580   38.9100 C   0  0  0  0  0  0  0  0  0  0  0  0
   36.9130   31.0990   38.1720 N   0  0  0  0  0  0  0  0  0  0  0  0
   36.0230   29.2000   38.1720 H   0  0  0  0  0  0  0  0  0  0  0  0
   36.4100   31.1090   41.9600 H   0  0  0  0  0  0  0  0  0  0  0  0
   37.7780   33.0210   38.4550 H   0  0  0  0  0  0  0  0  0  0  0  0
   35.5070   28.8400   40.7370 C   0  0  0  0  0  0  0  0  0  0  0  0
   34.7380   28.4250   40.0960 H   0  0  0  0  0  0  0  0  0  0  0  0
   35.0230   29.0990   41.7220 H   0  0  0  0  0  0  0  0  0  0  0  0
   36.5950   27.8240   41.0720 C   0  0  0  0  0  0  0  0  0  0  0  0
   36.3840   26.8650   40.5410 H   0  0  0  0  0  0  0  0  0  0  0  0
   37.5630   28.2000   40.6900 H   0  0  0  0  0  0  0  0  0  0  0  0
   36.7600   27.6130   42.8620 S   0  0  0  0  0  0  0  0  0  0  0  0
   35.6680   26.9830   43.4410 H   0  0  0  0  0  0  0  0  0  0  0  0
  1  2  1  0  0  0  0
  2 10  1  0  0  0  0
  2  3  2  0  0  0  0
  3  8  1  0  0  0  0
  4  3  1  0  0  0  0
  5  4  2  0  0  0  0
  6  1  2  0  0  0  0
  6  5  1  0  0  0  0
  7  1  1  0  0  0  0
  9  5  1  0  0  0  0
 10 13  1  0  0  0  0
 10 12  1  0  0  0  0
 11 10  1  0  0  0  0
 13 16  1  0  0  0  0
 14 13  1  0  0  0  0
 15 13  1  0  0  0  0
 16 17  1  0  0  0  0
M  END
>  <minimizedAffinity>
-2.83453345

$$$$
