
 OpenBabel03242513253D

 38 40  0  0  1  0  0  0  0  0999 V2000
   35.7550   29.8100   39.5910 C   0  0  2  0  0  0  0  0  0  0  0  0
   35.8290   28.9230   38.3570 C   0  0  0  0  0  0  0  0  0  0  0  0
   36.5130   29.9230   37.4320 C   0  0  0  0  0  0  0  0  0  0  0  0
   37.4680   30.5290   38.2240 O   0  0  0  0  0  0  0  0  0  0  0  0
   37.1110   30.4120   39.5380 C   0  0  1  0  0  0  0  0  0  0  0  0
   34.9240   30.4940   39.4220 H   0  0  0  0  0  0  0  0  0  0  0  0
   34.8410   28.6040   37.9880 H   0  0  0  0  0  0  0  0  0  0  0  0
   36.5320   28.0630   38.5070 H   0  0  0  0  0  0  0  0  0  0  0  0
   36.9480   29.4470   36.5420 H   0  0  0  0  0  0  0  0  0  0  0  0
   35.7250   30.6350   37.1020 H   0  0  0  0  0  0  0  0  0  0  0  0
   37.8460   29.7830   40.0630 H   0  0  0  0  0  0  0  0  0  0  0  0
   37.1280   31.7760   40.1520 C   0  0  1  0  0  0  0  0  0  0  0  0
   38.4060   32.0540   40.9120 C   0  0  0  0  0  0  0  0  0  0  0  0
   38.7310   33.4660   40.5070 C   0  0  0  0  0  0  0  0  0  0  0  0
   37.5900   33.9630   39.8700 O   0  0  0  0  0  0  0  0  0  0  0  0
   37.2230   32.8680   39.0810 C   0  0  0  0  0  0  0  0  0  0  0  0
   36.2450   32.0110   40.7490 H   0  0  0  0  0  0  0  0  0  0  0  0
   39.1960   31.3370   40.6080 H   0  0  0  0  0  0  0  0  0  0  0  0
   38.1640   32.0040   41.9970 H   0  0  0  0  0  0  0  0  0  0  0  0
   39.5860   33.5170   39.7950 H   0  0  0  0  0  0  0  0  0  0  0  0
   38.9260   34.0960   41.3980 H   0  0  0  0  0  0  0  0  0  0  0  0
   36.2950   33.0240   38.5330 H   0  0  0  0  0  0  0  0  0  0  0  0
   38.1290   32.7090   38.4260 H   0  0  0  0  0  0  0  0  0  0  0  0
   35.4690   29.0340   40.8230 C   0  0  0  0  0  0  0  0  0  0  0  0
   35.5550   29.7280   41.6980 H   0  0  0  0  0  0  0  0  0  0  0  0
   34.4470   28.6340   40.7730 H   0  0  0  0  0  0  0  0  0  0  0  0
   36.9860   27.7410   42.2410 C   0  0  0  0  0  3  0  0  0  0  0  0
   36.4250   27.9300   41.0740 C   0  0  0  0  0  3  0  0  0  0  0  0
   39.7340   25.7060   43.5480 C   0  0  0  0  0  0  0  0  0  0  0  0
   39.6320   24.5280   42.7660 C   0  0  0  0  0  0  0  0  0  0  0  0
   38.6150   24.4870   41.8180 C   0  0  0  0  0  0  0  0  0  0  0  0
   37.7750   25.5530   41.6780 N   0  0  0  0  0  0  0  0  0  0  0  0
   37.9150   26.6510   42.4470 C   0  0  0  0  0  0  0  0  0  0  0  0
   38.8710   26.7370   43.3660 N   0  0  0  0  0  0  0  0  0  0  0  0
   40.5170   25.7350   44.2770 H   0  0  0  0  0  0  0  0  0  0  0  0
   40.2700   23.6850   42.8530 H   0  0  0  0  0  0  0  0  0  0  0  0
   38.3240   23.0870   40.7340 S   0  0  0  0  0  0  0  0  0  0  0  0
   37.6030   22.0900   41.4160 H   0  0  0  0  0  0  0  0  0  0  0  0
  1  6  1  6  0  0  0
  1 24  1  0  0  0  0
  2  8  1  0  0  0  0
  2  1  1  0  0  0  0
  3  4  1  0  0  0  0
  3  2  1  0  0  0  0
  4  5  1  0  0  0  0
  5  1  1  0  0  0  0
  5 11  1  1  0  0  0
  5 12  1  0  0  0  0
  7  2  1  0  0  0  0
  9  3  1  0  0  0  0
 10  3  1  0  0  0  0
 12 17  1  1  0  0  0
 12 13  1  0  0  0  0
 13 19  1  0  0  0  0
 14 13  1  0  0  0  0
 14 21  1  0  0  0  0
 15 14  1  0  0  0  0
 16 15  1  0  0  0  0
 16 12  1  0  0  0  0
 18 13  1  0  0  0  0
 20 14  1  0  0  0  0
 22 16  1  0  0  0  0
 23 16  1  0  0  0  0
 24 28  1  0  0  0  0
 24 25  1  0  0  0  0
 26 24  1  0  0  0  0
 27 33  1  0  0  0  0
 28 27  2  0  0  0  0
 29 35  1  0  0  0  0
 30 36  1  0  0  0  0
 30 29  2  0  0  0  0
 31 30  1  0  0  0  0
 32 31  2  0  0  0  0
 32 33  1  0  0  0  0
 33 34  2  0  0  0  0
 34 29  1  0  0  0  0
 37 38  1  0  0  0  0
 37 31  1  0  0  0  0
M  END
>  <minimizedAffinity>
-5.26189661

$$$$

 OpenBabel03242513253D

 38 40  0  0  1  0  0  0  0  0999 V2000
   37.6450   26.7190   43.0550 C   0  0  2  0  0  0  0  0  0  0  0  0
   38.9080   27.4260   43.5220 C   0  0  0  0  0  0  0  0  0  0  0  0
   39.8820   26.2800   43.2750 C   0  0  0  0  0  0  0  0  0  0  0  0
   39.4870   25.7440   42.0660 O   0  0  0  0  0  0  0  0  0  0  0  0
   38.1750   26.0550   41.8370 C   0  0  1  0  0  0  0  0  0  0  0  0
   37.3500   26.0570   43.8680 H   0  0  0  0  0  0  0  0  0  0  0  0
   38.8690   27.7370   44.5780 H   0  0  0  0  0  0  0  0  0  0  0  0
   39.1900   28.2650   42.8350 H   0  0  0  0  0  0  0  0  0  0  0  0
   40.9300   26.6110   43.2640 H   0  0  0  0  0  0  0  0  0  0  0  0
   39.7460   25.5660   44.1170 H   0  0  0  0  0  0  0  0  0  0  0  0
   38.1020   26.7150   40.9600 H   0  0  0  0  0  0  0  0  0  0  0  0
   37.4380   24.7880   41.5410 C   0  0  1  0  0  0  0  0  0  0  0  0
   36.6300   24.8720   40.2640 C   0  0  0  0  0  0  0  0  0  0  0  0
   36.8960   23.5390   39.6170 C   0  0  0  0  0  0  0  0  0  0  0  0
   37.5070   22.7450   40.5920 O   0  0  0  0  0  0  0  0  0  0  0  0
   38.4010   23.6570   41.1610 C   0  0  0  0  0  0  0  0  0  0  0  0
   36.8390   24.4110   42.3720 H   0  0  0  0  0  0  0  0  0  0  0  0
   36.9830   25.7200   39.6430 H   0  0  0  0  0  0  0  0  0  0  0  0
   35.5600   24.9580   40.5550 H   0  0  0  0  0  0  0  0  0  0  0  0
   37.5830   23.6220   38.7440 H   0  0  0  0  0  0  0  0  0  0  0  0
   35.9470   23.0490   39.3220 H   0  0  0  0  0  0  0  0  0  0  0  0
   38.9510   23.2500   42.0080 H   0  0  0  0  0  0  0  0  0  0  0  0
   39.0500   23.9600   40.2880 H   0  0  0  0  0  0  0  0  0  0  0  0
   36.5300   27.6680   42.8070 C   0  0  0  0  0  0  0  0  0  0  0  0
   35.6030   27.0700   42.6120 H   0  0  0  0  0  0  0  0  0  0  0  0
   36.3810   28.2950   43.6960 H   0  0  0  0  0  0  0  0  0  0  0  0
   36.7690   29.8330   41.6950 C   0  0  0  0  0  3  0  0  0  0  0  0
   36.7260   28.5280   41.6160 C   0  0  0  0  0  3  0  0  0  0  0  0
   37.3650   32.6890   39.4840 C   0  0  0  0  0  0  0  0  0  0  0  0
   37.3190   32.0890   38.2010 C   0  0  0  0  0  0  0  0  0  0  0  0
   37.0840   30.7180   38.1540 C   0  0  0  0  0  0  0  0  0  0  0  0
   36.9100   30.0200   39.3140 N   0  0  0  0  0  0  0  0  0  0  0  0
   36.9630   30.6400   40.5090 C   0  0  0  0  0  0  0  0  0  0  0  0
   37.1850   31.9460   40.6050 N   0  0  0  0  0  0  0  0  0  0  0  0
   37.5470   33.7430   39.5180 H   0  0  0  0  0  0  0  0  0  0  0  0
   37.4510   32.6060   37.2840 H   0  0  0  0  0  0  0  0  0  0  0  0
   36.9890   29.7790   36.6280 S   0  0  0  0  0  0  0  0  0  0  0  0
   38.2840   29.4780   36.1650 H   0  0  0  0  0  0  0  0  0  0  0  0
  1  2  1  0  0  0  0
  1  6  1  1  0  0  0
  2  7  1  0  0  0  0
  3  2  1  0  0  0  0
  3 10  1  0  0  0  0
  4  3  1  0  0  0  0
  5 11  1  6  0  0  0
  5  4  1  0  0  0  0
  5  1  1  0  0  0  0
  8  2  1  0  0  0  0
  9  3  1  0  0  0  0
 12  5  1  0  0  0  0
 12 17  1  1  0  0  0
 13 19  1  0  0  0  0
 13 12  1  0  0  0  0
 14 13  1  0  0  0  0
 14 15  1  0  0  0  0
 15 16  1  0  0  0  0
 16 12  1  0  0  0  0
 16 22  1  0  0  0  0
 18 13  1  0  0  0  0
 20 14  1  0  0  0  0
 21 14  1  0  0  0  0
 23 16  1  0  0  0  0
 24  1  1  0  0  0  0
 24 26  1  0  0  0  0
 25 24  1  0  0  0  0
 28 27  2  0  0  0  0
 28 24  1  0  0  0  0
 29 35  1  0  0  0  0
 29 34  1  0  0  0  0
 30 29  2  0  0  0  0
 31 30  1  0  0  0  0
 31 32  2  0  0  0  0
 32 33  1  0  0  0  0
 33 34  2  0  0  0  0
 33 27  1  0  0  0  0
 36 30  1  0  0  0  0
 37 31  1  0  0  0  0
 38 37  1  0  0  0  0
M  END
>  <minimizedAffinity>
-5.10285616

$$$$

 OpenBabel03242513253D

 38 40  0  0  1  0  0  0  0  0999 V2000
   37.2690   27.3400   42.6960 C   0  0  2  0  0  0  0  0  0  0  0  0
   38.4090   28.0700   43.3900 C   0  0  0  0  0  0  0  0  0  0  0  0
   39.2890   26.8560   43.6630 C   0  0  0  0  0  0  0  0  0  0  0  0
   39.2070   26.1030   42.5090 O   0  0  0  0  0  0  0  0  0  0  0  0
   38.0580   26.4180   41.8400 C   0  0  1  0  0  0  0  0  0  0  0  0
   36.6850   26.8710   43.4870 H   0  0  0  0  0  0  0  0  0  0  0  0
   38.0980   28.5920   44.3090 H   0  0  0  0  0  0  0  0  0  0  0  0
   38.9630   28.7390   42.6810 H   0  0  0  0  0  0  0  0  0  0  0  0
   40.3240   27.1310   43.9120 H   0  0  0  0  0  0  0  0  0  0  0  0
   38.8420   26.3360   44.5380 H   0  0  0  0  0  0  0  0  0  0  0  0
   38.3110   26.8870   40.8770 H   0  0  0  0  0  0  0  0  0  0  0  0
   37.3110   25.1510   41.5690 C   0  0  1  0  0  0  0  0  0  0  0  0
   36.7600   25.0930   40.1600 C   0  0  0  0  0  0  0  0  0  0  0  0
   37.0580   23.6770   39.7470 C   0  0  0  0  0  0  0  0  0  0  0  0
   37.4280   22.9980   40.9120 O   0  0  0  0  0  0  0  0  0  0  0  0
   38.2550   23.9450   41.5240 C   0  0  0  0  0  0  0  0  0  0  0  0
   36.5460   24.9120   42.3100 H   0  0  0  0  0  0  0  0  0  0  0  0
   37.2730   25.8360   39.5180 H   0  0  0  0  0  0  0  0  0  0  0  0
   35.6610   25.2570   40.2280 H   0  0  0  0  0  0  0  0  0  0  0  0
   37.8980   23.6160   39.0190 H   0  0  0  0  0  0  0  0  0  0  0  0
   36.1510   23.1870   39.3390 H   0  0  0  0  0  0  0  0  0  0  0  0
   38.6130   23.6350   42.5050 H   0  0  0  0  0  0  0  0  0  0  0  0
   39.0720   24.1040   40.7600 H   0  0  0  0  0  0  0  0  0  0  0  0
   36.3790   28.2660   41.9530 C   0  0  0  0  0  0  0  0  0  0  0  0
   36.1970   27.8310   40.9360 H   0  0  0  0  0  0  0  0  0  0  0  0
   35.4230   28.3580   42.4870 H   0  0  0  0  0  0  0  0  0  0  0  0
   37.3100   30.0350   40.5440 C   0  0  0  0  0  3  0  0  0  0  0  0
   36.9590   29.6100   41.7310 C   0  0  0  0  0  3  0  0  0  0  0  0
   37.6530   33.6100   39.8340 C   0  0  0  0  0  0  0  0  0  0  0  0
   39.0350   33.8280   40.0590 C   0  0  0  0  0  0  0  0  0  0  0  0
   39.7920   32.7280   40.4490 C   0  0  0  0  0  0  0  0  0  0  0  0
   39.1930   31.5100   40.5960 N   0  0  0  0  0  0  0  0  0  0  0  0
   37.8740   31.3560   40.3680 C   0  0  0  0  0  0  0  0  0  0  0  0
   37.1100   32.3770   39.9950 N   0  0  0  0  0  0  0  0  0  0  0  0
   37.0720   34.4570   39.5340 H   0  0  0  0  0  0  0  0  0  0  0  0
   39.5270   34.7630   39.9540 H   0  0  0  0  0  0  0  0  0  0  0  0
   41.5540   32.8030   40.7800 S   0  0  0  0  0  0  0  0  0  0  0  0
   41.7810   33.3010   42.0770 H   0  0  0  0  0  0  0  0  0  0  0  0
  1  2  1  0  0  0  0
  1  6  1  1  0  0  0
  2  3  1  0  0  0  0
  2  7  1  0  0  0  0
  3  9  1  0  0  0  0
  3 10  1  0  0  0  0
  4  3  1  0  0  0  0
  5 11  1  6  0  0  0
  5  4  1  0  0  0  0
  5  1  1  0  0  0  0
  8  2  1  0  0  0  0
 12  5  1  0  0  0  0
 12 17  1  1  0  0  0
 13 19  1  0  0  0  0
 13 12  1  0  0  0  0
 14 13  1  0  0  0  0
 14 15  1  0  0  0  0
 15 16  1  0  0  0  0
 16 12  1  0  0  0  0
 16 22  1  0  0  0  0
 18 13  1  0  0  0  0
 20 14  1  0  0  0  0
 21 14  1  0  0  0  0
 23 16  1  0  0  0  0
 24 26  1  0  0  0  0
 24  1  1  0  0  0  0
 25 24  1  0  0  0  0
 27 28  2  0  0  0  0
 28 24  1  0  0  0  0
 29 34  2  0  0  0  0
 29 30  1  0  0  0  0
 30 31  2  0  0  0  0
 31 32  1  0  0  0  0
 31 37  1  0  0  0  0
 33 27  1  0  0  0  0
 33 32  2  0  0  0  0
 34 33  1  0  0  0  0
 35 29  1  0  0  0  0
 36 30  1  0  0  0  0
 37 38  1  0  0  0  0
M  END
>  <minimizedAffinity>
-5.0771513

$$$$

 OpenBabel03242513253D

 38 40  0  0  1  0  0  0  0  0999 V2000
   38.9700   26.9510   43.5190 C   0  0  2  0  0  0  0  0  0  0  0  0
   40.4140   27.4160   43.6340 C   0  0  0  0  0  0  0  0  0  0  0  0
   41.0770   26.1410   43.1240 C   0  0  0  0  0  0  0  0  0  0  0  0
   40.2900   25.7430   42.0620 O   0  0  0  0  0  0  0  0  0  0  0  0
   39.0380   26.2750   42.1980 C   0  0  1  0  0  0  0  0  0  0  0  0
   38.7920   26.3030   44.3760 H   0  0  0  0  0  0  0  0  0  0  0  0
   40.7100   27.6720   44.6630 H   0  0  0  0  0  0  0  0  0  0  0  0
   40.6440   28.2340   42.9030 H   0  0  0  0  0  0  0  0  0  0  0  0
   42.1250   26.2970   42.8340 H   0  0  0  0  0  0  0  0  0  0  0  0
   41.0470   25.4160   43.9660 H   0  0  0  0  0  0  0  0  0  0  0  0
   38.8500   26.9840   41.3780 H   0  0  0  0  0  0  0  0  0  0  0  0
   38.0430   25.1630   42.1020 C   0  0  1  0  0  0  0  0  0  0  0  0
   36.9400   25.4560   41.1090 C   0  0  0  0  0  0  0  0  0  0  0  0
   36.7850   24.1420   40.3900 C   0  0  0  0  0  0  0  0  0  0  0  0
   37.4970   23.2000   41.1380 O   0  0  0  0  0  0  0  0  0  0  0  0
   38.6550   23.9210   41.4460 C   0  0  0  0  0  0  0  0  0  0  0  0
   37.6420   24.8330   43.0630 H   0  0  0  0  0  0  0  0  0  0  0  0
   37.2460   26.2750   40.4270 H   0  0  0  0  0  0  0  0  0  0  0  0
   36.0220   25.6920   41.6920 H   0  0  0  0  0  0  0  0  0  0  0  0
   37.2070   24.1710   39.3600 H   0  0  0  0  0  0  0  0  0  0  0  0
   35.7220   23.8290   40.3680 H   0  0  0  0  0  0  0  0  0  0  0  0
   39.3400   23.3780   42.0960 H   0  0  0  0  0  0  0  0  0  0  0  0
   39.0790   24.1720   40.4300 H   0  0  0  0  0  0  0  0  0  0  0  0
   38.0090   28.0810   43.5870 C   0  0  0  0  0  0  0  0  0  0  0  0
   36.9730   27.6550   43.5800 H   0  0  0  0  0  0  0  0  0  0  0  0
   38.1690   28.6380   44.5200 H   0  0  0  0  0  0  0  0  0  0  0  0
   37.0190   29.4380   41.8100 C   0  0  0  0  0  3  0  0  0  0  0  0
   38.0860   29.0060   42.4330 C   0  0  0  0  0  3  0  0  0  0  0  0
   36.8010   30.8540   38.4410 C   0  0  0  0  0  0  0  0  0  0  0  0
   37.3980   32.1280   38.6130 C   0  0  0  0  0  0  0  0  0  0  0  0
   37.8510   32.4450   39.8900 C   0  0  0  0  0  0  0  0  0  0  0  0
   37.7090   31.5430   40.9030 N   0  0  0  0  0  0  0  0  0  0  0  0
   37.1350   30.3430   40.6860 C   0  0  0  0  0  0  0  0  0  0  0  0
   36.6860   29.9950   39.4850 N   0  0  0  0  0  0  0  0  0  0  0  0
   36.4530   30.6130   37.4590 H   0  0  0  0  0  0  0  0  0  0  0  0
   37.5210   32.8500   37.8450 H   0  0  0  0  0  0  0  0  0  0  0  0
   38.6330   34.0060   40.3060 S   0  0  0  0  0  0  0  0  0  0  0  0
   37.6550   34.9970   40.5080 H   0  0  0  0  0  0  0  0  0  0  0  0
  1 24  1  0  0  0  0
  1  2  1  0  0  0  0
  1  6  1  1  0  0  0
  2  7  1  0  0  0  0
  3  2  1  0  0  0  0
  3 10  1  0  0  0  0
  4  5  1  0  0  0  0
  4  3  1  0  0  0  0
  5 11  1  6  0  0  0
  5  1  1  0  0  0  0
  8  2  1  0  0  0  0
  9  3  1  0  0  0  0
 12  5  1  0  0  0  0
 12 17  1  1  0  0  0
 13 19  1  0  0  0  0
 13 12  1  0  0  0  0
 14 13  1  0  0  0  0
 14 15  1  0  0  0  0
 15 16  1  0  0  0  0
 16 22  1  0  0  0  0
 16 12  1  0  0  0  0
 18 13  1  0  0  0  0
 20 14  1  0  0  0  0
 21 14  1  0  0  0  0
 23 16  1  0  0  0  0
 24 26  1  0  0  0  0
 25 24  1  0  0  0  0
 27 28  2  0  0  0  0
 28 24  1  0  0  0  0
 29 30  2  0  0  0  0
 29 34  1  0  0  0  0
 30 31  1  0  0  0  0
 31 37  1  0  0  0  0
 31 32  2  0  0  0  0
 33 32  1  0  0  0  0
 33 27  1  0  0  0  0
 34 33  2  0  0  0  0
 35 29  1  0  0  0  0
 36 30  1  0  0  0  0
 37 38  1  0  0  0  0
M  END
>  <minimizedAffinity>
-5.00740337

$$$$

 OpenBabel03242513253D

 38 40  0  0  1  0  0  0  0  0999 V2000
   39.3060   31.5670   40.9800 C   0  0  2  0  0  0  0  0  0  0  0  0
   40.3820   32.6230   40.7790 C   0  0  0  0  0  0  0  0  0  0  0  0
   39.8620   33.1930   39.4650 C   0  0  0  0  0  0  0  0  0  0  0  0
   38.4930   33.2530   39.6320 O   0  0  0  0  0  0  0  0  0  0  0  0
   38.1120   32.3620   40.5960 C   0  0  1  0  0  0  0  0  0  0  0  0
   39.5630   30.7430   40.3140 H   0  0  0  0  0  0  0  0  0  0  0  0
   41.3970   32.2020   40.6940 H   0  0  0  0  0  0  0  0  0  0  0  0
   40.3150   33.4330   41.5510 H   0  0  0  0  0  0  0  0  0  0  0  0
   40.2980   34.1730   39.2270 H   0  0  0  0  0  0  0  0  0  0  0  0
   40.1590   32.4720   38.6720 H   0  0  0  0  0  0  0  0  0  0  0  0
   37.7030   32.9080   41.4590 H   0  0  0  0  0  0  0  0  0  0  0  0
   37.0350   31.4920   40.0300 C   0  0  1  0  0  0  0  0  0  0  0  0
   37.5850   30.2520   39.3590 C   0  0  0  0  0  0  0  0  0  0  0  0
   36.6430   29.1760   39.8290 C   0  0  0  0  0  0  0  0  0  0  0  0
   35.5560   29.8350   40.4120 O   0  0  0  0  0  0  0  0  0  0  0  0
   36.2060   30.8360   41.1400 C   0  0  0  0  0  0  0  0  0  0  0  0
   36.3240   32.0150   39.3880 H   0  0  0  0  0  0  0  0  0  0  0  0
   38.6280   30.0700   39.6860 H   0  0  0  0  0  0  0  0  0  0  0  0
   37.4900   30.4010   38.2600 H   0  0  0  0  0  0  0  0  0  0  0  0
   37.1060   28.5120   40.5930 H   0  0  0  0  0  0  0  0  0  0  0  0
   36.2640   28.5830   38.9730 H   0  0  0  0  0  0  0  0  0  0  0  0
   35.5210   31.5220   41.6360 H   0  0  0  0  0  0  0  0  0  0  0  0
   36.8690   30.2520   41.8430 H   0  0  0  0  0  0  0  0  0  0  0  0
   39.2820   31.0460   42.3690 C   0  0  0  0  0  0  0  0  0  0  0  0
   40.0640   31.5910   42.9570 H   0  0  0  0  0  0  0  0  0  0  0  0
   38.2950   31.2340   42.8120 H   0  0  0  0  0  0  0  0  0  0  0  0
   38.7210   28.7070   42.8130 C   0  0  0  0  0  3  0  0  0  0  0  0
   39.6110   29.6060   42.4770 C   0  0  0  0  0  3  0  0  0  0  0  0
   40.4750   25.6120   43.6770 C   0  0  0  0  0  0  0  0  0  0  0  0
   39.6850   24.6300   43.0290 C   0  0  0  0  0  0  0  0  0  0  0  0
   38.5760   25.0800   42.3200 C   0  0  0  0  0  0  0  0  0  0  0  0
   38.2960   26.4150   42.2740 N   0  0  0  0  0  0  0  0  0  0  0  0
   39.0810   27.3080   42.9070 C   0  0  0  0  0  0  0  0  0  0  0  0
   40.1500   26.9270   43.5980 N   0  0  0  0  0  0  0  0  0  0  0  0
   41.3270   25.2630   44.2230 H   0  0  0  0  0  0  0  0  0  0  0  0
   39.8770   23.5860   43.0480 H   0  0  0  0  0  0  0  0  0  0  0  0
   37.4560   23.9930   41.4340 S   0  0  0  0  0  0  0  0  0  0  0  0
   36.5340   23.4170   42.3280 H   0  0  0  0  0  0  0  0  0  0  0  0
  1  6  1  6  0  0  0
  1 24  1  0  0  0  0
  2  1  1  0  0  0  0
  2  8  1  0  0  0  0
  3  4  1  0  0  0  0
  3  2  1  0  0  0  0
  4  5  1  0  0  0  0
  5  1  1  0  0  0  0
  5 11  1  1  0  0  0
  7  2  1  0  0  0  0
  9  3  1  0  0  0  0
 10  3  1  0  0  0  0
 12 17  1  6  0  0  0
 12  5  1  0  0  0  0
 12 16  1  0  0  0  0
 13 18  1  0  0  0  0
 13 14  1  0  0  0  0
 13 12  1  0  0  0  0
 14 15  1  0  0  0  0
 14 20  1  0  0  0  0
 15 16  1  0  0  0  0
 16 22  1  0  0  0  0
 16 23  1  0  0  0  0
 19 13  1  0  0  0  0
 21 14  1  0  0  0  0
 24 28  1  0  0  0  0
 24 26  1  0  0  0  0
 24 25  1  0  0  0  0
 27 33  1  0  0  0  0
 28 27  2  0  0  0  0
 29 35  1  0  0  0  0
 30 36  1  0  0  0  0
 30 29  2  0  0  0  0
 31 30  1  0  0  0  0
 32 31  2  0  0  0  0
 32 33  1  0  0  0  0
 33 34  2  0  0  0  0
 34 29  1  0  0  0  0
 37 31  1  0  0  0  0
 37 38  1  0  0  0  0
M  END
>  <minimizedAffinity>
-4.90230274

$$$$

 OpenBabel03242513253D

 38 40  0  0  1  0  0  0  0  0999 V2000
   37.7330   25.8830   41.9220 C   0  0  2  0  0  0  0  0  0  0  0  0
   36.9180   24.6100   41.7520 C   0  0  0  0  0  0  0  0  0  0  0  0
   38.0770   23.6700   41.4390 C   0  0  0  0  0  0  0  0  0  0  0  0
   39.0750   24.0480   42.3150 O   0  0  0  0  0  0  0  0  0  0  0  0
   38.8690   25.3410   42.7100 C   0  0  1  0  0  0  0  0  0  0  0  0
   37.9730   26.2250   40.9150 H   0  0  0  0  0  0  0  0  0  0  0  0
   36.1800   24.6690   40.9370 H   0  0  0  0  0  0  0  0  0  0  0  0
   36.4640   24.2780   42.7220 H   0  0  0  0  0  0  0  0  0  0  0  0
   37.8030   22.6110   41.5480 H   0  0  0  0  0  0  0  0  0  0  0  0
   38.3530   23.8560   40.3790 H   0  0  0  0  0  0  0  0  0  0  0  0
   38.6530   25.3650   43.7880 H   0  0  0  0  0  0  0  0  0  0  0  0
   40.1250   26.1130   42.4600 C   0  0  1  0  0  0  0  0  0  0  0  0
   40.5850   26.8820   43.6790 C   0  0  0  0  0  0  0  0  0  0  0  0
   42.0710   26.6450   43.6790 C   0  0  0  0  0  0  0  0  0  0  0  0
   42.3790   26.0890   42.4340 O   0  0  0  0  0  0  0  0  0  0  0  0
   41.3270   25.1800   42.2770 C   0  0  0  0  0  0  0  0  0  0  0  0
   40.0950   26.7480   41.5720 H   0  0  0  0  0  0  0  0  0  0  0  0
   40.0950   26.4840   44.5900 H   0  0  0  0  0  0  0  0  0  0  0  0
   40.3610   27.9570   43.4970 H   0  0  0  0  0  0  0  0  0  0  0  0
   42.3860   25.9320   44.4740 H   0  0  0  0  0  0  0  0  0  0  0  0
   42.6220   27.6030   43.7710 H   0  0  0  0  0  0  0  0  0  0  0  0
   41.3400   24.6680   41.3170 H   0  0  0  0  0  0  0  0  0  0  0  0
   41.4440   24.4980   43.1690 H   0  0  0  0  0  0  0  0  0  0  0  0
   36.9650   26.9560   42.6020 C   0  0  0  0  0  0  0  0  0  0  0  0
   35.8850   26.6570   42.6100 H   0  0  0  0  0  0  0  0  0  0  0  0
   37.3230   27.0610   43.6350 H   0  0  0  0  0  0  0  0  0  0  0  0
   37.9680   29.1420   42.1600 C   0  0  0  0  0  3  0  0  0  0  0  0
   37.0260   28.2670   41.9150 C   0  0  0  0  0  3  0  0  0  0  0  0
   36.9260   32.1190   40.3010 C   0  0  0  0  0  0  0  0  0  0  0  0
   38.1440   32.8320   40.1720 C   0  0  0  0  0  0  0  0  0  0  0  0
   39.2760   32.2530   40.7340 C   0  0  0  0  0  0  0  0  0  0  0  0
   39.1780   31.0510   41.3730 N   0  0  0  0  0  0  0  0  0  0  0  0
   37.9940   30.4130   41.4680 C   0  0  0  0  0  0  0  0  0  0  0  0
   36.8850   30.9260   40.9470 N   0  0  0  0  0  0  0  0  0  0  0  0
   36.0560   32.5670   39.8680 H   0  0  0  0  0  0  0  0  0  0  0  0
   38.2510   33.7680   39.6820 H   0  0  0  0  0  0  0  0  0  0  0  0
   40.9070   33.0000   40.6750 S   0  0  0  0  0  0  0  0  0  0  0  0
   41.0260   33.9810   41.6760 H   0  0  0  0  0  0  0  0  0  0  0  0
  1  6  1  6  0  0  0
  1 24  1  0  0  0  0
  1  5  1  0  0  0  0
  2  1  1  0  0  0  0
  2  8  1  0  0  0  0
  3  9  1  0  0  0  0
  3  2  1  0  0  0  0
  3  4  1  0  0  0  0
  4  5  1  0  0  0  0
  5 11  1  1  0  0  0
  7  2  1  0  0  0  0
 10  3  1  0  0  0  0
 12 17  1  6  0  0  0
 12  5  1  0  0  0  0
 12 13  1  0  0  0  0
 13 18  1  0  0  0  0
 14 13  1  0  0  0  0
 14 21  1  0  0  0  0
 14 20  1  0  0  0  0
 15 14  1  0  0  0  0
 16 15  1  0  0  0  0
 16 12  1  0  0  0  0
 16 23  1  0  0  0  0
 19 13  1  0  0  0  0
 22 16  1  0  0  0  0
 24 25  1  0  0  0  0
 24 26  1  0  0  0  0
 28 27  2  0  0  0  0
 28 24  1  0  0  0  0
 29 34  1  0  0  0  0
 30 29  2  0  0  0  0
 30 31  1  0  0  0  0
 31 32  2  0  0  0  0
 32 33  1  0  0  0  0
 33 27  1  0  0  0  0
 34 33  2  0  0  0  0
 35 29  1  0  0  0  0
 36 30  1  0  0  0  0
 37 31  1  0  0  0  0
 37 38  1  0  0  0  0
M  END
>  <minimizedAffinity>
-4.84011126

$$$$

 OpenBabel03242513253D

 38 40  0  0  1  0  0  0  0  0999 V2000
   37.6410   27.4570   41.6170 C   0  0  2  0  0  0  0  0  0  0  0  0
   36.9380   26.6660   40.5240 C   0  0  0  0  0  0  0  0  0  0  0  0
   37.8930   25.4790   40.4890 C   0  0  0  0  0  0  0  0  0  0  0  0
   38.1740   25.2210   41.8160 O   0  0  0  0  0  0  0  0  0  0  0  0
   37.9520   26.3490   42.5560 C   0  0  1  0  0  0  0  0  0  0  0  0
   38.4980   27.9330   41.1420 H   0  0  0  0  0  0  0  0  0  0  0  0
   36.8830   27.2020   39.5640 H   0  0  0  0  0  0  0  0  0  0  0  0
   35.9390   26.2880   40.8650 H   0  0  0  0  0  0  0  0  0  0  0  0
   37.4650   24.6070   39.9740 H   0  0  0  0  0  0  0  0  0  0  0  0
   38.7910   25.8170   39.9260 H   0  0  0  0  0  0  0  0  0  0  0  0
   37.1190   26.1730   43.2530 H   0  0  0  0  0  0  0  0  0  0  0  0
   39.1850   26.6380   43.3520 C   0  0  1  0  0  0  0  0  0  0  0  0
   39.9690   25.3850   43.6800 C   0  0  0  0  0  0  0  0  0  0  0  0
   41.3910   25.8130   43.4370 C   0  0  0  0  0  0  0  0  0  0  0  0
   41.3660   27.2050   43.3090 O   0  0  0  0  0  0  0  0  0  0  0  0
   40.2300   27.3810   42.5130 C   0  0  0  0  0  0  0  0  0  0  0  0
   39.0150   27.2490   44.2390 H   0  0  0  0  0  0  0  0  0  0  0  0
   39.6590   24.5540   43.0140 H   0  0  0  0  0  0  0  0  0  0  0  0
   39.8060   25.1660   44.7580 H   0  0  0  0  0  0  0  0  0  0  0  0
   41.8100   25.3780   42.5010 H   0  0  0  0  0  0  0  0  0  0  0  0
   42.0310   25.5610   44.3060 H   0  0  0  0  0  0  0  0  0  0  0  0
   39.9840   28.4280   42.3390 H   0  0  0  0  0  0  0  0  0  0  0  0
   40.4800   26.8010   41.5770 H   0  0  0  0  0  0  0  0  0  0  0  0
   36.7770   28.5240   42.1830 C   0  0  0  0  0  0  0  0  0  0  0  0
   35.7150   28.2870   41.9180 H   0  0  0  0  0  0  0  0  0  0  0  0
   36.8870   28.5390   43.2760 H   0  0  0  0  0  0  0  0  0  0  0  0
   38.2660   30.3330   41.4790 C   0  0  0  0  0  3  0  0  0  0  0  0
   37.0500   29.8720   41.6340 C   0  0  0  0  0  3  0  0  0  0  0  0
   37.7230   33.5900   39.8990 C   0  0  0  0  0  0  0  0  0  0  0  0
   39.0190   34.1610   39.9390 C   0  0  0  0  0  0  0  0  0  0  0  0
   40.0290   33.3940   40.5110 C   0  0  0  0  0  0  0  0  0  0  0  0
   39.7430   32.1530   41.0010 N   0  0  0  0  0  0  0  0  0  0  0  0
   38.4920   31.6560   40.9390 C   0  0  0  0  0  0  0  0  0  0  0  0
   37.4950   32.3500   40.4020 N   0  0  0  0  0  0  0  0  0  0  0  0
   36.9470   34.1820   39.4590 H   0  0  0  0  0  0  0  0  0  0  0  0
   39.2710   35.1230   39.5660 H   0  0  0  0  0  0  0  0  0  0  0  0
   41.7320   33.9420   40.6530 S   0  0  0  0  0  0  0  0  0  0  0  0
   41.8750   34.7930   41.7640 H   0  0  0  0  0  0  0  0  0  0  0  0
  1  6  1  6  0  0  0
  1 24  1  0  0  0  0
  1  5  1  0  0  0  0
  2  8  1  0  0  0  0
  2  1  1  0  0  0  0
  3  2  1  0  0  0  0
  3  4  1  0  0  0  0
  4  5  1  0  0  0  0
  5 11  1  1  0  0  0
  5 12  1  0  0  0  0
  7  2  1  0  0  0  0
  9  3  1  0  0  0  0
 10  3  1  0  0  0  0
 12 13  1  0  0  0  0
 12 17  1  1  0  0  0
 13 19  1  0  0  0  0
 14 13  1  0  0  0  0
 14 21  1  0  0  0  0
 15 14  1  0  0  0  0
 16 15  1  0  0  0  0
 16 12  1  0  0  0  0
 18 13  1  0  0  0  0
 20 14  1  0  0  0  0
 22 16  1  0  0  0  0
 23 16  1  0  0  0  0
 24 26  1  0  0  0  0
 25 24  1  0  0  0  0
 27 28  2  0  0  0  0
 28 24  1  0  0  0  0
 29 30  2  0  0  0  0
 29 34  1  0  0  0  0
 30 31  1  0  0  0  0
 31 37  1  0  0  0  0
 31 32  2  0  0  0  0
 33 32  1  0  0  0  0
 33 27  1  0  0  0  0
 34 33  2  0  0  0  0
 35 29  1  0  0  0  0
 36 30  1  0  0  0  0
 37 38  1  0  0  0  0
M  END
>  <minimizedAffinity>
-4.79911852

$$$$

 OpenBabel03242513253D

 38 40  0  0  1  0  0  0  0  0999 V2000
   36.6170   28.8750   41.0450 C   0  0  2  0  0  0  0  0  0  0  0  0
   36.5440   27.9180   42.2250 C   0  0  0  0  0  0  0  0  0  0  0  0
   37.9090   28.2350   42.8250 C   0  0  0  0  0  0  0  0  0  0  0  0
   38.0220   29.6070   42.7210 O   0  0  0  0  0  0  0  0  0  0  0  0
   37.1990   30.0590   41.7280 C   0  0  1  0  0  0  0  0  0  0  0  0
   37.2540   28.3930   40.3030 H   0  0  0  0  0  0  0  0  0  0  0  0
   36.4410   26.8630   41.9260 H   0  0  0  0  0  0  0  0  0  0  0  0
   35.7650   28.2350   42.9660 H   0  0  0  0  0  0  0  0  0  0  0  0
   38.0070   27.8840   43.8620 H   0  0  0  0  0  0  0  0  0  0  0  0
   38.6570   27.7020   42.1990 H   0  0  0  0  0  0  0  0  0  0  0  0
   36.4130   30.6930   42.1630 H   0  0  0  0  0  0  0  0  0  0  0  0
   38.0120   30.8880   40.7860 C   0  0  1  0  0  0  0  0  0  0  0  0
   37.3100   32.1680   40.3870 C   0  0  0  0  0  0  0  0  0  0  0  0
   38.4170   33.1860   40.4510 C   0  0  0  0  0  0  0  0  0  0  0  0
   39.6080   32.4620   40.5580 O   0  0  0  0  0  0  0  0  0  0  0  0
   39.2430   31.4780   41.4810 C   0  0  0  0  0  0  0  0  0  0  0  0
   38.3840   30.3460   39.9150 H   0  0  0  0  0  0  0  0  0  0  0  0
   36.4900   32.3920   41.0980 H   0  0  0  0  0  0  0  0  0  0  0  0
   36.9580   32.0390   39.3390 H   0  0  0  0  0  0  0  0  0  0  0  0
   38.3260   33.8540   41.3370 H   0  0  0  0  0  0  0  0  0  0  0  0
   38.4600   33.7790   39.5150 H   0  0  0  0  0  0  0  0  0  0  0  0
   40.0300   30.7480   41.6670 H   0  0  0  0  0  0  0  0  0  0  0  0
   38.9420   32.0770   42.3900 H   0  0  0  0  0  0  0  0  0  0  0  0
   35.2870   29.1080   40.4280 C   0  0  0  0  0  0  0  0  0  0  0  0
   34.5440   28.4470   40.9450 H   0  0  0  0  0  0  0  0  0  0  0  0
   35.0000   30.1590   40.5680 H   0  0  0  0  0  0  0  0  0  0  0  0
   36.0310   29.2840   38.1050 C   0  0  0  0  0  3  0  0  0  0  0  0
   35.2220   28.7600   38.9900 C   0  0  0  0  0  3  0  0  0  0  0  0
   35.5760   27.3400   35.0360 C   0  0  0  0  0  0  0  0  0  0  0  0
   35.7780   28.3170   34.0300 C   0  0  0  0  0  0  0  0  0  0  0  0
   36.0630   29.6100   34.4560 C   0  0  0  0  0  0  0  0  0  0  0  0
   36.1360   29.8850   35.7910 N   0  0  0  0  0  0  0  0  0  0  0  0
   35.9360   28.9170   36.7070 C   0  0  0  0  0  0  0  0  0  0  0  0
   35.6610   27.6680   36.3500 N   0  0  0  0  0  0  0  0  0  0  0  0
   35.3570   26.3450   34.7070 H   0  0  0  0  0  0  0  0  0  0  0  0
   35.7260   28.1330   32.9860 H   0  0  0  0  0  0  0  0  0  0  0  0
   36.3490   30.9830   33.3360 S   0  0  0  0  0  0  0  0  0  0  0  0
   35.1220   31.5020   32.8830 H   0  0  0  0  0  0  0  0  0  0  0  0
  1  6  1  6  0  0  0
  1  5  1  0  0  0  0
  1  2  1  0  0  0  0
  2  3  1  0  0  0  0
  2  8  1  0  0  0  0
  3  9  1  0  0  0  0
  4  3  1  0  0  0  0
  5 11  1  1  0  0  0
  5  4  1  0  0  0  0
  7  2  1  0  0  0  0
 10  3  1  0  0  0  0
 12 17  1  6  0  0  0
 12 16  1  0  0  0  0
 12  5  1  0  0  0  0
 13 14  1  0  0  0  0
 13 12  1  0  0  0  0
 13 18  1  0  0  0  0
 14 15  1  0  0  0  0
 14 20  1  0  0  0  0
 15 16  1  0  0  0  0
 16 22  1  0  0  0  0
 16 23  1  0  0  0  0
 19 13  1  0  0  0  0
 21 14  1  0  0  0  0
 24 26  1  0  0  0  0
 24 25  1  0  0  0  0
 24  1  1  0  0  0  0
 27 28  2  0  0  0  0
 28 24  1  0  0  0  0
 29 34  1  0  0  0  0
 30 31  1  0  0  0  0
 30 29  2  0  0  0  0
 31 32  2  0  0  0  0
 32 33  1  0  0  0  0
 33 27  1  0  0  0  0
 34 33  2  0  0  0  0
 35 29  1  0  0  0  0
 36 30  1  0  0  0  0
 37 31  1  0  0  0  0
 38 37  1  0  0  0  0
M  END
>  <minimizedAffinity>
-4.78877211

$$$$

 OpenBabel03242513253D

 38 40  0  0  1  0  0  0  0  0999 V2000
   36.6490   28.7600   41.2490 C   0  0  2  0  0  0  0  0  0  0  0  0
   36.5570   27.8530   42.4670 C   0  0  0  0  0  0  0  0  0  0  0  0
   37.9120   28.1950   43.0750 C   0  0  0  0  0  0  0  0  0  0  0  0
   38.0280   29.5610   42.9160 O   0  0  0  0  0  0  0  0  0  0  0  0
   37.2200   29.9710   41.8910 C   0  0  1  0  0  0  0  0  0  0  0  0
   37.2970   28.2470   40.5390 H   0  0  0  0  0  0  0  0  0  0  0  0
   36.4570   26.7860   42.2110 H   0  0  0  0  0  0  0  0  0  0  0  0
   35.7660   28.2000   43.1820 H   0  0  0  0  0  0  0  0  0  0  0  0
   37.9930   27.8870   44.1270 H   0  0  0  0  0  0  0  0  0  0  0  0
   38.6700   27.6360   42.4840 H   0  0  0  0  0  0  0  0  0  0  0  0
   36.4280   30.6230   42.2870 H   0  0  0  0  0  0  0  0  0  0  0  0
   38.0490   30.7600   40.9290 C   0  0  1  0  0  0  0  0  0  0  0  0
   37.3660   32.0360   40.4860 C   0  0  0  0  0  0  0  0  0  0  0  0
   38.4860   33.0410   40.5250 C   0  0  0  0  0  0  0  0  0  0  0  0
   39.6670   32.3060   40.6610 O   0  0  0  0  0  0  0  0  0  0  0  0
   39.2850   31.3550   41.6120 C   0  0  0  0  0  0  0  0  0  0  0  0
   38.4190   30.1860   40.0770 H   0  0  0  0  0  0  0  0  0  0  0  0
   36.5450   32.2930   41.1860 H   0  0  0  0  0  0  0  0  0  0  0  0
   37.0180   31.8790   39.4410 H   0  0  0  0  0  0  0  0  0  0  0  0
   38.3990   33.7380   41.3890 H   0  0  0  0  0  0  0  0  0  0  0  0
   38.5410   33.6040   39.5720 H   0  0  0  0  0  0  0  0  0  0  0  0
   40.0610   30.6220   41.8250 H   0  0  0  0  0  0  0  0  0  0  0  0
   38.9860   31.9860   42.5000 H   0  0  0  0  0  0  0  0  0  0  0  0
   35.3290   28.9670   40.6020 C   0  0  0  0  0  0  0  0  0  0  0  0
   34.5920   28.2790   41.0900 H   0  0  0  0  0  0  0  0  0  0  0  0
   35.0110   30.0080   40.7490 H   0  0  0  0  0  0  0  0  0  0  0  0
   35.7080   29.4830   38.2410 C   0  0  0  0  0  3  0  0  0  0  0  0
   35.3100   28.6380   39.1580 C   0  0  0  0  0  3  0  0  0  0  0  0
   36.6850   28.9860   34.7490 C   0  0  0  0  0  0  0  0  0  0  0  0
   35.5160   28.4120   34.1900 C   0  0  0  0  0  0  0  0  0  0  0  0
   34.4370   28.2200   35.0460 C   0  0  0  0  0  0  0  0  0  0  0  0
   34.5390   28.5820   36.3580 N   0  0  0  0  0  0  0  0  0  0  0  0
   35.6740   29.1250   36.8390 C   0  0  0  0  0  0  0  0  0  0  0  0
   36.7320   29.3270   36.0610 N   0  0  0  0  0  0  0  0  0  0  0  0
   37.5150   29.1320   34.0880 H   0  0  0  0  0  0  0  0  0  0  0  0
   35.4080   28.1200   33.1750 H   0  0  0  0  0  0  0  0  0  0  0  0
   32.8730   27.5090   34.5280 S   0  0  0  0  0  0  0  0  0  0  0  0
   32.9700   26.1060   34.4860 H   0  0  0  0  0  0  0  0  0  0  0  0
  1  6  1  6  0  0  0
  1  5  1  0  0  0  0
  1  2  1  0  0  0  0
  2  3  1  0  0  0  0
  2  8  1  0  0  0  0
  3  9  1  0  0  0  0
  4  3  1  0  0  0  0
  5 11  1  1  0  0  0
  5  4  1  0  0  0  0
  7  2  1  0  0  0  0
 10  3  1  0  0  0  0
 12 17  1  6  0  0  0
 12 16  1  0  0  0  0
 12  5  1  0  0  0  0
 13 14  1  0  0  0  0
 13 12  1  0  0  0  0
 13 18  1  0  0  0  0
 14 15  1  0  0  0  0
 14 20  1  0  0  0  0
 15 16  1  0  0  0  0
 16 22  1  0  0  0  0
 16 23  1  0  0  0  0
 19 13  1  0  0  0  0
 21 14  1  0  0  0  0
 24 26  1  0  0  0  0
 24 25  1  0  0  0  0
 24  1  1  0  0  0  0
 27 28  2  0  0  0  0
 28 24  1  0  0  0  0
 29 34  1  0  0  0  0
 30 29  2  0  0  0  0
 30 31  1  0  0  0  0
 31 32  2  0  0  0  0
 32 33  1  0  0  0  0
 33 27  1  0  0  0  0
 34 33  2  0  0  0  0
 35 29  1  0  0  0  0
 36 30  1  0  0  0  0
 37 31  1  0  0  0  0
 38 37  1  0  0  0  0
M  END
>  <minimizedAffinity>
-4.74060535

$$$$
