
 OpenBabel03252508233D

 41 43  0  0  0  0  0  0  0  0999 V2000
   45.8580   33.7970   40.5890 C   0  0  0  0  0  0  0  0  0  0  0  0
   46.3900   33.5100   39.3490 C   0  0  0  0  0  0  0  0  0  0  0  0
   47.6380   33.8980   38.9310 C   0  0  0  0  0  0  0  0  0  0  0  0
   48.3890   34.6310   39.8580 C   0  0  0  0  0  0  0  0  0  0  0  0
   47.9140   34.9450   41.1040 C   0  0  0  0  0  0  0  0  0  0  0  0
   46.6650   34.5360   41.4700 C   0  0  0  0  0  0  0  0  0  0  0  0
   45.8820   32.9420   38.5850 H   0  0  0  0  0  0  0  0  0  0  0  0
   48.0810   33.6940   37.9790 H   0  0  0  0  0  0  0  0  0  0  0  0
   49.3960   34.9670   39.5780 H   0  0  0  0  0  0  0  0  0  0  0  0
   48.5620   35.5160   41.7590 H   0  0  0  0  0  0  0  0  0  0  0  0
   46.2630   34.9030   42.7740 N   0  0  0  0  0  0  0  0  0  0  0  0
   45.3800   35.9920   43.0770 C   0  0  0  0  0  0  0  0  0  0  0  0
   44.7770   35.8490   44.4510 C   0  0  0  0  0  0  0  0  0  0  0  0
   44.4400   34.5180   44.7950 N   0  0  0  0  0  0  0  0  0  0  0  0
   45.4870   33.5820   44.6800 C   0  0  0  0  0  0  0  0  0  0  0  0
   46.6850   34.2270   44.0090 C   0  0  0  0  0  0  0  0  0  0  0  0
   46.0670   36.8890   43.1660 H   0  0  0  0  0  0  0  0  0  0  0  0
   44.6780   36.2910   42.2940 H   0  0  0  0  0  0  0  0  0  0  0  0
   43.8890   36.4980   44.4780 H   0  0  0  0  0  0  0  0  0  0  0  0
   45.4600   36.2390   45.2370 H   0  0  0  0  0  0  0  0  0  0  0  0
   43.7100   34.3890   45.4800 H   0  0  0  0  0  0  0  0  0  0  0  0
   45.2460   32.6710   44.1100 H   0  0  0  0  0  0  0  0  0  0  0  0
   45.8240   33.2970   45.7130 H   0  0  0  0  0  0  0  0  0  0  0  0
   47.3980   33.4390   43.7430 H   0  0  0  0  0  0  0  0  0  0  0  0
   47.1190   35.0020   44.6750 H   0  0  0  0  0  0  0  0  0  0  0  0
   44.5240   33.3860   41.0270 C   0  0  0  0  0  0  0  0  0  0  0  0
   43.9320   34.1630   41.5090 H   0  0  0  0  0  0  0  0  0  0  0  0
   44.6890   32.6060   41.8280 H   0  0  0  0  0  0  0  0  0  0  0  0
   43.7340   32.7600   39.8960 C   0  0  0  0  0  0  0  0  0  0  0  0
   43.4200   31.7120   40.1790 H   0  0  0  0  0  0  0  0  0  0  0  0
   44.2550   32.6580   38.9580 H   0  0  0  0  0  0  0  0  0  0  0  0
   41.4180   35.5170   38.7630 C   0  0  0  0  0  0  0  0  0  0  0  0
   42.6080   34.7830   38.9880 C   0  0  0  0  0  0  0  0  0  0  0  0
   42.5110   33.5570   39.6520 C   0  0  0  0  0  0  0  0  0  0  0  0
   41.2670   33.1360   40.0480 N   0  0  0  0  0  0  0  0  0  0  0  0
   40.1660   33.8540   39.8190 C   0  0  0  0  0  0  0  0  0  0  0  0
   40.2340   35.0370   39.1810 N   0  0  0  0  0  0  0  0  0  0  0  0
   41.5290   36.4610   38.2460 H   0  0  0  0  0  0  0  0  0  0  0  0
   43.5550   35.1420   38.6660 H   0  0  0  0  0  0  0  0  0  0  0  0
   38.6010   33.2000   40.3830 S   0  0  0  0  0  0  0  0  0  0  0  0
   38.5750   31.7890   40.2180 H   0  0  0  0  0  0  0  0  0  0  0  0
  1 26  1  0  0  0  0
  1  6  1  0  0  0  0
  2  1  2  0  0  0  0
  3  2  1  0  0  0  0
  3  4  2  0  0  0  0
  4  5  1  0  0  0  0
  5  6  2  0  0  0  0
  5 10  1  0  0  0  0
  6 11  1  0  0  0  0
  7  2  1  0  0  0  0
  8  3  1  0  0  0  0
  9  4  1  0  0  0  0
 11 12  1  0  0  0  0
 11 16  1  0  0  0  0
 12 17  1  0  0  0  0
 12 13  1  0  0  0  0
 13 19  1  0  0  0  0
 13 14  1  0  0  0  0
 13 20  1  0  0  0  0
 14 21  1  0  0  0  0
 15 14  1  0  0  0  0
 15 23  1  0  0  0  0
 16 25  1  0  0  0  0
 16 15  1  0  0  0  0
 18 12  1  0  0  0  0
 22 15  1  0  0  0  0
 24 16  1  0  0  0  0
 26 27  1  0  0  0  0
 26 28  1  0  0  0  0
 29 30  1  0  0  0  0
 29 26  1  0  0  0  0
 31 29  1  0  0  0  0
 32 33  2  0  0  0  0
 32 37  1  0  0  0  0
 33 34  1  0  0  0  0
 34 29  1  0  0  0  0
 34 35  2  0  0  0  0
 36 35  1  0  0  0  0
 36 40  1  0  0  0  0
 37 36  2  0  0  0  0
 38 32  1  0  0  0  0
 39 33  1  0  0  0  0
 41 40  1  0  0  0  0
M  END
>  <minimizedAffinity>
-5.41124249

>  <minimizedRMSD>
0.880832613

$$$$
