
 OpenBabel03252509143D

 38 41  0  0  1  0  0  0  0  0999 V2000
   47.4720   32.5240   44.3360 C   0  0  0  0  0  0  0  0  0  0  0  0
   46.7740   33.4950   43.6240 C   0  0  0  0  0  0  0  0  0  0  0  0
   45.7380   34.2380   44.1780 C   0  0  0  0  0  0  0  0  0  0  0  0
   45.3670   34.0150   45.5020 C   0  0  0  0  0  0  0  0  0  0  0  0
   44.4510   34.5140   46.3540 N   0  0  0  0  0  0  0  0  0  0  0  0
   44.5500   33.9050   47.5430 C   0  0  0  0  0  0  0  0  0  0  0  0
   45.5500   33.0090   47.4200 N   0  0  0  0  0  0  0  0  0  0  0  0
   46.0730   33.0470   46.1870 C   0  0  0  0  0  0  0  0  0  0  0  0
   47.1030   32.2940   45.6680 C   0  0  0  0  0  0  0  0  0  0  0  0
   48.2690   31.9710   43.8650 H   0  0  0  0  0  0  0  0  0  0  0  0
   43.7710   35.2780   46.0820 H   0  0  0  0  0  0  0  0  0  0  0  0
   43.9540   34.0790   48.4430 H   0  0  0  0  0  0  0  0  0  0  0  0
   47.6210   31.5460   46.2630 H   0  0  0  0  0  0  0  0  0  0  0  0
   47.0010   33.1540   39.9830 C   0  0  0  0  0  0  0  0  0  0  0  0
   47.8390   34.2250   39.6250 C   0  0  0  0  0  0  0  0  0  0  0  0
   48.3130   35.0490   40.6410 C   0  0  0  0  0  0  0  0  0  0  0  0
   47.9540   34.7930   41.9400 N   0  0  0  0  0  0  0  0  0  0  0  0
   47.1430   33.7470   42.2380 C   0  0  0  0  0  0  0  0  0  0  0  0
   46.6510   32.9120   41.2830 N   0  0  0  0  0  0  0  0  0  0  0  0
   46.6250   32.5050   39.2000 H   0  0  0  0  0  0  0  0  0  0  0  0
   48.0900   34.3780   38.5780 H   0  0  0  0  0  0  0  0  0  0  0  0
   48.9580   35.8780   40.3980 H   0  0  0  0  0  0  0  0  0  0  0  0
   44.8670   35.4680   43.2490 S   0  0  0  0  0  0  0  0  0  0  0  0
   42.3620   35.3340   42.4750 N   0  0  0  0  0  0  0  0  0  0  0  0
   43.6560   34.7960   42.0910 C   0  0  1  0  0  0  0  0  0  0  0  0
   44.0660   35.3030   40.7110 C   0  0  0  0  0  0  0  0  0  0  0  0
   43.0370   35.2840   39.7910 O   0  0  0  0  0  0  0  0  0  0  0  0
   41.9030   34.6140   40.1790 C   0  0  0  0  0  0  0  0  0  0  0  0
   41.3690   35.2050   41.4540 C   0  0  1  0  0  0  0  0  0  0  0  0
   42.1180   34.9570   43.3930 H   0  0  0  0  0  0  0  0  0  0  0  0
   43.6760   33.7010   42.0560 H   0  0  0  0  0  0  0  0  0  0  0  0
   44.8100   34.6270   40.2970 H   0  0  0  0  0  0  0  0  0  0  0  0
   44.5480   36.3150   40.8130 H   0  0  0  0  0  0  0  0  0  0  0  0
   41.1530   34.7270   39.4000 H   0  0  0  0  0  0  0  0  0  0  0  0
   42.1670   33.5350   40.3130 H   0  0  0  0  0  0  0  0  0  0  0  0
   40.8710   36.1780   41.2040 H   0  0  0  0  0  0  0  0  0  0  0  0
   40.0880   34.0630   42.0810 S   0  0  0  0  0  0  0  0  0  0  0  0
   39.1840   33.8740   41.0130 H   0  0  0  0  0  0  0  0  0  0  0  0
  1  9  1  0  0  0  0
  2  3  1  0  0  0  0
  2  1  2  0  0  0  0
  3  4  2  0  0  0  0
  4  8  1  0  0  0  0
  4  5  1  0  0  0  0
  5  6  1  0  0  0  0
  6 12  1  0  0  0  0
  7  6  2  0  0  0  0
  8  7  1  0  0  0  0
  9  8  2  0  0  0  0
  9 13  1  0  0  0  0
 10  1  1  0  0  0  0
 11  5  1  0  0  0  0
 14 19  1  0  0  0  0
 15 14  2  0  0  0  0
 15 16  1  0  0  0  0
 16 17  2  0  0  0  0
 17 18  1  0  0  0  0
 18  2  1  0  0  0  0
 19 18  2  0  0  0  0
 20 14  1  0  0  0  0
 21 15  1  0  0  0  0
 22 16  1  0  0  0  0
 23  3  1  0  0  0  0
 24 30  1  0  0  0  0
 25 31  1  1  0  0  0
 25 24  1  0  0  0  0
 25 23  1  0  0  0  0
 26 33  1  0  0  0  0
 26 25  1  0  0  0  0
 27 28  1  0  0  0  0
 27 26  1  0  0  0  0
 28 35  1  0  0  0  0
 28 29  1  0  0  0  0
 29 36  1  6  0  0  0
 29 37  1  0  0  0  0
 29 24  1  0  0  0  0
 32 26  1  0  0  0  0
 34 28  1  0  0  0  0
 38 37  1  0  0  0  0
M  END
>  <minimizedAffinity>
-5.51588535

>  <minimizedRMSD>
0.30243808

$$$$
