
 OpenBabel03252509233D

 20 21  0  0  1  0  0  0  0  0999 V2000
   44.6320   35.4500   45.1220 C   0  0  0  0  0  0  0  0  0  0  0  0
   45.1050   35.7280   43.7920 C   0  0  0  0  0  0  0  0  0  0  0  0
   46.0500   34.8340   43.3600 C   0  0  0  0  0  0  0  0  0  0  0  0
   46.4970   33.7830   44.1340 N   0  0  0  0  0  0  0  0  0  0  0  0
   46.0120   33.5860   45.3680 C   0  0  0  0  0  0  0  0  0  0  0  0
   45.0740   34.4190   45.8710 N   0  0  0  0  0  0  0  0  0  0  0  0
   43.8840   36.1110   45.5320 H   0  0  0  0  0  0  0  0  0  0  0  0
   46.4860   32.7180   45.8050 H   0  0  0  0  0  0  0  0  0  0  0  0
   46.5440   34.9880   41.9410 C   0  0  1  0  0  0  0  0  0  0  0  0
   48.0680   35.2930   41.9380 C   0  0  0  0  0  0  0  0  0  0  0  0
   47.3940   33.9910   41.3930 C   0  0  2  0  0  0  0  0  0  0  0  0
   45.9630   35.7160   41.3430 H   0  0  0  0  0  0  0  0  0  0  0  0
   48.6350   35.1980   42.8560 H   0  0  0  0  0  0  0  0  0  0  0  0
   48.3980   36.0140   41.1760 H   0  0  0  0  0  0  0  0  0  0  0  0
   47.6910   33.0530   41.9060 H   0  0  0  0  0  0  0  0  0  0  0  0
   47.5720   33.7850   39.5790 S   0  0  0  0  0  0  0  0  0  0  0  0
   46.9350   34.8450   38.9100 H   0  0  0  0  0  0  0  0  0  0  0  0
   44.6510   36.8190   43.0340 N   0  0  0  0  0  0  0  0  0  0  0  0
   43.7490   36.7410   42.5310 H   0  0  0  0  0  0  0  0  0  0  0  0
   45.2090   37.7040   42.9710 H   0  0  0  0  0  0  0  0  0  0  0  0
  1  7  1  0  0  0  0
  1  6  1  0  0  0  0
  2  1  2  0  0  0  0
  3  2  1  0  0  0  0
  3  4  2  0  0  0  0
  4  5  1  0  0  0  0
  5  8  1  0  0  0  0
  5  6  2  0  0  0  0
  9 12  1  6  0  0  0
  9  3  1  0  0  0  0
 10  9  1  0  0  0  0
 10 13  1  0  0  0  0
 11 15  1  1  0  0  0
 11 10  1  0  0  0  0
 11  9  1  0  0  0  0
 14 10  1  0  0  0  0
 16 11  1  0  0  0  0
 17 16  1  0  0  0  0
 18  2  1  0  0  0  0
 19 18  1  0  0  0  0
 20 18  1  0  0  0  0
M  END
>  <minimizedAffinity>
-4.16024303

>  <minimizedRMSD>
0.0186578631

$$$$
