
 OpenBabel03252509153D

 38 41  0  0  1  0  0  0  0  0999 V2000
   39.4380   30.3880   41.9750 C   0  0  0  0  0  0  0  0  0  0  0  0
   38.1960   29.9200   41.5570 C   0  0  0  0  0  0  0  0  0  0  0  0
   37.2890   30.7080   40.8580 C   0  0  0  0  0  0  0  0  0  0  0  0
   37.6190   32.0270   40.5550 C   0  0  0  0  0  0  0  0  0  0  0  0
   37.0270   33.0580   39.9210 N   0  0  0  0  0  0  0  0  0  0  0  0
   37.8350   34.1270   39.9280 C   0  0  0  0  0  0  0  0  0  0  0  0
   38.9510   33.7440   40.5820 N   0  0  0  0  0  0  0  0  0  0  0  0
   38.8550   32.4690   40.9810 C   0  0  0  0  0  0  0  0  0  0  0  0
   39.7760   31.7140   41.6740 C   0  0  0  0  0  0  0  0  0  0  0  0
   40.1110   29.7400   42.5150 H   0  0  0  0  0  0  0  0  0  0  0  0
   36.0620   32.9900   39.4930 H   0  0  0  0  0  0  0  0  0  0  0  0
   37.6520   35.1150   39.5000 H   0  0  0  0  0  0  0  0  0  0  0  0
   40.7360   32.1220   41.9800 H   0  0  0  0  0  0  0  0  0  0  0  0
   36.7960   27.0120   43.2900 C   0  0  0  0  0  0  0  0  0  0  0  0
   37.1320   25.9500   42.4320 C   0  0  0  0  0  0  0  0  0  0  0  0
   37.8370   26.2490   41.2710 C   0  0  0  0  0  0  0  0  0  0  0  0
   38.1750   27.5520   41.0030 N   0  0  0  0  0  0  0  0  0  0  0  0
   37.8280   28.5440   41.8610 C   0  0  0  0  0  0  0  0  0  0  0  0
   37.1390   28.3060   43.0100 N   0  0  0  0  0  0  0  0  0  0  0  0
   36.2470   26.7910   44.1980 H   0  0  0  0  0  0  0  0  0  0  0  0
   36.8380   24.9370   42.6970 H   0  0  0  0  0  0  0  0  0  0  0  0
   38.1110   25.4570   40.5930 H   0  0  0  0  0  0  0  0  0  0  0  0
   35.7150   30.0860   40.3370 S   0  0  0  0  0  0  0  0  0  0  0  0
   36.7340   28.5170   38.4970 N   0  0  0  0  0  0  0  0  0  0  0  0
   35.6800   29.5080   38.6280 C   0  0  1  0  0  0  0  0  0  0  0  0
   34.3080   28.8700   38.4270 C   0  0  0  0  0  0  0  0  0  0  0  0
   34.2640   27.9860   37.3670 O   0  0  0  0  0  0  0  0  0  0  0  0
   35.3580   27.9930   36.5380 C   0  0  0  0  0  0  0  0  0  0  0  0
   36.6030   27.7000   37.3310 C   0  0  1  0  0  0  0  0  0  0  0  0
   37.6330   28.9870   38.6200 H   0  0  0  0  0  0  0  0  0  0  0  0
   35.7680   30.3290   37.9080 H   0  0  0  0  0  0  0  0  0  0  0  0
   33.5970   29.6480   38.1580 H   0  0  0  0  0  0  0  0  0  0  0  0
   33.9630   28.4150   39.3960 H   0  0  0  0  0  0  0  0  0  0  0  0
   35.2280   27.2160   35.7900 H   0  0  0  0  0  0  0  0  0  0  0  0
   35.4170   28.9980   36.0510 H   0  0  0  0  0  0  0  0  0  0  0  0
   36.6170   26.6030   37.5620 H   0  0  0  0  0  0  0  0  0  0  0  0
   38.0280   28.0630   36.2470 S   0  0  0  0  0  0  0  0  0  0  0  0
   37.8100   27.3250   35.0630 H   0  0  0  0  0  0  0  0  0  0  0  0
  1 10  1  0  0  0  0
  2 18  1  0  0  0  0
  2  1  2  0  0  0  0
  3  2  1  0  0  0  0
  4  3  2  0  0  0  0
  4  8  1  0  0  0  0
  5  6  1  0  0  0  0
  5  4  1  0  0  0  0
  6  7  2  0  0  0  0
  7  8  1  0  0  0  0
  8  9  2  0  0  0  0
  9  1  1  0  0  0  0
  9 13  1  0  0  0  0
 11  5  1  0  0  0  0
 12  6  1  0  0  0  0
 14 20  1  0  0  0  0
 15 21  1  0  0  0  0
 15 14  2  0  0  0  0
 16 15  1  0  0  0  0
 17 16  2  0  0  0  0
 17 18  1  0  0  0  0
 18 19  2  0  0  0  0
 19 14  1  0  0  0  0
 22 16  1  0  0  0  0
 23  3  1  0  0  0  0
 24 30  1  0  0  0  0
 24 25  1  0  0  0  0
 25 31  1  6  0  0  0
 25 23  1  0  0  0  0
 26 25  1  0  0  0  0
 26 33  1  0  0  0  0
 27 26  1  0  0  0  0
 28 29  1  0  0  0  0
 28 27  1  0  0  0  0
 29 36  1  1  0  0  0
 29 24  1  0  0  0  0
 32 26  1  0  0  0  0
 34 28  1  0  0  0  0
 35 28  1  0  0  0  0
 37 29  1  0  0  0  0
 38 37  1  0  0  0  0
M  END
>  <minimizedAffinity>
-5.59491634

$$$$

 OpenBabel03252509153D

 38 41  0  0  1  0  0  0  0  0999 V2000
   37.3660   33.0420   39.7500 C   0  0  0  0  0  0  0  0  0  0  0  0
   37.7030   31.6920   39.7280 C   0  0  0  0  0  0  0  0  0  0  0  0
   38.9910   31.2320   39.9730 C   0  0  0  0  0  0  0  0  0  0  0  0
   40.0030   32.1470   40.2530 C   0  0  0  0  0  0  0  0  0  0  0  0
   41.3210   32.0880   40.5320 N   0  0  0  0  0  0  0  0  0  0  0  0
   41.8060   33.3230   40.7210 C   0  0  0  0  0  0  0  0  0  0  0  0
   40.7630   34.1610   40.5550 N   0  0  0  0  0  0  0  0  0  0  0  0
   39.6460   33.4790   40.2680 C   0  0  0  0  0  0  0  0  0  0  0  0
   38.3800   33.9680   40.0300 C   0  0  0  0  0  0  0  0  0  0  0  0
   36.3520   33.3530   39.5530 H   0  0  0  0  0  0  0  0  0  0  0  0
   41.8550   31.1770   40.5830 H   0  0  0  0  0  0  0  0  0  0  0  0
   42.8310   33.6160   40.9600 H   0  0  0  0  0  0  0  0  0  0  0  0
   38.1620   35.0330   40.0580 H   0  0  0  0  0  0  0  0  0  0  0  0
   34.9610   29.3080   40.2030 C   0  0  0  0  0  0  0  0  0  0  0  0
   34.7000   28.8740   38.8920 C   0  0  0  0  0  0  0  0  0  0  0  0
   35.4710   29.4070   37.8630 C   0  0  0  0  0  0  0  0  0  0  0  0
   36.4470   30.3250   38.1580 N   0  0  0  0  0  0  0  0  0  0  0  0
   36.6630   30.7150   39.4390 C   0  0  0  0  0  0  0  0  0  0  0  0
   35.9370   30.2250   40.4810 N   0  0  0  0  0  0  0  0  0  0  0  0
   34.3680   28.9000   41.0130 H   0  0  0  0  0  0  0  0  0  0  0  0
   33.9140   28.1420   38.7190 H   0  0  0  0  0  0  0  0  0  0  0  0
   35.2950   29.0920   36.8470 H   0  0  0  0  0  0  0  0  0  0  0  0
   39.3930   29.5070   39.9400 S   0  0  0  0  0  0  0  0  0  0  0  0
   37.9830   27.9300   41.4950 N   0  0  0  0  0  0  0  0  0  0  0  0
   39.2260   28.6810   41.5370 C   0  0  1  0  0  0  0  0  0  0  0  0
   40.4230   27.7430   41.6520 C   0  0  0  0  0  0  0  0  0  0  0  0
   40.2320   26.7190   42.5590 O   0  0  0  0  0  0  0  0  0  0  0  0
   39.1260   26.8340   43.3640 C   0  0  0  0  0  0  0  0  0  0  0  0
   37.8860   26.9360   42.5180 C   0  0  1  0  0  0  0  0  0  0  0  0
   37.2090   28.5950   41.4360 H   0  0  0  0  0  0  0  0  0  0  0  0
   39.2780   29.3840   42.3770 H   0  0  0  0  0  0  0  0  0  0  0  0
   41.2680   28.3010   42.0500 H   0  0  0  0  0  0  0  0  0  0  0  0
   40.7110   27.3770   40.6280 H   0  0  0  0  0  0  0  0  0  0  0  0
   39.0550   25.9410   43.9810 H   0  0  0  0  0  0  0  0  0  0  0  0
   39.2550   27.7420   44.0030 H   0  0  0  0  0  0  0  0  0  0  0  0
   37.6540   25.9160   42.1160 H   0  0  0  0  0  0  0  0  0  0  0  0
   36.5190   27.4270   43.6270 S   0  0  0  0  0  0  0  0  0  0  0  0
   36.5220   26.4880   44.6820 H   0  0  0  0  0  0  0  0  0  0  0  0
  1  9  1  0  0  0  0
  2  1  2  0  0  0  0
  2  3  1  0  0  0  0
  3  4  2  0  0  0  0
  4  8  1  0  0  0  0
  4  5  1  0  0  0  0
  5 11  1  0  0  0  0
  5  6  1  0  0  0  0
  6 12  1  0  0  0  0
  7  6  2  0  0  0  0
  8  7  1  0  0  0  0
  9 13  1  0  0  0  0
  9  8  2  0  0  0  0
 10  1  1  0  0  0  0
 14 19  1  0  0  0  0
 14 20  1  0  0  0  0
 15 14  2  0  0  0  0
 16 17  2  0  0  0  0
 16 15  1  0  0  0  0
 17 18  1  0  0  0  0
 18  2  1  0  0  0  0
 18 19  2  0  0  0  0
 21 15  1  0  0  0  0
 22 16  1  0  0  0  0
 23  3  1  0  0  0  0
 23 25  1  0  0  0  0
 24 25  1  0  0  0  0
 24 29  1  0  0  0  0
 25 26  1  0  0  0  0
 25 31  1  1  0  0  0
 26 32  1  0  0  0  0
 26 27  1  0  0  0  0
 27 28  1  0  0  0  0
 28 34  1  0  0  0  0
 28 35  1  0  0  0  0
 29 36  1  6  0  0  0
 29 28  1  0  0  0  0
 29 37  1  0  0  0  0
 30 24  1  0  0  0  0
 33 26  1  0  0  0  0
 37 38  1  0  0  0  0
M  END
>  <minimizedAffinity>
-5.54022837

$$$$

 OpenBabel03252509153D

 38 41  0  0  1  0  0  0  0  0999 V2000
   37.0340   30.1120   36.9380 C   0  0  0  0  0  0  0  0  0  0  0  0
   36.3730   29.4710   37.9820 C   0  0  0  0  0  0  0  0  0  0  0  0
   36.2570   30.0210   39.2530 C   0  0  0  0  0  0  0  0  0  0  0  0
   36.8230   31.2680   39.5130 C   0  0  0  0  0  0  0  0  0  0  0  0
   36.9170   32.0920   40.5740 N   0  0  0  0  0  0  0  0  0  0  0  0
   37.5960   33.1970   40.2390 C   0  0  0  0  0  0  0  0  0  0  0  0
   37.9290   33.0490   38.9410 N   0  0  0  0  0  0  0  0  0  0  0  0
   37.4740   31.8830   38.4640 C   0  0  0  0  0  0  0  0  0  0  0  0
   37.6060   31.3650   37.1940 C   0  0  0  0  0  0  0  0  0  0  0  0
   37.0990   29.6460   35.9670 H   0  0  0  0  0  0  0  0  0  0  0  0
   36.4990   31.8610   41.5180 H   0  0  0  0  0  0  0  0  0  0  0  0
   37.8440   34.0550   40.8690 H   0  0  0  0  0  0  0  0  0  0  0  0
   38.1320   31.9020   36.4080 H   0  0  0  0  0  0  0  0  0  0  0  0
   33.9270   26.9020   37.0650 C   0  0  0  0  0  0  0  0  0  0  0  0
   34.6410   25.7090   37.2680 C   0  0  0  0  0  0  0  0  0  0  0  0
   35.9540   25.8050   37.7190 C   0  0  0  0  0  0  0  0  0  0  0  0
   36.5010   27.0430   37.9460 N   0  0  0  0  0  0  0  0  0  0  0  0
   35.7730   28.1680   37.7350 C   0  0  0  0  0  0  0  0  0  0  0  0
   34.4850   28.1290   37.2950 N   0  0  0  0  0  0  0  0  0  0  0  0
   32.9030   26.8400   36.7140 H   0  0  0  0  0  0  0  0  0  0  0  0
   34.1550   24.7560   37.0720 H   0  0  0  0  0  0  0  0  0  0  0  0
   36.5280   24.9080   37.8860 H   0  0  0  0  0  0  0  0  0  0  0  0
   35.4100   29.1840   40.5630 S   0  0  0  0  0  0  0  0  0  0  0  0
   37.4400   27.5330   40.7680 N   0  0  0  0  0  0  0  0  0  0  0  0
   36.4880   28.2090   41.6330 C   0  0  1  0  0  0  0  0  0  0  0  0
   37.1950   29.2100   42.5420 C   0  0  0  0  0  0  0  0  0  0  0  0
   38.3640   28.7200   43.0920 O   0  0  0  0  0  0  0  0  0  0  0  0
   38.5810   27.3740   42.9310 C   0  0  0  0  0  0  0  0  0  0  0  0
   38.5800   27.0260   41.4670 C   0  0  1  0  0  0  0  0  0  0  0  0
   36.9280   26.8620   40.1920 H   0  0  0  0  0  0  0  0  0  0  0  0
   35.9260   27.5230   42.2770 H   0  0  0  0  0  0  0  0  0  0  0  0
   36.5590   29.4140   43.4000 H   0  0  0  0  0  0  0  0  0  0  0  0
   37.3400   30.1780   41.9890 H   0  0  0  0  0  0  0  0  0  0  0  0
   39.5550   27.1300   43.3480 H   0  0  0  0  0  0  0  0  0  0  0  0
   37.7730   26.8260   43.4770 H   0  0  0  0  0  0  0  0  0  0  0  0
   39.5510   27.3720   41.0280 H   0  0  0  0  0  0  0  0  0  0  0  0
   38.5270   25.2040   41.3480 S   0  0  0  0  0  0  0  0  0  0  0  0
   39.6000   24.7350   42.1370 H   0  0  0  0  0  0  0  0  0  0  0  0
  1  9  2  0  0  0  0
  1  2  1  0  0  0  0
  2  3  2  0  0  0  0
  3  4  1  0  0  0  0
  3 23  1  0  0  0  0
  4  5  1  0  0  0  0
  5 11  1  0  0  0  0
  6  5  1  0  0  0  0
  6 12  1  0  0  0  0
  7  6  2  0  0  0  0
  8  7  1  0  0  0  0
  8  4  2  0  0  0  0
  9  8  1  0  0  0  0
 10  1  1  0  0  0  0
 13  9  1  0  0  0  0
 14 15  2  0  0  0  0
 14 19  1  0  0  0  0
 15 16  1  0  0  0  0
 16 22  1  0  0  0  0
 16 17  2  0  0  0  0
 18 17  1  0  0  0  0
 18  2  1  0  0  0  0
 19 18  2  0  0  0  0
 20 14  1  0  0  0  0
 21 15  1  0  0  0  0
 23 25  1  0  0  0  0
 24 29  1  0  0  0  0
 24 25  1  0  0  0  0
 25 31  1  1  0  0  0
 25 26  1  0  0  0  0
 26 27  1  0  0  0  0
 26 32  1  0  0  0  0
 28 27  1  0  0  0  0
 28 34  1  0  0  0  0
 28 35  1  0  0  0  0
 29 36  1  6  0  0  0
 29 28  1  0  0  0  0
 30 24  1  0  0  0  0
 33 26  1  0  0  0  0
 37 29  1  0  0  0  0
 37 38  1  0  0  0  0
M  END
>  <minimizedAffinity>
-5.3235302

$$$$

 OpenBabel03252509153D

 38 41  0  0  1  0  0  0  0  0999 V2000
   36.7760   29.8160   39.4610 C   0  0  0  0  0  0  0  0  0  0  0  0
   37.5870   29.6600   40.5820 C   0  0  0  0  0  0  0  0  0  0  0  0
   38.2370   30.7240   41.1960 C   0  0  0  0  0  0  0  0  0  0  0  0
   38.0850   32.0090   40.6810 C   0  0  0  0  0  0  0  0  0  0  0  0
   38.5370   33.2410   40.9870 N   0  0  0  0  0  0  0  0  0  0  0  0
   38.0500   34.1380   40.1180 C   0  0  0  0  0  0  0  0  0  0  0  0
   37.2800   33.4410   39.2580 N   0  0  0  0  0  0  0  0  0  0  0  0
   37.2780   32.1380   39.5690 C   0  0  0  0  0  0  0  0  0  0  0  0
   36.6200   31.1060   38.9380 C   0  0  0  0  0  0  0  0  0  0  0  0
   36.2910   28.9610   39.0180 H   0  0  0  0  0  0  0  0  0  0  0  0
   39.1810   33.4290   41.8040 H   0  0  0  0  0  0  0  0  0  0  0  0
   38.2250   35.2160   40.0910 H   0  0  0  0  0  0  0  0  0  0  0  0
   35.9960   31.2750   38.0630 H   0  0  0  0  0  0  0  0  0  0  0  0
   37.0570   26.6620   42.6210 C   0  0  0  0  0  0  0  0  0  0  0  0
   38.0910   25.8110   42.1920 C   0  0  0  0  0  0  0  0  0  0  0  0
   38.9550   26.2810   41.2080 C   0  0  0  0  0  0  0  0  0  0  0  0
   38.7740   27.5410   40.6960 N   0  0  0  0  0  0  0  0  0  0  0  0
   37.7610   28.3270   41.1400 C   0  0  0  0  0  0  0  0  0  0  0  0
   36.8880   27.9160   42.1000 N   0  0  0  0  0  0  0  0  0  0  0  0
   36.3770   26.3070   43.3860 H   0  0  0  0  0  0  0  0  0  0  0  0
   38.1860   24.8230   42.6350 H   0  0  0  0  0  0  0  0  0  0  0  0
   39.7590   25.6530   40.8600 H   0  0  0  0  0  0  0  0  0  0  0  0
   39.2620   30.4980   42.6220 S   0  0  0  0  0  0  0  0  0  0  0  0
   41.5990   31.5910   43.1060 N   0  0  0  0  0  0  0  0  0  0  0  0
   41.0320   30.5450   42.2720 C   0  0  1  0  0  0  0  0  0  0  0  0
   41.5780   29.1770   42.6730 C   0  0  0  0  0  0  0  0  0  0  0  0
   42.9380   29.1770   42.9110 O   0  0  0  0  0  0  0  0  0  0  0  0
   43.6090   30.3130   42.5330 C   0  0  0  0  0  0  0  0  0  0  0  0
   43.0220   31.5110   43.2280 C   0  0  1  0  0  0  0  0  0  0  0  0
   41.2230   32.4890   42.7930 H   0  0  0  0  0  0  0  0  0  0  0  0
   41.2430   30.6810   41.2050 H   0  0  0  0  0  0  0  0  0  0  0  0
   41.4500   28.4910   41.8390 H   0  0  0  0  0  0  0  0  0  0  0  0
   40.9790   28.7760   43.5370 H   0  0  0  0  0  0  0  0  0  0  0  0
   44.6510   30.2130   42.8300 H   0  0  0  0  0  0  0  0  0  0  0  0
   43.5280   30.4110   41.4220 H   0  0  0  0  0  0  0  0  0  0  0  0
   43.3680   31.4980   44.2940 H   0  0  0  0  0  0  0  0  0  0  0  0
   43.7230   32.9950   42.4280 S   0  0  0  0  0  0  0  0  0  0  0  0
   45.1250   32.8300   42.4700 H   0  0  0  0  0  0  0  0  0  0  0  0
  1  2  1  0  0  0  0
  2 18  1  0  0  0  0
  2  3  2  0  0  0  0
  3 23  1  0  0  0  0
  4  5  1  0  0  0  0
  4  3  1  0  0  0  0
  5 11  1  0  0  0  0
  6  5  1  0  0  0  0
  7  8  1  0  0  0  0
  7  6  2  0  0  0  0
  8  4  2  0  0  0  0
  9  1  2  0  0  0  0
  9  8  1  0  0  0  0
 10  1  1  0  0  0  0
 12  6  1  0  0  0  0
 13  9  1  0  0  0  0
 14 20  1  0  0  0  0
 15 14  1  0  0  0  0
 15 21  1  0  0  0  0
 16 15  2  0  0  0  0
 17 18  2  0  0  0  0
 17 16  1  0  0  0  0
 18 19  1  0  0  0  0
 19 14  2  0  0  0  0
 22 16  1  0  0  0  0
 24 29  1  0  0  0  0
 25 31  1  6  0  0  0
 25 23  1  0  0  0  0
 25 26  1  0  0  0  0
 25 24  1  0  0  0  0
 26 27  1  0  0  0  0
 26 33  1  0  0  0  0
 28 34  1  0  0  0  0
 28 27  1  0  0  0  0
 28 29  1  0  0  0  0
 29 36  1  1  0  0  0
 30 24  1  0  0  0  0
 32 26  1  0  0  0  0
 35 28  1  0  0  0  0
 37 38  1  0  0  0  0
 37 29  1  0  0  0  0
M  END
>  <minimizedAffinity>
-5.28966141

$$$$

 OpenBabel03252509153D

 38 41  0  0  1  0  0  0  0  0999 V2000
   34.9940   28.6330   39.3570 C   0  0  0  0  0  0  0  0  0  0  0  0
   36.3600   28.5380   39.6070 C   0  0  0  0  0  0  0  0  0  0  0  0
   37.3220   28.7280   38.6220 C   0  0  0  0  0  0  0  0  0  0  0  0
   36.9210   29.0270   37.3220 C   0  0  0  0  0  0  0  0  0  0  0  0
   37.5310   29.2700   36.1450 N   0  0  0  0  0  0  0  0  0  0  0  0
   36.6180   29.5060   35.1940 C   0  0  0  0  0  0  0  0  0  0  0  0
   35.4170   29.4080   35.7990 N   0  0  0  0  0  0  0  0  0  0  0  0
   35.5620   29.1150   37.0980 C   0  0  0  0  0  0  0  0  0  0  0  0
   34.5840   28.9330   38.0510 C   0  0  0  0  0  0  0  0  0  0  0  0
   34.2830   28.4770   40.1530 H   0  0  0  0  0  0  0  0  0  0  0  0
   38.5830   29.2640   36.0330 H   0  0  0  0  0  0  0  0  0  0  0  0
   36.7860   29.7350   34.1380 H   0  0  0  0  0  0  0  0  0  0  0  0
   33.5270   29.0170   37.8100 H   0  0  0  0  0  0  0  0  0  0  0  0
   37.3430   26.6310   42.5770 C   0  0  0  0  0  0  0  0  0  0  0  0
   37.6450   27.6410   43.5060 C   0  0  0  0  0  0  0  0  0  0  0  0
   37.5050   28.9640   43.0980 C   0  0  0  0  0  0  0  0  0  0  0  0
   37.0840   29.2350   41.8200 N   0  0  0  0  0  0  0  0  0  0  0  0
   36.8050   28.2270   40.9580 C   0  0  0  0  0  0  0  0  0  0  0  0
   36.9240   26.9170   41.3060 N   0  0  0  0  0  0  0  0  0  0  0  0
   37.4470   25.5960   42.8830 H   0  0  0  0  0  0  0  0  0  0  0  0
   37.9740   27.3660   44.5060 H   0  0  0  0  0  0  0  0  0  0  0  0
   37.7280   29.7620   43.7880 H   0  0  0  0  0  0  0  0  0  0  0  0
   39.0540   28.6020   38.9670 S   0  0  0  0  0  0  0  0  0  0  0  0
   40.3010   30.4720   37.6130 N   0  0  0  0  0  0  0  0  0  0  0  0
   39.9200   30.1860   38.9840 C   0  0  1  0  0  0  0  0  0  0  0  0
   38.9100   31.2110   39.4920 C   0  0  0  0  0  0  0  0  0  0  0  0
   39.2260   32.5100   39.1460 O   0  0  0  0  0  0  0  0  0  0  0  0
   40.4800   32.6990   38.6200 C   0  0  0  0  0  0  0  0  0  0  0  0
   40.6570   31.8410   37.3970 C   0  0  1  0  0  0  0  0  0  0  0  0
   40.9890   29.7750   37.3200 H   0  0  0  0  0  0  0  0  0  0  0  0
   40.7670   30.1900   39.6790 H   0  0  0  0  0  0  0  0  0  0  0  0
   38.9270   31.2110   40.5800 H   0  0  0  0  0  0  0  0  0  0  0  0
   37.8760   30.9080   39.1700 H   0  0  0  0  0  0  0  0  0  0  0  0
   40.5790   33.7420   38.3320 H   0  0  0  0  0  0  0  0  0  0  0  0
   41.2290   32.4380   39.4080 H   0  0  0  0  0  0  0  0  0  0  0  0
   40.0860   32.3130   36.5560 H   0  0  0  0  0  0  0  0  0  0  0  0
   42.4310   31.8810   36.9640 S   0  0  0  0  0  0  0  0  0  0  0  0
   42.7730   33.2480   36.8660 H   0  0  0  0  0  0  0  0  0  0  0  0
  1  2  1  0  0  0  0
  1 10  1  0  0  0  0
  2 18  1  0  0  0  0
  3 23  1  0  0  0  0
  3  2  2  0  0  0  0
  4  3  1  0  0  0  0
  5  4  1  0  0  0  0
  6  7  2  0  0  0  0
  6  5  1  0  0  0  0
  7  8  1  0  0  0  0
  8  4  2  0  0  0  0
  8  9  1  0  0  0  0
  9  1  2  0  0  0  0
 11  5  1  0  0  0  0
 12  6  1  0  0  0  0
 13  9  1  0  0  0  0
 14 20  1  0  0  0  0
 14 15  1  0  0  0  0
 15 21  1  0  0  0  0
 16 15  2  0  0  0  0
 16 22  1  0  0  0  0
 17 16  1  0  0  0  0
 18 19  1  0  0  0  0
 18 17  2  0  0  0  0
 19 14  2  0  0  0  0
 23 25  1  0  0  0  0
 24 25  1  0  0  0  0
 25 26  1  0  0  0  0
 25 31  1  1  0  0  0
 26 32  1  0  0  0  0
 27 26  1  0  0  0  0
 28 27  1  0  0  0  0
 28 35  1  0  0  0  0
 29 36  1  6  0  0  0
 29 24  1  0  0  0  0
 29 28  1  0  0  0  0
 30 24  1  0  0  0  0
 33 26  1  0  0  0  0
 34 28  1  0  0  0  0
 37 29  1  0  0  0  0
 38 37  1  0  0  0  0
M  END
>  <minimizedAffinity>
-5.25681496

$$$$

 OpenBabel03252509153D

 38 41  0  0  1  0  0  0  0  0999 V2000
   37.2530   30.8370   36.6820 C   0  0  0  0  0  0  0  0  0  0  0  0
   37.0560   30.7920   38.0590 C   0  0  0  0  0  0  0  0  0  0  0  0
   36.2080   29.8770   38.6700 C   0  0  0  0  0  0  0  0  0  0  0  0
   35.5150   28.9570   37.8870 C   0  0  0  0  0  0  0  0  0  0  0  0
   34.6390   27.9560   38.1040 N   0  0  0  0  0  0  0  0  0  0  0  0
   34.2900   27.3900   36.9410 C   0  0  0  0  0  0  0  0  0  0  0  0
   34.9680   28.0560   35.9850 N   0  0  0  0  0  0  0  0  0  0  0  0
   35.7260   29.0210   36.5250 C   0  0  0  0  0  0  0  0  0  0  0  0
   36.5590   29.9140   35.8880 C   0  0  0  0  0  0  0  0  0  0  0  0
   37.9220   31.5660   36.2510 H   0  0  0  0  0  0  0  0  0  0  0  0
   34.3010   27.6900   39.0710 H   0  0  0  0  0  0  0  0  0  0  0  0
   33.6010   26.5580   36.7750 H   0  0  0  0  0  0  0  0  0  0  0  0
   36.6820   29.9130   34.8080 H   0  0  0  0  0  0  0  0  0  0  0  0
   37.8480   33.8270   39.9530 C   0  0  0  0  0  0  0  0  0  0  0  0
   39.1150   33.5360   40.4870 C   0  0  0  0  0  0  0  0  0  0  0  0
   39.6800   32.3000   40.1860 C   0  0  0  0  0  0  0  0  0  0  0  0
   38.9910   31.4190   39.3910 N   0  0  0  0  0  0  0  0  0  0  0  0
   37.7700   31.7430   38.9000 C   0  0  0  0  0  0  0  0  0  0  0  0
   37.1730   32.9380   39.1630 N   0  0  0  0  0  0  0  0  0  0  0  0
   37.3970   34.7860   40.1800 H   0  0  0  0  0  0  0  0  0  0  0  0
   39.6140   34.2740   41.1100 H   0  0  0  0  0  0  0  0  0  0  0  0
   40.6520   32.0470   40.5790 H   0  0  0  0  0  0  0  0  0  0  0  0
   35.9760   29.8410   40.4250 S   0  0  0  0  0  0  0  0  0  0  0  0
   38.0740   29.7850   42.0020 N   0  0  0  0  0  0  0  0  0  0  0  0
   37.2000   28.8530   41.3100 C   0  0  1  0  0  0  0  0  0  0  0  0
   36.4150   28.0040   42.3060 C   0  0  0  0  0  0  0  0  0  0  0  0
   37.1820   27.5430   43.3580 O   0  0  0  0  0  0  0  0  0  0  0  0
   38.5380   27.7150   43.2280 C   0  0  0  0  0  0  0  0  0  0  0  0
   38.8530   29.1740   43.0330 C   0  0  1  0  0  0  0  0  0  0  0  0
   38.5920   30.3190   41.3010 H   0  0  0  0  0  0  0  0  0  0  0  0
   37.7390   28.1660   40.6480 H   0  0  0  0  0  0  0  0  0  0  0  0
   36.0760   27.1000   41.8050 H   0  0  0  0  0  0  0  0  0  0  0  0
   35.5020   28.5690   42.6400 H   0  0  0  0  0  0  0  0  0  0  0  0
   39.0180   27.3730   44.1420 H   0  0  0  0  0  0  0  0  0  0  0  0
   38.8820   27.1080   42.3550 H   0  0  0  0  0  0  0  0  0  0  0  0
   38.7470   29.6870   44.0240 H   0  0  0  0  0  0  0  0  0  0  0  0
   40.6060   29.2820   42.5290 S   0  0  0  0  0  0  0  0  0  0  0  0
   41.3340   28.5760   43.5120 H   0  0  0  0  0  0  0  0  0  0  0  0
  1  2  1  0  0  0  0
  2  3  2  0  0  0  0
  2 18  1  0  0  0  0
  3 23  1  0  0  0  0
  4  5  1  0  0  0  0
  4  3  1  0  0  0  0
  5 11  1  0  0  0  0
  6  5  1  0  0  0  0
  7  8  1  0  0  0  0
  7  6  2  0  0  0  0
  8  4  2  0  0  0  0
  9  8  1  0  0  0  0
  9  1  2  0  0  0  0
 10  1  1  0  0  0  0
 12  6  1  0  0  0  0
 13  9  1  0  0  0  0
 14 20  1  0  0  0  0
 14 15  1  0  0  0  0
 15 21  1  0  0  0  0
 16 15  2  0  0  0  0
 16 22  1  0  0  0  0
 17 16  1  0  0  0  0
 18 19  1  0  0  0  0
 18 17  2  0  0  0  0
 19 14  2  0  0  0  0
 23 25  1  0  0  0  0
 24 29  1  0  0  0  0
 25 31  1  6  0  0  0
 25 24  1  0  0  0  0
 25 26  1  0  0  0  0
 26 33  1  0  0  0  0
 26 27  1  0  0  0  0
 28 27  1  0  0  0  0
 28 34  1  0  0  0  0
 29 28  1  0  0  0  0
 29 36  1  1  0  0  0
 30 24  1  0  0  0  0
 32 26  1  0  0  0  0
 35 28  1  0  0  0  0
 37 29  1  0  0  0  0
 37 38  1  0  0  0  0
M  END
>  <minimizedAffinity>
-5.25225258

$$$$

 OpenBabel03252509153D

 38 41  0  0  1  0  0  0  0  0999 V2000
   36.9970   28.4720   42.9200 C   0  0  0  0  0  0  0  0  0  0  0  0
   37.6320   28.7240   41.7070 C   0  0  0  0  0  0  0  0  0  0  0  0
   37.9910   27.7160   40.8200 C   0  0  0  0  0  0  0  0  0  0  0  0
   37.7140   26.3900   41.1420 C   0  0  0  0  0  0  0  0  0  0  0  0
   37.9020   25.1870   40.5640 N   0  0  0  0  0  0  0  0  0  0  0  0
   37.4190   24.2180   41.3530 C   0  0  0  0  0  0  0  0  0  0  0  0
   36.9220   24.8380   42.4420 N   0  0  0  0  0  0  0  0  0  0  0  0
   37.0850   26.1650   42.3490 C   0  0  0  0  0  0  0  0  0  0  0  0
   36.7150   27.1400   43.2490 C   0  0  0  0  0  0  0  0  0  0  0  0
   36.7360   29.2870   43.5770 H   0  0  0  0  0  0  0  0  0  0  0  0
   38.3680   25.0710   39.6220 H   0  0  0  0  0  0  0  0  0  0  0  0
   37.4160   23.1400   41.1750 H   0  0  0  0  0  0  0  0  0  0  0  0
   36.2200   26.8970   44.1860 H   0  0  0  0  0  0  0  0  0  0  0  0
   39.4090   31.9130   41.3900 C   0  0  0  0  0  0  0  0  0  0  0  0
   38.4980   32.7020   40.6660 C   0  0  0  0  0  0  0  0  0  0  0  0
   37.2860   32.1270   40.2980 C   0  0  0  0  0  0  0  0  0  0  0  0
   37.0220   30.8270   40.6480 N   0  0  0  0  0  0  0  0  0  0  0  0
   37.9320   30.1030   41.3470 C   0  0  0  0  0  0  0  0  0  0  0  0
   39.1320   30.6170   41.7310 N   0  0  0  0  0  0  0  0  0  0  0  0
   40.3570   32.3490   41.6820 H   0  0  0  0  0  0  0  0  0  0  0  0
   38.7620   33.7280   40.4170 H   0  0  0  0  0  0  0  0  0  0  0  0
   36.5660   32.7080   39.7430 H   0  0  0  0  0  0  0  0  0  0  0  0
   38.7980   28.0650   39.2830 S   0  0  0  0  0  0  0  0  0  0  0  0
   36.3280   28.4140   38.4660 N   0  0  0  0  0  0  0  0  0  0  0  0
   37.6670   28.3510   37.9050 C   0  0  1  0  0  0  0  0  0  0  0  0
   38.0680   29.6950   37.3030 C   0  0  0  0  0  0  0  0  0  0  0  0
   37.0630   30.2860   36.5630 O   0  0  0  0  0  0  0  0  0  0  0  0
   35.9750   29.4930   36.2940 C   0  0  0  0  0  0  0  0  0  0  0  0
   35.3700   28.9990   37.5800 C   0  0  1  0  0  0  0  0  0  0  0  0
   36.0940   27.4930   38.8400 H   0  0  0  0  0  0  0  0  0  0  0  0
   37.7700   27.5950   37.1180 H   0  0  0  0  0  0  0  0  0  0  0  0
   38.8700   29.5320   36.5860 H   0  0  0  0  0  0  0  0  0  0  0  0
   38.4690   30.3620   38.1150 H   0  0  0  0  0  0  0  0  0  0  0  0
   35.2360   30.0900   35.7660 H   0  0  0  0  0  0  0  0  0  0  0  0
   36.3170   28.6400   35.6560 H   0  0  0  0  0  0  0  0  0  0  0  0
   34.8050   29.8480   38.0460 H   0  0  0  0  0  0  0  0  0  0  0  0
   34.1660   27.6970   37.1420 S   0  0  0  0  0  0  0  0  0  0  0  0
   33.3020   28.2760   36.1860 H   0  0  0  0  0  0  0  0  0  0  0  0
  1  9  1  0  0  0  0
  1 10  1  0  0  0  0
  2  1  2  0  0  0  0
  3  4  2  0  0  0  0
  3  2  1  0  0  0  0
  4  8  1  0  0  0  0
  5  4  1  0  0  0  0
  5  6  1  0  0  0  0
  6  7  2  0  0  0  0
  8  7  1  0  0  0  0
  8  9  2  0  0  0  0
  9 13  1  0  0  0  0
 11  5  1  0  0  0  0
 12  6  1  0  0  0  0
 14 20  1  0  0  0  0
 14 19  1  0  0  0  0
 15 14  2  0  0  0  0
 16 17  2  0  0  0  0
 16 15  1  0  0  0  0
 17 18  1  0  0  0  0
 18  2  1  0  0  0  0
 18 19  2  0  0  0  0
 21 15  1  0  0  0  0
 22 16  1  0  0  0  0
 23  3  1  0  0  0  0
 24 30  1  0  0  0  0
 25 31  1  6  0  0  0
 25 24  1  0  0  0  0
 25 23  1  0  0  0  0
 26 25  1  0  0  0  0
 26 33  1  0  0  0  0
 27 26  1  0  0  0  0
 28 27  1  0  0  0  0
 28 29  1  0  0  0  0
 29 36  1  1  0  0  0
 29 24  1  0  0  0  0
 32 26  1  0  0  0  0
 34 28  1  0  0  0  0
 35 28  1  0  0  0  0
 37 29  1  0  0  0  0
 38 37  1  0  0  0  0
M  END
>  <minimizedAffinity>
-5.16430426

$$$$

 OpenBabel03252509153D

 38 41  0  0  1  0  0  0  0  0999 V2000
   36.6400   26.5970   39.4360 C   0  0  0  0  0  0  0  0  0  0  0  0
   36.4770   27.9650   39.2400 C   0  0  0  0  0  0  0  0  0  0  0  0
   36.6020   28.8940   40.2670 C   0  0  0  0  0  0  0  0  0  0  0  0
   36.9040   28.4560   41.5540 C   0  0  0  0  0  0  0  0  0  0  0  0
   37.0970   29.0290   42.7580 N   0  0  0  0  0  0  0  0  0  0  0  0
   37.3690   28.0910   43.6750 C   0  0  0  0  0  0  0  0  0  0  0  0
   37.3420   26.9130   43.0210 N   0  0  0  0  0  0  0  0  0  0  0  0
   37.0610   27.0960   41.7230 C   0  0  0  0  0  0  0  0  0  0  0  0
   36.9440   26.1500   40.7290 C   0  0  0  0  0  0  0  0  0  0  0  0
   36.5340   25.9120   38.6100 H   0  0  0  0  0  0  0  0  0  0  0  0
   37.0340   30.0740   42.9120 H   0  0  0  0  0  0  0  0  0  0  0  0
   37.5730   28.2270   44.7400 H   0  0  0  0  0  0  0  0  0  0  0  0
   37.0800   25.0900   40.9280 H   0  0  0  0  0  0  0  0  0  0  0  0
   34.5730   28.8620   36.2410 C   0  0  0  0  0  0  0  0  0  0  0  0
   35.5680   29.3620   35.3830 C   0  0  0  0  0  0  0  0  0  0  0  0
   36.8790   29.3820   35.8480 C   0  0  0  0  0  0  0  0  0  0  0  0
   37.1550   28.9210   37.1100 N   0  0  0  0  0  0  0  0  0  0  0  0
   36.1620   28.4490   37.9040 C   0  0  0  0  0  0  0  0  0  0  0  0
   34.8630   28.4060   37.4980 N   0  0  0  0  0  0  0  0  0  0  0  0
   33.5480   28.8410   35.8910 H   0  0  0  0  0  0  0  0  0  0  0  0
   35.2900   29.7130   34.3910 H   0  0  0  0  0  0  0  0  0  0  0  0
   37.6650   29.7580   35.2120 H   0  0  0  0  0  0  0  0  0  0  0  0
   36.3890   30.6300   39.9900 S   0  0  0  0  0  0  0  0  0  0  0  0
   38.7390   31.2110   38.9740 N   0  0  0  0  0  0  0  0  0  0  0  0
   37.9150   31.5880   40.1090 C   0  0  1  0  0  0  0  0  0  0  0  0
   37.5000   33.0540   40.0150 C   0  0  0  0  0  0  0  0  0  0  0  0
   38.5280   33.8910   39.6300 O   0  0  0  0  0  0  0  0  0  0  0  0
   39.7820   33.3310   39.6210 C   0  0  0  0  0  0  0  0  0  0  0  0
   39.8000   32.1320   38.7120 C   0  0  1  0  0  0  0  0  0  0  0  0
   39.0080   30.2310   39.0860 H   0  0  0  0  0  0  0  0  0  0  0  0
   38.4180   31.4520   41.0730 H   0  0  0  0  0  0  0  0  0  0  0  0
   37.2250   33.4040   41.0070 H   0  0  0  0  0  0  0  0  0  0  0  0
   36.5900   33.1420   39.3590 H   0  0  0  0  0  0  0  0  0  0  0  0
   40.4850   34.0680   39.2410 H   0  0  0  0  0  0  0  0  0  0  0  0
   40.0420   33.0470   40.6700 H   0  0  0  0  0  0  0  0  0  0  0  0
   39.8100   32.4990   37.6530 H   0  0  0  0  0  0  0  0  0  0  0  0
   41.3730   31.2530   39.0150 S   0  0  0  0  0  0  0  0  0  0  0  0
   42.3910   32.2180   38.8550 H   0  0  0  0  0  0  0  0  0  0  0  0
  1  9  1  0  0  0  0
  2  1  2  0  0  0  0
  2  3  1  0  0  0  0
  3  4  2  0  0  0  0
  4  8  1  0  0  0  0
  4  5  1  0  0  0  0
  5 11  1  0  0  0  0
  5  6  1  0  0  0  0
  6 12  1  0  0  0  0
  7  6  2  0  0  0  0
  8  7  1  0  0  0  0
  9 13  1  0  0  0  0
  9  8  2  0  0  0  0
 10  1  1  0  0  0  0
 14 19  1  0  0  0  0
 15 16  1  0  0  0  0
 15 14  2  0  0  0  0
 16 17  2  0  0  0  0
 17 18  1  0  0  0  0
 18  2  1  0  0  0  0
 19 18  2  0  0  0  0
 20 14  1  0  0  0  0
 21 15  1  0  0  0  0
 22 16  1  0  0  0  0
 23 25  1  0  0  0  0
 23  3  1  0  0  0  0
 24 30  1  0  0  0  0
 24 25  1  0  0  0  0
 25 31  1  1  0  0  0
 26 25  1  0  0  0  0
 26 32  1  0  0  0  0
 27 26  1  0  0  0  0
 28 27  1  0  0  0  0
 28 35  1  0  0  0  0
 29 36  1  6  0  0  0
 29 24  1  0  0  0  0
 29 37  1  0  0  0  0
 29 28  1  0  0  0  0
 33 26  1  0  0  0  0
 34 28  1  0  0  0  0
 38 37  1  0  0  0  0
M  END
>  <minimizedAffinity>
-5.11837959

$$$$

 OpenBabel03252509153D

 38 41  0  0  1  0  0  0  0  0999 V2000
   34.5080   28.1700   38.2510 C   0  0  0  0  0  0  0  0  0  0  0  0
   35.8590   28.2270   38.5840 C   0  0  0  0  0  0  0  0  0  0  0  0
   36.8300   28.7110   37.7160 C   0  0  0  0  0  0  0  0  0  0  0  0
   36.4560   29.1620   36.4530 C   0  0  0  0  0  0  0  0  0  0  0  0
   37.0830   29.6790   35.3780 N   0  0  0  0  0  0  0  0  0  0  0  0
   36.1950   29.9400   34.4100 C   0  0  0  0  0  0  0  0  0  0  0  0
   34.9930   29.5750   34.9000 N   0  0  0  0  0  0  0  0  0  0  0  0
   35.1130   29.0950   36.1450 C   0  0  0  0  0  0  0  0  0  0  0  0
   34.1260   28.6220   36.9810 C   0  0  0  0  0  0  0  0  0  0  0  0
   33.7890   27.7860   38.9570 H   0  0  0  0  0  0  0  0  0  0  0  0
   38.1280   29.8390   35.3460 H   0  0  0  0  0  0  0  0  0  0  0  0
   36.3800   30.3610   33.4180 H   0  0  0  0  0  0  0  0  0  0  0  0
   33.0820   28.5960   36.6770 H   0  0  0  0  0  0  0  0  0  0  0  0
   36.6060   28.1970   42.1710 C   0  0  0  0  0  0  0  0  0  0  0  0
   37.0600   26.8830   42.3810 C   0  0  0  0  0  0  0  0  0  0  0  0
   37.1030   26.0270   41.2850 C   0  0  0  0  0  0  0  0  0  0  0  0
   36.7070   26.4850   40.0540 N   0  0  0  0  0  0  0  0  0  0  0  0
   36.2750   27.7620   39.9000 C   0  0  0  0  0  0  0  0  0  0  0  0
   36.2130   28.6400   40.9380 N   0  0  0  0  0  0  0  0  0  0  0  0
   36.5670   28.8740   43.0170 H   0  0  0  0  0  0  0  0  0  0  0  0
   37.3620   26.5760   43.3790 H   0  0  0  0  0  0  0  0  0  0  0  0
   37.4480   25.0130   41.4130 H   0  0  0  0  0  0  0  0  0  0  0  0
   38.5420   28.7730   38.1670 S   0  0  0  0  0  0  0  0  0  0  0  0
   37.7640   30.9430   39.4220 N   0  0  0  0  0  0  0  0  0  0  0  0
   38.9930   30.2180   39.1490 C   0  0  1  0  0  0  0  0  0  0  0  0
   39.6030   29.6770   40.4390 C   0  0  0  0  0  0  0  0  0  0  0  0
   39.5810   30.5860   41.4790 O   0  0  0  0  0  0  0  0  0  0  0  0
   39.2440   31.8730   41.1400 C   0  0  0  0  0  0  0  0  0  0  0  0
   37.8890   31.8910   40.4850 C   0  0  1  0  0  0  0  0  0  0  0  0
   37.4010   31.3020   38.5370 H   0  0  0  0  0  0  0  0  0  0  0  0
   39.7580   30.8330   38.6590 H   0  0  0  0  0  0  0  0  0  0  0  0
   40.6600   29.4830   40.2730 H   0  0  0  0  0  0  0  0  0  0  0  0
   39.1150   28.6980   40.7000 H   0  0  0  0  0  0  0  0  0  0  0  0
   39.2010   32.4680   42.0490 H   0  0  0  0  0  0  0  0  0  0  0  0
   40.0300   32.2670   40.4500 H   0  0  0  0  0  0  0  0  0  0  0  0
   37.1150   31.7550   41.2850 H   0  0  0  0  0  0  0  0  0  0  0  0
   37.6640   33.5540   39.7630 S   0  0  0  0  0  0  0  0  0  0  0  0
   37.9010   34.4660   40.8140 H   0  0  0  0  0  0  0  0  0  0  0  0
  1  2  1  0  0  0  0
  1 10  1  0  0  0  0
  2 18  1  0  0  0  0
  3 23  1  0  0  0  0
  3  2  2  0  0  0  0
  4  3  1  0  0  0  0
  5  4  1  0  0  0  0
  6  7  2  0  0  0  0
  6  5  1  0  0  0  0
  7  8  1  0  0  0  0
  8  4  2  0  0  0  0
  8  9  1  0  0  0  0
  9  1  2  0  0  0  0
 11  5  1  0  0  0  0
 12  6  1  0  0  0  0
 13  9  1  0  0  0  0
 14 15  1  0  0  0  0
 14 20  1  0  0  0  0
 15 21  1  0  0  0  0
 16 22  1  0  0  0  0
 16 15  2  0  0  0  0
 17 16  1  0  0  0  0
 18 17  2  0  0  0  0
 18 19  1  0  0  0  0
 19 14  2  0  0  0  0
 23 25  1  0  0  0  0
 24 29  1  0  0  0  0
 25 31  1  6  0  0  0
 25 24  1  0  0  0  0
 25 26  1  0  0  0  0
 26 33  1  0  0  0  0
 26 27  1  0  0  0  0
 28 27  1  0  0  0  0
 28 34  1  0  0  0  0
 29 28  1  0  0  0  0
 29 36  1  1  0  0  0
 30 24  1  0  0  0  0
 32 26  1  0  0  0  0
 35 28  1  0  0  0  0
 37 29  1  0  0  0  0
 37 38  1  0  0  0  0
M  END
>  <minimizedAffinity>
-5.0438633

$$$$
