
 OpenBabel03252503033D

 26 26  0  0  0  0  0  0  0  0999 V2000
   40.6500   33.4320   40.0540 C   0  0  0  0  0  0  0  0  0  0  0  0
   41.0420   32.3980   40.0030 H   0  0  0  0  0  0  0  0  0  0  0  0
   41.1420   33.9550   40.9000 H   0  0  0  0  0  0  0  0  0  0  0  0
   40.9410   34.1610   38.8320 N   0  0  0  0  0  0  0  0  0  0  0  0
   40.0940   34.6880   38.5210 H   0  0  0  0  0  0  0  0  0  0  0  0
   41.5430   33.1680   37.5720 S   0  0  0  0  0  0  0  0  0  0  0  0
   40.4360   32.5370   36.7970 O   0  0  0  0  0  0  0  0  0  0  0  0
   39.5430   32.3390   37.1650 H   0  0  0  0  0  0  0  0  0  0  0  0
   42.3630   34.0620   36.6840 O   0  0  0  0  0  0  0  0  0  0  0  0
   43.1040   34.6460   37.0080 H   0  0  0  0  0  0  0  0  0  0  0  0
   42.5740   32.0120   38.2100 O   0  0  0  0  0  0  0  0  0  0  0  0
   43.5400   31.6090   37.3000 C   0  0  0  0  0  0  0  0  0  0  0  0
   44.4590   31.2410   37.7920 H   0  0  0  0  0  0  0  0  0  0  0  0
   43.8190   32.4050   36.5730 H   0  0  0  0  0  0  0  0  0  0  0  0
   43.1140   30.7660   36.7040 H   0  0  0  0  0  0  0  0  0  0  0  0
   38.8770   33.5420   40.3160 S   0  0  0  0  0  0  0  0  0  0  0  0
   39.0920   31.0730   41.5590 C   0  0  0  0  0  0  0  0  0  0  0  0
   38.2570   31.9360   40.8790 C   0  0  0  0  0  0  0  0  0  0  0  0
   36.9170   31.6000   40.6070 C   0  0  0  0  0  0  0  0  0  0  0  0
   36.5160   30.3830   41.0570 N   0  0  0  0  0  0  0  0  0  0  0  0
   37.3440   29.5710   41.7100 C   0  0  0  0  0  0  0  0  0  0  0  0
   38.6160   29.8840   41.9710 N   0  0  0  0  0  0  0  0  0  0  0  0
   40.1220   31.3350   41.7660 H   0  0  0  0  0  0  0  0  0  0  0  0
   36.2540   32.2440   40.0880 H   0  0  0  0  0  0  0  0  0  0  0  0
   36.7460   27.9720   42.2770 S   0  0  0  0  0  0  0  0  0  0  0  0
   37.5980   27.0040   41.6640 H   0  0  0  0  0  0  0  0  0  0  0  0
  1 16  1  0  0  0  0
  1  3  1  0  0  0  0
  2  1  1  0  0  0  0
  4  1  1  0  0  0  0
  5  4  1  0  0  0  0
  6 11  1  0  0  0  0
  6  4  1  0  0  0  0
  7  8  1  0  0  0  0
  7  6  1  0  0  0  0
  9 10  1  0  0  0  0
  9  6  1  0  0  0  0
 12 13  1  0  0  0  0
 12 11  1  0  0  0  0
 14 12  1  0  0  0  0
 15 12  1  0  0  0  0
 16 18  1  0  0  0  0
 17 23  1  0  0  0  0
 17 22  1  0  0  0  0
 18 17  2  0  0  0  0
 19 18  1  0  0  0  0
 19 20  2  0  0  0  0
 20 21  1  0  0  0  0
 21 22  2  0  0  0  0
 21 25  1  0  0  0  0
 24 19  1  0  0  0  0
 26 25  1  0  0  0  0
M  END
>  <minimizedAffinity>
-4.47120762

$$$$

 OpenBabel03252503033D

 26 26  0  0  0  0  0  0  0  0999 V2000
   37.0020   31.4210   39.6990 C   0  0  0  0  0  0  0  0  0  0  0  0
   36.6000   31.4880   38.6690 H   0  0  0  0  0  0  0  0  0  0  0  0
   38.0220   30.9870   39.6520 H   0  0  0  0  0  0  0  0  0  0  0  0
   37.0890   32.7350   40.3100 N   0  0  0  0  0  0  0  0  0  0  0  0
   36.4820   33.4110   39.7920 H   0  0  0  0  0  0  0  0  0  0  0  0
   38.6930   33.3230   40.4400 S   0  0  0  0  0  0  0  0  0  0  0  0
   39.0720   34.1430   39.2520 O   0  0  0  0  0  0  0  0  0  0  0  0
   38.6840   34.0290   38.3530 H   0  0  0  0  0  0  0  0  0  0  0  0
   38.7380   34.1570   41.6900 O   0  0  0  0  0  0  0  0  0  0  0  0
   38.4460   33.8370   42.5880 H   0  0  0  0  0  0  0  0  0  0  0  0
   39.7470   32.0400   40.6550 O   0  0  0  0  0  0  0  0  0  0  0  0
   41.0500   32.4610   40.8740 C   0  0  0  0  0  0  0  0  0  0  0  0
   41.6410   31.7280   41.4560 H   0  0  0  0  0  0  0  0  0  0  0  0
   41.1130   33.4510   41.3790 H   0  0  0  0  0  0  0  0  0  0  0  0
   41.5410   32.5780   39.8780 H   0  0  0  0  0  0  0  0  0  0  0  0
   36.0330   30.3940   40.8080 S   0  0  0  0  0  0  0  0  0  0  0  0
   38.0570   29.6540   42.5520 C   0  0  0  0  0  0  0  0  0  0  0  0
   37.1270   29.2100   41.6330 C   0  0  0  0  0  0  0  0  0  0  0  0
   37.0040   27.8450   41.3140 C   0  0  0  0  0  0  0  0  0  0  0  0
   37.8530   27.0110   41.9670 N   0  0  0  0  0  0  0  0  0  0  0  0
   38.7400   27.4680   42.8490 C   0  0  0  0  0  0  0  0  0  0  0  0
   38.8630   28.7610   43.1570 N   0  0  0  0  0  0  0  0  0  0  0  0
   38.1500   30.7050   42.7960 H   0  0  0  0  0  0  0  0  0  0  0  0
   36.2990   27.4780   40.6130 H   0  0  0  0  0  0  0  0  0  0  0  0
   39.8370   26.3070   43.6790 S   0  0  0  0  0  0  0  0  0  0  0  0
   41.1610   26.7360   43.3620 H   0  0  0  0  0  0  0  0  0  0  0  0
  1  4  1  0  0  0  0
  1 16  1  0  0  0  0
  2  1  1  0  0  0  0
  3  1  1  0  0  0  0
  4  6  1  0  0  0  0
  5  4  1  0  0  0  0
  6 11  1  0  0  0  0
  6  9  1  0  0  0  0
  7  6  1  0  0  0  0
  8  7  1  0  0  0  0
  9 10  1  0  0  0  0
 11 12  1  0  0  0  0
 12 14  1  0  0  0  0
 12 13  1  0  0  0  0
 15 12  1  0  0  0  0
 16 18  1  0  0  0  0
 17 23  1  0  0  0  0
 17 22  1  0  0  0  0
 18 17  2  0  0  0  0
 19 18  1  0  0  0  0
 19 20  2  0  0  0  0
 20 21  1  0  0  0  0
 21 22  2  0  0  0  0
 21 25  1  0  0  0  0
 24 19  1  0  0  0  0
 26 25  1  0  0  0  0
M  END
>  <minimizedAffinity>
-4.43268299

$$$$

 OpenBabel03252503033D

 26 26  0  0  0  0  0  0  0  0999 V2000
   36.8150   30.6370   40.3290 C   0  0  0  0  0  0  0  0  0  0  0  0
   35.9020   30.1150   39.9800 H   0  0  0  0  0  0  0  0  0  0  0  0
   37.5710   30.6080   39.5170 H   0  0  0  0  0  0  0  0  0  0  0  0
   36.5320   32.0260   40.6440 N   0  0  0  0  0  0  0  0  0  0  0  0
   35.5390   32.2500   40.4080 H   0  0  0  0  0  0  0  0  0  0  0  0
   37.6070   33.1290   39.8920 S   0  0  0  0  0  0  0  0  0  0  0  0
   36.8690   34.1540   39.0970 O   0  0  0  0  0  0  0  0  0  0  0  0
   35.9840   34.0090   38.6890 H   0  0  0  0  0  0  0  0  0  0  0  0
   38.3850   33.7830   40.9990 O   0  0  0  0  0  0  0  0  0  0  0  0
   38.8860   33.2830   41.7020 H   0  0  0  0  0  0  0  0  0  0  0  0
   38.6990   32.2900   38.9390 O   0  0  0  0  0  0  0  0  0  0  0  0
   39.9970   32.3880   39.4150 C   0  0  0  0  0  0  0  0  0  0  0  0
   40.6230   31.5250   39.1220 H   0  0  0  0  0  0  0  0  0  0  0  0
   40.0520   32.5090   40.5200 H   0  0  0  0  0  0  0  0  0  0  0  0
   40.4540   33.3050   38.9700 H   0  0  0  0  0  0  0  0  0  0  0  0
   37.5700   29.9160   41.7900 S   0  0  0  0  0  0  0  0  0  0  0  0
   38.2330   27.5240   40.5540 C   0  0  0  0  0  0  0  0  0  0  0  0
   37.5890   28.1130   41.6240 C   0  0  0  0  0  0  0  0  0  0  0  0
   36.9360   27.3410   42.6030 C   0  0  0  0  0  0  0  0  0  0  0  0
   36.9870   25.9970   42.4200 N   0  0  0  0  0  0  0  0  0  0  0  0
   37.6160   25.4570   41.3780 C   0  0  0  0  0  0  0  0  0  0  0  0
   38.2380   26.1830   40.4460 N   0  0  0  0  0  0  0  0  0  0  0  0
   38.7340   28.1210   39.8030 H   0  0  0  0  0  0  0  0  0  0  0  0
   36.4340   27.7670   43.4340 H   0  0  0  0  0  0  0  0  0  0  0  0
   37.6450   23.6670   41.1960 S   0  0  0  0  0  0  0  0  0  0  0  0
   37.0500   23.4000   39.9260 H   0  0  0  0  0  0  0  0  0  0  0  0
  1  4  1  0  0  0  0
  1 16  1  0  0  0  0
  2  1  1  0  0  0  0
  3  1  1  0  0  0  0
  5  4  1  0  0  0  0
  6  4  1  0  0  0  0
  6  9  1  0  0  0  0
  7  6  1  0  0  0  0
  8  7  1  0  0  0  0
  9 10  1  0  0  0  0
 11 12  1  0  0  0  0
 11  6  1  0  0  0  0
 12 14  1  0  0  0  0
 13 12  1  0  0  0  0
 15 12  1  0  0  0  0
 17 18  1  0  0  0  0
 18 16  1  0  0  0  0
 18 19  2  0  0  0  0
 19 24  1  0  0  0  0
 20 19  1  0  0  0  0
 21 20  2  0  0  0  0
 22 17  2  0  0  0  0
 22 21  1  0  0  0  0
 23 17  1  0  0  0  0
 25 21  1  0  0  0  0
 26 25  1  0  0  0  0
M  END
>  <minimizedAffinity>
-4.24081182

$$$$

 OpenBabel03252503033D

 26 26  0  0  0  0  0  0  0  0999 V2000
   36.9620   28.0660   43.2730 C   0  0  0  0  0  0  0  0  0  0  0  0
   36.4930   27.9470   44.2690 H   0  0  0  0  0  0  0  0  0  0  0  0
   36.2850   27.6300   42.5100 H   0  0  0  0  0  0  0  0  0  0  0  0
   37.1640   29.4700   42.9580 N   0  0  0  0  0  0  0  0  0  0  0  0
   36.7190   30.0670   43.6910 H   0  0  0  0  0  0  0  0  0  0  0  0
   36.6170   29.9040   41.3940 S   0  0  0  0  0  0  0  0  0  0  0  0
   35.6850   31.0690   41.4450 O   0  0  0  0  0  0  0  0  0  0  0  0
   35.1190   31.2930   42.2200 H   0  0  0  0  0  0  0  0  0  0  0  0
   37.8440   30.2480   40.5970 O   0  0  0  0  0  0  0  0  0  0  0  0
   38.6350   29.6480   40.4990 H   0  0  0  0  0  0  0  0  0  0  0  0
   35.8970   28.5810   40.6610 O   0  0  0  0  0  0  0  0  0  0  0  0
   34.8680   28.9480   39.8080 C   0  0  0  0  0  0  0  0  0  0  0  0
   34.7010   28.2100   39.0010 H   0  0  0  0  0  0  0  0  0  0  0  0
   35.0150   29.9510   39.3470 H   0  0  0  0  0  0  0  0  0  0  0  0
   33.9310   29.0080   40.4110 H   0  0  0  0  0  0  0  0  0  0  0  0
   38.5570   27.2590   43.1010 S   0  0  0  0  0  0  0  0  0  0  0  0
   39.4310   25.1170   41.5730 C   0  0  0  0  0  0  0  0  0  0  0  0
   38.3460   25.7120   42.1830 C   0  0  0  0  0  0  0  0  0  0  0  0
   37.0600   25.1430   42.1120 C   0  0  0  0  0  0  0  0  0  0  0  0
   36.9700   23.9840   41.4100 N   0  0  0  0  0  0  0  0  0  0  0  0
   38.0350   23.4330   40.8320 C   0  0  0  0  0  0  0  0  0  0  0  0
   39.2570   23.9670   40.8960 N   0  0  0  0  0  0  0  0  0  0  0  0
   40.4190   25.5570   41.6300 H   0  0  0  0  0  0  0  0  0  0  0  0
   36.2100   25.5790   42.5710 H   0  0  0  0  0  0  0  0  0  0  0  0
   37.8450   21.8960   39.9160 S   0  0  0  0  0  0  0  0  0  0  0  0
   38.2980   22.1790   38.5920 H   0  0  0  0  0  0  0  0  0  0  0  0
  1  2  1  0  0  0  0
  3  1  1  0  0  0  0
  4  1  1  0  0  0  0
  4  5  1  0  0  0  0
  6  7  1  0  0  0  0
  6  4  1  0  0  0  0
  7  8  1  0  0  0  0
  9  6  1  0  0  0  0
 10  9  1  0  0  0  0
 11  6  1  0  0  0  0
 12 15  1  0  0  0  0
 12 11  1  0  0  0  0
 13 12  1  0  0  0  0
 14 12  1  0  0  0  0
 16  1  1  0  0  0  0
 17 23  1  0  0  0  0
 17 18  1  0  0  0  0
 18 16  1  0  0  0  0
 19 18  2  0  0  0  0
 19 24  1  0  0  0  0
 20 19  1  0  0  0  0
 21 22  1  0  0  0  0
 21 20  2  0  0  0  0
 22 17  2  0  0  0  0
 25 21  1  0  0  0  0
 26 25  1  0  0  0  0
M  END
>  <minimizedAffinity>
-4.21095705

$$$$

 OpenBabel03252503033D

 26 26  0  0  0  0  0  0  0  0999 V2000
   39.1100   31.5780   41.5470 C   0  0  0  0  0  0  0  0  0  0  0  0
   39.8810   32.1650   41.0110 H   0  0  0  0  0  0  0  0  0  0  0  0
   38.4220   32.2820   42.0600 H   0  0  0  0  0  0  0  0  0  0  0  0
   38.3340   30.7700   40.6220 N   0  0  0  0  0  0  0  0  0  0  0  0
   38.8710   30.6270   39.7370 H   0  0  0  0  0  0  0  0  0  0  0  0
   36.7760   31.4050   40.3010 S   0  0  0  0  0  0  0  0  0  0  0  0
   35.7870   30.9720   41.3310 O   0  0  0  0  0  0  0  0  0  0  0  0
   35.8560   30.1380   41.8510 H   0  0  0  0  0  0  0  0  0  0  0  0
   36.9200   32.9010   40.3070 O   0  0  0  0  0  0  0  0  0  0  0  0
   37.5840   33.4020   39.7570 H   0  0  0  0  0  0  0  0  0  0  0  0
   36.2900   30.9530   38.7630 O   0  0  0  0  0  0  0  0  0  0  0  0
   37.3060   31.0850   37.8300 C   0  0  0  0  0  0  0  0  0  0  0  0
   37.1880   30.3970   36.9730 H   0  0  0  0  0  0  0  0  0  0  0  0
   38.3220   30.9420   38.2630 H   0  0  0  0  0  0  0  0  0  0  0  0
   37.2710   32.1290   37.4340 H   0  0  0  0  0  0  0  0  0  0  0  0
   39.7600   30.4610   42.7940 S   0  0  0  0  0  0  0  0  0  0  0  0
   37.7760   28.5590   43.1610 C   0  0  0  0  0  0  0  0  0  0  0  0
   39.0020   28.8300   42.5870 C   0  0  0  0  0  0  0  0  0  0  0  0
   39.6890   27.8590   41.8330 C   0  0  0  0  0  0  0  0  0  0  0  0
   39.0660   26.6590   41.7160 N   0  0  0  0  0  0  0  0  0  0  0  0
   37.8840   26.4270   42.2820 C   0  0  0  0  0  0  0  0  0  0  0  0
   37.2260   27.3420   42.9980 N   0  0  0  0  0  0  0  0  0  0  0  0
   37.2500   29.3080   43.7410 H   0  0  0  0  0  0  0  0  0  0  0  0
   40.6310   28.0400   41.3810 H   0  0  0  0  0  0  0  0  0  0  0  0
   37.1140   24.8120   42.0870 S   0  0  0  0  0  0  0  0  0  0  0  0
   36.9220   24.3160   43.4120 H   0  0  0  0  0  0  0  0  0  0  0  0
  1  3  1  0  0  0  0
  1 16  1  0  0  0  0
  2  1  1  0  0  0  0
  4  1  1  0  0  0  0
  5  4  1  0  0  0  0
  6  9  1  0  0  0  0
  6  4  1  0  0  0  0
  6  7  1  0  0  0  0
  7  8  1  0  0  0  0
 10  9  1  0  0  0  0
 11  6  1  0  0  0  0
 12 14  1  0  0  0  0
 12 11  1  0  0  0  0
 13 12  1  0  0  0  0
 15 12  1  0  0  0  0
 17 23  1  0  0  0  0
 18 16  1  0  0  0  0
 18 17  2  0  0  0  0
 19 18  1  0  0  0  0
 20 19  2  0  0  0  0
 20 21  1  0  0  0  0
 21 22  2  0  0  0  0
 22 17  1  0  0  0  0
 24 19  1  0  0  0  0
 25 21  1  0  0  0  0
 25 26  1  0  0  0  0
M  END
>  <minimizedAffinity>
-4.20627403

$$$$

 OpenBabel03252503033D

 26 26  0  0  0  0  0  0  0  0999 V2000
   38.3690   29.1430   40.8550 C   0  0  0  0  0  0  0  0  0  0  0  0
   37.9150   28.9780   39.8580 H   0  0  0  0  0  0  0  0  0  0  0  0
   39.4620   28.9670   40.7780 H   0  0  0  0  0  0  0  0  0  0  0  0
   38.1540   30.5070   41.3050 N   0  0  0  0  0  0  0  0  0  0  0  0
   38.1040   30.5350   42.3480 H   0  0  0  0  0  0  0  0  0  0  0  0
   36.7790   31.2500   40.6030 S   0  0  0  0  0  0  0  0  0  0  0  0
   35.5470   30.9800   41.3990 O   0  0  0  0  0  0  0  0  0  0  0  0
   35.4140   30.1830   41.9630 H   0  0  0  0  0  0  0  0  0  0  0  0
   37.0670   32.7240   40.5640 O   0  0  0  0  0  0  0  0  0  0  0  0
   37.8850   33.1250   40.1560 H   0  0  0  0  0  0  0  0  0  0  0  0
   36.6050   30.7310   39.0190 O   0  0  0  0  0  0  0  0  0  0  0  0
   37.3160   31.5190   38.1270 C   0  0  0  0  0  0  0  0  0  0  0  0
   37.6000   30.9700   37.2090 H   0  0  0  0  0  0  0  0  0  0  0  0
   38.2320   31.9690   38.5700 H   0  0  0  0  0  0  0  0  0  0  0  0
   36.6560   32.3670   37.8240 H   0  0  0  0  0  0  0  0  0  0  0  0
   37.7410   28.0650   42.1460 S   0  0  0  0  0  0  0  0  0  0  0  0
   38.4480   25.3890   42.3190 C   0  0  0  0  0  0  0  0  0  0  0  0
   37.7970   26.3490   41.5700 C   0  0  0  0  0  0  0  0  0  0  0  0
   37.1680   26.0280   40.3520 C   0  0  0  0  0  0  0  0  0  0  0  0
   37.2460   24.7250   39.9780 N   0  0  0  0  0  0  0  0  0  0  0  0
   37.8800   23.8210   40.7210 C   0  0  0  0  0  0  0  0  0  0  0  0
   38.4800   24.1180   41.8760 N   0  0  0  0  0  0  0  0  0  0  0  0
   38.9310   25.6390   43.2550 H   0  0  0  0  0  0  0  0  0  0  0  0
   36.6620   26.7450   39.7580 H   0  0  0  0  0  0  0  0  0  0  0  0
   37.9470   22.1110   40.1640 S   0  0  0  0  0  0  0  0  0  0  0  0
   39.3350   21.7940   40.0620 H   0  0  0  0  0  0  0  0  0  0  0  0
  1  4  1  0  0  0  0
  1 16  1  0  0  0  0
  2  1  1  0  0  0  0
  3  1  1  0  0  0  0
  4  5  1  0  0  0  0
  6  4  1  0  0  0  0
  6  7  1  0  0  0  0
  7  8  1  0  0  0  0
  9  6  1  0  0  0  0
 10  9  1  0  0  0  0
 11  6  1  0  0  0  0
 12 14  1  0  0  0  0
 12 11  1  0  0  0  0
 13 12  1  0  0  0  0
 15 12  1  0  0  0  0
 17 23  1  0  0  0  0
 18 16  1  0  0  0  0
 18 17  2  0  0  0  0
 19 18  1  0  0  0  0
 20 19  2  0  0  0  0
 20 21  1  0  0  0  0
 21 22  2  0  0  0  0
 22 17  1  0  0  0  0
 24 19  1  0  0  0  0
 25 21  1  0  0  0  0
 26 25  1  0  0  0  0
M  END
>  <minimizedAffinity>
-4.10534525

$$$$

 OpenBabel03252503033D

 26 26  0  0  0  0  0  0  0  0999 V2000
   37.2690   29.4720   38.7820 C   0  0  0  0  0  0  0  0  0  0  0  0
   37.6220   29.4230   37.7340 H   0  0  0  0  0  0  0  0  0  0  0  0
   38.1530   29.5160   39.4510 H   0  0  0  0  0  0  0  0  0  0  0  0
   36.4640   30.6600   39.0050 N   0  0  0  0  0  0  0  0  0  0  0  0
   36.5910   31.3300   38.2140 H   0  0  0  0  0  0  0  0  0  0  0  0
   36.7710   31.4200   40.5100 S   0  0  0  0  0  0  0  0  0  0  0  0
   36.8160   32.9050   40.3720 O   0  0  0  0  0  0  0  0  0  0  0  0
   37.0700   33.3780   39.5460 H   0  0  0  0  0  0  0  0  0  0  0  0
   35.6530   31.0110   41.4260 O   0  0  0  0  0  0  0  0  0  0  0  0
   35.3880   30.0650   41.5990 H   0  0  0  0  0  0  0  0  0  0  0  0
   38.1960   30.8270   41.1600 O   0  0  0  0  0  0  0  0  0  0  0  0
   39.1800   31.7990   41.2450 C   0  0  0  0  0  0  0  0  0  0  0  0
   39.9120   31.5940   42.0490 H   0  0  0  0  0  0  0  0  0  0  0  0
   38.7730   32.8260   41.3890 H   0  0  0  0  0  0  0  0  0  0  0  0
   39.7340   31.8080   40.2760 H   0  0  0  0  0  0  0  0  0  0  0  0
   36.2770   28.0670   39.2980 S   0  0  0  0  0  0  0  0  0  0  0  0
   37.5430   27.4100   41.6760 C   0  0  0  0  0  0  0  0  0  0  0  0
   37.2640   27.0070   40.3860 C   0  0  0  0  0  0  0  0  0  0  0  0
   37.7320   25.7790   39.8830 C   0  0  0  0  0  0  0  0  0  0  0  0
   38.4650   25.0320   40.7490 N   0  0  0  0  0  0  0  0  0  0  0  0
   38.7180   25.4470   41.9880 C   0  0  0  0  0  0  0  0  0  0  0  0
   38.2770   26.6110   42.4720 N   0  0  0  0  0  0  0  0  0  0  0  0
   37.1810   28.3560   42.0600 H   0  0  0  0  0  0  0  0  0  0  0  0
   37.5330   25.4450   38.8970 H   0  0  0  0  0  0  0  0  0  0  0  0
   39.6970   24.4080   43.0840 S   0  0  0  0  0  0  0  0  0  0  0  0
   40.8170   25.2050   43.4690 H   0  0  0  0  0  0  0  0  0  0  0  0
  1  4  1  0  0  0  0
  1 16  1  0  0  0  0
  1  3  1  0  0  0  0
  2  1  1  0  0  0  0
  4  6  1  0  0  0  0
  5  4  1  0  0  0  0
  6 11  1  0  0  0  0
  6  9  1  0  0  0  0
  7  6  1  0  0  0  0
  8  7  1  0  0  0  0
  9 10  1  0  0  0  0
 11 12  1  0  0  0  0
 12 14  1  0  0  0  0
 12 13  1  0  0  0  0
 15 12  1  0  0  0  0
 16 18  1  0  0  0  0
 17 23  1  0  0  0  0
 17 22  1  0  0  0  0
 18 17  2  0  0  0  0
 19 18  1  0  0  0  0
 19 20  2  0  0  0  0
 20 21  1  0  0  0  0
 21 22  2  0  0  0  0
 21 25  1  0  0  0  0
 24 19  1  0  0  0  0
 25 26  1  0  0  0  0
M  END
>  <minimizedAffinity>
-4.10352993

$$$$

 OpenBabel03252503033D

 26 26  0  0  0  0  0  0  0  0999 V2000
   36.3980   30.9500   40.8370 C   0  0  0  0  0  0  0  0  0  0  0  0
   36.7710   31.2890   41.8240 H   0  0  0  0  0  0  0  0  0  0  0  0
   35.5770   31.6250   40.5190 H   0  0  0  0  0  0  0  0  0  0  0  0
   37.4500   31.0020   39.8370 N   0  0  0  0  0  0  0  0  0  0  0  0
   38.3330   30.6000   40.2260 H   0  0  0  0  0  0  0  0  0  0  0  0
   37.7150   32.5730   39.2070 S   0  0  0  0  0  0  0  0  0  0  0  0
   37.5230   32.6070   37.7270 O   0  0  0  0  0  0  0  0  0  0  0  0
   37.6570   31.8330   37.1320 H   0  0  0  0  0  0  0  0  0  0  0  0
   36.7240   33.4750   39.8860 O   0  0  0  0  0  0  0  0  0  0  0  0
   36.6170   33.5460   40.8750 H   0  0  0  0  0  0  0  0  0  0  0  0
   39.2470   33.1000   39.6330 O   0  0  0  0  0  0  0  0  0  0  0  0
   39.2170   34.0270   40.6630 C   0  0  0  0  0  0  0  0  0  0  0  0
   40.1510   34.0340   41.2550 H   0  0  0  0  0  0  0  0  0  0  0  0
   38.3580   33.8860   41.3570 H   0  0  0  0  0  0  0  0  0  0  0  0
   39.0970   35.0390   40.2060 H   0  0  0  0  0  0  0  0  0  0  0  0
   35.7500   29.2750   40.8240 S   0  0  0  0  0  0  0  0  0  0  0  0
   37.6560   27.2610   40.7730 C   0  0  0  0  0  0  0  0  0  0  0  0
   36.9690   28.1590   41.5650 C   0  0  0  0  0  0  0  0  0  0  0  0
   37.1900   28.2320   42.9530 C   0  0  0  0  0  0  0  0  0  0  0  0
   38.1160   27.3690   43.4460 N   0  0  0  0  0  0  0  0  0  0  0  0
   38.7630   26.5140   42.6570 C   0  0  0  0  0  0  0  0  0  0  0  0
   38.5580   26.4390   41.3400 N   0  0  0  0  0  0  0  0  0  0  0  0
   37.4830   27.2070   39.7060 H   0  0  0  0  0  0  0  0  0  0  0  0
   36.6770   28.9120   43.5850 H   0  0  0  0  0  0  0  0  0  0  0  0
   39.9770   25.3970   43.3760 S   0  0  0  0  0  0  0  0  0  0  0  0
   39.5290   24.0820   43.0500 H   0  0  0  0  0  0  0  0  0  0  0  0
  1  2  1  0  0  0  0
  3  1  1  0  0  0  0
  4  5  1  0  0  0  0
  4  1  1  0  0  0  0
  6 11  1  0  0  0  0
  6  4  1  0  0  0  0
  6  9  1  0  0  0  0
  7  6  1  0  0  0  0
  8  7  1  0  0  0  0
  9 10  1  0  0  0  0
 11 12  1  0  0  0  0
 12 13  1  0  0  0  0
 12 14  1  0  0  0  0
 15 12  1  0  0  0  0
 16  1  1  0  0  0  0
 16 18  1  0  0  0  0
 17 22  2  0  0  0  0
 17 18  1  0  0  0  0
 18 19  2  0  0  0  0
 19 20  1  0  0  0  0
 19 24  1  0  0  0  0
 21 25  1  0  0  0  0
 21 20  2  0  0  0  0
 22 21  1  0  0  0  0
 23 17  1  0  0  0  0
 26 25  1  0  0  0  0
M  END
>  <minimizedAffinity>
-4.07551241

$$$$

 OpenBabel03252503033D

 26 26  0  0  0  0  0  0  0  0999 V2000
   37.0040   31.2500   38.6970 C   0  0  0  0  0  0  0  0  0  0  0  0
   36.0100   31.2200   38.2100 H   0  0  0  0  0  0  0  0  0  0  0  0
   37.4810   30.2540   38.5890 H   0  0  0  0  0  0  0  0  0  0  0  0
   37.8620   32.2390   38.0680 N   0  0  0  0  0  0  0  0  0  0  0  0
   37.4170   32.5900   37.1900 H   0  0  0  0  0  0  0  0  0  0  0  0
   39.4510   31.6740   37.7690 S   0  0  0  0  0  0  0  0  0  0  0  0
   39.4550   30.2300   37.3910 O   0  0  0  0  0  0  0  0  0  0  0  0
   38.7710   29.5810   37.6750 H   0  0  0  0  0  0  0  0  0  0  0  0
   39.9950   32.5120   36.6470 O   0  0  0  0  0  0  0  0  0  0  0  0
   40.0100   33.5100   36.6490 H   0  0  0  0  0  0  0  0  0  0  0  0
   40.4110   31.9520   39.1140 O   0  0  0  0  0  0  0  0  0  0  0  0
   40.3100   33.2580   39.5710 C   0  0  0  0  0  0  0  0  0  0  0  0
   40.5280   33.3480   40.6510 H   0  0  0  0  0  0  0  0  0  0  0  0
   39.3170   33.7190   39.3690 H   0  0  0  0  0  0  0  0  0  0  0  0
   41.0640   33.8690   39.0200 H   0  0  0  0  0  0  0  0  0  0  0  0
   36.9620   31.6370   40.4500 S   0  0  0  0  0  0  0  0  0  0  0  0
   36.9480   29.0890   41.5440 C   0  0  0  0  0  0  0  0  0  0  0  0
   37.6690   30.2550   41.3830 C   0  0  0  0  0  0  0  0  0  0  0  0
   38.9570   30.4030   41.9310 C   0  0  0  0  0  0  0  0  0  0  0  0
   39.4290   29.3300   42.6170 N   0  0  0  0  0  0  0  0  0  0  0  0
   38.7100   28.2190   42.7560 C   0  0  0  0  0  0  0  0  0  0  0  0
   37.4880   28.0710   42.2390 N   0  0  0  0  0  0  0  0  0  0  0  0
   35.9570   28.9790   41.1210 H   0  0  0  0  0  0  0  0  0  0  0  0
   39.5330   31.2860   41.8220 H   0  0  0  0  0  0  0  0  0  0  0  0
   39.3960   26.8340   43.6800 S   0  0  0  0  0  0  0  0  0  0  0  0
   38.4710   26.5830   44.7380 H   0  0  0  0  0  0  0  0  0  0  0  0
  1 16  1  0  0  0  0
  2  1  1  0  0  0  0
  3  1  1  0  0  0  0
  4  1  1  0  0  0  0
  5  4  1  0  0  0  0
  6  4  1  0  0  0  0
  6 11  1  0  0  0  0
  7  8  1  0  0  0  0
  7  6  1  0  0  0  0
  9 10  1  0  0  0  0
  9  6  1  0  0  0  0
 11 12  1  0  0  0  0
 12 13  1  0  0  0  0
 14 12  1  0  0  0  0
 15 12  1  0  0  0  0
 16 18  1  0  0  0  0
 17 22  1  0  0  0  0
 18 17  2  0  0  0  0
 18 19  1  0  0  0  0
 19 20  2  0  0  0  0
 20 21  1  0  0  0  0
 21 25  1  0  0  0  0
 22 21  2  0  0  0  0
 23 17  1  0  0  0  0
 24 19  1  0  0  0  0
 25 26  1  0  0  0  0
M  END
>  <minimizedAffinity>
-3.97190237

$$$$
