
 OpenBabel03252507403D

 12 12  0  0  0  0  0  0  0  0999 V2000
   36.4590   28.9450   41.4480 C   0  0  0  0  0  0  0  0  0  0  0  0
   37.4380   29.9620   41.6020 C   0  0  0  0  0  0  0  0  0  0  0  0
   38.4290   29.8000   42.5740 C   0  0  0  0  0  0  0  0  0  0  0  0
   38.3940   28.6650   43.3220 N   0  0  0  0  0  0  0  0  0  0  0  0
   37.4430   27.7120   43.1470 C   0  0  0  0  0  0  0  0  0  0  0  0
   36.4810   27.8410   42.2240 N   0  0  0  0  0  0  0  0  0  0  0  0
   39.1650   30.5530   42.6970 H   0  0  0  0  0  0  0  0  0  0  0  0
   37.5010   26.8450   43.7910 H   0  0  0  0  0  0  0  0  0  0  0  0
   37.3870   31.4140   40.5620 S   0  0  0  0  0  0  0  0  0  0  0  0
   36.0480   31.6220   40.2020 H   0  0  0  0  0  0  0  0  0  0  0  0
   35.2010   29.1600   40.2070 S   0  0  0  0  0  0  0  0  0  0  0  0
   35.1330   27.9700   39.4470 H   0  0  0  0  0  0  0  0  0  0  0  0
  1  2  2  0  0  0  0
  1  6  1  0  0  0  0
  2  3  1  0  0  0  0
  3  7  1  0  0  0  0
  3  4  2  0  0  0  0
  5  4  1  0  0  0  0
  5  8  1  0  0  0  0
  6  5  2  0  0  0  0
  9  2  1  0  0  0  0
 10  9  1  0  0  0  0
 11  1  1  0  0  0  0
 12 11  1  0  0  0  0
M  END
>  <minimizedAffinity>
-2.73416662

$$$$

 OpenBabel03252507403D

 12 12  0  0  0  0  0  0  0  0999 V2000
   37.1500   29.2490   41.9400 C   0  0  0  0  0  0  0  0  0  0  0  0
   38.4830   29.3340   42.4220 C   0  0  0  0  0  0  0  0  0  0  0  0
   39.0090   28.2550   43.1380 C   0  0  0  0  0  0  0  0  0  0  0  0
   38.2030   27.1780   43.3330 N   0  0  0  0  0  0  0  0  0  0  0  0
   36.9320   27.1310   42.8570 C   0  0  0  0  0  0  0  0  0  0  0  0
   36.4020   28.1500   42.1680 N   0  0  0  0  0  0  0  0  0  0  0  0
   40.0040   28.3080   43.5020 H   0  0  0  0  0  0  0  0  0  0  0  0
   36.3700   26.2300   43.0640 H   0  0  0  0  0  0  0  0  0  0  0  0
   39.4540   30.8000   42.1070 S   0  0  0  0  0  0  0  0  0  0  0  0
   38.5600   31.8750   41.9930 H   0  0  0  0  0  0  0  0  0  0  0  0
   36.4890   30.6270   41.0280 S   0  0  0  0  0  0  0  0  0  0  0  0
   35.9030   30.1240   39.8440 H   0  0  0  0  0  0  0  0  0  0  0  0
  1  6  2  0  0  0  0
  1  2  1  0  0  0  0
  2  3  2  0  0  0  0
  3  4  1  0  0  0  0
  3  7  1  0  0  0  0
  5  8  1  0  0  0  0
  5  4  2  0  0  0  0
  6  5  1  0  0  0  0
  9  2  1  0  0  0  0
 10  9  1  0  0  0  0
 11  1  1  0  0  0  0
 12 11  1  0  0  0  0
M  END
>  <minimizedAffinity>
-2.73314905

$$$$

 OpenBabel03252507403D

 12 12  0  0  0  0  0  0  0  0999 V2000
   38.8900   26.6640   43.0050 C   0  0  0  0  0  0  0  0  0  0  0  0
   37.6080   26.4400   42.4390 C   0  0  0  0  0  0  0  0  0  0  0  0
   36.7620   27.5340   42.2350 C   0  0  0  0  0  0  0  0  0  0  0  0
   37.2250   28.7600   42.5960 N   0  0  0  0  0  0  0  0  0  0  0  0
   38.4580   28.9380   43.1350 C   0  0  0  0  0  0  0  0  0  0  0  0
   39.2890   27.9080   43.3420 N   0  0  0  0  0  0  0  0  0  0  0  0
   35.8020   27.3780   41.8130 H   0  0  0  0  0  0  0  0  0  0  0  0
   38.7350   29.9530   43.3890 H   0  0  0  0  0  0  0  0  0  0  0  0
   37.1030   24.7830   42.0010 S   0  0  0  0  0  0  0  0  0  0  0  0
   37.7800   23.9020   42.8560 H   0  0  0  0  0  0  0  0  0  0  0  0
   39.9610   25.2650   43.2600 S   0  0  0  0  0  0  0  0  0  0  0  0
   41.2290   25.5840   42.7230 H   0  0  0  0  0  0  0  0  0  0  0  0
  1 11  1  0  0  0  0
  1  6  1  0  0  0  0
  2  1  2  0  0  0  0
  3  2  1  0  0  0  0
  3  4  2  0  0  0  0
  4  5  1  0  0  0  0
  5  6  2  0  0  0  0
  5  8  1  0  0  0  0
  7  3  1  0  0  0  0
  9  2  1  0  0  0  0
  9 10  1  0  0  0  0
 12 11  1  0  0  0  0
M  END
>  <minimizedAffinity>
-2.71177125

$$$$

 OpenBabel03252507403D

 12 12  0  0  0  0  0  0  0  0999 V2000
   38.6030   29.3550   42.4710 C   0  0  0  0  0  0  0  0  0  0  0  0
   37.2720   29.2380   41.9900 C   0  0  0  0  0  0  0  0  0  0  0  0
   36.5620   28.0640   42.2540 C   0  0  0  0  0  0  0  0  0  0  0  0
   37.1960   27.0930   42.9630 N   0  0  0  0  0  0  0  0  0  0  0  0
   38.4700   27.2390   43.4090 C   0  0  0  0  0  0  0  0  0  0  0  0
   39.1750   28.3530   43.1710 N   0  0  0  0  0  0  0  0  0  0  0  0
   35.5680   27.9660   41.8990 H   0  0  0  0  0  0  0  0  0  0  0  0
   38.8870   26.4100   43.9650 H   0  0  0  0  0  0  0  0  0  0  0  0
   36.5370   30.5790   41.0660 S   0  0  0  0  0  0  0  0  0  0  0  0
   37.5790   31.2610   40.4210 H   0  0  0  0  0  0  0  0  0  0  0  0
   39.5000   30.8550   42.1310 S   0  0  0  0  0  0  0  0  0  0  0  0
   40.0690   31.3050   43.3440 H   0  0  0  0  0  0  0  0  0  0  0  0
  1  6  1  0  0  0  0
  2  3  1  0  0  0  0
  2  1  2  0  0  0  0
  3  4  2  0  0  0  0
  4  5  1  0  0  0  0
  5  8  1  0  0  0  0
  6  5  2  0  0  0  0
  7  3  1  0  0  0  0
  9  2  1  0  0  0  0
 10  9  1  0  0  0  0
 11  1  1  0  0  0  0
 11 12  1  0  0  0  0
M  END
>  <minimizedAffinity>
-2.70883298

$$$$

 OpenBabel03252507403D

 12 12  0  0  0  0  0  0  0  0999 V2000
   37.6120   26.1750   42.3930 C   0  0  0  0  0  0  0  0  0  0  0  0
   38.9240   26.2600   42.9270 C   0  0  0  0  0  0  0  0  0  0  0  0
   39.3900   27.4990   43.3740 C   0  0  0  0  0  0  0  0  0  0  0  0
   38.5470   28.5610   43.2680 N   0  0  0  0  0  0  0  0  0  0  0  0
   37.2960   28.4430   42.7530 C   0  0  0  0  0  0  0  0  0  0  0  0
   36.8250   27.2680   42.3170 N   0  0  0  0  0  0  0  0  0  0  0  0
   40.3690   27.5750   43.7740 H   0  0  0  0  0  0  0  0  0  0  0  0
   36.7020   29.3460   42.7110 H   0  0  0  0  0  0  0  0  0  0  0  0
   39.9470   24.7980   43.0180 S   0  0  0  0  0  0  0  0  0  0  0  0
   39.5430   23.9420   41.9830 H   0  0  0  0  0  0  0  0  0  0  0  0
   37.0270   24.5920   41.8270 S   0  0  0  0  0  0  0  0  0  0  0  0
   35.7500   24.3720   42.3920 H   0  0  0  0  0  0  0  0  0  0  0  0
  1  2  1  0  0  0  0
  2  9  1  0  0  0  0
  2  3  2  0  0  0  0
  3  7  1  0  0  0  0
  4  3  1  0  0  0  0
  5  4  2  0  0  0  0
  6  1  2  0  0  0  0
  6  5  1  0  0  0  0
  8  5  1  0  0  0  0
 10  9  1  0  0  0  0
 11 12  1  0  0  0  0
 11  1  1  0  0  0  0
M  END
>  <minimizedAffinity>
-2.68744755

$$$$

 OpenBabel03252507403D

 12 12  0  0  0  0  0  0  0  0999 V2000
   37.2880   28.7060   42.0040 C   0  0  0  0  0  0  0  0  0  0  0  0
   37.8350   29.9920   41.7520 C   0  0  0  0  0  0  0  0  0  0  0  0
   37.1280   30.8750   40.9320 C   0  0  0  0  0  0  0  0  0  0  0  0
   35.9440   30.4430   40.4190 N   0  0  0  0  0  0  0  0  0  0  0  0
   35.4510   29.2060   40.6820 C   0  0  0  0  0  0  0  0  0  0  0  0
   36.1080   28.3390   41.4640 N   0  0  0  0  0  0  0  0  0  0  0  0
   37.5270   31.8380   40.7370 H   0  0  0  0  0  0  0  0  0  0  0  0
   34.5010   28.9560   40.2270 H   0  0  0  0  0  0  0  0  0  0  0  0
   39.4000   30.4540   42.4800 S   0  0  0  0  0  0  0  0  0  0  0  0
   40.1400   29.2760   42.6600 H   0  0  0  0  0  0  0  0  0  0  0  0
   38.1960   27.5880   43.0510 S   0  0  0  0  0  0  0  0  0  0  0  0
   37.3020   27.0740   44.0170 H   0  0  0  0  0  0  0  0  0  0  0  0
  1 11  1  0  0  0  0
  2  1  1  0  0  0  0
  2  9  1  0  0  0  0
  3  2  2  0  0  0  0
  4  5  2  0  0  0  0
  4  3  1  0  0  0  0
  5  6  1  0  0  0  0
  6  1  2  0  0  0  0
  7  3  1  0  0  0  0
  8  5  1  0  0  0  0
  9 10  1  0  0  0  0
 11 12  1  0  0  0  0
M  END
>  <minimizedAffinity>
-2.61809182

$$$$

 OpenBabel03252507403D

 12 12  0  0  0  0  0  0  0  0999 V2000
   36.7250   27.9100   40.9150 C   0  0  0  0  0  0  0  0  0  0  0  0
   36.9110   29.1000   41.6670 C   0  0  0  0  0  0  0  0  0  0  0  0
   37.4930   29.0110   42.9340 C   0  0  0  0  0  0  0  0  0  0  0  0
   37.8510   27.7750   43.3740 N   0  0  0  0  0  0  0  0  0  0  0  0
   37.6590   26.6570   42.6270 C   0  0  0  0  0  0  0  0  0  0  0  0
   37.1030   26.7130   41.4110 N   0  0  0  0  0  0  0  0  0  0  0  0
   37.6370   29.8930   43.5050 H   0  0  0  0  0  0  0  0  0  0  0  0
   37.9770   25.7210   43.0660 H   0  0  0  0  0  0  0  0  0  0  0  0
   36.4030   30.6730   40.9880 S   0  0  0  0  0  0  0  0  0  0  0  0
   35.3390   30.4230   40.1100 H   0  0  0  0  0  0  0  0  0  0  0  0
   35.9830   28.0330   39.3010 S   0  0  0  0  0  0  0  0  0  0  0  0
   36.7910   27.3100   38.3950 H   0  0  0  0  0  0  0  0  0  0  0  0
  1  6  2  0  0  0  0
  1  2  1  0  0  0  0
  2  3  2  0  0  0  0
  3  4  1  0  0  0  0
  3  7  1  0  0  0  0
  5  8  1  0  0  0  0
  5  4  2  0  0  0  0
  6  5  1  0  0  0  0
  9  2  1  0  0  0  0
 10  9  1  0  0  0  0
 11  1  1  0  0  0  0
 12 11  1  0  0  0  0
M  END
>  <minimizedAffinity>
-2.59888697

$$$$

 OpenBabel03252507403D

 12 12  0  0  0  0  0  0  0  0999 V2000
   37.0390   30.7650   40.7950 C   0  0  0  0  0  0  0  0  0  0  0  0
   37.8330   29.9780   41.6700 C   0  0  0  0  0  0  0  0  0  0  0  0
   37.3650   28.7180   42.0510 C   0  0  0  0  0  0  0  0  0  0  0  0
   36.1630   28.3180   41.5560 N   0  0  0  0  0  0  0  0  0  0  0  0
   35.4300   29.0980   40.7200 C   0  0  0  0  0  0  0  0  0  0  0  0
   35.8540   30.3100   40.3380 N   0  0  0  0  0  0  0  0  0  0  0  0
   37.9490   28.1210   42.7050 H   0  0  0  0  0  0  0  0  0  0  0  0
   34.4870   28.6910   40.3800 H   0  0  0  0  0  0  0  0  0  0  0  0
   39.3980   30.6030   42.2610 S   0  0  0  0  0  0  0  0  0  0  0  0
   39.3060   32.0020   42.2840 H   0  0  0  0  0  0  0  0  0  0  0  0
   37.6440   32.3690   40.3130 S   0  0  0  0  0  0  0  0  0  0  0  0
   37.5380   32.4690   38.9080 H   0  0  0  0  0  0  0  0  0  0  0  0
  1  2  1  0  0  0  0
  2  3  2  0  0  0  0
  2  9  1  0  0  0  0
  3  7  1  0  0  0  0
  4  3  1  0  0  0  0
  5  4  2  0  0  0  0
  6  5  1  0  0  0  0
  6  1  2  0  0  0  0
  8  5  1  0  0  0  0
  9 10  1  0  0  0  0
 11  1  1  0  0  0  0
 12 11  1  0  0  0  0
M  END
>  <minimizedAffinity>
-2.5810926

$$$$

 OpenBabel03252507403D

 12 12  0  0  0  0  0  0  0  0999 V2000
   37.0130   29.7160   41.2690 C   0  0  0  0  0  0  0  0  0  0  0  0
   37.5710   29.0200   42.3730 C   0  0  0  0  0  0  0  0  0  0  0  0
   38.7640   29.4880   42.9290 C   0  0  0  0  0  0  0  0  0  0  0  0
   39.3260   30.5930   42.3710 N   0  0  0  0  0  0  0  0  0  0  0  0
   38.7640   31.2340   41.3140 C   0  0  0  0  0  0  0  0  0  0  0  0
   37.6210   30.8080   40.7610 N   0  0  0  0  0  0  0  0  0  0  0  0
   39.1900   28.9760   43.7550 H   0  0  0  0  0  0  0  0  0  0  0  0
   39.2870   32.1050   40.9410 H   0  0  0  0  0  0  0  0  0  0  0  0
   36.7460   27.5760   43.0270 S   0  0  0  0  0  0  0  0  0  0  0  0
   36.0350   26.9890   41.9710 H   0  0  0  0  0  0  0  0  0  0  0  0
   35.4910   29.1130   40.5680 S   0  0  0  0  0  0  0  0  0  0  0  0
   34.6060   30.2080   40.4430 H   0  0  0  0  0  0  0  0  0  0  0  0
  1  2  1  0  0  0  0
  2  3  2  0  0  0  0
  2  9  1  0  0  0  0
  3  7  1  0  0  0  0
  4  3  1  0  0  0  0
  5  4  2  0  0  0  0
  6  1  2  0  0  0  0
  6  5  1  0  0  0  0
  8  5  1  0  0  0  0
 10  9  1  0  0  0  0
 11  1  1  0  0  0  0
 12 11  1  0  0  0  0
M  END
>  <minimizedAffinity>
-2.54322767

$$$$
