
 OpenBabel03252506033D

 21 22  0  0  0  0  0  0  0  0999 V2000
   35.6230   28.9070   41.0490 Cl  0  0  0  0  0  0  0  0  0  0  0  0
   36.9000   30.0710   40.8780 C   0  0  0  0  0  0  0  0  0  0  0  0
   38.1690   29.7490   41.2410 C   0  0  0  0  0  0  0  0  0  0  0  0
   39.1120   30.7510   41.0640 C   0  0  0  0  0  0  0  0  0  0  0  0
   38.8600   32.0110   40.5630 C   0  0  0  0  0  0  0  0  0  0  0  0
   37.5440   32.2860   40.2080 C   0  0  0  0  0  0  0  0  0  0  0  0
   37.2460   33.8940   39.5720 Cl  0  0  0  0  0  0  0  0  0  0  0  0
   36.5750   31.3280   40.3630 C   0  0  0  0  0  0  0  0  0  0  0  0
   40.1490   30.5420   41.3420 H   0  0  0  0  0  0  0  0  0  0  0  0
   35.5560   31.5830   40.0730 H   0  0  0  0  0  0  0  0  0  0  0  0
   38.8570   27.1220   43.6800 C   0  0  0  0  0  0  0  0  0  0  0  0
   39.2070   26.0250   42.8640 C   0  0  0  0  0  0  0  0  0  0  0  0
   39.2030   26.2010   41.4710 C   0  0  0  0  0  0  0  0  0  0  0  0
   38.8600   27.4240   40.9910 N   0  0  0  0  0  0  0  0  0  0  0  0
   38.5320   28.4500   41.7780 C   0  0  0  0  0  0  0  0  0  0  0  0
   38.5280   28.3050   43.1350 N   0  0  0  0  0  0  0  0  0  0  0  0
   38.8620   26.9800   44.7520 H   0  0  0  0  0  0  0  0  0  0  0  0
   39.4720   25.0710   43.2970 H   0  0  0  0  0  0  0  0  0  0  0  0
   39.4710   25.3640   40.8180 H   0  0  0  0  0  0  0  0  0  0  0  0
   40.1600   33.2200   40.3810 S   0  0  0  0  0  0  0  0  0  0  0  0
   40.4240   33.7420   41.6770 H   0  0  0  0  0  0  0  0  0  0  0  0
  2  1  1  0  0  0  0
  2  3  1  0  0  0  0
  3 15  1  0  0  0  0
  4  3  2  0  0  0  0
  4  9  1  0  0  0  0
  5  4  1  0  0  0  0
  6  8  1  0  0  0  0
  6  5  2  0  0  0  0
  7  6  1  0  0  0  0
  8  2  2  0  0  0  0
 10  8  1  0  0  0  0
 11 17  1  0  0  0  0
 12 18  1  0  0  0  0
 12 11  2  0  0  0  0
 13 12  1  0  0  0  0
 14 13  2  0  0  0  0
 14 15  1  0  0  0  0
 15 16  2  0  0  0  0
 16 11  1  0  0  0  0
 19 13  1  0  0  0  0
 20  5  1  0  0  0  0
 20 21  1  0  0  0  0
M  END
>  <minimizedAffinity>
-4.39482307

$$$$

 OpenBabel03252506033D

 21 22  0  0  0  0  0  0  0  0999 V2000
   41.0170   30.8070   42.9000 Cl  0  0  0  0  0  0  0  0  0  0  0  0
   39.4870   30.3070   42.2510 C   0  0  0  0  0  0  0  0  0  0  0  0
   39.0190   30.8610   41.1020 C   0  0  0  0  0  0  0  0  0  0  0  0
   37.7870   30.3910   40.6720 C   0  0  0  0  0  0  0  0  0  0  0  0
   37.0260   29.4320   41.3090 C   0  0  0  0  0  0  0  0  0  0  0  0
   37.5540   28.8990   42.4800 C   0  0  0  0  0  0  0  0  0  0  0  0
   36.5710   27.6800   43.2720 Cl  0  0  0  0  0  0  0  0  0  0  0  0
   38.7690   29.3300   42.9460 C   0  0  0  0  0  0  0  0  0  0  0  0
   37.3660   30.8050   39.7520 H   0  0  0  0  0  0  0  0  0  0  0  0
   39.1460   28.8880   43.8680 H   0  0  0  0  0  0  0  0  0  0  0  0
   40.1610   34.1570   40.0280 C   0  0  0  0  0  0  0  0  0  0  0  0
   41.0830   33.8480   39.0050 C   0  0  0  0  0  0  0  0  0  0  0  0
   41.3040   32.4970   38.6910 C   0  0  0  0  0  0  0  0  0  0  0  0
   40.6130   31.5640   39.3970 N   0  0  0  0  0  0  0  0  0  0  0  0
   39.7450   31.8760   40.3610 C   0  0  0  0  0  0  0  0  0  0  0  0
   39.5130   33.1810   40.6860 N   0  0  0  0  0  0  0  0  0  0  0  0
   39.9950   35.1990   40.2650 H   0  0  0  0  0  0  0  0  0  0  0  0
   41.6070   34.6290   38.4730 H   0  0  0  0  0  0  0  0  0  0  0  0
   42.0140   32.2330   37.9010 H   0  0  0  0  0  0  0  0  0  0  0  0
   35.4510   28.9060   40.6570 S   0  0  0  0  0  0  0  0  0  0  0  0
   34.5110   29.9230   40.9760 H   0  0  0  0  0  0  0  0  0  0  0  0
  2  1  1  0  0  0  0
  2  8  1  0  0  0  0
  3  2  2  0  0  0  0
  4  3  1  0  0  0  0
  4  5  2  0  0  0  0
  5  6  1  0  0  0  0
  6  8  2  0  0  0  0
  6  7  1  0  0  0  0
  8 10  1  0  0  0  0
  9  4  1  0  0  0  0
 11 17  1  0  0  0  0
 11 16  1  0  0  0  0
 12 11  2  0  0  0  0
 13 12  1  0  0  0  0
 13 14  2  0  0  0  0
 14 15  1  0  0  0  0
 15 16  2  0  0  0  0
 15  3  1  0  0  0  0
 18 12  1  0  0  0  0
 19 13  1  0  0  0  0
 20 21  1  0  0  0  0
 20  5  1  0  0  0  0
M  END
>  <minimizedAffinity>
-4.20728779

$$$$

 OpenBabel03252506033D

 21 22  0  0  0  0  0  0  0  0999 V2000
   36.4750   31.2170   40.3670 Cl  0  0  0  0  0  0  0  0  0  0  0  0
   38.1500   31.3820   40.7910 C   0  0  0  0  0  0  0  0  0  0  0  0
   38.7810   30.3930   41.4780 C   0  0  0  0  0  0  0  0  0  0  0  0
   40.1170   30.6260   41.7670 C   0  0  0  0  0  0  0  0  0  0  0  0
   40.8290   31.7550   41.4190 C   0  0  0  0  0  0  0  0  0  0  0  0
   40.1340   32.7350   40.7170 C   0  0  0  0  0  0  0  0  0  0  0  0
   41.0590   34.1610   40.2830 Cl  0  0  0  0  0  0  0  0  0  0  0  0
   38.8110   32.5510   40.4070 C   0  0  0  0  0  0  0  0  0  0  0  0
   40.6700   29.8610   42.3190 H   0  0  0  0  0  0  0  0  0  0  0  0
   38.3030   33.3420   39.8570 H   0  0  0  0  0  0  0  0  0  0  0  0
   37.0710   27.9740   43.6100 C   0  0  0  0  0  0  0  0  0  0  0  0
   36.8540   26.8870   42.7350 C   0  0  0  0  0  0  0  0  0  0  0  0
   37.3030   26.9980   41.4090 C   0  0  0  0  0  0  0  0  0  0  0  0
   37.9220   28.1520   41.0470 N   0  0  0  0  0  0  0  0  0  0  0  0
   38.1170   29.1690   41.8890 C   0  0  0  0  0  0  0  0  0  0  0  0
   37.6910   29.0860   43.1830 N   0  0  0  0  0  0  0  0  0  0  0  0
   36.7220   27.8820   44.6300 H   0  0  0  0  0  0  0  0  0  0  0  0
   36.3560   25.9900   43.0740 H   0  0  0  0  0  0  0  0  0  0  0  0
   37.1470   26.1690   40.7130 H   0  0  0  0  0  0  0  0  0  0  0  0
   42.5510   31.9430   41.8480 S   0  0  0  0  0  0  0  0  0  0  0  0
   42.5990   32.2860   43.2260 H   0  0  0  0  0  0  0  0  0  0  0  0
  1  2  1  0  0  0  0
  2  3  1  0  0  0  0
  3  4  2  0  0  0  0
  3 15  1  0  0  0  0
  4  9  1  0  0  0  0
  5  4  1  0  0  0  0
  5 20  1  0  0  0  0
  6  5  2  0  0  0  0
  7  6  1  0  0  0  0
  8  6  1  0  0  0  0
  8  2  2  0  0  0  0
 10  8  1  0  0  0  0
 11 17  1  0  0  0  0
 12 18  1  0  0  0  0
 12 11  2  0  0  0  0
 13 12  1  0  0  0  0
 14 13  2  0  0  0  0
 14 15  1  0  0  0  0
 15 16  2  0  0  0  0
 16 11  1  0  0  0  0
 19 13  1  0  0  0  0
 20 21  1  0  0  0  0
M  END
>  <minimizedAffinity>
-4.17331553

$$$$

 OpenBabel03252506033D

 21 22  0  0  0  0  0  0  0  0999 V2000
   40.3150   29.6090   42.6040 Cl  0  0  0  0  0  0  0  0  0  0  0  0
   39.4440   28.1450   42.2710 C   0  0  0  0  0  0  0  0  0  0  0  0
   38.3450   28.1720   41.4710 C   0  0  0  0  0  0  0  0  0  0  0  0
   37.7240   26.9480   41.2710 C   0  0  0  0  0  0  0  0  0  0  0  0
   38.1280   25.7440   41.8110 C   0  0  0  0  0  0  0  0  0  0  0  0
   39.2580   25.7760   42.6210 C   0  0  0  0  0  0  0  0  0  0  0  0
   39.7550   24.2340   43.2950 Cl  0  0  0  0  0  0  0  0  0  0  0  0
   39.9090   26.9610   42.8480 C   0  0  0  0  0  0  0  0  0  0  0  0
   36.8340   26.9150   40.6350 H   0  0  0  0  0  0  0  0  0  0  0  0
   40.7890   26.9430   43.4900 H   0  0  0  0  0  0  0  0  0  0  0  0
   37.9820   30.9040   39.0790 C   0  0  0  0  0  0  0  0  0  0  0  0
   36.9450   31.6760   39.6440 C   0  0  0  0  0  0  0  0  0  0  0  0
   36.3750   31.2460   40.8530 C   0  0  0  0  0  0  0  0  0  0  0  0
   36.8610   30.1050   41.4080 N   0  0  0  0  0  0  0  0  0  0  0  0
   37.8430   29.3880   40.8590 C   0  0  0  0  0  0  0  0  0  0  0  0
   38.4130   29.7850   39.6840 N   0  0  0  0  0  0  0  0  0  0  0  0
   38.4170   31.2410   38.1470 H   0  0  0  0  0  0  0  0  0  0  0  0
   36.5940   32.5770   39.1610 H   0  0  0  0  0  0  0  0  0  0  0  0
   35.5700   31.8280   41.3110 H   0  0  0  0  0  0  0  0  0  0  0  0
   37.2440   24.2300   41.4800 S   0  0  0  0  0  0  0  0  0  0  0  0
   36.0760   24.2480   42.2890 H   0  0  0  0  0  0  0  0  0  0  0  0
  2  1  1  0  0  0  0
  2  8  1  0  0  0  0
  3  2  2  0  0  0  0
  4  3  1  0  0  0  0
  4  5  2  0  0  0  0
  5  6  1  0  0  0  0
  6  8  2  0  0  0  0
  6  7  1  0  0  0  0
  8 10  1  0  0  0  0
  9  4  1  0  0  0  0
 11 12  2  0  0  0  0
 11 16  1  0  0  0  0
 12 13  1  0  0  0  0
 13 19  1  0  0  0  0
 13 14  2  0  0  0  0
 15 14  1  0  0  0  0
 15  3  1  0  0  0  0
 16 15  2  0  0  0  0
 17 11  1  0  0  0  0
 18 12  1  0  0  0  0
 20  5  1  0  0  0  0
 20 21  1  0  0  0  0
M  END
>  <minimizedAffinity>
-4.14192057

$$$$

 OpenBabel03252506033D

 21 22  0  0  0  0  0  0  0  0999 V2000
   34.8590   29.2880   40.2320 Cl  0  0  0  0  0  0  0  0  0  0  0  0
   36.4170   30.0200   40.4520 C   0  0  0  0  0  0  0  0  0  0  0  0
   37.4720   29.2700   40.8650 C   0  0  0  0  0  0  0  0  0  0  0  0
   38.6700   29.9530   41.0090 C   0  0  0  0  0  0  0  0  0  0  0  0
   38.8600   31.2990   40.7730 C   0  0  0  0  0  0  0  0  0  0  0  0
   37.7470   32.0180   40.3520 C   0  0  0  0  0  0  0  0  0  0  0  0
   38.0110   33.7270   40.0550 Cl  0  0  0  0  0  0  0  0  0  0  0  0
   36.5400   31.3880   40.1930 C   0  0  0  0  0  0  0  0  0  0  0  0
   39.5500   29.3950   41.3400 H   0  0  0  0  0  0  0  0  0  0  0  0
   35.6920   31.9870   39.8630 H   0  0  0  0  0  0  0  0  0  0  0  0
   37.0420   26.1650   42.7360 C   0  0  0  0  0  0  0  0  0  0  0  0
   37.1670   25.1790   41.7340 C   0  0  0  0  0  0  0  0  0  0  0  0
   37.4000   25.5950   40.4130 C   0  0  0  0  0  0  0  0  0  0  0  0
   37.4920   26.9300   40.1790 N   0  0  0  0  0  0  0  0  0  0  0  0
   37.3710   27.8480   41.1400 C   0  0  0  0  0  0  0  0  0  0  0  0
   37.1440   27.4700   42.4310 N   0  0  0  0  0  0  0  0  0  0  0  0
   36.8630   25.8380   43.7510 H   0  0  0  0  0  0  0  0  0  0  0  0
   37.0860   24.1280   41.9730 H   0  0  0  0  0  0  0  0  0  0  0  0
   37.5010   24.8480   39.6190 H   0  0  0  0  0  0  0  0  0  0  0  0
   40.4540   32.0700   40.9940 S   0  0  0  0  0  0  0  0  0  0  0  0
   40.6370   32.2470   42.3920 H   0  0  0  0  0  0  0  0  0  0  0  0
  1  2  1  0  0  0  0
  2  3  1  0  0  0  0
  3  4  2  0  0  0  0
  3 15  1  0  0  0  0
  4  9  1  0  0  0  0
  5 20  1  0  0  0  0
  5  4  1  0  0  0  0
  6  5  2  0  0  0  0
  7  6  1  0  0  0  0
  8  6  1  0  0  0  0
  8  2  2  0  0  0  0
 10  8  1  0  0  0  0
 11 17  1  0  0  0  0
 12 18  1  0  0  0  0
 12 11  2  0  0  0  0
 13 12  1  0  0  0  0
 14 13  2  0  0  0  0
 14 15  1  0  0  0  0
 15 16  2  0  0  0  0
 16 11  1  0  0  0  0
 19 13  1  0  0  0  0
 20 21  1  0  0  0  0
M  END
>  <minimizedAffinity>
-4.1403141

$$$$

 OpenBabel03252506033D

 21 22  0  0  0  0  0  0  0  0999 V2000
   38.4370   29.4990   43.2520 Cl  0  0  0  0  0  0  0  0  0  0  0  0
   37.8640   28.3810   42.0550 C   0  0  0  0  0  0  0  0  0  0  0  0
   37.6800   28.7890   40.7710 C   0  0  0  0  0  0  0  0  0  0  0  0
   37.2180   27.8170   39.8970 C   0  0  0  0  0  0  0  0  0  0  0  0
   36.9410   26.5070   40.2260 C   0  0  0  0  0  0  0  0  0  0  0  0
   37.1480   26.1430   41.5530 C   0  0  0  0  0  0  0  0  0  0  0  0
   36.7900   24.4720   41.9490 Cl  0  0  0  0  0  0  0  0  0  0  0  0
   37.6040   27.0680   42.4560 C   0  0  0  0  0  0  0  0  0  0  0  0
   37.0530   28.0950   38.8520 H   0  0  0  0  0  0  0  0  0  0  0  0
   37.7520   26.7440   43.4860 H   0  0  0  0  0  0  0  0  0  0  0  0
   37.1140   32.3140   40.0090 C   0  0  0  0  0  0  0  0  0  0  0  0
   38.3680   32.7290   39.5110 C   0  0  0  0  0  0  0  0  0  0  0  0
   39.4050   31.7840   39.4420 C   0  0  0  0  0  0  0  0  0  0  0  0
   39.1360   30.5210   39.8620 N   0  0  0  0  0  0  0  0  0  0  0  0
   37.9430   30.1460   40.3290 C   0  0  0  0  0  0  0  0  0  0  0  0
   36.9190   31.0450   40.4060 N   0  0  0  0  0  0  0  0  0  0  0  0
   36.3200   33.0460   40.0590 H   0  0  0  0  0  0  0  0  0  0  0  0
   38.5300   33.7480   39.1900 H   0  0  0  0  0  0  0  0  0  0  0  0
   40.3860   32.0830   39.0600 H   0  0  0  0  0  0  0  0  0  0  0  0
   36.3500   25.3430   39.0090 S   0  0  0  0  0  0  0  0  0  0  0  0
   34.9730   25.6260   38.8000 H   0  0  0  0  0  0  0  0  0  0  0  0
  2  8  1  0  0  0  0
  2  1  1  0  0  0  0
  3  2  2  0  0  0  0
  4  5  2  0  0  0  0
  4  3  1  0  0  0  0
  5  6  1  0  0  0  0
  6  7  1  0  0  0  0
  6  8  2  0  0  0  0
  8 10  1  0  0  0  0
  9  4  1  0  0  0  0
 11 17  1  0  0  0  0
 11 16  1  0  0  0  0
 12 11  2  0  0  0  0
 13 12  1  0  0  0  0
 13 14  2  0  0  0  0
 14 15  1  0  0  0  0
 15 16  2  0  0  0  0
 15  3  1  0  0  0  0
 18 12  1  0  0  0  0
 19 13  1  0  0  0  0
 20  5  1  0  0  0  0
 21 20  1  0  0  0  0
M  END
>  <minimizedAffinity>
-4.1366868

$$$$

 OpenBabel03252506033D

 21 22  0  0  0  0  0  0  0  0999 V2000
   38.3960   29.5210   37.9900 Cl  0  0  0  0  0  0  0  0  0  0  0  0
   37.8840   28.9950   39.5630 C   0  0  0  0  0  0  0  0  0  0  0  0
   37.6910   29.9020   40.5570 C   0  0  0  0  0  0  0  0  0  0  0  0
   37.2830   29.3760   41.7730 C   0  0  0  0  0  0  0  0  0  0  0  0
   37.0670   28.0390   42.0390 C   0  0  0  0  0  0  0  0  0  0  0  0
   37.2790   27.1560   40.9850 C   0  0  0  0  0  0  0  0  0  0  0  0
   36.9970   25.4620   41.3440 Cl  0  0  0  0  0  0  0  0  0  0  0  0
   37.6820   27.6270   39.7620 C   0  0  0  0  0  0  0  0  0  0  0  0
   37.1150   30.0640   42.6070 H   0  0  0  0  0  0  0  0  0  0  0  0
   37.8380   26.9020   38.9640 H   0  0  0  0  0  0  0  0  0  0  0  0
   39.2450   33.1970   40.7820 C   0  0  0  0  0  0  0  0  0  0  0  0
   38.3400   34.0160   40.0720 C   0  0  0  0  0  0  0  0  0  0  0  0
   37.1950   33.4210   39.5190 C   0  0  0  0  0  0  0  0  0  0  0  0
   37.0270   32.0860   39.7010 N   0  0  0  0  0  0  0  0  0  0  0  0
   37.8930   31.3280   40.3750 C   0  0  0  0  0  0  0  0  0  0  0  0
   39.0140   31.8810   40.9230 N   0  0  0  0  0  0  0  0  0  0  0  0
   40.1250   33.6610   41.2060 H   0  0  0  0  0  0  0  0  0  0  0  0
   38.5210   35.0750   39.9560 H   0  0  0  0  0  0  0  0  0  0  0  0
   36.4790   34.0370   38.9640 H   0  0  0  0  0  0  0  0  0  0  0  0
   36.5410   27.4800   43.6490 S   0  0  0  0  0  0  0  0  0  0  0  0
   37.6870   27.5050   44.4900 H   0  0  0  0  0  0  0  0  0  0  0  0
  1  2  1  0  0  0  0
  2  8  2  0  0  0  0
  2  3  1  0  0  0  0
  3  4  2  0  0  0  0
  4  5  1  0  0  0  0
  4  9  1  0  0  0  0
  5 20  1  0  0  0  0
  6  7  1  0  0  0  0
  6  5  2  0  0  0  0
  8  6  1  0  0  0  0
 10  8  1  0  0  0  0
 11 16  1  0  0  0  0
 11 17  1  0  0  0  0
 12 11  2  0  0  0  0
 13 14  2  0  0  0  0
 13 12  1  0  0  0  0
 14 15  1  0  0  0  0
 15  3  1  0  0  0  0
 15 16  2  0  0  0  0
 18 12  1  0  0  0  0
 19 13  1  0  0  0  0
 20 21  1  0  0  0  0
M  END
>  <minimizedAffinity>
-4.13457203

$$$$

 OpenBabel03252506033D

 21 22  0  0  0  0  0  0  0  0999 V2000
   36.6880   31.7420   40.1090 Cl  0  0  0  0  0  0  0  0  0  0  0  0
   37.5550   30.5360   41.0060 C   0  0  0  0  0  0  0  0  0  0  0  0
   38.9140   30.5400   41.0200 C   0  0  0  0  0  0  0  0  0  0  0  0
   39.5070   29.5330   41.7660 C   0  0  0  0  0  0  0  0  0  0  0  0
   38.8360   28.5550   42.4720 C   0  0  0  0  0  0  0  0  0  0  0  0
   37.4460   28.5990   42.4230 C   0  0  0  0  0  0  0  0  0  0  0  0
   36.6130   27.3480   43.3290 Cl  0  0  0  0  0  0  0  0  0  0  0  0
   36.8130   29.5760   41.6990 C   0  0  0  0  0  0  0  0  0  0  0  0
   40.5990   29.4920   41.8090 H   0  0  0  0  0  0  0  0  0  0  0  0
   35.7240   29.5740   41.6860 H   0  0  0  0  0  0  0  0  0  0  0  0
   40.7800   32.1310   38.3160 C   0  0  0  0  0  0  0  0  0  0  0  0
   41.2060   33.3420   38.9030 C   0  0  0  0  0  0  0  0  0  0  0  0
   40.8440   33.6010   40.2340 C   0  0  0  0  0  0  0  0  0  0  0  0
   40.1020   32.6650   40.8800 N   0  0  0  0  0  0  0  0  0  0  0  0
   39.7080   31.5260   40.3090 C   0  0  0  0  0  0  0  0  0  0  0  0
   40.0460   31.2490   39.0150 N   0  0  0  0  0  0  0  0  0  0  0  0
   41.0620   31.9370   37.2890 H   0  0  0  0  0  0  0  0  0  0  0  0
   41.7960   34.0540   38.3440 H   0  0  0  0  0  0  0  0  0  0  0  0
   41.1630   34.5340   40.7110 H   0  0  0  0  0  0  0  0  0  0  0  0
   39.7100   27.3060   43.3990 S   0  0  0  0  0  0  0  0  0  0  0  0
   40.1920   26.3550   42.4590 H   0  0  0  0  0  0  0  0  0  0  0  0
  1  2  1  0  0  0  0
  2  3  2  0  0  0  0
  2  8  1  0  0  0  0
  3  4  1  0  0  0  0
  4  9  1  0  0  0  0
  4  5  2  0  0  0  0
  5 20  1  0  0  0  0
  6  5  1  0  0  0  0
  6  7  1  0  0  0  0
  8  6  2  0  0  0  0
 10  8  1  0  0  0  0
 11 12  2  0  0  0  0
 11 16  1  0  0  0  0
 12 13  1  0  0  0  0
 13 19  1  0  0  0  0
 13 14  2  0  0  0  0
 15 14  1  0  0  0  0
 15  3  1  0  0  0  0
 16 15  2  0  0  0  0
 17 11  1  0  0  0  0
 18 12  1  0  0  0  0
 21 20  1  0  0  0  0
M  END
>  <minimizedAffinity>
-4.10412359

$$$$

 OpenBabel03252506033D

 21 22  0  0  0  0  0  0  0  0999 V2000
   37.0680   27.9490   43.5680 Cl  0  0  0  0  0  0  0  0  0  0  0  0
   37.3110   28.6130   41.9830 C   0  0  0  0  0  0  0  0  0  0  0  0
   37.6290   27.7990   40.9420 C   0  0  0  0  0  0  0  0  0  0  0  0
   37.8020   28.4310   39.7200 C   0  0  0  0  0  0  0  0  0  0  0  0
   37.6800   29.7870   39.4930 C   0  0  0  0  0  0  0  0  0  0  0  0
   37.3540   30.5730   40.5930 C   0  0  0  0  0  0  0  0  0  0  0  0
   37.2030   32.2930   40.2820 Cl  0  0  0  0  0  0  0  0  0  0  0  0
   37.1710   29.9940   41.8230 C   0  0  0  0  0  0  0  0  0  0  0  0
   38.0590   27.8200   38.8510 H   0  0  0  0  0  0  0  0  0  0  0  0
   36.9170   30.6450   42.6590 H   0  0  0  0  0  0  0  0  0  0  0  0
   39.1810   24.5690   41.6370 C   0  0  0  0  0  0  0  0  0  0  0  0
   38.1360   23.6580   41.3680 C   0  0  0  0  0  0  0  0  0  0  0  0
   36.8980   24.1690   40.9470 C   0  0  0  0  0  0  0  0  0  0  0  0
   36.7800   25.5160   40.8230 N   0  0  0  0  0  0  0  0  0  0  0  0
   37.7790   26.3620   41.0810 C   0  0  0  0  0  0  0  0  0  0  0  0
   38.9930   25.8910   41.4930 N   0  0  0  0  0  0  0  0  0  0  0  0
   40.1330   24.1700   41.9610 H   0  0  0  0  0  0  0  0  0  0  0  0
   38.2830   22.5940   41.4820 H   0  0  0  0  0  0  0  0  0  0  0  0
   36.0730   23.4810   40.7320 H   0  0  0  0  0  0  0  0  0  0  0  0
   37.9280   30.4880   37.8710 S   0  0  0  0  0  0  0  0  0  0  0  0
   39.3310   30.5340   37.6510 H   0  0  0  0  0  0  0  0  0  0  0  0
  2  1  1  0  0  0  0
  3 15  1  0  0  0  0
  3  2  2  0  0  0  0
  4  3  1  0  0  0  0
  5  4  2  0  0  0  0
  5  6  1  0  0  0  0
  6  8  2  0  0  0  0
  7  6  1  0  0  0  0
  8  2  1  0  0  0  0
  8 10  1  0  0  0  0
  9  4  1  0  0  0  0
 11 17  1  0  0  0  0
 12 18  1  0  0  0  0
 12 11  2  0  0  0  0
 13 12  1  0  0  0  0
 14 13  2  0  0  0  0
 14 15  1  0  0  0  0
 15 16  2  0  0  0  0
 16 11  1  0  0  0  0
 19 13  1  0  0  0  0
 20  5  1  0  0  0  0
 21 20  1  0  0  0  0
M  END
>  <minimizedAffinity>
-4.06486797

$$$$
