
 OpenBabel03242517373D

 26 27  0  0  0  0  0  0  0  0999 V2000
   41.7820   35.5950   39.5910 C   0  0  0  0  0  0  0  0  0  0  0  0
   42.4980   35.5440   38.7470 H   0  0  0  0  0  0  0  0  0  0  0  0
   41.5470   36.6570   39.8650 H   0  0  0  0  0  0  0  0  0  0  0  0
   40.5140   34.9030   39.2630 C   0  0  0  0  0  0  0  0  0  0  0  0
   40.2030   34.6970   37.9190 C   0  0  0  0  0  0  0  0  0  0  0  0
   39.0290   34.0540   37.5800 C   0  0  0  0  0  0  0  0  0  0  0  0
   38.1390   33.6020   38.5690 C   0  0  0  0  0  0  0  0  0  0  0  0
   38.4510   33.8090   39.9050 C   0  0  0  0  0  0  0  0  0  0  0  0
   39.6300   34.4540   40.2290 C   0  0  0  0  0  0  0  0  0  0  0  0
   40.8990   35.0510   37.1700 H   0  0  0  0  0  0  0  0  0  0  0  0
   38.8760   33.9410   36.5100 H   0  0  0  0  0  0  0  0  0  0  0  0
   37.2470   33.1110   38.1980 H   0  0  0  0  0  0  0  0  0  0  0  0
   37.7400   33.4470   40.6460 H   0  0  0  0  0  0  0  0  0  0  0  0
   39.8530   34.6050   41.2760 H   0  0  0  0  0  0  0  0  0  0  0  0
   43.4450   35.5180   41.4280 C   0  0  0  0  0  0  0  0  0  0  0  0
   42.4320   34.9940   40.7910 C   0  0  0  0  0  0  0  0  0  0  0  0
   44.3550   35.7430   43.7320 C   0  0  0  0  0  0  0  0  0  0  0  0
   44.1150   34.9910   42.5850 C   0  0  0  0  0  0  0  0  0  0  0  0
   44.5440   33.6670   42.5680 C   0  0  0  0  0  0  0  0  0  0  0  0
   45.1830   33.1570   43.6660 N   0  0  0  0  0  0  0  0  0  0  0  0
   45.4010   33.9120   44.7640 C   0  0  0  0  0  0  0  0  0  0  0  0
   44.9870   35.1960   44.7890 N   0  0  0  0  0  0  0  0  0  0  0  0
   44.0290   36.7810   43.7710 H   0  0  0  0  0  0  0  0  0  0  0  0
   44.4110   32.9840   41.7260 H   0  0  0  0  0  0  0  0  0  0  0  0
   46.2480   33.1290   46.1400 S   0  0  0  0  0  0  0  0  0  0  0  0
   46.1700   31.7240   46.0390 H   0  0  0  0  0  0  0  0  0  0  0  0
  1  3  1  0  0  0  0
  1 16  1  0  0  0  0
  2  1  1  0  0  0  0
  4  1  1  0  0  0  0
  4  9  1  0  0  0  0
  5  4  2  0  0  0  0
  6  5  1  0  0  0  0
  6  7  2  0  0  0  0
  7  8  1  0  0  0  0
  8  9  2  0  0  0  0
  8 13  1  0  0  0  0
  9 14  1  0  0  0  0
 10  5  1  0  0  0  0
 11  6  1  0  0  0  0
 12  7  1  0  0  0  0
 15 18  1  0  0  0  0
 16 15  2  0  0  0  0
 17 23  1  0  0  0  0
 17 22  1  0  0  0  0
 18 17  2  0  0  0  0
 19 18  1  0  0  0  0
 19 20  2  0  0  0  0
 20 21  1  0  0  0  0
 21 22  2  0  0  0  0
 21 25  1  0  0  0  0
 24 19  1  0  0  0  0
 26 25  1  0  0  0  0
M  END
>  <minimizedAffinity>
-5.60139513

>  <minimizedRMSD>
0.273667157

$$$$
