
 OpenBabel03252507023D

 31 32  0  0  0  0  0  0  0  0999 V2000
   39.0310   27.8340   41.8700 C   0  0  0  0  0  0  0  0  0  0  0  0
   40.1070   27.8180   41.4980 H   0  0  0  0  0  0  0  0  0  0  0  0
   38.4820   28.0120   40.9140 H   0  0  0  0  0  0  0  0  0  0  0  0
   38.5570   26.7650   42.5010 N   0  0  0  0  0  0  0  0  0  0  0  0
   37.2110   26.4350   42.8050 C   0  0  0  0  0  0  0  0  0  0  0  0
   36.9770   25.3710   41.7050 C   0  0  0  0  0  0  0  0  0  0  0  0
   37.8680   24.2160   41.8240 C   0  0  0  0  0  0  0  0  0  0  0  0
   39.1390   24.3780   42.5260 C   0  0  0  0  0  0  0  0  0  0  0  0
   39.5580   25.7670   42.8980 C   0  0  0  0  0  0  0  0  0  0  0  0
   36.9520   26.0520   43.7750 H   0  0  0  0  0  0  0  0  0  0  0  0
   36.5130   27.2640   42.5610 H   0  0  0  0  0  0  0  0  0  0  0  0
   35.8910   25.0750   41.7880 H   0  0  0  0  0  0  0  0  0  0  0  0
   37.1160   25.8680   40.7220 H   0  0  0  0  0  0  0  0  0  0  0  0
   37.3080   23.3780   42.3290 H   0  0  0  0  0  0  0  0  0  0  0  0
   38.0700   23.8080   40.7920 H   0  0  0  0  0  0  0  0  0  0  0  0
   39.8220   23.6170   42.7930 H   0  0  0  0  0  0  0  0  0  0  0  0
   41.1120   26.0910   43.6790 S   0  0  0  0  0  0  0  0  0  0  0  0
   42.1750   25.6850   42.8340 H   0  0  0  0  0  0  0  0  0  0  0  0
   38.9100   29.0930   42.6740 C   0  0  0  0  0  0  0  0  0  0  0  0
   39.9250   29.5130   42.8810 H   0  0  0  0  0  0  0  0  0  0  0  0
   38.3990   28.9380   43.6540 H   0  0  0  0  0  0  0  0  0  0  0  0
   38.1590   30.0700   41.8440 C   0  0  0  0  0  0  0  0  0  0  0  0
   36.8480   29.8400   41.4750 C   0  0  0  0  0  0  0  0  0  0  0  0
   36.2140   30.8070   40.6780 C   0  0  0  0  0  0  0  0  0  0  0  0
   36.9250   31.9130   40.3160 N   0  0  0  0  0  0  0  0  0  0  0  0
   38.1910   32.0890   40.6990 C   0  0  0  0  0  0  0  0  0  0  0  0
   38.7920   31.1680   41.4570 N   0  0  0  0  0  0  0  0  0  0  0  0
   36.3190   28.9490   41.7820 H   0  0  0  0  0  0  0  0  0  0  0  0
   35.1940   30.6820   40.3590 H   0  0  0  0  0  0  0  0  0  0  0  0
   39.0370   33.5720   40.1730 S   0  0  0  0  0  0  0  0  0  0  0  0
   40.1420   33.8810   40.9890 H   0  0  0  0  0  0  0  0  0  0  0  0
  1  4  1  0  0  0  0
  1 19  1  0  0  0  0
  2  1  1  0  0  0  0
  3  1  1  0  0  0  0
  4  5  1  0  0  0  0
  4  9  1  0  0  0  0
  5 10  1  0  0  0  0
  6 12  1  0  0  0  0
  6  7  1  0  0  0  0
  6  5  1  0  0  0  0
  7 14  1  0  0  0  0
  7  8  1  0  0  0  0
  8 16  1  0  0  0  0
  8  9  2  0  0  0  0
  9 17  1  0  0  0  0
 11  5  1  0  0  0  0
 13  6  1  0  0  0  0
 15  7  1  0  0  0  0
 18 17  1  0  0  0  0
 19 20  1  0  0  0  0
 19 21  1  0  0  0  0
 22 19  1  0  0  0  0
 23 28  1  0  0  0  0
 23 22  1  0  0  0  0
 24 23  2  0  0  0  0
 25 24  1  0  0  0  0
 25 26  2  0  0  0  0
 26 27  1  0  0  0  0
 27 22  2  0  0  0  0
 29 24  1  0  0  0  0
 30 26  1  0  0  0  0
 30 31  1  0  0  0  0
M  END
>  <minimizedAffinity>
-4.40520096

$$$$

 OpenBabel03252507023D

 31 32  0  0  0  0  0  0  0  0999 V2000
   36.5550   27.8790   41.9770 C   0  0  0  0  0  0  0  0  0  0  0  0
   36.1990   28.7180   41.2940 H   0  0  0  0  0  0  0  0  0  0  0  0
   35.5910   27.5770   42.4540 H   0  0  0  0  0  0  0  0  0  0  0  0
   37.1710   26.8330   41.4380 N   0  0  0  0  0  0  0  0  0  0  0  0
   38.0260   25.8860   42.0590 C   0  0  0  0  0  0  0  0  0  0  0  0
   37.0270   24.7100   42.1760 C   0  0  0  0  0  0  0  0  0  0  0  0
   36.5370   24.2420   40.8780 C   0  0  0  0  0  0  0  0  0  0  0  0
   36.5660   25.1610   39.7420 C   0  0  0  0  0  0  0  0  0  0  0  0
   36.8930   26.5970   40.0160 C   0  0  0  0  0  0  0  0  0  0  0  0
   38.9340   25.5770   41.5770 H   0  0  0  0  0  0  0  0  0  0  0  0
   38.2670   26.1670   43.1070 H   0  0  0  0  0  0  0  0  0  0  0  0
   37.5710   23.8960   42.7370 H   0  0  0  0  0  0  0  0  0  0  0  0
   36.1800   25.0480   42.8090 H   0  0  0  0  0  0  0  0  0  0  0  0
   37.1180   23.3220   40.5830 H   0  0  0  0  0  0  0  0  0  0  0  0
   35.4860   23.8530   41.0070 H   0  0  0  0  0  0  0  0  0  0  0  0
   36.3610   24.9320   38.7310 H   0  0  0  0  0  0  0  0  0  0  0  0
   36.8800   27.8140   38.7320 S   0  0  0  0  0  0  0  0  0  0  0  0
   35.5820   27.9150   38.1720 H   0  0  0  0  0  0  0  0  0  0  0  0
   37.3650   28.5550   43.0410 C   0  0  0  0  0  0  0  0  0  0  0  0
   38.1270   27.8460   43.4490 H   0  0  0  0  0  0  0  0  0  0  0  0
   36.7470   28.9190   43.8970 H   0  0  0  0  0  0  0  0  0  0  0  0
   38.0770   29.6880   42.3950 C   0  0  0  0  0  0  0  0  0  0  0  0
   39.3410   30.0660   42.8010 C   0  0  0  0  0  0  0  0  0  0  0  0
   39.9390   31.1550   42.1480 C   0  0  0  0  0  0  0  0  0  0  0  0
   39.2410   31.7760   41.1550 N   0  0  0  0  0  0  0  0  0  0  0  0
   38.0200   31.3720   40.7990 C   0  0  0  0  0  0  0  0  0  0  0  0
   37.4530   30.3350   41.4210 N   0  0  0  0  0  0  0  0  0  0  0  0
   39.8620   29.5480   43.5940 H   0  0  0  0  0  0  0  0  0  0  0  0
   40.9230   31.4960   42.4220 H   0  0  0  0  0  0  0  0  0  0  0  0
   37.1860   32.2500   39.4850 S   0  0  0  0  0  0  0  0  0  0  0  0
   36.1680   31.4840   38.8850 H   0  0  0  0  0  0  0  0  0  0  0  0
  1  3  1  0  0  0  0
  1 19  1  0  0  0  0
  2  1  1  0  0  0  0
  4  1  1  0  0  0  0
  4  5  1  0  0  0  0
  5  6  1  0  0  0  0
  5 11  1  0  0  0  0
  6 12  1  0  0  0  0
  6 13  1  0  0  0  0
  7 15  1  0  0  0  0
  7  6  1  0  0  0  0
  8  9  2  0  0  0  0
  8  7  1  0  0  0  0
  9  4  1  0  0  0  0
 10  5  1  0  0  0  0
 14  7  1  0  0  0  0
 16  8  1  0  0  0  0
 17  9  1  0  0  0  0
 18 17  1  0  0  0  0
 19 20  1  0  0  0  0
 19 21  1  0  0  0  0
 22 23  1  0  0  0  0
 22 19  1  0  0  0  0
 23 28  1  0  0  0  0
 24 29  1  0  0  0  0
 24 23  2  0  0  0  0
 25 24  1  0  0  0  0
 26 25  2  0  0  0  0
 26 27  1  0  0  0  0
 27 22  2  0  0  0  0
 30 26  1  0  0  0  0
 31 30  1  0  0  0  0
M  END
>  <minimizedAffinity>
-4.39579535

$$$$

 OpenBabel03252507023D

 31 32  0  0  0  0  0  0  0  0999 V2000
   37.4080   27.4660   42.9320 C   0  0  0  0  0  0  0  0  0  0  0  0
   36.4370   27.4510   42.3380 H   0  0  0  0  0  0  0  0  0  0  0  0
   37.0690   27.0170   43.8960 H   0  0  0  0  0  0  0  0  0  0  0  0
   38.4640   26.8190   42.4490 N   0  0  0  0  0  0  0  0  0  0  0  0
   39.8410   27.0700   42.6760 C   0  0  0  0  0  0  0  0  0  0  0  0
   40.1250   25.9260   43.6800 C   0  0  0  0  0  0  0  0  0  0  0  0
   39.8920   24.5960   43.1150 C   0  0  0  0  0  0  0  0  0  0  0  0
   38.9770   24.4620   41.9830 C   0  0  0  0  0  0  0  0  0  0  0  0
   38.1630   25.6600   41.6010 C   0  0  0  0  0  0  0  0  0  0  0  0
   40.5380   27.0490   41.8590 H   0  0  0  0  0  0  0  0  0  0  0  0
   40.0050   28.0070   43.2500 H   0  0  0  0  0  0  0  0  0  0  0  0
   41.1950   26.0620   44.0080 H   0  0  0  0  0  0  0  0  0  0  0  0
   39.4770   26.0890   44.5670 H   0  0  0  0  0  0  0  0  0  0  0  0
   40.8830   24.1580   42.8020 H   0  0  0  0  0  0  0  0  0  0  0  0
   39.5540   23.9070   43.9410 H   0  0  0  0  0  0  0  0  0  0  0  0
   38.8040   23.5970   41.4010 H   0  0  0  0  0  0  0  0  0  0  0  0
   36.9660   25.5920   40.2990 S   0  0  0  0  0  0  0  0  0  0  0  0
   35.9590   24.6460   40.6130 H   0  0  0  0  0  0  0  0  0  0  0  0
   37.6800   28.9140   43.2060 C   0  0  0  0  0  0  0  0  0  0  0  0
   38.7760   29.0760   43.3510 H   0  0  0  0  0  0  0  0  0  0  0  0
   37.1570   29.2920   44.1170 H   0  0  0  0  0  0  0  0  0  0  0  0
   37.2490   29.6750   42.0050 C   0  0  0  0  0  0  0  0  0  0  0  0
   36.1960   29.2440   41.2230 C   0  0  0  0  0  0  0  0  0  0  0  0
   35.8600   30.0130   40.0970 C   0  0  0  0  0  0  0  0  0  0  0  0
   36.5900   31.1360   39.8400 N   0  0  0  0  0  0  0  0  0  0  0  0
   37.6010   31.5100   40.6280 C   0  0  0  0  0  0  0  0  0  0  0  0
   37.9170   30.7770   41.6990 N   0  0  0  0  0  0  0  0  0  0  0  0
   35.6420   28.3470   41.4590 H   0  0  0  0  0  0  0  0  0  0  0  0
   35.0490   29.7260   39.4490 H   0  0  0  0  0  0  0  0  0  0  0  0
   38.4970   32.9980   40.2090 S   0  0  0  0  0  0  0  0  0  0  0  0
   39.1850   33.5430   41.3100 H   0  0  0  0  0  0  0  0  0  0  0  0
  1 19  1  0  0  0  0
  1  3  1  0  0  0  0
  2  1  1  0  0  0  0
  4  5  1  0  0  0  0
  4  1  1  0  0  0  0
  5 11  1  0  0  0  0
  5  6  1  0  0  0  0
  6 12  1  0  0  0  0
  6 13  1  0  0  0  0
  7  6  1  0  0  0  0
  7 15  1  0  0  0  0
  8  7  1  0  0  0  0
  9  8  2  0  0  0  0
  9  4  1  0  0  0  0
 10  5  1  0  0  0  0
 14  7  1  0  0  0  0
 16  8  1  0  0  0  0
 17 18  1  0  0  0  0
 17  9  1  0  0  0  0
 19 20  1  0  0  0  0
 19 21  1  0  0  0  0
 22 19  1  0  0  0  0
 23 28  1  0  0  0  0
 23 22  2  0  0  0  0
 24 23  1  0  0  0  0
 25 24  2  0  0  0  0
 25 26  1  0  0  0  0
 26 27  2  0  0  0  0
 27 22  1  0  0  0  0
 29 24  1  0  0  0  0
 30 26  1  0  0  0  0
 30 31  1  0  0  0  0
M  END
>  <minimizedAffinity>
-4.34417677

$$$$

 OpenBabel03252507023D

 31 32  0  0  0  0  0  0  0  0999 V2000
   36.0110   29.3420   40.8020 C   0  0  0  0  0  0  0  0  0  0  0  0
   35.8980   29.2630   39.6720 H   0  0  0  0  0  0  0  0  0  0  0  0
   34.9800   29.0710   41.1340 H   0  0  0  0  0  0  0  0  0  0  0  0
   36.9220   28.5870   41.4080 N   0  0  0  0  0  0  0  0  0  0  0  0
   37.3700   28.6410   42.7530 C   0  0  0  0  0  0  0  0  0  0  0  0
   36.5970   27.4190   43.3060 C   0  0  0  0  0  0  0  0  0  0  0  0
   36.9650   26.1620   42.6520 C   0  0  0  0  0  0  0  0  0  0  0  0
   37.5350   26.2100   41.3070 C   0  0  0  0  0  0  0  0  0  0  0  0
   37.5110   27.5230   40.5870 C   0  0  0  0  0  0  0  0  0  0  0  0
   38.4170   28.5710   42.9790 H   0  0  0  0  0  0  0  0  0  0  0  0
   36.9550   29.5170   43.2960 H   0  0  0  0  0  0  0  0  0  0  0  0
   36.8100   27.3940   44.4140 H   0  0  0  0  0  0  0  0  0  0  0  0
   35.5130   27.6200   43.1760 H   0  0  0  0  0  0  0  0  0  0  0  0
   37.6980   25.6140   43.3100 H   0  0  0  0  0  0  0  0  0  0  0  0
   36.0660   25.4820   42.6440 H   0  0  0  0  0  0  0  0  0  0  0  0
   37.9540   25.4070   40.7630 H   0  0  0  0  0  0  0  0  0  0  0  0
   38.1000   27.6810   38.9260 S   0  0  0  0  0  0  0  0  0  0  0  0
   37.3350   26.8620   38.0580 H   0  0  0  0  0  0  0  0  0  0  0  0
   36.1800   30.8040   41.0810 C   0  0  0  0  0  0  0  0  0  0  0  0
   36.5590   30.9540   42.1210 H   0  0  0  0  0  0  0  0  0  0  0  0
   35.2290   31.3810   40.9790 H   0  0  0  0  0  0  0  0  0  0  0  0
   37.2020   31.3150   40.1310 C   0  0  0  0  0  0  0  0  0  0  0  0
   36.9950   31.2790   38.7660 C   0  0  0  0  0  0  0  0  0  0  0  0
   38.0170   31.7680   37.9370 C   0  0  0  0  0  0  0  0  0  0  0  0
   39.1510   32.2490   38.5230 N   0  0  0  0  0  0  0  0  0  0  0  0
   39.3020   32.2620   39.8490 C   0  0  0  0  0  0  0  0  0  0  0  0
   38.3290   31.7960   40.6360 N   0  0  0  0  0  0  0  0  0  0  0  0
   36.0820   30.8880   38.3400 H   0  0  0  0  0  0  0  0  0  0  0  0
   37.9130   31.7650   36.8660 H   0  0  0  0  0  0  0  0  0  0  0  0
   40.8240   32.9130   40.5220 S   0  0  0  0  0  0  0  0  0  0  0  0
   40.6930   33.3150   41.8650 H   0  0  0  0  0  0  0  0  0  0  0  0
  1 19  1  0  0  0  0
  1  3  1  0  0  0  0
  1  4  1  0  0  0  0
  2  1  1  0  0  0  0
  4  5  1  0  0  0  0
  5 10  1  0  0  0  0
  5 11  1  0  0  0  0
  5  6  1  0  0  0  0
  6 12  1  0  0  0  0
  7  6  1  0  0  0  0
  7 14  1  0  0  0  0
  8  7  1  0  0  0  0
  9  8  2  0  0  0  0
  9  4  1  0  0  0  0
 13  6  1  0  0  0  0
 15  7  1  0  0  0  0
 16  8  1  0  0  0  0
 17  9  1  0  0  0  0
 18 17  1  0  0  0  0
 19 20  1  0  0  0  0
 21 19  1  0  0  0  0
 22 27  1  0  0  0  0
 22 19  1  0  0  0  0
 23 22  2  0  0  0  0
 24 25  2  0  0  0  0
 24 23  1  0  0  0  0
 25 26  1  0  0  0  0
 26 30  1  0  0  0  0
 26 27  2  0  0  0  0
 28 23  1  0  0  0  0
 29 24  1  0  0  0  0
 30 31  1  0  0  0  0
M  END
>  <minimizedAffinity>
-4.34240103

$$$$

 OpenBabel03252507023D

 31 32  0  0  0  0  0  0  0  0999 V2000
   39.9050   30.7090   40.5950 C   0  0  0  0  0  0  0  0  0  0  0  0
   39.8290   29.6010   40.3380 H   0  0  0  0  0  0  0  0  0  0  0  0
   41.0120   30.8260   40.6840 H   0  0  0  0  0  0  0  0  0  0  0  0
   39.3960   31.5980   39.7490 N   0  0  0  0  0  0  0  0  0  0  0  0
   38.5020   31.3880   38.6690 C   0  0  0  0  0  0  0  0  0  0  0  0
   37.2030   31.9030   39.3360 C   0  0  0  0  0  0  0  0  0  0  0  0
   37.2780   33.3120   39.7250 C   0  0  0  0  0  0  0  0  0  0  0  0
   38.5910   33.9100   39.9560 C   0  0  0  0  0  0  0  0  0  0  0  0
   39.7760   32.9950   39.9940 C   0  0  0  0  0  0  0  0  0  0  0  0
   38.6690   31.8710   37.7240 H   0  0  0  0  0  0  0  0  0  0  0  0
   38.3220   30.3080   38.4800 H   0  0  0  0  0  0  0  0  0  0  0  0
   36.3780   31.7160   38.5910 H   0  0  0  0  0  0  0  0  0  0  0  0
   37.0070   31.2670   40.2240 H   0  0  0  0  0  0  0  0  0  0  0  0
   36.7590   33.9320   38.9380 H   0  0  0  0  0  0  0  0  0  0  0  0
   36.6380   33.4690   40.6400 H   0  0  0  0  0  0  0  0  0  0  0  0
   38.8070   34.9310   40.1220 H   0  0  0  0  0  0  0  0  0  0  0  0
   41.4030   33.5950   40.3450 S   0  0  0  0  0  0  0  0  0  0  0  0
   41.4400   34.1700   41.6410 H   0  0  0  0  0  0  0  0  0  0  0  0
   39.3490   30.8310   41.9810 C   0  0  0  0  0  0  0  0  0  0  0  0
   38.5700   31.6310   42.0110 H   0  0  0  0  0  0  0  0  0  0  0  0
   40.1250   31.0820   42.7430 H   0  0  0  0  0  0  0  0  0  0  0  0
   38.7010   29.5340   42.3080 C   0  0  0  0  0  0  0  0  0  0  0  0
   37.3390   29.3570   42.1670 C   0  0  0  0  0  0  0  0  0  0  0  0
   36.8030   28.1060   42.5100 C   0  0  0  0  0  0  0  0  0  0  0  0
   37.6540   27.1400   42.9610 N   0  0  0  0  0  0  0  0  0  0  0  0
   38.9650   27.3610   43.0800 C   0  0  0  0  0  0  0  0  0  0  0  0
   39.4720   28.5520   42.7520 N   0  0  0  0  0  0  0  0  0  0  0  0
   36.6970   30.1490   41.8060 H   0  0  0  0  0  0  0  0  0  0  0  0
   35.7480   27.9090   42.4220 H   0  0  0  0  0  0  0  0  0  0  0  0
   39.9970   26.0320   43.6790 S   0  0  0  0  0  0  0  0  0  0  0  0
   41.3500   26.1950   43.3220 H   0  0  0  0  0  0  0  0  0  0  0  0
  1  3  1  0  0  0  0
  1 19  1  0  0  0  0
  2  1  1  0  0  0  0
  4  9  1  0  0  0  0
  4  1  1  0  0  0  0
  5  6  1  0  0  0  0
  5  4  1  0  0  0  0
  6  7  1  0  0  0  0
  6 13  1  0  0  0  0
  7  8  1  0  0  0  0
  7 15  1  0  0  0  0
  8  9  2  0  0  0  0
  8 16  1  0  0  0  0
  9 17  1  0  0  0  0
 10  5  1  0  0  0  0
 11  5  1  0  0  0  0
 12  6  1  0  0  0  0
 14  7  1  0  0  0  0
 17 18  1  0  0  0  0
 19 20  1  0  0  0  0
 19 22  1  0  0  0  0
 19 21  1  0  0  0  0
 22 27  1  0  0  0  0
 23 22  2  0  0  0  0
 23 24  1  0  0  0  0
 24 25  2  0  0  0  0
 25 26  1  0  0  0  0
 26 30  1  0  0  0  0
 27 26  2  0  0  0  0
 28 23  1  0  0  0  0
 29 24  1  0  0  0  0
 31 30  1  0  0  0  0
M  END
>  <minimizedAffinity>
-4.26963902

$$$$

 OpenBabel03252507023D

 31 32  0  0  0  0  0  0  0  0999 V2000
   39.6640   29.3850   42.0810 C   0  0  0  0  0  0  0  0  0  0  0  0
   40.7160   29.0340   41.8200 H   0  0  0  0  0  0  0  0  0  0  0  0
   39.2320   29.5240   41.0600 H   0  0  0  0  0  0  0  0  0  0  0  0
   38.8930   28.5990   42.8230 N   0  0  0  0  0  0  0  0  0  0  0  0
   37.5880   28.8460   43.3220 C   0  0  0  0  0  0  0  0  0  0  0  0
   36.7860   27.9810   42.3200 C   0  0  0  0  0  0  0  0  0  0  0  0
   37.1380   26.5620   42.3760 C   0  0  0  0  0  0  0  0  0  0  0  0
   38.4520   26.1830   42.8920 C   0  0  0  0  0  0  0  0  0  0  0  0
   39.4480   27.2750   43.1320 C   0  0  0  0  0  0  0  0  0  0  0  0
   37.3380   28.5950   44.3360 H   0  0  0  0  0  0  0  0  0  0  0  0
   37.2600   29.8910   43.1320 H   0  0  0  0  0  0  0  0  0  0  0  0
   35.6980   28.1550   42.5630 H   0  0  0  0  0  0  0  0  0  0  0  0
   36.9720   28.3860   41.3030 H   0  0  0  0  0  0  0  0  0  0  0  0
   36.3640   26.0220   42.9940 H   0  0  0  0  0  0  0  0  0  0  0  0
   37.0060   26.1160   41.3490 H   0  0  0  0  0  0  0  0  0  0  0  0
   38.7970   25.2060   43.1020 H   0  0  0  0  0  0  0  0  0  0  0  0
   41.0940   26.9280   43.6790 S   0  0  0  0  0  0  0  0  0  0  0  0
   41.7670   26.1300   42.7200 H   0  0  0  0  0  0  0  0  0  0  0  0
   39.8390   30.7560   42.6610 C   0  0  0  0  0  0  0  0  0  0  0  0
   40.8570   30.8530   43.1110 H   0  0  0  0  0  0  0  0  0  0  0  0
   39.0910   30.9930   43.4550 H   0  0  0  0  0  0  0  0  0  0  0  0
   39.7290   31.7230   41.5380 C   0  0  0  0  0  0  0  0  0  0  0  0
   38.5340   31.9190   40.8740 C   0  0  0  0  0  0  0  0  0  0  0  0
   38.5180   32.8410   39.8150 C   0  0  0  0  0  0  0  0  0  0  0  0
   39.6780   33.4870   39.5030 N   0  0  0  0  0  0  0  0  0  0  0  0
   40.8090   33.2610   40.1760 C   0  0  0  0  0  0  0  0  0  0  0  0
   40.8210   32.3840   41.1830 N   0  0  0  0  0  0  0  0  0  0  0  0
   37.6350   31.3870   41.1520 H   0  0  0  0  0  0  0  0  0  0  0  0
   37.6160   33.0350   39.2610 H   0  0  0  0  0  0  0  0  0  0  0  0
   42.2760   34.1580   39.6920 S   0  0  0  0  0  0  0  0  0  0  0  0
   43.2390   34.2120   40.7180 H   0  0  0  0  0  0  0  0  0  0  0  0
  1 19  1  0  0  0  0
  1  4  1  0  0  0  0
  2  1  1  0  0  0  0
  3  1  1  0  0  0  0
  4  9  1  0  0  0  0
  4  5  1  0  0  0  0
  5 10  1  0  0  0  0
  6  7  1  0  0  0  0
  6 12  1  0  0  0  0
  6  5  1  0  0  0  0
  7  8  1  0  0  0  0
  7 14  1  0  0  0  0
  8 16  1  0  0  0  0
  8  9  2  0  0  0  0
  9 17  1  0  0  0  0
 11  5  1  0  0  0  0
 13  6  1  0  0  0  0
 15  7  1  0  0  0  0
 18 17  1  0  0  0  0
 19 20  1  0  0  0  0
 19 21  1  0  0  0  0
 22 19  1  0  0  0  0
 23 28  1  0  0  0  0
 23 22  2  0  0  0  0
 24 23  1  0  0  0  0
 25 24  2  0  0  0  0
 25 26  1  0  0  0  0
 26 27  2  0  0  0  0
 27 22  1  0  0  0  0
 29 24  1  0  0  0  0
 30 26  1  0  0  0  0
 30 31  1  0  0  0  0
M  END
>  <minimizedAffinity>
-4.24162483

$$$$

 OpenBabel03252507023D

 31 32  0  0  0  0  0  0  0  0999 V2000
   38.3490   29.5520   39.9100 C   0  0  0  0  0  0  0  0  0  0  0  0
   39.4810   29.6750   39.9360 H   0  0  0  0  0  0  0  0  0  0  0  0
   38.2590   28.5550   39.4160 H   0  0  0  0  0  0  0  0  0  0  0  0
   37.6760   29.5800   41.0550 N   0  0  0  0  0  0  0  0  0  0  0  0
   36.2770   29.4810   41.2680 C   0  0  0  0  0  0  0  0  0  0  0  0
   36.2170   28.0120   41.7520 C   0  0  0  0  0  0  0  0  0  0  0  0
   36.9790   27.7800   42.9800 C   0  0  0  0  0  0  0  0  0  0  0  0
   38.0740   28.6910   43.3110 C   0  0  0  0  0  0  0  0  0  0  0  0
   38.4950   29.6810   42.2690 C   0  0  0  0  0  0  0  0  0  0  0  0
   35.7860   30.1370   41.9620 H   0  0  0  0  0  0  0  0  0  0  0  0
   35.7080   29.4960   40.3140 H   0  0  0  0  0  0  0  0  0  0  0  0
   35.1220   27.7750   41.8860 H   0  0  0  0  0  0  0  0  0  0  0  0
   36.6020   27.3710   40.9310 H   0  0  0  0  0  0  0  0  0  0  0  0
   36.2660   27.7790   43.8530 H   0  0  0  0  0  0  0  0  0  0  0  0
   37.3740   26.7240   42.9670 H   0  0  0  0  0  0  0  0  0  0  0  0
   38.6280   28.7220   44.2100 H   0  0  0  0  0  0  0  0  0  0  0  0
   39.8590   30.7780   42.5280 S   0  0  0  0  0  0  0  0  0  0  0  0
   41.0510   30.0360   42.7200 H   0  0  0  0  0  0  0  0  0  0  0  0
   37.8650   30.5660   38.9190 C   0  0  0  0  0  0  0  0  0  0  0  0
   36.7570   30.6860   39.0050 H   0  0  0  0  0  0  0  0  0  0  0  0
   38.0950   30.2890   37.8620 H   0  0  0  0  0  0  0  0  0  0  0  0
   38.5050   31.8600   39.2690 C   0  0  0  0  0  0  0  0  0  0  0  0
   37.7740   32.8990   39.8100 C   0  0  0  0  0  0  0  0  0  0  0  0
   38.4510   34.0940   40.1000 C   0  0  0  0  0  0  0  0  0  0  0  0
   39.7870   34.1610   39.8330 N   0  0  0  0  0  0  0  0  0  0  0  0
   40.4490   33.1270   39.3090 C   0  0  0  0  0  0  0  0  0  0  0  0
   39.8020   31.9910   39.0340 N   0  0  0  0  0  0  0  0  0  0  0  0
   36.7150   32.8070   40.0070 H   0  0  0  0  0  0  0  0  0  0  0  0
   37.9340   34.9380   40.5220 H   0  0  0  0  0  0  0  0  0  0  0  0
   42.1980   33.3130   38.9960 S   0  0  0  0  0  0  0  0  0  0  0  0
   42.8650   32.0760   38.9070 H   0  0  0  0  0  0  0  0  0  0  0  0
  1  2  1  0  0  0  0
  1  4  1  0  0  0  0
  3  1  1  0  0  0  0
  4  5  1  0  0  0  0
  4  9  1  0  0  0  0
  5  6  1  0  0  0  0
  5 10  1  0  0  0  0
  6 12  1  0  0  0  0
  6  7  1  0  0  0  0
  7  8  1  0  0  0  0
  7 14  1  0  0  0  0
  8 16  1  0  0  0  0
  9 17  1  0  0  0  0
  9  8  2  0  0  0  0
 11  5  1  0  0  0  0
 13  6  1  0  0  0  0
 15  7  1  0  0  0  0
 17 18  1  0  0  0  0
 19 20  1  0  0  0  0
 19 22  1  0  0  0  0
 19  1  1  0  0  0  0
 21 19  1  0  0  0  0
 22 23  1  0  0  0  0
 23 28  1  0  0  0  0
 23 24  2  0  0  0  0
 24 29  1  0  0  0  0
 25 24  1  0  0  0  0
 26 25  2  0  0  0  0
 27 22  2  0  0  0  0
 27 26  1  0  0  0  0
 30 26  1  0  0  0  0
 31 30  1  0  0  0  0
M  END
>  <minimizedAffinity>
-4.24112797

$$$$

 OpenBabel03252507023D

 31 32  0  0  0  0  0  0  0  0999 V2000
   39.7050   29.3060   42.2250 C   0  0  0  0  0  0  0  0  0  0  0  0
   40.8280   29.2700   42.4120 H   0  0  0  0  0  0  0  0  0  0  0  0
   39.6690   29.0780   41.1320 H   0  0  0  0  0  0  0  0  0  0  0  0
   38.9160   28.4860   42.9100 N   0  0  0  0  0  0  0  0  0  0  0  0
   37.6100   28.7200   43.4120 C   0  0  0  0  0  0  0  0  0  0  0  0
   36.8060   27.9320   42.3500 C   0  0  0  0  0  0  0  0  0  0  0  0
   37.1370   26.5070   42.3200 C   0  0  0  0  0  0  0  0  0  0  0  0
   38.4410   26.0770   42.8230 C   0  0  0  0  0  0  0  0  0  0  0  0
   39.4490   27.1380   43.1400 C   0  0  0  0  0  0  0  0  0  0  0  0
   37.3470   28.4100   44.4060 H   0  0  0  0  0  0  0  0  0  0  0  0
   37.2990   29.7800   43.2850 H   0  0  0  0  0  0  0  0  0  0  0  0
   35.7180   28.1060   42.5940 H   0  0  0  0  0  0  0  0  0  0  0  0
   37.0080   28.3970   41.3620 H   0  0  0  0  0  0  0  0  0  0  0  0
   36.3500   25.9410   42.8960 H   0  0  0  0  0  0  0  0  0  0  0  0
   37.0090   26.1280   41.2660 H   0  0  0  0  0  0  0  0  0  0  0  0
   38.7700   25.0840   42.9750 H   0  0  0  0  0  0  0  0  0  0  0  0
   41.0850   26.7320   43.6790 S   0  0  0  0  0  0  0  0  0  0  0  0
   41.7560   25.9860   42.6780 H   0  0  0  0  0  0  0  0  0  0  0  0
   39.3270   30.7480   42.3750 C   0  0  0  0  0  0  0  0  0  0  0  0
   40.2230   31.3500   42.6640 H   0  0  0  0  0  0  0  0  0  0  0  0
   38.5410   30.9160   43.1490 H   0  0  0  0  0  0  0  0  0  0  0  0
   38.8570   31.2160   41.0450 C   0  0  0  0  0  0  0  0  0  0  0  0
   37.5130   31.3790   40.7770 C   0  0  0  0  0  0  0  0  0  0  0  0
   37.1500   31.8120   39.4910 C   0  0  0  0  0  0  0  0  0  0  0  0
   38.1430   32.0470   38.5850 N   0  0  0  0  0  0  0  0  0  0  0  0
   39.4290   31.8740   38.8940 C   0  0  0  0  0  0  0  0  0  0  0  0
   39.7710   31.4630   40.1180 N   0  0  0  0  0  0  0  0  0  0  0  0
   36.7560   31.1820   41.5220 H   0  0  0  0  0  0  0  0  0  0  0  0
   36.1180   31.9560   39.2230 H   0  0  0  0  0  0  0  0  0  0  0  0
   40.6550   32.2090   37.6380 S   0  0  0  0  0  0  0  0  0  0  0  0
   41.9310   32.4560   38.1810 H   0  0  0  0  0  0  0  0  0  0  0  0
  1 19  1  0  0  0  0
  1  2  1  0  0  0  0
  1  4  1  0  0  0  0
  3  1  1  0  0  0  0
  4  9  1  0  0  0  0
  4  5  1  0  0  0  0
  5 10  1  0  0  0  0
  6 12  1  0  0  0  0
  6  5  1  0  0  0  0
  7  6  1  0  0  0  0
  7  8  1  0  0  0  0
  7 14  1  0  0  0  0
  8 16  1  0  0  0  0
  8  9  2  0  0  0  0
  9 17  1  0  0  0  0
 11  5  1  0  0  0  0
 13  6  1  0  0  0  0
 15  7  1  0  0  0  0
 18 17  1  0  0  0  0
 19 20  1  0  0  0  0
 19 21  1  0  0  0  0
 22 19  1  0  0  0  0
 23 22  1  0  0  0  0
 23 28  1  0  0  0  0
 24 23  2  0  0  0  0
 25 26  2  0  0  0  0
 25 24  1  0  0  0  0
 26 27  1  0  0  0  0
 27 22  2  0  0  0  0
 29 24  1  0  0  0  0
 30 31  1  0  0  0  0
 30 26  1  0  0  0  0
M  END
>  <minimizedAffinity>
-4.20630121

$$$$

 OpenBabel03252507023D

 31 32  0  0  0  0  0  0  0  0999 V2000
   37.1700   28.1230   39.3410 C   0  0  0  0  0  0  0  0  0  0  0  0
   37.7860   27.8850   38.4130 H   0  0  0  0  0  0  0  0  0  0  0  0
   37.9630   28.1020   40.1270 H   0  0  0  0  0  0  0  0  0  0  0  0
   36.4870   29.2620   39.3810 N   0  0  0  0  0  0  0  0  0  0  0  0
   35.5350   29.6960   40.3390 C   0  0  0  0  0  0  0  0  0  0  0  0
   36.4270   30.6890   41.1210 C   0  0  0  0  0  0  0  0  0  0  0  0
   36.9200   31.7930   40.2950 C   0  0  0  0  0  0  0  0  0  0  0  0
   37.0060   31.6030   38.8480 C   0  0  0  0  0  0  0  0  0  0  0  0
   36.7920   30.2210   38.3120 C   0  0  0  0  0  0  0  0  0  0  0  0
   34.6210   30.1620   40.0230 H   0  0  0  0  0  0  0  0  0  0  0  0
   35.2830   28.8950   41.0680 H   0  0  0  0  0  0  0  0  0  0  0  0
   35.7980   31.0580   41.9820 H   0  0  0  0  0  0  0  0  0  0  0  0
   37.2770   30.1160   41.5460 H   0  0  0  0  0  0  0  0  0  0  0  0
   36.2730   32.6980   40.4780 H   0  0  0  0  0  0  0  0  0  0  0  0
   37.9290   32.1120   40.6820 H   0  0  0  0  0  0  0  0  0  0  0  0
   37.2250   32.3380   38.1200 H   0  0  0  0  0  0  0  0  0  0  0  0
   36.9500   29.8590   36.5880 S   0  0  0  0  0  0  0  0  0  0  0  0
   38.2700   30.1360   36.1520 H   0  0  0  0  0  0  0  0  0  0  0  0
   36.3130   26.9150   39.5650 C   0  0  0  0  0  0  0  0  0  0  0  0
   36.2140   26.3350   38.6150 H   0  0  0  0  0  0  0  0  0  0  0  0
   35.2850   27.1670   39.9190 H   0  0  0  0  0  0  0  0  0  0  0  0
   37.0110   26.0630   40.5620 C   0  0  0  0  0  0  0  0  0  0  0  0
   36.8560   24.6910   40.5680 C   0  0  0  0  0  0  0  0  0  0  0  0
   37.5400   23.9590   41.5520 C   0  0  0  0  0  0  0  0  0  0  0  0
   38.3150   24.6420   42.4430 N   0  0  0  0  0  0  0  0  0  0  0  0
   38.4320   25.9700   42.3950 C   0  0  0  0  0  0  0  0  0  0  0  0
   37.7810   26.6640   41.4580 N   0  0  0  0  0  0  0  0  0  0  0  0
   36.2320   24.1860   39.8440 H   0  0  0  0  0  0  0  0  0  0  0  0
   37.4570   22.8870   41.6060 H   0  0  0  0  0  0  0  0  0  0  0  0
   39.4720   26.7730   43.6060 S   0  0  0  0  0  0  0  0  0  0  0  0
   39.8960   28.0500   43.1930 H   0  0  0  0  0  0  0  0  0  0  0  0
  1  4  1  0  0  0  0
  1 19  1  0  0  0  0
  1  3  1  0  0  0  0
  2  1  1  0  0  0  0
  4  5  1  0  0  0  0
  5 11  1  0  0  0  0
  5  6  1  0  0  0  0
  6 13  1  0  0  0  0
  6 12  1  0  0  0  0
  7 14  1  0  0  0  0
  7 15  1  0  0  0  0
  7  6  1  0  0  0  0
  8  7  1  0  0  0  0
  9  8  2  0  0  0  0
  9  4  1  0  0  0  0
 10  5  1  0  0  0  0
 16  8  1  0  0  0  0
 17  9  1  0  0  0  0
 18 17  1  0  0  0  0
 19 21  1  0  0  0  0
 19 22  1  0  0  0  0
 20 19  1  0  0  0  0
 22 23  2  0  0  0  0
 22 27  1  0  0  0  0
 23 24  1  0  0  0  0
 24 29  1  0  0  0  0
 24 25  2  0  0  0  0
 26 25  1  0  0  0  0
 26 30  1  0  0  0  0
 27 26  2  0  0  0  0
 28 23  1  0  0  0  0
 31 30  1  0  0  0  0
M  END
>  <minimizedAffinity>
-4.17041206

$$$$
