
 OpenBabel03252508223D

 27 28  0  0  0  0  0  0  0  0999 V2000
   38.6200   27.4080   43.5500 C   0  0  0  0  0  0  0  0  0  0  0  0
   38.9730   27.2780   44.5820 H   0  0  0  0  0  0  0  0  0  0  0  0
   39.4270   27.9500   43.0110 H   0  0  0  0  0  0  0  0  0  0  0  0
   38.3290   26.1820   42.8140 C   0  0  0  0  0  0  0  0  0  0  0  0
   37.1020   25.8300   42.3150 C   0  0  0  0  0  0  0  0  0  0  0  0
   36.8420   24.6590   41.6180 C   0  0  0  0  0  0  0  0  0  0  0  0
   37.9170   23.7940   41.4230 C   0  0  0  0  0  0  0  0  0  0  0  0
   39.1690   24.1180   41.9150 C   0  0  0  0  0  0  0  0  0  0  0  0
   39.3750   25.2920   42.5990 C   0  0  0  0  0  0  0  0  0  0  0  0
   36.2730   26.5050   42.4690 H   0  0  0  0  0  0  0  0  0  0  0  0
   35.8490   24.4350   41.2460 H   0  0  0  0  0  0  0  0  0  0  0  0
   37.7790   22.8640   40.8870 H   0  0  0  0  0  0  0  0  0  0  0  0
   39.9630   23.4280   41.7430 H   0  0  0  0  0  0  0  0  0  0  0  0
   41.0140   25.6320   43.1970 S   0  0  0  0  0  0  0  0  0  0  0  0
   41.1470   25.3910   44.5680 H   0  0  0  0  0  0  0  0  0  0  0  0
   37.4230   28.3570   43.5090 C   0  0  0  0  0  0  0  0  0  0  0  0
   36.5660   27.7810   43.0780 H   0  0  0  0  0  0  0  0  0  0  0  0
   37.1110   28.6930   44.5140 H   0  0  0  0  0  0  0  0  0  0  0  0
   39.3230   31.0860   41.7370 C   0  0  0  0  0  0  0  0  0  0  0  0
   39.0320   30.0170   42.6240 C   0  0  0  0  0  0  0  0  0  0  0  0
   37.7580   29.4770   42.5910 C   0  0  0  0  0  0  0  0  0  0  0  0
   36.8670   30.0150   41.7000 N   0  0  0  0  0  0  0  0  0  0  0  0
   37.1740   31.0190   40.8800 C   0  0  0  0  0  0  0  0  0  0  0  0
   38.3990   31.5590   40.8930 N   0  0  0  0  0  0  0  0  0  0  0  0
   40.3360   31.4720   41.8050 H   0  0  0  0  0  0  0  0  0  0  0  0
   39.7940   29.6620   43.2880 H   0  0  0  0  0  0  0  0  0  0  0  0
   36.3820   31.3650   40.2130 H   0  0  0  0  0  0  0  0  0  0  0  0
  1  2  1  0  0  0  0
  3  1  1  0  0  0  0
  4  1  1  0  0  0  0
  5 10  1  0  0  0  0
  5  4  2  0  0  0  0
  6  5  1  0  0  0  0
  7  6  2  0  0  0  0
  7  8  1  0  0  0  0
  8  9  2  0  0  0  0
  9  4  1  0  0  0  0
  9 14  1  0  0  0  0
 11  6  1  0  0  0  0
 12  7  1  0  0  0  0
 13  8  1  0  0  0  0
 14 15  1  0  0  0  0
 16  1  1  0  0  0  0
 16 18  1  0  0  0  0
 17 16  1  0  0  0  0
 19 25  1  0  0  0  0
 19 20  1  0  0  0  0
 20 26  1  0  0  0  0
 21 20  2  0  0  0  0
 21 16  1  0  0  0  0
 22 21  1  0  0  0  0
 23 24  1  0  0  0  0
 23 22  2  0  0  0  0
 24 19  2  0  0  0  0
 27 23  1  0  0  0  0
M  END
>  <minimizedAffinity>
-4.71623278

$$$$

 OpenBabel03252508223D

 27 28  0  0  0  0  0  0  0  0999 V2000
   36.2770   28.0910   41.8990 C   0  0  0  0  0  0  0  0  0  0  0  0
   35.2650   28.0000   42.3180 H   0  0  0  0  0  0  0  0  0  0  0  0
   36.4910   27.1290   41.3870 H   0  0  0  0  0  0  0  0  0  0  0  0
   36.4770   29.1710   40.9380 C   0  0  0  0  0  0  0  0  0  0  0  0
   36.6020   30.4990   41.2520 C   0  0  0  0  0  0  0  0  0  0  0  0
   36.7910   31.5120   40.3240 C   0  0  0  0  0  0  0  0  0  0  0  0
   36.8550   31.1330   38.9850 C   0  0  0  0  0  0  0  0  0  0  0  0
   36.7320   29.8000   38.6330 C   0  0  0  0  0  0  0  0  0  0  0  0
   36.5460   28.8330   39.5910 C   0  0  0  0  0  0  0  0  0  0  0  0
   36.5510   30.7870   42.2920 H   0  0  0  0  0  0  0  0  0  0  0  0
   36.8830   32.5480   40.6330 H   0  0  0  0  0  0  0  0  0  0  0  0
   37.0010   31.8770   38.2120 H   0  0  0  0  0  0  0  0  0  0  0  0
   36.7870   29.5540   37.5970 H   0  0  0  0  0  0  0  0  0  0  0  0
   36.3980   27.1450   39.0540 S   0  0  0  0  0  0  0  0  0  0  0  0
   35.0740   26.6940   39.0550 H   0  0  0  0  0  0  0  0  0  0  0  0
   37.3130   28.1700   43.0200 C   0  0  0  0  0  0  0  0  0  0  0  0
   37.9910   29.0270   42.7760 H   0  0  0  0  0  0  0  0  0  0  0  0
   36.8610   28.3890   44.0040 H   0  0  0  0  0  0  0  0  0  0  0  0
   40.0450   25.6520   43.6440 C   0  0  0  0  0  0  0  0  0  0  0  0
   39.3110   26.8660   43.6790 C   0  0  0  0  0  0  0  0  0  0  0  0
   38.1040   26.9120   43.0020 C   0  0  0  0  0  0  0  0  0  0  0  0
   37.7050   25.7780   42.3460 N   0  0  0  0  0  0  0  0  0  0  0  0
   38.4190   24.6540   42.3340 C   0  0  0  0  0  0  0  0  0  0  0  0
   39.5890   24.5840   42.9810 N   0  0  0  0  0  0  0  0  0  0  0  0
   40.9840   25.6720   44.1920 H   0  0  0  0  0  0  0  0  0  0  0  0
   39.7040   27.7030   44.2200 H   0  0  0  0  0  0  0  0  0  0  0  0
   38.0000   23.8140   41.7770 H   0  0  0  0  0  0  0  0  0  0  0  0
  1  2  1  0  0  0  0
  1 16  1  0  0  0  0
  3  1  1  0  0  0  0
  4  5  1  0  0  0  0
  4  1  1  0  0  0  0
  5 10  1  0  0  0  0
  6 11  1  0  0  0  0
  6  5  2  0  0  0  0
  7  6  1  0  0  0  0
  8  7  2  0  0  0  0
  8  9  1  0  0  0  0
  9  4  2  0  0  0  0
 12  7  1  0  0  0  0
 13  8  1  0  0  0  0
 14 15  1  0  0  0  0
 14  9  1  0  0  0  0
 16 18  1  0  0  0  0
 17 16  1  0  0  0  0
 19 20  1  0  0  0  0
 19 25  1  0  0  0  0
 20 26  1  0  0  0  0
 21 16  1  0  0  0  0
 21 20  2  0  0  0  0
 22 21  1  0  0  0  0
 23 22  2  0  0  0  0
 23 24  1  0  0  0  0
 24 19  2  0  0  0  0
 27 23  1  0  0  0  0
M  END
>  <minimizedAffinity>
-4.51883221

$$$$

 OpenBabel03252508223D

 27 28  0  0  0  0  0  0  0  0999 V2000
   36.1840   27.8670   40.0850 C   0  0  0  0  0  0  0  0  0  0  0  0
   36.7020   27.8260   39.1170 H   0  0  0  0  0  0  0  0  0  0  0  0
   35.4530   27.0300   40.0840 H   0  0  0  0  0  0  0  0  0  0  0  0
   37.0270   27.7310   41.2690 C   0  0  0  0  0  0  0  0  0  0  0  0
   36.5860   27.7830   42.5660 C   0  0  0  0  0  0  0  0  0  0  0  0
   37.4020   27.6520   43.6800 C   0  0  0  0  0  0  0  0  0  0  0  0
   38.7610   27.4560   43.4420 C   0  0  0  0  0  0  0  0  0  0  0  0
   39.2390   27.3990   42.1450 C   0  0  0  0  0  0  0  0  0  0  0  0
   38.3880   27.5350   41.0740 C   0  0  0  0  0  0  0  0  0  0  0  0
   35.5310   27.9350   42.7430 H   0  0  0  0  0  0  0  0  0  0  0  0
   36.9950   27.7010   44.6840 H   0  0  0  0  0  0  0  0  0  0  0  0
   39.4500   27.3460   44.2690 H   0  0  0  0  0  0  0  0  0  0  0  0
   40.2850   27.2470   42.0080 H   0  0  0  0  0  0  0  0  0  0  0  0
   39.0850   27.4500   39.4400 S   0  0  0  0  0  0  0  0  0  0  0  0
   39.2260   28.7090   38.8500 H   0  0  0  0  0  0  0  0  0  0  0  0
   35.3250   29.1290   40.1780 C   0  0  0  0  0  0  0  0  0  0  0  0
   34.4990   29.0140   39.4310 H   0  0  0  0  0  0  0  0  0  0  0  0
   34.8480   29.2480   41.1680 H   0  0  0  0  0  0  0  0  0  0  0  0
   37.3840   31.5240   38.1250 C   0  0  0  0  0  0  0  0  0  0  0  0
   36.5790   30.4070   38.4700 C   0  0  0  0  0  0  0  0  0  0  0  0
   36.1690   30.2870   39.7870 C   0  0  0  0  0  0  0  0  0  0  0  0
   36.5710   31.2590   40.6640 N   0  0  0  0  0  0  0  0  0  0  0  0
   37.3270   32.2960   40.3060 C   0  0  0  0  0  0  0  0  0  0  0  0
   37.7370   32.4340   39.0390 N   0  0  0  0  0  0  0  0  0  0  0  0
   37.6770   31.5680   37.0790 H   0  0  0  0  0  0  0  0  0  0  0  0
   36.3140   29.6960   37.7140 H   0  0  0  0  0  0  0  0  0  0  0  0
   37.5860   33.0070   41.0930 H   0  0  0  0  0  0  0  0  0  0  0  0
  1 16  1  0  0  0  0
  1  4  1  0  0  0  0
  2  1  1  0  0  0  0
  3  1  1  0  0  0  0
  4  5  1  0  0  0  0
  5 10  1  0  0  0  0
  5  6  2  0  0  0  0
  6 11  1  0  0  0  0
  7  6  1  0  0  0  0
  7 12  1  0  0  0  0
  8  7  2  0  0  0  0
  9  4  2  0  0  0  0
  9  8  1  0  0  0  0
 13  8  1  0  0  0  0
 14  9  1  0  0  0  0
 15 14  1  0  0  0  0
 16 18  1  0  0  0  0
 17 16  1  0  0  0  0
 19 20  2  0  0  0  0
 19 24  1  0  0  0  0
 20 21  1  0  0  0  0
 21 16  1  0  0  0  0
 21 22  2  0  0  0  0
 23 22  1  0  0  0  0
 23 27  1  0  0  0  0
 24 23  2  0  0  0  0
 25 19  1  0  0  0  0
 26 20  1  0  0  0  0
M  END
>  <minimizedAffinity>
-4.5083499

$$$$

 OpenBabel03252508223D

 27 28  0  0  0  0  0  0  0  0999 V2000
   38.5480   29.3920   42.9340 C   0  0  0  0  0  0  0  0  0  0  0  0
   39.5490   28.9930   42.7170 H   0  0  0  0  0  0  0  0  0  0  0  0
   38.6890   30.1870   43.6980 H   0  0  0  0  0  0  0  0  0  0  0  0
   37.8310   29.9720   41.8040 C   0  0  0  0  0  0  0  0  0  0  0  0
   36.5710   29.6160   41.3980 C   0  0  0  0  0  0  0  0  0  0  0  0
   35.9040   30.1780   40.3190 C   0  0  0  0  0  0  0  0  0  0  0  0
   36.5790   31.1700   39.6120 C   0  0  0  0  0  0  0  0  0  0  0  0
   37.8530   31.5520   39.9940 C   0  0  0  0  0  0  0  0  0  0  0  0
   38.4710   30.9640   41.0720 C   0  0  0  0  0  0  0  0  0  0  0  0
   36.0530   28.8460   41.9510 H   0  0  0  0  0  0  0  0  0  0  0  0
   34.9050   29.8550   40.0460 H   0  0  0  0  0  0  0  0  0  0  0  0
   36.1130   31.6470   38.7600 H   0  0  0  0  0  0  0  0  0  0  0  0
   38.3330   32.3150   39.4250 H   0  0  0  0  0  0  0  0  0  0  0  0
   40.1080   31.5140   41.4960 S   0  0  0  0  0  0  0  0  0  0  0  0
   41.1000   30.6240   41.0740 H   0  0  0  0  0  0  0  0  0  0  0  0
   37.6920   28.3350   43.6310 C   0  0  0  0  0  0  0  0  0  0  0  0
   37.8130   28.4940   44.7330 H   0  0  0  0  0  0  0  0  0  0  0  0
   36.6150   28.4430   43.4080 H   0  0  0  0  0  0  0  0  0  0  0  0
   38.0150   24.8740   42.1770 C   0  0  0  0  0  0  0  0  0  0  0  0
   37.4710   26.1450   42.5000 C   0  0  0  0  0  0  0  0  0  0  0  0
   38.2350   26.9980   43.2770 C   0  0  0  0  0  0  0  0  0  0  0  0
   39.4660   26.5530   43.6800 N   0  0  0  0  0  0  0  0  0  0  0  0
   39.9480   25.3530   43.3580 C   0  0  0  0  0  0  0  0  0  0  0  0
   39.2280   24.5090   42.6080 N   0  0  0  0  0  0  0  0  0  0  0  0
   37.3730   24.2470   41.5650 H   0  0  0  0  0  0  0  0  0  0  0  0
   36.4970   26.4070   42.1390 H   0  0  0  0  0  0  0  0  0  0  0  0
   40.9410   25.1070   43.7370 H   0  0  0  0  0  0  0  0  0  0  0  0
  1 16  1  0  0  0  0
  1  3  1  0  0  0  0
  2  1  1  0  0  0  0
  4  1  1  0  0  0  0
  5  4  1  0  0  0  0
  5 10  1  0  0  0  0
  6  5  2  0  0  0  0
  7  8  2  0  0  0  0
  7  6  1  0  0  0  0
  8  9  1  0  0  0  0
  9 14  1  0  0  0  0
  9  4  2  0  0  0  0
 11  6  1  0  0  0  0
 12  7  1  0  0  0  0
 13  8  1  0  0  0  0
 15 14  1  0  0  0  0
 16 17  1  0  0  0  0
 18 16  1  0  0  0  0
 19 20  2  0  0  0  0
 19 24  1  0  0  0  0
 20 21  1  0  0  0  0
 21 16  1  0  0  0  0
 21 22  2  0  0  0  0
 23 22  1  0  0  0  0
 23 27  1  0  0  0  0
 24 23  2  0  0  0  0
 25 19  1  0  0  0  0
 26 20  1  0  0  0  0
M  END
>  <minimizedAffinity>
-4.3838439

$$$$

 OpenBabel03252508223D

 27 28  0  0  0  0  0  0  0  0999 V2000
   35.5610   29.5840   40.3690 C   0  0  0  0  0  0  0  0  0  0  0  0
   35.5770   29.6990   39.2760 H   0  0  0  0  0  0  0  0  0  0  0  0
   34.4920   29.6180   40.6710 H   0  0  0  0  0  0  0  0  0  0  0  0
   36.1420   28.3520   40.8930 C   0  0  0  0  0  0  0  0  0  0  0  0
   36.4690   28.1240   42.2040 C   0  0  0  0  0  0  0  0  0  0  0  0
   37.0210   26.9460   42.6840 C   0  0  0  0  0  0  0  0  0  0  0  0
   37.2520   25.9360   41.7520 C   0  0  0  0  0  0  0  0  0  0  0  0
   36.9350   26.1340   40.4190 C   0  0  0  0  0  0  0  0  0  0  0  0
   36.3880   27.3210   39.9940 C   0  0  0  0  0  0  0  0  0  0  0  0
   36.2870   28.9110   42.9210 H   0  0  0  0  0  0  0  0  0  0  0  0
   37.2590   26.8240   43.7350 H   0  0  0  0  0  0  0  0  0  0  0  0
   37.6810   24.9930   42.0630 H   0  0  0  0  0  0  0  0  0  0  0  0
   37.1270   25.3350   39.7400 H   0  0  0  0  0  0  0  0  0  0  0  0
   36.0090   27.4920   38.2650 S   0  0  0  0  0  0  0  0  0  0  0  0
   36.9570   28.2570   37.5800 H   0  0  0  0  0  0  0  0  0  0  0  0
   36.1900   30.8040   41.0430 C   0  0  0  0  0  0  0  0  0  0  0  0
   35.3970   31.5920   41.0930 H   0  0  0  0  0  0  0  0  0  0  0  0
   36.5080   30.6020   42.0810 H   0  0  0  0  0  0  0  0  0  0  0  0
   38.1720   31.8030   37.9980 C   0  0  0  0  0  0  0  0  0  0  0  0
   37.1010   31.3360   38.8040 C   0  0  0  0  0  0  0  0  0  0  0  0
   37.2930   31.2890   40.1740 C   0  0  0  0  0  0  0  0  0  0  0  0
   38.5090   31.7010   40.6540 N   0  0  0  0  0  0  0  0  0  0  0  0
   39.4930   32.1350   39.8690 C   0  0  0  0  0  0  0  0  0  0  0  0
   39.3320   32.1890   38.5410 N   0  0  0  0  0  0  0  0  0  0  0  0
   37.9660   31.8180   36.9310 H   0  0  0  0  0  0  0  0  0  0  0  0
   36.1840   31.0340   38.3370 H   0  0  0  0  0  0  0  0  0  0  0  0
   40.4170   32.4360   40.3650 H   0  0  0  0  0  0  0  0  0  0  0  0
  1  3  1  0  0  0  0
  1  4  1  0  0  0  0
  1 16  1  0  0  0  0
  2  1  1  0  0  0  0
  4  5  1  0  0  0  0
  5  6  2  0  0  0  0
  5 10  1  0  0  0  0
  6 11  1  0  0  0  0
  7 12  1  0  0  0  0
  7  6  1  0  0  0  0
  8  7  2  0  0  0  0
  9  8  1  0  0  0  0
  9  4  2  0  0  0  0
 13  8  1  0  0  0  0
 14  9  1  0  0  0  0
 15 14  1  0  0  0  0
 16 17  1  0  0  0  0
 16 18  1  0  0  0  0
 19 24  2  0  0  0  0
 19 20  1  0  0  0  0
 20 21  2  0  0  0  0
 21 22  1  0  0  0  0
 21 16  1  0  0  0  0
 23 27  1  0  0  0  0
 23 22  2  0  0  0  0
 24 23  1  0  0  0  0
 25 19  1  0  0  0  0
 26 20  1  0  0  0  0
M  END
>  <minimizedAffinity>
-4.3462801

$$$$

 OpenBabel03252508223D

 27 28  0  0  0  0  0  0  0  0999 V2000
   36.2070   29.8350   40.4220 C   0  0  0  0  0  0  0  0  0  0  0  0
   36.0820   30.9150   40.5820 H   0  0  0  0  0  0  0  0  0  0  0  0
   36.8770   29.7260   39.5420 H   0  0  0  0  0  0  0  0  0  0  0  0
   36.7910   29.0860   41.5310 C   0  0  0  0  0  0  0  0  0  0  0  0
   36.2430   27.9710   42.1080 C   0  0  0  0  0  0  0  0  0  0  0  0
   36.8110   27.2710   43.1630 C   0  0  0  0  0  0  0  0  0  0  0  0
   38.0220   27.7540   43.6550 C   0  0  0  0  0  0  0  0  0  0  0  0
   38.6020   28.8790   43.0950 C   0  0  0  0  0  0  0  0  0  0  0  0
   37.9980   29.5360   42.0500 C   0  0  0  0  0  0  0  0  0  0  0  0
   35.3040   27.6020   41.7220 H   0  0  0  0  0  0  0  0  0  0  0  0
   36.3300   26.3930   43.5790 H   0  0  0  0  0  0  0  0  0  0  0  0
   38.5170   27.2530   44.4770 H   0  0  0  0  0  0  0  0  0  0  0  0
   39.5290   29.2140   43.5020 H   0  0  0  0  0  0  0  0  0  0  0  0
   38.8100   30.9730   41.3890 S   0  0  0  0  0  0  0  0  0  0  0  0
   38.2280   32.1680   41.8240 H   0  0  0  0  0  0  0  0  0  0  0  0
   34.8870   29.2030   39.9810 C   0  0  0  0  0  0  0  0  0  0  0  0
   34.8720   28.1620   40.3940 H   0  0  0  0  0  0  0  0  0  0  0  0
   34.0050   29.7250   40.3950 H   0  0  0  0  0  0  0  0  0  0  0  0
   33.7480   28.7170   36.4230 C   0  0  0  0  0  0  0  0  0  0  0  0
   33.7190   28.7790   37.8410 C   0  0  0  0  0  0  0  0  0  0  0  0
   34.8860   29.1310   38.4970 C   0  0  0  0  0  0  0  0  0  0  0  0
   35.9880   29.3960   37.7280 N   0  0  0  0  0  0  0  0  0  0  0  0
   35.9800   29.3300   36.3970 C   0  0  0  0  0  0  0  0  0  0  0  0
   34.8640   28.9910   35.7390 N   0  0  0  0  0  0  0  0  0  0  0  0
   32.8060   28.4370   35.9600 H   0  0  0  0  0  0  0  0  0  0  0  0
   32.8090   28.5540   38.3590 H   0  0  0  0  0  0  0  0  0  0  0  0
   36.9180   29.5620   35.8910 H   0  0  0  0  0  0  0  0  0  0  0  0
  1  2  1  0  0  0  0
  1  4  1  0  0  0  0
  3  1  1  0  0  0  0
  4  9  2  0  0  0  0
  4  5  1  0  0  0  0
  5  6  2  0  0  0  0
  6 11  1  0  0  0  0
  6  7  1  0  0  0  0
  7 12  1  0  0  0  0
  8 13  1  0  0  0  0
  8  7  2  0  0  0  0
  9  8  1  0  0  0  0
 10  5  1  0  0  0  0
 14 15  1  0  0  0  0
 14  9  1  0  0  0  0
 16 17  1  0  0  0  0
 16 18  1  0  0  0  0
 16  1  1  0  0  0  0
 19 20  1  0  0  0  0
 20 26  1  0  0  0  0
 20 21  2  0  0  0  0
 21 16  1  0  0  0  0
 22 21  1  0  0  0  0
 23 22  2  0  0  0  0
 24 23  1  0  0  0  0
 24 19  2  0  0  0  0
 25 19  1  0  0  0  0
 27 23  1  0  0  0  0
M  END
>  <minimizedAffinity>
-4.34268761

$$$$

 OpenBabel03252508223D

 27 28  0  0  0  0  0  0  0  0999 V2000
   37.1700   28.5260   42.6140 C   0  0  0  0  0  0  0  0  0  0  0  0
   36.1390   28.7100   42.9460 H   0  0  0  0  0  0  0  0  0  0  0  0
   37.1010   27.8380   41.7440 H   0  0  0  0  0  0  0  0  0  0  0  0
   37.9290   29.7030   42.2010 C   0  0  0  0  0  0  0  0  0  0  0  0
   39.1240   30.1040   42.7380 C   0  0  0  0  0  0  0  0  0  0  0  0
   39.8320   31.2260   42.3330 C   0  0  0  0  0  0  0  0  0  0  0  0
   39.2700   31.9850   41.3090 C   0  0  0  0  0  0  0  0  0  0  0  0
   38.0640   31.6090   40.7450 C   0  0  0  0  0  0  0  0  0  0  0  0
   37.4020   30.4870   41.1820 C   0  0  0  0  0  0  0  0  0  0  0  0
   39.5540   29.5110   43.5320 H   0  0  0  0  0  0  0  0  0  0  0  0
   40.7750   31.4930   42.7970 H   0  0  0  0  0  0  0  0  0  0  0  0
   39.7740   32.8730   40.9480 H   0  0  0  0  0  0  0  0  0  0  0  0
   37.6710   32.2180   39.9630 H   0  0  0  0  0  0  0  0  0  0  0  0
   35.8580   30.0740   40.4030 S   0  0  0  0  0  0  0  0  0  0  0  0
   34.7520   30.4220   41.1840 H   0  0  0  0  0  0  0  0  0  0  0  0
   37.9390   27.7340   43.6720 C   0  0  0  0  0  0  0  0  0  0  0  0
   38.8730   28.3100   43.8930 H   0  0  0  0  0  0  0  0  0  0  0  0
   37.3840   27.6440   44.6230 H   0  0  0  0  0  0  0  0  0  0  0  0
   37.8260   24.5600   41.6450 C   0  0  0  0  0  0  0  0  0  0  0  0
   37.4430   25.8120   42.1940 C   0  0  0  0  0  0  0  0  0  0  0  0
   38.3130   26.4230   43.0810 C   0  0  0  0  0  0  0  0  0  0  0  0
   39.4850   25.7730   43.3650 N   0  0  0  0  0  0  0  0  0  0  0  0
   39.8140   24.5980   42.8310 C   0  0  0  0  0  0  0  0  0  0  0  0
   38.9900   23.9860   41.9710 N   0  0  0  0  0  0  0  0  0  0  0  0
   37.1070   24.1260   40.9560 H   0  0  0  0  0  0  0  0  0  0  0  0
   36.5040   26.2450   41.9120 H   0  0  0  0  0  0  0  0  0  0  0  0
   40.7740   24.1760   43.1330 H   0  0  0  0  0  0  0  0  0  0  0  0
  1  2  1  0  0  0  0
  1 16  1  0  0  0  0
  3  1  1  0  0  0  0
  4  1  1  0  0  0  0
  4  5  1  0  0  0  0
  5 10  1  0  0  0  0
  6  5  2  0  0  0  0
  6 11  1  0  0  0  0
  7  6  1  0  0  0  0
  8  9  1  0  0  0  0
  8  7  2  0  0  0  0
  9  4  2  0  0  0  0
 12  7  1  0  0  0  0
 13  8  1  0  0  0  0
 14  9  1  0  0  0  0
 14 15  1  0  0  0  0
 16 17  1  0  0  0  0
 16 18  1  0  0  0  0
 19 24  2  0  0  0  0
 19 20  1  0  0  0  0
 20 21  2  0  0  0  0
 21 22  1  0  0  0  0
 21 16  1  0  0  0  0
 23 27  1  0  0  0  0
 23 22  2  0  0  0  0
 24 23  1  0  0  0  0
 25 19  1  0  0  0  0
 26 20  1  0  0  0  0
M  END
>  <minimizedAffinity>
-4.3067174

$$$$

 OpenBabel03252508223D

 27 28  0  0  0  0  0  0  0  0999 V2000
   36.8780   30.6320   39.3140 C   0  0  0  0  0  0  0  0  0  0  0  0
   36.2870   30.6520   38.3870 H   0  0  0  0  0  0  0  0  0  0  0  0
   37.5220   29.7280   39.2530 H   0  0  0  0  0  0  0  0  0  0  0  0
   37.7380   31.7870   39.5500 C   0  0  0  0  0  0  0  0  0  0  0  0
   37.3050   33.0740   39.7310 C   0  0  0  0  0  0  0  0  0  0  0  0
   38.1370   34.1610   39.9540 C   0  0  0  0  0  0  0  0  0  0  0  0
   39.5060   33.9050   39.9910 C   0  0  0  0  0  0  0  0  0  0  0  0
   39.9780   32.6160   39.8110 C   0  0  0  0  0  0  0  0  0  0  0  0
   39.1110   31.5720   39.5940 C   0  0  0  0  0  0  0  0  0  0  0  0
   36.2420   33.2660   39.7000 H   0  0  0  0  0  0  0  0  0  0  0  0
   37.7350   35.1580   40.0910 H   0  0  0  0  0  0  0  0  0  0  0  0
   40.2080   34.7100   40.1610 H   0  0  0  0  0  0  0  0  0  0  0  0
   41.0330   32.4650   39.8480 H   0  0  0  0  0  0  0  0  0  0  0  0
   39.8000   29.9480   39.3720 S   0  0  0  0  0  0  0  0  0  0  0  0
   39.8250   29.5530   38.0310 H   0  0  0  0  0  0  0  0  0  0  0  0
   35.9730   30.3790   40.5190 C   0  0  0  0  0  0  0  0  0  0  0  0
   35.9220   31.3390   41.0930 H   0  0  0  0  0  0  0  0  0  0  0  0
   34.9380   30.1230   40.2300 H   0  0  0  0  0  0  0  0  0  0  0  0
   37.0590   27.0440   41.8960 C   0  0  0  0  0  0  0  0  0  0  0  0
   36.4290   28.0090   41.0670 C   0  0  0  0  0  0  0  0  0  0  0  0
   36.6190   29.3460   41.3700 C   0  0  0  0  0  0  0  0  0  0  0  0
   37.4050   29.6430   42.4520 N   0  0  0  0  0  0  0  0  0  0  0  0
   37.9820   28.7120   43.2100 C   0  0  0  0  0  0  0  0  0  0  0  0
   37.8130   27.4120   42.9380 N   0  0  0  0  0  0  0  0  0  0  0  0
   36.8760   26.0120   41.6130 H   0  0  0  0  0  0  0  0  0  0  0  0
   35.8310   27.6820   40.2400 H   0  0  0  0  0  0  0  0  0  0  0  0
   38.5860   29.0680   44.0470 H   0  0  0  0  0  0  0  0  0  0  0  0
  1  4  1  0  0  0  0
  1 16  1  0  0  0  0
  2  1  1  0  0  0  0
  3  1  1  0  0  0  0
  4  9  2  0  0  0  0
  4  5  1  0  0  0  0
  5  6  2  0  0  0  0
  6  7  1  0  0  0  0
  6 11  1  0  0  0  0
  7 12  1  0  0  0  0
  8 13  1  0  0  0  0
  8  7  2  0  0  0  0
  9  8  1  0  0  0  0
 10  5  1  0  0  0  0
 14  9  1  0  0  0  0
 15 14  1  0  0  0  0
 16 17  1  0  0  0  0
 16 21  1  0  0  0  0
 18 16  1  0  0  0  0
 19 24  1  0  0  0  0
 20 21  1  0  0  0  0
 20 19  2  0  0  0  0
 21 22  2  0  0  0  0
 22 23  1  0  0  0  0
 23 27  1  0  0  0  0
 24 23  2  0  0  0  0
 25 19  1  0  0  0  0
 26 20  1  0  0  0  0
M  END
>  <minimizedAffinity>
-4.30379009

$$$$

 OpenBabel03252508223D

 27 28  0  0  0  0  0  0  0  0999 V2000
   36.3510   28.9620   40.5690 C   0  0  0  0  0  0  0  0  0  0  0  0
   35.2900   29.1910   40.3950 H   0  0  0  0  0  0  0  0  0  0  0  0
   36.6490   29.5350   41.4740 H   0  0  0  0  0  0  0  0  0  0  0  0
   36.6730   27.5570   40.7970 C   0  0  0  0  0  0  0  0  0  0  0  0
   36.5180   26.5500   39.8800 C   0  0  0  0  0  0  0  0  0  0  0  0
   36.8290   25.2180   40.1140 C   0  0  0  0  0  0  0  0  0  0  0  0
   37.3320   24.9040   41.3750 C   0  0  0  0  0  0  0  0  0  0  0  0
   37.5000   25.8970   42.3240 C   0  0  0  0  0  0  0  0  0  0  0  0
   37.1770   27.2020   42.0430 C   0  0  0  0  0  0  0  0  0  0  0  0
   36.1280   26.8000   38.9050 H   0  0  0  0  0  0  0  0  0  0  0  0
   36.6850   24.4650   39.3480 H   0  0  0  0  0  0  0  0  0  0  0  0
   37.5940   23.8830   41.6190 H   0  0  0  0  0  0  0  0  0  0  0  0
   37.8880   25.6120   43.2750 H   0  0  0  0  0  0  0  0  0  0  0  0
   37.4240   28.4160   43.3180 S   0  0  0  0  0  0  0  0  0  0  0  0
   36.2320   28.7800   43.9520 H   0  0  0  0  0  0  0  0  0  0  0  0
   37.2140   29.5370   39.4460 C   0  0  0  0  0  0  0  0  0  0  0  0
   38.0910   28.8520   39.3280 H   0  0  0  0  0  0  0  0  0  0  0  0
   36.6900   29.5590   38.4740 H   0  0  0  0  0  0  0  0  0  0  0  0
   37.5900   33.2690   39.8050 C   0  0  0  0  0  0  0  0  0  0  0  0
   37.1010   32.0080   39.3720 C   0  0  0  0  0  0  0  0  0  0  0  0
   37.7030   30.8710   39.8820 C   0  0  0  0  0  0  0  0  0  0  0  0
   38.7290   31.0450   40.7720 N   0  0  0  0  0  0  0  0  0  0  0  0
   39.1630   32.2440   41.1590 C   0  0  0  0  0  0  0  0  0  0  0  0
   38.5980   33.3590   40.6800 N   0  0  0  0  0  0  0  0  0  0  0  0
   37.0820   34.1270   39.3740 H   0  0  0  0  0  0  0  0  0  0  0  0
   36.2920   31.9710   38.6710 H   0  0  0  0  0  0  0  0  0  0  0  0
   39.9880   32.2580   41.8730 H   0  0  0  0  0  0  0  0  0  0  0  0
  1  4  1  0  0  0  0
  1  3  1  0  0  0  0
  2  1  1  0  0  0  0
  4  9  1  0  0  0  0
  5  6  1  0  0  0  0
  5  4  2  0  0  0  0
  6  7  2  0  0  0  0
  7 12  1  0  0  0  0
  7  8  1  0  0  0  0
  8 13  1  0  0  0  0
  9  8  2  0  0  0  0
  9 14  1  0  0  0  0
 10  5  1  0  0  0  0
 11  6  1  0  0  0  0
 14 15  1  0  0  0  0
 16 21  1  0  0  0  0
 16  1  1  0  0  0  0
 17 16  1  0  0  0  0
 18 16  1  0  0  0  0
 19 24  1  0  0  0  0
 20 19  2  0  0  0  0
 20 21  1  0  0  0  0
 21 22  2  0  0  0  0
 22 23  1  0  0  0  0
 23 27  1  0  0  0  0
 24 23  2  0  0  0  0
 25 19  1  0  0  0  0
 26 20  1  0  0  0  0
M  END
>  <minimizedAffinity>
-4.17210722

$$$$
