
 OpenBabel03252507433D

 24 25  0  0  0  0  0  0  0  0999 V2000
   46.7080   34.2430   40.7000 C   0  0  0  0  0  0  0  0  0  0  0  0
   46.7260   35.0590   39.9240 H   0  0  0  0  0  0  0  0  0  0  0  0
   46.4360   33.3380   40.1750 H   0  0  0  0  0  0  0  0  0  0  0  0
   48.0510   34.1790   41.3050 C   0  0  0  0  0  0  0  0  0  0  0  0
   48.7490   32.9790   41.1730 C   0  0  0  0  0  0  0  0  0  0  0  0
   50.0190   32.8760   41.7300 C   0  0  0  0  0  0  0  0  0  0  0  0
   50.5360   33.9480   42.3830 N   0  0  0  0  0  0  0  0  0  0  0  0
   49.8290   35.0980   42.4900 C   0  0  0  0  0  0  0  0  0  0  0  0
   48.6170   35.1880   41.9570 N   0  0  0  0  0  0  0  0  0  0  0  0
   50.5740   31.9490   41.6360 H   0  0  0  0  0  0  0  0  0  0  0  0
   50.3210   35.8990   43.0270 H   0  0  0  0  0  0  0  0  0  0  0  0
   48.0130   31.5870   40.2950 S   0  0  0  0  0  0  0  0  0  0  0  0
   48.9240   31.0760   39.3500 H   0  0  0  0  0  0  0  0  0  0  0  0
   45.6300   34.6120   41.6760 C   0  0  0  0  0  0  0  0  0  0  0  0
   45.6020   33.8660   42.4960 H   0  0  0  0  0  0  0  0  0  0  0  0
   45.8600   35.6130   42.0920 H   0  0  0  0  0  0  0  0  0  0  0  0
   44.2590   34.6040   41.0690 C   0  0  0  0  0  0  0  0  0  0  0  0
   43.2900   35.5650   41.5100 C   0  0  0  0  0  0  0  0  0  0  0  0
   41.8090   35.1550   40.4930 S   0  0  0  0  0  0  0  0  0  0  0  0
   42.7720   33.7560   39.6550 C   0  0  0  0  0  0  0  0  0  0  0  0
   43.7870   33.8040   40.1430 N   0  0  0  0  0  0  0  0  0  0  0  0
   43.2890   36.3560   42.2210 H   0  0  0  0  0  0  0  0  0  0  0  0
   42.3490   32.4380   38.2850 S   0  0  0  0  0  0  0  0  0  0  0  0
   41.0730   32.8760   37.9300 H   0  0  0  0  0  0  0  0  0  0  0  0
  1  4  1  0  0  0  0
  1 14  1  0  0  0  0
  2  1  1  0  0  0  0
  3  1  1  0  0  0  0
  4  9  1  0  0  0  0
  5  4  2  0  0  0  0
  5  6  1  0  0  0  0
  6  7  2  0  0  0  0
  7  8  1  0  0  0  0
  8 11  1  0  0  0  0
  9  8  2  0  0  0  0
 10  6  1  0  0  0  0
 12  5  1  0  0  0  0
 13 12  1  0  0  0  0
 14 16  1  0  0  0  0
 14 15  1  0  0  0  0
 17 18  2  0  0  0  0
 17 14  1  0  0  0  0
 18 22  1  0  0  0  0
 19 18  1  0  0  0  0
 20 21  2  0  0  0  0
 20 19  1  0  0  0  0
 21 17  1  0  0  0  0
 23 20  1  0  0  0  0
 24 23  1  0  0  0  0
M  END
>  <minimizedAffinity>
-3.7714653

>  <minimizedRMSD>
0.250170231

$$$$
