
 OpenBabel03252508433D

 24 25  0  0  0  0  0  0  0  0999 V2000
   46.2670   34.2770   41.3130 C   0  0  0  0  0  0  0  0  0  0  0  0
   47.5440   34.7000   41.0190 C   0  0  0  0  0  0  0  0  0  0  0  0
   48.0960   34.3940   39.7930 C   0  0  0  0  0  0  0  0  0  0  0  0
   47.3410   33.6660   38.8940 C   0  0  0  0  0  0  0  0  0  0  0  0
   46.0730   33.2290   39.1460 C   0  0  0  0  0  0  0  0  0  0  0  0
   45.5660   33.5690   40.4070 C   0  0  0  0  0  0  0  0  0  0  0  0
   49.1150   34.7210   39.5330 H   0  0  0  0  0  0  0  0  0  0  0  0
   47.8140   33.4430   37.9310 H   0  0  0  0  0  0  0  0  0  0  0  0
   45.5030   32.6590   38.4240 H   0  0  0  0  0  0  0  0  0  0  0  0
   44.5650   33.2500   40.6640 H   0  0  0  0  0  0  0  0  0  0  0  0
   44.6400   36.0740   44.2150 C   0  0  0  0  0  0  0  0  0  0  0  0
   45.0830   35.8350   42.9050 C   0  0  0  0  0  0  0  0  0  0  0  0
   45.7570   34.6390   42.6350 C   0  0  0  0  0  0  0  0  0  0  0  0
   45.9300   33.8050   43.6610 N   0  0  0  0  0  0  0  0  0  0  0  0
   45.5020   34.0370   44.9230 C   0  0  0  0  0  0  0  0  0  0  0  0
   44.8550   35.1770   45.1980 N   0  0  0  0  0  0  0  0  0  0  0  0
   44.1200   37.0080   44.4000 H   0  0  0  0  0  0  0  0  0  0  0  0
   44.9270   36.5260   42.1150 H   0  0  0  0  0  0  0  0  0  0  0  0
   45.7310   33.2380   45.6450 H   0  0  0  0  0  0  0  0  0  0  0  0
   48.3390   35.4820   42.0070 C   0  0  0  0  0  0  0  0  0  0  0  0
   47.7360   35.7690   42.8940 H   0  0  0  0  0  0  0  0  0  0  0  0
   48.6300   36.4390   41.5180 H   0  0  0  0  0  0  0  0  0  0  0  0
   49.8580   34.6270   42.5080 S   0  0  0  0  0  0  0  0  0  0  0  0
   50.1590   33.5870   41.6110 H   0  0  0  0  0  0  0  0  0  0  0  0
  1 13  1  0  0  0  0
  2  1  1  0  0  0  0
  2 20  1  0  0  0  0
  3  2  2  0  0  0  0
  4  5  2  0  0  0  0
  4  3  1  0  0  0  0
  5  6  1  0  0  0  0
  6 10  1  0  0  0  0
  6  1  2  0  0  0  0
  7  3  1  0  0  0  0
  8  4  1  0  0  0  0
  9  5  1  0  0  0  0
 11 17  1  0  0  0  0
 11 16  1  0  0  0  0
 12 11  2  0  0  0  0
 13 12  1  0  0  0  0
 13 14  2  0  0  0  0
 14 15  1  0  0  0  0
 15 16  2  0  0  0  0
 15 19  1  0  0  0  0
 18 12  1  0  0  0  0
 20 23  1  0  0  0  0
 20 21  1  0  0  0  0
 22 20  1  0  0  0  0
 24 23  1  0  0  0  0
M  END
>  <minimizedAffinity>
-4.68601322

>  <minimizedRMSD>
0.978639603

$$$$
