
 OpenBabel03252509213D

 18 19  0  0  0  0  0  0  0  0999 V2000
   44.3040   35.5360   44.5480 C   0  0  0  0  0  0  0  0  0  0  0  0
   44.6540   35.0860   43.2640 C   0  0  0  0  0  0  0  0  0  0  0  0
   45.5840   34.0410   43.2580 C   0  0  0  0  0  0  0  0  0  0  0  0
   46.0870   33.5270   44.4440 N   0  0  0  0  0  0  0  0  0  0  0  0
   45.7000   34.0130   45.6290 C   0  0  0  0  0  0  0  0  0  0  0  0
   44.8050   35.0210   45.6690 N   0  0  0  0  0  0  0  0  0  0  0  0
   43.5880   36.3450   44.5980 H   0  0  0  0  0  0  0  0  0  0  0  0
   46.2030   33.4800   46.4230 H   0  0  0  0  0  0  0  0  0  0  0  0
   45.9440   33.4420   41.9130 C   0  0  0  0  0  0  0  0  0  0  0  0
   47.3020   33.9840   41.4360 C   0  0  0  0  0  0  0  0  0  0  0  0
   47.0400   32.5140   41.8770 C   0  0  0  0  0  0  0  0  0  0  0  0
   45.1830   33.6090   41.1260 H   0  0  0  0  0  0  0  0  0  0  0  0
   47.4000   34.1640   40.3680 H   0  0  0  0  0  0  0  0  0  0  0  0
   47.8560   34.6250   42.1080 H   0  0  0  0  0  0  0  0  0  0  0  0
   47.6610   32.2320   42.7430 H   0  0  0  0  0  0  0  0  0  0  0  0
   47.1380   31.7880   41.0430 H   0  0  0  0  0  0  0  0  0  0  0  0
   43.9990   35.7550   41.7460 S   0  0  0  0  0  0  0  0  0  0  0  0
   42.6010   35.8940   41.9280 H   0  0  0  0  0  0  0  0  0  0  0  0
  1  7  1  0  0  0  0
  1  6  1  0  0  0  0
  2  1  2  0  0  0  0
  3  2  1  0  0  0  0
  3  4  2  0  0  0  0
  4  5  1  0  0  0  0
  5  6  2  0  0  0  0
  5  8  1  0  0  0  0
  9  3  1  0  0  0  0
 10 11  1  0  0  0  0
 10  9  1  0  0  0  0
 10 14  1  0  0  0  0
 11  9  1  0  0  0  0
 11 15  1  0  0  0  0
 12  9  1  0  0  0  0
 13 10  1  0  0  0  0
 16 11  1  0  0  0  0
 17 18  1  0  0  0  0
 17  2  1  0  0  0  0
M  END
>  <minimizedAffinity>
-2.76184344

>  <minimizedRMSD>
1.30304945

$$$$
