
 OpenBabel03252505183D

 27 29  0  0  0  0  0  0  0  0999 V2000
   44.5660   35.8790   44.6140 C   0  0  0  0  0  0  0  0  0  0  0  0
   45.2280   35.8570   43.3810 C   0  0  0  0  0  0  0  0  0  0  0  0
   46.1480   34.8350   43.2040 C   0  0  0  0  0  0  0  0  0  0  0  0
   46.3760   33.9090   44.2040 N   0  0  0  0  0  0  0  0  0  0  0  0
   45.6900   33.9860   45.3910 C   0  0  0  0  0  0  0  0  0  0  0  0
   44.7990   34.9620   45.5880 N   0  0  0  0  0  0  0  0  0  0  0  0
   43.8410   36.6720   44.7750 H   0  0  0  0  0  0  0  0  0  0  0  0
   45.0540   36.5690   42.6090 H   0  0  0  0  0  0  0  0  0  0  0  0
   45.9680   32.9560   46.3970 C   0  0  0  0  0  0  0  0  0  0  0  0
   45.2370   33.0160   47.5770 C   0  0  0  0  0  0  0  0  0  0  0  0
   45.4490   32.0570   48.5580 C   0  0  0  0  0  0  0  0  0  0  0  0
   46.3930   31.0730   48.3040 C   0  0  0  0  0  0  0  0  0  0  0  0
   47.0890   31.0690   47.1050 C   0  0  0  0  0  0  0  0  0  0  0  0
   46.8790   32.0110   46.1460 N   0  0  0  0  0  0  0  0  0  0  0  0
   44.4950   33.7980   47.7660 H   0  0  0  0  0  0  0  0  0  0  0  0
   44.8700   32.1140   49.4820 H   0  0  0  0  0  0  0  0  0  0  0  0
   46.5690   30.3170   49.0610 H   0  0  0  0  0  0  0  0  0  0  0  0
   48.3010   29.7770   46.8210 S   0  0  0  0  0  0  0  0  0  0  0  0
   48.8560   29.9360   45.5530 H   0  0  0  0  0  0  0  0  0  0  0  0
   46.8910   34.6900   41.9140 C   0  0  0  0  0  0  0  0  0  0  0  0
   48.2490   35.3950   41.9240 C   0  0  0  0  0  0  0  0  0  0  0  0
   48.0510   33.8440   41.8580 C   0  0  0  0  0  0  0  0  0  0  0  0
   46.2350   34.9290   41.0490 H   0  0  0  0  0  0  0  0  0  0  0  0
   48.5250   35.8740   40.9840 H   0  0  0  0  0  0  0  0  0  0  0  0
   48.6320   35.8040   42.8650 H   0  0  0  0  0  0  0  0  0  0  0  0
   48.3520   33.3160   42.7890 H   0  0  0  0  0  0  0  0  0  0  0  0
   48.3970   33.3520   40.9280 H   0  0  0  0  0  0  0  0  0  0  0  0
  1  7  1  0  0  0  0
  1  6  1  0  0  0  0
  2  1  2  0  0  0  0
  3  2  1  0  0  0  0
  3  4  2  0  0  0  0
  4  5  1  0  0  0  0
  5  6  2  0  0  0  0
  5  9  1  0  0  0  0
  8  2  1  0  0  0  0
  9 10  1  0  0  0  0
 10 15  1  0  0  0  0
 10 11  2  0  0  0  0
 11 16  1  0  0  0  0
 12 11  1  0  0  0  0
 12 17  1  0  0  0  0
 13 12  2  0  0  0  0
 14  9  2  0  0  0  0
 14 13  1  0  0  0  0
 18 13  1  0  0  0  0
 19 18  1  0  0  0  0
 20 21  1  0  0  0  0
 20  3  1  0  0  0  0
 21 25  1  0  0  0  0
 22 20  1  0  0  0  0
 22 21  1  0  0  0  0
 22 26  1  0  0  0  0
 23 20  1  0  0  0  0
 24 21  1  0  0  0  0
 27 22  1  0  0  0  0
M  END
>  <minimizedAffinity>
-5.38986111

>  <minimizedRMSD>
0.247489244

$$$$
