
 OpenBabel03242517393D

 26 27  0  0  0  0  0  0  0  0999 V2000
   36.6060   26.8510   43.1930 C   0  0  0  0  0  0  0  0  0  0  0  0
   35.5260   26.8560   42.9420 H   0  0  0  0  0  0  0  0  0  0  0  0
   36.7700   26.7300   44.2960 H   0  0  0  0  0  0  0  0  0  0  0  0
   37.3160   25.7580   42.4900 C   0  0  0  0  0  0  0  0  0  0  0  0
   38.7090   25.7270   42.5560 C   0  0  0  0  0  0  0  0  0  0  0  0
   39.4010   24.7210   41.9120 C   0  0  0  0  0  0  0  0  0  0  0  0
   38.7250   23.7240   41.1890 C   0  0  0  0  0  0  0  0  0  0  0  0
   37.3390   23.7580   41.1260 C   0  0  0  0  0  0  0  0  0  0  0  0
   36.6600   24.7710   41.7750 C   0  0  0  0  0  0  0  0  0  0  0  0
   39.2150   26.5030   43.1160 H   0  0  0  0  0  0  0  0  0  0  0  0
   40.4810   24.7830   42.0200 H   0  0  0  0  0  0  0  0  0  0  0  0
   39.3600   22.9810   40.7210 H   0  0  0  0  0  0  0  0  0  0  0  0
   36.8460   22.9700   40.5570 H   0  0  0  0  0  0  0  0  0  0  0  0
   35.5810   24.7780   41.7120 H   0  0  0  0  0  0  0  0  0  0  0  0
   36.8460   28.8700   41.7730 C   0  0  0  0  0  3  0  0  0  0  0  0
   37.1740   28.1830   42.8350 C   0  0  0  0  0  3  0  0  0  0  0  0
   36.6000   31.0810   40.6610 C   0  0  0  0  0  0  0  0  0  0  0  0
   37.3550   30.1530   41.3740 C   0  0  0  0  0  0  0  0  0  0  0  0
   38.6620   30.4930   41.7130 C   0  0  0  0  0  0  0  0  0  0  0  0
   39.1540   31.7130   41.3360 N   0  0  0  0  0  0  0  0  0  0  0  0
   38.3970   32.5920   40.6440 C   0  0  0  0  0  0  0  0  0  0  0  0
   37.1290   32.2710   40.3120 N   0  0  0  0  0  0  0  0  0  0  0  0
   35.5760   30.8400   40.3830 H   0  0  0  0  0  0  0  0  0  0  0  0
   39.3450   29.8470   42.2690 H   0  0  0  0  0  0  0  0  0  0  0  0
   39.1570   34.1600   40.2080 S   0  0  0  0  0  0  0  0  0  0  0  0
   40.2770   34.4150   41.0270 H   0  0  0  0  0  0  0  0  0  0  0  0
  1  3  1  0  0  0  0
  2  1  1  0  0  0  0
  4  5  1  0  0  0  0
  4  1  1  0  0  0  0
  5 10  1  0  0  0  0
  6 11  1  0  0  0  0
  6  5  2  0  0  0  0
  7  6  1  0  0  0  0
  8  7  2  0  0  0  0
  8  9  1  0  0  0  0
  9  4  2  0  0  0  0
 12  7  1  0  0  0  0
 13  8  1  0  0  0  0
 14  9  1  0  0  0  0
 15 16  2  0  0  0  0
 16  1  1  0  0  0  0
 17 18  1  0  0  0  0
 18 19  2  0  0  0  0
 18 15  1  0  0  0  0
 19 24  1  0  0  0  0
 20 19  1  0  0  0  0
 21 20  2  0  0  0  0
 22 21  1  0  0  0  0
 22 17  2  0  0  0  0
 23 17  1  0  0  0  0
 25 21  1  0  0  0  0
 25 26  1  0  0  0  0
M  END
>  <minimizedAffinity>
-4.89320946

$$$$

 OpenBabel03242517393D

 26 27  0  0  0  0  0  0  0  0999 V2000
   36.5700   26.7440   43.1680 C   0  0  0  0  0  0  0  0  0  0  0  0
   35.4980   26.7820   42.8890 H   0  0  0  0  0  0  0  0  0  0  0  0
   36.7000   26.5840   44.2710 H   0  0  0  0  0  0  0  0  0  0  0  0
   37.2750   25.6590   42.4480 C   0  0  0  0  0  0  0  0  0  0  0  0
   38.6670   25.6090   42.5310 C   0  0  0  0  0  0  0  0  0  0  0  0
   39.3540   24.6090   41.8720 C   0  0  0  0  0  0  0  0  0  0  0  0
   38.6750   23.6380   41.1180 C   0  0  0  0  0  0  0  0  0  0  0  0
   37.2910   23.6910   41.0380 C   0  0  0  0  0  0  0  0  0  0  0  0
   36.6160   24.6980   41.7030 C   0  0  0  0  0  0  0  0  0  0  0  0
   39.1750   26.3650   43.1160 H   0  0  0  0  0  0  0  0  0  0  0  0
   40.4330   24.6540   41.9960 H   0  0  0  0  0  0  0  0  0  0  0  0
   39.3070   22.8980   40.6400 H   0  0  0  0  0  0  0  0  0  0  0  0
   36.7950   22.9230   40.4450 H   0  0  0  0  0  0  0  0  0  0  0  0
   35.5380   24.7200   41.6270 H   0  0  0  0  0  0  0  0  0  0  0  0
   36.9370   28.7750   41.7940 C   0  0  0  0  0  3  0  0  0  0  0  0
   37.1760   28.0740   42.8700 C   0  0  0  0  0  3  0  0  0  0  0  0
   38.7810   30.4450   41.7910 C   0  0  0  0  0  0  0  0  0  0  0  0
   37.4880   30.0570   41.4490 C   0  0  0  0  0  0  0  0  0  0  0  0
   36.6990   30.9590   40.7400 C   0  0  0  0  0  0  0  0  0  0  0  0
   37.2160   32.1820   40.4080 N   0  0  0  0  0  0  0  0  0  0  0  0
   38.4740   32.5290   40.7540 C   0  0  0  0  0  0  0  0  0  0  0  0
   39.2460   31.6610   41.4410 N   0  0  0  0  0  0  0  0  0  0  0  0
   39.4180   29.7590   42.3460 H   0  0  0  0  0  0  0  0  0  0  0  0
   35.6730   30.7650   40.4190 H   0  0  0  0  0  0  0  0  0  0  0  0
   39.0370   34.1610   40.2590 S   0  0  0  0  0  0  0  0  0  0  0  0
   38.2410   34.6670   39.2100 H   0  0  0  0  0  0  0  0  0  0  0  0
  1  3  1  0  0  0  0
  2  1  1  0  0  0  0
  4  5  1  0  0  0  0
  4  1  1  0  0  0  0
  5 10  1  0  0  0  0
  6 11  1  0  0  0  0
  6  5  2  0  0  0  0
  7  6  1  0  0  0  0
  8  7  2  0  0  0  0
  8  9  1  0  0  0  0
  9  4  2  0  0  0  0
 12  7  1  0  0  0  0
 13  8  1  0  0  0  0
 14  9  1  0  0  0  0
 15 16  2  0  0  0  0
 16  1  1  0  0  0  0
 17 23  1  0  0  0  0
 18 17  1  0  0  0  0
 18 15  1  0  0  0  0
 19 18  2  0  0  0  0
 20 19  1  0  0  0  0
 20 21  2  0  0  0  0
 21 22  1  0  0  0  0
 22 17  2  0  0  0  0
 24 19  1  0  0  0  0
 25 21  1  0  0  0  0
 26 25  1  0  0  0  0
M  END
>  <minimizedAffinity>
-4.83787584

$$$$

 OpenBabel03242517393D

 26 27  0  0  0  0  0  0  0  0999 V2000
   37.6350   28.5150   43.6800 C   0  0  0  0  0  0  0  0  0  0  0  0
   36.5670   28.7030   43.4490 H   0  0  0  0  0  0  0  0  0  0  0  0
   37.8450   28.6350   44.7750 H   0  0  0  0  0  0  0  0  0  0  0  0
   38.0420   27.1520   43.2690 C   0  0  0  0  0  0  0  0  0  0  0  0
   39.3010   26.6940   43.6600 C   0  0  0  0  0  0  0  0  0  0  0  0
   39.7100   25.4270   43.2950 C   0  0  0  0  0  0  0  0  0  0  0  0
   38.8790   24.5890   42.5330 C   0  0  0  0  0  0  0  0  0  0  0  0
   37.6290   25.0470   42.1460 C   0  0  0  0  0  0  0  0  0  0  0  0
   37.2320   26.3180   42.5190 C   0  0  0  0  0  0  0  0  0  0  0  0
   39.9290   27.3520   44.2470 H   0  0  0  0  0  0  0  0  0  0  0  0
   40.7040   25.1620   43.6450 H   0  0  0  0  0  0  0  0  0  0  0  0
   39.2950   23.6150   42.2990 H   0  0  0  0  0  0  0  0  0  0  0  0
   37.0100   24.3720   41.5560 H   0  0  0  0  0  0  0  0  0  0  0  0
   36.2540   26.6550   42.2070 H   0  0  0  0  0  0  0  0  0  0  0  0
   38.2170   30.0020   41.7830 C   0  0  0  0  0  3  0  0  0  0  0  0
   38.4500   29.5550   42.9880 C   0  0  0  0  0  3  0  0  0  0  0  0
   38.6010   31.4490   39.7960 C   0  0  0  0  0  0  0  0  0  0  0  0
   38.9620   30.9980   41.0630 C   0  0  0  0  0  0  0  0  0  0  0  0
   40.0990   31.5440   41.6530 C   0  0  0  0  0  0  0  0  0  0  0  0
   40.8140   32.4920   40.9740 N   0  0  0  0  0  0  0  0  0  0  0  0
   40.4380   32.9090   39.7460 C   0  0  0  0  0  0  0  0  0  0  0  0
   39.3370   32.3860   39.1670 N   0  0  0  0  0  0  0  0  0  0  0  0
   37.7160   31.0380   39.3120 H   0  0  0  0  0  0  0  0  0  0  0  0
   40.4770   31.2680   42.6400 H   0  0  0  0  0  0  0  0  0  0  0  0
   41.4590   34.1590   38.9580 S   0  0  0  0  0  0  0  0  0  0  0  0
   42.2470   34.8340   39.9140 H   0  0  0  0  0  0  0  0  0  0  0  0
  1  3  1  0  0  0  0
  2  1  1  0  0  0  0
  4  5  1  0  0  0  0
  4  1  1  0  0  0  0
  5 10  1  0  0  0  0
  6 11  1  0  0  0  0
  6  5  2  0  0  0  0
  7  6  1  0  0  0  0
  8  9  1  0  0  0  0
  8  7  2  0  0  0  0
  9  4  2  0  0  0  0
 12  7  1  0  0  0  0
 13  8  1  0  0  0  0
 14  9  1  0  0  0  0
 15 16  2  0  0  0  0
 16  1  1  0  0  0  0
 17 18  1  0  0  0  0
 18 19  2  0  0  0  0
 18 15  1  0  0  0  0
 19 24  1  0  0  0  0
 20 19  1  0  0  0  0
 21 20  2  0  0  0  0
 22 21  1  0  0  0  0
 22 17  2  0  0  0  0
 23 17  1  0  0  0  0
 25 21  1  0  0  0  0
 25 26  1  0  0  0  0
M  END
>  <minimizedAffinity>
-4.75300121

$$$$

 OpenBabel03242517393D

 26 27  0  0  0  0  0  0  0  0999 V2000
   32.7550   28.8640   36.8140 C   0  0  0  0  0  0  0  0  0  0  0  0
   32.3070   27.8620   36.6610 H   0  0  0  0  0  0  0  0  0  0  0  0
   33.5150   29.0990   36.0230 H   0  0  0  0  0  0  0  0  0  0  0  0
   31.7190   29.9230   36.8000 C   0  0  0  0  0  0  0  0  0  0  0  0
   30.9640   30.1220   37.9560 C   0  0  0  0  0  0  0  0  0  0  0  0
   29.9910   31.1020   37.9750 C   0  0  0  0  0  0  0  0  0  0  0  0
   29.7490   31.9040   36.8480 C   0  0  0  0  0  0  0  0  0  0  0  0
   30.5010   31.7030   35.7000 C   0  0  0  0  0  0  0  0  0  0  0  0
   31.4720   30.7190   35.6950 C   0  0  0  0  0  0  0  0  0  0  0  0
   31.1640   29.4960   38.8150 H   0  0  0  0  0  0  0  0  0  0  0  0
   29.4570   31.1800   38.9180 H   0  0  0  0  0  0  0  0  0  0  0  0
   28.9640   32.6430   36.9660 H   0  0  0  0  0  0  0  0  0  0  0  0
   30.2880   32.3420   34.8440 H   0  0  0  0  0  0  0  0  0  0  0  0
   32.0470   30.5790   34.7900 H   0  0  0  0  0  0  0  0  0  0  0  0
   34.7850   29.0310   38.2270 C   0  0  0  0  0  3  0  0  0  0  0  0
   33.4970   28.8510   38.1080 C   0  0  0  0  0  3  0  0  0  0  0  0
   35.7470   30.1660   40.2210 C   0  0  0  0  0  0  0  0  0  0  0  0
   35.5570   29.0290   39.4400 C   0  0  0  0  0  0  0  0  0  0  0  0
   36.1450   27.8400   39.8610 C   0  0  0  0  0  0  0  0  0  0  0  0
   36.8810   27.8290   41.0140 N   0  0  0  0  0  0  0  0  0  0  0  0
   37.0470   28.9490   41.7500 C   0  0  0  0  0  0  0  0  0  0  0  0
   36.4800   30.1070   41.3500 N   0  0  0  0  0  0  0  0  0  0  0  0
   35.2980   31.1090   39.9140 H   0  0  0  0  0  0  0  0  0  0  0  0
   36.0640   26.8880   39.3310 H   0  0  0  0  0  0  0  0  0  0  0  0
   38.0340   28.8080   43.2440 S   0  0  0  0  0  0  0  0  0  0  0  0
   38.1250   27.4610   43.6560 H   0  0  0  0  0  0  0  0  0  0  0  0
  1 16  1  0  0  0  0
  2  1  1  0  0  0  0
  3  1  1  0  0  0  0
  4  1  1  0  0  0  0
  4  5  1  0  0  0  0
  5  6  2  0  0  0  0
  5 10  1  0  0  0  0
  6 11  1  0  0  0  0
  7 12  1  0  0  0  0
  7  6  1  0  0  0  0
  8  7  2  0  0  0  0
  9  8  1  0  0  0  0
  9  4  2  0  0  0  0
 13  8  1  0  0  0  0
 14  9  1  0  0  0  0
 15 18  1  0  0  0  0
 16 15  2  0  0  0  0
 17 22  1  0  0  0  0
 18 19  1  0  0  0  0
 18 17  2  0  0  0  0
 19 20  2  0  0  0  0
 20 21  1  0  0  0  0
 21 25  1  0  0  0  0
 22 21  2  0  0  0  0
 23 17  1  0  0  0  0
 24 19  1  0  0  0  0
 25 26  1  0  0  0  0
M  END
>  <minimizedAffinity>
-4.74749756

$$$$

 OpenBabel03242517393D

 26 27  0  0  0  0  0  0  0  0999 V2000
   32.8000   28.9310   36.8470 C   0  0  0  0  0  0  0  0  0  0  0  0
   32.4170   27.9160   36.6200 H   0  0  0  0  0  0  0  0  0  0  0  0
   33.5440   29.2700   36.0780 H   0  0  0  0  0  0  0  0  0  0  0  0
   31.7000   29.9210   36.9040 C   0  0  0  0  0  0  0  0  0  0  0  0
   31.4680   30.7150   35.7800 C   0  0  0  0  0  0  0  0  0  0  0  0
   30.4490   31.6460   35.8010 C   0  0  0  0  0  0  0  0  0  0  0  0
   29.6390   31.8100   36.9370 C   0  0  0  0  0  0  0  0  0  0  0  0
   29.8730   31.0190   38.0530 C   0  0  0  0  0  0  0  0  0  0  0  0
   30.8970   30.0910   38.0180 C   0  0  0  0  0  0  0  0  0  0  0  0
   32.1000   30.5760   34.9130 H   0  0  0  0  0  0  0  0  0  0  0  0
   30.3470   32.2150   34.8810 H   0  0  0  0  0  0  0  0  0  0  0  0
   28.8690   32.5680   36.8510 H   0  0  0  0  0  0  0  0  0  0  0  0
   29.2280   31.1710   38.9180 H   0  0  0  0  0  0  0  0  0  0  0  0
   31.0610   29.4850   38.8980 H   0  0  0  0  0  0  0  0  0  0  0  0
   34.8170   29.1210   38.2770 C   0  0  0  0  0  3  0  0  0  0  0  0
   33.5420   28.8720   38.1390 C   0  0  0  0  0  3  0  0  0  0  0  0
   35.8250   30.2050   40.2760 C   0  0  0  0  0  0  0  0  0  0  0  0
   35.5880   29.0810   39.4890 C   0  0  0  0  0  0  0  0  0  0  0  0
   36.1240   27.8650   39.9050 C   0  0  0  0  0  0  0  0  0  0  0  0
   36.8590   27.8180   41.0580 N   0  0  0  0  0  0  0  0  0  0  0  0
   37.0720   28.9260   41.7990 C   0  0  0  0  0  0  0  0  0  0  0  0
   36.5560   30.1090   41.4050 N   0  0  0  0  0  0  0  0  0  0  0  0
   35.4170   31.1680   39.9730 H   0  0  0  0  0  0  0  0  0  0  0  0
   36.0030   26.9200   39.3700 H   0  0  0  0  0  0  0  0  0  0  0  0
   38.0520   28.7360   43.2920 S   0  0  0  0  0  0  0  0  0  0  0  0
   38.0850   27.3850   43.6980 H   0  0  0  0  0  0  0  0  0  0  0  0
  1  4  1  0  0  0  0
  1 16  1  0  0  0  0
  2  1  1  0  0  0  0
  3  1  1  0  0  0  0
  4  9  1  0  0  0  0
  5  6  1  0  0  0  0
  5  4  2  0  0  0  0
  6  7  2  0  0  0  0
  7  8  1  0  0  0  0
  8 13  1  0  0  0  0
  9  8  2  0  0  0  0
  9 14  1  0  0  0  0
 10  5  1  0  0  0  0
 11  6  1  0  0  0  0
 12  7  1  0  0  0  0
 15 18  1  0  0  0  0
 16 15  2  0  0  0  0
 17 22  1  0  0  0  0
 18 19  1  0  0  0  0
 18 17  2  0  0  0  0
 19 20  2  0  0  0  0
 20 21  1  0  0  0  0
 21 25  1  0  0  0  0
 22 21  2  0  0  0  0
 23 17  1  0  0  0  0
 24 19  1  0  0  0  0
 25 26  1  0  0  0  0
M  END
>  <minimizedAffinity>
-4.72361708

$$$$

 OpenBabel03242517393D

 26 27  0  0  0  0  0  0  0  0999 V2000
   32.4070   29.0360   35.9690 C   0  0  0  0  0  0  0  0  0  0  0  0
   31.7950   28.1340   35.7710 H   0  0  0  0  0  0  0  0  0  0  0  0
   33.2300   29.1480   35.2150 H   0  0  0  0  0  0  0  0  0  0  0  0
   31.5780   30.2640   35.9450 C   0  0  0  0  0  0  0  0  0  0  0  0
   31.5590   31.0230   34.7740 C   0  0  0  0  0  0  0  0  0  0  0  0
   30.7960   32.1720   34.7180 C   0  0  0  0  0  0  0  0  0  0  0  0
   30.0360   32.5920   35.8230 C   0  0  0  0  0  0  0  0  0  0  0  0
   30.0580   31.8350   36.9860 C   0  0  0  0  0  0  0  0  0  0  0  0
   30.8270   30.6870   37.0270 C   0  0  0  0  0  0  0  0  0  0  0  0
   32.1490   30.6850   33.9320 H   0  0  0  0  0  0  0  0  0  0  0  0
   30.8450   32.6940   33.7670 H   0  0  0  0  0  0  0  0  0  0  0  0
   29.4730   33.5070   35.6770 H   0  0  0  0  0  0  0  0  0  0  0  0
   29.4590   32.1880   37.8240 H   0  0  0  0  0  0  0  0  0  0  0  0
   30.8290   30.1120   37.9430 H   0  0  0  0  0  0  0  0  0  0  0  0
   34.3460   28.5920   37.4490 C   0  0  0  0  0  3  0  0  0  0  0  0
   33.0780   28.8630   37.2900 C   0  0  0  0  0  3  0  0  0  0  0  0
   34.8440   29.2230   39.8030 C   0  0  0  0  0  0  0  0  0  0  0  0
   35.0510   28.4130   38.6890 C   0  0  0  0  0  0  0  0  0  0  0  0
   35.9840   27.3850   38.7900 C   0  0  0  0  0  0  0  0  0  0  0  0
   36.6590   27.2080   39.9670 N   0  0  0  0  0  0  0  0  0  0  0  0
   36.4370   28.0100   41.0300 C   0  0  0  0  0  0  0  0  0  0  0  0
   35.5330   29.0090   40.9420 N   0  0  0  0  0  0  0  0  0  0  0  0
   34.1200   30.0340   39.7500 H   0  0  0  0  0  0  0  0  0  0  0  0
   36.2290   26.6900   37.9830 H   0  0  0  0  0  0  0  0  0  0  0  0
   37.3850   27.6770   42.5190 S   0  0  0  0  0  0  0  0  0  0  0  0
   37.8990   26.3630   42.4980 H   0  0  0  0  0  0  0  0  0  0  0  0
  1 16  1  0  0  0  0
  2  1  1  0  0  0  0
  3  1  1  0  0  0  0
  4  1  1  0  0  0  0
  4  9  1  0  0  0  0
  5  4  2  0  0  0  0
  6  5  1  0  0  0  0
  6  7  2  0  0  0  0
  7  8  1  0  0  0  0
  8  9  2  0  0  0  0
  8 13  1  0  0  0  0
  9 14  1  0  0  0  0
 10  5  1  0  0  0  0
 11  6  1  0  0  0  0
 12  7  1  0  0  0  0
 15 18  1  0  0  0  0
 16 15  2  0  0  0  0
 17 22  1  0  0  0  0
 18 19  1  0  0  0  0
 18 17  2  0  0  0  0
 19 20  2  0  0  0  0
 20 21  1  0  0  0  0
 21 25  1  0  0  0  0
 22 21  2  0  0  0  0
 23 17  1  0  0  0  0
 24 19  1  0  0  0  0
 26 25  1  0  0  0  0
M  END
>  <minimizedAffinity>
-4.68423462

$$$$

 OpenBabel03242517393D

 26 27  0  0  0  0  0  0  0  0999 V2000
   36.9090   25.3760   42.3910 C   0  0  0  0  0  0  0  0  0  0  0  0
   35.8680   25.4370   42.7670 H   0  0  0  0  0  0  0  0  0  0  0  0
   37.6320   25.1550   43.2200 H   0  0  0  0  0  0  0  0  0  0  0  0
   37.0470   24.3270   41.3550 C   0  0  0  0  0  0  0  0  0  0  0  0
   38.2630   23.6490   41.2610 C   0  0  0  0  0  0  0  0  0  0  0  0
   38.4230   22.6650   40.3060 C   0  0  0  0  0  0  0  0  0  0  0  0
   37.3810   22.3330   39.4250 C   0  0  0  0  0  0  0  0  0  0  0  0
   36.1730   23.0090   39.5210 C   0  0  0  0  0  0  0  0  0  0  0  0
   36.0270   23.9920   40.4820 C   0  0  0  0  0  0  0  0  0  0  0  0
   39.0550   23.9170   41.9480 H   0  0  0  0  0  0  0  0  0  0  0  0
   39.4030   22.1950   40.3110 H   0  0  0  0  0  0  0  0  0  0  0  0
   37.6090   21.5470   38.7140 H   0  0  0  0  0  0  0  0  0  0  0  0
   35.3860   22.7280   38.8230 H   0  0  0  0  0  0  0  0  0  0  0  0
   35.0780   24.5070   40.5390 H   0  0  0  0  0  0  0  0  0  0  0  0
   36.5880   27.8060   42.0160 C   0  0  0  0  0  3  0  0  0  0  0  0
   37.2910   26.7160   41.8580 C   0  0  0  0  0  3  0  0  0  0  0  0
   35.9830   29.9160   40.8470 C   0  0  0  0  0  0  0  0  0  0  0  0
   36.9000   29.1220   41.5290 C   0  0  0  0  0  0  0  0  0  0  0  0
   38.1760   29.6350   41.7480 C   0  0  0  0  0  0  0  0  0  0  0  0
   38.4810   30.8870   41.2870 N   0  0  0  0  0  0  0  0  0  0  0  0
   37.5690   31.6330   40.6280 C   0  0  0  0  0  0  0  0  0  0  0  0
   36.3300   31.1450   40.4130 N   0  0  0  0  0  0  0  0  0  0  0  0
   34.9780   29.5390   40.6630 H   0  0  0  0  0  0  0  0  0  0  0  0
   38.9750   29.1040   42.2700 H   0  0  0  0  0  0  0  0  0  0  0  0
   38.0900   33.2600   40.0740 S   0  0  0  0  0  0  0  0  0  0  0  0
   39.2290   33.6890   40.7890 H   0  0  0  0  0  0  0  0  0  0  0  0
  1  2  1  0  0  0  0
  1  3  1  0  0  0  0
  4  1  1  0  0  0  0
  5  4  1  0  0  0  0
  5 10  1  0  0  0  0
  6 11  1  0  0  0  0
  6  5  2  0  0  0  0
  7  8  2  0  0  0  0
  7  6  1  0  0  0  0
  8  9  1  0  0  0  0
  9 14  1  0  0  0  0
  9  4  2  0  0  0  0
 12  7  1  0  0  0  0
 13  8  1  0  0  0  0
 16 15  2  0  0  0  0
 16  1  1  0  0  0  0
 17 18  1  0  0  0  0
 18 19  2  0  0  0  0
 18 15  1  0  0  0  0
 19 24  1  0  0  0  0
 20 19  1  0  0  0  0
 21 20  2  0  0  0  0
 22 21  1  0  0  0  0
 22 17  2  0  0  0  0
 23 17  1  0  0  0  0
 25 21  1  0  0  0  0
 25 26  1  0  0  0  0
M  END
>  <minimizedAffinity>
-4.62891006

$$$$

 OpenBabel03242517393D

 26 27  0  0  0  0  0  0  0  0999 V2000
   32.5620   28.8420   36.5280 C   0  0  0  0  0  0  0  0  0  0  0  0
   31.9630   27.9100   36.5590 H   0  0  0  0  0  0  0  0  0  0  0  0
   33.2840   28.8370   35.6690 H   0  0  0  0  0  0  0  0  0  0  0  0
   31.6940   30.0360   36.4050 C   0  0  0  0  0  0  0  0  0  0  0  0
   31.6730   30.7130   35.1850 C   0  0  0  0  0  0  0  0  0  0  0  0
   30.8740   31.8290   35.0370 C   0  0  0  0  0  0  0  0  0  0  0  0
   30.0790   32.2960   36.0970 C   0  0  0  0  0  0  0  0  0  0  0  0
   30.1030   31.6210   37.3090 C   0  0  0  0  0  0  0  0  0  0  0  0
   30.9080   30.5050   37.4420 C   0  0  0  0  0  0  0  0  0  0  0  0
   32.2920   30.3400   34.3790 H   0  0  0  0  0  0  0  0  0  0  0  0
   30.9260   32.2870   34.0530 H   0  0  0  0  0  0  0  0  0  0  0  0
   29.4890   33.1790   35.8790 H   0  0  0  0  0  0  0  0  0  0  0  0
   29.4750   32.0090   38.1100 H   0  0  0  0  0  0  0  0  0  0  0  0
   30.9110   29.9940   38.3950 H   0  0  0  0  0  0  0  0  0  0  0  0
   34.6660   29.2020   37.7900 C   0  0  0  0  0  3  0  0  0  0  0  0
   33.3940   28.9030   37.7640 C   0  0  0  0  0  3  0  0  0  0  0  0
   35.1050   28.9110   40.2220 C   0  0  0  0  0  0  0  0  0  0  0  0
   35.5200   29.2770   38.9440 C   0  0  0  0  0  0  0  0  0  0  0  0
   36.8250   29.7340   38.7850 C   0  0  0  0  0  0  0  0  0  0  0  0
   37.6460   29.8080   39.8780 N   0  0  0  0  0  0  0  0  0  0  0  0
   37.2130   29.4470   41.1050 C   0  0  0  0  0  0  0  0  0  0  0  0
   35.9500   29.0020   41.2680 N   0  0  0  0  0  0  0  0  0  0  0  0
   34.0890   28.5510   40.3730 H   0  0  0  0  0  0  0  0  0  0  0  0
   37.2600   30.0470   37.8330 H   0  0  0  0  0  0  0  0  0  0  0  0
   38.3840   29.5890   42.4590 S   0  0  0  0  0  0  0  0  0  0  0  0
   39.7070   29.6420   41.9720 H   0  0  0  0  0  0  0  0  0  0  0  0
  1  2  1  0  0  0  0
  1 16  1  0  0  0  0
  3  1  1  0  0  0  0
  4  1  1  0  0  0  0
  4  9  1  0  0  0  0
  5  4  2  0  0  0  0
  6  5  1  0  0  0  0
  6  7  2  0  0  0  0
  7  8  1  0  0  0  0
  8  9  2  0  0  0  0
  8 13  1  0  0  0  0
  9 14  1  0  0  0  0
 10  5  1  0  0  0  0
 11  6  1  0  0  0  0
 12  7  1  0  0  0  0
 15 18  1  0  0  0  0
 16 15  2  0  0  0  0
 17 23  1  0  0  0  0
 17 22  1  0  0  0  0
 18 17  2  0  0  0  0
 19 18  1  0  0  0  0
 19 20  2  0  0  0  0
 20 21  1  0  0  0  0
 21 22  2  0  0  0  0
 21 25  1  0  0  0  0
 24 19  1  0  0  0  0
 26 25  1  0  0  0  0
M  END
>  <minimizedAffinity>
-4.57311344

$$$$

 OpenBabel03242517393D

 26 27  0  0  0  0  0  0  0  0999 V2000
   36.9410   27.8480   42.5060 C   0  0  0  0  0  0  0  0  0  0  0  0
   35.8890   27.5800   42.7300 H   0  0  0  0  0  0  0  0  0  0  0  0
   37.2940   28.6960   43.1510 H   0  0  0  0  0  0  0  0  0  0  0  0
   37.8450   26.6930   42.7120 C   0  0  0  0  0  0  0  0  0  0  0  0
   39.0020   26.8880   43.4680 C   0  0  0  0  0  0  0  0  0  0  0  0
   39.8650   25.8320   43.6800 C   0  0  0  0  0  0  0  0  0  0  0  0
   39.5990   24.5600   43.1450 C   0  0  0  0  0  0  0  0  0  0  0  0
   38.4480   24.3700   42.3930 C   0  0  0  0  0  0  0  0  0  0  0  0
   37.5930   25.4370   42.1900 C   0  0  0  0  0  0  0  0  0  0  0  0
   39.1920   27.8740   43.8730 H   0  0  0  0  0  0  0  0  0  0  0  0
   40.7360   26.0820   44.2790 H   0  0  0  0  0  0  0  0  0  0  0  0
   40.3390   23.8000   43.3680 H   0  0  0  0  0  0  0  0  0  0  0  0
   38.2720   23.3720   41.9930 H   0  0  0  0  0  0  0  0  0  0  0  0
   36.7030   25.2660   41.6020 H   0  0  0  0  0  0  0  0  0  0  0  0
   36.1140   28.0910   40.1810 C   0  0  0  0  0  3  0  0  0  0  0  0
   37.0070   28.3430   41.1010 C   0  0  0  0  0  3  0  0  0  0  0  0
   37.2580   29.0320   38.1830 C   0  0  0  0  0  0  0  0  0  0  0  0
   36.1200   28.5360   38.8150 C   0  0  0  0  0  0  0  0  0  0  0  0
   34.9390   28.4710   38.0810 C   0  0  0  0  0  0  0  0  0  0  0  0
   34.9360   28.8930   36.7790 N   0  0  0  0  0  0  0  0  0  0  0  0
   36.0560   29.3690   36.1940 C   0  0  0  0  0  0  0  0  0  0  0  0
   37.2060   29.4360   36.8980 N   0  0  0  0  0  0  0  0  0  0  0  0
   38.1940   29.0940   38.7350 H   0  0  0  0  0  0  0  0  0  0  0  0
   33.9880   28.1010   38.4710 H   0  0  0  0  0  0  0  0  0  0  0  0
   35.9250   29.8910   34.4810 S   0  0  0  0  0  0  0  0  0  0  0  0
   34.7870   29.3210   33.8720 H   0  0  0  0  0  0  0  0  0  0  0  0
  1  4  1  0  0  0  0
  1  2  1  0  0  0  0
  1  3  1  0  0  0  0
  4  5  1  0  0  0  0
  5  6  2  0  0  0  0
  5 10  1  0  0  0  0
  6 11  1  0  0  0  0
  7 12  1  0  0  0  0
  7  6  1  0  0  0  0
  8  7  2  0  0  0  0
  9  8  1  0  0  0  0
  9  4  2  0  0  0  0
 13  8  1  0  0  0  0
 14  9  1  0  0  0  0
 15 16  2  0  0  0  0
 16  1  1  0  0  0  0
 17 23  1  0  0  0  0
 17 18  1  0  0  0  0
 18 15  1  0  0  0  0
 19 24  1  0  0  0  0
 19 18  2  0  0  0  0
 20 19  1  0  0  0  0
 21 20  2  0  0  0  0
 21 22  1  0  0  0  0
 22 17  2  0  0  0  0
 25 21  1  0  0  0  0
 26 25  1  0  0  0  0
M  END
>  <minimizedAffinity>
-4.38205481

$$$$
