
 OpenBabel03252501143D

 18 19  0  0  0  0  0  0  0  0999 V2000
   46.0700   34.7440   43.4140 C   0  0  0  0  0  0  0  0  0  0  0  0
   46.2840   33.7770   44.4120 C   0  0  0  0  0  0  0  0  0  0  0  0
   45.5670   33.9480   45.5850 C   0  0  0  0  0  0  0  0  0  0  0  0
   44.7060   35.0110   45.7280 N   0  0  0  0  0  0  0  0  0  0  0  0
   44.5300   35.9220   44.7350 C   0  0  0  0  0  0  0  0  0  0  0  0
   45.2220   35.7730   43.5830 N   0  0  0  0  0  0  0  0  0  0  0  0
   46.9580   32.9430   44.3020 H   0  0  0  0  0  0  0  0  0  0  0  0
   43.8450   36.7300   44.9040 H   0  0  0  0  0  0  0  0  0  0  0  0
   45.6920   32.9700   46.7180 C   0  0  0  0  0  0  0  0  0  0  0  0
   46.1490   31.6010   46.2780 C   0  0  0  0  0  0  0  0  0  0  0  0
   47.0270   32.5510   47.1250 C   0  0  0  0  0  0  0  0  0  0  0  0
   44.8790   33.0300   47.4580 H   0  0  0  0  0  0  0  0  0  0  0  0
   46.3740   31.4360   45.2310 H   0  0  0  0  0  0  0  0  0  0  0  0
   45.6590   30.7660   46.7840 H   0  0  0  0  0  0  0  0  0  0  0  0
   47.2710   32.1990   48.1390 H   0  0  0  0  0  0  0  0  0  0  0  0
   47.8910   32.9280   46.5180 H   0  0  0  0  0  0  0  0  0  0  0  0
   47.0190   34.4900   41.9080 S   0  0  0  0  0  0  0  0  0  0  0  0
   47.9000   33.4040   42.0140 H   0  0  0  0  0  0  0  0  0  0  0  0
  1  6  2  0  0  0  0
  1  2  1  0  0  0  0
  2  3  2  0  0  0  0
  3  4  1  0  0  0  0
  3  9  1  0  0  0  0
  5  8  1  0  0  0  0
  5  4  2  0  0  0  0
  6  5  1  0  0  0  0
  7  2  1  0  0  0  0
  9 11  1  0  0  0  0
  9 12  1  0  0  0  0
 10  9  1  0  0  0  0
 10 14  1  0  0  0  0
 10 11  1  0  0  0  0
 11 15  1  0  0  0  0
 13 10  1  0  0  0  0
 16 11  1  0  0  0  0
 17 18  1  0  0  0  0
 17  1  1  0  0  0  0
M  END
>  <minimizedAffinity>
-3.70533514

>  <minimizedRMSD>
4.05421734

$$$$
