
 OpenBabel03242517443D

 22 23  0  0  0  0  0  0  0  0999 V2000
   38.5440   28.9120   42.3790 C   0  0  0  0  0  0  0  0  0  0  0  0
   37.6940   28.8690   43.4650 C   0  0  0  0  0  0  0  0  0  0  0  0
   36.9140   27.7560   43.6790 C   0  0  0  0  0  0  0  0  0  0  0  0
   36.9560   26.6730   42.8340 C   0  0  0  0  0  0  0  0  0  0  0  0
   37.8020   26.7110   41.7490 C   0  0  0  0  0  0  0  0  0  0  0  0
   38.5900   27.8240   41.5250 C   0  0  0  0  0  0  0  0  0  0  0  0
   37.7010   29.7470   44.0960 H   0  0  0  0  0  0  0  0  0  0  0  0
   36.2500   27.7530   44.5500 H   0  0  0  0  0  0  0  0  0  0  0  0
   36.3340   25.7980   43.0140 H   0  0  0  0  0  0  0  0  0  0  0  0
   37.8020   25.8330   41.1090 H   0  0  0  0  0  0  0  0  0  0  0  0
   39.6360   27.7260   40.0790 S   0  0  0  0  0  0  0  0  0  0  0  0
   40.8120   27.0160   40.3060 H   0  0  0  0  0  0  0  0  0  0  0  0
   39.6250   30.2450   41.9320 S   0  0  0  0  0  0  0  0  0  0  0  0
   39.1160   32.8150   41.0410 C   0  0  0  0  0  0  0  0  0  0  0  0
   38.7090   31.4580   40.9980 C   0  0  0  0  0  0  0  0  0  0  0  0
   37.5990   31.1210   40.2200 C   0  0  0  0  0  0  0  0  0  0  0  0
   36.9680   32.1180   39.5450 N   0  0  0  0  0  0  0  0  0  0  0  0
   37.3830   33.3850   39.6110 C   0  0  0  0  0  0  0  0  0  0  0  0
   38.4410   33.7630   40.3410 N   0  0  0  0  0  0  0  0  0  0  0  0
   39.9720   33.0300   41.6500 H   0  0  0  0  0  0  0  0  0  0  0  0
   37.2750   30.1070   40.1730 H   0  0  0  0  0  0  0  0  0  0  0  0
   36.8770   34.1820   39.0700 H   0  0  0  0  0  0  0  0  0  0  0  0
  1  2  1  0  0  0  0
  2  3  2  0  0  0  0
  2  7  1  0  0  0  0
  3  8  1  0  0  0  0
  4  9  1  0  0  0  0
  4  3  1  0  0  0  0
  5  4  2  0  0  0  0
  6  5  1  0  0  0  0
  6  1  2  0  0  0  0
 10  5  1  0  0  0  0
 11 12  1  0  0  0  0
 11  6  1  0  0  0  0
 13  1  1  0  0  0  0
 14 20  1  0  0  0  0
 15 14  1  0  0  0  0
 15 13  1  0  0  0  0
 16 15  2  0  0  0  0
 17 18  2  0  0  0  0
 17 16  1  0  0  0  0
 18 19  1  0  0  0  0
 19 14  2  0  0  0  0
 21 16  1  0  0  0  0
 22 18  1  0  0  0  0
M  END
>  <minimizedAffinity>
-4.26084328

$$$$

 OpenBabel03242517443D

 22 23  0  0  0  0  0  0  0  0999 V2000
   36.5880   30.5880   39.3820 C   0  0  0  0  0  0  0  0  0  0  0  0
   36.2060   29.5820   38.5200 C   0  0  0  0  0  0  0  0  0  0  0  0
   36.5480   29.6570   37.1890 C   0  0  0  0  0  0  0  0  0  0  0  0
   37.2670   30.7150   36.6880 C   0  0  0  0  0  0  0  0  0  0  0  0
   37.6500   31.7210   37.5450 C   0  0  0  0  0  0  0  0  0  0  0  0
   37.3120   31.6570   38.8820 C   0  0  0  0  0  0  0  0  0  0  0  0
   35.6430   28.7740   38.9670 H   0  0  0  0  0  0  0  0  0  0  0  0
   36.2310   28.8410   36.5300 H   0  0  0  0  0  0  0  0  0  0  0  0
   37.5320   30.7620   35.6330 H   0  0  0  0  0  0  0  0  0  0  0  0
   38.2170   32.5370   37.1040 H   0  0  0  0  0  0  0  0  0  0  0  0
   37.8780   33.0350   39.8690 S   0  0  0  0  0  0  0  0  0  0  0  0
   39.2090   32.9110   40.2630 H   0  0  0  0  0  0  0  0  0  0  0  0
   36.2480   30.6780   41.1210 S   0  0  0  0  0  0  0  0  0  0  0  0
   36.5720   28.0940   42.0570 C   0  0  0  0  0  0  0  0  0  0  0  0
   37.1460   29.3880   41.9640 C   0  0  0  0  0  0  0  0  0  0  0  0
   38.4000   29.6020   42.5410 C   0  0  0  0  0  0  0  0  0  0  0  0
   39.0020   28.5530   43.1610 N   0  0  0  0  0  0  0  0  0  0  0  0
   38.4300   27.3500   43.2270 C   0  0  0  0  0  0  0  0  0  0  0  0
   37.2290   27.0890   42.6910 N   0  0  0  0  0  0  0  0  0  0  0  0
   35.6090   27.9740   41.6010 H   0  0  0  0  0  0  0  0  0  0  0  0
   38.8490   30.5660   42.4830 H   0  0  0  0  0  0  0  0  0  0  0  0
   38.9130   26.5110   43.7240 H   0  0  0  0  0  0  0  0  0  0  0  0
  1 13  1  0  0  0  0
  2  7  1  0  0  0  0
  2  1  2  0  0  0  0
  3  2  1  0  0  0  0
  4  3  2  0  0  0  0
  4  5  1  0  0  0  0
  5  6  2  0  0  0  0
  6  1  1  0  0  0  0
  6 11  1  0  0  0  0
  8  3  1  0  0  0  0
  9  4  1  0  0  0  0
 10  5  1  0  0  0  0
 11 12  1  0  0  0  0
 13 15  1  0  0  0  0
 14 19  1  0  0  0  0
 15 14  2  0  0  0  0
 15 16  1  0  0  0  0
 16 17  2  0  0  0  0
 17 18  1  0  0  0  0
 18 22  1  0  0  0  0
 19 18  2  0  0  0  0
 20 14  1  0  0  0  0
 21 16  1  0  0  0  0
M  END
>  <minimizedAffinity>
-4.23419142

$$$$

 OpenBabel03242517443D

 22 23  0  0  0  0  0  0  0  0999 V2000
   38.2120   28.7500   41.2610 C   0  0  0  0  0  0  0  0  0  0  0  0
   39.2200   28.3850   42.1290 C   0  0  0  0  0  0  0  0  0  0  0  0
   38.9060   27.7750   43.3210 C   0  0  0  0  0  0  0  0  0  0  0  0
   37.6050   27.5140   43.6770 C   0  0  0  0  0  0  0  0  0  0  0  0
   36.5970   27.8770   42.8140 C   0  0  0  0  0  0  0  0  0  0  0  0
   36.9000   28.4900   41.6140 C   0  0  0  0  0  0  0  0  0  0  0  0
   40.2240   28.6140   41.7990 H   0  0  0  0  0  0  0  0  0  0  0  0
   39.7290   27.4970   43.9890 H   0  0  0  0  0  0  0  0  0  0  0  0
   37.3700   27.0310   44.6240 H   0  0  0  0  0  0  0  0  0  0  0  0
   35.5830   27.6510   43.1380 H   0  0  0  0  0  0  0  0  0  0  0  0
   35.4870   28.9010   40.6000 S   0  0  0  0  0  0  0  0  0  0  0  0
   35.0180   27.8200   39.8580 H   0  0  0  0  0  0  0  0  0  0  0  0
   38.4070   29.5420   39.6850 S   0  0  0  0  0  0  0  0  0  0  0  0
   37.3700   32.0740   39.2720 C   0  0  0  0  0  0  0  0  0  0  0  0
   38.3820   31.3120   39.9080 C   0  0  0  0  0  0  0  0  0  0  0  0
   39.3270   31.9810   40.6900 C   0  0  0  0  0  0  0  0  0  0  0  0
   39.2220   33.3310   40.7970 N   0  0  0  0  0  0  0  0  0  0  0  0
   38.2540   34.0140   40.1830 C   0  0  0  0  0  0  0  0  0  0  0  0
   37.3230   33.4230   39.4210 N   0  0  0  0  0  0  0  0  0  0  0  0
   36.6660   31.5210   38.6810 H   0  0  0  0  0  0  0  0  0  0  0  0
   40.0960   31.4270   41.1770 H   0  0  0  0  0  0  0  0  0  0  0  0
   38.1720   35.0960   40.2700 H   0  0  0  0  0  0  0  0  0  0  0  0
  1  6  2  0  0  0  0
  1  2  1  0  0  0  0
  2  3  2  0  0  0  0
  3  4  1  0  0  0  0
  3  8  1  0  0  0  0
  4  9  1  0  0  0  0
  5 10  1  0  0  0  0
  5  4  2  0  0  0  0
  6  5  1  0  0  0  0
  7  2  1  0  0  0  0
 11  6  1  0  0  0  0
 12 11  1  0  0  0  0
 13 15  1  0  0  0  0
 13  1  1  0  0  0  0
 14 19  2  0  0  0  0
 14 15  1  0  0  0  0
 15 16  2  0  0  0  0
 16 17  1  0  0  0  0
 16 21  1  0  0  0  0
 18 22  1  0  0  0  0
 18 17  2  0  0  0  0
 19 18  1  0  0  0  0
 20 14  1  0  0  0  0
M  END
>  <minimizedAffinity>
-4.19856119

$$$$

 OpenBabel03242517443D

 22 23  0  0  0  0  0  0  0  0999 V2000
   36.7750   28.0350   41.7390 C   0  0  0  0  0  0  0  0  0  0  0  0
   37.2520   28.4420   42.9670 C   0  0  0  0  0  0  0  0  0  0  0  0
   38.1910   27.6790   43.6220 C   0  0  0  0  0  0  0  0  0  0  0  0
   38.6750   26.5120   43.0830 C   0  0  0  0  0  0  0  0  0  0  0  0
   38.2020   26.1020   41.8580 C   0  0  0  0  0  0  0  0  0  0  0  0
   37.2590   26.8590   41.1910 C   0  0  0  0  0  0  0  0  0  0  0  0
   36.8370   29.3670   43.3440 H   0  0  0  0  0  0  0  0  0  0  0  0
   38.5500   28.0300   44.5960 H   0  0  0  0  0  0  0  0  0  0  0  0
   39.4190   25.9180   43.6110 H   0  0  0  0  0  0  0  0  0  0  0  0
   38.6140   25.1730   41.4710 H   0  0  0  0  0  0  0  0  0  0  0  0
   36.7420   26.2000   39.6130 S   0  0  0  0  0  0  0  0  0  0  0  0
   37.6260   26.5050   38.5800 H   0  0  0  0  0  0  0  0  0  0  0  0
   35.5700   28.8710   40.7400 S   0  0  0  0  0  0  0  0  0  0  0  0
   36.6950   31.3990   40.7270 C   0  0  0  0  0  0  0  0  0  0  0  0
   36.3350   30.2720   39.9450 C   0  0  0  0  0  0  0  0  0  0  0  0
   36.5950   30.3040   38.5730 C   0  0  0  0  0  0  0  0  0  0  0  0
   37.1820   31.4190   38.0620 N   0  0  0  0  0  0  0  0  0  0  0  0
   37.5060   32.4600   38.8310 C   0  0  0  0  0  0  0  0  0  0  0  0
   37.2790   32.4820   40.1530 N   0  0  0  0  0  0  0  0  0  0  0  0
   36.4770   31.3320   41.7750 H   0  0  0  0  0  0  0  0  0  0  0  0
   36.3330   29.4680   37.9670 H   0  0  0  0  0  0  0  0  0  0  0  0
   37.9750   33.3520   38.4210 H   0  0  0  0  0  0  0  0  0  0  0  0
  1  2  1  0  0  0  0
  2  7  1  0  0  0  0
  2  3  2  0  0  0  0
  3  8  1  0  0  0  0
  4  9  1  0  0  0  0
  4  3  1  0  0  0  0
  5  4  2  0  0  0  0
  6  1  2  0  0  0  0
  6  5  1  0  0  0  0
 10  5  1  0  0  0  0
 11  6  1  0  0  0  0
 12 11  1  0  0  0  0
 13  1  1  0  0  0  0
 14 20  1  0  0  0  0
 15 14  2  0  0  0  0
 15 13  1  0  0  0  0
 16 15  1  0  0  0  0
 17 16  2  0  0  0  0
 17 18  1  0  0  0  0
 18 19  2  0  0  0  0
 19 14  1  0  0  0  0
 21 16  1  0  0  0  0
 22 18  1  0  0  0  0
M  END
>  <minimizedAffinity>
-4.19475412

$$$$

 OpenBabel03242517443D

 22 23  0  0  0  0  0  0  0  0999 V2000
   37.0950   29.3410   41.8770 C   0  0  0  0  0  0  0  0  0  0  0  0
   36.4480   28.1620   42.1830 C   0  0  0  0  0  0  0  0  0  0  0  0
   37.1160   27.1760   42.8720 C   0  0  0  0  0  0  0  0  0  0  0  0
   38.4220   27.3310   43.2680 C   0  0  0  0  0  0  0  0  0  0  0  0
   39.0710   28.5050   42.9640 C   0  0  0  0  0  0  0  0  0  0  0  0
   38.4110   29.5030   42.2740 C   0  0  0  0  0  0  0  0  0  0  0  0
   35.4220   28.0940   41.8480 H   0  0  0  0  0  0  0  0  0  0  0  0
   36.5740   26.2510   43.1000 H   0  0  0  0  0  0  0  0  0  0  0  0
   38.9390   26.5430   43.8120 H   0  0  0  0  0  0  0  0  0  0  0  0
   40.1030   28.5830   43.2980 H   0  0  0  0  0  0  0  0  0  0  0  0
   39.3830   30.9670   41.9530 S   0  0  0  0  0  0  0  0  0  0  0  0
   39.4300   31.8370   43.0400 H   0  0  0  0  0  0  0  0  0  0  0  0
   36.4140   30.7260   41.0020 S   0  0  0  0  0  0  0  0  0  0  0  0
   35.9250   29.4260   38.6090 C   0  0  0  0  0  0  0  0  0  0  0  0
   36.6280   30.4790   39.2490 C   0  0  0  0  0  0  0  0  0  0  0  0
   37.4650   31.2860   38.4760 C   0  0  0  0  0  0  0  0  0  0  0  0
   37.5600   31.0160   37.1470 N   0  0  0  0  0  0  0  0  0  0  0  0
   36.8820   30.0160   36.5810 C   0  0  0  0  0  0  0  0  0  0  0  0
   36.0650   29.2110   37.2750 N   0  0  0  0  0  0  0  0  0  0  0  0
   35.2940   28.8310   39.2390 H   0  0  0  0  0  0  0  0  0  0  0  0
   38.0020   32.0820   38.9360 H   0  0  0  0  0  0  0  0  0  0  0  0
   36.9580   29.8010   35.5170 H   0  0  0  0  0  0  0  0  0  0  0  0
  1  2  2  0  0  0  0
  1  6  1  0  0  0  0
  2  3  1  0  0  0  0
  3  8  1  0  0  0  0
  3  4  2  0  0  0  0
  4  9  1  0  0  0  0
  5  4  1  0  0  0  0
  5 10  1  0  0  0  0
  6  5  2  0  0  0  0
  7  2  1  0  0  0  0
 11  6  1  0  0  0  0
 11 12  1  0  0  0  0
 13  1  1  0  0  0  0
 14 20  1  0  0  0  0
 14 15  1  0  0  0  0
 15 13  1  0  0  0  0
 16 21  1  0  0  0  0
 16 15  2  0  0  0  0
 17 16  1  0  0  0  0
 18 17  2  0  0  0  0
 18 19  1  0  0  0  0
 19 14  2  0  0  0  0
 22 18  1  0  0  0  0
M  END
>  <minimizedAffinity>
-4.16133165

$$$$

 OpenBabel03242517443D

 22 23  0  0  0  0  0  0  0  0999 V2000
   37.0280   29.3400   41.7480 C   0  0  0  0  0  0  0  0  0  0  0  0
   37.6540   29.2190   42.9700 C   0  0  0  0  0  0  0  0  0  0  0  0
   37.9610   27.9700   43.4600 C   0  0  0  0  0  0  0  0  0  0  0  0
   37.6590   26.8270   42.7590 C   0  0  0  0  0  0  0  0  0  0  0  0
   37.0340   26.9440   41.5390 C   0  0  0  0  0  0  0  0  0  0  0  0
   36.7210   28.1920   41.0380 C   0  0  0  0  0  0  0  0  0  0  0  0
   37.8680   30.1500   43.4780 H   0  0  0  0  0  0  0  0  0  0  0  0
   38.4590   27.9080   44.4340 H   0  0  0  0  0  0  0  0  0  0  0  0
   37.9070   25.8450   43.1580 H   0  0  0  0  0  0  0  0  0  0  0  0
   36.8150   26.0130   41.0220 H   0  0  0  0  0  0  0  0  0  0  0  0
   35.9130   28.1830   39.4450 S   0  0  0  0  0  0  0  0  0  0  0  0
   36.8050   28.0480   38.3830 H   0  0  0  0  0  0  0  0  0  0  0  0
   36.5510   30.8500   40.9470 S   0  0  0  0  0  0  0  0  0  0  0  0
   38.6800   30.9670   39.1830 C   0  0  0  0  0  0  0  0  0  0  0  0
   37.9940   31.6210   40.2370 C   0  0  0  0  0  0  0  0  0  0  0  0
   38.4800   32.8530   40.6830 C   0  0  0  0  0  0  0  0  0  0  0  0
   39.5870   33.3570   40.0770 N   0  0  0  0  0  0  0  0  0  0  0  0
   40.2040   32.7110   39.0860 C   0  0  0  0  0  0  0  0  0  0  0  0
   39.7820   31.5270   38.6200 N   0  0  0  0  0  0  0  0  0  0  0  0
   38.2740   30.0240   38.8720 H   0  0  0  0  0  0  0  0  0  0  0  0
   37.9800   33.3620   41.4740 H   0  0  0  0  0  0  0  0  0  0  0  0
   41.0910   33.1160   38.6020 H   0  0  0  0  0  0  0  0  0  0  0  0
  1  2  1  0  0  0  0
  2  3  2  0  0  0  0
  2  7  1  0  0  0  0
  3  8  1  0  0  0  0
  4  9  1  0  0  0  0
  4  3  1  0  0  0  0
  5  4  2  0  0  0  0
  6  5  1  0  0  0  0
  6  1  2  0  0  0  0
 10  5  1  0  0  0  0
 11  6  1  0  0  0  0
 12 11  1  0  0  0  0
 13  1  1  0  0  0  0
 14 15  1  0  0  0  0
 15 16  2  0  0  0  0
 15 13  1  0  0  0  0
 16 21  1  0  0  0  0
 17 16  1  0  0  0  0
 18 17  2  0  0  0  0
 19 18  1  0  0  0  0
 19 14  2  0  0  0  0
 20 14  1  0  0  0  0
 22 18  1  0  0  0  0
M  END
>  <minimizedAffinity>
-4.12466002

$$$$

 OpenBabel03242517443D

 22 23  0  0  0  0  0  0  0  0999 V2000
   36.3820   30.2720   39.4300 C   0  0  0  0  0  0  0  0  0  0  0  0
   36.7860   31.5690   39.6670 C   0  0  0  0  0  0  0  0  0  0  0  0
   37.4140   32.2820   38.6720 C   0  0  0  0  0  0  0  0  0  0  0  0
   37.6520   31.7350   37.4340 C   0  0  0  0  0  0  0  0  0  0  0  0
   37.2510   30.4420   37.1930 C   0  0  0  0  0  0  0  0  0  0  0  0
   36.6190   29.7170   38.1850 C   0  0  0  0  0  0  0  0  0  0  0  0
   36.5730   31.9490   40.6570 H   0  0  0  0  0  0  0  0  0  0  0  0
   37.7230   33.3100   38.8920 H   0  0  0  0  0  0  0  0  0  0  0  0
   38.1500   32.3100   36.6550 H   0  0  0  0  0  0  0  0  0  0  0  0
   37.4600   30.0510   36.2000 H   0  0  0  0  0  0  0  0  0  0  0  0
   36.1580   28.0530   37.7230 S   0  0  0  0  0  0  0  0  0  0  0  0
   34.9630   27.9990   37.0090 H   0  0  0  0  0  0  0  0  0  0  0  0
   35.5610   29.1920   40.5730 S   0  0  0  0  0  0  0  0  0  0  0  0
   36.9860   27.1100   41.7100 C   0  0  0  0  0  0  0  0  0  0  0  0
   36.7610   28.5100   41.7030 C   0  0  0  0  0  0  0  0  0  0  0  0
   37.4930   29.3060   42.5880 C   0  0  0  0  0  0  0  0  0  0  0  0
   38.3840   28.6900   43.4090 N   0  0  0  0  0  0  0  0  0  0  0  0
   38.5670   27.3690   43.3860 C   0  0  0  0  0  0  0  0  0  0  0  0
   37.8920   26.5580   42.5580 N   0  0  0  0  0  0  0  0  0  0  0  0
   36.4030   26.5370   41.0160 H   0  0  0  0  0  0  0  0  0  0  0  0
   37.3400   30.3600   42.5990 H   0  0  0  0  0  0  0  0  0  0  0  0
   39.2810   26.8770   44.0440 H   0  0  0  0  0  0  0  0  0  0  0  0
  1  2  1  0  0  0  0
  1 13  1  0  0  0  0
  2  7  1  0  0  0  0
  3  8  1  0  0  0  0
  3  2  2  0  0  0  0
  4  3  1  0  0  0  0
  5  4  2  0  0  0  0
  5  6  1  0  0  0  0
  6  1  2  0  0  0  0
  9  4  1  0  0  0  0
 10  5  1  0  0  0  0
 11  6  1  0  0  0  0
 12 11  1  0  0  0  0
 13 15  1  0  0  0  0
 14 19  1  0  0  0  0
 15 14  2  0  0  0  0
 15 16  1  0  0  0  0
 16 21  1  0  0  0  0
 16 17  2  0  0  0  0
 18 17  1  0  0  0  0
 18 22  1  0  0  0  0
 19 18  2  0  0  0  0
 20 14  1  0  0  0  0
M  END
>  <minimizedAffinity>
-4.09941006

$$$$

 OpenBabel03242517443D

 22 23  0  0  0  0  0  0  0  0999 V2000
   37.9570   27.0660   42.8340 C   0  0  0  0  0  0  0  0  0  0  0  0
   36.8870   26.2950   42.4300 C   0  0  0  0  0  0  0  0  0  0  0  0
   37.0700   24.9580   42.1610 C   0  0  0  0  0  0  0  0  0  0  0  0
   38.3010   24.3600   42.2860 C   0  0  0  0  0  0  0  0  0  0  0  0
   39.3720   25.1250   42.6890 C   0  0  0  0  0  0  0  0  0  0  0  0
   39.1990   26.4680   42.9610 C   0  0  0  0  0  0  0  0  0  0  0  0
   35.9430   26.8160   42.3490 H   0  0  0  0  0  0  0  0  0  0  0  0
   36.2000   24.3740   41.8420 H   0  0  0  0  0  0  0  0  0  0  0  0
   38.4330   23.3020   42.0700 H   0  0  0  0  0  0  0  0  0  0  0  0
   40.3250   24.6100   42.7730 H   0  0  0  0  0  0  0  0  0  0  0  0
   40.6790   27.3290   43.4730 S   0  0  0  0  0  0  0  0  0  0  0  0
   40.9690   27.1560   44.8240 H   0  0  0  0  0  0  0  0  0  0  0  0
   37.9290   28.7960   43.2260 S   0  0  0  0  0  0  0  0  0  0  0  0
   38.8130   29.8690   40.8330 C   0  0  0  0  0  0  0  0  0  0  0  0
   37.7190   29.7360   41.7250 C   0  0  0  0  0  0  0  0  0  0  0  0
   36.5110   30.3520   41.3910 C   0  0  0  0  0  0  0  0  0  0  0  0
   36.4520   31.0470   40.2240 N   0  0  0  0  0  0  0  0  0  0  0  0
   37.5040   31.1480   39.4110 C   0  0  0  0  0  0  0  0  0  0  0  0
   38.6870   30.5780   39.6820 N   0  0  0  0  0  0  0  0  0  0  0  0
   39.7210   29.3810   41.1290 H   0  0  0  0  0  0  0  0  0  0  0  0
   35.6750   30.2660   42.0470 H   0  0  0  0  0  0  0  0  0  0  0  0
   37.4560   31.7050   38.4770 H   0  0  0  0  0  0  0  0  0  0  0  0
  1  6  1  0  0  0  0
  1 13  1  0  0  0  0
  2  1  2  0  0  0  0
  3  4  2  0  0  0  0
  3  2  1  0  0  0  0
  4  5  1  0  0  0  0
  5 10  1  0  0  0  0
  5  6  2  0  0  0  0
  6 11  1  0  0  0  0
  7  2  1  0  0  0  0
  8  3  1  0  0  0  0
  9  4  1  0  0  0  0
 11 12  1  0  0  0  0
 14 20  1  0  0  0  0
 14 15  1  0  0  0  0
 15 13  1  0  0  0  0
 16 15  2  0  0  0  0
 16 21  1  0  0  0  0
 17 16  1  0  0  0  0
 18 19  1  0  0  0  0
 18 17  2  0  0  0  0
 19 14  2  0  0  0  0
 22 18  1  0  0  0  0
M  END
>  <minimizedAffinity>
-4.09579706

$$$$

 OpenBabel03242517443D

 22 23  0  0  0  0  0  0  0  0999 V2000
   36.9620   29.1800   41.7900 C   0  0  0  0  0  0  0  0  0  0  0  0
   35.8270   28.9190   41.0520 C   0  0  0  0  0  0  0  0  0  0  0  0
   35.6340   29.5550   39.8470 C   0  0  0  0  0  0  0  0  0  0  0  0
   36.5480   30.4520   39.3510 C   0  0  0  0  0  0  0  0  0  0  0  0
   37.6820   30.7150   40.0830 C   0  0  0  0  0  0  0  0  0  0  0  0
   37.8870   30.0830   41.2940 C   0  0  0  0  0  0  0  0  0  0  0  0
   35.1420   28.2050   41.4890 H   0  0  0  0  0  0  0  0  0  0  0  0
   34.7220   29.3250   39.2850 H   0  0  0  0  0  0  0  0  0  0  0  0
   36.3840   30.9480   38.3960 H   0  0  0  0  0  0  0  0  0  0  0  0
   38.3770   31.4310   39.6510 H   0  0  0  0  0  0  0  0  0  0  0  0
   39.4030   30.5270   42.1290 S   0  0  0  0  0  0  0  0  0  0  0  0
   40.5110   29.8320   41.6500 H   0  0  0  0  0  0  0  0  0  0  0  0
   37.3950   28.4690   43.3560 S   0  0  0  0  0  0  0  0  0  0  0  0
   39.4890   26.6890   43.6800 C   0  0  0  0  0  0  0  0  0  0  0  0
   38.2190   26.9100   43.0880 C   0  0  0  0  0  0  0  0  0  0  0  0
   37.6610   25.8910   42.3130 C   0  0  0  0  0  0  0  0  0  0  0  0
   38.3690   24.7400   42.1690 N   0  0  0  0  0  0  0  0  0  0  0  0
   39.5610   24.5700   42.7420 C   0  0  0  0  0  0  0  0  0  0  0  0
   40.1440   25.5130   43.4960 N   0  0  0  0  0  0  0  0  0  0  0  0
   39.8810   27.4970   44.2660 H   0  0  0  0  0  0  0  0  0  0  0  0
   36.7080   26.0360   41.8590 H   0  0  0  0  0  0  0  0  0  0  0  0
   40.1270   23.6480   42.6260 H   0  0  0  0  0  0  0  0  0  0  0  0
  1 13  1  0  0  0  0
  2  7  1  0  0  0  0
  2  1  2  0  0  0  0
  3  2  1  0  0  0  0
  4  3  2  0  0  0  0
  4  5  1  0  0  0  0
  5  6  2  0  0  0  0
  6  1  1  0  0  0  0
  6 11  1  0  0  0  0
  8  3  1  0  0  0  0
  9  4  1  0  0  0  0
 10  5  1  0  0  0  0
 12 11  1  0  0  0  0
 14 20  1  0  0  0  0
 15 13  1  0  0  0  0
 15 14  2  0  0  0  0
 16 15  1  0  0  0  0
 17 16  2  0  0  0  0
 17 18  1  0  0  0  0
 18 19  2  0  0  0  0
 19 14  1  0  0  0  0
 21 16  1  0  0  0  0
 22 18  1  0  0  0  0
M  END
>  <minimizedAffinity>
-4.07381296

$$$$
