
 OpenBabel03252509343D

 36 37  0  0  1  0  0  0  0  0999 V2000
   46.4980   34.7110   43.3110 O   0  0  0  0  0  0  0  0  0  0  0  0
   46.4020   33.8420   42.2250 C   0  0  1  0  0  0  0  0  0  0  0  0
   45.6510   34.4640   41.0660 C   0  0  0  0  0  0  0  0  0  0  0  0
   45.9630   33.4940   39.9560 C   0  0  0  0  0  0  0  0  0  0  0  0
   47.3130   32.8990   40.2960 C   0  0  0  0  0  0  0  0  0  0  0  0
   47.7460   33.6030   41.5710 C   0  0  1  0  0  0  0  0  0  0  0  0
   45.9380   32.8890   42.4530 H   0  0  0  0  0  0  0  0  0  0  0  0
   45.9490   35.5060   40.8600 H   0  0  0  0  0  0  0  0  0  0  0  0
   44.5580   34.4870   41.1960 H   0  0  0  0  0  0  0  0  0  0  0  0
   45.9260   33.9610   38.9520 H   0  0  0  0  0  0  0  0  0  0  0  0
   45.2410   32.6470   39.9850 H   0  0  0  0  0  0  0  0  0  0  0  0
   48.0240   33.2460   39.5020 H   0  0  0  0  0  0  0  0  0  0  0  0
   47.2920   31.8030   40.3970 H   0  0  0  0  0  0  0  0  0  0  0  0
   48.4110   32.9470   42.1880 H   0  0  0  0  0  0  0  0  0  0  0  0
   48.5080   34.8660   41.2970 C   0  0  0  0  0  0  0  0  0  0  0  0
   48.8960   34.8090   40.2710 H   0  0  0  0  0  0  0  0  0  0  0  0
   47.9300   35.7800   41.4190 H   0  0  0  0  0  0  0  0  0  0  0  0
   49.9010   34.9270   42.4680 S   0  0  0  0  0  0  0  0  0  0  0  0
   49.8100   36.0210   43.3440 H   0  0  0  0  0  0  0  0  0  0  0  0
   44.4760   35.4400   44.7560 O   0  0  0  0  0  0  0  0  0  0  0  0
   45.3750   34.2570   44.4770 P   0  0  1  0  0  0  0  0  0  0  0  0
   44.5140   32.9050   43.9910 O   0  0  0  0  0  0  0  0  0  0  0  0
   44.8700   32.3960   43.2540 H   0  0  0  0  0  0  0  0  0  0  0  0
   46.1940   33.8260   45.8810 O   0  0  0  0  0  0  0  0  0  0  0  0
   46.5170   32.5040   45.8090 C   0  0  0  0  0  0  0  0  0  0  0  0
   46.2830   31.9610   44.9000 H   0  0  0  0  0  0  0  0  0  0  0  0
   47.6440   32.4560   45.8900 H   0  0  0  0  0  0  0  0  0  0  0  0
   45.4580   31.6120   49.2690 C   0  0  0  0  0  0  0  0  0  0  0  0
   45.9490   32.3650   48.1870 C   0  0  0  0  0  0  0  0  0  0  0  0
   46.0040   31.7280   46.9500 C   0  0  0  0  0  0  0  0  0  0  0  0
   45.5860   30.4280   46.8460 N   0  0  0  0  0  0  0  0  0  0  0  0
   45.1210   29.7380   47.9040 C   0  0  0  0  0  0  0  0  0  0  0  0
   45.0590   30.3270   49.0980 N   0  0  0  0  0  0  0  0  0  0  0  0
   45.3870   32.0400   50.2520 H   0  0  0  0  0  0  0  0  0  0  0  0
   46.2490   33.3760   48.3830 H   0  0  0  0  0  0  0  0  0  0  0  0
   44.8160   28.7180   47.7160 H   0  0  0  0  0  0  0  0  0  0  0  0
  1 21  1  0  0  0  0
  2  7  1  1  0  0  0
  2  1  1  0  0  0  0
  3  9  1  0  0  0  0
  3  2  1  0  0  0  0
  4 11  1  0  0  0  0
  4  5  1  0  0  0  0
  4  3  1  0  0  0  0
  5 13  1  0  0  0  0
  5  6  1  0  0  0  0
  6 14  1  1  0  0  0
  6  2  1  0  0  0  0
  8  3  1  0  0  0  0
 10  4  1  0  0  0  0
 12  5  1  0  0  0  0
 15 17  1  0  0  0  0
 15  6  1  0  0  0  0
 15 18  1  0  0  0  0
 16 15  1  0  0  0  0
 18 19  1  0  0  0  0
 21 20  2  1  0  0  0
 21 24  1  0  0  0  0
 22 21  1  0  0  0  0
 23 22  1  0  0  0  0
 25 24  1  0  0  0  0
 25 27  1  0  0  0  0
 25 30  1  0  0  0  0
 26 25  1  0  0  0  0
 28 34  1  0  0  0  0
 29 35  1  0  0  0  0
 29 28  2  0  0  0  0
 30 29  1  0  0  0  0
 31 30  2  0  0  0  0
 31 32  1  0  0  0  0
 32 33  2  0  0  0  0
 33 28  1  0  0  0  0
 36 32  1  0  0  0  0
M  END
>  <minimizedAffinity>
-4.72959137

>  <minimizedRMSD>
0.918652415

$$$$
