
 OpenBabel03242523373D

 12 12  0  0  0  0  0  0  0  0999 V2000
   44.5500   35.8850   44.5940 C   0  0  0  0  0  0  0  0  0  0  0  0
   45.2380   35.8460   43.3590 C   0  0  0  0  0  0  0  0  0  0  0  0
   46.1770   34.8170   43.1800 C   0  0  0  0  0  0  0  0  0  0  0  0
   46.3650   33.9330   44.1890 N   0  0  0  0  0  0  0  0  0  0  0  0
   45.6900   34.0040   45.3520 C   0  0  0  0  0  0  0  0  0  0  0  0
   44.7900   34.9740   45.5480 N   0  0  0  0  0  0  0  0  0  0  0  0
   43.8300   36.6750   44.7310 H   0  0  0  0  0  0  0  0  0  0  0  0
   45.0450   36.5800   42.5910 H   0  0  0  0  0  0  0  0  0  0  0  0
   47.0910   34.6930   41.6530 S   0  0  0  0  0  0  0  0  0  0  0  0
   46.4520   33.7660   40.8320 H   0  0  0  0  0  0  0  0  0  0  0  0
   46.0450   32.7650   46.5980 S   0  0  0  0  0  0  0  0  0  0  0  0
   44.8930   32.5650   47.4140 H   0  0  0  0  0  0  0  0  0  0  0  0
  1  7  1  0  0  0  0
  1  6  1  0  0  0  0
  2  1  2  0  0  0  0
  3  2  1  0  0  0  0
  3  4  2  0  0  0  0
  4  5  1  0  0  0  0
  5  6  2  0  0  0  0
  5 11  1  0  0  0  0
  8  2  1  0  0  0  0
  9  3  1  0  0  0  0
 10  9  1  0  0  0  0
 11 12  1  0  0  0  0
M  END
>  <minimizedAffinity>
-3.2602067

>  <minimizedRMSD>
0.177606955

$$$$
