
 OpenBabel03252502543D

 24 25  0  0  0  0  0  0  0  0999 V2000
   35.6470   28.8580   40.9040 C   0  0  0  0  0  0  0  0  0  0  0  0
   35.1170   28.2040   40.1760 H   0  0  0  0  0  0  0  0  0  0  0  0
   34.8350   29.2010   41.5980 H   0  0  0  0  0  0  0  0  0  0  0  0
   36.5890   26.2710   39.3640 Br  0  0  0  0  0  0  0  0  0  0  0  0
   37.1870   26.8490   41.1010 C   0  0  0  0  0  0  0  0  0  0  0  0
   36.6390   28.0180   41.5850 C   0  0  0  0  0  0  0  0  0  0  0  0
   37.1030   28.3910   42.8410 C   0  0  0  0  0  0  0  0  0  0  0  0
   38.0270   27.6830   43.5670 C   0  0  0  0  0  0  0  0  0  0  0  0
   38.5390   26.5210   43.0270 C   0  0  0  0  0  0  0  0  0  0  0  0
   38.1250   26.0860   41.7810 C   0  0  0  0  0  0  0  0  0  0  0  0
   36.7320   29.3040   43.3190 H   0  0  0  0  0  0  0  0  0  0  0  0
   38.3740   27.9920   44.5430 H   0  0  0  0  0  0  0  0  0  0  0  0
   39.2590   25.8920   43.4990 H   0  0  0  0  0  0  0  0  0  0  0  0
   38.7270   24.5970   40.9980 S   0  0  0  0  0  0  0  0  0  0  0  0
   38.0330   23.4530   41.4160 H   0  0  0  0  0  0  0  0  0  0  0  0
   37.0930   32.2230   40.1800 C   0  0  0  0  0  0  0  0  0  0  0  0
   37.3500   32.1390   38.8180 C   0  0  0  0  0  0  0  0  0  0  0  0
   37.0350   30.9570   38.1710 C   0  0  0  0  0  0  0  0  0  0  0  0
   36.4860   29.9290   38.8900 N   0  0  0  0  0  0  0  0  0  0  0  0
   36.2420   30.0340   40.2270 C   0  0  0  0  0  0  0  0  0  0  0  0
   36.5570   31.1950   40.8430 N   0  0  0  0  0  0  0  0  0  0  0  0
   37.3250   33.1370   40.7420 H   0  0  0  0  0  0  0  0  0  0  0  0
   37.7820   32.9730   38.2950 H   0  0  0  0  0  0  0  0  0  0  0  0
   37.2210   30.8550   37.1080 H   0  0  0  0  0  0  0  0  0  0  0  0
  1  6  1  0  0  0  0
  1  3  1  0  0  0  0
  2  1  1  0  0  0  0
  4  5  1  0  0  0  0
  5  6  2  0  0  0  0
  5 10  1  0  0  0  0
  6  7  1  0  0  0  0
  7 11  1  0  0  0  0
  7  8  2  0  0  0  0
  8 12  1  0  0  0  0
  9 13  1  0  0  0  0
  9  8  1  0  0  0  0
 10  9  2  0  0  0  0
 14 15  1  0  0  0  0
 14 10  1  0  0  0  0
 16 22  1  0  0  0  0
 16 21  1  0  0  0  0
 17 16  2  0  0  0  0
 18 17  1  0  0  0  0
 18 19  2  0  0  0  0
 19 20  1  0  0  0  0
 20 21  2  0  0  0  0
 20  1  1  0  0  0  0
 23 17  1  0  0  0  0
 24 18  1  0  0  0  0
M  END
>  <minimizedAffinity>
-4.657166

$$$$

 OpenBabel03252502543D

 24 25  0  0  0  0  0  0  0  0999 V2000
   36.9050   27.6530   43.1060 C   0  0  0  0  0  0  0  0  0  0  0  0
   35.9650   27.2820   43.5720 H   0  0  0  0  0  0  0  0  0  0  0  0
   37.4320   28.1770   43.9450 H   0  0  0  0  0  0  0  0  0  0  0  0
   40.0540   27.8360   43.1970 Br  0  0  0  0  0  0  0  0  0  0  0  0
   39.0130   26.3330   42.5920 C   0  0  0  0  0  0  0  0  0  0  0  0
   37.6410   26.4730   42.6400 C   0  0  0  0  0  0  0  0  0  0  0  0
   36.9360   25.3610   42.1930 C   0  0  0  0  0  0  0  0  0  0  0  0
   37.5200   24.2060   41.7370 C   0  0  0  0  0  0  0  0  0  0  0  0
   38.8980   24.1290   41.7140 C   0  0  0  0  0  0  0  0  0  0  0  0
   39.6660   25.1950   42.1420 C   0  0  0  0  0  0  0  0  0  0  0  0
   35.8420   25.3650   42.1890 H   0  0  0  0  0  0  0  0  0  0  0  0
   36.9510   23.3530   41.3930 H   0  0  0  0  0  0  0  0  0  0  0  0
   39.4570   23.2850   41.3810 H   0  0  0  0  0  0  0  0  0  0  0  0
   41.4530   25.1920   42.1510 S   0  0  0  0  0  0  0  0  0  0  0  0
   41.9950   25.5480   40.9080 H   0  0  0  0  0  0  0  0  0  0  0  0
   35.4750   29.3530   40.1050 C   0  0  0  0  0  0  0  0  0  0  0  0
   36.1930   30.5420   40.0780 C   0  0  0  0  0  0  0  0  0  0  0  0
   37.1390   30.7490   41.0650 C   0  0  0  0  0  0  0  0  0  0  0  0
   37.3310   29.7860   42.0190 N   0  0  0  0  0  0  0  0  0  0  0  0
   36.6150   28.6260   42.0260 C   0  0  0  0  0  0  0  0  0  0  0  0
   35.6940   28.4390   41.0540 N   0  0  0  0  0  0  0  0  0  0  0  0
   34.7110   29.1380   39.3460 H   0  0  0  0  0  0  0  0  0  0  0  0
   36.0080   31.2700   39.3090 H   0  0  0  0  0  0  0  0  0  0  0  0
   37.7190   31.6650   41.0760 H   0  0  0  0  0  0  0  0  0  0  0  0
  1  2  1  0  0  0  0
  1  3  1  0  0  0  0
  5  6  1  0  0  0  0
  5  4  1  0  0  0  0
  6  1  1  0  0  0  0
  7  6  2  0  0  0  0
  8  7  1  0  0  0  0
  9  8  2  0  0  0  0
  9 10  1  0  0  0  0
 10 14  1  0  0  0  0
 10  5  2  0  0  0  0
 11  7  1  0  0  0  0
 12  8  1  0  0  0  0
 13  9  1  0  0  0  0
 15 14  1  0  0  0  0
 16 21  1  0  0  0  0
 17 16  2  0  0  0  0
 17 18  1  0  0  0  0
 18 24  1  0  0  0  0
 18 19  2  0  0  0  0
 19 20  1  0  0  0  0
 20  1  1  0  0  0  0
 21 20  2  0  0  0  0
 22 16  1  0  0  0  0
 23 17  1  0  0  0  0
M  END
>  <minimizedAffinity>
-4.64434147

$$$$

 OpenBabel03252502543D

 24 25  0  0  0  0  0  0  0  0999 V2000
   35.6520   28.8920   40.9170 C   0  0  0  0  0  0  0  0  0  0  0  0
   35.0610   28.2260   40.2500 H   0  0  0  0  0  0  0  0  0  0  0  0
   34.8900   29.3000   41.6310 H   0  0  0  0  0  0  0  0  0  0  0  0
   36.5680   26.3010   39.3670 Br  0  0  0  0  0  0  0  0  0  0  0  0
   37.1830   26.8750   41.0990 C   0  0  0  0  0  0  0  0  0  0  0  0
   36.6440   28.0460   41.5890 C   0  0  0  0  0  0  0  0  0  0  0  0
   37.1200   28.4160   42.8410 C   0  0  0  0  0  0  0  0  0  0  0  0
   38.0470   27.7020   43.5590 C   0  0  0  0  0  0  0  0  0  0  0  0
   38.5480   26.5380   43.0140 C   0  0  0  0  0  0  0  0  0  0  0  0
   38.1220   26.1060   41.7720 C   0  0  0  0  0  0  0  0  0  0  0  0
   36.7590   29.3300   43.3230 H   0  0  0  0  0  0  0  0  0  0  0  0
   38.4030   28.0080   44.5330 H   0  0  0  0  0  0  0  0  0  0  0  0
   39.2690   25.9050   43.4800 H   0  0  0  0  0  0  0  0  0  0  0  0
   38.7100   24.6150   40.9820 S   0  0  0  0  0  0  0  0  0  0  0  0
   38.0130   23.4740   41.4050 H   0  0  0  0  0  0  0  0  0  0  0  0
   37.0640   31.0170   38.1910 C   0  0  0  0  0  0  0  0  0  0  0  0
   37.3880   32.1830   38.8740 C   0  0  0  0  0  0  0  0  0  0  0  0
   37.1260   32.2330   40.2310 C   0  0  0  0  0  0  0  0  0  0  0  0
   36.5650   31.1440   40.8430 N   0  0  0  0  0  0  0  0  0  0  0  0
   36.2560   30.0090   40.1530 C   0  0  0  0  0  0  0  0  0  0  0  0
   36.5180   29.9770   38.8280 N   0  0  0  0  0  0  0  0  0  0  0  0
   37.2500   30.9240   37.1130 H   0  0  0  0  0  0  0  0  0  0  0  0
   37.8280   33.0130   38.3510 H   0  0  0  0  0  0  0  0  0  0  0  0
   37.3660   33.1260   40.7970 H   0  0  0  0  0  0  0  0  0  0  0  0
  1  6  1  0  0  0  0
  1  3  1  0  0  0  0
  2  1  1  0  0  0  0
  4  5  1  0  0  0  0
  5  6  2  0  0  0  0
  5 10  1  0  0  0  0
  6  7  1  0  0  0  0
  7 11  1  0  0  0  0
  7  8  2  0  0  0  0
  8 12  1  0  0  0  0
  9 13  1  0  0  0  0
  9  8  1  0  0  0  0
 10  9  2  0  0  0  0
 14 15  1  0  0  0  0
 14 10  1  0  0  0  0
 16 21  2  0  0  0  0
 16 17  1  0  0  0  0
 17 18  2  0  0  0  0
 18 24  1  0  0  0  0
 18 19  1  0  0  0  0
 20 19  2  0  0  0  0
 20  1  1  0  0  0  0
 21 20  1  0  0  0  0
 22 16  1  0  0  0  0
 23 17  1  0  0  0  0
M  END
>  <minimizedAffinity>
-4.64118385

$$$$

 OpenBabel03252502543D

 24 25  0  0  0  0  0  0  0  0999 V2000
   37.5420   28.3870   43.4040 C   0  0  0  0  0  0  0  0  0  0  0  0
   37.6690   28.7070   44.4620 H   0  0  0  0  0  0  0  0  0  0  0  0
   36.4350   28.2520   43.2950 H   0  0  0  0  0  0  0  0  0  0  0  0
   35.8210   29.1330   40.8670 Br  0  0  0  0  0  0  0  0  0  0  0  0
   37.4660   29.9680   41.4180 C   0  0  0  0  0  0  0  0  0  0  0  0
   38.0520   29.4790   42.5670 C   0  0  0  0  0  0  0  0  0  0  0  0
   39.2360   30.1150   42.9220 C   0  0  0  0  0  0  0  0  0  0  0  0
   39.8040   31.1440   42.2140 C   0  0  0  0  0  0  0  0  0  0  0  0
   39.1690   31.5890   41.0730 C   0  0  0  0  0  0  0  0  0  0  0  0
   37.9870   31.0050   40.6570 C   0  0  0  0  0  0  0  0  0  0  0  0
   39.7840   29.8050   43.8170 H   0  0  0  0  0  0  0  0  0  0  0  0
   40.7270   31.6240   42.5090 H   0  0  0  0  0  0  0  0  0  0  0  0
   39.5170   32.3780   40.4470 H   0  0  0  0  0  0  0  0  0  0  0  0
   37.0900   31.5070   39.1960 S   0  0  0  0  0  0  0  0  0  0  0  0
   37.5770   30.8970   38.0310 H   0  0  0  0  0  0  0  0  0  0  0  0
   39.9800   25.5590   43.4210 C   0  0  0  0  0  0  0  0  0  0  0  0
   39.3550   24.6350   42.5930 C   0  0  0  0  0  0  0  0  0  0  0  0
   38.1310   24.9790   42.0470 C   0  0  0  0  0  0  0  0  0  0  0  0
   37.5890   26.2020   42.3400 N   0  0  0  0  0  0  0  0  0  0  0  0
   38.2210   27.0930   43.1550 C   0  0  0  0  0  0  0  0  0  0  0  0
   39.4160   26.7420   43.6800 N   0  0  0  0  0  0  0  0  0  0  0  0
   40.9520   25.3370   43.8800 H   0  0  0  0  0  0  0  0  0  0  0  0
   39.8190   23.6870   42.3910 H   0  0  0  0  0  0  0  0  0  0  0  0
   37.6140   24.2830   41.3960 H   0  0  0  0  0  0  0  0  0  0  0  0
  1  2  1  0  0  0  0
  3  1  1  0  0  0  0
  4  5  1  0  0  0  0
  5  6  1  0  0  0  0
  6  7  2  0  0  0  0
  6  1  1  0  0  0  0
  7 11  1  0  0  0  0
  8 12  1  0  0  0  0
  8  7  1  0  0  0  0
  9  8  2  0  0  0  0
 10  9  1  0  0  0  0
 10  5  2  0  0  0  0
 13  9  1  0  0  0  0
 14 10  1  0  0  0  0
 15 14  1  0  0  0  0
 16 21  1  0  0  0  0
 16 22  1  0  0  0  0
 17 16  2  0  0  0  0
 18 19  2  0  0  0  0
 18 17  1  0  0  0  0
 19 20  1  0  0  0  0
 20  1  1  0  0  0  0
 20 21  2  0  0  0  0
 23 17  1  0  0  0  0
 24 18  1  0  0  0  0
M  END
>  <minimizedAffinity>
-4.60594559

$$$$

 OpenBabel03252502543D

 24 25  0  0  0  0  0  0  0  0999 V2000
   35.5720   29.1570   40.5690 C   0  0  0  0  0  0  0  0  0  0  0  0
   34.9470   29.9780   40.9860 H   0  0  0  0  0  0  0  0  0  0  0  0
   34.8340   28.3430   40.3500 H   0  0  0  0  0  0  0  0  0  0  0  0
   35.6360   27.2190   38.0800 Br  0  0  0  0  0  0  0  0  0  0  0  0
   36.3370   29.0110   38.1520 C   0  0  0  0  0  0  0  0  0  0  0  0
   36.1990   29.6800   39.3500 C   0  0  0  0  0  0  0  0  0  0  0  0
   36.7200   30.9690   39.3500 C   0  0  0  0  0  0  0  0  0  0  0  0
   37.3270   31.5580   38.2700 C   0  0  0  0  0  0  0  0  0  0  0  0
   37.4340   30.8360   37.0990 C   0  0  0  0  0  0  0  0  0  0  0  0
   36.9390   29.5480   37.0230 C   0  0  0  0  0  0  0  0  0  0  0  0
   36.6640   31.5890   40.2510 H   0  0  0  0  0  0  0  0  0  0  0  0
   37.7270   32.5630   38.2920 H   0  0  0  0  0  0  0  0  0  0  0  0
   37.8850   31.1910   36.2000 H   0  0  0  0  0  0  0  0  0  0  0  0
   37.0290   28.5330   35.5550 S   0  0  0  0  0  0  0  0  0  0  0  0
   38.2560   27.8630   35.4420 H   0  0  0  0  0  0  0  0  0  0  0  0
   38.1040   28.9800   43.3070 C   0  0  0  0  0  0  0  0  0  0  0  0
   38.3500   27.6150   43.3840 C   0  0  0  0  0  0  0  0  0  0  0  0
   37.6630   26.7840   42.5180 C   0  0  0  0  0  0  0  0  0  0  0  0
   36.7780   27.3310   41.6280 N   0  0  0  0  0  0  0  0  0  0  0  0
   36.5520   28.6750   41.5710 C   0  0  0  0  0  0  0  0  0  0  0  0
   37.2320   29.4720   42.4240 N   0  0  0  0  0  0  0  0  0  0  0  0
   38.6220   29.6850   43.9710 H   0  0  0  0  0  0  0  0  0  0  0  0
   39.0550   27.2310   44.0980 H   0  0  0  0  0  0  0  0  0  0  0  0
   37.8290   25.7130   42.5480 H   0  0  0  0  0  0  0  0  0  0  0  0
  1  2  1  0  0  0  0
  1 20  1  0  0  0  0
  3  1  1  0  0  0  0
  4  5  1  0  0  0  0
  5  6  1  0  0  0  0
  6  7  2  0  0  0  0
  6  1  1  0  0  0  0
  7 11  1  0  0  0  0
  8 12  1  0  0  0  0
  8  7  1  0  0  0  0
  9  8  2  0  0  0  0
 10  9  1  0  0  0  0
 10  5  2  0  0  0  0
 13  9  1  0  0  0  0
 14 10  1  0  0  0  0
 15 14  1  0  0  0  0
 16 17  1  0  0  0  0
 16 22  1  0  0  0  0
 17 23  1  0  0  0  0
 18 24  1  0  0  0  0
 18 17  2  0  0  0  0
 19 18  1  0  0  0  0
 20 19  2  0  0  0  0
 20 21  1  0  0  0  0
 21 16  2  0  0  0  0
M  END
>  <minimizedAffinity>
-4.51018238

$$$$

 OpenBabel03252502543D

 24 25  0  0  0  0  0  0  0  0999 V2000
   37.1300   27.5970   42.9150 C   0  0  0  0  0  0  0  0  0  0  0  0
   37.8740   28.0120   43.6290 H   0  0  0  0  0  0  0  0  0  0  0  0
   36.2370   27.3750   43.5570 H   0  0  0  0  0  0  0  0  0  0  0  0
   39.1950   29.9790   42.7920 Br  0  0  0  0  0  0  0  0  0  0  0  0
   37.6190   29.7740   41.7040 C   0  0  0  0  0  0  0  0  0  0  0  0
   36.8560   28.6480   41.9290 C   0  0  0  0  0  0  0  0  0  0  0  0
   35.7300   28.5480   41.1200 C   0  0  0  0  0  0  0  0  0  0  0  0
   35.3770   29.4700   40.1670 C   0  0  0  0  0  0  0  0  0  0  0  0
   36.1840   30.5760   39.9890 C   0  0  0  0  0  0  0  0  0  0  0  0
   37.3200   30.7440   40.7580 C   0  0  0  0  0  0  0  0  0  0  0  0
   35.0540   27.6920   41.2150 H   0  0  0  0  0  0  0  0  0  0  0  0
   34.4970   29.3720   39.5480 H   0  0  0  0  0  0  0  0  0  0  0  0
   36.0080   31.3530   39.2820 H   0  0  0  0  0  0  0  0  0  0  0  0
   38.4260   32.1390   40.6050 S   0  0  0  0  0  0  0  0  0  0  0  0
   37.9940   33.2490   41.3440 H   0  0  0  0  0  0  0  0  0  0  0  0
   37.4040   24.0870   41.6700 C   0  0  0  0  0  0  0  0  0  0  0  0
   38.6870   24.0710   41.1370 C   0  0  0  0  0  0  0  0  0  0  0  0
   39.4320   25.2350   41.2050 C   0  0  0  0  0  0  0  0  0  0  0  0
   38.8830   26.3450   41.7890 N   0  0  0  0  0  0  0  0  0  0  0  0
   37.6220   26.3380   42.3070 C   0  0  0  0  0  0  0  0  0  0  0  0
   36.9080   25.1930   42.2320 N   0  0  0  0  0  0  0  0  0  0  0  0
   36.7700   23.1920   41.6420 H   0  0  0  0  0  0  0  0  0  0  0  0
   39.0760   23.1750   40.6880 H   0  0  0  0  0  0  0  0  0  0  0  0
   40.4360   25.2590   40.7990 H   0  0  0  0  0  0  0  0  0  0  0  0
  1  3  1  0  0  0  0
  1  2  1  0  0  0  0
  5  6  1  0  0  0  0
  5  4  1  0  0  0  0
  6  1  1  0  0  0  0
  7 11  1  0  0  0  0
  7  6  2  0  0  0  0
  8  7  1  0  0  0  0
  9  8  2  0  0  0  0
  9 10  1  0  0  0  0
 10  5  2  0  0  0  0
 12  8  1  0  0  0  0
 13  9  1  0  0  0  0
 14 10  1  0  0  0  0
 14 15  1  0  0  0  0
 16 21  1  0  0  0  0
 17 18  1  0  0  0  0
 17 16  2  0  0  0  0
 18 19  2  0  0  0  0
 19 20  1  0  0  0  0
 20  1  1  0  0  0  0
 21 20  2  0  0  0  0
 22 16  1  0  0  0  0
 23 17  1  0  0  0  0
 24 18  1  0  0  0  0
M  END
>  <minimizedAffinity>
-4.48867607

$$$$

 OpenBabel03252502543D

 24 25  0  0  0  0  0  0  0  0999 V2000
   39.2080   30.8270   41.9890 C   0  0  0  0  0  0  0  0  0  0  0  0
   38.9680   31.5530   42.7980 H   0  0  0  0  0  0  0  0  0  0  0  0
   40.3230   30.8910   41.8930 H   0  0  0  0  0  0  0  0  0  0  0  0
   41.4800   28.7520   42.6880 Br  0  0  0  0  0  0  0  0  0  0  0  0
   39.5820   28.4560   42.8180 C   0  0  0  0  0  0  0  0  0  0  0  0
   38.7670   29.5090   42.4590 C   0  0  0  0  0  0  0  0  0  0  0  0
   37.4070   29.2450   42.5710 C   0  0  0  0  0  0  0  0  0  0  0  0
   36.8830   28.0500   42.9980 C   0  0  0  0  0  0  0  0  0  0  0  0
   37.7520   27.0350   43.3430 C   0  0  0  0  0  0  0  0  0  0  0  0
   39.1190   27.2240   43.2570 C   0  0  0  0  0  0  0  0  0  0  0  0
   36.6710   30.0120   42.3110 H   0  0  0  0  0  0  0  0  0  0  0  0
   35.8210   27.8660   43.0770 H   0  0  0  0  0  0  0  0  0  0  0  0
   37.4590   26.0690   43.6860 H   0  0  0  0  0  0  0  0  0  0  0  0
   40.3230   25.9740   43.6800 S   0  0  0  0  0  0  0  0  0  0  0  0
   40.5730   25.0900   42.6200 H   0  0  0  0  0  0  0  0  0  0  0  0
   38.0220   30.9100   38.4500 C   0  0  0  0  0  0  0  0  0  0  0  0
   37.3600   32.1300   38.3970 C   0  0  0  0  0  0  0  0  0  0  0  0
   37.3250   32.8990   39.5470 C   0  0  0  0  0  0  0  0  0  0  0  0
   37.9380   32.4330   40.6790 N   0  0  0  0  0  0  0  0  0  0  0  0
   38.5810   31.2320   40.7090 C   0  0  0  0  0  0  0  0  0  0  0  0
   38.6060   30.4940   39.5770 N   0  0  0  0  0  0  0  0  0  0  0  0
   38.0790   30.2600   37.5670 H   0  0  0  0  0  0  0  0  0  0  0  0
   36.8940   32.4550   37.4840 H   0  0  0  0  0  0  0  0  0  0  0  0
   36.8190   33.8570   39.5420 H   0  0  0  0  0  0  0  0  0  0  0  0
  1  6  1  0  0  0  0
  1  2  1  0  0  0  0
  3  1  1  0  0  0  0
  4  5  1  0  0  0  0
  5 10  1  0  0  0  0
  6  7  1  0  0  0  0
  6  5  2  0  0  0  0
  7  8  2  0  0  0  0
  8 12  1  0  0  0  0
  8  9  1  0  0  0  0
  9 13  1  0  0  0  0
 10  9  2  0  0  0  0
 10 14  1  0  0  0  0
 11  7  1  0  0  0  0
 15 14  1  0  0  0  0
 16 21  1  0  0  0  0
 17 16  2  0  0  0  0
 17 18  1  0  0  0  0
 18 19  2  0  0  0  0
 19 20  1  0  0  0  0
 20  1  1  0  0  0  0
 21 20  2  0  0  0  0
 22 16  1  0  0  0  0
 23 17  1  0  0  0  0
 24 18  1  0  0  0  0
M  END
>  <minimizedAffinity>
-4.4499507

$$$$

 OpenBabel03252502543D

 24 25  0  0  0  0  0  0  0  0999 V2000
   37.0430   27.9720   42.8760 C   0  0  0  0  0  0  0  0  0  0  0  0
   36.1020   27.4710   42.5570 H   0  0  0  0  0  0  0  0  0  0  0  0
   36.8640   28.2180   43.9550 H   0  0  0  0  0  0  0  0  0  0  0  0
   36.9590   26.2410   40.2390 Br  0  0  0  0  0  0  0  0  0  0  0  0
   38.2840   26.1370   41.6330 C   0  0  0  0  0  0  0  0  0  0  0  0
   38.1230   26.9940   42.7020 C   0  0  0  0  0  0  0  0  0  0  0  0
   39.1050   26.8810   43.6800 C   0  0  0  0  0  0  0  0  0  0  0  0
   40.1580   26.0030   43.6210 C   0  0  0  0  0  0  0  0  0  0  0  0
   40.2630   25.1710   42.5240 C   0  0  0  0  0  0  0  0  0  0  0  0
   39.3240   25.2270   41.5120 C   0  0  0  0  0  0  0  0  0  0  0  0
   39.0730   27.5140   44.5720 H   0  0  0  0  0  0  0  0  0  0  0  0
   40.9100   25.9310   44.3940 H   0  0  0  0  0  0  0  0  0  0  0  0
   41.0360   24.4530   42.3730 H   0  0  0  0  0  0  0  0  0  0  0  0
   39.3710   24.1950   40.0540 S   0  0  0  0  0  0  0  0  0  0  0  0
   38.7850   22.9390   40.2670 H   0  0  0  0  0  0  0  0  0  0  0  0
   36.5690   30.9840   40.7220 C   0  0  0  0  0  0  0  0  0  0  0  0
   37.8310   31.5640   40.7560 C   0  0  0  0  0  0  0  0  0  0  0  0
   38.8120   30.9350   41.5000 C   0  0  0  0  0  0  0  0  0  0  0  0
   38.5070   29.7780   42.1650 N   0  0  0  0  0  0  0  0  0  0  0  0
   37.2610   29.2260   42.1170 C   0  0  0  0  0  0  0  0  0  0  0  0
   36.3140   29.8540   41.3860 N   0  0  0  0  0  0  0  0  0  0  0  0
   35.7530   31.4430   40.1470 H   0  0  0  0  0  0  0  0  0  0  0  0
   38.0240   32.4740   40.2170 H   0  0  0  0  0  0  0  0  0  0  0  0
   39.8090   31.3590   41.5500 H   0  0  0  0  0  0  0  0  0  0  0  0
  1  3  1  0  0  0  0
  2  1  1  0  0  0  0
  4  5  1  0  0  0  0
  5  6  1  0  0  0  0
  6  1  1  0  0  0  0
  6  7  2  0  0  0  0
  7 11  1  0  0  0  0
  8  7  1  0  0  0  0
  8 12  1  0  0  0  0
  9  8  2  0  0  0  0
 10  5  2  0  0  0  0
 10  9  1  0  0  0  0
 13  9  1  0  0  0  0
 14 15  1  0  0  0  0
 14 10  1  0  0  0  0
 16 17  2  0  0  0  0
 16 21  1  0  0  0  0
 17 18  1  0  0  0  0
 18 24  1  0  0  0  0
 18 19  2  0  0  0  0
 20 19  1  0  0  0  0
 20  1  1  0  0  0  0
 21 20  2  0  0  0  0
 22 16  1  0  0  0  0
 23 17  1  0  0  0  0
M  END
>  <minimizedAffinity>
-4.40489054

$$$$

 OpenBabel03252502543D

 24 25  0  0  0  0  0  0  0  0999 V2000
   36.7410   27.6570   42.7310 C   0  0  0  0  0  0  0  0  0  0  0  0
   36.7380   27.6570   43.8440 H   0  0  0  0  0  0  0  0  0  0  0  0
   35.6530   27.6820   42.4600 H   0  0  0  0  0  0  0  0  0  0  0  0
   35.4360   29.2880   40.3660 Br  0  0  0  0  0  0  0  0  0  0  0  0
   37.0590   29.7320   41.3030 C   0  0  0  0  0  0  0  0  0  0  0  0
   37.4460   28.8720   42.3090 C   0  0  0  0  0  0  0  0  0  0  0  0
   38.6230   29.2370   42.9530 C   0  0  0  0  0  0  0  0  0  0  0  0
   39.3630   30.3490   42.6420 C   0  0  0  0  0  0  0  0  0  0  0  0
   38.9220   31.1710   41.6240 C   0  0  0  0  0  0  0  0  0  0  0  0
   37.7600   30.8730   40.9380 C   0  0  0  0  0  0  0  0  0  0  0  0
   39.0200   28.6240   43.7680 H   0  0  0  0  0  0  0  0  0  0  0  0
   40.2760   30.6140   43.1560 H   0  0  0  0  0  0  0  0  0  0  0  0
   39.4140   32.0580   41.2980 H   0  0  0  0  0  0  0  0  0  0  0  0
   37.1070   31.8710   39.6070 S   0  0  0  0  0  0  0  0  0  0  0  0
   37.6900   31.5620   38.3700 H   0  0  0  0  0  0  0  0  0  0  0  0
   38.8520   24.6100   42.2850 C   0  0  0  0  0  0  0  0  0  0  0  0
   38.3780   24.1050   41.0800 C   0  0  0  0  0  0  0  0  0  0  0  0
   37.3620   24.7960   40.4440 C   0  0  0  0  0  0  0  0  0  0  0  0
   36.8690   25.9370   41.0180 N   0  0  0  0  0  0  0  0  0  0  0  0
   37.3490   26.4130   42.2020 C   0  0  0  0  0  0  0  0  0  0  0  0
   38.3420   25.7270   42.8100 N   0  0  0  0  0  0  0  0  0  0  0  0
   39.6570   24.1010   42.8320 H   0  0  0  0  0  0  0  0  0  0  0  0
   38.7970   23.2060   40.6680 H   0  0  0  0  0  0  0  0  0  0  0  0
   36.9680   24.4320   39.5020 H   0  0  0  0  0  0  0  0  0  0  0  0
  1  2  1  0  0  0  0
  3  1  1  0  0  0  0
  4  5  1  0  0  0  0
  5  6  1  0  0  0  0
  6  1  1  0  0  0  0
  6  7  2  0  0  0  0
  7 11  1  0  0  0  0
  8  7  1  0  0  0  0
  8 12  1  0  0  0  0
  9  8  2  0  0  0  0
 10  5  2  0  0  0  0
 10  9  1  0  0  0  0
 13  9  1  0  0  0  0
 14 10  1  0  0  0  0
 15 14  1  0  0  0  0
 16 21  1  0  0  0  0
 16 22  1  0  0  0  0
 17 16  2  0  0  0  0
 18 19  2  0  0  0  0
 18 17  1  0  0  0  0
 19 20  1  0  0  0  0
 20  1  1  0  0  0  0
 20 21  2  0  0  0  0
 23 17  1  0  0  0  0
 24 18  1  0  0  0  0
M  END
>  <minimizedAffinity>
-4.37358332

$$$$
