
 OpenBabel03242512123D

 34 36  0  0  1  0  0  0  0  0999 V2000
   47.7920   34.4660   41.1300 C   0  0  1  0  0  0  0  0  0  0  0  0
   48.5520   35.7460   41.6670 C   0  0  0  0  0  0  0  0  0  0  0  0
   48.7890   34.4390   42.2280 C   0  0  2  0  0  0  0  0  0  0  0  0
   48.1110   34.1480   40.1430 H   0  0  0  0  0  0  0  0  0  0  0  0
   47.9210   36.5240   42.1350 H   0  0  0  0  0  0  0  0  0  0  0  0
   49.2420   36.1900   40.9120 H   0  0  0  0  0  0  0  0  0  0  0  0
   48.3710   34.0760   43.1820 H   0  0  0  0  0  0  0  0  0  0  0  0
   46.3380   34.5220   41.4580 C   0  0  0  0  0  0  0  0  0  0  0  0
   45.5480   34.2930   40.5480 O   0  0  0  0  0  0  0  0  0  0  0  0
   45.2440   35.9860   43.0930 C   0  0  0  0  0  0  0  0  0  0  0  0
   45.7990   34.8160   42.7380 C   0  0  0  0  0  0  0  0  0  0  0  0
   45.8370   33.8020   43.7510 C   0  0  0  0  0  0  0  0  0  0  0  0
   45.3380   34.0330   44.9870 N   0  0  0  0  0  0  0  0  0  0  0  0
   44.7900   35.2400   45.2820 C   0  0  0  0  0  0  0  0  0  0  0  0
   44.7490   36.1770   44.3600 N   0  0  0  0  0  0  0  0  0  0  0  0
   45.1960   36.7840   42.3470 H   0  0  0  0  0  0  0  0  0  0  0  0
   46.2380   32.8190   43.6210 H   0  0  0  0  0  0  0  0  0  0  0  0
   44.3780   35.4750   46.2540 H   0  0  0  0  0  0  0  0  0  0  0  0
   50.0460   33.9250   41.9680 O   0  0  0  0  0  0  0  0  0  0  0  0
   48.9210   32.0410   43.3290 O   0  0  0  0  0  0  0  0  0  0  0  0
   49.9980   32.2650   42.2770 P   0  0  2  0  0  0  0  0  0  0  0  0
   51.4390   31.5800   42.7080 O   0  0  0  0  0  0  0  0  0  0  0  0
   51.3550   30.6180   42.6160 H   0  0  0  0  0  0  0  0  0  0  0  0
   49.3430   31.5050   40.8560 O   0  0  0  0  0  0  0  0  0  0  0  0
   49.8950   31.6140   39.6010 C   0  0  0  0  0  0  0  0  0  0  0  0
   49.2730   31.9020   38.4040 C   0  0  0  0  0  0  0  0  0  0  0  0
   50.0150   31.9680   37.2310 C   0  0  0  0  0  0  0  0  0  0  0  0
   51.3640   31.7450   37.2800 N   0  0  0  0  0  0  0  0  0  0  0  0
   51.9470   31.4660   38.4660 C   0  0  0  0  0  0  0  0  0  0  0  0
   51.2410   31.3970   39.6190 N   0  0  0  0  0  0  0  0  0  0  0  0
   48.2180   32.0590   38.4790 H   0  0  0  0  0  0  0  0  0  0  0  0
   49.4820   32.1990   36.3040 H   0  0  0  0  0  0  0  0  0  0  0  0
   53.7270   31.1850   38.4460 S   0  0  0  0  0  0  0  0  0  0  0  0
   54.0420   30.1980   37.4680 H   0  0  0  0  0  0  0  0  0  0  0  0
  1  4  1  6  0  0  0
  1  8  1  0  0  0  0
  1  2  1  0  0  0  0
  1  3  1  0  0  0  0
  2  5  1  0  0  0  0
  2  3  1  0  0  0  0
  3  7  1  1  0  0  0
  6  2  1  0  0  0  0
  8 11  1  0  0  0  0
  9  8  2  0  0  0  0
 10 15  1  0  0  0  0
 11 10  2  0  0  0  0
 11 12  1  0  0  0  0
 12 13  2  0  0  0  0
 13 14  1  0  0  0  0
 14 18  1  0  0  0  0
 15 14  2  0  0  0  0
 16 10  1  0  0  0  0
 17 12  1  0  0  0  0
 19  3  1  0  0  0  0
 19 21  1  0  0  0  0
 21 22  1  0  0  0  0
 21 20  2  1  0  0  0
 23 22  1  0  0  0  0
 24 21  1  0  0  0  0
 25 30  1  0  0  0  0
 25 24  1  0  0  0  0
 26 31  1  0  0  0  0
 26 25  2  0  0  0  0
 27 28  2  0  0  0  0
 27 26  1  0  0  0  0
 28 29  1  0  0  0  0
 29 30  2  0  0  0  0
 32 27  1  0  0  0  0
 33 29  1  0  0  0  0
 34 33  1  0  0  0  0
M  END
>  <minimizedAffinity>
-5.0306778

>  <minimizedRMSD>
0.777782798

$$$$
