
 OpenBabel03242510323D

 36 35  0  0  1  0  0  0  0  0999 V2000
   44.6770   33.1700   41.6140 C   0  0  1  0  0  0  0  0  0  0  0  0
   44.0880   34.1390   40.5250 C   0  0  0  0  0  0  0  0  0  0  0  0
   43.8630   33.3650   39.2820 C   0  0  0  0  0  0  0  0  0  0  0  0
   45.2730   33.1010   38.7430 C   0  0  0  0  0  0  0  0  0  0  0  0
   45.9400   32.3100   39.7430 C   0  0  0  0  0  0  0  0  0  0  0  0
   45.9640   32.7770   41.2640 C   0  0  1  0  0  0  0  0  0  0  0  0
   43.9660   32.3470   41.7250 H   0  0  0  0  0  0  0  0  0  0  0  0
   43.0940   34.4780   40.9240 H   0  0  0  0  0  0  0  0  0  0  0  0
   44.8160   34.9350   40.3920 H   0  0  0  0  0  0  0  0  0  0  0  0
   43.3180   34.0000   38.5660 H   0  0  0  0  0  0  0  0  0  0  0  0
   43.3840   32.3840   39.4440 H   0  0  0  0  0  0  0  0  0  0  0  0
   45.1240   32.4640   37.8770 H   0  0  0  0  0  0  0  0  0  0  0  0
   45.7710   34.0590   38.5560 H   0  0  0  0  0  0  0  0  0  0  0  0
   46.8070   31.9160   39.3460 H   0  0  0  0  0  0  0  0  0  0  0  0
   45.2420   31.3990   39.8980 H   0  0  0  0  0  0  0  0  0  0  0  0
   46.3900   31.8940   41.7280 H   0  0  0  0  0  0  0  0  0  0  0  0
   44.5400   35.9370   44.2970 C   0  0  0  0  0  0  0  0  0  0  0  0
   44.4050   35.3440   43.0900 C   0  0  0  0  0  0  0  0  0  0  0  0
   44.7350   33.9820   42.8750 C   0  0  0  0  0  0  0  0  0  0  0  0
   45.1800   33.3320   43.9310 N   0  0  0  0  0  0  0  0  0  0  0  0
   45.3150   33.9100   45.1240 C   0  0  0  0  0  0  0  0  0  0  0  0
   44.9920   35.2310   45.3180 N   0  0  0  0  0  0  0  0  0  0  0  0
   44.2570   36.9700   44.3240 H   0  0  0  0  0  0  0  0  0  0  0  0
   44.0490   35.8270   42.1930 H   0  0  0  0  0  0  0  0  0  0  0  0
   45.6820   33.3640   45.9840 H   0  0  0  0  0  0  0  0  0  0  0  0
   46.8830   33.8650   41.2140 O   0  0  0  0  0  0  0  0  0  0  0  0
   48.0480   33.3200   41.9370 C   0  0  1  0  0  0  0  0  0  0  0  0
   47.4020   32.7190   42.3850 H   0  0  0  0  0  0  0  0  0  0  0  0
   48.9810   31.9600   41.1550 S   0  0  0  0  0  0  0  0  0  0  0  0
   50.3150   31.8860   41.4750 H   0  0  0  0  0  0  0  0  0  0  0  0
   48.9190   34.2740   41.4150 O   0  0  0  0  0  0  0  0  0  0  0  0
   49.4340   35.3640   41.9730 C   0  0  0  0  0  3  0  0  0  0  0  0
   49.2970   36.4950   41.6040 O   0  0  0  0  0  0  0  0  0  0  0  0
   50.1850   35.0950   43.0900 N   0  0  0  0  0  1  0  0  0  0  0  0
   51.0180   35.1030   43.7290 H   0  0  0  0  0 15  0  0  0  0  0  0
   51.1540   35.4930   43.0760 H   0  0  0  0  0  0  0  0  0  0  0  0
  1  7  1  1  0  0  0
  1 19  1  0  0  0  0
  2  8  1  0  0  0  0
  2  1  1  0  0  0  0
  3 11  1  0  0  0  0
  3  2  1  0  0  0  0
  4  3  1  0  0  0  0
  4  5  1  0  0  0  0
  5 15  1  0  0  0  0
  5  6  1  0  0  0  0
  6  1  1  0  0  0  0
  6 16  1  1  0  0  0
  9  2  1  0  0  0  0
 10  3  1  0  0  0  0
 12  4  1  0  0  0  0
 13  4  1  0  0  0  0
 14  5  1  0  0  0  0
 17 23  1  0  0  0  0
 17 22  1  0  0  0  0
 18 17  2  0  0  0  0
 19 18  1  0  0  0  0
 19 20  2  0  0  0  0
 20 21  1  0  0  0  0
 21 22  2  0  0  0  0
 21 25  1  0  0  0  0
 24 18  1  0  0  0  0
 26  6  1  0  0  0  0
 26 27  1  0  0  0  0
 27 28  1  1  0  0  0
 29 30  1  0  0  0  0
 29 27  1  0  0  0  0
 31 27  1  0  0  0  0
 31 32  1  0  0  0  0
 33 32  2  0  0  0  0
 36 34  1  0  0  0  0
M  END
>  <minimizedAffinity>
-4.75370073

>  <minimizedRMSD>
0.254405439

$$$$
