
 OpenBabel03242510333D

 36 35  0  0  1  0  0  0  0  0999 V2000
   36.4860   28.2230   41.7820 C   0  0  1  0  0  0  0  0  0  0  0  0
   37.3710   26.9240   41.8230 C   0  0  0  0  0  0  0  0  0  0  0  0
   37.8440   26.7240   43.2120 C   0  0  0  0  0  0  0  0  0  0  0  0
   38.8880   27.8270   43.4160 C   0  0  0  0  0  0  0  0  0  0  0  0
   38.1850   29.0720   43.2730 C   0  0  0  0  0  0  0  0  0  0  0  0
   37.2710   29.3480   41.9990 C   0  0  1  0  0  0  0  0  0  0  0  0
   35.6820   28.0830   42.5100 H   0  0  0  0  0  0  0  0  0  0  0  0
   36.6840   26.0770   41.5500 H   0  0  0  0  0  0  0  0  0  0  0  0
   38.1880   27.0830   41.1240 H   0  0  0  0  0  0  0  0  0  0  0  0
   38.3410   25.7430   43.2760 H   0  0  0  0  0  0  0  0  0  0  0  0
   37.0630   26.8650   43.9780 H   0  0  0  0  0  0  0  0  0  0  0  0
   39.1820   27.7410   44.4570 H   0  0  0  0  0  0  0  0  0  0  0  0
   39.6890   27.7030   42.6780 H   0  0  0  0  0  0  0  0  0  0  0  0
   38.7780   29.8440   43.6160 H   0  0  0  0  0  0  0  0  0  0  0  0
   37.3200   29.0010   44.0390 H   0  0  0  0  0  0  0  0  0  0  0  0
   36.7940   30.2740   42.3030 H   0  0  0  0  0  0  0  0  0  0  0  0
   34.6090   29.1050   38.5300 C   0  0  0  0  0  0  0  0  0  0  0  0
   35.0450   29.2200   39.8050 C   0  0  0  0  0  0  0  0  0  0  0  0
   35.9240   28.2740   40.3900 C   0  0  0  0  0  0  0  0  0  0  0  0
   36.2880   27.2780   39.6100 N   0  0  0  0  0  0  0  0  0  0  0  0
   35.8620   27.1600   38.3530 C   0  0  0  0  0  0  0  0  0  0  0  0
   35.0100   28.0830   37.7970 N   0  0  0  0  0  0  0  0  0  0  0  0
   33.9480   29.8870   38.2100 H   0  0  0  0  0  0  0  0  0  0  0  0
   34.7770   30.0120   40.4880 H   0  0  0  0  0  0  0  0  0  0  0  0
   36.1700   26.3350   37.7210 H   0  0  0  0  0  0  0  0  0  0  0  0
   38.2510   29.5470   40.9840 O   0  0  0  0  0  0  0  0  0  0  0  0
   38.5800   30.9760   41.1460 C   0  0  1  0  0  0  0  0  0  0  0  0
   38.6630   30.7770   42.1120 H   0  0  0  0  0  0  0  0  0  0  0  0
   40.3260   31.4780   40.9600 S   0  0  0  0  0  0  0  0  0  0  0  0
   40.8930   31.2320   39.7330 H   0  0  0  0  0  0  0  0  0  0  0  0
   38.3090   31.2730   39.8120 O   0  0  0  0  0  0  0  0  0  0  0  0
   37.4660   32.1510   39.2810 C   0  0  0  0  0  3  0  0  0  0  0  0
   37.2310   32.3120   38.1180 O   0  0  0  0  0  0  0  0  0  0  0  0
   36.8230   32.9180   40.2220 N   0  0  0  0  0  1  0  0  0  0  0  0
   36.4830   33.7870   40.7030 H   0  0  0  0  0 15  0  0  0  0  0  0
   36.8970   33.9520   40.0720 H   0  0  0  0  0  0  0  0  0  0  0  0
  1  2  1  0  0  0  0
  1  6  1  0  0  0  0
  1  7  1  1  0  0  0
  2  3  1  0  0  0  0
  3 10  1  0  0  0  0
  3  4  1  0  0  0  0
  3 11  1  0  0  0  0
  4 12  1  0  0  0  0
  5  4  1  0  0  0  0
  5 14  1  0  0  0  0
  5 15  1  0  0  0  0
  6 16  1  1  0  0  0
  6  5  1  0  0  0  0
  8  2  1  0  0  0  0
  9  2  1  0  0  0  0
 13  4  1  0  0  0  0
 17 18  1  0  0  0  0
 18 19  2  0  0  0  0
 18 24  1  0  0  0  0
 19  1  1  0  0  0  0
 20 19  1  0  0  0  0
 21 20  2  0  0  0  0
 22 21  1  0  0  0  0
 22 17  2  0  0  0  0
 23 17  1  0  0  0  0
 25 21  1  0  0  0  0
 26 27  1  0  0  0  0
 26  6  1  0  0  0  0
 27 28  1  1  0  0  0
 29 27  1  0  0  0  0
 30 29  1  0  0  0  0
 31 27  1  0  0  0  0
 32 31  1  0  0  0  0
 33 32  2  0  0  0  0
 36 34  1  0  0  0  0
M  END
>  <minimizedAffinity>
-4.80383253

$$$$

 OpenBabel03242510333D

 36 35  0  0  1  0  0  0  0  0999 V2000
   37.8490   26.0830   40.7900 C   0  0  1  0  0  0  0  0  0  0  0  0
   36.9840   25.0480   41.5980 C   0  0  0  0  0  0  0  0  0  0  0  0
   36.9230   23.7850   40.8250 C   0  0  0  0  0  0  0  0  0  0  0  0
   36.0050   24.1130   39.6420 C   0  0  0  0  0  0  0  0  0  0  0  0
   36.6660   25.1530   38.9010 C   0  0  0  0  0  0  0  0  0  0  0  0
   37.1830   26.4690   39.6330 C   0  0  1  0  0  0  0  0  0  0  0  0
   38.8240   25.6180   40.6200 H   0  0  0  0  0  0  0  0  0  0  0  0
   37.5460   24.8590   42.5530 H   0  0  0  0  0  0  0  0  0  0  0  0
   36.0060   25.5000   41.7330 H   0  0  0  0  0  0  0  0  0  0  0  0
   36.4440   23.0140   41.4480 H   0  0  0  0  0  0  0  0  0  0  0  0
   37.8940   23.4660   40.4090 H   0  0  0  0  0  0  0  0  0  0  0  0
   36.0190   23.2210   39.0250 H   0  0  0  0  0  0  0  0  0  0  0  0
   35.0250   24.4200   40.0240 H   0  0  0  0  0  0  0  0  0  0  0  0
   36.2120   25.2620   37.9810 H   0  0  0  0  0  0  0  0  0  0  0  0
   37.7120   24.7160   38.6670 H   0  0  0  0  0  0  0  0  0  0  0  0
   37.7480   26.9260   38.8280 H   0  0  0  0  0  0  0  0  0  0  0  0
   37.5650   28.6970   43.6130 C   0  0  0  0  0  0  0  0  0  0  0  0
   37.3400   27.5550   42.9250 C   0  0  0  0  0  0  0  0  0  0  0  0
   37.9910   27.2710   41.6980 C   0  0  0  0  0  0  0  0  0  0  0  0
   38.8290   28.1940   41.2730 N   0  0  0  0  0  0  0  0  0  0  0  0
   39.0550   29.3220   41.9460 C   0  0  0  0  0  0  0  0  0  0  0  0
   38.4180   29.5840   43.1340 N   0  0  0  0  0  0  0  0  0  0  0  0
   37.0090   28.7880   44.5250 H   0  0  0  0  0  0  0  0  0  0  0  0
   36.6650   26.7670   43.2240 H   0  0  0  0  0  0  0  0  0  0  0  0
   39.7470   30.0730   41.5860 H   0  0  0  0  0  0  0  0  0  0  0  0
   35.9590   27.1490   39.8960 O   0  0  0  0  0  0  0  0  0  0  0  0
   36.0060   28.2590   38.9260 C   0  0  1  0  0  0  0  0  0  0  0  0
   36.3940   27.6010   38.2970 H   0  0  0  0  0  0  0  0  0  0  0  0
   34.5230   28.5650   37.9060 S   0  0  0  0  0  0  0  0  0  0  0  0
   33.3780   28.8870   38.5930 H   0  0  0  0  0  0  0  0  0  0  0  0
   35.6050   29.2050   39.8660 O   0  0  0  0  0  0  0  0  0  0  0  0
   36.0840   30.4170   40.1230 C   0  0  0  0  0  3  0  0  0  0  0  0
   36.7280   31.1090   39.3860 O   0  0  0  0  0  0  0  0  0  0  0  0
   35.7660   30.8670   41.3810 N   0  0  0  0  0  1  0  0  0  0  0  0
   35.9190   31.2580   42.3430 H   0  0  0  0  0 15  0  0  0  0  0  0
   36.5820   31.1860   41.9550 H   0  0  0  0  0  0  0  0  0  0  0  0
  1  7  1  6  0  0  0
  1  2  1  0  0  0  0
  1 19  1  0  0  0  0
  2  9  1  0  0  0  0
  2  8  1  0  0  0  0
  3 10  1  0  0  0  0
  3  2  1  0  0  0  0
  4 13  1  0  0  0  0
  4  3  1  0  0  0  0
  5  6  1  0  0  0  0
  5  4  1  0  0  0  0
  6 16  1  6  0  0  0
  6 26  1  0  0  0  0
  6  1  1  0  0  0  0
 11  3  1  0  0  0  0
 12  4  1  0  0  0  0
 14  5  1  0  0  0  0
 15  5  1  0  0  0  0
 17 23  1  0  0  0  0
 18 24  1  0  0  0  0
 18 17  2  0  0  0  0
 19 18  1  0  0  0  0
 20 19  2  0  0  0  0
 20 21  1  0  0  0  0
 21 22  2  0  0  0  0
 22 17  1  0  0  0  0
 25 21  1  0  0  0  0
 27 28  1  6  0  0  0
 27 31  1  0  0  0  0
 27 26  1  0  0  0  0
 29 30  1  0  0  0  0
 29 27  1  0  0  0  0
 31 32  1  0  0  0  0
 33 32  2  0  0  0  0
 34 36  1  0  0  0  0
M  END
>  <minimizedAffinity>
-4.70845842

$$$$

 OpenBabel03242510333D

 36 35  0  0  1  0  0  0  0  0999 V2000
   36.4740   28.3210   41.2460 C   0  0  1  0  0  0  0  0  0  0  0  0
   37.1240   26.9150   41.5210 C   0  0  0  0  0  0  0  0  0  0  0  0
   36.9820   26.6090   42.9630 C   0  0  0  0  0  0  0  0  0  0  0  0
   37.9720   27.5570   43.6480 C   0  0  0  0  0  0  0  0  0  0  0  0
   37.5230   28.8890   43.3460 C   0  0  0  0  0  0  0  0  0  0  0  0
   37.2270   29.3250   41.8440 C   0  0  1  0  0  0  0  0  0  0  0  0
   35.4380   28.2650   41.5880 H   0  0  0  0  0  0  0  0  0  0  0  0
   36.5140   26.1770   40.9330 H   0  0  0  0  0  0  0  0  0  0  0  0
   38.1630   26.9880   41.2120 H   0  0  0  0  0  0  0  0  0  0  0  0
   37.3030   25.5700   43.1350 H   0  0  0  0  0  0  0  0  0  0  0  0
   35.9810   26.8280   43.3730 H   0  0  0  0  0  0  0  0  0  0  0  0
   37.8180   27.4000   44.7110 H   0  0  0  0  0  0  0  0  0  0  0  0
   38.9820   27.3530   43.2730 H   0  0  0  0  0  0  0  0  0  0  0  0
   38.0120   29.5630   43.9550 H   0  0  0  0  0  0  0  0  0  0  0  0
   36.4230   28.9070   43.7050 H   0  0  0  0  0  0  0  0  0  0  0  0
   36.7710   30.2950   42.0130 H   0  0  0  0  0  0  0  0  0  0  0  0
   36.9920   27.9260   37.4440 C   0  0  0  0  0  0  0  0  0  0  0  0
   36.9980   27.6040   38.7570 C   0  0  0  0  0  0  0  0  0  0  0  0
   36.5210   28.4920   39.7540 C   0  0  0  0  0  0  0  0  0  0  0  0
   36.0700   29.6490   39.3160 N   0  0  0  0  0  0  0  0  0  0  0  0
   36.0620   29.9720   38.0230 C   0  0  0  0  0  0  0  0  0  0  0  0
   36.5270   29.1030   37.0670 N   0  0  0  0  0  0  0  0  0  0  0  0
   37.3800   27.1660   36.7940 H   0  0  0  0  0  0  0  0  0  0  0  0
   37.3560   26.6740   39.1710 H   0  0  0  0  0  0  0  0  0  0  0  0
   35.6880   30.9280   37.6770 H   0  0  0  0  0  0  0  0  0  0  0  0
   38.5440   29.4260   41.3110 O   0  0  0  0  0  0  0  0  0  0  0  0
   38.9770   30.7480   41.8010 C   0  0  1  0  0  0  0  0  0  0  0  0
   39.0070   30.3290   42.6970 H   0  0  0  0  0  0  0  0  0  0  0  0
   40.7620   31.1290   41.7680 S   0  0  0  0  0  0  0  0  0  0  0  0
   41.3550   31.1200   40.5280 H   0  0  0  0  0  0  0  0  0  0  0  0
   38.7810   31.3600   40.5650 O   0  0  0  0  0  0  0  0  0  0  0  0
   38.2410   32.5360   40.2640 C   0  0  0  0  0  3  0  0  0  0  0  0
   38.8140   33.5120   39.8710 O   0  0  0  0  0  0  0  0  0  0  0  0
   36.8800   32.5650   40.4390 N   0  0  0  0  0  1  0  0  0  0  0  0
   35.9500   32.9040   40.7900 H   0  0  0  0  0 15  0  0  0  0  0  0
   36.5300   33.3460   41.0440 H   0  0  0  0  0  0  0  0  0  0  0  0
  1  2  1  0  0  0  0
  1  7  1  1  0  0  0
  1  6  1  0  0  0  0
  2  3  1  0  0  0  0
  3 10  1  0  0  0  0
  3 11  1  0  0  0  0
  3  4  1  0  0  0  0
  4 12  1  0  0  0  0
  5  4  1  0  0  0  0
  5 15  1  0  0  0  0
  5 14  1  0  0  0  0
  6 16  1  6  0  0  0
  6  5  1  0  0  0  0
  8  2  1  0  0  0  0
  9  2  1  0  0  0  0
 13  4  1  0  0  0  0
 17 18  1  0  0  0  0
 18 24  1  0  0  0  0
 18 19  2  0  0  0  0
 19  1  1  0  0  0  0
 20 19  1  0  0  0  0
 21 20  2  0  0  0  0
 22 17  2  0  0  0  0
 22 21  1  0  0  0  0
 23 17  1  0  0  0  0
 25 21  1  0  0  0  0
 26 27  1  0  0  0  0
 26  6  1  0  0  0  0
 27 28  1  1  0  0  0
 29 27  1  0  0  0  0
 30 29  1  0  0  0  0
 31 27  1  0  0  0  0
 32 31  1  0  0  0  0
 33 32  2  0  0  0  0
 34 36  1  0  0  0  0
M  END
>  <minimizedAffinity>
-4.60763645

$$$$

 OpenBabel03242510333D

 36 35  0  0  1  0  0  0  0  0999 V2000
   38.9600   28.6470   41.6280 C   0  0  1  0  0  0  0  0  0  0  0  0
   38.4420   29.0170   43.0660 C   0  0  0  0  0  0  0  0  0  0  0  0
   37.8550   27.8030   43.6790 C   0  0  0  0  0  0  0  0  0  0  0  0
   36.5450   27.5910   42.9130 C   0  0  0  0  0  0  0  0  0  0  0  0
   36.9170   27.3630   41.5430 C   0  0  0  0  0  0  0  0  0  0  0  0
   37.8890   28.3710   40.7870 C   0  0  1  0  0  0  0  0  0  0  0  0
   39.6680   27.8230   41.7480 H   0  0  0  0  0  0  0  0  0  0  0  0
   39.3540   29.3120   43.6530 H   0  0  0  0  0  0  0  0  0  0  0  0
   37.7120   29.8120   42.9380 H   0  0  0  0  0  0  0  0  0  0  0  0
   37.6240   28.0180   44.7340 H   0  0  0  0  0  0  0  0  0  0  0  0
   38.4650   26.8930   43.5450 H   0  0  0  0  0  0  0  0  0  0  0  0
   36.1460   26.6580   43.2970 H   0  0  0  0  0  0  0  0  0  0  0  0
   35.9090   28.4750   43.0400 H   0  0  0  0  0  0  0  0  0  0  0  0
   36.1040   26.9970   41.0230 H   0  0  0  0  0  0  0  0  0  0  0  0
   37.6610   26.4780   41.5930 H   0  0  0  0  0  0  0  0  0  0  0  0
   38.0680   27.8140   39.8730 H   0  0  0  0  0  0  0  0  0  0  0  0
   40.4530   32.1710   41.1460 C   0  0  0  0  0  0  0  0  0  0  0  0
   39.7940   31.1520   41.7420 C   0  0  0  0  0  0  0  0  0  0  0  0
   39.6700   29.8760   41.1360 C   0  0  0  0  0  0  0  0  0  0  0  0
   40.2420   29.7490   39.9570 N   0  0  0  0  0  0  0  0  0  0  0  0
   40.8930   30.7490   39.3650 C   0  0  0  0  0  0  0  0  0  0  0  0
   41.0060   31.9810   39.9620 N   0  0  0  0  0  0  0  0  0  0  0  0
   40.4730   33.0820   41.7100 H   0  0  0  0  0  0  0  0  0  0  0  0
   39.3060   31.2000   42.7040 H   0  0  0  0  0  0  0  0  0  0  0  0
   41.3590   30.6310   38.3940 H   0  0  0  0  0  0  0  0  0  0  0  0
   37.0360   29.4940   40.5850 O   0  0  0  0  0  0  0  0  0  0  0  0
   36.7070   29.3800   39.1510 C   0  0  1  0  0  0  0  0  0  0  0  0
   37.0720   28.4620   39.2110 H   0  0  0  0  0  0  0  0  0  0  0  0
   35.0260   28.8300   38.7010 S   0  0  0  0  0  0  0  0  0  0  0  0
   33.9970   29.6350   39.1260 H   0  0  0  0  0  0  0  0  0  0  0  0
   36.3420   30.7200   39.0460 O   0  0  0  0  0  0  0  0  0  0  0  0
   37.0620   31.8230   39.2200 C   0  0  0  0  0  3  0  0  0  0  0  0
   37.8750   32.2790   38.4680 O   0  0  0  0  0  0  0  0  0  0  0  0
   36.7910   32.4620   40.4050 N   0  0  0  0  0  1  0  0  0  0  0  0
   36.9800   32.9120   41.3340 H   0  0  0  0  0 15  0  0  0  0  0  0
   37.6300   32.6600   41.0010 H   0  0  0  0  0  0  0  0  0  0  0  0
  1  7  1  1  0  0  0
  1  2  1  0  0  0  0
  2  8  1  0  0  0  0
  2  3  1  0  0  0  0
  3 10  1  0  0  0  0
  4 13  1  0  0  0  0
  4 12  1  0  0  0  0
  4  3  1  0  0  0  0
  5 15  1  0  0  0  0
  5  4  1  0  0  0  0
  6 16  1  6  0  0  0
  6  5  1  0  0  0  0
  6  1  1  0  0  0  0
  9  2  1  0  0  0  0
 11  3  1  0  0  0  0
 14  5  1  0  0  0  0
 17 23  1  0  0  0  0
 17 18  1  0  0  0  0
 18 24  1  0  0  0  0
 19  1  1  0  0  0  0
 19 18  2  0  0  0  0
 20 19  1  0  0  0  0
 21 20  2  0  0  0  0
 21 22  1  0  0  0  0
 22 17  2  0  0  0  0
 25 21  1  0  0  0  0
 26  6  1  0  0  0  0
 27 28  1  6  0  0  0
 27 26  1  0  0  0  0
 29 30  1  0  0  0  0
 29 27  1  0  0  0  0
 31 27  1  0  0  0  0
 31 32  1  0  0  0  0
 33 32  2  0  0  0  0
 34 36  1  0  0  0  0
M  END
>  <minimizedAffinity>
-4.54659033

$$$$

 OpenBabel03242510333D

 36 35  0  0  1  0  0  0  0  0999 V2000
   36.6530   31.1550   39.6740 C   0  0  1  0  0  0  0  0  0  0  0  0
   36.7810   30.2050   38.4280 C   0  0  0  0  0  0  0  0  0  0  0  0
   35.5080   29.4640   38.2710 C   0  0  0  0  0  0  0  0  0  0  0  0
   35.5090   28.4660   39.4330 C   0  0  0  0  0  0  0  0  0  0  0  0
   35.5150   29.2540   40.6360 C   0  0  0  0  0  0  0  0  0  0  0  0
   36.5910   30.4080   40.8450 C   0  0  1  0  0  0  0  0  0  0  0  0
   35.7850   31.7950   39.4980 H   0  0  0  0  0  0  0  0  0  0  0  0
   36.9160   30.8820   37.5410 H   0  0  0  0  0  0  0  0  0  0  0  0
   37.6230   29.5470   38.6250 H   0  0  0  0  0  0  0  0  0  0  0  0
   35.5390   28.9090   37.3210 H   0  0  0  0  0  0  0  0  0  0  0  0
   34.6070   30.0920   38.3780 H   0  0  0  0  0  0  0  0  0  0  0  0
   34.5430   27.9730   39.3770 H   0  0  0  0  0  0  0  0  0  0  0  0
   36.3870   27.8150   39.3470 H   0  0  0  0  0  0  0  0  0  0  0  0
   35.2940   28.6510   41.4430 H   0  0  0  0  0  0  0  0  0  0  0  0
   34.5980   29.9510   40.5250 H   0  0  0  0  0  0  0  0  0  0  0  0
   36.2020   30.8710   41.7460 H   0  0  0  0  0  0  0  0  0  0  0  0
   40.1790   32.6080   39.0950 C   0  0  0  0  0  0  0  0  0  0  0  0
   39.1170   31.7820   38.9570 C   0  0  0  0  0  0  0  0  0  0  0  0
   37.9110   31.9740   39.6780 C   0  0  0  0  0  0  0  0  0  0  0  0
   37.8940   33.0110   40.4890 N   0  0  0  0  0  0  0  0  0  0  0  0
   38.9370   33.8290   40.6300 C   0  0  0  0  0  0  0  0  0  0  0  0
   40.1000   33.6310   39.9260 N   0  0  0  0  0  0  0  0  0  0  0  0
   41.0280   32.3510   38.4930 H   0  0  0  0  0  0  0  0  0  0  0  0
   39.0770   30.9190   38.3100 H   0  0  0  0  0  0  0  0  0  0  0  0
   38.9090   34.6780   41.3010 H   0  0  0  0  0  0  0  0  0  0  0  0
   37.7760   29.6540   41.0860 O   0  0  0  0  0  0  0  0  0  0  0  0
   37.7950   29.5680   42.5590 C   0  0  1  0  0  0  0  0  0  0  0  0
   36.8280   29.7730   42.5140 H   0  0  0  0  0  0  0  0  0  0  0  0
   37.5520   27.9290   43.3240 S   0  0  0  0  0  0  0  0  0  0  0  0
   38.4900   26.9750   43.0100 H   0  0  0  0  0  0  0  0  0  0  0  0
   39.1800   29.4350   42.6140 O   0  0  0  0  0  0  0  0  0  0  0  0
   40.1390   30.2450   42.1780 C   0  0  0  0  0  3  0  0  0  0  0  0
   41.0600   29.9550   41.4700 O   0  0  0  0  0  0  0  0  0  0  0  0
   39.9940   31.5380   42.6190 N   0  0  0  0  0  1  0  0  0  0  0  0
   40.2580   32.4480   43.0690 H   0  0  0  0  0 15  0  0  0  0  0  0
   40.8370   31.9380   43.0950 H   0  0  0  0  0  0  0  0  0  0  0  0
  1  7  1  6  0  0  0
  1 19  1  0  0  0  0
  1  6  1  0  0  0  0
  2  9  1  0  0  0  0
  2  1  1  0  0  0  0
  3 11  1  0  0  0  0
  3  2  1  0  0  0  0
  3  4  1  0  0  0  0
  4  5  1  0  0  0  0
  5  6  1  0  0  0  0
  5 14  1  0  0  0  0
  6 26  1  0  0  0  0
  6 16  1  1  0  0  0
  8  2  1  0  0  0  0
 10  3  1  0  0  0  0
 12  4  1  0  0  0  0
 13  4  1  0  0  0  0
 15  5  1  0  0  0  0
 17 22  1  0  0  0  0
 18 17  2  0  0  0  0
 18 19  1  0  0  0  0
 19 20  2  0  0  0  0
 20 21  1  0  0  0  0
 21 25  1  0  0  0  0
 22 21  2  0  0  0  0
 23 17  1  0  0  0  0
 24 18  1  0  0  0  0
 26 27  1  0  0  0  0
 27 28  1  1  0  0  0
 27 31  1  0  0  0  0
 27 29  1  0  0  0  0
 30 29  1  0  0  0  0
 32 31  1  0  0  0  0
 33 32  2  0  0  0  0
 34 36  1  0  0  0  0
M  END
>  <minimizedAffinity>
-4.53337049

$$$$

 OpenBabel03242510333D

 36 35  0  0  1  0  0  0  0  0999 V2000
   37.2970   28.8630   42.2840 C   0  0  1  0  0  0  0  0  0  0  0  0
   37.6530   30.1860   41.5120 C   0  0  0  0  0  0  0  0  0  0  0  0
   36.3920   30.8950   41.1930 C   0  0  0  0  0  0  0  0  0  0  0  0
   35.7510   30.0450   40.0900 C   0  0  0  0  0  0  0  0  0  0  0  0
   35.4970   28.7570   40.6770 C   0  0  0  0  0  0  0  0  0  0  0  0
   36.6530   27.9690   41.4370 C   0  0  1  0  0  0  0  0  0  0  0  0
   36.7160   29.1550   43.1630 H   0  0  0  0  0  0  0  0  0  0  0  0
   38.2450   30.8110   42.2330 H   0  0  0  0  0  0  0  0  0  0  0  0
   38.1980   29.8870   40.6210 H   0  0  0  0  0  0  0  0  0  0  0  0
   36.6400   31.8870   40.7830 H   0  0  0  0  0  0  0  0  0  0  0  0
   35.6760   30.9390   42.0320 H   0  0  0  0  0  0  0  0  0  0  0  0
   34.7870   30.5100   39.9060 H   0  0  0  0  0  0  0  0  0  0  0  0
   36.4330   29.9960   39.2330 H   0  0  0  0  0  0  0  0  0  0  0  0
   34.8710   28.2160   40.0600 H   0  0  0  0  0  0  0  0  0  0  0  0
   34.8610   28.9910   41.6150 H   0  0  0  0  0  0  0  0  0  0  0  0
   36.0780   27.1560   41.8680 H   0  0  0  0  0  0  0  0  0  0  0  0
   40.1590   26.6820   43.6730 C   0  0  0  0  0  0  0  0  0  0  0  0
   38.9010   27.0470   43.3370 C   0  0  0  0  0  0  0  0  0  0  0  0
   38.6170   28.2830   42.7020 C   0  0  0  0  0  0  0  0  0  0  0  0
   39.6600   29.0500   42.4590 N   0  0  0  0  0  0  0  0  0  0  0  0
   40.9020   28.6950   42.7870 C   0  0  0  0  0  0  0  0  0  0  0  0
   41.1640   27.4960   43.4030 N   0  0  0  0  0  0  0  0  0  0  0  0
   40.2370   25.7240   44.1480 H   0  0  0  0  0  0  0  0  0  0  0  0
   38.0120   26.4610   43.5130 H   0  0  0  0  0  0  0  0  0  0  0  0
   41.7510   29.3360   42.5820 H   0  0  0  0  0  0  0  0  0  0  0  0
   37.4700   27.5440   40.3510 O   0  0  0  0  0  0  0  0  0  0  0  0
   36.7050   26.4030   39.8130 C   0  0  1  0  0  0  0  0  0  0  0  0
   36.1320   27.0820   39.3780 H   0  0  0  0  0  0  0  0  0  0  0  0
   37.2620   25.6650   38.2390 S   0  0  0  0  0  0  0  0  0  0  0  0
   38.5280   25.1320   38.2420 H   0  0  0  0  0  0  0  0  0  0  0  0
   37.4230   25.4680   40.5550 O   0  0  0  0  0  0  0  0  0  0  0  0
   37.0380   24.3120   41.0840 C   0  0  0  0  0  3  0  0  0  0  0  0
   35.9800   23.7690   40.9370 O   0  0  0  0  0  0  0  0  0  0  0  0
   38.0040   23.7280   41.8660 N   0  0  0  0  0  1  0  0  0  0  0  0
   38.4340   23.2870   42.7150 H   0  0  0  0  0 15  0  0  0  0  0  0
   37.6940   23.4740   42.8340 H   0  0  0  0  0  0  0  0  0  0  0  0
  1 19  1  0  0  0  0
  1  7  1  1  0  0  0
  2  8  1  0  0  0  0
  2  1  1  0  0  0  0
  3  2  1  0  0  0  0
  3 11  1  0  0  0  0
  4  5  1  0  0  0  0
  4  3  1  0  0  0  0
  5  6  1  0  0  0  0
  5 15  1  0  0  0  0
  6 16  1  1  0  0  0
  6  1  1  0  0  0  0
  9  2  1  0  0  0  0
 10  3  1  0  0  0  0
 12  4  1  0  0  0  0
 13  4  1  0  0  0  0
 14  5  1  0  0  0  0
 17 23  1  0  0  0  0
 18 24  1  0  0  0  0
 18 17  2  0  0  0  0
 19 18  1  0  0  0  0
 20 19  2  0  0  0  0
 20 21  1  0  0  0  0
 21 22  2  0  0  0  0
 22 17  1  0  0  0  0
 25 21  1  0  0  0  0
 26  6  1  0  0  0  0
 27 28  1  1  0  0  0
 27 26  1  0  0  0  0
 27 31  1  0  0  0  0
 29 30  1  0  0  0  0
 29 27  1  0  0  0  0
 31 32  1  0  0  0  0
 33 32  2  0  0  0  0
 34 36  1  0  0  0  0
M  END
>  <minimizedAffinity>
-4.52511883

$$$$

 OpenBabel03242510333D

 36 35  0  0  1  0  0  0  0  0999 V2000
   36.4360   30.6050   38.6580 C   0  0  1  0  0  0  0  0  0  0  0  0
   36.9740   30.0900   37.2730 C   0  0  0  0  0  0  0  0  0  0  0  0
   35.8820   29.3590   36.5890 C   0  0  0  0  0  0  0  0  0  0  0  0
   35.7480   28.0550   37.3820 C   0  0  0  0  0  0  0  0  0  0  0  0
   35.3710   28.4380   38.7160 C   0  0  0  0  0  0  0  0  0  0  0  0
   36.2060   29.5340   39.5140 C   0  0  1  0  0  0  0  0  0  0  0  0
   35.5540   31.2160   38.4490 H   0  0  0  0  0  0  0  0  0  0  0  0
   37.2190   31.0120   36.6790 H   0  0  0  0  0  0  0  0  0  0  0  0
   37.8280   29.4540   37.4900 H   0  0  0  0  0  0  0  0  0  0  0  0
   36.2060   29.1230   35.5630 H   0  0  0  0  0  0  0  0  0  0  0  0
   34.9050   29.8710   36.6290 H   0  0  0  0  0  0  0  0  0  0  0  0
   34.8960   27.5480   36.9410 H   0  0  0  0  0  0  0  0  0  0  0  0
   36.7010   27.5150   37.3480 H   0  0  0  0  0  0  0  0  0  0  0  0
   35.0510   27.6050   39.2350 H   0  0  0  0  0  0  0  0  0  0  0  0
   34.4190   29.0800   38.5700 H   0  0  0  0  0  0  0  0  0  0  0  0
   35.5610   29.6760   40.3740 H   0  0  0  0  0  0  0  0  0  0  0  0
   38.6680   32.9160   40.7920 C   0  0  0  0  0  0  0  0  0  0  0  0
   37.5980   32.1660   40.4450 C   0  0  0  0  0  0  0  0  0  0  0  0
   37.5380   31.4560   39.2190 C   0  0  0  0  0  0  0  0  0  0  0  0
   38.5950   31.5750   38.4420 N   0  0  0  0  0  0  0  0  0  0  0  0
   39.6530   32.3120   38.7780 C   0  0  0  0  0  0  0  0  0  0  0  0
   39.6980   32.9950   39.9690 N   0  0  0  0  0  0  0  0  0  0  0  0
   38.5860   33.4000   41.7450 H   0  0  0  0  0  0  0  0  0  0  0  0
   36.7070   32.0340   41.0410 H   0  0  0  0  0  0  0  0  0  0  0  0
   40.5150   32.4020   38.1290 H   0  0  0  0  0  0  0  0  0  0  0  0
   37.3920   28.8120   39.8330 O   0  0  0  0  0  0  0  0  0  0  0  0
   36.9710   28.0300   41.0110 C   0  0  1  0  0  0  0  0  0  0  0  0
   36.1410   27.8450   40.5060 H   0  0  0  0  0  0  0  0  0  0  0  0
   37.4720   26.2760   41.0960 S   0  0  0  0  0  0  0  0  0  0  0  0
   38.8260   26.0390   41.1140 H   0  0  0  0  0  0  0  0  0  0  0  0
   38.0720   28.4250   41.7670 O   0  0  0  0  0  0  0  0  0  0  0  0
   38.1540   29.2670   42.7910 C   0  0  0  0  0  3  0  0  0  0  0  0
   39.0080   30.0840   42.9860 O   0  0  0  0  0  0  0  0  0  0  0  0
   37.1150   29.1380   43.6790 N   0  0  0  0  0  1  0  0  0  0  0  0
   36.6340   29.0050   44.6030 H   0  0  0  0  0 15  0  0  0  0  0  0
   37.4020   28.9960   44.6770 H   0  0  0  0  0  0  0  0  0  0  0  0
  1  7  1  6  0  0  0
  1 19  1  0  0  0  0
  1  6  1  0  0  0  0
  2  9  1  0  0  0  0
  2  1  1  0  0  0  0
  3 11  1  0  0  0  0
  3  2  1  0  0  0  0
  3  4  1  0  0  0  0
  4  5  1  0  0  0  0
  5 14  1  0  0  0  0
  5  6  1  0  0  0  0
  6 26  1  0  0  0  0
  6 16  1  1  0  0  0
  8  2  1  0  0  0  0
 10  3  1  0  0  0  0
 12  4  1  0  0  0  0
 13  4  1  0  0  0  0
 15  5  1  0  0  0  0
 17 23  1  0  0  0  0
 18 17  1  0  0  0  0
 18 24  1  0  0  0  0
 19 18  2  0  0  0  0
 20 21  2  0  0  0  0
 20 19  1  0  0  0  0
 21 22  1  0  0  0  0
 22 17  2  0  0  0  0
 25 21  1  0  0  0  0
 26 27  1  0  0  0  0
 27 28  1  1  0  0  0
 27 29  1  0  0  0  0
 27 31  1  0  0  0  0
 29 30  1  0  0  0  0
 31 32  1  0  0  0  0
 32 33  2  0  0  0  0
 34 36  1  0  0  0  0
M  END
>  <minimizedAffinity>
-4.4939394

$$$$

 OpenBabel03242510333D

 36 35  0  0  1  0  0  0  0  0999 V2000
   37.3540   28.0570   39.5450 C   0  0  1  0  0  0  0  0  0  0  0  0
   35.7890   28.2090   39.5340 C   0  0  0  0  0  0  0  0  0  0  0  0
   35.3390   28.3050   38.1250 C   0  0  0  0  0  0  0  0  0  0  0  0
   35.7960   29.6970   37.6790 C   0  0  0  0  0  0  0  0  0  0  0  0
   37.2310   29.6950   37.7740 C   0  0  0  0  0  0  0  0  0  0  0  0
   37.9550   29.2340   39.1140 C   0  0  1  0  0  0  0  0  0  0  0  0
   37.5930   27.1780   38.9400 H   0  0  0  0  0  0  0  0  0  0  0  0
   35.3870   27.2570   39.9770 H   0  0  0  0  0  0  0  0  0  0  0  0
   35.5600   29.1040   40.1050 H   0  0  0  0  0  0  0  0  0  0  0  0
   34.2380   28.2650   38.1050 H   0  0  0  0  0  0  0  0  0  0  0  0
   35.8120   27.5710   37.4510 H   0  0  0  0  0  0  0  0  0  0  0  0
   35.5450   29.7470   36.6240 H   0  0  0  0  0  0  0  0  0  0  0  0
   35.3290   30.4520   38.3210 H   0  0  0  0  0  0  0  0  0  0  0  0
   37.6100   30.5180   37.2810 H   0  0  0  0  0  0  0  0  0  0  0  0
   37.5580   28.7880   37.1320 H   0  0  0  0  0  0  0  0  0  0  0  0
   38.9850   29.2060   38.7750 H   0  0  0  0  0  0  0  0  0  0  0  0
   39.1260   27.2780   42.8810 C   0  0  0  0  0  0  0  0  0  0  0  0
   38.9730   27.4910   41.5550 C   0  0  0  0  0  0  0  0  0  0  0  0
   37.7170   27.8150   40.9820 C   0  0  0  0  0  0  0  0  0  0  0  0
   36.7110   27.8950   41.8270 N   0  0  0  0  0  0  0  0  0  0  0  0
   36.8550   27.6850   43.1350 C   0  0  0  0  0  0  0  0  0  0  0  0
   38.0770   27.3720   43.6780 N   0  0  0  0  0  0  0  0  0  0  0  0
   40.1270   27.0410   43.1850 H   0  0  0  0  0  0  0  0  0  0  0  0
   39.7600   27.4380   40.8180 H   0  0  0  0  0  0  0  0  0  0  0  0
   36.0180   27.7540   43.8190 H   0  0  0  0  0  0  0  0  0  0  0  0
   37.6940   30.3390   39.9740 O   0  0  0  0  0  0  0  0  0  0  0  0
   39.0540   30.8140   40.2930 C   0  0  1  0  0  0  0  0  0  0  0  0
   39.1610   29.9620   40.7850 H   0  0  0  0  0  0  0  0  0  0  0  0
   40.3870   30.4510   39.1000 S   0  0  0  0  0  0  0  0  0  0  0  0
   40.2290   30.9840   37.8430 H   0  0  0  0  0  0  0  0  0  0  0  0
   38.8350   32.0690   39.7300 O   0  0  0  0  0  0  0  0  0  0  0  0
   38.2360   33.1430   40.2330 C   0  0  0  0  0  3  0  0  0  0  0  0
   38.7630   34.0850   40.7530 O   0  0  0  0  0  0  0  0  0  0  0  0
   36.8700   33.1100   40.1020 N   0  0  0  0  0  1  0  0  0  0  0  0
   35.8620   33.1510   40.3940 H   0  0  0  0  0 15  0  0  0  0  0  0
   36.3380   33.2580   40.9920 H   0  0  0  0  0  0  0  0  0  0  0  0
  1  7  1  6  0  0  0
  1 19  1  0  0  0  0
  2  1  1  0  0  0  0
  2  8  1  0  0  0  0
  2  9  1  0  0  0  0
  3  2  1  0  0  0  0
  4  5  1  0  0  0  0
  4  3  1  0  0  0  0
  4 13  1  0  0  0  0
  5  6  1  0  0  0  0
  6 16  1  6  0  0  0
  6  1  1  0  0  0  0
  6 26  1  0  0  0  0
 10  3  1  0  0  0  0
 11  3  1  0  0  0  0
 12  4  1  0  0  0  0
 14  5  1  0  0  0  0
 15  5  1  0  0  0  0
 17 23  1  0  0  0  0
 17 22  1  0  0  0  0
 18 17  2  0  0  0  0
 19 18  1  0  0  0  0
 19 20  2  0  0  0  0
 20 21  1  0  0  0  0
 21 22  2  0  0  0  0
 21 25  1  0  0  0  0
 24 18  1  0  0  0  0
 26 27  1  0  0  0  0
 27 28  1  1  0  0  0
 29 27  1  0  0  0  0
 30 29  1  0  0  0  0
 31 32  1  0  0  0  0
 31 27  1  0  0  0  0
 32 33  2  0  0  0  0
 34 36  1  0  0  0  0
M  END
>  <minimizedAffinity>
-4.46108103

$$$$

 OpenBabel03242510333D

 36 35  0  0  1  0  0  0  0  0999 V2000
   36.5420   27.4720   39.9150 C   0  0  1  0  0  0  0  0  0  0  0  0
   37.3570   26.9210   38.6880 C   0  0  0  0  0  0  0  0  0  0  0  0
   36.9650   25.5100   38.4610 C   0  0  0  0  0  0  0  0  0  0  0  0
   37.5990   24.7510   39.6320 C   0  0  0  0  0  0  0  0  0  0  0  0
   36.9950   25.2810   40.8240 C   0  0  0  0  0  0  0  0  0  0  0  0
   36.9560   26.8500   41.0870 C   0  0  1  0  0  0  0  0  0  0  0  0
   35.4830   27.3370   39.6790 H   0  0  0  0  0  0  0  0  0  0  0  0
   37.0300   27.5330   37.8040 H   0  0  0  0  0  0  0  0  0  0  0  0
   38.4090   27.0240   38.9430 H   0  0  0  0  0  0  0  0  0  0  0  0
   37.4220   25.1650   37.5200 H   0  0  0  0  0  0  0  0  0  0  0  0
   35.8770   25.3340   38.5060 H   0  0  0  0  0  0  0  0  0  0  0  0
   37.2500   23.7290   39.5210 H   0  0  0  0  0  0  0  0  0  0  0  0
   38.6850   24.8940   39.6060 H   0  0  0  0  0  0  0  0  0  0  0  0
   37.2120   24.6640   41.6230 H   0  0  0  0  0  0  0  0  0  0  0  0
   35.8580   25.1500   40.6500 H   0  0  0  0  0  0  0  0  0  0  0  0
   36.3090   26.8820   41.9570 H   0  0  0  0  0  0  0  0  0  0  0  0
   38.1390   30.9690   39.6020 C   0  0  0  0  0  0  0  0  0  0  0  0
   37.9670   29.6410   39.4170 C   0  0  0  0  0  0  0  0  0  0  0  0
   36.8770   28.9340   39.9870 C   0  0  0  0  0  0  0  0  0  0  0  0
   36.0440   29.6570   40.7060 N   0  0  0  0  0  0  0  0  0  0  0  0
   36.2080   30.9660   40.8920 C   0  0  0  0  0  0  0  0  0  0  0  0
   37.2680   31.6400   40.3340 N   0  0  0  0  0  0  0  0  0  0  0  0
   39.0010   31.3810   39.1170 H   0  0  0  0  0  0  0  0  0  0  0  0
   38.6170   29.0000   38.8410 H   0  0  0  0  0  0  0  0  0  0  0  0
   35.5160   31.5500   41.4860 H   0  0  0  0  0  0  0  0  0  0  0  0
   38.3170   27.1190   41.4090 O   0  0  0  0  0  0  0  0  0  0  0  0
   38.3980   26.6780   42.8140 C   0  0  1  0  0  0  0  0  0  0  0  0
   37.8920   25.8800   42.5200 H   0  0  0  0  0  0  0  0  0  0  0  0
   39.8680   25.7270   43.3290 S   0  0  0  0  0  0  0  0  0  0  0  0
   41.0740   26.3740   43.2050 H   0  0  0  0  0  0  0  0  0  0  0  0
   38.9700   27.8740   43.2410 O   0  0  0  0  0  0  0  0  0  0  0  0
   38.4770   29.1080   43.2490 C   0  0  0  0  0  3  0  0  0  0  0  0
   39.0430   30.1120   42.9230 O   0  0  0  0  0  0  0  0  0  0  0  0
   37.1740   29.1650   43.6790 N   0  0  0  0  0  1  0  0  0  0  0  0
   36.3500   29.4760   44.2500 H   0  0  0  0  0 15  0  0  0  0  0  0
   36.9980   29.8400   44.4610 H   0  0  0  0  0  0  0  0  0  0  0  0
  1  7  1  6  0  0  0
  1 19  1  0  0  0  0
  1  6  1  0  0  0  0
  2  9  1  0  0  0  0
  2  1  1  0  0  0  0
  3 11  1  0  0  0  0
  3  2  1  0  0  0  0
  3  4  1  0  0  0  0
  4  5  1  0  0  0  0
  5  6  1  0  0  0  0
  5 14  1  0  0  0  0
  6 26  1  0  0  0  0
  6 16  1  1  0  0  0
  8  2  1  0  0  0  0
 10  3  1  0  0  0  0
 12  4  1  0  0  0  0
 13  4  1  0  0  0  0
 15  5  1  0  0  0  0
 17 22  1  0  0  0  0
 18 17  2  0  0  0  0
 18 19  1  0  0  0  0
 19 20  2  0  0  0  0
 20 21  1  0  0  0  0
 21 25  1  0  0  0  0
 22 21  2  0  0  0  0
 23 17  1  0  0  0  0
 24 18  1  0  0  0  0
 26 27  1  0  0  0  0
 27 28  1  1  0  0  0
 27 31  1  0  0  0  0
 27 29  1  0  0  0  0
 30 29  1  0  0  0  0
 31 32  1  0  0  0  0
 33 32  2  0  0  0  0
 34 36  1  0  0  0  0
M  END
>  <minimizedAffinity>
-4.45363951

$$$$
