
 OpenBabel03252508113D

 40 42  0  0  0  0  0  0  0  0999 V2000
   38.1130   30.3710   37.7700 C   0  0  0  0  0  0  0  0  0  0  0  0
   38.2520   29.8270   39.0290 C   0  0  0  0  0  0  0  0  0  0  0  0
   37.2110   29.1890   39.6440 C   0  0  0  0  0  0  0  0  0  0  0  0
   36.0240   29.1290   38.9180 N   0  0  0  0  0  0  0  0  0  0  0  0
   35.8890   29.6490   37.7120 C   0  0  0  0  0  0  0  0  0  0  0  0
   36.9470   30.2730   37.1450 N   0  0  0  0  0  0  0  0  0  0  0  0
   38.9430   30.8790   37.2840 H   0  0  0  0  0  0  0  0  0  0  0  0
   34.9290   29.5690   37.1940 H   0  0  0  0  0  0  0  0  0  0  0  0
   37.1740   28.5860   40.9150 C   0  0  0  0  0  0  0  0  0  0  0  0
   37.2930   29.3240   42.1070 C   0  0  0  0  0  0  0  0  0  0  0  0
   37.3150   28.7640   43.3570 C   0  0  0  0  0  0  0  0  0  0  0  0
   37.2190   27.3910   43.4890 C   0  0  0  0  0  0  0  0  0  0  0  0
   37.0970   26.6230   42.2860 C   0  0  0  0  0  0  0  0  0  0  0  0
   37.0040   25.2670   42.4070 C   0  0  0  0  0  0  0  0  0  0  0  0
   36.8830   24.4780   41.2870 C   0  0  0  0  0  0  0  0  0  0  0  0
   36.8540   25.0820   40.0170 C   0  0  0  0  0  0  0  0  0  0  0  0
   36.9550   26.4880   39.9570 C   0  0  0  0  0  0  0  0  0  0  0  0
   37.0770   27.2380   41.0810 C   0  0  0  0  0  0  0  0  0  0  0  0
   37.3720   30.4010   42.0540 H   0  0  0  0  0  0  0  0  0  0  0  0
   37.4080   29.3700   44.2430 H   0  0  0  0  0  0  0  0  0  0  0  0
   37.2320   26.8800   44.4400 H   0  0  0  0  0  0  0  0  0  0  0  0
   37.0260   24.8190   43.3930 H   0  0  0  0  0  0  0  0  0  0  0  0
   36.8170   23.4140   41.4580 H   0  0  0  0  0  0  0  0  0  0  0  0
   36.7550   24.3760   39.2070 H   0  0  0  0  0  0  0  0  0  0  0  0
   36.8870   26.7310   38.9160 H   0  0  0  0  0  0  0  0  0  0  0  0
   39.4730   29.9480   39.6330 O   0  0  0  0  0  0  0  0  0  0  0  0
   40.0030   31.3830   41.7630 O   0  0  0  0  0  0  0  0  0  0  0  0
   40.1120   31.3580   40.2690 P   0  0  1  0  0  0  0  0  0  0  0  0
   41.7420   31.5610   39.9020 O   0  0  0  0  0  0  0  0  0  0  0  0
   41.8390   32.8380   39.3170 C   0  0  0  0  0  0  0  0  0  0  0  0
   42.3770   32.8550   38.3720 H   0  0  0  0  0  0  0  0  0  0  0  0
   40.7750   33.1330   39.1150 H   0  0  0  0  0  0  0  0  0  0  0  0
   42.5040   34.0560   40.4670 S   0  0  0  0  0  0  0  0  0  0  0  0
   43.8760   34.2310   40.1380 H   0  0  0  0  0  0  0  0  0  0  0  0
   39.2470   32.6600   39.6320 O   0  0  0  0  0  0  0  0  0  0  0  0
   38.2800   33.4170   40.2570 C   0  0  0  0  0  0  0  0  0  0  0  0
   37.2330   33.2030   39.6600 O   0  0  0  0  0  0  0  0  0  0  0  0
   38.8280   34.1610   41.3480 N   0  0  0  0  0  0  0  0  0  0  0  0
   39.0910   35.0910   41.7430 H   0  0  0  0  0  0  0  0  0  0  0  0
   39.1760   33.7910   42.2860 H   0  0  0  0  0  0  0  0  0  0  0  0
  1  2  1  0  0  0  0
  2 26  1  0  0  0  0
  2  3  2  0  0  0  0
  3  9  1  0  0  0  0
  4  3  1  0  0  0  0
  5  4  2  0  0  0  0
  6  5  1  0  0  0  0
  6  1  2  0  0  0  0
  7  1  1  0  0  0  0
  8  5  1  0  0  0  0
  9 18  2  0  0  0  0
  9 10  1  0  0  0  0
 10 11  2  0  0  0  0
 11 12  1  0  0  0  0
 11 20  1  0  0  0  0
 12 21  1  0  0  0  0
 13 14  1  0  0  0  0
 13 12  2  0  0  0  0
 14 22  1  0  0  0  0
 15 23  1  0  0  0  0
 15 14  2  0  0  0  0
 16 15  1  0  0  0  0
 17 16  2  0  0  0  0
 17 18  1  0  0  0  0
 18 13  1  0  0  0  0
 19 10  1  0  0  0  0
 24 16  1  0  0  0  0
 25 17  1  0  0  0  0
 26 28  1  0  0  0  0
 28 27  2  1  0  0  0
 29 28  1  0  0  0  0
 30 29  1  0  0  0  0
 30 33  1  0  0  0  0
 31 30  1  0  0  0  0
 32 30  1  0  0  0  0
 34 33  1  0  0  0  0
 35 36  1  0  0  0  0
 35 28  1  0  0  0  0
 36 38  1  0  0  0  0
 37 36  2  0  0  0  0
 38 39  1  0  0  0  0
 38 40  1  0  0  0  0
M  END
>  <minimizedAffinity>
-5.81990767

$$$$

 OpenBabel03252508113D

 40 42  0  0  0  0  0  0  0  0999 V2000
   42.3620   29.2190   41.0460 C   0  0  0  0  0  0  0  0  0  0  0  0
   41.0140   28.9650   41.1880 C   0  0  0  0  0  0  0  0  0  0  0  0
   40.5310   28.2880   42.2720 C   0  0  0  0  0  0  0  0  0  0  0  0
   41.4820   27.8830   43.2060 N   0  0  0  0  0  0  0  0  0  0  0  0
   42.7730   28.1250   43.0720 C   0  0  0  0  0  0  0  0  0  0  0  0
   43.2050   28.7970   41.9810 N   0  0  0  0  0  0  0  0  0  0  0  0
   42.7440   29.7570   40.1810 H   0  0  0  0  0  0  0  0  0  0  0  0
   43.4700   27.7790   43.8420 H   0  0  0  0  0  0  0  0  0  0  0  0
   39.2020   27.9410   42.5730 C   0  0  0  0  0  0  0  0  0  0  0  0
   38.3470   28.7840   43.3090 C   0  0  0  0  0  0  0  0  0  0  0  0
   37.0660   28.4540   43.6660 C   0  0  0  0  0  0  0  0  0  0  0  0
   36.5530   27.2240   43.2990 C   0  0  0  0  0  0  0  0  0  0  0  0
   37.4080   26.3530   42.5500 C   0  0  0  0  0  0  0  0  0  0  0  0
   36.9100   25.1360   42.1860 C   0  0  0  0  0  0  0  0  0  0  0  0
   37.6850   24.2580   41.4640 C   0  0  0  0  0  0  0  0  0  0  0  0
   38.9930   24.6260   41.1040 C   0  0  0  0  0  0  0  0  0  0  0  0
   39.4510   25.8980   41.5100 C   0  0  0  0  0  0  0  0  0  0  0  0
   38.6630   26.7400   42.2250 C   0  0  0  0  0  0  0  0  0  0  0  0
   38.7050   29.7560   43.6190 H   0  0  0  0  0  0  0  0  0  0  0  0
   36.4480   29.1330   44.2300 H   0  0  0  0  0  0  0  0  0  0  0  0
   35.5540   26.8960   43.5470 H   0  0  0  0  0  0  0  0  0  0  0  0
   35.9000   24.8690   42.4700 H   0  0  0  0  0  0  0  0  0  0  0  0
   37.2260   23.3130   41.2130 H   0  0  0  0  0  0  0  0  0  0  0  0
   39.5130   23.8690   40.5390 H   0  0  0  0  0  0  0  0  0  0  0  0
   40.4430   25.9790   41.1150 H   0  0  0  0  0  0  0  0  0  0  0  0
   40.1840   29.4230   40.2020 O   0  0  0  0  0  0  0  0  0  0  0  0
   39.7560   31.7170   41.3980 O   0  0  0  0  0  0  0  0  0  0  0  0
   39.3760   30.8880   40.2090 P   0  0  1  0  0  0  0  0  0  0  0  0
   39.7020   31.8220   38.8470 O   0  0  0  0  0  0  0  0  0  0  0  0
   41.0560   32.1910   38.9600 C   0  0  0  0  0  0  0  0  0  0  0  0
   41.2360   33.0280   39.6320 H   0  0  0  0  0  0  0  0  0  0  0  0
   41.5560   31.2840   39.3940 H   0  0  0  0  0  0  0  0  0  0  0  0
   41.8120   32.4770   37.3490 S   0  0  0  0  0  0  0  0  0  0  0  0
   41.8500   33.8840   37.1520 H   0  0  0  0  0  0  0  0  0  0  0  0
   37.7180   30.5730   40.2650 O   0  0  0  0  0  0  0  0  0  0  0  0
   36.7120   31.4190   40.6760 C   0  0  0  0  0  0  0  0  0  0  0  0
   35.8410   30.7100   41.1620 O   0  0  0  0  0  0  0  0  0  0  0  0
   37.0340   32.7830   40.3980 N   0  0  0  0  0  0  0  0  0  0  0  0
   36.8390   33.6450   39.8410 H   0  0  0  0  0  0  0  0  0  0  0  0
   37.7710   33.3940   40.8700 H   0  0  0  0  0  0  0  0  0  0  0  0
  1  2  2  0  0  0  0
  1  6  1  0  0  0  0
  2  3  1  0  0  0  0
  3  9  1  0  0  0  0
  3  4  2  0  0  0  0
  5  4  1  0  0  0  0
  5  8  1  0  0  0  0
  6  5  2  0  0  0  0
  7  1  1  0  0  0  0
  9 10  1  0  0  0  0
 10 19  1  0  0  0  0
 10 11  2  0  0  0  0
 11 20  1  0  0  0  0
 12 21  1  0  0  0  0
 12 11  1  0  0  0  0
 13 12  2  0  0  0  0
 14 22  1  0  0  0  0
 14 13  1  0  0  0  0
 15 14  2  0  0  0  0
 16 15  1  0  0  0  0
 16 17  2  0  0  0  0
 17 18  1  0  0  0  0
 18 13  1  0  0  0  0
 18  9  2  0  0  0  0
 23 15  1  0  0  0  0
 24 16  1  0  0  0  0
 25 17  1  0  0  0  0
 26 28  1  0  0  0  0
 26  2  1  0  0  0  0
 28 35  1  0  0  0  0
 28 27  2  1  0  0  0
 29 30  1  0  0  0  0
 29 28  1  0  0  0  0
 30 32  1  0  0  0  0
 30 31  1  0  0  0  0
 33 30  1  0  0  0  0
 34 33  1  0  0  0  0
 35 36  1  0  0  0  0
 36 37  2  0  0  0  0
 38 36  1  0  0  0  0
 38 40  1  0  0  0  0
 39 38  1  0  0  0  0
M  END
>  <minimizedAffinity>
-5.58492327

$$$$

 OpenBabel03252508113D

 40 42  0  0  0  0  0  0  0  0999 V2000
   36.8500   29.5670   37.1280 C   0  0  0  0  0  0  0  0  0  0  0  0
   37.2740   29.1110   38.3580 C   0  0  0  0  0  0  0  0  0  0  0  0
   36.3910   28.5970   39.2660 C   0  0  0  0  0  0  0  0  0  0  0  0
   35.0580   28.5660   38.8630 N   0  0  0  0  0  0  0  0  0  0  0  0
   34.6500   29.0020   37.6860 C   0  0  0  0  0  0  0  0  0  0  0  0
   35.5610   29.5040   36.8210 N   0  0  0  0  0  0  0  0  0  0  0  0
   37.5560   29.9760   36.4080 H   0  0  0  0  0  0  0  0  0  0  0  0
   33.5880   28.9500   37.4300 H   0  0  0  0  0  0  0  0  0  0  0  0
   36.6450   28.0970   40.5560 C   0  0  0  0  0  0  0  0  0  0  0  0
   36.8050   28.9350   41.6760 C   0  0  0  0  0  0  0  0  0  0  0  0
   37.1060   28.4850   42.9340 C   0  0  0  0  0  0  0  0  0  0  0  0
   37.2720   27.1290   43.1500 C   0  0  0  0  0  0  0  0  0  0  0  0
   37.1130   26.2610   42.0220 C   0  0  0  0  0  0  0  0  0  0  0  0
   37.2780   24.9220   42.2260 C   0  0  0  0  0  0  0  0  0  0  0  0
   37.1360   24.0390   41.1800 C   0  0  0  0  0  0  0  0  0  0  0  0
   36.8180   24.5290   39.9010 C   0  0  0  0  0  0  0  0  0  0  0  0
   36.6600   25.9240   39.7540 C   0  0  0  0  0  0  0  0  0  0  0  0
   36.8110   26.7690   40.8050 C   0  0  0  0  0  0  0  0  0  0  0  0
   36.6850   30.0030   41.5560 H   0  0  0  0  0  0  0  0  0  0  0  0
   37.2190   29.1640   43.7620 H   0  0  0  0  0  0  0  0  0  0  0  0
   37.5120   26.7030   44.1130 H   0  0  0  0  0  0  0  0  0  0  0  0
   37.5210   24.5610   43.2180 H   0  0  0  0  0  0  0  0  0  0  0  0
   37.2830   22.9950   41.4150 H   0  0  0  0  0  0  0  0  0  0  0  0
   36.7270   23.7560   39.1550 H   0  0  0  0  0  0  0  0  0  0  0  0
   36.4010   26.0700   38.7250 H   0  0  0  0  0  0  0  0  0  0  0  0
   38.6120   29.1910   38.6280 O   0  0  0  0  0  0  0  0  0  0  0  0
   38.4550   31.6580   39.5050 O   0  0  0  0  0  0  0  0  0  0  0  0
   39.4000   30.5170   39.2780 P   0  0  1  0  0  0  0  0  0  0  0  0
   40.1220   30.1870   40.7620 O   0  0  0  0  0  0  0  0  0  0  0  0
   40.3940   28.8070   40.7490 C   0  0  0  0  0  0  0  0  0  0  0  0
   39.5900   28.1980   40.3410 H   0  0  0  0  0  0  0  0  0  0  0  0
   41.2840   28.7040   40.0720 H   0  0  0  0  0  0  0  0  0  0  0  0
   40.9050   28.2070   42.3700 S   0  0  0  0  0  0  0  0  0  0  0  0
   39.7710   27.5810   42.9570 H   0  0  0  0  0  0  0  0  0  0  0  0
   40.5960   31.0020   38.1890 O   0  0  0  0  0  0  0  0  0  0  0  0
   40.5910   32.1100   37.3700 C   0  0  0  0  0  0  0  0  0  0  0  0
   41.6970   32.6240   37.4780 O   0  0  0  0  0  0  0  0  0  0  0  0
   39.3350   32.2590   36.7040 N   0  0  0  0  0  0  0  0  0  0  0  0
   38.4500   32.8020   36.5920 H   0  0  0  0  0  0  0  0  0  0  0  0
   38.9290   31.6540   35.9250 H   0  0  0  0  0  0  0  0  0  0  0  0
  1  2  1  0  0  0  0
  2 26  1  0  0  0  0
  2  3  2  0  0  0  0
  3  9  1  0  0  0  0
  4  3  1  0  0  0  0
  5  4  2  0  0  0  0
  6  1  2  0  0  0  0
  6  5  1  0  0  0  0
  7  1  1  0  0  0  0
  8  5  1  0  0  0  0
  9 18  2  0  0  0  0
  9 10  1  0  0  0  0
 10 11  2  0  0  0  0
 11 12  1  0  0  0  0
 11 20  1  0  0  0  0
 12 21  1  0  0  0  0
 13 14  1  0  0  0  0
 13 12  2  0  0  0  0
 14 22  1  0  0  0  0
 15 23  1  0  0  0  0
 15 14  2  0  0  0  0
 16 15  1  0  0  0  0
 17 16  2  0  0  0  0
 17 18  1  0  0  0  0
 18 13  1  0  0  0  0
 19 10  1  0  0  0  0
 24 16  1  0  0  0  0
 25 17  1  0  0  0  0
 26 28  1  0  0  0  0
 28 27  2  1  0  0  0
 28 29  1  0  0  0  0
 30 29  1  0  0  0  0
 30 33  1  0  0  0  0
 31 30  1  0  0  0  0
 32 30  1  0  0  0  0
 33 34  1  0  0  0  0
 35 28  1  0  0  0  0
 36 37  2  0  0  0  0
 36 35  1  0  0  0  0
 38 36  1  0  0  0  0
 39 38  1  0  0  0  0
 40 38  1  0  0  0  0
M  END
>  <minimizedAffinity>
-5.46817923

$$$$

 OpenBabel03252508113D

 40 42  0  0  0  0  0  0  0  0999 V2000
   41.1790   29.4550   39.1650 C   0  0  0  0  0  0  0  0  0  0  0  0
   40.0070   29.1070   39.8020 C   0  0  0  0  0  0  0  0  0  0  0  0
   40.0170   28.5480   41.0490 C   0  0  0  0  0  0  0  0  0  0  0  0
   41.2750   28.3610   41.6180 N   0  0  0  0  0  0  0  0  0  0  0  0
   42.3990   28.6930   41.0100 C   0  0  0  0  0  0  0  0  0  0  0  0
   42.3380   29.2420   39.7750 N   0  0  0  0  0  0  0  0  0  0  0  0
   41.1670   29.8990   38.1710 H   0  0  0  0  0  0  0  0  0  0  0  0
   43.3550   28.5200   41.5110 H   0  0  0  0  0  0  0  0  0  0  0  0
   38.9290   28.1310   41.8370 C   0  0  0  0  0  0  0  0  0  0  0  0
   38.3840   28.9320   42.8590 C   0  0  0  0  0  0  0  0  0  0  0  0
   37.3610   28.5360   43.6800 C   0  0  0  0  0  0  0  0  0  0  0  0
   36.8100   27.2770   43.5220 C   0  0  0  0  0  0  0  0  0  0  0  0
   37.3520   26.4490   42.4870 C   0  0  0  0  0  0  0  0  0  0  0  0
   36.8160   25.2050   42.3270 C   0  0  0  0  0  0  0  0  0  0  0  0
   37.2950   24.3640   41.3480 C   0  0  0  0  0  0  0  0  0  0  0  0
   38.3400   24.8010   40.5140 C   0  0  0  0  0  0  0  0  0  0  0  0
   38.8520   26.0980   40.7300 C   0  0  0  0  0  0  0  0  0  0  0  0
   38.3610   26.9010   41.7070 C   0  0  0  0  0  0  0  0  0  0  0  0
   38.7820   29.9240   43.0200 H   0  0  0  0  0  0  0  0  0  0  0  0
   36.9750   29.1840   44.4490 H   0  0  0  0  0  0  0  0  0  0  0  0
   36.0050   26.8970   44.1330 H   0  0  0  0  0  0  0  0  0  0  0  0
   36.0110   24.8850   42.9770 H   0  0  0  0  0  0  0  0  0  0  0  0
   36.8250   23.3950   41.2800 H   0  0  0  0  0  0  0  0  0  0  0  0
   38.6390   24.0690   39.7810 H   0  0  0  0  0  0  0  0  0  0  0  0
   39.6080   26.2300   39.9820 H   0  0  0  0  0  0  0  0  0  0  0  0
   38.8370   29.3490   39.1360 O   0  0  0  0  0  0  0  0  0  0  0  0
   38.8140   31.5610   37.7280 O   0  0  0  0  0  0  0  0  0  0  0  0
   38.1560   30.8550   38.8740 P   0  0  1  0  0  0  0  0  0  0  0  0
   36.5140   30.7780   38.5140 O   0  0  0  0  0  0  0  0  0  0  0  0
   36.1430   29.4390   38.7380 C   0  0  0  0  0  0  0  0  0  0  0  0
   35.5110   29.0140   37.9600 H   0  0  0  0  0  0  0  0  0  0  0  0
   37.1150   28.8770   38.7400 H   0  0  0  0  0  0  0  0  0  0  0  0
   35.4100   29.2080   40.3690 S   0  0  0  0  0  0  0  0  0  0  0  0
   34.0010   29.1580   40.1870 H   0  0  0  0  0  0  0  0  0  0  0  0
   38.3610   31.7740   40.2760 O   0  0  0  0  0  0  0  0  0  0  0  0
   38.0790   33.1110   40.4560 C   0  0  0  0  0  0  0  0  0  0  0  0
   38.9310   33.5430   41.2220 O   0  0  0  0  0  0  0  0  0  0  0  0
   36.9280   33.5060   39.7070 N   0  0  0  0  0  0  0  0  0  0  0  0
   35.9320   33.8170   39.7120 H   0  0  0  0  0  0  0  0  0  0  0  0
   36.8360   33.6070   38.6490 H   0  0  0  0  0  0  0  0  0  0  0  0
  1  6  2  0  0  0  0
  1  2  1  0  0  0  0
  2  3  2  0  0  0  0
  3  4  1  0  0  0  0
  3  9  1  0  0  0  0
  5  8  1  0  0  0  0
  5  4  2  0  0  0  0
  6  5  1  0  0  0  0
  7  1  1  0  0  0  0
  9 10  1  0  0  0  0
 10 19  1  0  0  0  0
 10 11  2  0  0  0  0
 11 20  1  0  0  0  0
 12 11  1  0  0  0  0
 12 21  1  0  0  0  0
 13 12  2  0  0  0  0
 14 13  1  0  0  0  0
 14 22  1  0  0  0  0
 15 14  2  0  0  0  0
 16 17  2  0  0  0  0
 16 15  1  0  0  0  0
 17 18  1  0  0  0  0
 18  9  2  0  0  0  0
 18 13  1  0  0  0  0
 23 15  1  0  0  0  0
 24 16  1  0  0  0  0
 25 17  1  0  0  0  0
 26  2  1  0  0  0  0
 28 27  2  6  0  0  0
 28 26  1  0  0  0  0
 28 35  1  0  0  0  0
 29 30  1  0  0  0  0
 29 28  1  0  0  0  0
 30 32  1  0  0  0  0
 30 33  1  0  0  0  0
 31 30  1  0  0  0  0
 34 33  1  0  0  0  0
 35 36  1  0  0  0  0
 36 37  2  0  0  0  0
 38 39  1  0  0  0  0
 38 36  1  0  0  0  0
 40 38  1  0  0  0  0
M  END
>  <minimizedAffinity>
-5.45155954

$$$$

 OpenBabel03252508113D

 40 42  0  0  0  0  0  0  0  0999 V2000
   37.4100   29.6550   37.1870 C   0  0  0  0  0  0  0  0  0  0  0  0
   37.7320   29.2010   38.4480 C   0  0  0  0  0  0  0  0  0  0  0  0
   36.7650   28.7720   39.3140 C   0  0  0  0  0  0  0  0  0  0  0  0
   35.4580   28.8250   38.8370 N   0  0  0  0  0  0  0  0  0  0  0  0
   35.1470   29.2600   37.6300 C   0  0  0  0  0  0  0  0  0  0  0  0
   36.1380   29.6760   36.8080 N   0  0  0  0  0  0  0  0  0  0  0  0
   38.1820   29.9970   36.5000 H   0  0  0  0  0  0  0  0  0  0  0  0
   34.1000   29.2770   37.3150 H   0  0  0  0  0  0  0  0  0  0  0  0
   36.9110   28.2860   40.6260 C   0  0  0  0  0  0  0  0  0  0  0  0
   37.1460   29.1330   41.7260 C   0  0  0  0  0  0  0  0  0  0  0  0
   37.3460   28.6890   43.0070 C   0  0  0  0  0  0  0  0  0  0  0  0
   37.3250   27.3310   43.2680 C   0  0  0  0  0  0  0  0  0  0  0  0
   37.0860   26.4540   42.1600 C   0  0  0  0  0  0  0  0  0  0  0  0
   37.0660   25.1130   42.4090 C   0  0  0  0  0  0  0  0  0  0  0  0
   36.8390   24.2220   41.3850 C   0  0  0  0  0  0  0  0  0  0  0  0
   36.6290   24.7060   40.0820 C   0  0  0  0  0  0  0  0  0  0  0  0
   36.6620   26.1040   39.8890 C   0  0  0  0  0  0  0  0  0  0  0  0
   36.8920   26.9570   40.9200 C   0  0  0  0  0  0  0  0  0  0  0  0
   37.1730   30.2020   41.5710 H   0  0  0  0  0  0  0  0  0  0  0  0
   37.5230   29.3750   43.8180 H   0  0  0  0  0  0  0  0  0  0  0  0
   37.4760   26.9090   44.2500 H   0  0  0  0  0  0  0  0  0  0  0  0
   37.2280   24.7570   43.4190 H   0  0  0  0  0  0  0  0  0  0  0  0
   36.8390   23.1760   41.6550 H   0  0  0  0  0  0  0  0  0  0  0  0
   36.4590   23.9280   39.3550 H   0  0  0  0  0  0  0  0  0  0  0  0
   36.4560   26.2490   38.8480 H   0  0  0  0  0  0  0  0  0  0  0  0
   39.0550   29.1930   38.7930 O   0  0  0  0  0  0  0  0  0  0  0  0
   41.0290   30.2820   40.1320 O   0  0  0  0  0  0  0  0  0  0  0  0
   39.9980   30.5460   39.0780 P   0  0  1  0  0  0  0  0  0  0  0  0
   40.8310   31.0640   37.7100 O   0  0  0  0  0  0  0  0  0  0  0  0
   41.4260   29.9070   37.1720 C   0  0  0  0  0  0  0  0  0  0  0  0
   41.5790   29.1080   37.8930 H   0  0  0  0  0  0  0  0  0  0  0  0
   40.6890   29.5460   36.4060 H   0  0  0  0  0  0  0  0  0  0  0  0
   42.9490   30.2850   36.2850 S   0  0  0  0  0  0  0  0  0  0  0  0
   44.0260   29.9600   37.1540 H   0  0  0  0  0  0  0  0  0  0  0  0
   38.9840   31.7910   39.5990 O   0  0  0  0  0  0  0  0  0  0  0  0
   39.3440   33.0570   40.0060 C   0  0  0  0  0  0  0  0  0  0  0  0
   38.8560   33.2140   41.1180 O   0  0  0  0  0  0  0  0  0  0  0  0
   40.1360   33.7160   39.0160 N   0  0  0  0  0  0  0  0  0  0  0  0
   40.2120   34.4750   38.3020 H   0  0  0  0  0  0  0  0  0  0  0  0
   41.1390   33.5010   38.7260 H   0  0  0  0  0  0  0  0  0  0  0  0
  1  2  1  0  0  0  0
  2 26  1  0  0  0  0
  2  3  2  0  0  0  0
  3  9  1  0  0  0  0
  4  3  1  0  0  0  0
  5  4  2  0  0  0  0
  6  1  2  0  0  0  0
  6  5  1  0  0  0  0
  7  1  1  0  0  0  0
  8  5  1  0  0  0  0
  9 18  2  0  0  0  0
  9 10  1  0  0  0  0
 10 11  2  0  0  0  0
 11 12  1  0  0  0  0
 11 20  1  0  0  0  0
 12 21  1  0  0  0  0
 13 14  1  0  0  0  0
 13 12  2  0  0  0  0
 14 22  1  0  0  0  0
 15 23  1  0  0  0  0
 15 14  2  0  0  0  0
 16 15  1  0  0  0  0
 17 16  2  0  0  0  0
 17 18  1  0  0  0  0
 18 13  1  0  0  0  0
 19 10  1  0  0  0  0
 24 16  1  0  0  0  0
 25 17  1  0  0  0  0
 26 28  1  0  0  0  0
 28 35  1  0  0  0  0
 28 27  2  1  0  0  0
 29 28  1  0  0  0  0
 30 29  1  0  0  0  0
 30 31  1  0  0  0  0
 32 30  1  0  0  0  0
 33 34  1  0  0  0  0
 33 30  1  0  0  0  0
 35 36  1  0  0  0  0
 36 37  2  0  0  0  0
 38 36  1  0  0  0  0
 39 38  1  0  0  0  0
 40 38  1  0  0  0  0
M  END
>  <minimizedAffinity>
-5.38904381

$$$$

 OpenBabel03252508113D

 40 42  0  0  0  0  0  0  0  0999 V2000
   40.5950   29.6900   38.5600 C   0  0  0  0  0  0  0  0  0  0  0  0
   39.5830   29.4580   39.4670 C   0  0  0  0  0  0  0  0  0  0  0  0
   39.7320   28.5460   40.4750 C   0  0  0  0  0  0  0  0  0  0  0  0
   40.9560   27.8840   40.5170 N   0  0  0  0  0  0  0  0  0  0  0  0
   41.9260   28.1040   39.6490 C   0  0  0  0  0  0  0  0  0  0  0  0
   41.7330   29.0150   38.6680 N   0  0  0  0  0  0  0  0  0  0  0  0
   40.4730   30.4160   37.7580 H   0  0  0  0  0  0  0  0  0  0  0  0
   42.8650   27.5500   39.7360 H   0  0  0  0  0  0  0  0  0  0  0  0
   38.8130   28.1820   41.4760 C   0  0  0  0  0  0  0  0  0  0  0  0
   38.5440   28.9990   42.5900 C   0  0  0  0  0  0  0  0  0  0  0  0
   37.6970   28.6520   43.6100 C   0  0  0  0  0  0  0  0  0  0  0  0
   37.0540   27.4280   43.5730 C   0  0  0  0  0  0  0  0  0  0  0  0
   37.3150   26.5840   42.4460 C   0  0  0  0  0  0  0  0  0  0  0  0
   36.6860   25.3740   42.4030 C   0  0  0  0  0  0  0  0  0  0  0  0
   36.8970   24.5200   41.3450 C   0  0  0  0  0  0  0  0  0  0  0  0
   37.7650   24.9070   40.3080 C   0  0  0  0  0  0  0  0  0  0  0  0
   38.3860   26.1700   40.4100 C   0  0  0  0  0  0  0  0  0  0  0  0
   38.1600   26.9870   41.4700 C   0  0  0  0  0  0  0  0  0  0  0  0
   39.0250   29.9650   42.6640 H   0  0  0  0  0  0  0  0  0  0  0  0
   37.5220   29.3110   44.4440 H   0  0  0  0  0  0  0  0  0  0  0  0
   36.3760   27.0870   44.3410 H   0  0  0  0  0  0  0  0  0  0  0  0
   36.0200   25.0920   43.2090 H   0  0  0  0  0  0  0  0  0  0  0  0
   36.3680   23.5790   41.3780 H   0  0  0  0  0  0  0  0  0  0  0  0
   37.8590   24.1690   39.5280 H   0  0  0  0  0  0  0  0  0  0  0  0
   38.9720   26.2680   39.5190 H   0  0  0  0  0  0  0  0  0  0  0  0
   38.4320   30.1790   39.3200 O   0  0  0  0  0  0  0  0  0  0  0  0
   37.1230   30.7280   37.1150 O   0  0  0  0  0  0  0  0  0  0  0  0
   37.1670   29.8010   38.2910 P   0  0  1  0  0  0  0  0  0  0  0  0
   37.2720   28.2400   37.6710 O   0  0  0  0  0  0  0  0  0  0  0  0
   35.9860   27.9420   37.1850 C   0  0  0  0  0  0  0  0  0  0  0  0
   35.2310   28.6840   37.4350 H   0  0  0  0  0  0  0  0  0  0  0  0
   36.1050   27.9320   36.0680 H   0  0  0  0  0  0  0  0  0  0  0  0
   35.4540   26.2870   37.6610 S   0  0  0  0  0  0  0  0  0  0  0  0
   34.5740   26.4360   38.7680 H   0  0  0  0  0  0  0  0  0  0  0  0
   35.7250   29.9440   39.1590 O   0  0  0  0  0  0  0  0  0  0  0  0
   35.5440   29.8250   40.5190 C   0  0  0  0  0  0  0  0  0  0  0  0
   35.1590   28.6800   40.7180 O   0  0  0  0  0  0  0  0  0  0  0  0
   35.8620   31.0430   41.1940 N   0  0  0  0  0  0  0  0  0  0  0  0
   35.5260   31.8710   41.7350 H   0  0  0  0  0  0  0  0  0  0  0  0
   36.8230   31.4830   41.3390 H   0  0  0  0  0  0  0  0  0  0  0  0
  1  6  2  0  0  0  0
  1  2  1  0  0  0  0
  2  3  2  0  0  0  0
  3  4  1  0  0  0  0
  3  9  1  0  0  0  0
  5  8  1  0  0  0  0
  5  4  2  0  0  0  0
  6  5  1  0  0  0  0
  7  1  1  0  0  0  0
  9 10  1  0  0  0  0
 10 19  1  0  0  0  0
 10 11  2  0  0  0  0
 11 20  1  0  0  0  0
 12 11  1  0  0  0  0
 12 21  1  0  0  0  0
 13 12  2  0  0  0  0
 14 13  1  0  0  0  0
 14 22  1  0  0  0  0
 15 23  1  0  0  0  0
 15 14  2  0  0  0  0
 16 17  2  0  0  0  0
 16 15  1  0  0  0  0
 17 18  1  0  0  0  0
 18  9  2  0  0  0  0
 18 13  1  0  0  0  0
 24 16  1  0  0  0  0
 25 17  1  0  0  0  0
 26  2  1  0  0  0  0
 28 27  2  6  0  0  0
 28 35  1  0  0  0  0
 28 26  1  0  0  0  0
 29 28  1  0  0  0  0
 30 31  1  0  0  0  0
 30 33  1  0  0  0  0
 30 29  1  0  0  0  0
 32 30  1  0  0  0  0
 33 34  1  0  0  0  0
 35 36  1  0  0  0  0
 36 37  2  0  0  0  0
 36 38  1  0  0  0  0
 38 40  1  0  0  0  0
 38 39  1  0  0  0  0
M  END
>  <minimizedAffinity>
-5.24741459

$$$$

 OpenBabel03252508113D

 40 42  0  0  0  0  0  0  0  0999 V2000
   36.5260   29.0040   36.6500 C   0  0  0  0  0  0  0  0  0  0  0  0
   37.0410   28.2480   37.6820 C   0  0  0  0  0  0  0  0  0  0  0  0
   36.2310   27.7320   38.6550 C   0  0  0  0  0  0  0  0  0  0  0  0
   34.8740   28.0190   38.5280 N   0  0  0  0  0  0  0  0  0  0  0  0
   34.3780   28.7430   37.5410 C   0  0  0  0  0  0  0  0  0  0  0  0
   35.2190   29.2340   36.6020 N   0  0  0  0  0  0  0  0  0  0  0  0
   37.1730   29.4140   35.8780 H   0  0  0  0  0  0  0  0  0  0  0  0
   33.3020   28.9320   37.4990 H   0  0  0  0  0  0  0  0  0  0  0  0
   36.5830   26.9510   39.7710 C   0  0  0  0  0  0  0  0  0  0  0  0
   36.5690   25.5440   39.7450 C   0  0  0  0  0  0  0  0  0  0  0  0
   36.8530   24.7540   40.8280 C   0  0  0  0  0  0  0  0  0  0  0  0
   37.1730   25.3450   42.0360 C   0  0  0  0  0  0  0  0  0  0  0  0
   37.1920   26.7770   42.0810 C   0  0  0  0  0  0  0  0  0  0  0  0
   37.5050   27.3680   43.2700 C   0  0  0  0  0  0  0  0  0  0  0  0
   37.5400   28.7400   43.3740 C   0  0  0  0  0  0  0  0  0  0  0  0
   37.2530   29.5250   42.2430 C   0  0  0  0  0  0  0  0  0  0  0  0
   36.9370   28.8550   41.0420 C   0  0  0  0  0  0  0  0  0  0  0  0
   36.9060   27.5000   40.9740 C   0  0  0  0  0  0  0  0  0  0  0  0
   36.3230   25.0360   38.8220 H   0  0  0  0  0  0  0  0  0  0  0  0
   36.8300   23.6790   40.7610 H   0  0  0  0  0  0  0  0  0  0  0  0
   37.4050   24.7880   42.9310 H   0  0  0  0  0  0  0  0  0  0  0  0
   37.7250   26.7480   44.1310 H   0  0  0  0  0  0  0  0  0  0  0  0
   37.7930   29.1380   44.3450 H   0  0  0  0  0  0  0  0  0  0  0  0
   37.3110   30.5860   42.4310 H   0  0  0  0  0  0  0  0  0  0  0  0
   36.7810   29.6300   40.3200 H   0  0  0  0  0  0  0  0  0  0  0  0
   38.3910   28.0340   37.6870 O   0  0  0  0  0  0  0  0  0  0  0  0
   40.1020   28.8190   39.5130 O   0  0  0  0  0  0  0  0  0  0  0  0
   39.5540   29.1420   38.1570 P   0  0  1  0  0  0  0  0  0  0  0  0
   40.8690   29.1960   37.1070 O   0  0  0  0  0  0  0  0  0  0  0  0
   42.0090   29.1070   37.9280 C   0  0  0  0  0  0  0  0  0  0  0  0
   42.5900   30.0250   37.9850 H   0  0  0  0  0  0  0  0  0  0  0  0
   41.5990   28.8930   38.9510 H   0  0  0  0  0  0  0  0  0  0  0  0
   43.0500   27.7050   37.4840 S   0  0  0  0  0  0  0  0  0  0  0  0
   44.1280   28.2160   36.7110 H   0  0  0  0  0  0  0  0  0  0  0  0
   38.8350   30.6690   38.2040 O   0  0  0  0  0  0  0  0  0  0  0  0
   39.4580   31.8960   38.1600 C   0  0  0  0  0  0  0  0  0  0  0  0
   39.4530   32.3280   39.3060 O   0  0  0  0  0  0  0  0  0  0  0  0
   39.8780   32.2200   36.8330 N   0  0  0  0  0  0  0  0  0  0  0  0
   39.7570   32.8190   35.9860 H   0  0  0  0  0  0  0  0  0  0  0  0
   40.6650   31.7750   36.2660 H   0  0  0  0  0  0  0  0  0  0  0  0
  1  2  1  0  0  0  0
  2 26  1  0  0  0  0
  2  3  2  0  0  0  0
  3  9  1  0  0  0  0
  4  3  1  0  0  0  0
  5  4  2  0  0  0  0
  6  1  2  0  0  0  0
  6  5  1  0  0  0  0
  7  1  1  0  0  0  0
  8  5  1  0  0  0  0
  9 18  1  0  0  0  0
 10  9  2  0  0  0  0
 10 11  1  0  0  0  0
 11 12  2  0  0  0  0
 12 13  1  0  0  0  0
 12 21  1  0  0  0  0
 13 14  1  0  0  0  0
 14 15  2  0  0  0  0
 14 22  1  0  0  0  0
 15 23  1  0  0  0  0
 16 24  1  0  0  0  0
 16 15  1  0  0  0  0
 17 16  2  0  0  0  0
 18 17  1  0  0  0  0
 18 13  2  0  0  0  0
 19 10  1  0  0  0  0
 20 11  1  0  0  0  0
 25 17  1  0  0  0  0
 26 28  1  0  0  0  0
 28 35  1  0  0  0  0
 28 27  2  1  0  0  0
 29 30  1  0  0  0  0
 29 28  1  0  0  0  0
 30 31  1  0  0  0  0
 30 32  1  0  0  0  0
 33 30  1  0  0  0  0
 34 33  1  0  0  0  0
 36 35  1  0  0  0  0
 36 37  2  0  0  0  0
 38 36  1  0  0  0  0
 39 38  1  0  0  0  0
 40 38  1  0  0  0  0
M  END
>  <minimizedAffinity>
-5.21492767

$$$$

 OpenBabel03252508113D

 40 42  0  0  0  0  0  0  0  0999 V2000
   37.9990   30.0440   37.7900 C   0  0  0  0  0  0  0  0  0  0  0  0
   38.1020   29.3590   38.9820 C   0  0  0  0  0  0  0  0  0  0  0  0
   37.0130   28.7580   39.5490 C   0  0  0  0  0  0  0  0  0  0  0  0
   35.8170   28.8850   38.8470 N   0  0  0  0  0  0  0  0  0  0  0  0
   35.7160   29.5400   37.7060 C   0  0  0  0  0  0  0  0  0  0  0  0
   36.8210   30.1200   37.1840 N   0  0  0  0  0  0  0  0  0  0  0  0
   38.8670   30.5220   37.3410 H   0  0  0  0  0  0  0  0  0  0  0  0
   34.7470   29.6040   37.2040 H   0  0  0  0  0  0  0  0  0  0  0  0
   36.9350   28.0290   40.7500 C   0  0  0  0  0  0  0  0  0  0  0  0
   36.8760   28.6520   42.0110 C   0  0  0  0  0  0  0  0  0  0  0  0
   36.8540   27.9730   43.2010 C   0  0  0  0  0  0  0  0  0  0  0  0
   36.8950   26.5910   43.1970 C   0  0  0  0  0  0  0  0  0  0  0  0
   36.9550   25.9400   41.9230 C   0  0  0  0  0  0  0  0  0  0  0  0
   36.9980   24.5770   41.9100 C   0  0  0  0  0  0  0  0  0  0  0  0
   37.0550   23.8960   40.7160 C   0  0  0  0  0  0  0  0  0  0  0  0
   37.0670   24.6190   39.5090 C   0  0  0  0  0  0  0  0  0  0  0  0
   37.0210   26.0270   39.5880 C   0  0  0  0  0  0  0  0  0  0  0  0
   36.9700   26.6690   40.7830 C   0  0  0  0  0  0  0  0  0  0  0  0
   36.8440   29.7310   42.0650 H   0  0  0  0  0  0  0  0  0  0  0  0
   36.8080   28.4930   44.1440 H   0  0  0  0  0  0  0  0  0  0  0  0
   36.8830   25.9910   44.0950 H   0  0  0  0  0  0  0  0  0  0  0  0
   36.9860   24.0360   42.8480 H   0  0  0  0  0  0  0  0  0  0  0  0
   37.0880   22.8180   40.7820 H   0  0  0  0  0  0  0  0  0  0  0  0
   37.1110   23.9920   38.6330 H   0  0  0  0  0  0  0  0  0  0  0  0
   37.0150   26.3650   38.5720 H   0  0  0  0  0  0  0  0  0  0  0  0
   39.3360   29.3020   39.5670 O   0  0  0  0  0  0  0  0  0  0  0  0
   40.9820   31.3200   39.8750 O   0  0  0  0  0  0  0  0  0  0  0  0
   39.9860   30.4570   40.5880 P   0  0  1  0  0  0  0  0  0  0  0  0
   38.8250   31.4920   41.2300 O   0  0  0  0  0  0  0  0  0  0  0  0
   39.0100   32.7210   40.5700 C   0  0  0  0  0  0  0  0  0  0  0  0
   39.3830   33.5190   41.2080 H   0  0  0  0  0  0  0  0  0  0  0  0
   39.7930   32.5050   39.7940 H   0  0  0  0  0  0  0  0  0  0  0  0
   37.5300   33.2380   39.6810 S   0  0  0  0  0  0  0  0  0  0  0  0
   36.8830   34.2150   40.4860 H   0  0  0  0  0  0  0  0  0  0  0  0
   40.7610   29.6580   41.8580 O   0  0  0  0  0  0  0  0  0  0  0  0
   41.6670   30.1810   42.7550 C   0  0  0  0  0  0  0  0  0  0  0  0
   42.3420   29.2400   43.1520 O   0  0  0  0  0  0  0  0  0  0  0  0
   41.5010   31.5930   42.8990 N   0  0  0  0  0  0  0  0  0  0  0  0
   41.2110   32.3950   43.5030 H   0  0  0  0  0  0  0  0  0  0  0  0
   41.7300   32.3570   42.1910 H   0  0  0  0  0  0  0  0  0  0  0  0
  1  2  1  0  0  0  0
  2  3  2  0  0  0  0
  2 26  1  0  0  0  0
  3  9  1  0  0  0  0
  4  3  1  0  0  0  0
  5  4  2  0  0  0  0
  6  5  1  0  0  0  0
  6  1  2  0  0  0  0
  7  1  1  0  0  0  0
  8  5  1  0  0  0  0
  9 18  2  0  0  0  0
  9 10  1  0  0  0  0
 10 19  1  0  0  0  0
 10 11  2  0  0  0  0
 11 20  1  0  0  0  0
 12 11  1  0  0  0  0
 12 21  1  0  0  0  0
 13 12  2  0  0  0  0
 14 13  1  0  0  0  0
 14 22  1  0  0  0  0
 15 23  1  0  0  0  0
 15 14  2  0  0  0  0
 16 17  2  0  0  0  0
 16 15  1  0  0  0  0
 17 18  1  0  0  0  0
 18 13  1  0  0  0  0
 24 16  1  0  0  0  0
 25 17  1  0  0  0  0
 26 28  1  0  0  0  0
 28 27  2  6  0  0  0
 28 29  1  0  0  0  0
 28 35  1  0  0  0  0
 30 31  1  0  0  0  0
 30 29  1  0  0  0  0
 32 30  1  0  0  0  0
 33 34  1  0  0  0  0
 33 30  1  0  0  0  0
 35 36  1  0  0  0  0
 36 38  1  0  0  0  0
 36 37  2  0  0  0  0
 38 39  1  0  0  0  0
 40 38  1  0  0  0  0
M  END
>  <minimizedAffinity>
-5.13158512

$$$$

 OpenBabel03252508113D

 40 42  0  0  0  0  0  0  0  0999 V2000
   37.8280   29.6030   37.3320 C   0  0  0  0  0  0  0  0  0  0  0  0
   38.0150   29.0360   38.5750 C   0  0  0  0  0  0  0  0  0  0  0  0
   36.9530   28.6920   39.3630 C   0  0  0  0  0  0  0  0  0  0  0  0
   35.6930   28.9490   38.8280 N   0  0  0  0  0  0  0  0  0  0  0  0
   35.5110   29.4920   37.6390 C   0  0  0  0  0  0  0  0  0  0  0  0
   36.5930   29.8180   36.8950 N   0  0  0  0  0  0  0  0  0  0  0  0
   38.6750   29.8770   36.7070 H   0  0  0  0  0  0  0  0  0  0  0  0
   34.4950   29.6700   37.2760 H   0  0  0  0  0  0  0  0  0  0  0  0
   36.9590   28.1140   40.6460 C   0  0  0  0  0  0  0  0  0  0  0  0
   37.0480   28.8820   41.8220 C   0  0  0  0  0  0  0  0  0  0  0  0
   37.1110   28.3500   43.0830 C   0  0  0  0  0  0  0  0  0  0  0  0
   37.0900   26.9760   43.2440 C   0  0  0  0  0  0  0  0  0  0  0  0
   36.9980   26.1790   42.0570 C   0  0  0  0  0  0  0  0  0  0  0  0
   36.9790   24.8220   42.2070 C   0  0  0  0  0  0  0  0  0  0  0  0
   36.8910   24.0050   41.1040 C   0  0  0  0  0  0  0  0  0  0  0  0
   36.8200   24.5790   39.8220 C   0  0  0  0  0  0  0  0  0  0  0  0
   36.8440   25.9880   39.7330 C   0  0  0  0  0  0  0  0  0  0  0  0
   36.9360   26.7670   40.8410 C   0  0  0  0  0  0  0  0  0  0  0  0
   37.0690   29.9600   41.7470 H   0  0  0  0  0  0  0  0  0  0  0  0
   37.1780   28.9780   43.9550 H   0  0  0  0  0  0  0  0  0  0  0  0
   37.1380   26.4860   44.2050 H   0  0  0  0  0  0  0  0  0  0  0  0
   37.0340   24.3960   43.2010 H   0  0  0  0  0  0  0  0  0  0  0  0
   36.8830   22.9420   41.2970 H   0  0  0  0  0  0  0  0  0  0  0  0
   36.7510   23.8530   39.0280 H   0  0  0  0  0  0  0  0  0  0  0  0
   36.7550   26.2050   38.6880 H   0  0  0  0  0  0  0  0  0  0  0  0
   39.3040   28.8280   38.9810 O   0  0  0  0  0  0  0  0  0  0  0  0
   41.6430   29.4080   40.0140 O   0  0  0  0  0  0  0  0  0  0  0  0
   40.3490   30.0040   39.5530 P   0  0  1  0  0  0  0  0  0  0  0  0
   40.7370   31.1570   38.3890 O   0  0  0  0  0  0  0  0  0  0  0  0
   41.4860   30.4700   37.4150 C   0  0  0  0  0  0  0  0  0  0  0  0
   41.7510   29.4520   37.6920 H   0  0  0  0  0  0  0  0  0  0  0  0
   40.8050   30.4210   36.5240 H   0  0  0  0  0  0  0  0  0  0  0  0
   42.9400   31.4040   36.9030 S   0  0  0  0  0  0  0  0  0  0  0  0
   44.0540   30.8460   37.5890 H   0  0  0  0  0  0  0  0  0  0  0  0
   39.6040   30.7780   40.8550 O   0  0  0  0  0  0  0  0  0  0  0  0
   40.2090   31.4450   41.8980 C   0  0  0  0  0  0  0  0  0  0  0  0
   39.6800   31.0360   42.9230 O   0  0  0  0  0  0  0  0  0  0  0  0
   41.2090   32.3500   41.4250 N   0  0  0  0  0  0  0  0  0  0  0  0
   41.5150   33.3390   41.2840 H   0  0  0  0  0  0  0  0  0  0  0  0
   42.1570   32.1160   40.9960 H   0  0  0  0  0  0  0  0  0  0  0  0
  1  2  1  0  0  0  0
  2 26  1  0  0  0  0
  2  3  2  0  0  0  0
  3  9  1  0  0  0  0
  4  3  1  0  0  0  0
  5  4  2  0  0  0  0
  6  1  2  0  0  0  0
  6  5  1  0  0  0  0
  7  1  1  0  0  0  0
  8  5  1  0  0  0  0
  9 18  2  0  0  0  0
  9 10  1  0  0  0  0
 10 11  2  0  0  0  0
 11 12  1  0  0  0  0
 11 20  1  0  0  0  0
 12 21  1  0  0  0  0
 13 14  1  0  0  0  0
 13 12  2  0  0  0  0
 14 22  1  0  0  0  0
 15 23  1  0  0  0  0
 15 14  2  0  0  0  0
 16 15  1  0  0  0  0
 17 16  2  0  0  0  0
 17 18  1  0  0  0  0
 18 13  1  0  0  0  0
 19 10  1  0  0  0  0
 24 16  1  0  0  0  0
 25 17  1  0  0  0  0
 26 28  1  0  0  0  0
 28 27  2  1  0  0  0
 28 35  1  0  0  0  0
 29 28  1  0  0  0  0
 30 31  1  0  0  0  0
 30 29  1  0  0  0  0
 32 30  1  0  0  0  0
 33 30  1  0  0  0  0
 33 34  1  0  0  0  0
 35 36  1  0  0  0  0
 36 37  2  0  0  0  0
 38 36  1  0  0  0  0
 39 38  1  0  0  0  0
 40 38  1  0  0  0  0
M  END
>  <minimizedAffinity>
-5.07505512

$$$$
