
 OpenBabel03252508453D

 38 39  0  0  0  0  0  0  0  0999 V2000
   43.6640   34.9450   41.8820 C   0  0  0  0  0  0  0  0  0  0  0  0
   43.9140   33.6060   42.1920 C   0  0  0  0  0  0  0  0  0  0  0  0
   44.9730   33.3110   43.0160 C   0  0  0  0  0  0  0  0  0  0  0  0
   45.7560   34.3180   43.5100 C   0  0  0  0  0  0  0  0  0  0  0  0
   45.5400   35.6330   43.2270 C   0  0  0  0  0  0  0  0  0  0  0  0
   44.4650   35.8930   42.3960 C   0  0  0  0  0  0  0  0  0  0  0  0
   45.1640   32.2700   43.2550 H   0  0  0  0  0  0  0  0  0  0  0  0
   46.5820   34.0140   44.1600 H   0  0  0  0  0  0  0  0  0  0  0  0
   46.1740   36.4150   43.6320 H   0  0  0  0  0  0  0  0  0  0  0  0
   44.2530   36.9300   42.1410 H   0  0  0  0  0  0  0  0  0  0  0  0
   40.2360   35.8050   40.5250 C   0  0  0  0  0  0  0  0  0  0  0  0
   41.2710   35.5840   41.4660 C   0  0  0  0  0  0  0  0  0  0  0  0
   42.5270   35.1990   41.0040 C   0  0  0  0  0  0  0  0  0  0  0  0
   42.6920   35.0560   39.6580 N   0  0  0  0  0  0  0  0  0  0  0  0
   41.6890   35.2720   38.7720 C   0  0  0  0  0  0  0  0  0  0  0  0
   40.4760   35.6440   39.2150 N   0  0  0  0  0  0  0  0  0  0  0  0
   39.2760   36.1020   40.9230 H   0  0  0  0  0  0  0  0  0  0  0  0
   41.1240   35.7010   42.5290 H   0  0  0  0  0  0  0  0  0  0  0  0
   41.8920   35.1390   37.7160 H   0  0  0  0  0  0  0  0  0  0  0  0
   43.0420   32.5350   41.6350 C   0  0  0  0  0  0  0  0  0  0  0  0
   42.1210   32.9870   41.2110 H   0  0  0  0  0  0  0  0  0  0  0  0
   43.5940   32.1350   40.7400 H   0  0  0  0  0  0  0  0  0  0  0  0
   42.7030   31.4990   42.5770 N   0  0  0  0  0  0  0  0  0  0  0  0
   42.9540   31.8010   43.5270 H   0  0  0  0  0  0  0  0  0  0  0  0
   41.0200   31.1400   42.5750 S   0  0  0  0  0  0  0  0  0  0  0  0
   40.1980   32.3950   42.4430 O   0  0  0  0  0  0  0  0  0  0  0  0
   39.7970   32.6010   41.5380 H   0  0  0  0  0  0  0  0  0  0  0  0
   40.6200   30.3930   43.7950 O   0  0  0  0  0  0  0  0  0  0  0  0
   41.1870   30.2860   44.5850 H   0  0  0  0  0  0  0  0  0  0  0  0
   40.7220   30.1740   41.2260 O   0  0  0  0  0  0  0  0  0  0  0  0
   40.0780   29.0340   41.6620 C   0  0  0  0  0  0  0  0  0  0  0  0
   39.1820   28.8080   41.0150 H   0  0  0  0  0  0  0  0  0  0  0  0
   39.7200   29.0530   42.6880 H   0  0  0  0  0  0  0  0  0  0  0  0
   40.9880   27.8160   41.4440 C   0  0  0  0  0  0  0  0  0  0  0  0
   40.6580   27.2240   40.5830 H   0  0  0  0  0  0  0  0  0  0  0  0
   42.0430   28.1550   41.3800 H   0  0  0  0  0  0  0  0  0  0  0  0
   40.8530   26.8160   42.9710 S   0  0  0  0  0  0  0  0  0  0  0  0
   39.9240   27.4000   43.8560 H   0  0  0  0  0  0  0  0  0  0  0  0
  1  2  2  0  0  0  0
  1  6  1  0  0  0  0
  2  3  1  0  0  0  0
  3  7  1  0  0  0  0
  3  4  2  0  0  0  0
  4  8  1  0  0  0  0
  5  4  1  0  0  0  0
  5  9  1  0  0  0  0
  6  5  2  0  0  0  0
 10  6  1  0  0  0  0
 11 17  1  0  0  0  0
 11 12  1  0  0  0  0
 12 18  1  0  0  0  0
 13 12  2  0  0  0  0
 13  1  1  0  0  0  0
 14 13  1  0  0  0  0
 15 16  1  0  0  0  0
 15 14  2  0  0  0  0
 16 11  2  0  0  0  0
 19 15  1  0  0  0  0
 20  2  1  0  0  0  0
 20 23  1  0  0  0  0
 21 20  1  0  0  0  0
 22 20  1  0  0  0  0
 23 24  1  0  0  0  0
 25 23  1  0  0  0  0
 25 28  1  0  0  0  0
 26 25  1  0  0  0  0
 27 26  1  0  0  0  0
 28 29  1  0  0  0  0
 30 31  1  0  0  0  0
 30 25  1  0  0  0  0
 31 33  1  0  0  0  0
 32 31  1  0  0  0  0
 34 31  1  0  0  0  0
 34 37  1  0  0  0  0
 35 34  1  0  0  0  0
 36 34  1  0  0  0  0
 37 38  1  0  0  0  0
M  END
>  <minimizedAffinity>
-4.72259378

>  <minimizedRMSD>
0.33209005

$$$$
