
 OpenBabel03252501193D

 17 17  0  0  0  0  0  0  0  0999 V2000
   39.6340   24.9810   42.9010 C   0  0  0  0  0  0  0  0  0  0  0  0
   38.3690   25.5670   42.6620 C   0  0  0  0  0  0  0  0  0  0  0  0
   38.2500   26.9320   42.9420 C   0  0  0  0  0  0  0  0  0  0  0  0
   39.3250   27.6140   43.4190 N   0  0  0  0  0  0  0  0  0  0  0  0
   40.5120   27.0030   43.6290 C   0  0  0  0  0  0  0  0  0  0  0  0
   40.6670   25.7020   43.3740 N   0  0  0  0  0  0  0  0  0  0  0  0
   39.7560   23.9250   42.6910 H   0  0  0  0  0  0  0  0  0  0  0  0
   41.2700   27.6750   44.0090 H   0  0  0  0  0  0  0  0  0  0  0  0
   36.9250   27.5200   42.6860 C   0  0  0  0  0  0  0  0  0  0  0  0
   36.9970   28.8800   42.9180 F   0  0  0  0  0  0  0  0  0  0  0  0
   36.0850   27.0100   43.6790 F   0  0  0  0  0  0  0  0  0  0  0  0
   36.4590   27.2970   41.4460 F   0  0  0  0  0  0  0  0  0  0  0  0
   37.2290   24.7760   42.1360 C   0  0  0  0  0  0  0  0  0  0  0  0
   36.6160   24.2900   42.8940 H   0  0  0  0  0  0  0  0  0  0  0  0
   36.6020   25.4940   41.5270 H   0  0  0  0  0  0  0  0  0  0  0  0
   37.8910   23.5730   40.9390 S   0  0  0  0  0  0  0  0  0  0  0  0
   38.9760   22.8570   41.5170 H   0  0  0  0  0  0  0  0  0  0  0  0
  1  6  1  0  0  0  0
  2  1  2  0  0  0  0
  2  3  1  0  0  0  0
  3  4  2  0  0  0  0
  4  5  1  0  0  0  0
  5  8  1  0  0  0  0
  6  5  2  0  0  0  0
  7  1  1  0  0  0  0
  9 10  1  0  0  0  0
  9  3  1  0  0  0  0
  9 11  1  0  0  0  0
 12  9  1  0  0  0  0
 13  2  1  0  0  0  0
 13 14  1  0  0  0  0
 15 13  1  0  0  0  0
 16 17  1  0  0  0  0
 16 13  1  0  0  0  0
M  END
>  <minimizedAffinity>
-3.7076292

$$$$

 OpenBabel03252501193D

 17 17  0  0  0  0  0  0  0  0999 V2000
   40.3320   27.7930   43.3050 C   0  0  0  0  0  0  0  0  0  0  0  0
   38.9300   27.7450   43.1230 C   0  0  0  0  0  0  0  0  0  0  0  0
   38.3740   26.4860   42.8800 C   0  0  0  0  0  0  0  0  0  0  0  0
   39.1840   25.3950   42.8300 N   0  0  0  0  0  0  0  0  0  0  0  0
   40.5190   25.4980   43.0100 C   0  0  0  0  0  0  0  0  0  0  0  0
   41.0890   26.6830   43.2460 N   0  0  0  0  0  0  0  0  0  0  0  0
   40.7900   28.7560   43.4970 H   0  0  0  0  0  0  0  0  0  0  0  0
   41.0280   24.5460   42.9430 H   0  0  0  0  0  0  0  0  0  0  0  0
   36.9140   26.4600   42.6940 C   0  0  0  0  0  0  0  0  0  0  0  0
   36.5090   25.1440   42.5860 F   0  0  0  0  0  0  0  0  0  0  0  0
   36.6810   27.0330   41.4410 F   0  0  0  0  0  0  0  0  0  0  0  0
   36.2280   27.0650   43.6770 F   0  0  0  0  0  0  0  0  0  0  0  0
   38.0920   28.9680   43.1930 C   0  0  0  0  0  0  0  0  0  0  0  0
   37.0200   28.7890   43.2740 H   0  0  0  0  0  0  0  0  0  0  0  0
   38.4590   29.5510   44.0910 H   0  0  0  0  0  0  0  0  0  0  0  0
   38.4900   30.0000   41.7460 S   0  0  0  0  0  0  0  0  0  0  0  0
   38.4180   29.2220   40.5570 H   0  0  0  0  0  0  0  0  0  0  0  0
  1  7  1  0  0  0  0
  2 13  1  0  0  0  0
  2  1  2  0  0  0  0
  3  2  1  0  0  0  0
  4  3  2  0  0  0  0
  4  5  1  0  0  0  0
  5  6  2  0  0  0  0
  6  1  1  0  0  0  0
  8  5  1  0  0  0  0
  9  3  1  0  0  0  0
  9 12  1  0  0  0  0
 10  9  1  0  0  0  0
 11  9  1  0  0  0  0
 13 14  1  0  0  0  0
 13 15  1  0  0  0  0
 16 13  1  0  0  0  0
 17 16  1  0  0  0  0
M  END
>  <minimizedAffinity>
-3.69107485

$$$$

 OpenBabel03252501193D

 17 17  0  0  0  0  0  0  0  0999 V2000
   40.3550   27.7970   43.3050 C   0  0  0  0  0  0  0  0  0  0  0  0
   38.9650   27.7650   43.0460 C   0  0  0  0  0  0  0  0  0  0  0  0
   38.3930   26.5030   42.8580 C   0  0  0  0  0  0  0  0  0  0  0  0
   39.1780   25.3950   42.9300 N   0  0  0  0  0  0  0  0  0  0  0  0
   40.5020   25.4840   43.1810 C   0  0  0  0  0  0  0  0  0  0  0  0
   41.0860   26.6690   43.3670 N   0  0  0  0  0  0  0  0  0  0  0  0
   40.8260   28.7610   43.4570 H   0  0  0  0  0  0  0  0  0  0  0  0
   40.9910   24.5190   43.2090 H   0  0  0  0  0  0  0  0  0  0  0  0
   36.9460   26.4950   42.5890 C   0  0  0  0  0  0  0  0  0  0  0  0
   36.2950   27.0380   43.6800 F   0  0  0  0  0  0  0  0  0  0  0  0
   36.5730   25.1490   42.5560 F   0  0  0  0  0  0  0  0  0  0  0  0
   36.5940   27.1580   41.4760 F   0  0  0  0  0  0  0  0  0  0  0  0
   38.1550   29.0070   42.9820 C   0  0  0  0  0  0  0  0  0  0  0  0
   37.0760   28.8550   43.0060 H   0  0  0  0  0  0  0  0  0  0  0  0
   38.4790   29.6400   43.8620 H   0  0  0  0  0  0  0  0  0  0  0  0
   38.6670   29.9320   41.5000 S   0  0  0  0  0  0  0  0  0  0  0  0
   38.6510   29.0790   40.3620 H   0  0  0  0  0  0  0  0  0  0  0  0
  1  6  1  0  0  0  0
  1  7  1  0  0  0  0
  2  1  2  0  0  0  0
  3  4  2  0  0  0  0
  3  2  1  0  0  0  0
  4  5  1  0  0  0  0
  5  8  1  0  0  0  0
  5  6  2  0  0  0  0
  9  3  1  0  0  0  0
  9 10  1  0  0  0  0
 11  9  1  0  0  0  0
 12  9  1  0  0  0  0
 13 14  1  0  0  0  0
 13  2  1  0  0  0  0
 13 15  1  0  0  0  0
 16 13  1  0  0  0  0
 17 16  1  0  0  0  0
M  END
>  <minimizedAffinity>
-3.66109467

$$$$

 OpenBabel03252501193D

 17 17  0  0  0  0  0  0  0  0999 V2000
   38.8610   28.6680   42.9980 C   0  0  0  0  0  0  0  0  0  0  0  0
   38.1560   29.4920   42.0900 C   0  0  0  0  0  0  0  0  0  0  0  0
   36.8720   29.0690   41.7300 C   0  0  0  0  0  0  0  0  0  0  0  0
   36.3750   27.9170   42.2540 N   0  0  0  0  0  0  0  0  0  0  0  0
   37.0940   27.1680   43.1180 C   0  0  0  0  0  0  0  0  0  0  0  0
   38.3230   27.5370   43.4870 N   0  0  0  0  0  0  0  0  0  0  0  0
   39.8580   28.9720   43.2960 H   0  0  0  0  0  0  0  0  0  0  0  0
   36.5660   26.2830   43.4480 H   0  0  0  0  0  0  0  0  0  0  0  0
   36.1570   29.9430   40.7850 C   0  0  0  0  0  0  0  0  0  0  0  0
   35.9400   31.1630   41.3940 F   0  0  0  0  0  0  0  0  0  0  0  0
   34.8940   29.3700   40.6200 F   0  0  0  0  0  0  0  0  0  0  0  0
   36.8000   30.1270   39.6200 F   0  0  0  0  0  0  0  0  0  0  0  0
   38.7450   30.7430   41.5520 C   0  0  0  0  0  0  0  0  0  0  0  0
   38.8430   30.7790   40.4670 H   0  0  0  0  0  0  0  0  0  0  0  0
   38.0800   31.5850   41.9120 H   0  0  0  0  0  0  0  0  0  0  0  0
   40.3480   31.0040   42.3760 S   0  0  0  0  0  0  0  0  0  0  0  0
   41.1350   29.8210   42.2980 H   0  0  0  0  0  0  0  0  0  0  0  0
  1  7  1  0  0  0  0
  1  6  1  0  0  0  0
  2  1  2  0  0  0  0
  3  2  1  0  0  0  0
  3  4  2  0  0  0  0
  4  5  1  0  0  0  0
  5  8  1  0  0  0  0
  5  6  2  0  0  0  0
  9 10  1  0  0  0  0
  9  3  1  0  0  0  0
 11  9  1  0  0  0  0
 12  9  1  0  0  0  0
 13 15  1  0  0  0  0
 13  2  1  0  0  0  0
 13 16  1  0  0  0  0
 14 13  1  0  0  0  0
 17 16  1  0  0  0  0
M  END
>  <minimizedAffinity>
-3.62363935

$$$$

 OpenBabel03252501193D

 17 17  0  0  0  0  0  0  0  0999 V2000
   39.0040   28.7840   42.9240 C   0  0  0  0  0  0  0  0  0  0  0  0
   38.2190   29.5760   42.0530 C   0  0  0  0  0  0  0  0  0  0  0  0
   36.9300   29.1100   41.7760 C   0  0  0  0  0  0  0  0  0  0  0  0
   36.5020   27.9500   42.3410 N   0  0  0  0  0  0  0  0  0  0  0  0
   37.2940   27.2320   43.1660 C   0  0  0  0  0  0  0  0  0  0  0  0
   38.5310   27.6430   43.4560 N   0  0  0  0  0  0  0  0  0  0  0  0
   40.0060   29.1210   43.1570 H   0  0  0  0  0  0  0  0  0  0  0  0
   36.8150   26.3360   43.5360 H   0  0  0  0  0  0  0  0  0  0  0  0
   36.1310   29.9500   40.8680 C   0  0  0  0  0  0  0  0  0  0  0  0
   34.9040   29.3450   40.6780 F   0  0  0  0  0  0  0  0  0  0  0  0
   36.7790   29.8930   39.6310 F   0  0  0  0  0  0  0  0  0  0  0  0
   35.9530   31.2080   41.3030 F   0  0  0  0  0  0  0  0  0  0  0  0
   38.7350   30.8380   41.4680 C   0  0  0  0  0  0  0  0  0  0  0  0
   37.9890   31.4500   40.9600 H   0  0  0  0  0  0  0  0  0  0  0  0
   39.1970   31.4160   42.3240 H   0  0  0  0  0  0  0  0  0  0  0  0
   40.1180   30.4160   40.3620 S   0  0  0  0  0  0  0  0  0  0  0  0
   39.7260   29.3870   39.4610 H   0  0  0  0  0  0  0  0  0  0  0  0
  1  7  1  0  0  0  0
  1  6  1  0  0  0  0
  2  1  2  0  0  0  0
  3  2  1  0  0  0  0
  3  4  2  0  0  0  0
  4  5  1  0  0  0  0
  5  6  2  0  0  0  0
  5  8  1  0  0  0  0
  9 12  1  0  0  0  0
  9  3  1  0  0  0  0
 10  9  1  0  0  0  0
 11  9  1  0  0  0  0
 13  2  1  0  0  0  0
 13 15  1  0  0  0  0
 14 13  1  0  0  0  0
 16 13  1  0  0  0  0
 17 16  1  0  0  0  0
M  END
>  <minimizedAffinity>
-3.5395484

$$$$

 OpenBabel03252501193D

 17 17  0  0  0  0  0  0  0  0999 V2000
   40.0370   29.0450   42.8870 C   0  0  0  0  0  0  0  0  0  0  0  0
   38.9230   28.1770   42.9650 C   0  0  0  0  0  0  0  0  0  0  0  0
   37.7530   28.6040   42.3290 C   0  0  0  0  0  0  0  0  0  0  0  0
   37.7400   29.8000   41.6840 N   0  0  0  0  0  0  0  0  0  0  0  0
   38.8350   30.5900   41.6410 C   0  0  0  0  0  0  0  0  0  0  0  0
   39.9710   30.2190   42.2340 N   0  0  0  0  0  0  0  0  0  0  0  0
   40.9580   28.7390   43.3690 H   0  0  0  0  0  0  0  0  0  0  0  0
   38.6700   31.5080   41.0910 H   0  0  0  0  0  0  0  0  0  0  0  0
   36.6060   27.6840   42.4240 C   0  0  0  0  0  0  0  0  0  0  0  0
   36.9590   26.4830   41.8410 F   0  0  0  0  0  0  0  0  0  0  0  0
   35.6150   28.2280   41.6030 F   0  0  0  0  0  0  0  0  0  0  0  0
   36.1810   27.4700   43.6790 F   0  0  0  0  0  0  0  0  0  0  0  0
   38.9930   26.8780   43.6800 C   0  0  0  0  0  0  0  0  0  0  0  0
   39.2110   26.9490   44.7450 H   0  0  0  0  0  0  0  0  0  0  0  0
   37.9930   26.3740   43.5180 H   0  0  0  0  0  0  0  0  0  0  0  0
   40.2100   25.8330   42.8170 S   0  0  0  0  0  0  0  0  0  0  0  0
   41.4260   26.5480   42.6340 H   0  0  0  0  0  0  0  0  0  0  0  0
  1  2  1  0  0  0  0
  1  7  1  0  0  0  0
  2 13  1  0  0  0  0
  3  9  1  0  0  0  0
  3  2  2  0  0  0  0
  4  3  1  0  0  0  0
  5  4  2  0  0  0  0
  5  6  1  0  0  0  0
  6  1  2  0  0  0  0
  8  5  1  0  0  0  0
  9 12  1  0  0  0  0
 10  9  1  0  0  0  0
 11  9  1  0  0  0  0
 13 14  1  0  0  0  0
 15 13  1  0  0  0  0
 16 13  1  0  0  0  0
 17 16  1  0  0  0  0
M  END
>  <minimizedAffinity>
-3.52038884

$$$$

 OpenBabel03252501193D

 17 17  0  0  0  0  0  0  0  0999 V2000
   39.0360   27.8200   43.3450 C   0  0  0  0  0  0  0  0  0  0  0  0
   38.0280   27.0430   42.7280 C   0  0  0  0  0  0  0  0  0  0  0  0
   38.3350   25.7000   42.4860 C   0  0  0  0  0  0  0  0  0  0  0  0
   39.5540   25.2160   42.8440 N   0  0  0  0  0  0  0  0  0  0  0  0
   40.4810   26.0050   43.4310 C   0  0  0  0  0  0  0  0  0  0  0  0
   40.2270   27.2910   43.6800 N   0  0  0  0  0  0  0  0  0  0  0  0
   38.8260   28.8640   43.5460 H   0  0  0  0  0  0  0  0  0  0  0  0
   41.3990   25.4780   43.6570 H   0  0  0  0  0  0  0  0  0  0  0  0
   37.2700   24.9110   41.8430 C   0  0  0  0  0  0  0  0  0  0  0  0
   36.2190   24.7880   42.7310 F   0  0  0  0  0  0  0  0  0  0  0  0
   37.7910   23.6240   41.6910 F   0  0  0  0  0  0  0  0  0  0  0  0
   36.8270   25.4320   40.6870 F   0  0  0  0  0  0  0  0  0  0  0  0
   36.7110   27.6210   42.3620 C   0  0  0  0  0  0  0  0  0  0  0  0
   36.0090   26.9210   41.9090 H   0  0  0  0  0  0  0  0  0  0  0  0
   36.2780   28.0460   43.3170 H   0  0  0  0  0  0  0  0  0  0  0  0
   37.0130   29.0560   41.2830 S   0  0  0  0  0  0  0  0  0  0  0  0
   37.8880   28.6940   40.2220 H   0  0  0  0  0  0  0  0  0  0  0  0
  1  7  1  0  0  0  0
  1  6  1  0  0  0  0
  2  1  2  0  0  0  0
  3  2  1  0  0  0  0
  3  4  2  0  0  0  0
  4  5  1  0  0  0  0
  5  8  1  0  0  0  0
  5  6  2  0  0  0  0
  9  3  1  0  0  0  0
  9 10  1  0  0  0  0
 11  9  1  0  0  0  0
 12  9  1  0  0  0  0
 13  2  1  0  0  0  0
 13 15  1  0  0  0  0
 14 13  1  0  0  0  0
 16 13  1  0  0  0  0
 17 16  1  0  0  0  0
M  END
>  <minimizedAffinity>
-3.48014379

$$$$

 OpenBabel03252501193D

 17 17  0  0  0  0  0  0  0  0999 V2000
   37.1590   29.1410   40.0650 C   0  0  0  0  0  0  0  0  0  0  0  0
   37.1710   28.5510   41.3510 C   0  0  0  0  0  0  0  0  0  0  0  0
   36.9230   27.1770   41.4110 C   0  0  0  0  0  0  0  0  0  0  0  0
   36.6880   26.4880   40.2630 N   0  0  0  0  0  0  0  0  0  0  0  0
   36.6880   27.1020   39.0590 C   0  0  0  0  0  0  0  0  0  0  0  0
   36.9200   28.4130   38.9590 N   0  0  0  0  0  0  0  0  0  0  0  0
   37.3490   30.2050   39.9880 H   0  0  0  0  0  0  0  0  0  0  0  0
   36.4860   26.4240   38.2410 H   0  0  0  0  0  0  0  0  0  0  0  0
   36.9410   26.5860   42.7600 C   0  0  0  0  0  0  0  0  0  0  0  0
   38.2290   26.6600   43.2530 F   0  0  0  0  0  0  0  0  0  0  0  0
   36.6810   25.2250   42.5810 F   0  0  0  0  0  0  0  0  0  0  0  0
   36.0920   27.1680   43.6210 F   0  0  0  0  0  0  0  0  0  0  0  0
   37.4390   29.3500   42.5730 C   0  0  0  0  0  0  0  0  0  0  0  0
   36.7560   30.1830   42.7390 H   0  0  0  0  0  0  0  0  0  0  0  0
   37.3900   28.6250   43.4400 H   0  0  0  0  0  0  0  0  0  0  0  0
   39.1700   29.9110   42.5040 S   0  0  0  0  0  0  0  0  0  0  0  0
   39.4350   30.5240   41.2480 H   0  0  0  0  0  0  0  0  0  0  0  0
  1  2  1  0  0  0  0
  2  3  2  0  0  0  0
  2 13  1  0  0  0  0
  3  9  1  0  0  0  0
  4  3  1  0  0  0  0
  5  4  2  0  0  0  0
  6  5  1  0  0  0  0
  6  1  2  0  0  0  0
  7  1  1  0  0  0  0
  8  5  1  0  0  0  0
  9 10  1  0  0  0  0
  9 12  1  0  0  0  0
 11  9  1  0  0  0  0
 13 14  1  0  0  0  0
 13 15  1  0  0  0  0
 16 13  1  0  0  0  0
 17 16  1  0  0  0  0
M  END
>  <minimizedAffinity>
-3.47618055

$$$$

 OpenBabel03252501193D

 17 17  0  0  0  0  0  0  0  0999 V2000
   39.4410   27.9400   42.7780 C   0  0  0  0  0  0  0  0  0  0  0  0
   39.1650   26.6330   42.3130 C   0  0  0  0  0  0  0  0  0  0  0  0
   37.8510   26.1800   42.4630 C   0  0  0  0  0  0  0  0  0  0  0  0
   36.9240   26.9940   43.0340 N   0  0  0  0  0  0  0  0  0  0  0  0
   37.2420   28.2350   43.4620 C   0  0  0  0  0  0  0  0  0  0  0  0
   38.4850   28.7050   43.3360 N   0  0  0  0  0  0  0  0  0  0  0  0
   40.4510   28.3180   42.6730 H   0  0  0  0  0  0  0  0  0  0  0  0
   36.4000   28.7610   43.8920 H   0  0  0  0  0  0  0  0  0  0  0  0
   37.5880   24.8170   41.9710 C   0  0  0  0  0  0  0  0  0  0  0  0
   36.2660   24.5080   42.2240 F   0  0  0  0  0  0  0  0  0  0  0  0
   38.3400   23.9680   42.7880 F   0  0  0  0  0  0  0  0  0  0  0  0
   37.8510   24.6480   40.6650 F   0  0  0  0  0  0  0  0  0  0  0  0
   40.2160   25.7880   41.6920 C   0  0  0  0  0  0  0  0  0  0  0  0
   39.8530   24.8830   41.2060 H   0  0  0  0  0  0  0  0  0  0  0  0
   40.7480   26.4480   40.9420 H   0  0  0  0  0  0  0  0  0  0  0  0
   41.4540   25.4080   42.9720 S   0  0  0  0  0  0  0  0  0  0  0  0
   40.8130   24.9060   44.1380 H   0  0  0  0  0  0  0  0  0  0  0  0
  1  6  1  0  0  0  0
  2  3  1  0  0  0  0
  2  1  2  0  0  0  0
  3  4  2  0  0  0  0
  4  5  1  0  0  0  0
  5  8  1  0  0  0  0
  6  5  2  0  0  0  0
  7  1  1  0  0  0  0
  9 10  1  0  0  0  0
  9  3  1  0  0  0  0
  9 11  1  0  0  0  0
 12  9  1  0  0  0  0
 13  2  1  0  0  0  0
 13 16  1  0  0  0  0
 14 13  1  0  0  0  0
 15 13  1  0  0  0  0
 16 17  1  0  0  0  0
M  END
>  <minimizedAffinity>
-3.41823459

$$$$
