
 OpenBabel03252505493D

 19 20  0  0  0  0  0  0  0  0999 V2000
   44.9010   35.1480   44.8160 C   0  0  0  0  0  0  0  0  0  0  0  0
   45.8610   34.8250   43.8580 C   0  0  0  0  0  0  0  0  0  0  0  0
   46.7280   33.7860   44.1560 C   0  0  0  0  0  0  0  0  0  0  0  0
   46.6160   33.1360   45.3360 N   0  0  0  0  0  0  0  0  0  0  0  0
   45.6740   33.4830   46.2310 C   0  0  0  0  0  0  0  0  0  0  0  0
   44.8060   34.4850   45.9930 N   0  0  0  0  0  0  0  0  0  0  0  0
   44.1940   35.9440   44.6530 H   0  0  0  0  0  0  0  0  0  0  0  0
   47.4600   33.5540   43.4020 H   0  0  0  0  0  0  0  0  0  0  0  0
   45.8650   35.6330   42.5930 C   0  0  0  0  0  0  0  0  0  0  0  0
   45.3810   36.8740   42.9360 F   0  0  0  0  0  0  0  0  0  0  0  0
   45.0220   35.0160   41.7060 F   0  0  0  0  0  0  0  0  0  0  0  0
   47.1620   35.6550   42.1190 F   0  0  0  0  0  0  0  0  0  0  0  0
   45.5530   32.8150   47.4540 O   0  0  0  0  0  0  0  0  0  0  0  0
   46.0270   31.4960   47.6380 C   0  0  0  0  0  3  0  0  0  0  0  0
   46.1360   30.7830   46.3200 C   0  0  0  0  0  2  0  0  0  0  0  0
   45.0280   29.8180   46.0530 C   0  0  0  0  0  2  0  0  0  0  0  0
   44.7890   28.8440   47.1720 C   0  0  0  0  0  2  0  0  0  0  0  0
   45.2490   29.3260   48.5210 C   0  0  0  0  0  2  0  0  0  0  0  0
   45.0630   30.8120   48.5850 C   0  0  0  0  0  2  0  0  0  0  0  0
  1  6  1  0  0  0  0
  2  3  1  0  0  0  0
  2  1  2  0  0  0  0
  3  4  2  0  0  0  0
  4  5  1  0  0  0  0
  5 13  1  0  0  0  0
  6  5  2  0  0  0  0
  7  1  1  0  0  0  0
  8  3  1  0  0  0  0
  9 10  1  0  0  0  0
  9  2  1  0  0  0  0
 11  9  1  0  0  0  0
 12  9  1  0  0  0  0
 13 14  1  0  0  0  0
 14 19  1  0  0  0  0
 15 14  1  0  0  0  0
 16 15  1  0  0  0  0
 16 17  1  0  0  0  0
 17 18  1  0  0  0  0
 18 19  1  0  0  0  0
M  END
>  <minimizedAffinity>
-4.88060045

>  <minimizedRMSD>
0.884328425

$$$$
