
 OpenBabel03242520193D

 32 34  0  0  1  0  0  0  0  0999 V2000
   44.4450   34.3280   41.3300 C   0  0  0  0  0  0  0  0  0  0  0  0
   43.4480   35.0950   40.7100 C   0  0  0  0  0  0  0  0  0  0  0  0
   43.0220   34.7440   39.4390 C   0  0  0  0  0  0  0  0  0  0  0  0
   43.6110   33.6550   38.8610 N   0  0  0  0  0  0  0  0  0  0  0  0
   44.5770   32.9390   39.5010 C   0  0  0  0  0  0  0  0  0  0  0  0
   44.9890   33.2750   40.7250 N   0  0  0  0  0  0  0  0  0  0  0  0
   43.0420   35.9440   41.2520 H   0  0  0  0  0  0  0  0  0  0  0  0
   44.9850   32.0910   38.9600 H   0  0  0  0  0  0  0  0  0  0  0  0
   44.9160   34.7110   42.6920 C   0  0  0  0  0  0  0  0  0  0  0  0
   46.3720   35.3080   42.6600 C   0  0  0  0  0  0  0  0  0  0  0  0
   45.1810   36.0380   43.1100 C   0  0  0  0  0  0  0  0  0  0  0  0
   44.8100   33.8760   43.4260 H   0  0  0  0  0  0  0  0  0  0  0  0
   47.0470   34.9060   43.4370 H   0  0  0  0  0  0  0  0  0  0  0  0
   46.8060   35.5000   41.6690 H   0  0  0  0  0  0  0  0  0  0  0  0
   45.0520   36.3070   44.1910 H   0  0  0  0  0  0  0  0  0  0  0  0
   44.8930   36.9050   42.4480 H   0  0  0  0  0  0  0  0  0  0  0  0
   41.9570   35.5320   38.7650 C   0  0  0  0  0  0  0  0  0  0  0  0
   41.5390   34.9210   37.9420 H   0  0  0  0  0  0  0  0  0  0  0  0
   42.3770   36.4520   38.2970 H   0  0  0  0  0  0  0  0  0  0  0  0
   40.8370   35.8750   39.7380 C   0  0  0  0  0  0  0  0  0  0  0  0
   40.6000   36.9520   39.6110 H   0  0  0  0  0  0  0  0  0  0  0  0
   41.2220   35.7560   40.7590 H   0  0  0  0  0  0  0  0  0  0  0  0
   39.4910   33.9120   40.2790 C   0  0  0  0  0  0  0  0  0  0  0  0
   40.2690   33.5140   41.1740 O   0  0  0  0  0  0  0  0  0  0  0  0
   39.6530   35.0540   39.4680 N   0  0  0  0  0  0  0  0  0  0  0  0
   39.0910   35.4290   38.6940 H   0  0  0  0  0  0  0  0  0  0  0  0
   38.2410   33.1050   40.0140 C   0  0  2  0  0  0  0  0  0  0  0  0
   38.1960   31.7990   40.6720 C   0  0  0  0  0  0  0  0  0  0  0  0
   38.1820   30.5730   39.8130 C   0  0  0  0  0  0  0  0  0  0  0  0
   38.8780   30.7160   38.5000 C   0  0  0  0  0  0  0  0  0  0  0  0
   38.8230   32.0650   37.8910 C   0  0  0  0  0  0  0  0  0  0  0  0
   37.9740   33.0790   38.5660 C   0  0  0  0  0  0  0  0  0  0  0  0
  1  9  1  0  0  0  0
  2  7  1  0  0  0  0
  2  1  2  0  0  0  0
  3  2  1  0  0  0  0
  4  3  2  0  0  0  0
  4  5  1  0  0  0  0
  5  6  2  0  0  0  0
  6  1  1  0  0  0  0
  8  5  1  0  0  0  0
  9 11  1  0  0  0  0
  9 12  1  0  0  0  0
 10  9  1  0  0  0  0
 10 11  1  0  0  0  0
 10 13  1  0  0  0  0
 11 15  1  0  0  0  0
 14 10  1  0  0  0  0
 16 11  1  0  0  0  0
 17  3  1  0  0  0  0
 17 20  1  0  0  0  0
 18 17  1  0  0  0  0
 19 17  1  0  0  0  0
 20 22  1  0  0  0  0
 21 20  1  0  0  0  0
 23 24  2  0  0  0  0
 25 20  1  0  0  0  0
 25 23  1  0  0  0  0
 26 25  1  0  0  0  0
 27 23  1  6  0  0  0
 27 28  1  0  0  0  0
 29 28  1  0  0  0  0
 30 29  1  0  0  0  0
 31 30  2  0  0  0  0
 31 32  1  0  0  0  0
 32 27  1  0  0  0  0
M  END
>  <minimizedAffinity>
-5.06810474

>  <minimizedRMSD>
1.16146159

$$$$
