
 OpenBabel03252505513D

 22 23  0  0  0  0  0  0  0  0999 V2000
   44.6060   35.5050   45.1700 C   0  0  0  0  0  0  0  0  0  0  0  0
   45.2190   35.0120   44.0180 C   0  0  0  0  0  0  0  0  0  0  0  0
   45.8650   33.7690   44.0880 C   0  0  0  0  0  0  0  0  0  0  0  0
   45.8650   33.1140   45.2600 N   0  0  0  0  0  0  0  0  0  0  0  0
   45.2620   33.6230   46.3560 C   0  0  0  0  0  0  0  0  0  0  0  0
   44.6340   34.8030   46.3320 N   0  0  0  0  0  0  0  0  0  0  0  0
   44.1010   36.4640   45.1340 H   0  0  0  0  0  0  0  0  0  0  0  0
   46.3100   33.4560   43.1750 H   0  0  0  0  0  0  0  0  0  0  0  0
   45.1490   35.8720   42.7950 C   0  0  0  0  0  0  0  0  0  0  0  0
   45.2410   37.1760   43.2500 F   0  0  0  0  0  0  0  0  0  0  0  0
   43.9400   35.6280   42.1980 F   0  0  0  0  0  0  0  0  0  0  0  0
   46.2140   35.5310   41.9730 F   0  0  0  0  0  0  0  0  0  0  0  0
   45.2630   32.9510   47.5670 O   0  0  0  0  0  0  0  0  0  0  0  0
   45.9560   31.7670   47.8070 C   0  0  0  0  0  0  0  0  0  0  0  0
   45.9360   31.6080   48.9060 H   0  0  0  0  0  0  0  0  0  0  0  0
   45.4120   30.9060   47.3770 H   0  0  0  0  0  0  0  0  0  0  0  0
   47.4060   31.7740   47.3990 C   0  0  0  0  0  3  0  0  0  0  0  0
   47.6760   30.3990   46.8020 C   0  0  0  0  0  2  0  0  0  0  0  0
   48.9970   29.8260   47.2630 C   0  0  0  0  0  2  0  0  0  0  0  0
   48.9820   29.5130   48.7450 C   0  0  0  0  0  2  0  0  0  0  0  0
   48.3630   30.6830   49.4640 C   0  0  0  0  0  2  0  0  0  0  0  0
   48.3240   31.9090   48.5930 C   0  0  0  0  0  2  0  0  0  0  0  0
  1  6  1  0  0  0  0
  2  3  1  0  0  0  0
  2  1  2  0  0  0  0
  3  4  2  0  0  0  0
  4  5  1  0  0  0  0
  5 13  1  0  0  0  0
  6  5  2  0  0  0  0
  7  1  1  0  0  0  0
  8  3  1  0  0  0  0
  9 10  1  0  0  0  0
  9  2  1  0  0  0  0
 11  9  1  0  0  0  0
 12  9  1  0  0  0  0
 13 14  1  0  0  0  0
 14 15  1  0  0  0  0
 16 14  1  0  0  0  0
 17 14  1  0  0  0  0
 17 22  1  0  0  0  0
 18 19  1  0  0  0  0
 18 17  1  0  0  0  0
 19 20  1  0  0  0  0
 20 21  1  0  0  0  0
 22 21  1  0  0  0  0
M  END
>  <minimizedAffinity>
-4.80971098

>  <minimizedRMSD>
1.11849594

$$$$
