
 OpenBabel03252503103D

 24 26  0  0  1  0  0  0  0  0999 V2000
   39.4070   31.8710   40.7310 C   0  0  0  0  0  0  0  0  0  0  0  0
   38.5640   30.8580   40.2140 C   0  0  0  0  0  0  0  0  0  0  0  0
   37.4230   31.3110   39.6060 C   0  0  0  0  0  0  0  0  0  0  0  0
   37.1160   32.6290   39.5050 N   0  0  0  0  0  0  0  0  0  0  0  0
   37.9640   33.5680   40.0220 C   0  0  0  0  0  0  0  0  0  0  0  0
   39.1070   33.1690   40.6330 N   0  0  0  0  0  0  0  0  0  0  0  0
   40.3420   31.6460   41.2360 H   0  0  0  0  0  0  0  0  0  0  0  0
   37.6860   34.6070   39.9210 H   0  0  0  0  0  0  0  0  0  0  0  0
   36.5340   30.4000   39.0480 C   0  0  0  0  0  0  0  0  0  0  0  0
   35.4370   29.7450   39.4820 C   0  0  0  0  0  0  0  0  0  0  0  0
   34.7210   28.8810   38.7890 C   0  0  0  0  0  0  0  0  0  0  0  0
   35.1570   28.6530   37.5160 C   0  0  0  0  0  0  0  0  0  0  0  0
   36.6290   29.7460   37.4090 S   0  0  0  0  0  0  0  0  0  0  0  0
   34.9270   29.8360   40.4300 H   0  0  0  0  0  0  0  0  0  0  0  0
   33.8700   28.2520   38.8620 H   0  0  0  0  0  0  0  0  0  0  0  0
   34.9910   28.1090   36.5820 H   0  0  0  0  0  0  0  0  0  0  0  0
   38.9550   29.5060   40.3480 C   0  0  2  0  0  3  0  0  0  0  0  0
   39.6900   29.1170   39.3320 O   0  0  0  0  0  1  0  0  0  0  0  0
   38.5780   28.5830   41.5020 C   0  0  0  0  0  3  0  0  0  0  0  0
   37.6890   27.4720   40.9920 C   0  0  0  0  0  2  0  0  0  0  0  0
   37.0860   26.6570   42.0580 C   0  0  0  0  0  2  0  0  0  0  0  0
   36.6230   27.3300   43.2910 C   0  0  0  0  0  2  0  0  0  0  0  0
   37.4910   28.5210   43.6790 C   0  0  0  0  0  2  0  0  0  0  0  0
   37.5850   29.3350   42.4200 C   0  0  0  0  0  2  0  0  0  0  0  0
  1  7  1  0  0  0  0
  2 17  1  0  0  0  0
  2  1  2  0  0  0  0
  3  2  1  0  0  0  0
  4  3  2  0  0  0  0
  4  5  1  0  0  0  0
  5  6  2  0  0  0  0
  6  1  1  0  0  0  0
  8  5  1  0  0  0  0
  9 10  2  0  0  0  0
  9  3  1  0  0  0  0
 10 14  1  0  0  0  0
 11 15  1  0  0  0  0
 11 10  1  0  0  0  0
 12 11  2  0  0  0  0
 13 12  1  0  0  0  0
 13  9  1  0  0  0  0
 16 12  1  0  0  0  0
 17 18  1  6  0  0  0
 17 19  1  0  0  0  0
 19 24  1  0  0  0  0
 20 19  1  0  0  0  0
 20 21  1  0  0  0  0
 21 22  1  0  0  0  0
 22 23  1  0  0  0  0
 24 23  1  0  0  0  0
M  END
>  <minimizedAffinity>
-5.07856798

$$$$

 OpenBabel03252503103D

 24 26  0  0  1  0  0  0  0  0999 V2000
   40.0470   30.5140   42.5830 C   0  0  0  0  0  0  0  0  0  0  0  0
   38.9080   29.8260   42.1000 C   0  0  0  0  0  0  0  0  0  0  0  0
   38.2930   30.4110   41.0240 C   0  0  0  0  0  0  0  0  0  0  0  0
   38.7370   31.5610   40.4580 N   0  0  0  0  0  0  0  0  0  0  0  0
   39.8430   32.1860   40.9630 C   0  0  0  0  0  0  0  0  0  0  0  0
   40.4860   31.6460   42.0280 N   0  0  0  0  0  0  0  0  0  0  0  0
   40.6240   30.1560   43.4300 H   0  0  0  0  0  0  0  0  0  0  0  0
   40.1660   33.1000   40.4840 H   0  0  0  0  0  0  0  0  0  0  0  0
   37.1750   29.8080   40.4610 C   0  0  0  0  0  0  0  0  0  0  0  0
   35.8480   29.8400   40.7010 C   0  0  0  0  0  0  0  0  0  0  0  0
   34.9220   29.1620   40.0510 C   0  0  0  0  0  0  0  0  0  0  0  0
   35.3840   28.3640   39.0450 C   0  0  0  0  0  0  0  0  0  0  0  0
   37.1950   28.6630   39.1140 S   0  0  0  0  0  0  0  0  0  0  0  0
   35.3050   30.4410   41.4160 H   0  0  0  0  0  0  0  0  0  0  0  0
   33.8740   28.9960   40.0200 H   0  0  0  0  0  0  0  0  0  0  0  0
   35.1230   27.6540   38.2540 H   0  0  0  0  0  0  0  0  0  0  0  0
   38.5100   28.6270   42.7360 C   0  0  2  0  0  3  0  0  0  0  0  0
   37.6260   28.8540   43.6790 O   0  0  0  0  0  1  0  0  0  0  0  0
   39.0320   27.2330   42.4060 C   0  0  0  0  0  3  0  0  0  0  0  0
   37.8680   26.2830   42.2370 C   0  0  0  0  0  2  0  0  0  0  0  0
   38.2640   24.8690   42.1390 C   0  0  0  0  0  2  0  0  0  0  0  0
   39.3680   24.3800   42.9940 C   0  0  0  0  0  2  0  0  0  0  0  0
   40.4470   25.4310   43.2290 C   0  0  0  0  0  2  0  0  0  0  0  0
   39.6870   26.6460   43.6790 C   0  0  0  0  0  2  0  0  0  0  0  0
  1  7  1  0  0  0  0
  2  1  1  0  0  0  0
  2 17  1  0  0  0  0
  3  2  2  0  0  0  0
  4  5  2  0  0  0  0
  4  3  1  0  0  0  0
  5  6  1  0  0  0  0
  6  1  2  0  0  0  0
  8  5  1  0  0  0  0
  9 10  2  0  0  0  0
  9  3  1  0  0  0  0
 10 14  1  0  0  0  0
 11 10  1  0  0  0  0
 12 13  1  0  0  0  0
 12 11  2  0  0  0  0
 13  9  1  0  0  0  0
 15 11  1  0  0  0  0
 16 12  1  0  0  0  0
 17 18  1  1  0  0  0
 19 17  1  0  0  0  0
 19 24  1  0  0  0  0
 20 19  1  0  0  0  0
 21 20  1  0  0  0  0
 21 22  1  0  0  0  0
 22 23  1  0  0  0  0
 23 24  1  0  0  0  0
M  END
>  <minimizedAffinity>
-5.05790138

$$$$

 OpenBabel03252503103D

 24 26  0  0  1  0  0  0  0  0999 V2000
   35.8010   28.3210   37.6790 C   0  0  0  0  0  0  0  0  0  0  0  0
   36.3270   29.3030   38.5520 C   0  0  0  0  0  0  0  0  0  0  0  0
   36.9940   30.3280   37.9340 C   0  0  0  0  0  0  0  0  0  0  0  0
   37.1450   30.4030   36.5880 N   0  0  0  0  0  0  0  0  0  0  0  0
   36.6180   29.4270   35.7880 C   0  0  0  0  0  0  0  0  0  0  0  0
   35.9480   28.3920   36.3530 N   0  0  0  0  0  0  0  0  0  0  0  0
   35.2500   27.4580   38.0410 H   0  0  0  0  0  0  0  0  0  0  0  0
   36.7580   29.5220   34.7210 H   0  0  0  0  0  0  0  0  0  0  0  0
   37.5350   31.3540   38.6990 C   0  0  0  0  0  0  0  0  0  0  0  0
   37.0730   32.5150   39.2080 C   0  0  0  0  0  0  0  0  0  0  0  0
   37.7660   33.3890   39.9110 C   0  0  0  0  0  0  0  0  0  0  0  0
   39.0720   33.0550   40.1290 C   0  0  0  0  0  0  0  0  0  0  0  0
   39.2080   31.4390   39.2660 S   0  0  0  0  0  0  0  0  0  0  0  0
   36.0690   32.9140   39.1770 H   0  0  0  0  0  0  0  0  0  0  0  0
   37.6780   34.3230   40.4060 H   0  0  0  0  0  0  0  0  0  0  0  0
   40.0210   33.3480   40.5860 H   0  0  0  0  0  0  0  0  0  0  0  0
   36.1210   29.1630   39.9450 C   0  0  2  0  0  3  0  0  0  0  0  0
   34.9120   29.5390   40.2900 O   0  0  0  0  0  1  0  0  0  0  0  0
   37.1520   28.6590   40.9480 C   0  0  0  0  0  3  0  0  0  0  0  0
   36.5890   27.4770   41.7030 C   0  0  0  0  0  2  0  0  0  0  0  0
   37.4120   27.0560   42.8480 C   0  0  0  0  0  2  0  0  0  0  0  0
   38.0560   28.0960   43.6790 C   0  0  0  0  0  2  0  0  0  0  0  0
   38.4860   29.3180   42.8760 C   0  0  0  0  0  2  0  0  0  0  0  0
   37.2600   29.6950   42.0930 C   0  0  0  0  0  2  0  0  0  0  0  0
  1  7  1  0  0  0  0
  1  2  1  0  0  0  0
  2 17  1  0  0  0  0
  3  2  2  0  0  0  0
  3  9  1  0  0  0  0
  4  3  1  0  0  0  0
  5  6  1  0  0  0  0
  5  4  2  0  0  0  0
  6  1  2  0  0  0  0
  8  5  1  0  0  0  0
  9 10  2  0  0  0  0
  9 13  1  0  0  0  0
 10 11  1  0  0  0  0
 11 12  2  0  0  0  0
 11 15  1  0  0  0  0
 12 16  1  0  0  0  0
 13 12  1  0  0  0  0
 14 10  1  0  0  0  0
 17 18  1  1  0  0  0
 17 19  1  0  0  0  0
 19 20  1  0  0  0  0
 19 24  1  0  0  0  0
 20 21  1  0  0  0  0
 21 22  1  0  0  0  0
 23 22  1  0  0  0  0
 24 23  1  0  0  0  0
M  END
>  <minimizedAffinity>
-5.03165913

$$$$

 OpenBabel03252503103D

 24 26  0  0  1  0  0  0  0  0999 V2000
   39.1300   32.4690   41.1470 C   0  0  0  0  0  0  0  0  0  0  0  0
   38.4870   31.5150   40.3240 C   0  0  0  0  0  0  0  0  0  0  0  0
   38.8490   31.5530   39.0030 C   0  0  0  0  0  0  0  0  0  0  0  0
   39.7550   32.4380   38.5140 N   0  0  0  0  0  0  0  0  0  0  0  0
   40.3470   33.3400   39.3520 C   0  0  0  0  0  0  0  0  0  0  0  0
   40.0210   33.3410   40.6690 N   0  0  0  0  0  0  0  0  0  0  0  0
   38.9320   32.5430   42.2120 H   0  0  0  0  0  0  0  0  0  0  0  0
   41.0640   34.0270   38.9250 H   0  0  0  0  0  0  0  0  0  0  0  0
   38.2900   30.6470   38.1100 C   0  0  0  0  0  0  0  0  0  0  0  0
   37.1460   30.5890   37.3970 C   0  0  0  0  0  0  0  0  0  0  0  0
   36.7760   29.6070   36.5980 C   0  0  0  0  0  0  0  0  0  0  0  0
   37.6570   28.5700   36.5040 C   0  0  0  0  0  0  0  0  0  0  0  0
   39.0110   29.1090   37.6230 S   0  0  0  0  0  0  0  0  0  0  0  0
   36.3640   31.3300   37.3120 H   0  0  0  0  0  0  0  0  0  0  0  0
   35.9890   29.3050   35.9540 H   0  0  0  0  0  0  0  0  0  0  0  0
   37.8710   27.5960   36.0540 H   0  0  0  0  0  0  0  0  0  0  0  0
   37.5610   30.6180   40.9070 C   0  0  2  0  0  3  0  0  0  0  0  0
   36.3670   31.1560   41.0000 O   0  0  0  0  0  1  0  0  0  0  0  0
   37.8760   29.2070   41.3910 C   0  0  0  0  0  3  0  0  0  0  0  0
   36.9130   28.2280   40.7600 C   0  0  0  0  0  2  0  0  0  0  0  0
   36.9830   26.8740   41.3310 C   0  0  0  0  0  2  0  0  0  0  0  0
   37.1780   26.7270   42.7900 C   0  0  0  0  0  2  0  0  0  0  0  0
   38.0560   27.8220   43.3850 C   0  0  0  0  0  2  0  0  0  0  0  0
   37.4510   29.0990   42.8760 C   0  0  0  0  0  2  0  0  0  0  0  0
  1  7  1  0  0  0  0
  2 17  1  0  0  0  0
  2  1  2  0  0  0  0
  3  2  1  0  0  0  0
  4  3  2  0  0  0  0
  4  5  1  0  0  0  0
  5  6  2  0  0  0  0
  6  1  1  0  0  0  0
  8  5  1  0  0  0  0
  9  3  1  0  0  0  0
 10  9  2  0  0  0  0
 11 10  1  0  0  0  0
 12 11  2  0  0  0  0
 12 13  1  0  0  0  0
 13  9  1  0  0  0  0
 14 10  1  0  0  0  0
 15 11  1  0  0  0  0
 16 12  1  0  0  0  0
 17 18  1  1  0  0  0
 17 19  1  0  0  0  0
 19 24  1  0  0  0  0
 20 21  1  0  0  0  0
 20 19  1  0  0  0  0
 21 22  1  0  0  0  0
 22 23  1  0  0  0  0
 24 23  1  0  0  0  0
M  END
>  <minimizedAffinity>
-4.90072441

$$$$

 OpenBabel03252503103D

 24 26  0  0  1  0  0  0  0  0999 V2000
   35.3970   27.1810   37.9700 C   0  0  0  0  0  0  0  0  0  0  0  0
   35.8450   27.8180   39.1520 C   0  0  0  0  0  0  0  0  0  0  0  0
   36.6100   27.0350   39.9770 C   0  0  0  0  0  0  0  0  0  0  0  0
   36.9170   25.7450   39.6900 N   0  0  0  0  0  0  0  0  0  0  0  0
   36.4580   25.1760   38.5340 C   0  0  0  0  0  0  0  0  0  0  0  0
   35.6980   25.9120   37.6850 N   0  0  0  0  0  0  0  0  0  0  0  0
   34.7850   27.6920   37.2330 H   0  0  0  0  0  0  0  0  0  0  0  0
   36.7250   24.1470   38.3410 H   0  0  0  0  0  0  0  0  0  0  0  0
   37.1150   27.5680   41.1560 C   0  0  0  0  0  0  0  0  0  0  0  0
   36.6310   27.7760   42.3980 C   0  0  0  0  0  0  0  0  0  0  0  0
   37.2780   28.3300   43.4050 C   0  0  0  0  0  0  0  0  0  0  0  0
   38.5580   28.7160   43.1310 C   0  0  0  0  0  0  0  0  0  0  0  0
   38.7400   28.2320   41.3680 S   0  0  0  0  0  0  0  0  0  0  0  0
   35.6690   27.4950   42.8030 H   0  0  0  0  0  0  0  0  0  0  0  0
   37.1620   28.6060   44.4220 H   0  0  0  0  0  0  0  0  0  0  0  0
   39.4720   29.1740   43.5190 H   0  0  0  0  0  0  0  0  0  0  0  0
   35.4930   29.1700   39.3790 C   0  0  2  0  0  3  0  0  0  0  0  0
   34.4050   29.2650   40.1080 O   0  0  0  0  0  1  0  0  0  0  0  0
   36.2460   30.3840   38.8480 C   0  0  0  0  0  3  0  0  0  0  0  0
   37.5680   29.9450   38.2610 C   0  0  0  0  0  2  0  0  0  0  0  0
   38.4690   31.0580   37.9260 C   0  0  0  0  0  2  0  0  0  0  0  0
   38.5300   32.2220   38.8370 C   0  0  0  0  0  2  0  0  0  0  0  0
   37.1910   32.5330   39.4940 C   0  0  0  0  0  2  0  0  0  0  0  0
   36.7400   31.2150   40.0570 C   0  0  0  0  0  2  0  0  0  0  0  0
  1  2  1  0  0  0  0
  2 17  1  0  0  0  0
  2  3  2  0  0  0  0
  3  9  1  0  0  0  0
  4  3  1  0  0  0  0
  5  4  2  0  0  0  0
  6  1  2  0  0  0  0
  6  5  1  0  0  0  0
  7  1  1  0  0  0  0
  8  5  1  0  0  0  0
  9 13  1  0  0  0  0
  9 10  2  0  0  0  0
 10 14  1  0  0  0  0
 10 11  1  0  0  0  0
 11 15  1  0  0  0  0
 12 11  2  0  0  0  0
 12 16  1  0  0  0  0
 13 12  1  0  0  0  0
 17 18  1  6  0  0  0
 19 17  1  0  0  0  0
 19 24  1  0  0  0  0
 20 19  1  0  0  0  0
 21 20  1  0  0  0  0
 21 22  1  0  0  0  0
 22 23  1  0  0  0  0
 23 24  1  0  0  0  0
M  END
>  <minimizedAffinity>
-4.78555965

$$$$

 OpenBabel03252503103D

 24 26  0  0  1  0  0  0  0  0999 V2000
   36.7320   31.3810   40.5950 C   0  0  0  0  0  0  0  0  0  0  0  0
   36.6470   30.2840   39.7050 C   0  0  0  0  0  0  0  0  0  0  0  0
   37.0900   30.5360   38.4320 C   0  0  0  0  0  0  0  0  0  0  0  0
   37.5730   31.7440   38.0470 N   0  0  0  0  0  0  0  0  0  0  0  0
   37.6330   32.7720   38.9460 C   0  0  0  0  0  0  0  0  0  0  0  0
   37.2070   32.5710   40.2180 N   0  0  0  0  0  0  0  0  0  0  0  0
   36.4150   31.3130   41.6310 H   0  0  0  0  0  0  0  0  0  0  0  0
   38.0250   33.7190   38.6020 H   0  0  0  0  0  0  0  0  0  0  0  0
   37.0660   29.5220   37.4830 C   0  0  0  0  0  0  0  0  0  0  0  0
   37.9630   28.6300   37.0130 C   0  0  0  0  0  0  0  0  0  0  0  0
   37.7500   27.7350   36.0680 C   0  0  0  0  0  0  0  0  0  0  0  0
   36.4910   27.7340   35.5410 C   0  0  0  0  0  0  0  0  0  0  0  0
   35.6750   29.0830   36.4850 S   0  0  0  0  0  0  0  0  0  0  0  0
   38.9780   28.4560   37.3400 H   0  0  0  0  0  0  0  0  0  0  0  0
   38.2300   26.9580   35.5280 H   0  0  0  0  0  0  0  0  0  0  0  0
   35.8070   27.2780   34.8190 H   0  0  0  0  0  0  0  0  0  0  0  0
   36.1420   29.0520   40.1810 C   0  0  2  0  0  3  0  0  0  0  0  0
   34.8300   29.0240   40.1370 O   0  0  0  0  0  1  0  0  0  0  0  0
   36.9800   27.8900   40.7020 C   0  0  0  0  0  3  0  0  0  0  0  0
   36.5530   26.6110   40.0190 C   0  0  0  0  0  2  0  0  0  0  0  0
   37.1410   25.3980   40.6080 C   0  0  0  0  0  2  0  0  0  0  0  0
   37.2830   25.3190   42.0780 C   0  0  0  0  0  2  0  0  0  0  0  0
   37.5870   26.6690   42.7180 C   0  0  0  0  0  2  0  0  0  0  0  0
   36.5420   27.5890   42.1550 C   0  0  0  0  0  2  0  0  0  0  0  0
  1  7  1  0  0  0  0
  2 17  1  0  0  0  0
  2  1  2  0  0  0  0
  3  2  1  0  0  0  0
  4  3  2  0  0  0  0
  4  5  1  0  0  0  0
  5  6  2  0  0  0  0
  6  1  1  0  0  0  0
  8  5  1  0  0  0  0
  9  3  1  0  0  0  0
 10 14  1  0  0  0  0
 10  9  2  0  0  0  0
 11 10  1  0  0  0  0
 12 11  2  0  0  0  0
 12 13  1  0  0  0  0
 13  9  1  0  0  0  0
 15 11  1  0  0  0  0
 16 12  1  0  0  0  0
 17 18  1  1  0  0  0
 17 19  1  0  0  0  0
 19 24  1  0  0  0  0
 20 21  1  0  0  0  0
 20 19  1  0  0  0  0
 21 22  1  0  0  0  0
 22 23  1  0  0  0  0
 24 23  1  0  0  0  0
M  END
>  <minimizedAffinity>
-4.78161001

$$$$

 OpenBabel03252503103D

 24 26  0  0  1  0  0  0  0  0999 V2000
   35.4540   29.3540   38.5300 C   0  0  0  0  0  0  0  0  0  0  0  0
   36.5210   29.7940   39.3490 C   0  0  0  0  0  0  0  0  0  0  0  0
   37.6440   30.1890   38.6710 C   0  0  0  0  0  0  0  0  0  0  0  0
   37.7350   30.1620   37.3180 N   0  0  0  0  0  0  0  0  0  0  0  0
   36.6750   29.7270   36.5720 C   0  0  0  0  0  0  0  0  0  0  0  0
   35.5410   29.3260   37.1980 N   0  0  0  0  0  0  0  0  0  0  0  0
   34.5080   29.0150   38.9420 H   0  0  0  0  0  0  0  0  0  0  0  0
   36.7860   29.7210   35.4970 H   0  0  0  0  0  0  0  0  0  0  0  0
   38.7450   30.6560   39.3800 C   0  0  0  0  0  0  0  0  0  0  0  0
   39.8180   30.0860   39.9660 C   0  0  0  0  0  0  0  0  0  0  0  0
   40.7700   30.7140   40.6270 C   0  0  0  0  0  0  0  0  0  0  0  0
   40.6280   32.0700   40.7030 C   0  0  0  0  0  0  0  0  0  0  0  0
   39.0660   32.3480   39.7790 S   0  0  0  0  0  0  0  0  0  0  0  0
   40.1140   29.0470   39.9670 H   0  0  0  0  0  0  0  0  0  0  0  0
   41.6710   30.5430   41.1600 H   0  0  0  0  0  0  0  0  0  0  0  0
   41.0490   33.0090   41.0750 H   0  0  0  0  0  0  0  0  0  0  0  0
   36.3490   29.8040   40.7530 C   0  0  2  0  0  3  0  0  0  0  0  0
   35.9960   30.9930   41.1840 O   0  0  0  0  0  1  0  0  0  0  0  0
   36.5540   28.6120   41.6810 C   0  0  0  0  0  3  0  0  0  0  0  0
   37.5800   28.9610   42.7340 C   0  0  0  0  0  2  0  0  0  0  0  0
   38.0180   27.8110   43.5420 C   0  0  0  0  0  2  0  0  0  0  0  0
   38.2070   26.5050   42.8730 C   0  0  0  0  0  2  0  0  0  0  0  0
   37.2200   26.2710   41.7360 C   0  0  0  0  0  2  0  0  0  0  0  0
   37.3180   27.5160   40.9000 C   0  0  0  0  0  2  0  0  0  0  0  0
  1  7  1  0  0  0  0
  1  2  1  0  0  0  0
  2 17  1  0  0  0  0
  3  2  2  0  0  0  0
  3  9  1  0  0  0  0
  4  3  1  0  0  0  0
  5  6  1  0  0  0  0
  5  4  2  0  0  0  0
  6  1  2  0  0  0  0
  8  5  1  0  0  0  0
  9 13  1  0  0  0  0
  9 10  2  0  0  0  0
 10 14  1  0  0  0  0
 10 11  1  0  0  0  0
 11 12  2  0  0  0  0
 11 15  1  0  0  0  0
 12 16  1  0  0  0  0
 13 12  1  0  0  0  0
 17 18  1  1  0  0  0
 17 19  1  0  0  0  0
 19 20  1  0  0  0  0
 20 21  1  0  0  0  0
 22 21  1  0  0  0  0
 23 22  1  0  0  0  0
 24 19  1  0  0  0  0
 24 23  1  0  0  0  0
M  END
>  <minimizedAffinity>
-4.71471834

$$$$

 OpenBabel03252503103D

 24 26  0  0  1  0  0  0  0  0999 V2000
   38.8970   31.4350   38.9620 C   0  0  0  0  0  0  0  0  0  0  0  0
   38.6550   30.3100   39.7860 C   0  0  0  0  0  0  0  0  0  0  0  0
   38.8660   30.5180   41.1240 C   0  0  0  0  0  0  0  0  0  0  0  0
   39.2760   31.7080   41.6280 N   0  0  0  0  0  0  0  0  0  0  0  0
   39.4960   32.7650   40.7880 C   0  0  0  0  0  0  0  0  0  0  0  0
   39.3000   32.6080   39.4550 N   0  0  0  0  0  0  0  0  0  0  0  0
   38.7660   31.4020   37.8840 H   0  0  0  0  0  0  0  0  0  0  0  0
   39.8210   33.6970   41.2270 H   0  0  0  0  0  0  0  0  0  0  0  0
   38.6420   29.4830   42.0230 C   0  0  0  0  0  0  0  0  0  0  0  0
   37.6050   29.0910   42.7930 C   0  0  0  0  0  0  0  0  0  0  0  0
   37.5920   28.0640   43.6200 C   0  0  0  0  0  0  0  0  0  0  0  0
   38.7530   27.3480   43.6750 C   0  0  0  0  0  0  0  0  0  0  0  0
   39.8210   28.2490   42.4830 S   0  0  0  0  0  0  0  0  0  0  0  0
   36.6070   29.5030   42.8420 H   0  0  0  0  0  0  0  0  0  0  0  0
   36.9680   27.5510   44.3070 H   0  0  0  0  0  0  0  0  0  0  0  0
   39.2770   26.4980   44.1220 H   0  0  0  0  0  0  0  0  0  0  0  0
   38.2200   29.1030   39.1900 C   0  0  2  0  0  3  0  0  0  0  0  0
   39.2200   28.4500   38.6450 O   0  0  0  0  0  1  0  0  0  0  0  0
   36.7810   28.6010   39.1500 C   0  0  0  0  0  3  0  0  0  0  0  0
   36.3630   28.3730   37.7150 C   0  0  0  0  0  2  0  0  0  0  0  0
   34.9260   28.1050   37.5500 C   0  0  0  0  0  2  0  0  0  0  0  0
   33.9630   28.8570   38.3830 C   0  0  0  0  0  2  0  0  0  0  0  0
   34.4970   29.1660   39.7760 C   0  0  0  0  0  2  0  0  0  0  0  0
   35.8470   29.7760   39.5280 C   0  0  0  0  0  2  0  0  0  0  0  0
  1  6  2  0  0  0  0
  1  2  1  0  0  0  0
  2  3  2  0  0  0  0
  3  4  1  0  0  0  0
  3  9  1  0  0  0  0
  5  8  1  0  0  0  0
  5  4  2  0  0  0  0
  6  5  1  0  0  0  0
  7  1  1  0  0  0  0
  9 13  1  0  0  0  0
  9 10  2  0  0  0  0
 10 14  1  0  0  0  0
 10 11  1  0  0  0  0
 11 12  2  0  0  0  0
 11 15  1  0  0  0  0
 12 16  1  0  0  0  0
 13 12  1  0  0  0  0
 17 18  1  6  0  0  0
 17  2  1  0  0  0  0
 19 17  1  0  0  0  0
 19 24  1  0  0  0  0
 20 19  1  0  0  0  0
 21 20  1  0  0  0  0
 21 22  1  0  0  0  0
 22 23  1  0  0  0  0
 24 23  1  0  0  0  0
M  END
>  <minimizedAffinity>
-4.6186657

$$$$

 OpenBabel03252503103D

 24 26  0  0  1  0  0  0  0  0999 V2000
   39.8430   31.4980   38.6630 C   0  0  0  0  0  0  0  0  0  0  0  0
   39.0490   30.8940   39.6670 C   0  0  0  0  0  0  0  0  0  0  0  0
   39.6660   29.8890   40.3650 C   0  0  0  0  0  0  0  0  0  0  0  0
   40.9410   29.4960   40.1180 N   0  0  0  0  0  0  0  0  0  0  0  0
   41.6650   30.1120   39.1350 C   0  0  0  0  0  0  0  0  0  0  0  0
   41.0980   31.1130   38.4170 N   0  0  0  0  0  0  0  0  0  0  0  0
   39.4730   32.3060   38.0400 H   0  0  0  0  0  0  0  0  0  0  0  0
   42.6780   29.7720   38.9690 H   0  0  0  0  0  0  0  0  0  0  0  0
   38.9810   29.2400   41.3850 C   0  0  0  0  0  0  0  0  0  0  0  0
   38.6220   29.5540   42.6470 C   0  0  0  0  0  0  0  0  0  0  0  0
   37.9740   28.7740   43.4900 C   0  0  0  0  0  0  0  0  0  0  0  0
   37.6480   27.5400   43.0070 C   0  0  0  0  0  0  0  0  0  0  0  0
   38.3310   27.5990   41.3030 S   0  0  0  0  0  0  0  0  0  0  0  0
   38.7520   30.4890   43.1740 H   0  0  0  0  0  0  0  0  0  0  0  0
   37.5830   28.7500   44.4760 H   0  0  0  0  0  0  0  0  0  0  0  0
   37.1690   26.5780   43.2150 H   0  0  0  0  0  0  0  0  0  0  0  0
   37.7310   31.3640   39.8750 C   0  0  2  0  0  3  0  0  0  0  0  0
   37.7110   32.3810   40.7050 O   0  0  0  0  0  1  0  0  0  0  0  0
   36.4710   30.7790   39.2460 C   0  0  0  0  0  3  0  0  0  0  0  0
   35.7060   29.9920   40.2850 C   0  0  0  0  0  2  0  0  0  0  0  0
   34.5950   29.2010   39.7310 C   0  0  0  0  0  2  0  0  0  0  0  0
   34.7830   28.5260   38.4290 C   0  0  0  0  0  2  0  0  0  0  0  0
   35.6710   29.3150   37.4740 C   0  0  0  0  0  2  0  0  0  0  0  0
   36.8920   29.6400   38.2870 C   0  0  0  0  0  2  0  0  0  0  0  0
  1  2  1  0  0  0  0
  2 17  1  0  0  0  0
  2  3  2  0  0  0  0
  3  9  1  0  0  0  0
  4  3  1  0  0  0  0
  5  4  2  0  0  0  0
  6  1  2  0  0  0  0
  6  5  1  0  0  0  0
  7  1  1  0  0  0  0
  8  5  1  0  0  0  0
  9 10  2  0  0  0  0
 10 14  1  0  0  0  0
 10 11  1  0  0  0  0
 11 15  1  0  0  0  0
 12 16  1  0  0  0  0
 12 11  2  0  0  0  0
 13  9  1  0  0  0  0
 13 12  1  0  0  0  0
 17 18  1  1  0  0  0
 19 17  1  0  0  0  0
 19 20  1  0  0  0  0
 21 20  1  0  0  0  0
 22 21  1  0  0  0  0
 23 24  1  0  0  0  0
 23 22  1  0  0  0  0
 24 19  1  0  0  0  0
M  END
>  <minimizedAffinity>
-4.57906294

$$$$
