
 OpenBabel03242515003D

 34 36  0  0  0  0  0  0  0  0999 V2000
   42.3000   34.7550   41.4840 C   0  0  0  0  0  0  0  0  0  0  0  0
   42.3890   34.9140   42.5840 H   0  0  0  0  0  0  0  0  0  0  0  0
   41.7790   33.7600   41.3660 H   0  0  0  0  0  0  0  0  0  0  0  0
   41.4410   35.7870   40.8300 C   0  0  0  0  0  0  0  0  0  0  0  0
   40.8030   36.2330   41.6320 H   0  0  0  0  0  0  0  0  0  0  0  0
   42.0050   36.6160   40.3740 H   0  0  0  0  0  0  0  0  0  0  0  0
   42.1060   36.0690   37.8740 Cl  0  0  0  0  0  0  0  0  0  0  0  0
   40.7180   35.2300   38.4800 C   0  0  0  0  0  0  0  0  0  0  0  0
   40.5000   35.1570   39.8740 C   0  0  0  0  0  0  0  0  0  0  0  0
   39.3820   34.4770   40.2660 C   0  0  0  0  0  0  0  0  0  0  0  0
   38.4470   33.8570   39.4520 C   0  0  0  0  0  0  0  0  0  0  0  0
   38.6790   33.9410   38.0890 C   0  0  0  0  0  0  0  0  0  0  0  0
   37.5530   33.1870   36.9630 Cl  0  0  0  0  0  0  0  0  0  0  0  0
   39.7920   34.6140   37.6280 C   0  0  0  0  0  0  0  0  0  0  0  0
   39.1880   34.4040   41.3410 H   0  0  0  0  0  0  0  0  0  0  0  0
   37.5930   33.3420   39.8630 H   0  0  0  0  0  0  0  0  0  0  0  0
   39.9650   34.6750   36.5550 H   0  0  0  0  0  0  0  0  0  0  0  0
   43.9340   34.6040   40.7400 S   0  0  0  0  0  0  0  0  0  0  0  0
   45.2260   34.3330   41.9610 C   0  0  0  0  0  0  0  0  0  0  0  0
   46.5170   34.7360   41.6050 C   0  0  0  0  0  0  0  0  0  0  0  0
   47.5520   34.5450   42.5210 C   0  0  0  0  0  0  0  0  0  0  0  0
   47.2430   33.9740   43.7150 N   0  0  0  0  0  0  0  0  0  0  0  0
   45.9980   33.5910   44.0420 C   0  0  0  0  0  0  0  0  0  0  0  0
   45.0120   33.7780   43.1570 N   0  0  0  0  0  0  0  0  0  0  0  0
   46.6920   35.1860   40.6380 H   0  0  0  0  0  0  0  0  0  0  0  0
   48.5520   34.8510   42.2640 H   0  0  0  0  0  0  0  0  0  0  0  0
   45.7740   32.9910   45.3410 C   0  0  0  0  0  0  0  0  0  0  0  0
   45.4190   33.7580   46.2730 O   0  0  0  0  0  0  0  0  0  0  0  0
   45.9490   31.5180   45.6000 C   0  0  0  0  0  3  0  0  0  0  0  0
   45.5530   30.7800   44.3390 C   0  0  0  0  0  2  0  0  0  0  0  0
   45.8940   29.3280   44.4020 C   0  0  0  0  0  2  0  0  0  0  0  0
   47.3630   29.1380   44.5910 C   0  0  0  0  0  2  0  0  0  0  0  0
   48.0230   30.4800   44.8260 C   0  0  0  0  0  2  0  0  0  0  0  0
   47.3430   31.1700   46.0130 C   0  0  0  0  0  2  0  0  0  0  0  0
  1  2  1  0  0  0  0
  3  1  1  0  0  0  0
  4  1  1  0  0  0  0
  4  5  1  0  0  0  0
  6  4  1  0  0  0  0
  7  8  1  0  0  0  0
  8  9  1  0  0  0  0
  9 10  2  0  0  0  0
  9  4  1  0  0  0  0
 10 15  1  0  0  0  0
 11 16  1  0  0  0  0
 11 10  1  0  0  0  0
 12 11  2  0  0  0  0
 13 12  1  0  0  0  0
 14 12  1  0  0  0  0
 14  8  2  0  0  0  0
 17 14  1  0  0  0  0
 18  1  1  0  0  0  0
 18 19  1  0  0  0  0
 19 24  1  0  0  0  0
 20 19  2  0  0  0  0
 20 21  1  0  0  0  0
 21 22  2  0  0  0  0
 22 23  1  0  0  0  0
 23 27  1  0  0  0  0
 24 23  2  0  0  0  0
 25 20  1  0  0  0  0
 26 21  1  0  0  0  0
 27 29  1  0  0  0  0
 27 28  2  0  0  0  0
 29 34  1  0  0  0  0
 30 31  1  0  0  0  0
 30 29  1  0  0  0  0
 31 32  1  0  0  0  0
 32 33  1  0  0  0  0
 33 34  1  0  0  0  0
M  END
>  <minimizedAffinity>
-5.84820414

>  <minimizedRMSD>
1.18282819

$$$$
