
 OpenBabel03252508503D

 25 27  0  0  0  0  0  0  0  0999 V2000
   45.6270   34.0460   40.9330 C   0  0  0  0  0  0  0  0  0  0  0  0
   46.3200   34.6470   41.9780 C   0  0  0  0  0  0  0  0  0  0  0  0
   47.6770   34.9230   41.7820 C   0  0  0  0  0  0  0  0  0  0  0  0
   48.2380   34.5910   40.5890 N   0  0  0  0  0  0  0  0  0  0  0  0
   47.5290   34.0090   39.6030 C   0  0  0  0  0  0  0  0  0  0  0  0
   46.2150   33.7360   39.7800 N   0  0  0  0  0  0  0  0  0  0  0  0
   48.2480   35.3970   42.5880 H   0  0  0  0  0  0  0  0  0  0  0  0
   47.9900   33.7500   38.6600 H   0  0  0  0  0  0  0  0  0  0  0  0
   45.6290   34.9690   43.2280 C   0  0  0  0  0  0  0  0  0  0  0  0
   45.0610   36.1950   43.4830 C   0  0  0  0  0  0  0  0  0  0  0  0
   44.5330   36.0600   44.7440 C   0  0  0  0  0  0  0  0  0  0  0  0
   44.7700   34.8130   45.2370 N   0  0  0  0  0  0  0  0  0  0  0  0
   45.4340   34.1820   44.2960 N   0  0  0  0  0  0  0  0  0  0  0  0
   45.0510   37.0300   42.8270 H   0  0  0  0  0  0  0  0  0  0  0  0
   43.9970   36.8170   45.3070 H   0  0  0  0  0  0  0  0  0  0  0  0
   44.4780   34.4540   46.1660 H   0  0  0  0  0  0  0  0  0  0  0  0
   44.2930   33.7730   41.1230 O   0  0  0  0  0  0  0  0  0  0  0  0
   43.2350   34.4830   40.6350 C   0  0  0  0  0  0  0  0  0  0  0  0
   43.0300   35.7390   40.7250 O   0  0  0  0  0  0  0  0  0  0  0  0
   41.9850   34.1300   39.8610 C   0  0  0  0  0  3  0  0  0  0  0  0
   41.6270   35.2460   38.9130 C   0  0  0  0  0  2  0  0  0  0  0  0
   40.5440   34.6870   38.0090 C   0  0  0  0  0  2  0  0  0  0  0  0
   39.2930   34.5100   38.8290 C   0  0  0  0  0  2  0  0  0  0  0  0
   39.5170   34.4030   40.2990 C   0  0  0  0  0  2  0  0  0  0  0  0
   40.8200   33.7950   40.7120 C   0  0  0  0  0  2  0  0  0  0  0  0
  1 17  1  0  0  0  0
  1  2  1  0  0  0  0
  2  9  1  0  0  0  0
  3  2  2  0  0  0  0
  3  7  1  0  0  0  0
  4  3  1  0  0  0  0
  5  6  1  0  0  0  0
  5  4  2  0  0  0  0
  6  1  2  0  0  0  0
  8  5  1  0  0  0  0
  9 10  1  0  0  0  0
  9 13  2  0  0  0  0
 10 11  2  0  0  0  0
 11 12  1  0  0  0  0
 11 15  1  0  0  0  0
 12 16  1  0  0  0  0
 13 12  1  0  0  0  0
 14 10  1  0  0  0  0
 18 19  2  0  0  0  0
 18 17  1  0  0  0  0
 20 18  1  0  0  0  0
 20 25  1  0  0  0  0
 21 20  1  0  0  0  0
 22 23  1  0  0  0  0
 22 21  1  0  0  0  0
 23 24  1  0  0  0  0
 24 25  1  0  0  0  0
M  END
>  <minimizedAffinity>
-5.88740492

>  <minimizedRMSD>
0.902196527

$$$$
