
 OpenBabel03252502363D

 21 22  0  0  1  0  0  0  0  0999 V2000
   46.7040   35.1180   42.1050 C   0  0  2  0  0  0  0  0  0  0  0  0
   46.3100   36.1580   42.0310 H   0  0  0  0  0  0  0  0  0  0  0  0
   45.2560   35.2460   44.0850 C   0  0  0  0  0  0  0  0  0  0  0  0
   46.3390   34.6120   43.4240 C   0  0  0  0  0  0  0  0  0  0  0  0
   46.9800   33.5630   44.0890 C   0  0  0  0  0  0  0  0  0  0  0  0
   46.5240   33.2220   45.3180 N   0  0  0  0  0  0  0  0  0  0  0  0
   45.4990   33.8440   45.9080 C   0  0  0  0  0  0  0  0  0  0  0  0
   44.8520   34.8550   45.3130 N   0  0  0  0  0  0  0  0  0  0  0  0
   44.7190   36.0640   43.6240 H   0  0  0  0  0  0  0  0  0  0  0  0
   47.8110   33.0650   43.6140 H   0  0  0  0  0  0  0  0  0  0  0  0
   45.1190   33.5830   46.8970 H   0  0  0  0  0  0  0  0  0  0  0  0
   46.0780   34.3740   40.9440 C   0  0  0  0  0  3  0  0  0  0  0  0
   47.1090   33.8890   39.9690 C   0  0  0  0  0  2  0  0  0  0  0  0
   46.6410   32.7230   39.1380 C   0  0  0  0  0  2  0  0  0  0  0  0
   45.1330   32.7650   38.9630 C   0  0  0  0  0  2  0  0  0  0  0  0
   44.5610   32.4630   40.3090 C   0  0  0  0  0  2  0  0  0  0  0  0
   45.0980   33.3330   41.3750 C   0  0  0  0  0  2  0  0  0  0  0  0
   48.2250   35.1330   42.0470 C   0  0  0  0  0  0  0  0  0  0  0  0
   48.6880   35.1160   43.0550 H   0  0  0  0  0  0  0  0  0  0  0  0
   48.6180   34.3490   41.3780 H   0  0  0  0  0  0  0  0  0  0  0  0
   48.5180   36.0940   41.5770 H   0  0  0  0  0  0  0  0  0  0  0  0
  1  2  1  6  0  0  0
  1  4  1  0  0  0  0
  3  8  1  0  0  0  0
  4  3  2  0  0  0  0
  4  5  1  0  0  0  0
  5  6  2  0  0  0  0
  6  7  1  0  0  0  0
  7 11  1  0  0  0  0
  8  7  2  0  0  0  0
  9  3  1  0  0  0  0
 10  5  1  0  0  0  0
 12 17  1  0  0  0  0
 12  1  1  0  0  0  0
 13 12  1  0  0  0  0
 14 13  1  0  0  0  0
 15 14  1  0  0  0  0
 15 16  1  0  0  0  0
 16 17  1  0  0  0  0
 18  1  1  0  0  0  0
 18 19  1  0  0  0  0
 20 18  1  0  0  0  0
 21 18  1  0  0  0  0
M  END
>  <minimizedAffinity>
-3.99186635

>  <minimizedRMSD>
0.352059692

$$$$
