
 OpenBabel03242510313D

 35 37  0  0  1  0  0  0  0  0999 V2000
   43.6910   33.7810   41.2540 C   0  0  1  0  0  0  0  0  0  0  0  0
   43.0080   34.9570   40.5110 C   0  0  0  0  0  0  0  0  0  0  0  0
   42.3050   34.3460   39.3360 C   0  0  0  0  0  0  0  0  0  0  0  0
   43.4090   33.9520   38.3760 C   0  0  0  0  0  0  0  0  0  0  0  0
   44.4180   33.1090   38.9710 C   0  0  0  0  0  0  0  0  0  0  0  0
   44.7970   33.2790   40.4700 C   0  0  1  0  0  0  0  0  0  0  0  0
   42.8980   33.0220   41.4030 H   0  0  0  0  0  0  0  0  0  0  0  0
   43.8490   35.5700   40.1230 H   0  0  0  0  0  0  0  0  0  0  0  0
   42.3370   35.5070   41.1910 H   0  0  0  0  0  0  0  0  0  0  0  0
   41.7000   33.4770   39.6590 H   0  0  0  0  0  0  0  0  0  0  0  0
   41.6610   35.0700   38.8310 H   0  0  0  0  0  0  0  0  0  0  0  0
   42.8910   33.4330   37.5440 H   0  0  0  0  0  0  0  0  0  0  0  0
   43.8110   34.9020   37.9560 H   0  0  0  0  0  0  0  0  0  0  0  0
   43.9130   32.0710   39.0120 H   0  0  0  0  0  0  0  0  0  0  0  0
   45.2340   32.9200   38.3120 H   0  0  0  0  0  0  0  0  0  0  0  0
   45.2200   32.2910   40.6580 H   0  0  0  0  0  0  0  0  0  0  0  0
   44.7460   35.9810   44.2360 C   0  0  0  0  0  0  0  0  0  0  0  0
   44.2030   35.6370   43.0160 C   0  0  0  0  0  0  0  0  0  0  0  0
   44.2050   34.3080   42.5540 C   0  0  0  0  0  0  0  0  0  0  0  0
   44.7670   33.4250   43.3870 N   0  0  0  0  0  0  0  0  0  0  0  0
   45.2950   33.7300   44.5610 C   0  0  0  0  0  0  0  0  0  0  0  0
   45.2910   35.0280   45.0060 N   0  0  0  0  0  0  0  0  0  0  0  0
   44.6470   37.0320   44.4040 H   0  0  0  0  0  0  0  0  0  0  0  0
   43.7310   36.3260   42.2970 H   0  0  0  0  0  0  0  0  0  0  0  0
   45.7610   33.0660   45.2740 H   0  0  0  0  0  0  0  0  0  0  0  0
   45.8460   34.1990   40.4570 O   0  0  0  0  0  0  0  0  0  0  0  0
   46.9430   33.6430   39.8190 C   0  0  0  0  0  0  0  0  0  0  0  0
   46.9620   34.3290   38.8850 H   0  0  0  0  0  0  0  0  0  0  0  0
   46.7480   32.6940   39.2800 H   0  0  0  0  0  0  0  0  0  0  0  0
   48.2840   33.8640   40.3730 C   0  0  0  0  0  0  0  0  0  0  0  0
   48.1100   33.9660   41.8940 C   0  0  0  0  0  0  0  0  0  0  0  0
   48.1040   32.5670   42.5110 C   0  0  0  0  0  0  0  0  0  0  0  0
   49.5250   32.0430   42.4750 C   0  0  0  0  0  0  0  0  0  0  0  0
   50.2100   32.5190   41.2020 C   0  0  0  0  0  0  0  0  0  0  0  0
   49.1350   32.6020   40.1510 C   0  0  0  0  0  0  0  0  0  0  0  0
  1  7  1  1  0  0  0
  1 19  1  0  0  0  0
  2  9  1  0  0  0  0
  2  1  1  0  0  0  0
  3 10  1  0  0  0  0
  3  2  1  0  0  0  0
  4  5  1  0  0  0  0
  4  3  1  0  0  0  0
  5 14  1  0  0  0  0
  5  6  1  0  0  0  0
  6 16  1  1  0  0  0
  6  1  1  0  0  0  0
  8  2  1  0  0  0  0
 11  3  1  0  0  0  0
 12  4  1  0  0  0  0
 13  4  1  0  0  0  0
 15  5  1  0  0  0  0
 17 23  1  0  0  0  0
 17 22  1  0  0  0  0
 18 17  2  0  0  0  0
 19 18  1  0  0  0  0
 19 20  2  0  0  0  0
 20 21  1  0  0  0  0
 21 22  2  0  0  0  0
 21 25  1  0  0  0  0
 24 18  1  0  0  0  0
 26  6  1  0  0  0  0
 27 30  1  0  0  0  0
 27 26  1  0  0  0  0
 28 27  1  0  0  0  0
 29 27  1  0  0  0  0
 30 31  1  0  0  0  0
 31 32  1  0  0  0  0
 33 32  1  0  0  0  0
 34 33  1  0  0  0  0
 35 30  1  0  0  0  0
 35 34  1  0  0  0  0
M  END
>  <minimizedAffinity>
-4.28767967

>  <minimizedRMSD>
3.05167627

$$$$
