
 OpenBabel03252508013D

 26 28  0  0  1  0  0  0  0  0999 V2000
   36.6930   27.2390   39.5810 C   0  0  0  0  0  0  0  0  0  0  0  0
   35.7270   27.1450   38.5320 C   0  0  0  0  0  0  0  0  0  0  0  0
   35.4390   28.3270   37.8360 C   0  0  0  0  0  0  0  0  0  0  0  0
   36.0890   29.4610   38.2030 N   0  0  0  0  0  0  0  0  0  0  0  0
   37.0020   29.4710   39.2220 C   0  0  0  0  0  0  0  0  0  0  0  0
   37.3110   28.3870   39.9100 N   0  0  0  0  0  0  0  0  0  0  0  0
   35.2510   26.2070   38.2970 H   0  0  0  0  0  0  0  0  0  0  0  0
   34.7170   28.3160   37.0330 H   0  0  0  0  0  0  0  0  0  0  0  0
   37.6830   30.7620   39.5500 C   0  0  1  0  0  0  0  0  0  0  0  0
   36.9540   32.0630   39.3160 C   0  0  0  0  0  0  0  0  0  0  0  0
   37.1050   31.4900   40.6980 C   0  0  1  0  0  0  0  0  0  0  0  0
   38.7790   30.7570   39.4260 H   0  0  0  0  0  0  0  0  0  0  0  0
   37.6150   32.9120   39.0440 H   0  0  0  0  0  0  0  0  0  0  0  0
   36.0230   31.9460   38.7580 H   0  0  0  0  0  0  0  0  0  0  0  0
   37.7480   32.0480   41.4080 H   0  0  0  0  0  0  0  0  0  0  0  0
   35.8170   31.0550   41.2500 N   0  0  0  0  0  0  0  0  0  0  0  0
   35.5840   31.6730   42.0420 H   0  0  0  0  0  0  0  0  0  0  0  0
   35.0330   31.1400   40.5710 H   0  0  0  0  0  0  0  0  0  0  0  0
   36.9560   25.9920   40.2550 C   0  0  0  0  0  0  0  0  0  0  0  0
   36.9720   24.8570   39.6630 O   0  0  0  0  0  0  0  0  0  0  0  0
   37.2380   25.9170   41.7360 C   0  0  1  0  0  3  0  0  0  0  0  0
   38.6900   25.6720   41.9050 C   0  0  0  0  0  2  0  0  0  0  0  0
   39.4640   26.8880   42.3290 C   0  0  0  0  0  2  0  0  0  0  0  0
   38.8430   27.2630   43.6800 C   0  0  0  0  0  2  0  0  0  0  0  0
   37.5130   27.8810   43.3390 C   0  0  0  0  0  3  0  0  0  0  0  0
   36.6460   27.0670   42.4600 C   0  0  0  0  0  3  0  0  0  0  0  0
  1  6  1  0  0  0  0
  1 19  1  0  0  0  0
  2  1  2  0  0  0  0
  3  4  2  0  0  0  0
  3  2  1  0  0  0  0
  4  5  1  0  0  0  0
  5  9  1  0  0  0  0
  5  6  2  0  0  0  0
  7  2  1  0  0  0  0
  8  3  1  0  0  0  0
  9 12  1  6  0  0  0
  9 11  1  0  0  0  0
 10  9  1  0  0  0  0
 10 11  1  0  0  0  0
 11 16  1  0  0  0  0
 11 15  1  1  0  0  0
 13 10  1  0  0  0  0
 14 10  1  0  0  0  0
 16 17  1  0  0  0  0
 18 16  1  0  0  0  0
 20 19  2  0  0  0  0
 21 19  1  6  0  0  0
 21 22  1  0  0  0  0
 21 26  1  0  0  0  0
 22 23  1  0  0  0  0
 23 24  1  0  0  0  0
 25 24  1  0  0  0  0
 26 25  2  0  0  0  0
M  END
>  <minimizedAffinity>
-5.18408346

$$$$

 OpenBabel03252508013D

 26 28  0  0  1  0  0  0  0  0999 V2000
   38.2440   30.8970   40.9660 C   0  0  0  0  0  0  0  0  0  0  0  0
   37.0840   31.6610   40.6320 C   0  0  0  0  0  0  0  0  0  0  0  0
   37.2750   32.7500   39.7710 C   0  0  0  0  0  0  0  0  0  0  0  0
   38.5320   32.9970   39.3210 N   0  0  0  0  0  0  0  0  0  0  0  0
   39.5960   32.2190   39.6880 C   0  0  0  0  0  0  0  0  0  0  0  0
   39.4720   31.1820   40.4950 N   0  0  0  0  0  0  0  0  0  0  0  0
   36.1150   31.4030   41.0300 H   0  0  0  0  0  0  0  0  0  0  0  0
   36.4340   33.3640   39.4850 H   0  0  0  0  0  0  0  0  0  0  0  0
   40.9430   32.5550   39.1320 C   0  0  1  0  0  0  0  0  0  0  0  0
   41.6950   31.5180   38.3350 C   0  0  0  0  0  0  0  0  0  0  0  0
   40.9930   32.6650   37.6600 C   0  0  1  0  0  0  0  0  0  0  0  0
   41.5320   33.2690   39.7340 H   0  0  0  0  0  0  0  0  0  0  0  0
   42.7990   31.5840   38.4290 H   0  0  0  0  0  0  0  0  0  0  0  0
   41.2410   30.5260   38.3740 H   0  0  0  0  0  0  0  0  0  0  0  0
   41.6290   33.4220   37.1600 H   0  0  0  0  0  0  0  0  0  0  0  0
   39.8470   32.2080   36.8670 N   0  0  0  0  0  0  0  0  0  0  0  0
   40.0620   32.3700   35.8710 H   0  0  0  0  0  0  0  0  0  0  0  0
   39.6630   31.1890   36.9640 H   0  0  0  0  0  0  0  0  0  0  0  0
   37.9860   29.7850   41.8460 C   0  0  0  0  0  0  0  0  0  0  0  0
   38.5080   29.6670   43.0090 O   0  0  0  0  0  0  0  0  0  0  0  0
   37.0660   28.6500   41.4670 C   0  0  1  0  0  3  0  0  0  0  0  0
   37.6520   27.9720   40.2860 C   0  0  0  0  0  2  0  0  0  0  0  0
   38.3140   26.6620   40.6050 C   0  0  0  0  0  2  0  0  0  0  0  0
   37.1770   25.8090   41.1800 C   0  0  0  0  0  2  0  0  0  0  0  0
   36.9430   26.3520   42.5650 C   0  0  0  0  0  3  0  0  0  0  0  0
   36.7250   27.8120   42.6400 C   0  0  0  0  0  3  0  0  0  0  0  0
  1 19  1  0  0  0  0
  2  1  1  0  0  0  0
  2  7  1  0  0  0  0
  3  2  2  0  0  0  0
  4  5  2  0  0  0  0
  4  3  1  0  0  0  0
  5  6  1  0  0  0  0
  6  1  2  0  0  0  0
  8  3  1  0  0  0  0
  9  5  1  0  0  0  0
  9 12  1  1  0  0  0
 10 14  1  0  0  0  0
 10 13  1  0  0  0  0
 10  9  1  0  0  0  0
 11 15  1  6  0  0  0
 11 10  1  0  0  0  0
 11  9  1  0  0  0  0
 16 18  1  0  0  0  0
 16 11  1  0  0  0  0
 17 16  1  0  0  0  0
 19 20  2  0  0  0  0
 21 19  1  1  0  0  0
 21 26  1  0  0  0  0
 22 23  1  0  0  0  0
 22 21  1  0  0  0  0
 23 24  1  0  0  0  0
 24 25  1  0  0  0  0
 25 26  2  0  0  0  0
M  END
>  <minimizedAffinity>
-5.13302422

$$$$

 OpenBabel03252508013D

 26 28  0  0  1  0  0  0  0  0999 V2000
   38.6980   29.3320   41.8660 C   0  0  0  0  0  0  0  0  0  0  0  0
   39.5680   30.0230   42.7650 C   0  0  0  0  0  0  0  0  0  0  0  0
   40.0780   31.2520   42.3250 C   0  0  0  0  0  0  0  0  0  0  0  0
   39.7140   31.6920   41.0940 N   0  0  0  0  0  0  0  0  0  0  0  0
   38.8760   30.9710   40.2880 C   0  0  0  0  0  0  0  0  0  0  0  0
   38.3670   29.8080   40.6530 N   0  0  0  0  0  0  0  0  0  0  0  0
   39.8120   29.6100   43.7300 H   0  0  0  0  0  0  0  0  0  0  0  0
   40.7410   31.8190   42.9620 H   0  0  0  0  0  0  0  0  0  0  0  0
   38.5150   31.5390   38.9520 C   0  0  1  0  0  0  0  0  0  0  0  0
   37.1240   31.3270   38.4080 C   0  0  0  0  0  0  0  0  0  0  0  0
   37.5400   32.6480   38.9960 C   0  0  1  0  0  0  0  0  0  0  0  0
   39.3470   31.5980   38.2290 H   0  0  0  0  0  0  0  0  0  0  0  0
   37.0730   31.2580   37.3020 H   0  0  0  0  0  0  0  0  0  0  0  0
   36.5340   30.6150   38.9880 H   0  0  0  0  0  0  0  0  0  0  0  0
   37.6140   33.5080   38.3020 H   0  0  0  0  0  0  0  0  0  0  0  0
   36.8320   32.9310   40.2500 N   0  0  0  0  0  0  0  0  0  0  0  0
   36.2060   33.7350   40.0880 H   0  0  0  0  0  0  0  0  0  0  0  0
   36.2250   32.1460   40.5620 H   0  0  0  0  0  0  0  0  0  0  0  0
   38.1980   28.0800   42.3750 C   0  0  0  0  0  0  0  0  0  0  0  0
   37.6960   27.9410   43.5440 O   0  0  0  0  0  0  0  0  0  0  0  0
   38.2240   26.8080   41.5620 C   0  0  1  0  0  3  0  0  0  0  0  0
   39.5030   26.1170   41.8480 C   0  0  0  0  0  2  0  0  0  0  0  0
   39.3620   24.9340   42.7630 C   0  0  0  0  0  2  0  0  0  0  0  0
   38.4250   23.9920   41.9980 C   0  0  0  0  0  2  0  0  0  0  0  0
   37.0580   24.6110   42.1260 C   0  0  0  0  0  3  0  0  0  0  0  0
   36.9720   26.0330   41.7280 C   0  0  0  0  0  3  0  0  0  0  0  0
  1 19  1  0  0  0  0
  1  2  1  0  0  0  0
  2  7  1  0  0  0  0
  3  2  2  0  0  0  0
  3  8  1  0  0  0  0
  4  3  1  0  0  0  0
  5  6  1  0  0  0  0
  5  4  2  0  0  0  0
  6  1  2  0  0  0  0
  9 12  1  6  0  0  0
  9 11  1  0  0  0  0
  9  5  1  0  0  0  0
 10  9  1  0  0  0  0
 10 14  1  0  0  0  0
 10 11  1  0  0  0  0
 11 15  1  6  0  0  0
 11 16  1  0  0  0  0
 13 10  1  0  0  0  0
 16 18  1  0  0  0  0
 17 16  1  0  0  0  0
 19 20  2  0  0  0  0
 21 26  1  0  0  0  0
 21 22  1  0  0  0  0
 21 19  1  1  0  0  0
 22 23  1  0  0  0  0
 24 25  1  0  0  0  0
 24 23  1  0  0  0  0
 26 25  2  0  0  0  0
M  END
>  <minimizedAffinity>
-5.0935421

$$$$

 OpenBabel03252508013D

 26 28  0  0  1  0  0  0  0  0999 V2000
   37.2080   30.2440   40.3120 C   0  0  0  0  0  0  0  0  0  0  0  0
   36.7030   31.5580   40.5530 C   0  0  0  0  0  0  0  0  0  0  0  0
   37.5420   32.6260   40.2080 C   0  0  0  0  0  0  0  0  0  0  0  0
   38.7570   32.3400   39.6760 N   0  0  0  0  0  0  0  0  0  0  0  0
   39.1720   31.0510   39.4770 C   0  0  0  0  0  0  0  0  0  0  0  0
   38.4220   30.0090   39.7830 N   0  0  0  0  0  0  0  0  0  0  0  0
   35.7240   31.7080   40.9790 H   0  0  0  0  0  0  0  0  0  0  0  0
   37.2120   33.6430   40.3680 H   0  0  0  0  0  0  0  0  0  0  0  0
   40.5210   30.8280   38.8710 C   0  0  1  0  0  0  0  0  0  0  0  0
   40.6370   30.0380   37.5910 C   0  0  0  0  0  0  0  0  0  0  0  0
   40.7500   31.5380   37.5960 C   0  0  1  0  0  0  0  0  0  0  0  0
   41.3530   30.7620   39.5940 H   0  0  0  0  0  0  0  0  0  0  0  0
   41.5780   29.4590   37.4970 H   0  0  0  0  0  0  0  0  0  0  0  0
   39.7070   29.5460   37.2980 H   0  0  0  0  0  0  0  0  0  0  0  0
   41.7400   31.9700   37.3480 H   0  0  0  0  0  0  0  0  0  0  0  0
   39.6160   32.1710   36.9130 N   0  0  0  0  0  0  0  0  0  0  0  0
   39.9700   32.6180   36.0540 H   0  0  0  0  0  0  0  0  0  0  0  0
   38.8900   31.4900   36.6110 H   0  0  0  0  0  0  0  0  0  0  0  0
   36.2990   29.1860   40.6770 C   0  0  0  0  0  0  0  0  0  0  0  0
   35.2060   28.9460   40.0560 O   0  0  0  0  0  0  0  0  0  0  0  0
   36.5630   28.2590   41.8400 C   0  0  1  0  0  3  0  0  0  0  0  0
   37.0200   26.9630   41.2860 C   0  0  0  0  0  2  0  0  0  0  0  0
   38.4990   26.7350   41.4200 C   0  0  0  0  0  2  0  0  0  0  0  0
   38.7370   26.7630   42.9340 C   0  0  0  0  0  2  0  0  0  0  0  0
   38.6400   28.2160   43.3170 C   0  0  0  0  0  3  0  0  0  0  0  0
   37.4120   28.9060   42.8670 C   0  0  0  0  0  3  0  0  0  0  0  0
  1  2  1  0  0  0  0
  1 19  1  0  0  0  0
  2  7  1  0  0  0  0
  3  8  1  0  0  0  0
  3  2  2  0  0  0  0
  4  3  1  0  0  0  0
  5  4  2  0  0  0  0
  5  6  1  0  0  0  0
  6  1  2  0  0  0  0
  9  5  1  0  0  0  0
  9 12  1  1  0  0  0
 10 11  1  0  0  0  0
 10  9  1  0  0  0  0
 11 15  1  6  0  0  0
 11  9  1  0  0  0  0
 13 10  1  0  0  0  0
 14 10  1  0  0  0  0
 16 11  1  0  0  0  0
 17 16  1  0  0  0  0
 18 16  1  0  0  0  0
 20 19  2  0  0  0  0
 21 19  1  6  0  0  0
 21 26  1  0  0  0  0
 22 23  1  0  0  0  0
 22 21  1  0  0  0  0
 23 24  1  0  0  0  0
 24 25  1  0  0  0  0
 26 25  2  0  0  0  0
M  END
>  <minimizedAffinity>
-5.07560778

$$$$

 OpenBabel03252508013D

 26 28  0  0  1  0  0  0  0  0999 V2000
   37.6770   28.6360   41.9310 C   0  0  0  0  0  0  0  0  0  0  0  0
   38.8720   28.8050   42.6960 C   0  0  0  0  0  0  0  0  0  0  0  0
   39.3960   27.6560   43.3050 C   0  0  0  0  0  0  0  0  0  0  0  0
   38.7390   26.4810   43.1260 N   0  0  0  0  0  0  0  0  0  0  0  0
   37.5960   26.4000   42.3790 C   0  0  0  0  0  0  0  0  0  0  0  0
   37.0610   27.4500   41.7840 N   0  0  0  0  0  0  0  0  0  0  0  0
   39.3390   29.7720   42.7930 H   0  0  0  0  0  0  0  0  0  0  0  0
   40.2970   27.7230   43.8960 H   0  0  0  0  0  0  0  0  0  0  0  0
   36.9470   25.0620   42.2230 C   0  0  1  0  0  0  0  0  0  0  0  0
   36.7300   24.5000   40.8390 C   0  0  0  0  0  0  0  0  0  0  0  0
   37.8400   23.9970   41.7210 C   0  0  1  0  0  0  0  0  0  0  0  0
   36.2090   24.8060   43.0030 H   0  0  0  0  0  0  0  0  0  0  0  0
   35.8290   23.8610   40.7430 H   0  0  0  0  0  0  0  0  0  0  0  0
   36.9280   25.2200   40.0420 H   0  0  0  0  0  0  0  0  0  0  0  0
   37.7580   22.9560   42.0900 H   0  0  0  0  0  0  0  0  0  0  0  0
   39.1600   24.3580   41.1920 N   0  0  0  0  0  0  0  0  0  0  0  0
   39.6350   23.4910   40.8990 H   0  0  0  0  0  0  0  0  0  0  0  0
   39.1100   24.9630   40.3470 H   0  0  0  0  0  0  0  0  0  0  0  0
   37.1910   29.8490   41.3220 C   0  0  0  0  0  0  0  0  0  0  0  0
   36.0490   30.3640   41.5850 O   0  0  0  0  0  0  0  0  0  0  0  0
   37.9970   30.6230   40.3080 C   0  0  1  0  0  3  0  0  0  0  0  0
   37.9050   29.9040   39.0160 C   0  0  0  0  0  2  0  0  0  0  0  0
   36.9770   30.5500   38.0260 C   0  0  0  0  0  2  0  0  0  0  0  0
   37.5910   31.9370   37.8030 C   0  0  0  0  0  2  0  0  0  0  0  0
   37.2610   32.7160   39.0490 C   0  0  0  0  0  3  0  0  0  0  0  0
   37.6440   32.0630   40.3190 C   0  0  0  0  0  3  0  0  0  0  0  0
  1  2  1  0  0  0  0
  2  7  1  0  0  0  0
  2  3  2  0  0  0  0
  3  8  1  0  0  0  0
  4  3  1  0  0  0  0
  5  4  2  0  0  0  0
  6  1  2  0  0  0  0
  6  5  1  0  0  0  0
  9  5  1  0  0  0  0
  9 12  1  1  0  0  0
 10 11  1  0  0  0  0
 10  9  1  0  0  0  0
 11 15  1  1  0  0  0
 11  9  1  0  0  0  0
 13 10  1  0  0  0  0
 14 10  1  0  0  0  0
 16 11  1  0  0  0  0
 17 16  1  0  0  0  0
 18 16  1  0  0  0  0
 19 20  2  0  0  0  0
 19  1  1  0  0  0  0
 21 26  1  0  0  0  0
 21 19  1  1  0  0  0
 22 21  1  0  0  0  0
 23 22  1  0  0  0  0
 24 23  1  0  0  0  0
 24 25  1  0  0  0  0
 25 26  2  0  0  0  0
M  END
>  <minimizedAffinity>
-5.06894493

$$$$

 OpenBabel03252508013D

 26 28  0  0  1  0  0  0  0  0999 V2000
   38.3300   27.2120   41.6240 C   0  0  0  0  0  0  0  0  0  0  0  0
   38.0690   27.2890   43.0270 C   0  0  0  0  0  0  0  0  0  0  0  0
   37.8180   28.5640   43.5500 C   0  0  0  0  0  0  0  0  0  0  0  0
   37.8390   29.6210   42.6990 N   0  0  0  0  0  0  0  0  0  0  0  0
   38.0980   29.4670   41.3640 C   0  0  0  0  0  0  0  0  0  0  0  0
   38.3420   28.2900   40.8190 N   0  0  0  0  0  0  0  0  0  0  0  0
   38.0690   26.4020   43.6410 H   0  0  0  0  0  0  0  0  0  0  0  0
   37.6140   28.6830   44.6040 H   0  0  0  0  0  0  0  0  0  0  0  0
   38.0870   30.6850   40.4960 C   0  0  1  0  0  0  0  0  0  0  0  0
   37.1520   30.7420   39.3120 C   0  0  0  0  0  0  0  0  0  0  0  0
   36.8520   31.4920   40.5820 C   0  0  1  0  0  0  0  0  0  0  0  0
   39.0540   31.2100   40.4140 H   0  0  0  0  0  0  0  0  0  0  0  0
   37.5390   31.3310   38.4550 H   0  0  0  0  0  0  0  0  0  0  0  0
   36.6670   29.7890   39.0950 H   0  0  0  0  0  0  0  0  0  0  0  0
   36.8820   32.5980   40.5340 H   0  0  0  0  0  0  0  0  0  0  0  0
   35.6810   30.9400   41.2730 N   0  0  0  0  0  0  0  0  0  0  0  0
   34.9270   31.6440   41.2360 H   0  0  0  0  0  0  0  0  0  0  0  0
   35.3050   30.0840   40.8190 H   0  0  0  0  0  0  0  0  0  0  0  0
   38.5730   25.8750   41.1410 C   0  0  0  0  0  0  0  0  0  0  0  0
   39.6960   25.4880   40.6650 O   0  0  0  0  0  0  0  0  0  0  0  0
   37.5090   24.8050   41.1550 C   0  0  1  0  0  3  0  0  0  0  0  0
   36.5580   25.1020   40.0580 C   0  0  0  0  0  2  0  0  0  0  0  0
   36.7220   24.2170   38.8550 C   0  0  0  0  0  2  0  0  0  0  0  0
   36.4580   22.8090   39.4010 C   0  0  0  0  0  2  0  0  0  0  0  0
   37.6950   22.4550   40.1840 C   0  0  0  0  0  3  0  0  0  0  0  0
   38.1040   23.4490   41.1990 C   0  0  0  0  0  3  0  0  0  0  0  0
  1  2  1  0  0  0  0
  2  3  2  0  0  0  0
  2  7  1  0  0  0  0
  3  8  1  0  0  0  0
  4  3  1  0  0  0  0
  5  4  2  0  0  0  0
  6  5  1  0  0  0  0
  6  1  2  0  0  0  0
  9 12  1  6  0  0  0
  9 11  1  0  0  0  0
  9  5  1  0  0  0  0
 10  9  1  0  0  0  0
 10 11  1  0  0  0  0
 11 15  1  6  0  0  0
 11 16  1  0  0  0  0
 13 10  1  0  0  0  0
 14 10  1  0  0  0  0
 17 16  1  0  0  0  0
 18 16  1  0  0  0  0
 19  1  1  0  0  0  0
 20 19  2  0  0  0  0
 21 19  1  6  0  0  0
 21 26  1  0  0  0  0
 22 21  1  0  0  0  0
 23 24  1  0  0  0  0
 23 22  1  0  0  0  0
 24 25  1  0  0  0  0
 25 26  2  0  0  0  0
M  END
>  <minimizedAffinity>
-5.03872681

$$$$

 OpenBabel03252508013D

 26 28  0  0  1  0  0  0  0  0999 V2000
   38.1930   31.0130   40.6490 C   0  0  0  0  0  0  0  0  0  0  0  0
   37.1970   32.0290   40.5060 C   0  0  0  0  0  0  0  0  0  0  0  0
   37.5960   33.2140   39.8740 C   0  0  0  0  0  0  0  0  0  0  0  0
   38.8810   33.3130   39.4490 N   0  0  0  0  0  0  0  0  0  0  0  0
   39.7780   32.2950   39.6240 C   0  0  0  0  0  0  0  0  0  0  0  0
   39.4570   31.1570   40.2120 N   0  0  0  0  0  0  0  0  0  0  0  0
   36.1940   31.8780   40.8700 H   0  0  0  0  0  0  0  0  0  0  0  0
   36.8850   34.0170   39.7390 H   0  0  0  0  0  0  0  0  0  0  0  0
   41.1700   32.4830   39.1100 C   0  0  1  0  0  0  0  0  0  0  0  0
   41.8010   31.4030   38.2650 C   0  0  0  0  0  0  0  0  0  0  0  0
   41.2690   32.6670   37.6470 C   0  0  1  0  0  0  0  0  0  0  0  0
   41.8330   33.0790   39.7610 H   0  0  0  0  0  0  0  0  0  0  0  0
   42.9010   31.3190   38.3800 H   0  0  0  0  0  0  0  0  0  0  0  0
   41.2220   30.4780   38.2390 H   0  0  0  0  0  0  0  0  0  0  0  0
   42.0080   33.3620   37.2030 H   0  0  0  0  0  0  0  0  0  0  0  0
   40.0910   32.4090   36.8110 N   0  0  0  0  0  0  0  0  0  0  0  0
   40.3480   32.5970   35.8300 H   0  0  0  0  0  0  0  0  0  0  0  0
   39.7750   31.4190   36.8460 H   0  0  0  0  0  0  0  0  0  0  0  0
   37.7240   29.8140   41.2970 C   0  0  0  0  0  0  0  0  0  0  0  0
   37.8270   29.6030   42.5550 O   0  0  0  0  0  0  0  0  0  0  0  0
   37.0650   28.6890   40.5360 C   0  0  1  0  0  3  0  0  0  0  0  0
   35.6240   28.6990   40.8800 C   0  0  0  0  0  2  0  0  0  0  0  0
   34.7460   29.2700   39.8030 C   0  0  0  0  0  2  0  0  0  0  0  0
   34.9860   28.3410   38.6070 C   0  0  0  0  0  2  0  0  0  0  0  0
   36.3490   28.7150   38.0890 C   0  0  0  0  0  3  0  0  0  0  0  0
   37.4280   28.7190   39.1000 C   0  0  0  0  0  3  0  0  0  0  0  0
  1 19  1  0  0  0  0
  2  1  1  0  0  0  0
  2  7  1  0  0  0  0
  3  2  2  0  0  0  0
  4  5  2  0  0  0  0
  4  3  1  0  0  0  0
  5  6  1  0  0  0  0
  6  1  2  0  0  0  0
  8  3  1  0  0  0  0
  9  5  1  0  0  0  0
  9 12  1  1  0  0  0
 10 13  1  0  0  0  0
 10  9  1  0  0  0  0
 11 15  1  6  0  0  0
 11 10  1  0  0  0  0
 11  9  1  0  0  0  0
 14 10  1  0  0  0  0
 16 18  1  0  0  0  0
 16 11  1  0  0  0  0
 17 16  1  0  0  0  0
 19 20  2  0  0  0  0
 21 22  1  0  0  0  0
 21 19  1  1  0  0  0
 23 22  1  0  0  0  0
 24 23  1  0  0  0  0
 25 24  1  0  0  0  0
 25 26  2  0  0  0  0
 26 21  1  0  0  0  0
M  END
>  <minimizedAffinity>
-4.93975544

$$$$

 OpenBabel03252508013D

 26 28  0  0  1  0  0  0  0  0999 V2000
   38.4720   29.8330   41.6280 C   0  0  0  0  0  0  0  0  0  0  0  0
   39.8230   29.5580   42.0030 C   0  0  0  0  0  0  0  0  0  0  0  0
   40.8070   30.4030   41.4720 C   0  0  0  0  0  0  0  0  0  0  0  0
   40.4120   31.4080   40.6500 N   0  0  0  0  0  0  0  0  0  0  0  0
   39.0960   31.6070   40.3360 C   0  0  0  0  0  0  0  0  0  0  0  0
   38.1290   30.8430   40.8080 N   0  0  0  0  0  0  0  0  0  0  0  0
   40.0610   28.7390   42.6630 H   0  0  0  0  0  0  0  0  0  0  0  0
   41.8460   30.2420   41.7210 H   0  0  0  0  0  0  0  0  0  0  0  0
   38.7490   32.7500   39.4340 C   0  0  1  0  0  0  0  0  0  0  0  0
   37.4570   33.4990   39.6510 C   0  0  0  0  0  0  0  0  0  0  0  0
   38.7770   34.0770   40.0820 C   0  0  1  0  0  0  0  0  0  0  0  0
   39.1240   32.6600   38.4000 H   0  0  0  0  0  0  0  0  0  0  0  0
   37.0040   33.9040   38.7230 H   0  0  0  0  0  0  0  0  0  0  0  0
   36.7920   33.0190   40.3720 H   0  0  0  0  0  0  0  0  0  0  0  0
   39.1360   34.9750   39.5400 H   0  0  0  0  0  0  0  0  0  0  0  0
   38.8830   34.1610   41.5430 N   0  0  0  0  0  0  0  0  0  0  0  0
   38.8950   35.1580   41.8060 H   0  0  0  0  0  0  0  0  0  0  0  0
   38.0700   33.7380   42.0360 H   0  0  0  0  0  0  0  0  0  0  0  0
   37.5040   28.9390   42.2120 C   0  0  0  0  0  0  0  0  0  0  0  0
   37.2720   28.8700   43.4690 O   0  0  0  0  0  0  0  0  0  0  0  0
   36.6690   27.9970   41.3790 C   0  0  1  0  0  3  0  0  0  0  0  0
   35.4870   28.7480   40.8980 C   0  0  0  0  0  2  0  0  0  0  0  0
   35.5700   29.1500   39.4520 C   0  0  0  0  0  2  0  0  0  0  0  0
   35.6700   27.8130   38.7090 C   0  0  0  0  0  2  0  0  0  0  0  0
   37.0780   27.3360   38.9500 C   0  0  0  0  0  3  0  0  0  0  0  0
   37.4930   27.2910   40.3690 C   0  0  0  0  0  3  0  0  0  0  0  0
  1  2  1  0  0  0  0
  1 19  1  0  0  0  0
  2  7  1  0  0  0  0
  3  8  1  0  0  0  0
  3  2  2  0  0  0  0
  4  3  1  0  0  0  0
  5  4  2  0  0  0  0
  5  6  1  0  0  0  0
  6  1  2  0  0  0  0
  9 12  1  6  0  0  0
  9 10  1  0  0  0  0
  9 11  1  0  0  0  0
  9  5  1  0  0  0  0
 10 11  1  0  0  0  0
 10 14  1  0  0  0  0
 11 15  1  6  0  0  0
 11 16  1  0  0  0  0
 13 10  1  0  0  0  0
 16 17  1  0  0  0  0
 16 18  1  0  0  0  0
 19 20  2  0  0  0  0
 21 19  1  6  0  0  0
 22 21  1  0  0  0  0
 23 22  1  0  0  0  0
 24 25  1  0  0  0  0
 24 23  1  0  0  0  0
 25 26  2  0  0  0  0
 26 21  1  0  0  0  0
M  END
>  <minimizedAffinity>
-4.90480518

$$$$

 OpenBabel03252508013D

 26 28  0  0  1  0  0  0  0  0999 V2000
   38.3340   29.2720   41.1290 C   0  0  0  0  0  0  0  0  0  0  0  0
   39.4990   29.2460   41.9560 C   0  0  0  0  0  0  0  0  0  0  0  0
   40.3670   30.3410   41.8530 C   0  0  0  0  0  0  0  0  0  0  0  0
   40.0440   31.3350   40.9870 N   0  0  0  0  0  0  0  0  0  0  0  0
   38.9080   31.2870   40.2260 C   0  0  0  0  0  0  0  0  0  0  0  0
   38.0560   30.2800   40.2830 N   0  0  0  0  0  0  0  0  0  0  0  0
   39.6900   28.4190   42.6220 H   0  0  0  0  0  0  0  0  0  0  0  0
   41.2640   30.3760   42.4540 H   0  0  0  0  0  0  0  0  0  0  0  0
   38.6220   32.4340   39.3090 C   0  0  1  0  0  0  0  0  0  0  0  0
   37.3490   33.2250   39.4870 C   0  0  0  0  0  0  0  0  0  0  0  0
   38.6750   33.7640   39.9490 C   0  0  1  0  0  0  0  0  0  0  0  0
   39.0210   32.3260   38.2860 H   0  0  0  0  0  0  0  0  0  0  0  0
   36.9340   33.6390   38.5450 H   0  0  0  0  0  0  0  0  0  0  0  0
   36.6500   32.7720   40.1920 H   0  0  0  0  0  0  0  0  0  0  0  0
   39.0760   34.6460   39.4120 H   0  0  0  0  0  0  0  0  0  0  0  0
   38.7450   33.8540   41.4120 N   0  0  0  0  0  0  0  0  0  0  0  0
   38.7820   34.8520   41.6700 H   0  0  0  0  0  0  0  0  0  0  0  0
   37.9060   33.4610   41.8860 H   0  0  0  0  0  0  0  0  0  0  0  0
   37.4750   28.1250   41.2830 C   0  0  0  0  0  0  0  0  0  0  0  0
   36.2930   28.1870   41.7710 O   0  0  0  0  0  0  0  0  0  0  0  0
   37.9010   26.7350   40.8780 C   0  0  1  0  0  3  0  0  0  0  0  0
   37.9700   25.9090   42.1070 C   0  0  0  0  0  2  0  0  0  0  0  0
   36.8130   24.9640   42.2690 C   0  0  0  0  0  2  0  0  0  0  0  0
   36.9060   24.0600   41.0330 C   0  0  0  0  0  2  0  0  0  0  0  0
   36.4170   24.9110   39.8900 C   0  0  0  0  0  3  0  0  0  0  0  0
   37.0830   26.2230   39.7520 C   0  0  0  0  0  3  0  0  0  0  0  0
  1 19  1  0  0  0  0
  1  2  1  0  0  0  0
  2  7  1  0  0  0  0
  3  2  2  0  0  0  0
  3  8  1  0  0  0  0
  4  3  1  0  0  0  0
  5  6  1  0  0  0  0
  5  4  2  0  0  0  0
  6  1  2  0  0  0  0
  9 12  1  6  0  0  0
  9 10  1  0  0  0  0
  9 11  1  0  0  0  0
  9  5  1  0  0  0  0
 10 11  1  0  0  0  0
 10 14  1  0  0  0  0
 11 15  1  6  0  0  0
 11 16  1  0  0  0  0
 13 10  1  0  0  0  0
 16 17  1  0  0  0  0
 16 18  1  0  0  0  0
 19 20  2  0  0  0  0
 21 19  1  1  0  0  0
 21 22  1  0  0  0  0
 22 23  1  0  0  0  0
 24 23  1  0  0  0  0
 25 24  1  0  0  0  0
 26 25  2  0  0  0  0
 26 21  1  0  0  0  0
M  END
>  <minimizedAffinity>
-4.89751577

$$$$
