
 OpenBabel03242519493D

 47 50  0  0  1  0  0  0  0  0999 V2000
   45.3410   27.9530   47.9510 C   0  0  0  0  0  0  0  0  0  0  0  0
   45.8560   27.5330   48.7680 H   0  0  0  0  0  0  0  0  0  0  0  0
   44.2050   27.7640   48.4380 H   0  0  0  0  0  0  0  0  0  0  0  0
   45.1500   27.2210   46.6280 C   0  0  0  0  0  0  0  0  0  0  0  0
   45.5410   26.1810   46.7820 H   0  0  0  0  0  0  0  0  0  0  0  0
   45.7130   27.6610   45.8160 H   0  0  0  0  0  0  0  0  0  0  0  0
   43.1550   28.2190   45.6650 C   0  0  0  0  0  0  0  0  0  0  0  0
   43.7200   27.1180   46.3280 C   0  0  0  0  0  0  0  0  0  0  0  0
   42.8220   26.1160   46.6140 C   0  0  0  0  0  0  0  0  0  0  0  0
   41.4950   26.1370   46.3070 C   0  0  0  0  0  0  0  0  0  0  0  0
   40.9590   27.2340   45.6530 C   0  0  0  0  0  0  0  0  0  0  0  0
   41.8180   28.3020   45.3250 C   0  0  0  0  0  0  0  0  0  0  0  0
   43.3000   25.2780   47.1290 H   0  0  0  0  0  0  0  0  0  0  0  0
   40.9230   25.2650   46.6030 H   0  0  0  0  0  0  0  0  0  0  0  0
   39.9020   27.2110   45.4280 H   0  0  0  0  0  0  0  0  0  0  0  0
   43.8110   29.3610   45.2510 O   0  0  0  0  0  0  0  0  0  0  0  0
   44.3760   29.3280   44.4070 H   0  0  0  0  0  0  0  0  0  0  0  0
   41.1880   29.3030   44.6960 O   0  0  0  0  0  0  0  0  0  0  0  0
   40.8970   29.6630   43.4190 C   0  0  0  0  0  3  0  0  0  0  0  0
   41.7430   28.7470   42.5070 C   0  0  0  0  0  2  0  0  0  0  0  0
   41.5660   29.2190   41.0940 C   0  0  0  0  0  2  0  0  0  0  0  0
   40.1130   29.1200   40.6870 C   0  0  0  0  0  2  0  0  0  0  0  0
   39.1820   29.7420   41.6730 C   0  0  0  0  0  2  0  0  0  0  0  0
   39.4510   29.2480   43.0720 C   0  0  0  0  0  2  0  0  0  0  0  0
   45.2830   29.2860   47.8400 O   0  0  0  0  0  0  0  0  0  0  0  0
   45.9790   31.5540   48.0080 C   0  0  2  0  0  0  0  0  0  0  0  0
   46.9540   31.8220   46.9520 C   0  0  1  0  0  0  0  0  0  0  0  0
   47.1700   30.4810   46.3500 O   0  0  0  0  0  0  0  0  0  0  0  0
   47.5200   29.8220   47.5240 C   0  0  0  0  0  0  0  0  0  0  0  0
   46.1710   30.1240   48.3820 C   0  0  2  0  0  0  0  0  0  0  0  0
   46.0270   32.2420   48.8730 H   0  0  0  0  0  0  0  0  0  0  0  0
   47.9660   32.0380   47.3960 H   0  0  0  0  0  0  0  0  0  0  0  0
   48.3440   30.3130   48.0530 H   0  0  0  0  0  0  0  0  0  0  0  0
   47.5840   28.7400   47.4130 H   0  0  0  0  0  0  0  0  0  0  0  0
   46.6430   29.8640   49.3450 H   0  0  0  0  0  0  0  0  0  0  0  0
   45.1750   34.5650   45.3450 C   0  0  0  0  0  0  0  0  0  0  0  0
   45.7090   34.6020   44.0600 C   0  0  0  0  0  0  0  0  0  0  0  0
   46.6990   33.6610   43.7170 C   0  0  0  0  0  0  0  0  0  0  0  0
   47.0940   32.7600   44.6430 N   0  0  0  0  0  0  0  0  0  0  0  0
   46.5630   32.7390   45.8870 C   0  0  0  0  0  0  0  0  0  0  0  0
   45.5990   33.6400   46.2490 N   0  0  0  0  0  0  0  0  0  0  0  0
   45.3260   35.3660   43.3870 H   0  0  0  0  0  0  0  0  0  0  0  0
   47.0940   33.7060   42.7310 H   0  0  0  0  0  0  0  0  0  0  0  0
   44.1930   35.4740   45.7370 O   0  0  0  0  0  0  0  0  0  0  0  0
   43.3270   35.6120   45.2540 H   0  0  0  0  0  0  0  0  0  0  0  0
   44.6440   31.6650   47.4320 O   0  0  0  0  0  0  0  0  0  0  0  0
   44.0920   30.9790   47.8950 H   0  0  0  0  0  0  0  0  0  0  0  0
  1  3  1  0  0  0  0
  1  2  1  0  0  0  0
  4  5  1  0  0  0  0
  4  1  1  0  0  0  0
  6  4  1  0  0  0  0
  7  8  1  0  0  0  0
  8  9  2  0  0  0  0
  8  4  1  0  0  0  0
  9 13  1  0  0  0  0
 10 14  1  0  0  0  0
 10  9  1  0  0  0  0
 11 10  2  0  0  0  0
 12 11  1  0  0  0  0
 12  7  2  0  0  0  0
 15 11  1  0  0  0  0
 16  7  1  0  0  0  0
 17 16  1  0  0  0  0
 18 12  1  0  0  0  0
 19 18  1  0  0  0  0
 20 19  1  0  0  0  0
 21 20  1  0  0  0  0
 22 21  1  0  0  0  0
 22 23  1  0  0  0  0
 23 24  1  0  0  0  0
 24 19  1  0  0  0  0
 25  1  1  0  0  0  0
 25 30  1  0  0  0  0
 26 30  1  0  0  0  0
 26 31  1  1  0  0  0
 27 32  1  1  0  0  0
 27 26  1  0  0  0  0
 28 27  1  0  0  0  0
 28 29  1  0  0  0  0
 29 33  1  0  0  0  0
 29 30  1  0  0  0  0
 30 35  1  1  0  0  0
 34 29  1  0  0  0  0
 36 44  1  0  0  0  0
 36 41  1  0  0  0  0
 37 36  2  0  0  0  0
 38 37  1  0  0  0  0
 38 39  2  0  0  0  0
 39 40  1  0  0  0  0
 40 41  2  0  0  0  0
 40 27  1  0  0  0  0
 42 37  1  0  0  0  0
 43 38  1  0  0  0  0
 45 44  1  0  0  0  0
 46 47  1  0  0  0  0
 46 26  1  0  0  0  0
M  END
>  <minimizedAffinity>
-5.95053148

>  <minimizedRMSD>
1.45913434

$$$$
