
 OpenBabel03252507103D

 33 35  0  0  1  0  0  0  0  0999 V2000
   44.6110   35.5680   44.6560 C   0  0  0  0  0  0  0  0  0  0  0  0
   45.2190   35.6830   43.3940 C   0  0  0  0  0  0  0  0  0  0  0  0
   46.2830   34.8240   43.1230 C   0  0  0  0  0  0  0  0  0  0  0  0
   46.6820   33.9340   44.0640 N   0  0  0  0  0  0  0  0  0  0  0  0
   46.0810   33.8500   45.2560 C   0  0  0  0  0  0  0  0  0  0  0  0
   45.0410   34.6700   45.5570 N   0  0  0  0  0  0  0  0  0  0  0  0
   43.7830   36.2110   44.9110 H   0  0  0  0  0  0  0  0  0  0  0  0
   44.8190   36.4260   42.7240 H   0  0  0  0  0  0  0  0  0  0  0  0
   45.3830   32.5720   47.2990 C   0  0  1  0  0  0  0  0  0  0  0  0
   46.4690   32.9150   46.3240 C   0  0  1  0  0  0  0  0  0  0  0  0
   46.7200   31.5190   45.7370 C   0  0  0  0  0  0  0  0  0  0  0  0
   46.4010   30.6130   46.6970 O   0  0  0  0  0  0  0  0  0  0  0  0
   45.9630   31.2650   47.8380 C   0  0  0  0  0  0  0  0  0  0  0  0
   44.4620   32.3590   46.6930 H   0  0  0  0  0  0  0  0  0  0  0  0
   47.3680   33.2740   46.8520 H   0  0  0  0  0  0  0  0  0  0  0  0
   46.2210   31.3890   44.7630 H   0  0  0  0  0  0  0  0  0  0  0  0
   47.8160   31.4780   45.5530 H   0  0  0  0  0  0  0  0  0  0  0  0
   45.1570   30.6800   48.3310 H   0  0  0  0  0  0  0  0  0  0  0  0
   46.8130   31.5010   48.4770 H   0  0  0  0  0  0  0  0  0  0  0  0
   45.1550   33.5240   48.2500 O   0  0  0  0  0  0  0  0  0  0  0  0
   45.4970   34.4060   48.0080 H   0  0  0  0  0  0  0  0  0  0  0  0
   46.8680   34.9520   41.8750 O   0  0  0  0  0  0  0  0  0  0  0  0
   49.0700   36.0370   40.8510 O   0  0  0  0  0  0  0  0  0  0  0  0
   48.5730   34.8940   41.7180 P   0  0  1  0  0  0  0  0  0  0  0  0
   49.2490   34.9130   43.2450 O   0  0  0  0  0  0  0  0  0  0  0  0
   49.2710   33.9950   43.6110 H   0  0  0  0  0  0  0  0  0  0  0  0
   48.9180   33.4210   40.9320 O   0  0  0  0  0  0  0  0  0  0  0  0
   49.3700   32.4710   41.8450 C   0  0  0  0  0  0  0  0  0  0  0  0
   48.5860   31.2020   41.6590 C   0  0  0  0  0  0  0  0  0  0  0  0
   49.4230   30.0310   41.2140 C   0  0  0  0  0  0  0  0  0  0  0  0
   50.6020   29.7820   42.0970 C   0  0  0  0  0  0  0  0  0  0  0  0
   51.2150   31.0680   42.6000 C   0  0  0  0  0  0  0  0  0  0  0  0
   50.8390   32.1660   41.6320 C   0  0  0  0  0  0  0  0  0  0  0  0
  1  7  1  0  0  0  0
  1  6  1  0  0  0  0
  2  1  2  0  0  0  0
  3  2  1  0  0  0  0
  3  4  2  0  0  0  0
  4  5  1  0  0  0  0
  5  6  2  0  0  0  0
  5 10  1  0  0  0  0
  8  2  1  0  0  0  0
  9 14  1  6  0  0  0
  9 13  1  0  0  0  0
  9 20  1  0  0  0  0
 10 15  1  1  0  0  0
 10  9  1  0  0  0  0
 11 10  1  0  0  0  0
 11 12  1  0  0  0  0
 12 13  1  0  0  0  0
 13 18  1  0  0  0  0
 13 19  1  0  0  0  0
 16 11  1  0  0  0  0
 17 11  1  0  0  0  0
 21 20  1  0  0  0  0
 22  3  1  0  0  0  0
 24 23  2  6  0  0  0
 24 22  1  0  0  0  0
 24 25  1  0  0  0  0
 25 26  1  0  0  0  0
 27 24  1  0  0  0  0
 27 28  1  0  0  0  0
 29 28  1  0  0  0  0
 30 29  1  0  0  0  0
 30 31  1  0  0  0  0
 31 32  1  0  0  0  0
 33 28  1  0  0  0  0
 33 32  1  0  0  0  0
M  END
>  <minimizedAffinity>
-5.93732929

>  <minimizedRMSD>
2.07613754

$$$$
