
 OpenBabel03242522403D

 37 39  0  0  0  0  0  0  0  0999 V2000
   33.6640   28.7400   36.4110 C   0  0  0  0  0  0  0  0  0  0  0  0
   34.0260   29.4460   35.6110 H   0  0  0  0  0  0  0  0  0  0  0  0
   33.9340   27.7410   36.0840 H   0  0  0  0  0  0  0  0  0  0  0  0
   33.7570   29.0170   38.9010 C   0  0  0  0  0  0  0  0  0  0  0  0
   34.4030   29.0900   37.6280 C   0  0  0  0  0  0  0  0  0  0  0  0
   35.7400   29.5000   37.6000 C   0  0  0  0  0  0  0  0  0  0  0  0
   36.3460   29.8080   38.7890 N   0  0  0  0  0  0  0  0  0  0  0  0
   35.7020   29.7230   39.9420 C   0  0  0  0  0  0  0  0  0  0  0  0
   34.4330   29.3380   40.0150 N   0  0  0  0  0  0  0  0  0  0  0  0
   32.7410   28.7090   38.9650 H   0  0  0  0  0  0  0  0  0  0  0  0
   36.2280   29.5570   36.6520 H   0  0  0  0  0  0  0  0  0  0  0  0
   36.4630   30.0630   41.1970 C   0  0  0  0  0  0  0  0  0  0  0  0
   35.7730   30.2760   42.0200 H   0  0  0  0  0  0  0  0  0  0  0  0
   37.0490   30.9890   41.0050 H   0  0  0  0  0  0  0  0  0  0  0  0
   37.4310   29.0030   41.6030 C   0  0  0  0  0  3  0  0  0  0  0  0
   36.6130   27.8830   42.2370 C   0  0  0  0  0  2  0  0  0  0  0  0
   37.4920   26.7660   42.7260 C   0  0  0  0  0  2  0  0  0  0  0  0
   38.4910   27.3350   43.6950 C   0  0  0  0  0  2  0  0  0  0  0  0
   39.3440   28.3410   42.9890 C   0  0  0  0  0  2  0  0  0  0  0  0
   38.4920   29.5080   42.5380 C   0  0  0  0  0  2  0  0  0  0  0  0
   32.2020   28.9740   36.6880 C   0  0  0  0  0  0  0  0  0  0  0  0
   32.0570   29.0440   37.8050 H   0  0  0  0  0  0  0  0  0  0  0  0
   31.5660   28.0930   36.3940 H   0  0  0  0  0  0  0  0  0  0  0  0
   30.6230   30.8430   36.7010 C   0  0  0  0  0  0  0  0  0  0  0  0
   31.6150   30.1400   36.0460 C   0  0  0  0  0  0  0  0  0  0  0  0
   32.0830   30.4840   34.8140 C   0  0  0  0  0  0  0  0  0  0  0  0
   31.5490   31.5850   34.1750 C   0  0  0  0  0  0  0  0  0  0  0  0
   30.5670   32.3370   34.7470 C   0  0  0  0  0  0  0  0  0  0  0  0
   30.1290   31.9340   36.0130 C   0  0  0  0  0  0  0  0  0  0  0  0
   32.8420   30.0070   34.2180 H   0  0  0  0  0  0  0  0  0  0  0  0
   31.8560   31.9390   33.1920 H   0  0  0  0  0  0  0  0  0  0  0  0
   30.1030   33.2170   34.3000 H   0  0  0  0  0  0  0  0  0  0  0  0
   29.3420   32.5300   36.4820 H   0  0  0  0  0  0  0  0  0  0  0  0
   29.9930   30.4450   38.2680 S   0  0  0  0  0  0  0  0  0  0  0  0
   29.0810   29.2330   38.2440 O   0  0  0  0  0  0  0  0  0  0  0  0
   29.0890   31.5760   38.7340 O   0  0  0  0  0  0  0  0  0  0  0  0
   30.9680   30.3290   39.2240 H   0  0  0  0  0  0  0  0  0  0  0  0
  1 21  1  0  0  0  0
  1  5  1  0  0  0  0
  2  1  1  0  0  0  0
  3  1  1  0  0  0  0
  4 10  1  0  0  0  0
  4  9  1  0  0  0  0
  5  4  2  0  0  0  0
  6  5  1  0  0  0  0
  6  7  2  0  0  0  0
  7  8  1  0  0  0  0
  8  9  2  0  0  0  0
  8 12  1  0  0  0  0
 11  6  1  0  0  0  0
 12 15  1  0  0  0  0
 12 13  1  0  0  0  0
 14 12  1  0  0  0  0
 15 16  1  0  0  0  0
 15 20  1  0  0  0  0
 16 17  1  0  0  0  0
 17 18  1  0  0  0  0
 19 18  1  0  0  0  0
 20 19  1  0  0  0  0
 21 22  1  0  0  0  0
 23 21  1  0  0  0  0
 24 34  1  0  0  0  0
 25 21  1  0  0  0  0
 25 24  1  0  0  0  0
 26 25  2  0  0  0  0
 27 28  2  0  0  0  0
 27 26  1  0  0  0  0
 28 29  1  0  0  0  0
 29 33  1  0  0  0  0
 29 24  2  0  0  0  0
 30 26  1  0  0  0  0
 31 27  1  0  0  0  0
 32 28  1  0  0  0  0
 34 36  2  0  0  0  0
 34 37  1  0  0  0  0
 35 34  2  0  0  0  0
M  END
>  <minimizedAffinity>
-5.97507429

$$$$

 OpenBabel03242522403D

 37 39  0  0  0  0  0  0  0  0999 V2000
   36.6400   28.6370   42.2350 C   0  0  0  0  0  0  0  0  0  0  0  0
   35.7570   28.9650   42.8510 H   0  0  0  0  0  0  0  0  0  0  0  0
   36.2430   28.0320   41.4270 H   0  0  0  0  0  0  0  0  0  0  0  0
   36.4480   30.7660   40.9240 C   0  0  0  0  0  0  0  0  0  0  0  0
   37.2410   29.8620   41.6990 C   0  0  0  0  0  0  0  0  0  0  0  0
   38.5820   30.1940   41.9140 C   0  0  0  0  0  0  0  0  0  0  0  0
   39.0530   31.3610   41.3720 N   0  0  0  0  0  0  0  0  0  0  0  0
   38.2760   32.1630   40.6620 C   0  0  0  0  0  0  0  0  0  0  0  0
   36.9980   31.8870   40.4330 N   0  0  0  0  0  0  0  0  0  0  0  0
   35.4240   30.5490   40.7370 H   0  0  0  0  0  0  0  0  0  0  0  0
   39.1790   29.5240   42.4920 H   0  0  0  0  0  0  0  0  0  0  0  0
   38.8840   33.4330   40.1260 C   0  0  0  0  0  0  0  0  0  0  0  0
   38.9090   34.2050   40.9010 H   0  0  0  0  0  0  0  0  0  0  0  0
   38.2320   33.8070   39.3050 H   0  0  0  0  0  0  0  0  0  0  0  0
   40.2470   33.2380   39.5530 C   0  0  0  0  0  3  0  0  0  0  0  0
   40.8810   34.6210   39.4490 C   0  0  0  0  0  2  0  0  0  0  0  0
   42.2540   34.5550   38.8430 C   0  0  0  0  0  2  0  0  0  0  0  0
   42.1500   33.8940   37.4960 C   0  0  0  0  0  2  0  0  0  0  0  0
   41.6360   32.5010   37.6700 C   0  0  0  0  0  2  0  0  0  0  0  0
   40.2280   32.5390   38.2250 C   0  0  0  0  0  2  0  0  0  0  0  0
   37.6710   27.9750   43.1120 C   0  0  0  0  0  0  0  0  0  0  0  0
   37.3210   28.0370   44.1830 H   0  0  0  0  0  0  0  0  0  0  0  0
   38.6470   28.5350   43.1190 H   0  0  0  0  0  0  0  0  0  0  0  0
   39.2660   26.1220   43.0130 C   0  0  0  0  0  0  0  0  0  0  0  0
   37.9890   26.5930   42.7830 C   0  0  0  0  0  0  0  0  0  0  0  0
   36.9940   25.8260   42.2570 C   0  0  0  0  0  0  0  0  0  0  0  0
   37.2590   24.5110   41.9340 C   0  0  0  0  0  0  0  0  0  0  0  0
   38.4910   23.9610   42.1270 C   0  0  0  0  0  0  0  0  0  0  0  0
   39.4700   24.7990   42.6700 C   0  0  0  0  0  0  0  0  0  0  0  0
   35.9740   26.0930   42.0360 H   0  0  0  0  0  0  0  0  0  0  0  0
   36.5320   23.8180   41.5110 H   0  0  0  0  0  0  0  0  0  0  0  0
   38.7680   22.9320   41.8960 H   0  0  0  0  0  0  0  0  0  0  0  0
   40.4630   24.3700   42.8300 H   0  0  0  0  0  0  0  0  0  0  0  0
   40.5660   27.0590   43.6780 S   0  0  0  0  0  0  0  0  0  0  0  0
   41.2270   27.9590   42.6490 O   0  0  0  0  0  0  0  0  0  0  0  0
   41.6790   26.1160   44.1100 O   0  0  0  0  0  0  0  0  0  0  0  0
   40.2060   27.7520   44.8030 H   0  0  0  0  0  0  0  0  0  0  0  0
  1  2  1  0  0  0  0
  1 21  1  0  0  0  0
  3  1  1  0  0  0  0
  4  5  1  0  0  0  0
  5  6  2  0  0  0  0
  5  1  1  0  0  0  0
  6 11  1  0  0  0  0
  7  6  1  0  0  0  0
  8  7  2  0  0  0  0
  9  8  1  0  0  0  0
  9  4  2  0  0  0  0
 10  4  1  0  0  0  0
 12  8  1  0  0  0  0
 12 13  1  0  0  0  0
 14 12  1  0  0  0  0
 15 12  1  0  0  0  0
 16 15  1  0  0  0  0
 17 16  1  0  0  0  0
 18 19  1  0  0  0  0
 18 17  1  0  0  0  0
 19 20  1  0  0  0  0
 20 15  1  0  0  0  0
 21 23  1  0  0  0  0
 21 22  1  0  0  0  0
 24 34  1  0  0  0  0
 25 24  1  0  0  0  0
 25 21  1  0  0  0  0
 26 25  2  0  0  0  0
 27 28  2  0  0  0  0
 27 26  1  0  0  0  0
 28 29  1  0  0  0  0
 29 33  1  0  0  0  0
 29 24  2  0  0  0  0
 30 26  1  0  0  0  0
 31 27  1  0  0  0  0
 32 28  1  0  0  0  0
 34 36  2  0  0  0  0
 34 37  1  0  0  0  0
 35 34  2  0  0  0  0
M  END
>  <minimizedAffinity>
-5.73031282

$$$$

 OpenBabel03242522403D

 37 39  0  0  0  0  0  0  0  0999 V2000
   37.3800   28.6650   43.5380 C   0  0  0  0  0  0  0  0  0  0  0  0
   38.2950   28.6530   44.1950 H   0  0  0  0  0  0  0  0  0  0  0  0
   36.5600   29.0100   44.1590 H   0  0  0  0  0  0  0  0  0  0  0  0
   38.9620   30.1990   42.3430 C   0  0  0  0  0  0  0  0  0  0  0  0
   37.6540   29.6380   42.4770 C   0  0  0  0  0  0  0  0  0  0  0  0
   36.6730   30.0520   41.5700 C   0  0  0  0  0  0  0  0  0  0  0  0
   37.0240   30.9680   40.6130 N   0  0  0  0  0  0  0  0  0  0  0  0
   38.2510   31.4560   40.5330 C   0  0  0  0  0  0  0  0  0  0  0  0
   39.2130   31.0910   41.3730 N   0  0  0  0  0  0  0  0  0  0  0  0
   39.7360   29.9110   43.0140 H   0  0  0  0  0  0  0  0  0  0  0  0
   35.6950   29.6370   41.6640 H   0  0  0  0  0  0  0  0  0  0  0  0
   38.5430   32.4420   39.4310 C   0  0  0  0  0  0  0  0  0  0  0  0
   38.1450   33.4300   39.6830 H   0  0  0  0  0  0  0  0  0  0  0  0
   38.0190   32.0970   38.5120 H   0  0  0  0  0  0  0  0  0  0  0  0
   39.9930   32.5440   39.1020 C   0  0  0  0  0  3  0  0  0  0  0  0
   40.4120   33.9790   39.4050 C   0  0  0  0  0  2  0  0  0  0  0  0
   41.8570   34.2150   39.0720 C   0  0  0  0  0  2  0  0  0  0  0  0
   42.0750   33.8730   37.6240 C   0  0  0  0  0  2  0  0  0  0  0  0
   41.7640   32.4260   37.4080 C   0  0  0  0  0  2  0  0  0  0  0  0
   40.2980   32.1700   37.6790 C   0  0  0  0  0  2  0  0  0  0  0  0
   37.1930   27.3220   42.8820 C   0  0  0  0  0  0  0  0  0  0  0  0
   36.8290   27.4870   41.8270 H   0  0  0  0  0  0  0  0  0  0  0  0
   36.3640   26.7270   43.3570 H   0  0  0  0  0  0  0  0  0  0  0  0
   38.4450   25.4520   41.9210 C   0  0  0  0  0  0  0  0  0  0  0  0
   38.3640   26.4580   42.8630 C   0  0  0  0  0  0  0  0  0  0  0  0
   39.3350   26.6920   43.7900 C   0  0  0  0  0  0  0  0  0  0  0  0
   40.4600   25.8930   43.8010 C   0  0  0  0  0  0  0  0  0  0  0  0
   40.6240   24.8770   42.9080 C   0  0  0  0  0  0  0  0  0  0  0  0
   39.5930   24.6860   41.9820 C   0  0  0  0  0  0  0  0  0  0  0  0
   39.3690   27.4400   44.5640 H   0  0  0  0  0  0  0  0  0  0  0  0
   41.2890   26.0000   44.4990 H   0  0  0  0  0  0  0  0  0  0  0  0
   41.4860   24.2100   42.8600 H   0  0  0  0  0  0  0  0  0  0  0  0
   39.7130   23.8740   41.2600 H   0  0  0  0  0  0  0  0  0  0  0  0
   37.2360   25.1130   40.7230 S   0  0  0  0  0  0  0  0  0  0  0  0
   36.3000   23.9910   41.1340 O   0  0  0  0  0  0  0  0  0  0  0  0
   37.9210   24.5820   39.4730 O   0  0  0  0  0  0  0  0  0  0  0  0
   36.5480   26.2290   40.3260 H   0  0  0  0  0  0  0  0  0  0  0  0
  1  3  1  0  0  0  0
  1  2  1  0  0  0  0
  4  5  1  0  0  0  0
  4 10  1  0  0  0  0
  5  1  1  0  0  0  0
  6 11  1  0  0  0  0
  6  5  2  0  0  0  0
  7  6  1  0  0  0  0
  8  7  2  0  0  0  0
  8  9  1  0  0  0  0
  9  4  2  0  0  0  0
 12 13  1  0  0  0  0
 12  8  1  0  0  0  0
 14 12  1  0  0  0  0
 15 16  1  0  0  0  0
 15 12  1  0  0  0  0
 17 16  1  0  0  0  0
 18 17  1  0  0  0  0
 19 18  1  0  0  0  0
 19 20  1  0  0  0  0
 20 15  1  0  0  0  0
 21 23  1  0  0  0  0
 21  1  1  0  0  0  0
 22 21  1  0  0  0  0
 24 29  2  0  0  0  0
 24 25  1  0  0  0  0
 25 21  1  0  0  0  0
 25 26  2  0  0  0  0
 26 27  1  0  0  0  0
 26 30  1  0  0  0  0
 27 31  1  0  0  0  0
 28 27  2  0  0  0  0
 29 28  1  0  0  0  0
 32 28  1  0  0  0  0
 33 29  1  0  0  0  0
 34 35  2  0  0  0  0
 34 24  1  0  0  0  0
 36 34  2  0  0  0  0
 37 34  1  0  0  0  0
M  END
>  <minimizedAffinity>
-5.70628023

$$$$

 OpenBabel03242522403D

 37 39  0  0  0  0  0  0  0  0999 V2000
   36.5350   27.1600   39.0180 C   0  0  0  0  0  0  0  0  0  0  0  0
   36.1660   26.4300   39.7930 H   0  0  0  0  0  0  0  0  0  0  0  0
   37.2470   26.6210   38.4030 H   0  0  0  0  0  0  0  0  0  0  0  0
   34.8890   28.8850   38.2410 C   0  0  0  0  0  0  0  0  0  0  0  0
   35.3630   27.5350   38.2220 C   0  0  0  0  0  0  0  0  0  0  0  0
   34.6710   26.6150   37.4290 C   0  0  0  0  0  0  0  0  0  0  0  0
   33.5850   27.0590   36.7210 N   0  0  0  0  0  0  0  0  0  0  0  0
   33.1890   28.3210   36.7730 C   0  0  0  0  0  0  0  0  0  0  0  0
   33.8160   29.2280   37.5130 N   0  0  0  0  0  0  0  0  0  0  0  0
   35.3880   29.6150   38.8320 H   0  0  0  0  0  0  0  0  0  0  0  0
   35.0190   25.6060   37.4110 H   0  0  0  0  0  0  0  0  0  0  0  0
   31.9960   28.7160   35.9410 C   0  0  0  0  0  0  0  0  0  0  0  0
   31.0930   28.2120   36.2990 H   0  0  0  0  0  0  0  0  0  0  0  0
   32.1770   28.3760   34.8980 H   0  0  0  0  0  0  0  0  0  0  0  0
   31.7750   30.1900   35.8940 C   0  0  0  0  0  3  0  0  0  0  0  0
   30.5700   30.4810   36.7820 C   0  0  0  0  0  2  0  0  0  0  0  0
   30.2230   31.9420   36.7820 C   0  0  0  0  0  2  0  0  0  0  0  0
   29.9770   32.3740   35.3620 C   0  0  0  0  0  2  0  0  0  0  0  0
   31.2280   32.1790   34.5650 C   0  0  0  0  0  2  0  0  0  0  0  0
   31.5680   30.7060   34.4980 C   0  0  0  0  0  2  0  0  0  0  0  0
   37.0470   28.4100   39.6840 C   0  0  0  0  0  0  0  0  0  0  0  0
   36.3620   29.2650   39.4150 H   0  0  0  0  0  0  0  0  0  0  0  0
   38.0450   28.7320   39.2750 H   0  0  0  0  0  0  0  0  0  0  0  0
   37.8220   29.3780   41.7940 C   0  0  0  0  0  0  0  0  0  0  0  0
   37.1950   28.3420   41.1310 C   0  0  0  0  0  0  0  0  0  0  0  0
   36.6990   27.2430   41.7630 C   0  0  0  0  0  0  0  0  0  0  0  0
   36.8210   27.1440   43.1350 C   0  0  0  0  0  0  0  0  0  0  0  0
   37.4250   28.1190   43.8710 C   0  0  0  0  0  0  0  0  0  0  0  0
   37.9140   29.2230   43.1640 C   0  0  0  0  0  0  0  0  0  0  0  0
   36.2010   26.3850   41.3450 H   0  0  0  0  0  0  0  0  0  0  0  0
   36.4570   26.3080   43.7300 H   0  0  0  0  0  0  0  0  0  0  0  0
   37.5530   28.1060   44.9530 H   0  0  0  0  0  0  0  0  0  0  0  0
   38.4000   30.0120   43.7430 H   0  0  0  0  0  0  0  0  0  0  0  0
   38.4720   30.7960   41.0340 S   0  0  0  0  0  0  0  0  0  0  0  0
   39.4140   31.5680   41.9390 O   0  0  0  0  0  0  0  0  0  0  0  0
   37.3370   31.7730   40.7670 O   0  0  0  0  0  0  0  0  0  0  0  0
   39.0370   30.5380   39.8130 H   0  0  0  0  0  0  0  0  0  0  0  0
  1 21  1  0  0  0  0
  1  2  1  0  0  0  0
  3  1  1  0  0  0  0
  4 10  1  0  0  0  0
  5  4  1  0  0  0  0
  5  1  1  0  0  0  0
  6  5  2  0  0  0  0
  7  8  2  0  0  0  0
  7  6  1  0  0  0  0
  8  9  1  0  0  0  0
  9  4  2  0  0  0  0
 11  6  1  0  0  0  0
 12 13  1  0  0  0  0
 12  8  1  0  0  0  0
 14 12  1  0  0  0  0
 15 12  1  0  0  0  0
 15 16  1  0  0  0  0
 17 16  1  0  0  0  0
 18 17  1  0  0  0  0
 19 18  1  0  0  0  0
 20 19  1  0  0  0  0
 20 15  1  0  0  0  0
 21 25  1  0  0  0  0
 22 21  1  0  0  0  0
 23 21  1  0  0  0  0
 24 29  1  0  0  0  0
 25 26  1  0  0  0  0
 25 24  2  0  0  0  0
 26 27  2  0  0  0  0
 27 31  1  0  0  0  0
 27 28  1  0  0  0  0
 28 32  1  0  0  0  0
 29 33  1  0  0  0  0
 29 28  2  0  0  0  0
 30 26  1  0  0  0  0
 34 24  1  0  0  0  0
 34 35  2  0  0  0  0
 36 34  2  0  0  0  0
 37 34  1  0  0  0  0
M  END
>  <minimizedAffinity>
-5.70320129

$$$$

 OpenBabel03242522403D

 37 39  0  0  0  0  0  0  0  0999 V2000
   39.0390   33.0630   40.1320 C   0  0  0  0  0  0  0  0  0  0  0  0
   39.1160   32.6780   39.0760 H   0  0  0  0  0  0  0  0  0  0  0  0
   38.1710   33.7140   40.1590 H   0  0  0  0  0  0  0  0  0  0  0  0
   37.6340   31.1010   40.8110 C   0  0  0  0  0  0  0  0  0  0  0  0
   38.8160   31.8890   40.9790 C   0  0  0  0  0  0  0  0  0  0  0  0
   39.7240   31.4940   41.9670 C   0  0  0  0  0  0  0  0  0  0  0  0
   39.4280   30.3820   42.7100 N   0  0  0  0  0  0  0  0  0  0  0  0
   38.3180   29.6880   42.5130 C   0  0  0  0  0  0  0  0  0  0  0  0
   37.4280   30.0270   41.5870 N   0  0  0  0  0  0  0  0  0  0  0  0
   36.9180   31.3680   40.0710 H   0  0  0  0  0  0  0  0  0  0  0  0
   40.6080   32.0770   42.0970 H   0  0  0  0  0  0  0  0  0  0  0  0
   38.0930   28.4680   43.3680 C   0  0  0  0  0  0  0  0  0  0  0  0
   37.0240   28.2550   43.4610 H   0  0  0  0  0  0  0  0  0  0  0  0
   38.4790   28.6870   44.3890 H   0  0  0  0  0  0  0  0  0  0  0  0
   38.8150   27.2610   42.8720 C   0  0  0  0  0  3  0  0  0  0  0  0
   37.7480   26.2540   42.4550 C   0  0  0  0  0  2  0  0  0  0  0  0
   38.3590   24.9700   41.9720 C   0  0  0  0  0  2  0  0  0  0  0  0
   39.2400   24.4200   43.0600 C   0  0  0  0  0  2  0  0  0  0  0  0
   40.3370   25.3960   43.3450 C   0  0  0  0  0  2  0  0  0  0  0  0
   39.7520   26.6800   43.8920 C   0  0  0  0  0  2  0  0  0  0  0  0
   40.3450   33.6840   40.5560 C   0  0  0  0  0  0  0  0  0  0  0  0
   40.6850   33.1840   41.5080 H   0  0  0  0  0  0  0  0  0  0  0  0
   40.2280   34.7640   40.8510 H   0  0  0  0  0  0  0  0  0  0  0  0
   42.7080   33.9220   39.9670 C   0  0  0  0  0  0  0  0  0  0  0  0
   41.4160   33.6380   39.5710 C   0  0  0  0  0  0  0  0  0  0  0  0
   41.0830   33.3110   38.2920 C   0  0  0  0  0  0  0  0  0  0  0  0
   42.0730   33.2570   37.3320 C   0  0  0  0  0  0  0  0  0  0  0  0
   43.3750   33.5220   37.6330 C   0  0  0  0  0  0  0  0  0  0  0  0
   43.6540   33.8520   38.9630 C   0  0  0  0  0  0  0  0  0  0  0  0
   40.1150   33.0770   37.8800 H   0  0  0  0  0  0  0  0  0  0  0  0
   41.9080   33.0060   36.2850 H   0  0  0  0  0  0  0  0  0  0  0  0
   44.2050   33.4970   36.9260 H   0  0  0  0  0  0  0  0  0  0  0  0
   44.6960   34.0670   39.2170 H   0  0  0  0  0  0  0  0  0  0  0  0
   43.1820   34.3450   41.5820 S   0  0  0  0  0  0  0  0  0  0  0  0
   44.5930   34.9020   41.6520 O   0  0  0  0  0  0  0  0  0  0  0  0
   43.2440   33.0790   42.4220 O   0  0  0  0  0  0  0  0  0  0  0  0
   42.2810   35.1650   42.2070 H   0  0  0  0  0  0  0  0  0  0  0  0
  1  3  1  0  0  0  0
  1 21  1  0  0  0  0
  1  5  1  0  0  0  0
  2  1  1  0  0  0  0
  4  5  2  0  0  0  0
  4  9  1  0  0  0  0
  5  6  1  0  0  0  0
  6 11  1  0  0  0  0
  6  7  2  0  0  0  0
  8  7  1  0  0  0  0
  8 12  1  0  0  0  0
  9  8  2  0  0  0  0
 10  4  1  0  0  0  0
 12 13  1  0  0  0  0
 12 14  1  0  0  0  0
 15 12  1  0  0  0  0
 15 20  1  0  0  0  0
 16 15  1  0  0  0  0
 17 16  1  0  0  0  0
 17 18  1  0  0  0  0
 18 19  1  0  0  0  0
 19 20  1  0  0  0  0
 21 23  1  0  0  0  0
 21 22  1  0  0  0  0
 24 34  1  0  0  0  0
 25 24  1  0  0  0  0
 25 21  1  0  0  0  0
 26 25  2  0  0  0  0
 27 28  2  0  0  0  0
 27 26  1  0  0  0  0
 28 29  1  0  0  0  0
 29 33  1  0  0  0  0
 29 24  2  0  0  0  0
 30 26  1  0  0  0  0
 31 27  1  0  0  0  0
 32 28  1  0  0  0  0
 34 35  2  0  0  0  0
 34 37  1  0  0  0  0
 34 36  2  0  0  0  0
M  END
>  <minimizedAffinity>
-5.58469582

$$$$

 OpenBabel03242522403D

 37 39  0  0  0  0  0  0  0  0999 V2000
   35.5510   28.7780   40.9000 C   0  0  0  0  0  0  0  0  0  0  0  0
   35.5420   28.1700   39.9530 H   0  0  0  0  0  0  0  0  0  0  0  0
   34.6120   28.5740   41.4050 H   0  0  0  0  0  0  0  0  0  0  0  0
   37.1160   26.9250   41.5330 C   0  0  0  0  0  0  0  0  0  0  0  0
   36.6730   28.2740   41.6980 C   0  0  0  0  0  0  0  0  0  0  0  0
   37.3430   29.0690   42.6330 C   0  0  0  0  0  0  0  0  0  0  0  0
   38.3790   28.5090   43.3320 N   0  0  0  0  0  0  0  0  0  0  0  0
   38.7510   27.2530   43.1410 C   0  0  0  0  0  0  0  0  0  0  0  0
   38.1420   26.4630   42.2640 N   0  0  0  0  0  0  0  0  0  0  0  0
   36.6320   26.2880   40.8320 H   0  0  0  0  0  0  0  0  0  0  0  0
   37.0170   30.0770   42.7610 H   0  0  0  0  0  0  0  0  0  0  0  0
   39.9160   26.7360   43.9440 C   0  0  0  0  0  0  0  0  0  0  0  0
   39.7360   25.7060   44.2640 H   0  0  0  0  0  0  0  0  0  0  0  0
   40.0050   27.3590   44.8610 H   0  0  0  0  0  0  0  0  0  0  0  0
   41.2160   26.8280   43.2190 C   0  0  0  0  0  3  0  0  0  0  0  0
   42.0240   25.5950   43.6120 C   0  0  0  0  0  2  0  0  0  0  0  0
   43.3820   25.5960   42.9690 C   0  0  0  0  0  2  0  0  0  0  0  0
   44.0910   26.8650   43.3550 C   0  0  0  0  0  2  0  0  0  0  0  0
   43.3170   28.0370   42.8420 C   0  0  0  0  0  2  0  0  0  0  0  0
   41.9650   28.0950   43.5190 C   0  0  0  0  0  2  0  0  0  0  0  0
   35.8320   30.2250   40.5880 C   0  0  0  0  0  0  0  0  0  0  0  0
   36.5200   30.6340   41.3820 H   0  0  0  0  0  0  0  0  0  0  0  0
   34.9130   30.8670   40.6770 H   0  0  0  0  0  0  0  0  0  0  0  0
   37.2350   31.5730   39.1030 C   0  0  0  0  0  0  0  0  0  0  0  0
   36.3960   30.4890   39.2720 C   0  0  0  0  0  0  0  0  0  0  0  0
   36.0620   29.6400   38.2610 C   0  0  0  0  0  0  0  0  0  0  0  0
   36.5780   29.8600   37.0000 C   0  0  0  0  0  0  0  0  0  0  0  0
   37.4140   30.9050   36.7420 C   0  0  0  0  0  0  0  0  0  0  0  0
   37.7200   31.7410   37.8210 C   0  0  0  0  0  0  0  0  0  0  0  0
   35.4200   28.7760   38.2830 H   0  0  0  0  0  0  0  0  0  0  0  0
   36.3720   29.2390   36.1290 H   0  0  0  0  0  0  0  0  0  0  0  0
   37.8580   31.1360   35.7730 H   0  0  0  0  0  0  0  0  0  0  0  0
   38.3890   32.5830   37.6260 H   0  0  0  0  0  0  0  0  0  0  0  0
   37.6880   32.6840   40.3570 S   0  0  0  0  0  0  0  0  0  0  0  0
   38.0090   34.0690   39.8270 O   0  0  0  0  0  0  0  0  0  0  0  0
   38.9960   32.2150   40.9770 O   0  0  0  0  0  0  0  0  0  0  0  0
   36.7830   32.7300   41.3850 H   0  0  0  0  0  0  0  0  0  0  0  0
  1  3  1  0  0  0  0
  1  5  1  0  0  0  0
  2  1  1  0  0  0  0
  4  5  2  0  0  0  0
  4  9  1  0  0  0  0
  5  6  1  0  0  0  0
  6 11  1  0  0  0  0
  6  7  2  0  0  0  0
  8  7  1  0  0  0  0
  8 12  1  0  0  0  0
  9  8  2  0  0  0  0
 10  4  1  0  0  0  0
 12 13  1  0  0  0  0
 12 14  1  0  0  0  0
 15 20  1  0  0  0  0
 15 16  1  0  0  0  0
 15 12  1  0  0  0  0
 17 18  1  0  0  0  0
 17 16  1  0  0  0  0
 19 18  1  0  0  0  0
 19 20  1  0  0  0  0
 21 23  1  0  0  0  0
 21  1  1  0  0  0  0
 21 22  1  0  0  0  0
 24 25  1  0  0  0  0
 24 34  1  0  0  0  0
 25 21  1  0  0  0  0
 26 30  1  0  0  0  0
 26 25  2  0  0  0  0
 27 26  1  0  0  0  0
 28 27  2  0  0  0  0
 28 29  1  0  0  0  0
 29 24  2  0  0  0  0
 31 27  1  0  0  0  0
 32 28  1  0  0  0  0
 33 29  1  0  0  0  0
 34 36  2  0  0  0  0
 34 37  1  0  0  0  0
 35 34  2  0  0  0  0
M  END
>  <minimizedAffinity>
-5.57786798

$$$$

 OpenBabel03242522403D

 37 39  0  0  0  0  0  0  0  0999 V2000
   38.8970   30.0250   42.5460 C   0  0  0  0  0  0  0  0  0  0  0  0
   38.0350   30.6650   42.8860 H   0  0  0  0  0  0  0  0  0  0  0  0
   39.6460   30.0780   43.3290 H   0  0  0  0  0  0  0  0  0  0  0  0
   38.9960   27.7230   41.5570 C   0  0  0  0  0  0  0  0  0  0  0  0
   38.3730   28.6600   42.4400 C   0  0  0  0  0  0  0  0  0  0  0  0
   37.2700   28.2220   43.1780 C   0  0  0  0  0  0  0  0  0  0  0  0
   36.8530   26.9280   43.0110 N   0  0  0  0  0  0  0  0  0  0  0  0
   37.4650   26.1010   42.1790 C   0  0  0  0  0  0  0  0  0  0  0  0
   38.5170   26.4740   41.4590 N   0  0  0  0  0  0  0  0  0  0  0  0
   39.8380   28.0170   40.9770 H   0  0  0  0  0  0  0  0  0  0  0  0
   36.8000   28.9160   43.8390 H   0  0  0  0  0  0  0  0  0  0  0  0
   36.9430   24.6910   42.0810 C   0  0  0  0  0  0  0  0  0  0  0  0
   35.8800   24.6550   42.3370 H   0  0  0  0  0  0  0  0  0  0  0  0
   37.4870   24.0700   42.8280 H   0  0  0  0  0  0  0  0  0  0  0  0
   37.1690   24.0710   40.7430 C   0  0  0  0  0  3  0  0  0  0  0  0
   35.7940   23.7110   40.1910 C   0  0  0  0  0  2  0  0  0  0  0  0
   35.8960   23.0380   38.8520 C   0  0  0  0  0  2  0  0  0  0  0  0
   36.7680   21.8210   38.9940 C   0  0  0  0  0  2  0  0  0  0  0  0
   38.1370   22.2450   39.4230 C   0  0  0  0  0  2  0  0  0  0  0  0
   38.0720   22.8730   40.7980 C   0  0  0  0  0  2  0  0  0  0  0  0
   39.3460   30.4440   41.1710 C   0  0  0  0  0  0  0  0  0  0  0  0
   39.1590   29.5900   40.4580 H   0  0  0  0  0  0  0  0  0  0  0  0
   40.4590   30.5980   41.1140 H   0  0  0  0  0  0  0  0  0  0  0  0
   37.6330   31.5540   39.8210 C   0  0  0  0  0  0  0  0  0  0  0  0
   38.7330   31.6570   40.6480 C   0  0  0  0  0  0  0  0  0  0  0  0
   39.2860   32.8480   41.0090 C   0  0  0  0  0  0  0  0  0  0  0  0
   38.7310   34.0190   40.5330 C   0  0  0  0  0  0  0  0  0  0  0  0
   37.6440   34.0120   39.7110 C   0  0  0  0  0  0  0  0  0  0  0  0
   37.1220   32.7580   39.3760 C   0  0  0  0  0  0  0  0  0  0  0  0
   40.1380   33.0390   41.6390 H   0  0  0  0  0  0  0  0  0  0  0  0
   39.0990   35.0170   40.7630 H   0  0  0  0  0  0  0  0  0  0  0  0
   37.1560   34.8960   39.3000 H   0  0  0  0  0  0  0  0  0  0  0  0
   36.2500   32.7390   38.7170 H   0  0  0  0  0  0  0  0  0  0  0  0
   36.8940   30.0620   39.3310 S   0  0  0  0  0  0  0  0  0  0  0  0
   36.2270   30.1550   37.9710 O   0  0  0  0  0  0  0  0  0  0  0  0
   35.7490   29.7470   40.2810 O   0  0  0  0  0  0  0  0  0  0  0  0
   37.7470   28.9920   39.4060 H   0  0  0  0  0  0  0  0  0  0  0  0
  1  2  1  0  0  0  0
  1  3  1  0  0  0  0
  4  5  1  0  0  0  0
  5  1  1  0  0  0  0
  5  6  2  0  0  0  0
  6 11  1  0  0  0  0
  7  6  1  0  0  0  0
  8  7  2  0  0  0  0
  9  4  2  0  0  0  0
  9  8  1  0  0  0  0
 10  4  1  0  0  0  0
 12  8  1  0  0  0  0
 12 13  1  0  0  0  0
 12 14  1  0  0  0  0
 15 20  1  0  0  0  0
 15 12  1  0  0  0  0
 16 15  1  0  0  0  0
 17 18  1  0  0  0  0
 17 16  1  0  0  0  0
 18 19  1  0  0  0  0
 19 20  1  0  0  0  0
 21  1  1  0  0  0  0
 22 21  1  0  0  0  0
 23 21  1  0  0  0  0
 24 25  1  0  0  0  0
 25 26  2  0  0  0  0
 25 21  1  0  0  0  0
 26 30  1  0  0  0  0
 27 31  1  0  0  0  0
 27 26  1  0  0  0  0
 28 27  2  0  0  0  0
 29 28  1  0  0  0  0
 29 24  2  0  0  0  0
 32 28  1  0  0  0  0
 33 29  1  0  0  0  0
 34 37  1  0  0  0  0
 34 24  1  0  0  0  0
 34 36  2  0  0  0  0
 35 34  2  0  0  0  0
M  END
>  <minimizedAffinity>
-5.55257702

$$$$

 OpenBabel03242522403D

 37 39  0  0  0  0  0  0  0  0999 V2000
   37.0040   28.4250   39.0480 C   0  0  0  0  0  0  0  0  0  0  0  0
   37.5620   27.6030   38.5170 H   0  0  0  0  0  0  0  0  0  0  0  0
   37.6170   29.3170   38.9620 H   0  0  0  0  0  0  0  0  0  0  0  0
   35.7360   28.5230   36.8870 C   0  0  0  0  0  0  0  0  0  0  0  0
   35.7470   28.6040   38.3150 C   0  0  0  0  0  0  0  0  0  0  0  0
   34.5330   28.8560   38.9610 C   0  0  0  0  0  0  0  0  0  0  0  0
   33.4110   29.0110   38.1910 N   0  0  0  0  0  0  0  0  0  0  0  0
   33.4550   28.9260   36.8710 C   0  0  0  0  0  0  0  0  0  0  0  0
   34.5860   28.6880   36.2160 N   0  0  0  0  0  0  0  0  0  0  0  0
   36.6390   28.3330   36.3580 H   0  0  0  0  0  0  0  0  0  0  0  0
   34.5350   28.9180   40.0270 H   0  0  0  0  0  0  0  0  0  0  0  0
   32.1630   29.0890   36.1140 C   0  0  0  0  0  0  0  0  0  0  0  0
   31.3460   28.5770   36.6320 H   0  0  0  0  0  0  0  0  0  0  0  0
   32.2820   28.6050   35.1200 H   0  0  0  0  0  0  0  0  0  0  0  0
   31.8000   30.5150   35.8710 C   0  0  0  0  0  3  0  0  0  0  0  0
   30.5630   30.8030   36.7150 C   0  0  0  0  0  2  0  0  0  0  0  0
   30.0760   32.2110   36.5210 C   0  0  0  0  0  2  0  0  0  0  0  0
   29.8050   32.4240   35.0570 C   0  0  0  0  0  2  0  0  0  0  0  0
   31.0770   32.2460   34.2900 C   0  0  0  0  0  2  0  0  0  0  0  0
   31.5590   30.8180   34.4200 C   0  0  0  0  0  2  0  0  0  0  0  0
   36.6530   27.9960   40.4490 C   0  0  0  0  0  0  0  0  0  0  0  0
   35.5650   28.2300   40.6320 H   0  0  0  0  0  0  0  0  0  0  0  0
   37.1890   28.6060   41.2280 H   0  0  0  0  0  0  0  0  0  0  0  0
   37.5060   26.2800   41.9700 C   0  0  0  0  0  0  0  0  0  0  0  0
   36.9110   26.5990   40.7660 C   0  0  0  0  0  0  0  0  0  0  0  0
   36.5460   25.6660   39.8440 C   0  0  0  0  0  0  0  0  0  0  0  0
   36.7750   24.3310   40.1110 C   0  0  0  0  0  0  0  0  0  0  0  0
   37.3570   23.9250   41.2750 C   0  0  0  0  0  0  0  0  0  0  0  0
   37.7100   24.9300   42.1810 C   0  0  0  0  0  0  0  0  0  0  0  0
   36.0840   25.8050   38.8820 H   0  0  0  0  0  0  0  0  0  0  0  0
   36.5200   23.5120   39.4400 H   0  0  0  0  0  0  0  0  0  0  0  0
   37.5660   22.8900   41.5500 H   0  0  0  0  0  0  0  0  0  0  0  0
   38.1770   24.6170   43.1180 H   0  0  0  0  0  0  0  0  0  0  0  0
   37.9910   27.4310   43.1750 S   0  0  0  0  0  0  0  0  0  0  0  0
   39.0900   26.9060   44.0810 O   0  0  0  0  0  0  0  0  0  0  0  0
   36.8220   27.6760   44.1180 O   0  0  0  0  0  0  0  0  0  0  0  0
   38.3080   28.6560   42.6490 H   0  0  0  0  0  0  0  0  0  0  0  0
  1 21  1  0  0  0  0
  2  1  1  0  0  0  0
  3  1  1  0  0  0  0
  4  5  1  0  0  0  0
  5  6  2  0  0  0  0
  5  1  1  0  0  0  0
  6 11  1  0  0  0  0
  7  6  1  0  0  0  0
  8  7  2  0  0  0  0
  9  8  1  0  0  0  0
  9  4  2  0  0  0  0
 10  4  1  0  0  0  0
 12 13  1  0  0  0  0
 12  8  1  0  0  0  0
 14 12  1  0  0  0  0
 15 12  1  0  0  0  0
 15 16  1  0  0  0  0
 17 16  1  0  0  0  0
 18 17  1  0  0  0  0
 19 20  1  0  0  0  0
 19 18  1  0  0  0  0
 20 15  1  0  0  0  0
 21 22  1  0  0  0  0
 21 25  1  0  0  0  0
 21 23  1  0  0  0  0
 24 29  1  0  0  0  0
 24 34  1  0  0  0  0
 25 24  2  0  0  0  0
 26 27  2  0  0  0  0
 26 25  1  0  0  0  0
 27 28  1  0  0  0  0
 28 32  1  0  0  0  0
 28 29  2  0  0  0  0
 29 33  1  0  0  0  0
 30 26  1  0  0  0  0
 31 27  1  0  0  0  0
 34 35  2  0  0  0  0
 34 36  2  0  0  0  0
 37 34  1  0  0  0  0
M  END
>  <minimizedAffinity>
-5.54343224

$$$$

 OpenBabel03242522403D

 37 39  0  0  0  0  0  0  0  0999 V2000
   36.8980   28.6760   38.9440 C   0  0  0  0  0  0  0  0  0  0  0  0
   37.7450   28.5850   38.2070 H   0  0  0  0  0  0  0  0  0  0  0  0
   37.0760   29.5880   39.5040 H   0  0  0  0  0  0  0  0  0  0  0  0
   34.4020   28.8600   38.7950 C   0  0  0  0  0  0  0  0  0  0  0  0
   35.6760   28.8040   38.1460 C   0  0  0  0  0  0  0  0  0  0  0  0
   35.6970   28.8750   36.7500 C   0  0  0  0  0  0  0  0  0  0  0  0
   34.5020   28.9920   36.0910 N   0  0  0  0  0  0  0  0  0  0  0  0
   33.3500   29.0400   36.7400 C   0  0  0  0  0  0  0  0  0  0  0  0
   33.2830   28.9760   38.0650 N   0  0  0  0  0  0  0  0  0  0  0  0
   34.3430   28.8090   39.8560 H   0  0  0  0  0  0  0  0  0  0  0  0
   36.6440   28.8330   36.2600 H   0  0  0  0  0  0  0  0  0  0  0  0
   32.0910   29.1910   35.9260 C   0  0  0  0  0  0  0  0  0  0  0  0
   31.2600   28.6600   36.3990 H   0  0  0  0  0  0  0  0  0  0  0  0
   32.2650   28.7190   34.9330 H   0  0  0  0  0  0  0  0  0  0  0  0
   31.7170   30.6130   35.6800 C   0  0  0  0  0  3  0  0  0  0  0  0
   30.5250   30.9140   36.5820 C   0  0  0  0  0  2  0  0  0  0  0  0
   30.0290   32.3190   36.3920 C   0  0  0  0  0  2  0  0  0  0  0  0
   29.6830   32.5110   34.9410 C   0  0  0  0  0  2  0  0  0  0  0  0
   30.9140   32.3210   34.1120 C   0  0  0  0  0  2  0  0  0  0  0  0
   31.4020   30.8940   34.2390 C   0  0  0  0  0  2  0  0  0  0  0  0
   36.7770   27.4140   39.7570 C   0  0  0  0  0  0  0  0  0  0  0  0
   37.3980   26.6110   39.2650 H   0  0  0  0  0  0  0  0  0  0  0  0
   35.7340   26.9920   39.7370 H   0  0  0  0  0  0  0  0  0  0  0  0
   37.5800   26.4010   41.8360 C   0  0  0  0  0  0  0  0  0  0  0  0
   37.1500   27.5260   41.1600 C   0  0  0  0  0  0  0  0  0  0  0  0
   37.0560   28.7550   41.7400 C   0  0  0  0  0  0  0  0  0  0  0  0
   37.4020   28.8990   43.0680 C   0  0  0  0  0  0  0  0  0  0  0  0
   37.8360   27.8430   43.8130 C   0  0  0  0  0  0  0  0  0  0  0  0
   37.9120   26.6080   43.1600 C   0  0  0  0  0  0  0  0  0  0  0  0
   36.7330   29.6870   41.3100 H   0  0  0  0  0  0  0  0  0  0  0  0
   37.3620   29.8370   43.6210 H   0  0  0  0  0  0  0  0  0  0  0  0
   38.1260   27.8860   44.8630 H   0  0  0  0  0  0  0  0  0  0  0  0
   38.2590   25.7540   43.7470 H   0  0  0  0  0  0  0  0  0  0  0  0
   37.7150   24.8170   41.1420 S   0  0  0  0  0  0  0  0  0  0  0  0
   36.4120   24.0390   41.1940 O   0  0  0  0  0  0  0  0  0  0  0  0
   38.6700   23.9910   41.9900 O   0  0  0  0  0  0  0  0  0  0  0  0
   38.2490   24.8280   39.8810 H   0  0  0  0  0  0  0  0  0  0  0  0
  1  3  1  0  0  0  0
  1 21  1  0  0  0  0
  2  1  1  0  0  0  0
  4 10  1  0  0  0  0
  5  4  1  0  0  0  0
  5  1  1  0  0  0  0
  6  5  2  0  0  0  0
  7  8  2  0  0  0  0
  7  6  1  0  0  0  0
  8  9  1  0  0  0  0
  9  4  2  0  0  0  0
 11  6  1  0  0  0  0
 12 13  1  0  0  0  0
 12  8  1  0  0  0  0
 14 12  1  0  0  0  0
 15 12  1  0  0  0  0
 15 16  1  0  0  0  0
 17 16  1  0  0  0  0
 18 17  1  0  0  0  0
 19 20  1  0  0  0  0
 19 18  1  0  0  0  0
 20 15  1  0  0  0  0
 21 25  1  0  0  0  0
 22 21  1  0  0  0  0
 23 21  1  0  0  0  0
 24 29  1  0  0  0  0
 25 26  1  0  0  0  0
 25 24  2  0  0  0  0
 26 27  2  0  0  0  0
 27 31  1  0  0  0  0
 27 28  1  0  0  0  0
 28 32  1  0  0  0  0
 29 33  1  0  0  0  0
 29 28  2  0  0  0  0
 30 26  1  0  0  0  0
 34 35  2  0  0  0  0
 34 24  1  0  0  0  0
 34 36  2  0  0  0  0
 37 34  1  0  0  0  0
M  END
>  <minimizedAffinity>
-5.50348854

$$$$
