
 OpenBabel03242519553D

 37 39  0  0  1  0  0  0  0  0999 V2000
   37.8630   30.4200   39.9920 C   0  0  2  0  0  0  0  0  0  0  0  0
   37.6360   29.8260   38.6560 C   0  0  0  0  0  0  0  0  0  0  0  0
   36.1990   29.8460   38.2570 C   0  0  0  0  0  0  0  0  0  0  0  0
   35.2850   29.1970   39.2640 C   0  0  0  0  0  0  0  0  0  0  0  0
   35.6850   29.4280   40.6880 C   0  0  2  0  0  0  0  0  0  0  0  0
   36.6330   30.6030   40.8160 C   0  0  0  0  0  0  0  0  0  0  0  0
   38.5430   29.6980   40.5470 H   0  0  0  0  0  0  0  0  0  0  0  0
   38.1930   30.3950   37.8820 H   0  0  0  0  0  0  0  0  0  0  0  0
   37.9880   28.7770   38.5950 H   0  0  0  0  0  0  0  0  0  0  0  0
   36.0710   29.2830   37.2990 H   0  0  0  0  0  0  0  0  0  0  0  0
   35.8930   30.9050   38.0900 H   0  0  0  0  0  0  0  0  0  0  0  0
   35.1890   28.1000   39.0200 H   0  0  0  0  0  0  0  0  0  0  0  0
   34.2580   29.5940   39.0530 H   0  0  0  0  0  0  0  0  0  0  0  0
   34.7520   29.7300   41.2500 H   0  0  0  0  0  0  0  0  0  0  0  0
   36.9850   30.6280   41.8900 H   0  0  0  0  0  0  0  0  0  0  0  0
   36.0360   31.4860   40.6730 H   0  0  0  0  0  0  0  0  0  0  0  0
   38.6170   31.6850   39.9580 C   0  0  0  0  0  0  0  0  0  0  0  0
   37.8540   32.8060   40.2740 C   0  0  0  0  0  0  0  0  0  0  0  0
   38.4530   34.0690   40.2980 C   0  0  0  0  0  0  0  0  0  0  0  0
   39.8020   34.1110   39.9950 N   0  0  0  0  0  0  0  0  0  0  0  0
   40.5030   33.0000   39.6930 C   0  0  0  0  0  0  0  0  0  0  0  0
   39.9040   31.8090   39.6790 N   0  0  0  0  0  0  0  0  0  0  0  0
   36.8250   33.0150   40.5220 H   0  0  0  0  0  0  0  0  0  0  0  0
   38.0640   35.0420   40.5110 H   0  0  0  0  0  0  0  0  0  0  0  0
   41.5660   33.1300   39.4660 H   0  0  0  0  0  0  0  0  0  0  0  0
   36.2050   28.1710   41.2680 C   0  0  0  0  0  0  0  0  0  0  0  0
   37.1910   27.9530   40.7640 H   0  0  0  0  0  0  0  0  0  0  0  0
   35.5490   27.3410   40.9370 H   0  0  0  0  0  0  0  0  0  0  0  0
   36.4430   28.1640   42.7280 C   0  0  0  0  0  0  0  0  0  0  0  0
   35.4800   28.0170   43.2540 H   0  0  0  0  0  0  0  0  0  0  0  0
   36.8450   29.1400   43.0690 H   0  0  0  0  0  0  0  0  0  0  0  0
   37.3770   27.0640   43.1860 C   0  0  0  0  0  3  0  0  0  0  0  0
   37.3080   25.9320   42.1890 C   0  0  0  0  0  2  0  0  0  0  0  0
   38.6730   25.4280   41.8170 C   0  0  0  0  0  2  0  0  0  0  0  0
   39.6070   25.3090   43.0030 C   0  0  0  0  0  2  0  0  0  0  0  0
   39.7940   26.6310   43.6760 C   0  0  0  0  0  2  0  0  0  0  0  0
   38.7800   27.6280   43.1490 C   0  0  0  0  0  2  0  0  0  0  0  0
  1  7  1  1  0  0  0
  1  6  1  0  0  0  0
  2  1  1  0  0  0  0
  3  2  1  0  0  0  0
  3  4  1  0  0  0  0
  4  5  1  0  0  0  0
  5  6  1  0  0  0  0
  5 14  1  1  0  0  0
  5 26  1  0  0  0  0
  6 15  1  0  0  0  0
  8  2  1  0  0  0  0
  9  2  1  0  0  0  0
 10  3  1  0  0  0  0
 11  3  1  0  0  0  0
 12  4  1  0  0  0  0
 13  4  1  0  0  0  0
 16  6  1  0  0  0  0
 17  1  1  0  0  0  0
 17 18  1  0  0  0  0
 18 19  2  0  0  0  0
 18 23  1  0  0  0  0
 19 24  1  0  0  0  0
 20 19  1  0  0  0  0
 21 20  2  0  0  0  0
 22 21  1  0  0  0  0
 22 17  2  0  0  0  0
 25 21  1  0  0  0  0
 26 29  1  0  0  0  0
 27 26  1  0  0  0  0
 28 26  1  0  0  0  0
 29 31  1  0  0  0  0
 29 32  1  0  0  0  0
 29 30  1  0  0  0  0
 33 32  1  0  0  0  0
 34 33  1  0  0  0  0
 34 35  1  0  0  0  0
 35 36  1  0  0  0  0
 37 32  1  0  0  0  0
 37 36  1  0  0  0  0
M  END
>  <minimizedAffinity>
-5.65715313

$$$$

 OpenBabel03242519553D

 37 39  0  0  1  0  0  0  0  0999 V2000
   39.3070   27.7640   41.9330 C   0  0  2  0  0  0  0  0  0  0  0  0
   38.7790   28.8050   42.8420 C   0  0  0  0  0  0  0  0  0  0  0  0
   37.6460   28.3140   43.6790 C   0  0  0  0  0  0  0  0  0  0  0  0
   36.5170   27.7200   42.8760 C   0  0  0  0  0  0  0  0  0  0  0  0
   36.9650   26.9530   41.6700 C   0  0  2  0  0  0  0  0  0  0  0  0
   38.4280   26.5700   41.7660 C   0  0  0  0  0  0  0  0  0  0  0  0
   39.4120   28.2580   40.9150 H   0  0  0  0  0  0  0  0  0  0  0  0
   39.5720   29.1440   43.5420 H   0  0  0  0  0  0  0  0  0  0  0  0
   38.4310   29.7040   42.2970 H   0  0  0  0  0  0  0  0  0  0  0  0
   37.2120   29.1680   44.2570 H   0  0  0  0  0  0  0  0  0  0  0  0
   38.0380   27.5600   44.4000 H   0  0  0  0  0  0  0  0  0  0  0  0
   35.7830   28.5360   42.6150 H   0  0  0  0  0  0  0  0  0  0  0  0
   35.9370   27.0740   43.5850 H   0  0  0  0  0  0  0  0  0  0  0  0
   36.3970   25.9760   41.6690 H   0  0  0  0  0  0  0  0  0  0  0  0
   38.7150   26.1150   40.7720 H   0  0  0  0  0  0  0  0  0  0  0  0
   38.4830   25.7760   42.4890 H   0  0  0  0  0  0  0  0  0  0  0  0
   40.6700   27.3190   42.2700 C   0  0  0  0  0  0  0  0  0  0  0  0
   40.7130   26.1410   43.0110 C   0  0  0  0  0  0  0  0  0  0  0  0
   41.9470   25.5970   43.3810 C   0  0  0  0  0  0  0  0  0  0  0  0
   43.0690   26.2950   42.9690 N   0  0  0  0  0  0  0  0  0  0  0  0
   42.9820   27.4330   42.2530 C   0  0  0  0  0  0  0  0  0  0  0  0
   41.7900   27.9270   41.9150 N   0  0  0  0  0  0  0  0  0  0  0  0
   40.0010   25.4540   43.4420 H   0  0  0  0  0  0  0  0  0  0  0  0
   42.2070   24.7220   43.9360 H   0  0  0  0  0  0  0  0  0  0  0  0
   43.9230   27.9170   41.9730 H   0  0  0  0  0  0  0  0  0  0  0  0
   36.6200   27.7070   40.4460 C   0  0  0  0  0  0  0  0  0  0  0  0
   36.3400   26.9510   39.6550 H   0  0  0  0  0  0  0  0  0  0  0  0
   37.5460   28.1710   40.0520 H   0  0  0  0  0  0  0  0  0  0  0  0
   35.5000   28.6680   40.5530 C   0  0  0  0  0  0  0  0  0  0  0  0
   35.2580   28.8270   41.6220 H   0  0  0  0  0  0  0  0  0  0  0  0
   34.5830   28.2640   40.0770 H   0  0  0  0  0  0  0  0  0  0  0  0
   35.8050   30.0250   39.9560 C   0  0  0  0  0  3  0  0  0  0  0  0
   36.2570   30.9450   41.0630 C   0  0  0  0  0  2  0  0  0  0  0  0
   37.4840   31.7240   40.6790 C   0  0  0  0  0  2  0  0  0  0  0  0
   37.4360   32.2470   39.2590 C   0  0  0  0  0  2  0  0  0  0  0  0
   37.2990   31.1290   38.2770 C   0  0  0  0  0  2  0  0  0  0  0  0
   36.9650   29.8400   39.0030 C   0  0  0  0  0  2  0  0  0  0  0  0
  1  7  1  6  0  0  0
  1 17  1  0  0  0  0
  1  2  1  0  0  0  0
  2  8  1  0  0  0  0
  2  3  1  0  0  0  0
  3 10  1  0  0  0  0
  3 11  1  0  0  0  0
  4 13  1  0  0  0  0
  4  3  1  0  0  0  0
  5 14  1  6  0  0  0
  5  6  1  0  0  0  0
  5  4  1  0  0  0  0
  6  1  1  0  0  0  0
  6 16  1  0  0  0  0
  9  2  1  0  0  0  0
 12  4  1  0  0  0  0
 15  6  1  0  0  0  0
 17 18  1  0  0  0  0
 18 19  2  0  0  0  0
 18 23  1  0  0  0  0
 19 24  1  0  0  0  0
 20 19  1  0  0  0  0
 21 20  2  0  0  0  0
 22 21  1  0  0  0  0
 22 17  2  0  0  0  0
 25 21  1  0  0  0  0
 26 29  1  0  0  0  0
 26  5  1  0  0  0  0
 27 26  1  0  0  0  0
 28 26  1  0  0  0  0
 29 30  1  0  0  0  0
 31 29  1  0  0  0  0
 32 29  1  0  0  0  0
 32 33  1  0  0  0  0
 34 33  1  0  0  0  0
 35 34  1  0  0  0  0
 36 37  1  0  0  0  0
 36 35  1  0  0  0  0
 37 32  1  0  0  0  0
M  END
>  <minimizedAffinity>
-5.23382807

$$$$

 OpenBabel03242519553D

 37 39  0  0  1  0  0  0  0  0999 V2000
   39.0850   31.4560   40.3600 C   0  0  2  0  0  0  0  0  0  0  0  0
   39.2460   30.2110   39.5770 C   0  0  0  0  0  0  0  0  0  0  0  0
   38.3810   30.1810   38.3630 C   0  0  0  0  0  0  0  0  0  0  0  0
   36.9200   30.4100   38.6580 C   0  0  0  0  0  0  0  0  0  0  0  0
   36.6680   31.4020   39.7520 C   0  0  2  0  0  0  0  0  0  0  0  0
   37.8840   32.2690   40.0080 C   0  0  0  0  0  0  0  0  0  0  0  0
   38.9760   31.1350   41.4440 H   0  0  0  0  0  0  0  0  0  0  0  0
   40.2960   30.1100   39.2260 H   0  0  0  0  0  0  0  0  0  0  0  0
   39.0220   29.3050   40.1730 H   0  0  0  0  0  0  0  0  0  0  0  0
   38.4550   29.1760   37.8770 H   0  0  0  0  0  0  0  0  0  0  0  0
   38.7490   30.9510   37.6450 H   0  0  0  0  0  0  0  0  0  0  0  0
   36.4260   29.4170   38.8590 H   0  0  0  0  0  0  0  0  0  0  0  0
   36.4550   30.7350   37.6910 H   0  0  0  0  0  0  0  0  0  0  0  0
   35.8670   32.1070   39.3820 H   0  0  0  0  0  0  0  0  0  0  0  0
   37.6570   32.8920   40.9240 H   0  0  0  0  0  0  0  0  0  0  0  0
   37.9420   32.9550   39.1820 H   0  0  0  0  0  0  0  0  0  0  0  0
   40.2760   32.3220   40.3490 C   0  0  0  0  0  0  0  0  0  0  0  0
   40.2830   33.2620   39.3220 C   0  0  0  0  0  0  0  0  0  0  0  0
   41.3480   34.1610   39.2090 C   0  0  0  0  0  0  0  0  0  0  0  0
   42.3490   34.0430   40.1570 N   0  0  0  0  0  0  0  0  0  0  0  0
   42.3030   33.1170   41.1350 C   0  0  0  0  0  0  0  0  0  0  0  0
   41.2730   32.2740   41.2180 N   0  0  0  0  0  0  0  0  0  0  0  0
   39.6480   33.5250   38.4890 H   0  0  0  0  0  0  0  0  0  0  0  0
   41.5520   34.9470   38.5140 H   0  0  0  0  0  0  0  0  0  0  0  0
   43.1400   33.0980   41.8410 H   0  0  0  0  0  0  0  0  0  0  0  0
   36.1670   30.6990   40.9530 C   0  0  0  0  0  0  0  0  0  0  0  0
   35.3220   31.3170   41.3750 H   0  0  0  0  0  0  0  0  0  0  0  0
   36.9500   30.7510   41.7360 H   0  0  0  0  0  0  0  0  0  0  0  0
   35.6520   29.3270   40.7500 C   0  0  0  0  0  0  0  0  0  0  0  0
   35.8560   29.0120   39.7080 H   0  0  0  0  0  0  0  0  0  0  0  0
   34.5510   29.2930   40.8820 H   0  0  0  0  0  0  0  0  0  0  0  0
   36.2850   28.2990   41.6630 C   0  0  0  0  0  3  0  0  0  0  0  0
   37.0620   27.3210   40.8160 C   0  0  0  0  0  2  0  0  0  0  0  0
   38.4280   27.0510   41.3820 C   0  0  0  0  0  2  0  0  0  0  0  0
   38.4260   26.8830   42.8870 C   0  0  0  0  0  2  0  0  0  0  0  0
   37.9020   28.1080   43.5640 C   0  0  0  0  0  2  0  0  0  0  0  0
   37.2700   29.0340   42.5440 C   0  0  0  0  0  2  0  0  0  0  0  0
  1  7  1  1  0  0  0
  2  9  1  0  0  0  0
  2  1  1  0  0  0  0
  3  4  1  0  0  0  0
  3  2  1  0  0  0  0
  4 12  1  0  0  0  0
  4  5  1  0  0  0  0
  5 14  1  6  0  0  0
  5  6  1  0  0  0  0
  5 26  1  0  0  0  0
  6  1  1  0  0  0  0
  6 15  1  0  0  0  0
  8  2  1  0  0  0  0
 10  3  1  0  0  0  0
 11  3  1  0  0  0  0
 13  4  1  0  0  0  0
 16  6  1  0  0  0  0
 17  1  1  0  0  0  0
 17 22  1  0  0  0  0
 18 17  2  0  0  0  0
 19 18  1  0  0  0  0
 19 20  2  0  0  0  0
 20 21  1  0  0  0  0
 21 22  2  0  0  0  0
 21 25  1  0  0  0  0
 23 18  1  0  0  0  0
 24 19  1  0  0  0  0
 26 27  1  0  0  0  0
 26 28  1  0  0  0  0
 29 31  1  0  0  0  0
 29 26  1  0  0  0  0
 29 32  1  0  0  0  0
 30 29  1  0  0  0  0
 32 37  1  0  0  0  0
 33 34  1  0  0  0  0
 33 32  1  0  0  0  0
 34 35  1  0  0  0  0
 35 36  1  0  0  0  0
 37 36  1  0  0  0  0
M  END
>  <minimizedAffinity>
-5.23120213

$$$$

 OpenBabel03242519553D

 37 39  0  0  1  0  0  0  0  0999 V2000
   38.0030   30.1500   41.0630 C   0  0  2  0  0  0  0  0  0  0  0  0
   38.4600   29.2020   40.0230 C   0  0  0  0  0  0  0  0  0  0  0  0
   37.3280   28.4960   39.3550 C   0  0  0  0  0  0  0  0  0  0  0  0
   36.4060   27.7910   40.3160 C   0  0  0  0  0  0  0  0  0  0  0  0
   36.1950   28.5230   41.6060 C   0  0  2  0  0  0  0  0  0  0  0  0
   36.5820   29.9830   41.4860 C   0  0  0  0  0  0  0  0  0  0  0  0
   38.6570   29.9600   41.9730 H   0  0  0  0  0  0  0  0  0  0  0  0
   39.0170   29.7410   39.2280 H   0  0  0  0  0  0  0  0  0  0  0  0
   39.1470   28.4320   40.4270 H   0  0  0  0  0  0  0  0  0  0  0  0
   37.7330   27.7120   38.6670 H   0  0  0  0  0  0  0  0  0  0  0  0
   36.7560   29.2370   38.7510 H   0  0  0  0  0  0  0  0  0  0  0  0
   36.7790   26.7390   40.4790 H   0  0  0  0  0  0  0  0  0  0  0  0
   35.4420   27.6370   39.7660 H   0  0  0  0  0  0  0  0  0  0  0  0
   35.0840   28.5220   41.8100 H   0  0  0  0  0  0  0  0  0  0  0  0
   36.5180   30.4270   42.5250 H   0  0  0  0  0  0  0  0  0  0  0  0
   35.8070   30.4530   40.9080 H   0  0  0  0  0  0  0  0  0  0  0  0
   38.2450   31.5640   40.7240 C   0  0  0  0  0  0  0  0  0  0  0  0
   37.2320   32.1440   39.9650 C   0  0  0  0  0  0  0  0  0  0  0  0
   37.3270   33.4880   39.5910 C   0  0  0  0  0  0  0  0  0  0  0  0
   38.4590   34.1610   40.0170 N   0  0  0  0  0  0  0  0  0  0  0  0
   39.4160   33.5600   40.7510 C   0  0  0  0  0  0  0  0  0  0  0  0
   39.2970   32.2760   41.0920 N   0  0  0  0  0  0  0  0  0  0  0  0
   36.3000   31.8290   39.5210 H   0  0  0  0  0  0  0  0  0  0  0  0
   36.6800   34.1210   39.0230 H   0  0  0  0  0  0  0  0  0  0  0  0
   40.2760   34.1720   41.0420 H   0  0  0  0  0  0  0  0  0  0  0  0
   36.8820   27.8070   42.7020 C   0  0  0  0  0  0  0  0  0  0  0  0
   36.2010   27.8380   43.6010 H   0  0  0  0  0  0  0  0  0  0  0  0
   37.7590   28.4090   43.0130 H   0  0  0  0  0  0  0  0  0  0  0  0
   37.2210   26.3880   42.4550 C   0  0  0  0  0  0  0  0  0  0  0  0
   37.0070   26.1410   41.3960 H   0  0  0  0  0  0  0  0  0  0  0  0
   36.5890   25.7150   43.0710 H   0  0  0  0  0  0  0  0  0  0  0  0
   38.6760   26.0580   42.7070 C   0  0  0  0  0  3  0  0  0  0  0  0
   39.3430   25.7860   41.3810 C   0  0  0  0  0  2  0  0  0  0  0  0
   40.6640   26.4930   41.2620 C   0  0  0  0  0  2  0  0  0  0  0  0
   41.4900   26.4270   42.5290 C   0  0  0  0  0  2  0  0  0  0  0  0
   40.7620   27.0450   43.6790 C   0  0  0  0  0  2  0  0  0  0  0  0
   39.3150   27.2930   43.3020 C   0  0  0  0  0  2  0  0  0  0  0  0
  1  6  1  0  0  0  0
  1  7  1  1  0  0  0
  2  9  1  0  0  0  0
  2  1  1  0  0  0  0
  3  2  1  0  0  0  0
  3  4  1  0  0  0  0
  4 12  1  0  0  0  0
  4  5  1  0  0  0  0
  5 14  1  1  0  0  0
  5 26  1  0  0  0  0
  6  5  1  0  0  0  0
  6 15  1  0  0  0  0
  8  2  1  0  0  0  0
 10  3  1  0  0  0  0
 11  3  1  0  0  0  0
 13  4  1  0  0  0  0
 16  6  1  0  0  0  0
 17  1  1  0  0  0  0
 17 22  1  0  0  0  0
 18 17  2  0  0  0  0
 19 18  1  0  0  0  0
 19 20  2  0  0  0  0
 20 21  1  0  0  0  0
 21 25  1  0  0  0  0
 21 22  2  0  0  0  0
 23 18  1  0  0  0  0
 24 19  1  0  0  0  0
 26 28  1  0  0  0  0
 26 27  1  0  0  0  0
 29 26  1  0  0  0  0
 29 32  1  0  0  0  0
 29 31  1  0  0  0  0
 30 29  1  0  0  0  0
 32 37  1  0  0  0  0
 33 32  1  0  0  0  0
 34 33  1  0  0  0  0
 34 35  1  0  0  0  0
 35 36  1  0  0  0  0
 37 36  1  0  0  0  0
M  END
>  <minimizedAffinity>
-5.19037485

$$$$

 OpenBabel03242519553D

 37 39  0  0  1  0  0  0  0  0999 V2000
   38.1300   28.7060   41.0110 C   0  0  2  0  0  0  0  0  0  0  0  0
   37.0110   27.7780   41.2820 C   0  0  0  0  0  0  0  0  0  0  0  0
   36.5920   27.7860   42.7140 C   0  0  0  0  0  0  0  0  0  0  0  0
   37.7220   27.5150   43.6740 C   0  0  0  0  0  0  0  0  0  0  0  0
   39.0320   28.1100   43.2570 C   0  0  2  0  0  0  0  0  0  0  0  0
   38.8430   29.2020   42.2250 C   0  0  0  0  0  0  0  0  0  0  0  0
   38.8800   28.1240   40.3870 H   0  0  0  0  0  0  0  0  0  0  0  0
   36.1200   28.0640   40.6840 H   0  0  0  0  0  0  0  0  0  0  0  0
   37.2550   26.7320   41.0080 H   0  0  0  0  0  0  0  0  0  0  0  0
   35.8290   26.9860   42.8830 H   0  0  0  0  0  0  0  0  0  0  0  0
   36.1280   28.7740   42.9410 H   0  0  0  0  0  0  0  0  0  0  0  0
   37.7950   26.4030   43.8500 H   0  0  0  0  0  0  0  0  0  0  0  0
   37.3870   27.9090   44.6680 H   0  0  0  0  0  0  0  0  0  0  0  0
   39.4670   28.6230   44.1650 H   0  0  0  0  0  0  0  0  0  0  0  0
   39.8740   29.5040   41.8720 H   0  0  0  0  0  0  0  0  0  0  0  0
   38.4450   30.0490   42.7540 H   0  0  0  0  0  0  0  0  0  0  0  0
   37.7570   29.8540   40.1660 C   0  0  0  0  0  0  0  0  0  0  0  0
   37.5650   31.0380   40.8720 C   0  0  0  0  0  0  0  0  0  0  0  0
   37.2270   32.2090   40.1870 C   0  0  0  0  0  0  0  0  0  0  0  0
   37.1030   32.0980   38.8130 N   0  0  0  0  0  0  0  0  0  0  0  0
   37.2960   30.9300   38.1690 C   0  0  0  0  0  0  0  0  0  0  0  0
   37.6190   29.8300   38.8500 N   0  0  0  0  0  0  0  0  0  0  0  0
   37.5920   31.3540   41.9040 H   0  0  0  0  0  0  0  0  0  0  0  0
   37.0390   33.2060   40.5220 H   0  0  0  0  0  0  0  0  0  0  0  0
   37.1760   30.9380   37.0810 H   0  0  0  0  0  0  0  0  0  0  0  0
   39.9530   27.0340   42.8320 C   0  0  0  0  0  0  0  0  0  0  0  0
   40.9890   27.3250   43.1740 H   0  0  0  0  0  0  0  0  0  0  0  0
   40.0240   27.0560   41.7260 H   0  0  0  0  0  0  0  0  0  0  0  0
   39.6780   25.6790   43.3600 C   0  0  0  0  0  0  0  0  0  0  0  0
   38.7430   25.7030   43.9530 H   0  0  0  0  0  0  0  0  0  0  0  0
   40.4820   25.3510   44.0500 H   0  0  0  0  0  0  0  0  0  0  0  0
   39.5000   24.6320   42.2820 C   0  0  0  0  0  3  0  0  0  0  0  0
   38.0590   24.1850   42.2820 C   0  0  0  0  0  2  0  0  0  0  0  0
   37.4900   24.1270   40.8920 C   0  0  0  0  0  2  0  0  0  0  0  0
   38.4470   23.5290   39.8820 C   0  0  0  0  0  2  0  0  0  0  0  0
   39.7130   24.3200   39.8070 C   0  0  0  0  0  2  0  0  0  0  0  0
   39.7770   25.3060   40.9570 C   0  0  0  0  0  2  0  0  0  0  0  0
  1  7  1  6  0  0  0
  1  2  1  0  0  0  0
  1  6  1  0  0  0  0
  2  3  1  0  0  0  0
  3 10  1  0  0  0  0
  3 11  1  0  0  0  0
  3  4  1  0  0  0  0
  4 12  1  0  0  0  0
  4 13  1  0  0  0  0
  5  4  1  0  0  0  0
  5 14  1  1  0  0  0
  6 16  1  0  0  0  0
  6  5  1  0  0  0  0
  8  2  1  0  0  0  0
  9  2  1  0  0  0  0
 15  6  1  0  0  0  0
 17 18  1  0  0  0  0
 17  1  1  0  0  0  0
 18 23  1  0  0  0  0
 19 24  1  0  0  0  0
 19 18  2  0  0  0  0
 20 19  1  0  0  0  0
 21 20  2  0  0  0  0
 21 22  1  0  0  0  0
 22 17  2  0  0  0  0
 25 21  1  0  0  0  0
 26 27  1  0  0  0  0
 26  5  1  0  0  0  0
 26 29  1  0  0  0  0
 28 26  1  0  0  0  0
 29 30  1  0  0  0  0
 29 31  1  0  0  0  0
 32 29  1  0  0  0  0
 33 32  1  0  0  0  0
 34 33  1  0  0  0  0
 35 34  1  0  0  0  0
 36 35  1  0  0  0  0
 36 37  1  0  0  0  0
 37 32  1  0  0  0  0
M  END
>  <minimizedAffinity>
-5.16495705

$$$$

 OpenBabel03242519553D

 37 39  0  0  1  0  0  0  0  0999 V2000
   39.4600   30.7530   38.8150 C   0  0  2  0  0  0  0  0  0  0  0  0
   38.2030   30.9160   38.0540 C   0  0  0  0  0  0  0  0  0  0  0  0
   37.5050   32.1970   38.3690 C   0  0  0  0  0  0  0  0  0  0  0  0
   37.2390   32.3930   39.8400 C   0  0  0  0  0  0  0  0  0  0  0  0
   38.3280   31.8770   40.7300 C   0  0  2  0  0  0  0  0  0  0  0  0
   39.6230   31.6850   39.9690 C   0  0  0  0  0  0  0  0  0  0  0  0
   39.4440   29.6950   39.2290 H   0  0  0  0  0  0  0  0  0  0  0  0
   38.4100   30.9230   36.9630 H   0  0  0  0  0  0  0  0  0  0  0  0
   37.4880   30.0900   38.2370 H   0  0  0  0  0  0  0  0  0  0  0  0
   36.5090   32.2140   37.8590 H   0  0  0  0  0  0  0  0  0  0  0  0
   38.1190   33.0400   37.9770 H   0  0  0  0  0  0  0  0  0  0  0  0
   36.2340   31.9490   40.0930 H   0  0  0  0  0  0  0  0  0  0  0  0
   37.0750   33.4920   39.9820 H   0  0  0  0  0  0  0  0  0  0  0  0
   38.5420   32.6830   41.4920 H   0  0  0  0  0  0  0  0  0  0  0  0
   40.3470   31.1760   40.6730 H   0  0  0  0  0  0  0  0  0  0  0  0
   40.0160   32.6710   39.7920 H   0  0  0  0  0  0  0  0  0  0  0  0
   40.6710   30.8030   37.9770 C   0  0  0  0  0  0  0  0  0  0  0  0
   41.0310   29.5750   37.4290 C   0  0  0  0  0  0  0  0  0  0  0  0
   42.1510   29.4860   36.5970 C   0  0  0  0  0  0  0  0  0  0  0  0
   42.8410   30.6650   36.3760 N   0  0  0  0  0  0  0  0  0  0  0  0
   42.4580   31.8330   36.9280 C   0  0  0  0  0  0  0  0  0  0  0  0
   41.3850   31.8860   37.7170 N   0  0  0  0  0  0  0  0  0  0  0  0
   40.6700   28.5580   37.4680 H   0  0  0  0  0  0  0  0  0  0  0  0
   42.5960   28.6630   36.0810 H   0  0  0  0  0  0  0  0  0  0  0  0
   43.0660   32.7140   36.6960 H   0  0  0  0  0  0  0  0  0  0  0  0
   37.8590   30.6650   41.4350 C   0  0  0  0  0  0  0  0  0  0  0  0
   37.6170   29.8920   40.6490 H   0  0  0  0  0  0  0  0  0  0  0  0
   36.8760   30.8900   41.8950 H   0  0  0  0  0  0  0  0  0  0  0  0
   38.8070   30.0440   42.3870 C   0  0  0  0  0  0  0  0  0  0  0  0
   38.6800   30.5100   43.3830 H   0  0  0  0  0  0  0  0  0  0  0  0
   39.8570   30.2320   42.0810 H   0  0  0  0  0  0  0  0  0  0  0  0
   38.6070   28.5540   42.5590 C   0  0  0  0  0  3  0  0  0  0  0  0
   37.5890   28.3310   43.6510 C   0  0  0  0  0  2  0  0  0  0  0  0
   36.5590   27.3110   43.2580 C   0  0  0  0  0  2  0  0  0  0  0  0
   37.1490   26.1120   42.5450 C   0  0  0  0  0  2  0  0  0  0  0  0
   37.8600   26.5250   41.2960 C   0  0  0  0  0  2  0  0  0  0  0  0
   38.0200   28.0320   41.2660 C   0  0  0  0  0  2  0  0  0  0  0  0
  1  7  1  1  0  0  0
  1  6  1  0  0  0  0
  2  9  1  0  0  0  0
  2  3  1  0  0  0  0
  2  1  1  0  0  0  0
  3  4  1  0  0  0  0
  4 13  1  0  0  0  0
  4 12  1  0  0  0  0
  4  5  1  0  0  0  0
  5 26  1  0  0  0  0
  5 14  1  1  0  0  0
  6 15  1  0  0  0  0
  6  5  1  0  0  0  0
  8  2  1  0  0  0  0
 10  3  1  0  0  0  0
 11  3  1  0  0  0  0
 16  6  1  0  0  0  0
 17  1  1  0  0  0  0
 18 23  1  0  0  0  0
 18 17  2  0  0  0  0
 19 18  1  0  0  0  0
 20 19  2  0  0  0  0
 20 21  1  0  0  0  0
 21 22  2  0  0  0  0
 22 17  1  0  0  0  0
 24 19  1  0  0  0  0
 25 21  1  0  0  0  0
 26 28  1  0  0  0  0
 26 29  1  0  0  0  0
 27 26  1  0  0  0  0
 29 32  1  0  0  0  0
 29 30  1  0  0  0  0
 31 29  1  0  0  0  0
 32 33  1  0  0  0  0
 34 33  1  0  0  0  0
 35 34  1  0  0  0  0
 36 35  1  0  0  0  0
 37 36  1  0  0  0  0
 37 32  1  0  0  0  0
M  END
>  <minimizedAffinity>
-5.12175894

$$$$

 OpenBabel03242519553D

 37 39  0  0  1  0  0  0  0  0999 V2000
   37.4580   30.6640   39.9190 C   0  0  2  0  0  0  0  0  0  0  0  0
   36.9210   31.9810   40.3230 C   0  0  0  0  0  0  0  0  0  0  0  0
   37.9280   33.0740   40.1950 C   0  0  0  0  0  0  0  0  0  0  0  0
   39.2130   32.8000   40.9340 C   0  0  0  0  0  0  0  0  0  0  0  0
   39.6370   31.3640   40.9070 C   0  0  2  0  0  0  0  0  0  0  0  0
   38.9440   30.6010   39.7960 C   0  0  0  0  0  0  0  0  0  0  0  0
   37.1500   29.9330   40.7330 H   0  0  0  0  0  0  0  0  0  0  0  0
   36.0600   32.2610   39.6800 H   0  0  0  0  0  0  0  0  0  0  0  0
   36.5520   31.9840   41.3680 H   0  0  0  0  0  0  0  0  0  0  0  0
   37.5080   34.0190   40.6230 H   0  0  0  0  0  0  0  0  0  0  0  0
   38.1380   33.2370   39.1130 H   0  0  0  0  0  0  0  0  0  0  0  0
   39.1240   33.1990   41.9850 H   0  0  0  0  0  0  0  0  0  0  0  0
   39.9860   33.4680   40.4730 H   0  0  0  0  0  0  0  0  0  0  0  0
   40.7350   31.3470   40.6450 H   0  0  0  0  0  0  0  0  0  0  0  0
   39.2160   29.5110   39.9260 H   0  0  0  0  0  0  0  0  0  0  0  0
   39.4060   30.9200   38.8790 H   0  0  0  0  0  0  0  0  0  0  0  0
   36.8480   30.1270   38.6900 C   0  0  0  0  0  0  0  0  0  0  0  0
   35.6660   29.4240   38.9060 C   0  0  0  0  0  0  0  0  0  0  0  0
   34.9730   28.8780   37.8210 C   0  0  0  0  0  0  0  0  0  0  0  0
   35.5360   29.0830   36.5730 N   0  0  0  0  0  0  0  0  0  0  0  0
   36.6840   29.7690   36.4090 C   0  0  0  0  0  0  0  0  0  0  0  0
   37.3220   30.2780   37.4630 N   0  0  0  0  0  0  0  0  0  0  0  0
   35.0640   29.1350   39.7540 H   0  0  0  0  0  0  0  0  0  0  0  0
   34.0670   28.3160   37.7590 H   0  0  0  0  0  0  0  0  0  0  0  0
   37.0540   29.8800   35.3850 H   0  0  0  0  0  0  0  0  0  0  0  0
   39.4570   30.7680   42.2480 C   0  0  0  0  0  0  0  0  0  0  0  0
   38.3530   30.5800   42.3860 H   0  0  0  0  0  0  0  0  0  0  0  0
   39.6900   31.5430   43.0050 H   0  0  0  0  0  0  0  0  0  0  0  0
   40.1580   29.4900   42.5050 C   0  0  0  0  0  0  0  0  0  0  0  0
   40.8820   29.6310   43.3310 H   0  0  0  0  0  0  0  0  0  0  0  0
   40.7460   29.1750   41.6180 H   0  0  0  0  0  0  0  0  0  0  0  0
   39.2340   28.3610   42.9050 C   0  0  0  0  0  3  0  0  0  0  0  0
   37.8680   28.9370   43.1870 C   0  0  0  0  0  2  0  0  0  0  0  0
   36.7750   28.1340   42.5410 C   0  0  0  0  0  2  0  0  0  0  0  0
   36.9830   26.6390   42.6640 C   0  0  0  0  0  2  0  0  0  0  0  0
   38.2710   26.2210   42.0310 C   0  0  0  0  0  2  0  0  0  0  0  0
   39.1100   27.4420   41.7100 C   0  0  0  0  0  2  0  0  0  0  0  0
  1  2  1  0  0  0  0
  1  7  1  1  0  0  0
  2  9  1  0  0  0  0
  3  2  1  0  0  0  0
  3 10  1  0  0  0  0
  3  4  1  0  0  0  0
  4 12  1  0  0  0  0
  5 14  1  6  0  0  0
  5  4  1  0  0  0  0
  5 26  1  0  0  0  0
  6  1  1  0  0  0  0
  6 15  1  0  0  0  0
  6  5  1  0  0  0  0
  8  2  1  0  0  0  0
 11  3  1  0  0  0  0
 13  4  1  0  0  0  0
 16  6  1  0  0  0  0
 17 18  1  0  0  0  0
 17  1  1  0  0  0  0
 18 23  1  0  0  0  0
 19 18  2  0  0  0  0
 20 19  1  0  0  0  0
 21 20  2  0  0  0  0
 21 22  1  0  0  0  0
 22 17  2  0  0  0  0
 24 19  1  0  0  0  0
 25 21  1  0  0  0  0
 26 27  1  0  0  0  0
 26 29  1  0  0  0  0
 26 28  1  0  0  0  0
 29 32  1  0  0  0  0
 29 30  1  0  0  0  0
 31 29  1  0  0  0  0
 32 33  1  0  0  0  0
 34 35  1  0  0  0  0
 34 33  1  0  0  0  0
 36 35  1  0  0  0  0
 37 36  1  0  0  0  0
 37 32  1  0  0  0  0
M  END
>  <minimizedAffinity>
-5.1019063

$$$$

 OpenBabel03242519553D

 37 39  0  0  1  0  0  0  0  0999 V2000
   37.4490   26.6580   41.2200 C   0  0  2  0  0  0  0  0  0  0  0  0
   38.9210   26.6850   41.0810 C   0  0  0  0  0  0  0  0  0  0  0  0
   39.6230   26.3200   42.3450 C   0  0  0  0  0  0  0  0  0  0  0  0
   39.2080   27.1580   43.5280 C   0  0  0  0  0  0  0  0  0  0  0  0
   37.7550   27.5210   43.5380 C   0  0  2  0  0  0  0  0  0  0  0  0
   36.9510   26.6180   42.6260 C   0  0  0  0  0  0  0  0  0  0  0  0
   37.0690   27.6200   40.7480 H   0  0  0  0  0  0  0  0  0  0  0  0
   39.2490   25.9560   40.3090 H   0  0  0  0  0  0  0  0  0  0  0  0
   39.2970   27.6770   40.7610 H   0  0  0  0  0  0  0  0  0  0  0  0
   40.7240   26.4720   42.2170 H   0  0  0  0  0  0  0  0  0  0  0  0
   39.4350   25.2430   42.5570 H   0  0  0  0  0  0  0  0  0  0  0  0
   39.8750   28.0650   43.5880 H   0  0  0  0  0  0  0  0  0  0  0  0
   39.4940   26.5720   44.4400 H   0  0  0  0  0  0  0  0  0  0  0  0
   37.3700   27.3180   44.5800 H   0  0  0  0  0  0  0  0  0  0  0  0
   35.9000   27.0360   42.5900 H   0  0  0  0  0  0  0  0  0  0  0  0
   36.8810   25.6690   43.1280 H   0  0  0  0  0  0  0  0  0  0  0  0
   36.8000   25.5860   40.4450 C   0  0  0  0  0  0  0  0  0  0  0  0
   36.3800   25.9790   39.1780 C   0  0  0  0  0  0  0  0  0  0  0  0
   35.7650   25.0510   38.3300 C   0  0  0  0  0  0  0  0  0  0  0  0
   35.6150   23.7710   38.8340 N   0  0  0  0  0  0  0  0  0  0  0  0
   36.0360   23.4340   40.0690 C   0  0  0  0  0  0  0  0  0  0  0  0
   36.6190   24.3400   40.8540 N   0  0  0  0  0  0  0  0  0  0  0  0
   36.3760   26.8870   38.5940 H   0  0  0  0  0  0  0  0  0  0  0  0
   35.3750   25.1350   37.3390 H   0  0  0  0  0  0  0  0  0  0  0  0
   35.8740   22.3970   40.3820 H   0  0  0  0  0  0  0  0  0  0  0  0
   37.6010   28.9620   43.2450 C   0  0  0  0  0  0  0  0  0  0  0  0
   37.1470   29.4430   44.1600 H   0  0  0  0  0  0  0  0  0  0  0  0
   36.8170   29.0760   42.4700 H   0  0  0  0  0  0  0  0  0  0  0  0
   38.8380   29.7080   42.9220 C   0  0  0  0  0  0  0  0  0  0  0  0
   39.7040   29.0200   42.9840 H   0  0  0  0  0  0  0  0  0  0  0  0
   39.0190   30.5150   43.6620 H   0  0  0  0  0  0  0  0  0  0  0  0
   38.8400   30.3080   41.5330 C   0  0  0  0  0  3  0  0  0  0  0  0
   37.4090   30.4570   41.0740 C   0  0  0  0  0  2  0  0  0  0  0  0
   37.1540   31.8060   40.4630 C   0  0  0  0  0  2  0  0  0  0  0  0
   38.2710   32.2670   39.5510 C   0  0  0  0  0  2  0  0  0  0  0  0
   39.5670   32.3570   40.2920 C   0  0  0  0  0  2  0  0  0  0  0  0
   39.4350   31.6940   41.6480 C   0  0  0  0  0  2  0  0  0  0  0  0
  1  7  1  6  0  0  0
  1  6  1  0  0  0  0
  2  1  1  0  0  0  0
  2  3  1  0  0  0  0
  3 11  1  0  0  0  0
  3  4  1  0  0  0  0
  4  5  1  0  0  0  0
  4 12  1  0  0  0  0
  4 13  1  0  0  0  0
  5 14  1  1  0  0  0
  6 16  1  0  0  0  0
  6  5  1  0  0  0  0
  8  2  1  0  0  0  0
  9  2  1  0  0  0  0
 10  3  1  0  0  0  0
 15  6  1  0  0  0  0
 17 22  1  0  0  0  0
 17  1  1  0  0  0  0
 18 17  2  0  0  0  0
 19 20  2  0  0  0  0
 19 18  1  0  0  0  0
 20 21  1  0  0  0  0
 21 25  1  0  0  0  0
 21 22  2  0  0  0  0
 23 18  1  0  0  0  0
 24 19  1  0  0  0  0
 26  5  1  0  0  0  0
 26 27  1  0  0  0  0
 28 26  1  0  0  0  0
 29 30  1  0  0  0  0
 29 26  1  0  0  0  0
 29 31  1  0  0  0  0
 32 37  1  0  0  0  0
 32 29  1  0  0  0  0
 33 32  1  0  0  0  0
 34 33  1  0  0  0  0
 35 36  1  0  0  0  0
 35 34  1  0  0  0  0
 36 37  1  0  0  0  0
M  END
>  <minimizedAffinity>
-5.04231262

$$$$

 OpenBabel03242519553D

 37 39  0  0  1  0  0  0  0  0999 V2000
   38.6630   30.6930   39.8000 C   0  0  2  0  0  0  0  0  0  0  0  0
   37.9250   29.8880   38.8020 C   0  0  0  0  0  0  0  0  0  0  0  0
   36.4670   30.2000   38.7800 C   0  0  0  0  0  0  0  0  0  0  0  0
   35.8030   30.0730   40.1270 C   0  0  0  0  0  0  0  0  0  0  0  0
   36.6610   30.5140   41.2730 C   0  0  2  0  0  0  0  0  0  0  0  0
   37.8070   31.3870   40.8050 C   0  0  0  0  0  0  0  0  0  0  0  0
   39.3310   29.9650   40.3610 H   0  0  0  0  0  0  0  0  0  0  0  0
   38.3130   30.0900   37.7810 H   0  0  0  0  0  0  0  0  0  0  0  0
   38.0340   28.7990   38.9740 H   0  0  0  0  0  0  0  0  0  0  0  0
   35.9430   29.4840   38.0970 H   0  0  0  0  0  0  0  0  0  0  0  0
   36.3310   31.2330   38.3840 H   0  0  0  0  0  0  0  0  0  0  0  0
   35.4290   29.0170   40.2550 H   0  0  0  0  0  0  0  0  0  0  0  0
   34.8570   30.6720   40.0660 H   0  0  0  0  0  0  0  0  0  0  0  0
   36.0240   31.1770   41.9290 H   0  0  0  0  0  0  0  0  0  0  0  0
   38.4730   31.5660   41.7020 H   0  0  0  0  0  0  0  0  0  0  0  0
   37.3750   32.3400   40.5550 H   0  0  0  0  0  0  0  0  0  0  0  0
   39.5960   31.6660   39.2040 C   0  0  0  0  0  0  0  0  0  0  0  0
   40.0750   31.2960   37.9500 C   0  0  0  0  0  0  0  0  0  0  0  0
   40.9540   32.1400   37.2650 C   0  0  0  0  0  0  0  0  0  0  0  0
   41.2940   33.3180   37.9080 N   0  0  0  0  0  0  0  0  0  0  0  0
   40.8080   33.6360   39.1230 C   0  0  0  0  0  0  0  0  0  0  0  0
   39.9700   32.8110   39.7520 N   0  0  0  0  0  0  0  0  0  0  0  0
   39.9670   30.4550   37.2810 H   0  0  0  0  0  0  0  0  0  0  0  0
   41.4320   32.0560   36.3130 H   0  0  0  0  0  0  0  0  0  0  0  0
   41.1330   34.5890   39.5540 H   0  0  0  0  0  0  0  0  0  0  0  0
   37.0850   29.3340   42.0580 C   0  0  0  0  0  0  0  0  0  0  0  0
   36.9280   29.5830   43.1480 H   0  0  0  0  0  0  0  0  0  0  0  0
   38.1850   29.2340   41.9650 H   0  0  0  0  0  0  0  0  0  0  0  0
   36.3700   28.0670   41.7870 C   0  0  0  0  0  0  0  0  0  0  0  0
   35.6480   28.2260   40.9630 H   0  0  0  0  0  0  0  0  0  0  0  0
   35.7800   27.7480   42.6700 H   0  0  0  0  0  0  0  0  0  0  0  0
   37.2820   26.9330   41.3730 C   0  0  0  0  0  3  0  0  0  0  0  0
   38.7120   27.3660   41.5840 C   0  0  0  0  0  2  0  0  0  0  0  0
   39.5240   26.3050   42.2720 C   0  0  0  0  0  2  0  0  0  0  0  0
   39.2470   24.9110   41.7500 C   0  0  0  0  0  2  0  0  0  0  0  0
   37.8070   24.5480   41.9250 C   0  0  0  0  0  2  0  0  0  0  0  0
   37.0060   25.7760   42.3080 C   0  0  0  0  0  2  0  0  0  0  0  0
  1  7  1  1  0  0  0
  1  6  1  0  0  0  0
  2  9  1  0  0  0  0
  2  1  1  0  0  0  0
  3  2  1  0  0  0  0
  3  4  1  0  0  0  0
  4 12  1  0  0  0  0
  4  5  1  0  0  0  0
  5 14  1  1  0  0  0
  5 26  1  0  0  0  0
  6  5  1  0  0  0  0
  6 15  1  0  0  0  0
  8  2  1  0  0  0  0
 10  3  1  0  0  0  0
 11  3  1  0  0  0  0
 13  4  1  0  0  0  0
 16  6  1  0  0  0  0
 17 22  1  0  0  0  0
 17  1  1  0  0  0  0
 18 17  2  0  0  0  0
 19 20  2  0  0  0  0
 19 18  1  0  0  0  0
 20 21  1  0  0  0  0
 21 25  1  0  0  0  0
 21 22  2  0  0  0  0
 23 18  1  0  0  0  0
 24 19  1  0  0  0  0
 26 27  1  0  0  0  0
 28 26  1  0  0  0  0
 29 26  1  0  0  0  0
 29 31  1  0  0  0  0
 30 29  1  0  0  0  0
 32 33  1  0  0  0  0
 32 29  1  0  0  0  0
 32 37  1  0  0  0  0
 33 34  1  0  0  0  0
 35 36  1  0  0  0  0
 35 34  1  0  0  0  0
 36 37  1  0  0  0  0
M  END
>  <minimizedAffinity>
-5.00548744

$$$$
