
 OpenBabel03242523173D

 24 26  0  0  0  0  0  0  0  0999 V2000
   36.6040   29.8680   39.0710 C   0  0  0  0  0  0  0  0  0  0  0  0
   36.9680   31.1630   38.9060 C   0  0  0  0  0  0  0  0  0  0  0  0
   37.3480   31.5120   37.6230 C   0  0  0  0  0  0  0  0  0  0  0  0
   37.3280   30.5380   36.6350 N   0  0  0  0  0  0  0  0  0  0  0  0
   36.9580   29.2750   36.8620 C   0  0  0  0  0  0  0  0  0  0  0  0
   36.5750   28.8960   38.1290 N   0  0  0  0  0  0  0  0  0  0  0  0
   37.6570   32.5070   37.3680 H   0  0  0  0  0  0  0  0  0  0  0  0
   37.0170   28.6860   35.9550 H   0  0  0  0  0  0  0  0  0  0  0  0
   37.0540   32.1390   39.9280 C   0  0  0  0  0  0  0  0  0  0  0  0
   38.1280   32.7410   40.4960 C   0  0  0  0  0  0  0  0  0  0  0  0
   37.3690   33.6440   39.5320 C   0  0  0  0  0  0  0  0  0  0  0  0
   35.9570   32.3270   40.3220 H   0  0  0  0  0  0  0  0  0  0  0  0
   39.1850   32.5870   40.1420 H   0  0  0  0  0  0  0  0  0  0  0  0
   38.1620   33.0660   41.5790 H   0  0  0  0  0  0  0  0  0  0  0  0
   37.7280   33.7810   38.5010 H   0  0  0  0  0  0  0  0  0  0  0  0
   36.8330   34.4440   40.0090 H   0  0  0  0  0  0  0  0  0  0  0  0
   36.0740   29.2550   40.2730 C   0  0  0  0  0  0  0  0  0  0  0  0
   35.2220   28.9280   41.0560 O   0  0  0  0  0  0  0  0  0  0  0  0
   37.2550   28.6670   41.0050 C   0  0  0  0  0  3  0  0  0  0  0  0
   37.1000   27.2260   41.3260 C   0  0  0  0  0  2  0  0  0  0  0  0
   36.8120   26.9950   42.7940 C   0  0  0  0  0  2  0  0  0  0  0  0
   37.9080   27.5390   43.6770 C   0  0  0  0  0  2  0  0  0  0  0  0
   38.3700   28.9060   43.2410 C   0  0  0  0  0  2  0  0  0  0  0  0
   37.3640   29.4810   42.3020 C   0  0  0  0  0  2  0  0  0  0  0  0
  1 17  1  0  0  0  0
  2  1  1  0  0  0  0
  2  9  1  0  0  0  0
  3  2  2  0  0  0  0
  4  5  2  0  0  0  0
  4  3  1  0  0  0  0
  5  6  1  0  0  0  0
  6  1  2  0  0  0  0
  7  3  1  0  0  0  0
  8  5  1  0  0  0  0
  9 12  1  0  0  0  0
  9 10  1  0  0  0  0
 10 14  1  0  0  0  0
 11  9  1  0  0  0  0
 11 16  1  0  0  0  0
 11 10  1  0  0  0  0
 13 10  1  0  0  0  0
 15 11  1  0  0  0  0
 17 19  1  0  0  0  0
 17 18  2  0  0  0  0
 19 20  1  0  0  0  0
 19 24  1  0  0  0  0
 20 21  1  0  0  0  0
 21 22  1  0  0  0  0
 23 22  1  0  0  0  0
 24 23  1  0  0  0  0
M  END
>  <minimizedAffinity>
-5.01095867

$$$$

 OpenBabel03242523173D

 24 26  0  0  0  0  0  0  0  0999 V2000
   36.9360   29.0290   41.7070 C   0  0  0  0  0  0  0  0  0  0  0  0
   37.8450   30.0180   41.8870 C   0  0  0  0  0  0  0  0  0  0  0  0
   37.6530   31.1470   41.1130 C   0  0  0  0  0  0  0  0  0  0  0  0
   36.5760   31.1790   40.2390 N   0  0  0  0  0  0  0  0  0  0  0  0
   35.7120   30.1690   40.1060 C   0  0  0  0  0  0  0  0  0  0  0  0
   35.8770   29.0300   40.8630 N   0  0  0  0  0  0  0  0  0  0  0  0
   38.3060   31.9960   41.1670 H   0  0  0  0  0  0  0  0  0  0  0  0
   34.9530   30.4040   39.3710 H   0  0  0  0  0  0  0  0  0  0  0  0
   38.9810   29.9570   42.7290 C   0  0  0  0  0  0  0  0  0  0  0  0
   40.2050   29.4060   42.5350 C   0  0  0  0  0  0  0  0  0  0  0  0
   40.2060   30.9280   42.4420 C   0  0  0  0  0  0  0  0  0  0  0  0
   38.6720   30.4300   43.7660 H   0  0  0  0  0  0  0  0  0  0  0  0
   40.5330   28.9520   41.5590 H   0  0  0  0  0  0  0  0  0  0  0  0
   40.8220   28.9460   43.3640 H   0  0  0  0  0  0  0  0  0  0  0  0
   40.1770   31.4230   41.4600 H   0  0  0  0  0  0  0  0  0  0  0  0
   40.7010   31.4170   43.2610 H   0  0  0  0  0  0  0  0  0  0  0  0
   36.8360   27.7860   42.4460 C   0  0  0  0  0  0  0  0  0  0  0  0
   36.4640   27.0580   43.3280 O   0  0  0  0  0  0  0  0  0  0  0  0
   37.6920   26.7850   41.7100 C   0  0  0  0  0  3  0  0  0  0  0  0
   36.9100   25.7870   40.9390 C   0  0  0  0  0  2  0  0  0  0  0  0
   36.9090   24.4260   41.6030 C   0  0  0  0  0  2  0  0  0  0  0  0
   38.3050   23.8770   41.7680 C   0  0  0  0  0  2  0  0  0  0  0  0
   39.2750   24.9190   42.2640 C   0  0  0  0  0  2  0  0  0  0  0  0
   38.5070   26.0790   42.8010 C   0  0  0  0  0  2  0  0  0  0  0  0
  1  2  1  0  0  0  0
  1 17  1  0  0  0  0
  2  9  1  0  0  0  0
  3  7  1  0  0  0  0
  3  2  2  0  0  0  0
  4  3  1  0  0  0  0
  5  4  2  0  0  0  0
  5  6  1  0  0  0  0
  6  1  2  0  0  0  0
  8  5  1  0  0  0  0
  9 12  1  0  0  0  0
 10  9  1  0  0  0  0
 10 14  1  0  0  0  0
 11 10  1  0  0  0  0
 11  9  1  0  0  0  0
 11 16  1  0  0  0  0
 13 10  1  0  0  0  0
 15 11  1  0  0  0  0
 17 18  2  0  0  0  0
 19 17  1  0  0  0  0
 19 24  1  0  0  0  0
 20 21  1  0  0  0  0
 20 19  1  0  0  0  0
 21 22  1  0  0  0  0
 22 23  1  0  0  0  0
 23 24  1  0  0  0  0
M  END
>  <minimizedAffinity>
-4.89538622

$$$$

 OpenBabel03242523173D

 24 26  0  0  0  0  0  0  0  0999 V2000
   37.4810   29.6290   41.8570 C   0  0  0  0  0  0  0  0  0  0  0  0
   36.6580   29.8780   40.8100 C   0  0  0  0  0  0  0  0  0  0  0  0
   36.9960   30.9760   40.0400 C   0  0  0  0  0  0  0  0  0  0  0  0
   38.1180   31.7140   40.3900 N   0  0  0  0  0  0  0  0  0  0  0  0
   38.8910   31.4170   41.4380 C   0  0  0  0  0  0  0  0  0  0  0  0
   38.5800   30.3300   42.2240 N   0  0  0  0  0  0  0  0  0  0  0  0
   36.4230   31.2740   39.1840 H   0  0  0  0  0  0  0  0  0  0  0  0
   39.7080   32.1220   41.5280 H   0  0  0  0  0  0  0  0  0  0  0  0
   35.4770   29.1660   40.4930 C   0  0  0  0  0  0  0  0  0  0  0  0
   34.6170   29.2860   39.4510 C   0  0  0  0  0  0  0  0  0  0  0  0
   35.5250   28.0650   39.3490 C   0  0  0  0  0  0  0  0  0  0  0  0
   35.2670   28.4250   41.3880 H   0  0  0  0  0  0  0  0  0  0  0  0
   34.7900   29.9780   38.5810 H   0  0  0  0  0  0  0  0  0  0  0  0
   33.5070   29.0890   39.5320 H   0  0  0  0  0  0  0  0  0  0  0  0
   36.4270   28.0960   38.7200 H   0  0  0  0  0  0  0  0  0  0  0  0
   35.0170   27.1280   39.4900 H   0  0  0  0  0  0  0  0  0  0  0  0
   37.4240   28.5010   42.7650 C   0  0  0  0  0  0  0  0  0  0  0  0
   36.9980   27.8450   43.6800 O   0  0  0  0  0  0  0  0  0  0  0  0
   38.5460   27.5750   42.3630 C   0  0  0  0  0  3  0  0  0  0  0  0
   38.1220   26.4890   41.4460 C   0  0  0  0  0  2  0  0  0  0  0  0
   38.0440   25.1490   42.1450 C   0  0  0  0  0  2  0  0  0  0  0  0
   39.3710   24.7450   42.7410 C   0  0  0  0  0  2  0  0  0  0  0  0
   40.0520   25.8870   43.4490 C   0  0  0  0  0  2  0  0  0  0  0  0
   39.0580   26.9760   43.6790 C   0  0  0  0  0  2  0  0  0  0  0  0
  1  6  1  0  0  0  0
  1 17  1  0  0  0  0
  2  1  2  0  0  0  0
  3  4  2  0  0  0  0
  3  2  1  0  0  0  0
  4  5  1  0  0  0  0
  5  8  1  0  0  0  0
  5  6  2  0  0  0  0
  7  3  1  0  0  0  0
  9  2  1  0  0  0  0
  9 12  1  0  0  0  0
 10 14  1  0  0  0  0
 10  9  1  0  0  0  0
 11 10  1  0  0  0  0
 11 16  1  0  0  0  0
 11  9  1  0  0  0  0
 13 10  1  0  0  0  0
 15 11  1  0  0  0  0
 17 18  2  0  0  0  0
 19 17  1  0  0  0  0
 19 24  1  0  0  0  0
 20 21  1  0  0  0  0
 20 19  1  0  0  0  0
 21 22  1  0  0  0  0
 22 23  1  0  0  0  0
 23 24  1  0  0  0  0
M  END
>  <minimizedAffinity>
-4.77931786

$$$$

 OpenBabel03242523173D

 24 26  0  0  0  0  0  0  0  0999 V2000
   37.4510   28.8370   42.1120 C   0  0  0  0  0  0  0  0  0  0  0  0
   38.6950   29.1610   42.5420 C   0  0  0  0  0  0  0  0  0  0  0  0
   39.3800   28.1470   43.1860 C   0  0  0  0  0  0  0  0  0  0  0  0
   38.7600   26.9160   43.3370 N   0  0  0  0  0  0  0  0  0  0  0  0
   37.5280   26.6580   42.8900 C   0  0  0  0  0  0  0  0  0  0  0  0
   36.8190   27.6470   42.2450 N   0  0  0  0  0  0  0  0  0  0  0  0
   40.3720   28.2820   43.5710 H   0  0  0  0  0  0  0  0  0  0  0  0
   37.2410   25.6380   43.1140 H   0  0  0  0  0  0  0  0  0  0  0  0
   39.3000   30.4370   42.4480 C   0  0  0  0  0  0  0  0  0  0  0  0
   40.5990   30.8150   42.5460 C   0  0  0  0  0  0  0  0  0  0  0  0
   40.0720   30.8270   41.1160 C   0  0  0  0  0  0  0  0  0  0  0  0
   38.4310   31.2270   42.3390 H   0  0  0  0  0  0  0  0  0  0  0  0
   41.4510   30.0870   42.6460 H   0  0  0  0  0  0  0  0  0  0  0  0
   40.9300   31.8070   42.9750 H   0  0  0  0  0  0  0  0  0  0  0  0
   40.2790   29.9810   40.4420 H   0  0  0  0  0  0  0  0  0  0  0  0
   39.9540   31.8110   40.7000 H   0  0  0  0  0  0  0  0  0  0  0  0
   36.5530   29.6630   41.3300 C   0  0  0  0  0  0  0  0  0  0  0  0
   35.9040   30.6430   41.0710 O   0  0  0  0  0  0  0  0  0  0  0  0
   36.1910   28.8570   40.1070 C   0  0  0  0  0  3  0  0  0  0  0  0
   37.0850   29.0990   38.9480 C   0  0  0  0  0  2  0  0  0  0  0  0
   36.4200   29.9390   37.8790 C   0  0  0  0  0  2  0  0  0  0  0  0
   35.1630   29.2900   37.3520 C   0  0  0  0  0  2  0  0  0  0  0  0
   34.3080   28.7190   38.4540 C   0  0  0  0  0  2  0  0  0  0  0  0
   34.7590   29.2840   39.7590 C   0  0  0  0  0  2  0  0  0  0  0  0
  1  6  2  0  0  0  0
  1  2  1  0  0  0  0
  2  3  2  0  0  0  0
  3  4  1  0  0  0  0
  3  7  1  0  0  0  0
  5  8  1  0  0  0  0
  5  4  2  0  0  0  0
  6  5  1  0  0  0  0
  9  2  1  0  0  0  0
  9 10  1  0  0  0  0
 10 13  1  0  0  0  0
 10 14  1  0  0  0  0
 11  9  1  0  0  0  0
 11 10  1  0  0  0  0
 12  9  1  0  0  0  0
 15 11  1  0  0  0  0
 16 11  1  0  0  0  0
 17  1  1  0  0  0  0
 18 17  2  0  0  0  0
 19 17  1  0  0  0  0
 20 19  1  0  0  0  0
 21 20  1  0  0  0  0
 22 21  1  0  0  0  0
 22 23  1  0  0  0  0
 23 24  1  0  0  0  0
 24 19  1  0  0  0  0
M  END
>  <minimizedAffinity>
-4.69134045

$$$$

 OpenBabel03242523173D

 24 26  0  0  0  0  0  0  0  0999 V2000
   36.5890   30.6180   39.7140 C   0  0  0  0  0  0  0  0  0  0  0  0
   36.8740   30.7470   38.3960 C   0  0  0  0  0  0  0  0  0  0  0  0
   37.6250   31.8580   38.0590 C   0  0  0  0  0  0  0  0  0  0  0  0
   38.0160   32.7280   39.0660 N   0  0  0  0  0  0  0  0  0  0  0  0
   37.7020   32.5450   40.3510 C   0  0  0  0  0  0  0  0  0  0  0  0
   36.9540   31.4480   40.7190 N   0  0  0  0  0  0  0  0  0  0  0  0
   37.9150   32.0680   37.0480 H   0  0  0  0  0  0  0  0  0  0  0  0
   38.1060   33.3410   40.9650 H   0  0  0  0  0  0  0  0  0  0  0  0
   36.4190   29.8960   37.3600 C   0  0  0  0  0  0  0  0  0  0  0  0
   36.6770   29.8980   36.0290 C   0  0  0  0  0  0  0  0  0  0  0  0
   37.4010   28.7890   36.7840 C   0  0  0  0  0  0  0  0  0  0  0  0
   35.6390   29.1510   37.8400 H   0  0  0  0  0  0  0  0  0  0  0  0
   37.4180   30.5900   35.5410 H   0  0  0  0  0  0  0  0  0  0  0  0
   35.9270   29.5750   35.2470 H   0  0  0  0  0  0  0  0  0  0  0  0
   38.4550   28.9140   37.0770 H   0  0  0  0  0  0  0  0  0  0  0  0
   37.0290   27.8020   36.5780 H   0  0  0  0  0  0  0  0  0  0  0  0
   35.9090   29.5120   40.3580 C   0  0  0  0  0  0  0  0  0  0  0  0
   34.9640   28.8440   40.6880 O   0  0  0  0  0  0  0  0  0  0  0  0
   36.9800   28.6810   41.0200 C   0  0  0  0  0  3  0  0  0  0  0  0
   37.4900   27.5780   40.1680 C   0  0  0  0  0  2  0  0  0  0  0  0
   36.9780   26.2260   40.6170 C   0  0  0  0  0  2  0  0  0  0  0  0
   37.3730   25.9170   42.0410 C   0  0  0  0  0  2  0  0  0  0  0  0
   37.1840   27.0990   42.9570 C   0  0  0  0  0  2  0  0  0  0  0  0
   36.3170   28.1050   42.2780 C   0  0  0  0  0  2  0  0  0  0  0  0
  1 17  1  0  0  0  0
  1  6  1  0  0  0  0
  2  1  2  0  0  0  0
  3  2  1  0  0  0  0
  3  4  2  0  0  0  0
  4  5  1  0  0  0  0
  5  6  2  0  0  0  0
  5  8  1  0  0  0  0
  7  3  1  0  0  0  0
  9 12  1  0  0  0  0
  9  2  1  0  0  0  0
 10 11  1  0  0  0  0
 10  9  1  0  0  0  0
 11 15  1  0  0  0  0
 11  9  1  0  0  0  0
 13 10  1  0  0  0  0
 14 10  1  0  0  0  0
 16 11  1  0  0  0  0
 17 18  2  0  0  0  0
 17 19  1  0  0  0  0
 19 24  1  0  0  0  0
 20 21  1  0  0  0  0
 20 19  1  0  0  0  0
 21 22  1  0  0  0  0
 22 23  1  0  0  0  0
 24 23  1  0  0  0  0
M  END
>  <minimizedAffinity>
-4.64846659

$$$$

 OpenBabel03242523173D

 24 26  0  0  0  0  0  0  0  0999 V2000
   36.8820   28.1130   41.6190 C   0  0  0  0  0  0  0  0  0  0  0  0
   37.3760   26.8560   41.7320 C   0  0  0  0  0  0  0  0  0  0  0  0
   38.3010   26.6730   42.7440 C   0  0  0  0  0  0  0  0  0  0  0  0
   38.6410   27.7580   43.5390 N   0  0  0  0  0  0  0  0  0  0  0  0
   38.1170   28.9760   43.3770 C   0  0  0  0  0  0  0  0  0  0  0  0
   37.1940   29.1900   42.3770 N   0  0  0  0  0  0  0  0  0  0  0  0
   38.7620   25.7240   42.9330 H   0  0  0  0  0  0  0  0  0  0  0  0
   38.5210   29.6710   44.1030 H   0  0  0  0  0  0  0  0  0  0  0  0
   37.0800   25.7680   40.8780 C   0  0  0  0  0  0  0  0  0  0  0  0
   37.7740   24.6330   40.6100 C   0  0  0  0  0  0  0  0  0  0  0  0
   36.5680   24.4060   41.5150 C   0  0  0  0  0  0  0  0  0  0  0  0
   36.0840   26.0350   40.3060 H   0  0  0  0  0  0  0  0  0  0  0  0
   38.7230   24.3460   41.1400 H   0  0  0  0  0  0  0  0  0  0  0  0
   37.7600   24.1160   39.6040 H   0  0  0  0  0  0  0  0  0  0  0  0
   36.7000   24.3320   42.6050 H   0  0  0  0  0  0  0  0  0  0  0  0
   35.7630   23.8690   41.0470 H   0  0  0  0  0  0  0  0  0  0  0  0
   35.8390   28.5650   40.7200 C   0  0  0  0  0  0  0  0  0  0  0  0
   34.7560   28.9970   40.4200 O   0  0  0  0  0  0  0  0  0  0  0  0
   36.3950   28.4340   39.3240 C   0  0  0  0  0  3  0  0  0  0  0  0
   37.5540   29.3200   39.0580 C   0  0  0  0  0  2  0  0  0  0  0  0
   37.1850   30.4940   38.1760 C   0  0  0  0  0  2  0  0  0  0  0  0
   36.6420   30.0480   36.8400 C   0  0  0  0  0  2  0  0  0  0  0  0
   35.6620   28.9110   36.9720 C   0  0  0  0  0  2  0  0  0  0  0  0
   35.2300   28.8050   38.3960 C   0  0  0  0  0  2  0  0  0  0  0  0
  1  2  2  0  0  0  0
  1  6  1  0  0  0  0
  2  3  1  0  0  0  0
  3  7  1  0  0  0  0
  3  4  2  0  0  0  0
  5  4  1  0  0  0  0
  5  8  1  0  0  0  0
  6  5  2  0  0  0  0
  9 11  1  0  0  0  0
  9  2  1  0  0  0  0
 10  9  1  0  0  0  0
 10 13  1  0  0  0  0
 10 11  1  0  0  0  0
 11 15  1  0  0  0  0
 12  9  1  0  0  0  0
 14 10  1  0  0  0  0
 16 11  1  0  0  0  0
 17  1  1  0  0  0  0
 18 17  2  0  0  0  0
 19 17  1  0  0  0  0
 20 19  1  0  0  0  0
 21 20  1  0  0  0  0
 22 23  1  0  0  0  0
 22 21  1  0  0  0  0
 23 24  1  0  0  0  0
 24 19  1  0  0  0  0
M  END
>  <minimizedAffinity>
-4.64506388

$$$$

 OpenBabel03242523173D

 24 26  0  0  0  0  0  0  0  0999 V2000
   37.4130   29.8340   41.2260 C   0  0  0  0  0  0  0  0  0  0  0  0
   37.9660   29.5410   42.4280 C   0  0  0  0  0  0  0  0  0  0  0  0
   39.1500   30.1980   42.7100 C   0  0  0  0  0  0  0  0  0  0  0  0
   39.6630   31.0780   41.7690 N   0  0  0  0  0  0  0  0  0  0  0  0
   39.0690   31.3250   40.5990 C   0  0  0  0  0  0  0  0  0  0  0  0
   37.8890   30.6870   40.2880 N   0  0  0  0  0  0  0  0  0  0  0  0
   39.6820   30.0500   43.6290 H   0  0  0  0  0  0  0  0  0  0  0  0
   39.6390   32.0410   40.0190 H   0  0  0  0  0  0  0  0  0  0  0  0
   37.4780   28.5930   43.3580 C   0  0  0  0  0  0  0  0  0  0  0  0
   36.8800   27.3890   43.1720 C   0  0  0  0  0  0  0  0  0  0  0  0
   38.3280   27.2800   43.6380 C   0  0  0  0  0  0  0  0  0  0  0  0
   37.5980   29.0660   44.4330 H   0  0  0  0  0  0  0  0  0  0  0  0
   36.7550   26.9090   42.1620 H   0  0  0  0  0  0  0  0  0  0  0  0
   36.0900   26.9710   43.8630 H   0  0  0  0  0  0  0  0  0  0  0  0
   39.1320   27.0910   42.9110 H   0  0  0  0  0  0  0  0  0  0  0  0
   38.4380   26.9220   44.6460 H   0  0  0  0  0  0  0  0  0  0  0  0
   36.1380   29.3730   40.7140 C   0  0  0  0  0  0  0  0  0  0  0  0
   34.9520   29.1680   40.7380 O   0  0  0  0  0  0  0  0  0  0  0  0
   36.4110   28.8060   39.3430 C   0  0  0  0  0  3  0  0  0  0  0  0
   35.4360   29.2420   38.3130 C   0  0  0  0  0  2  0  0  0  0  0  0
   34.4670   28.1400   37.9400 C   0  0  0  0  0  2  0  0  0  0  0  0
   35.1780   26.9220   37.4020 C   0  0  0  0  0  2  0  0  0  0  0  0
   36.3960   26.5650   38.2140 C   0  0  0  0  0  2  0  0  0  0  0  0
   36.3360   27.2840   39.5200 C   0  0  0  0  0  2  0  0  0  0  0  0
  1  2  1  0  0  0  0
  2  3  2  0  0  0  0
  2  9  1  0  0  0  0
  3  7  1  0  0  0  0
  4  3  1  0  0  0  0
  5  4  2  0  0  0  0
  6  5  1  0  0  0  0
  6  1  2  0  0  0  0
  8  5  1  0  0  0  0
  9 11  1  0  0  0  0
  9 12  1  0  0  0  0
 10  9  1  0  0  0  0
 10 11  1  0  0  0  0
 10 14  1  0  0  0  0
 11 16  1  0  0  0  0
 13 10  1  0  0  0  0
 15 11  1  0  0  0  0
 17 18  2  0  0  0  0
 17  1  1  0  0  0  0
 19 24  1  0  0  0  0
 19 17  1  0  0  0  0
 20 19  1  0  0  0  0
 21 20  1  0  0  0  0
 22 21  1  0  0  0  0
 22 23  1  0  0  0  0
 23 24  1  0  0  0  0
M  END
>  <minimizedAffinity>
-4.62956476

$$$$

 OpenBabel03242523173D

 24 26  0  0  0  0  0  0  0  0999 V2000
   37.4850   27.1710   42.2150 C   0  0  0  0  0  0  0  0  0  0  0  0
   38.4920   27.7090   42.9450 C   0  0  0  0  0  0  0  0  0  0  0  0
   38.5910   29.0880   42.8920 C   0  0  0  0  0  0  0  0  0  0  0  0
   37.6780   29.7900   42.1180 N   0  0  0  0  0  0  0  0  0  0  0  0
   36.7060   29.2000   41.4190 C   0  0  0  0  0  0  0  0  0  0  0  0
   36.5820   27.8280   41.4510 N   0  0  0  0  0  0  0  0  0  0  0  0
   39.3450   29.6290   43.4270 H   0  0  0  0  0  0  0  0  0  0  0  0
   36.1120   29.9340   40.8880 H   0  0  0  0  0  0  0  0  0  0  0  0
   39.4630   26.9880   43.6800 C   0  0  0  0  0  0  0  0  0  0  0  0
   40.1730   25.8760   43.3640 C   0  0  0  0  0  0  0  0  0  0  0  0
   40.9970   27.1570   43.3030 C   0  0  0  0  0  0  0  0  0  0  0  0
   39.5300   27.4830   44.7490 H   0  0  0  0  0  0  0  0  0  0  0  0
   40.1370   25.3830   42.3530 H   0  0  0  0  0  0  0  0  0  0  0  0
   40.4910   25.1010   44.1240 H   0  0  0  0  0  0  0  0  0  0  0  0
   41.1800   27.6530   42.3380 H   0  0  0  0  0  0  0  0  0  0  0  0
   41.7310   27.2440   44.0840 H   0  0  0  0  0  0  0  0  0  0  0  0
   37.0910   25.7770   42.1620 C   0  0  0  0  0  0  0  0  0  0  0  0
   36.5750   24.7650   42.5570 O   0  0  0  0  0  0  0  0  0  0  0  0
   37.6220   25.2350   40.8590 C   0  0  0  0  0  3  0  0  0  0  0  0
   36.6100   25.1970   39.7740 C   0  0  0  0  0  2  0  0  0  0  0  0
   36.1260   23.7900   39.4940 C   0  0  0  0  0  2  0  0  0  0  0  0
   37.2550   22.8740   39.0900 C   0  0  0  0  0  2  0  0  0  0  0  0
   38.4760   23.0550   39.9550 C   0  0  0  0  0  2  0  0  0  0  0  0
   38.0930   23.8110   41.1830 C   0  0  0  0  0  2  0  0  0  0  0  0
  1  2  1  0  0  0  0
  2  9  1  0  0  0  0
  3  2  2  0  0  0  0
  3  7  1  0  0  0  0
  4  3  1  0  0  0  0
  5  6  1  0  0  0  0
  5  4  2  0  0  0  0
  6  1  2  0  0  0  0
  8  5  1  0  0  0  0
  9 12  1  0  0  0  0
 10  9  1  0  0  0  0
 10 14  1  0  0  0  0
 11 10  1  0  0  0  0
 11  9  1  0  0  0  0
 11 16  1  0  0  0  0
 13 10  1  0  0  0  0
 15 11  1  0  0  0  0
 17  1  1  0  0  0  0
 17 18  2  0  0  0  0
 19 24  1  0  0  0  0
 19 17  1  0  0  0  0
 20 19  1  0  0  0  0
 21 20  1  0  0  0  0
 22 21  1  0  0  0  0
 22 23  1  0  0  0  0
 23 24  1  0  0  0  0
M  END
>  <minimizedAffinity>
-4.59749079

$$$$

 OpenBabel03242523173D

 24 26  0  0  0  0  0  0  0  0999 V2000
   39.0920   26.9010   42.8620 C   0  0  0  0  0  0  0  0  0  0  0  0
   39.2020   25.6950   42.2540 C   0  0  0  0  0  0  0  0  0  0  0  0
   40.4330   25.0770   42.3830 C   0  0  0  0  0  0  0  0  0  0  0  0
   41.4290   25.7220   43.1020 N   0  0  0  0  0  0  0  0  0  0  0  0
   41.2580   26.9140   43.6790 C   0  0  0  0  0  0  0  0  0  0  0  0
   40.0440   27.5550   43.5690 N   0  0  0  0  0  0  0  0  0  0  0  0
   40.6410   24.1200   41.9470 H   0  0  0  0  0  0  0  0  0  0  0  0
   42.1610   27.2310   44.1870 H   0  0  0  0  0  0  0  0  0  0  0  0
   38.2090   25.0690   41.4640 C   0  0  0  0  0  0  0  0  0  0  0  0
   37.9490   23.7580   41.2340 C   0  0  0  0  0  0  0  0  0  0  0  0
   36.9520   24.4150   42.1820 C   0  0  0  0  0  0  0  0  0  0  0  0
   37.6170   25.9250   40.9070 H   0  0  0  0  0  0  0  0  0  0  0  0
   38.4910   22.9190   41.7520 H   0  0  0  0  0  0  0  0  0  0  0  0
   37.5390   23.3650   40.2570 H   0  0  0  0  0  0  0  0  0  0  0  0
   37.0590   24.2920   43.2710 H   0  0  0  0  0  0  0  0  0  0  0  0
   35.9710   24.5470   41.7640 H   0  0  0  0  0  0  0  0  0  0  0  0
   37.9020   27.7200   42.9720 C   0  0  0  0  0  0  0  0  0  0  0  0
   36.9650   28.2300   43.5290 O   0  0  0  0  0  0  0  0  0  0  0  0
   37.6510   28.2910   41.5980 C   0  0  0  0  0  3  0  0  0  0  0  0
   38.0880   29.7010   41.4490 C   0  0  0  0  0  2  0  0  0  0  0  0
   36.9190   30.6620   41.4280 C   0  0  0  0  0  2  0  0  0  0  0  0
   35.9630   30.3650   40.2980 C   0  0  0  0  0  2  0  0  0  0  0  0
   35.6850   28.8900   40.1570 C   0  0  0  0  0  2  0  0  0  0  0  0
   36.1330   28.1920   41.3970 C   0  0  0  0  0  2  0  0  0  0  0  0
  1 17  1  0  0  0  0
  1  6  1  0  0  0  0
  2  3  1  0  0  0  0
  2  1  2  0  0  0  0
  3  4  2  0  0  0  0
  4  5  1  0  0  0  0
  5  8  1  0  0  0  0
  6  5  2  0  0  0  0
  7  3  1  0  0  0  0
  9 11  1  0  0  0  0
  9  2  1  0  0  0  0
 10  9  1  0  0  0  0
 10 13  1  0  0  0  0
 10 11  1  0  0  0  0
 11 15  1  0  0  0  0
 12  9  1  0  0  0  0
 14 10  1  0  0  0  0
 16 11  1  0  0  0  0
 17 18  2  0  0  0  0
 19 17  1  0  0  0  0
 20 19  1  0  0  0  0
 21 20  1  0  0  0  0
 22 21  1  0  0  0  0
 23 22  1  0  0  0  0
 23 24  1  0  0  0  0
 24 19  1  0  0  0  0
M  END
>  <minimizedAffinity>
-4.512146

$$$$
