
 OpenBabel03252505493D

 19 20  0  0  0  0  0  0  0  0999 V2000
   44.5510   35.5160   45.0580 C   0  0  0  0  0  0  0  0  0  0  0  0
   45.2560   35.1590   43.9100 C   0  0  0  0  0  0  0  0  0  0  0  0
   46.0610   34.0330   43.9850 C   0  0  0  0  0  0  0  0  0  0  0  0
   46.1340   33.3360   45.1420 N   0  0  0  0  0  0  0  0  0  0  0  0
   45.4350   33.7180   46.2250 C   0  0  0  0  0  0  0  0  0  0  0  0
   44.6370   34.8040   46.2070 N   0  0  0  0  0  0  0  0  0  0  0  0
   43.9060   36.3780   45.0720 H   0  0  0  0  0  0  0  0  0  0  0  0
   46.5960   33.7770   43.0870 H   0  0  0  0  0  0  0  0  0  0  0  0
   45.0770   36.0270   42.6990 C   0  0  0  0  0  0  0  0  0  0  0  0
   45.2750   37.3190   43.1270 F   0  0  0  0  0  0  0  0  0  0  0  0
   43.7910   35.8580   42.2550 F   0  0  0  0  0  0  0  0  0  0  0  0
   45.9920   35.6110   41.7510 F   0  0  0  0  0  0  0  0  0  0  0  0
   45.5050   33.0030   47.4240 O   0  0  0  0  0  0  0  0  0  0  0  0
   45.8320   31.6270   47.4580 C   0  0  0  0  0  3  0  0  0  0  0  0
   45.9870   31.1540   48.8750 C   0  0  0  0  0  2  0  0  0  0  0  0
   47.4060   30.9950   49.3150 C   0  0  0  0  0  2  0  0  0  0  0  0
   48.2430   30.1690   48.3790 C   0  0  0  0  0  2  0  0  0  0  0  0
   47.7370   30.1360   46.9630 C   0  0  0  0  0  2  0  0  0  0  0  0
   47.1030   31.4590   46.6510 C   0  0  0  0  0  2  0  0  0  0  0  0
  1  7  1  0  0  0  0
  1  6  1  0  0  0  0
  2  3  1  0  0  0  0
  2  1  2  0  0  0  0
  3  4  2  0  0  0  0
  4  5  1  0  0  0  0
  5 13  1  0  0  0  0
  6  5  2  0  0  0  0
  8  3  1  0  0  0  0
  9 10  1  0  0  0  0
  9  2  1  0  0  0  0
 11  9  1  0  0  0  0
 12  9  1  0  0  0  0
 13 14  1  0  0  0  0
 14 15  1  0  0  0  0
 15 16  1  0  0  0  0
 17 16  1  0  0  0  0
 18 17  1  0  0  0  0
 19 18  1  0  0  0  0
 19 14  1  0  0  0  0
M  END
>  <minimizedAffinity>
-4.96864319

>  <minimizedRMSD>
1.04135978

$$$$
