
 OpenBabel03242523163D

 24 26  0  0  0  0  0  0  0  0999 V2000
   46.2130   34.4360   43.7270 C   0  0  0  0  0  0  0  0  0  0  0  0
   47.3300   33.8370   43.2460 C   0  0  0  0  0  0  0  0  0  0  0  0
   47.7900   32.7620   43.9850 C   0  0  0  0  0  0  0  0  0  0  0  0
   47.0930   32.3930   45.1270 N   0  0  0  0  0  0  0  0  0  0  0  0
   45.9960   33.0260   45.5510 C   0  0  0  0  0  0  0  0  0  0  0  0
   45.5130   34.1010   44.8360 N   0  0  0  0  0  0  0  0  0  0  0  0
   48.6630   32.2070   43.7060 H   0  0  0  0  0  0  0  0  0  0  0  0
   45.6160   32.5750   46.4590 H   0  0  0  0  0  0  0  0  0  0  0  0
   48.0780   34.2550   42.1200 C   0  0  0  0  0  0  0  0  0  0  0  0
   48.4540   35.4930   41.7110 C   0  0  0  0  0  0  0  0  0  0  0  0
   49.5940   34.6840   42.3180 C   0  0  0  0  0  0  0  0  0  0  0  0
   48.2910   33.2960   41.4670 H   0  0  0  0  0  0  0  0  0  0  0  0
   48.2700   36.4270   42.3110 H   0  0  0  0  0  0  0  0  0  0  0  0
   48.5590   35.7860   40.6240 H   0  0  0  0  0  0  0  0  0  0  0  0
   49.8920   34.8450   43.3650 H   0  0  0  0  0  0  0  0  0  0  0  0
   50.3350   34.3670   41.6060 H   0  0  0  0  0  0  0  0  0  0  0  0
   45.4640   35.5130   43.1110 C   0  0  0  0  0  0  0  0  0  0  0  0
   45.0420   36.6340   42.9950 O   0  0  0  0  0  0  0  0  0  0  0  0
   44.8040   34.9250   41.8880 C   0  0  0  0  0  0  0  0  0  0  0  0
   43.7380   35.7830   41.3150 C   0  0  0  0  0  0  0  0  0  0  0  0
   42.3530   35.2460   41.6080 C   0  0  0  0  0  0  0  0  0  0  0  0
   42.1580   33.8550   41.0560 C   0  0  0  0  0  0  0  0  0  0  0  0
   43.3450   32.9640   41.3160 C   0  0  0  0  0  0  0  0  0  0  0  0
   44.2040   33.5940   42.3610 C   0  0  0  0  0  0  0  0  0  0  0  0
  1  6  1  0  0  0  0
  2  1  2  0  0  0  0
  2  3  1  0  0  0  0
  3  4  2  0  0  0  0
  4  5  1  0  0  0  0
  5  8  1  0  0  0  0
  6  5  2  0  0  0  0
  7  3  1  0  0  0  0
  9 11  1  0  0  0  0
  9  2  1  0  0  0  0
 10  9  1  0  0  0  0
 10 13  1  0  0  0  0
 10 11  1  0  0  0  0
 11 15  1  0  0  0  0
 12  9  1  0  0  0  0
 14 10  1  0  0  0  0
 16 11  1  0  0  0  0
 17  1  1  0  0  0  0
 18 17  2  0  0  0  0
 19 24  1  0  0  0  0
 19 17  1  0  0  0  0
 20 21  1  0  0  0  0
 20 19  1  0  0  0  0
 22 23  1  0  0  0  0
 22 21  1  0  0  0  0
 23 24  1  0  0  0  0
M  END
>  <minimizedAffinity>
-4.93728065

>  <minimizedRMSD>
0.519927204

$$$$
