
 OpenBabel03242519433D

 26 28  0  0  1  0  0  0  0  0999 V2000
   37.8350   28.9110   38.5790 O   0  0  0  0  0  0  0  0  0  0  0  0
   36.7490   29.9410   38.7840 P   0  0  2  0  0  0  0  0  0  0  0  0
   37.2880   31.4720   38.1980 O   0  0  0  0  0  0  0  0  0  0  0  0
   40.1740   32.7070   39.9850 C   0  0  0  0  0  0  0  0  0  0  0  0
   39.3610   31.8960   39.1670 C   0  0  0  0  0  0  0  0  0  0  0  0
   38.0320   32.2820   38.9880 C   0  0  0  0  0  0  0  0  0  0  0  0
   37.5730   33.3990   39.5900 N   0  0  0  0  0  0  0  0  0  0  0  0
   38.3750   34.1600   40.3700 C   0  0  0  0  0  0  0  0  0  0  0  0
   39.6670   33.8230   40.5720 N   0  0  0  0  0  0  0  0  0  0  0  0
   41.1920   32.4250   40.1310 H   0  0  0  0  0  0  0  0  0  0  0  0
   39.7790   31.0220   38.7140 H   0  0  0  0  0  0  0  0  0  0  0  0
   37.9370   35.0400   40.8200 H   0  0  0  0  0  0  0  0  0  0  0  0
   36.4010   30.2120   40.3820 O   0  0  0  0  0  0  0  0  0  0  0  0
   36.8530   29.6350   41.5020 C   0  0  1  0  0  3  0  0  0  0  0  0
   36.2440   28.5470   41.8160 O   0  0  0  0  0  0  0  0  0  0  0  0
   37.4520   29.1780   42.6840 C   0  0  0  0  0  0  0  0  0  0  0  0
   38.8400   29.7270   42.9290 C   0  0  0  0  0  2  0  0  0  0  0  0
   39.8980   28.9080   42.2230 C   0  0  0  0  0  2  0  0  0  0  0  0
   40.0400   27.6500   43.0490 C   0  0  0  0  0  2  0  0  0  0  0  0
   38.7240   27.0470   43.2990 C   0  0  0  0  0  2  0  0  0  0  0  0
   37.5050   27.6270   42.7790 C   0  0  0  0  0  2  0  0  0  0  0  0
   35.4270   29.5480   37.8740 O   0  0  0  0  0  0  0  0  0  0  0  0
   34.6390   28.6160   38.5230 C   0  0  0  0  0  0  0  0  0  0  0  0
   35.3820   27.5400   38.9980 F   0  0  0  0  0  0  0  0  0  0  0  0
   33.9180   29.2150   39.5040 F   0  0  0  0  0  0  0  0  0  0  0  0
   33.7700   28.0980   37.5730 F   0  0  0  0  0  0  0  0  0  0  0  0
  2  1  2  6  0  0  0
  2 13  1  0  0  0  0
  3  2  1  0  0  0  0
  3  6  1  0  0  0  0
  4 10  1  0  0  0  0
  4  9  1  0  0  0  0
  5  4  2  0  0  0  0
  6  5  1  0  0  0  0
  6  7  2  0  0  0  0
  7  8  1  0  0  0  0
  8  9  2  0  0  0  0
  8 12  1  0  0  0  0
 11  5  1  0  0  0  0
 14 13  1  6  0  0  0
 14 15  1  0  0  0  0
 14 16  1  0  0  0  0
 15 16  1  0  0  0  0
 16 21  1  0  0  0  0
 16 17  1  0  0  0  0
 18 17  1  0  0  0  0
 18 19  1  0  0  0  0
 19 20  1  0  0  0  0
 21 20  1  0  0  0  0
 22 23  1  0  0  0  0
 22  2  1  0  0  0  0
 23 24  1  0  0  0  0
 23 25  1  0  0  0  0
 26 23  1  0  0  0  0
M  END
>  <minimizedAffinity>
-5.00934505

$$$$

 OpenBabel03242519433D

 26 28  0  0  1  0  0  0  0  0999 V2000
   38.0770   29.8150   39.0280 O   0  0  0  0  0  0  0  0  0  0  0  0
   38.9550   30.9410   39.5210 P   0  0  2  0  0  0  0  0  0  0  0  0
   40.5210   30.8060   38.8090 O   0  0  0  0  0  0  0  0  0  0  0  0
   42.7300   33.5670   39.5450 C   0  0  0  0  0  0  0  0  0  0  0  0
   41.9390   32.4140   39.7160 C   0  0  0  0  0  0  0  0  0  0  0  0
   41.2720   31.9130   38.5970 C   0  0  0  0  0  0  0  0  0  0  0  0
   41.4030   32.5350   37.4070 N   0  0  0  0  0  0  0  0  0  0  0  0
   42.1700   33.6410   37.2710 C   0  0  0  0  0  0  0  0  0  0  0  0
   42.8320   34.1610   38.3260 N   0  0  0  0  0  0  0  0  0  0  0  0
   43.2460   33.9620   40.3920 H   0  0  0  0  0  0  0  0  0  0  0  0
   41.8720   31.9610   40.6840 H   0  0  0  0  0  0  0  0  0  0  0  0
   42.2260   34.0860   36.2860 H   0  0  0  0  0  0  0  0  0  0  0  0
   39.2390   30.8810   41.1540 O   0  0  0  0  0  0  0  0  0  0  0  0
   39.1410   29.8800   42.0370 C   0  0  2  0  0  3  0  0  0  0  0  0
   40.0990   29.8390   42.8940 O   0  0  0  0  0  0  0  0  0  0  0  0
   38.8750   28.7830   42.8690 C   0  0  0  0  0  0  0  0  0  0  0  0
   39.2420   27.4460   42.2680 C   0  0  0  0  0  2  0  0  0  0  0  0
   38.1310   26.8980   41.4000 C   0  0  0  0  0  2  0  0  0  0  0  0
   37.0860   26.3940   42.3670 C   0  0  0  0  0  2  0  0  0  0  0  0
   36.7670   27.4240   43.3640 C   0  0  0  0  0  2  0  0  0  0  0  0
   37.3960   28.7270   43.3470 C   0  0  0  0  0  2  0  0  0  0  0  0
   38.3480   32.3890   39.0060 O   0  0  0  0  0  0  0  0  0  0  0  0
   37.6950   33.0460   40.0330 C   0  0  0  0  0  0  0  0  0  0  0  0
   36.7880   32.2200   40.6910 F   0  0  0  0  0  0  0  0  0  0  0  0
   38.5980   33.5970   40.8840 F   0  0  0  0  0  0  0  0  0  0  0  0
   36.9460   34.0560   39.4470 F   0  0  0  0  0  0  0  0  0  0  0  0
  2  1  2  6  0  0  0
  2 13  1  0  0  0  0
  3  2  1  0  0  0  0
  4  5  1  0  0  0  0
  4 10  1  0  0  0  0
  5 11  1  0  0  0  0
  6  3  1  0  0  0  0
  6  5  2  0  0  0  0
  7  6  1  0  0  0  0
  8  7  2  0  0  0  0
  8  9  1  0  0  0  0
  9  4  2  0  0  0  0
 12  8  1  0  0  0  0
 14 13  1  6  0  0  0
 14 16  1  0  0  0  0
 14 15  1  0  0  0  0
 16 15  1  0  0  0  0
 16 21  1  0  0  0  0
 17 16  1  0  0  0  0
 18 17  1  0  0  0  0
 18 19  1  0  0  0  0
 19 20  1  0  0  0  0
 21 20  1  0  0  0  0
 22  2  1  0  0  0  0
 22 23  1  0  0  0  0
 23 24  1  0  0  0  0
 23 25  1  0  0  0  0
 26 23  1  0  0  0  0
M  END
>  <minimizedAffinity>
-4.97345591

$$$$

 OpenBabel03242519433D

 26 28  0  0  1  0  0  0  0  0999 V2000
   36.4200   29.3740   37.1300 O   0  0  0  0  0  0  0  0  0  0  0  0
   36.9410   30.0390   38.3830 P   0  0  2  0  0  0  0  0  0  0  0  0
   37.4470   31.6470   38.0150 O   0  0  0  0  0  0  0  0  0  0  0  0
   38.8570   33.5040   40.7740 C   0  0  0  0  0  0  0  0  0  0  0  0
   37.9180   32.8520   39.9500 C   0  0  0  0  0  0  0  0  0  0  0  0
   38.3850   32.2590   38.7760 C   0  0  0  0  0  0  0  0  0  0  0  0
   39.6980   32.3250   38.4700 N   0  0  0  0  0  0  0  0  0  0  0  0
   40.5780   32.9580   39.2790 C   0  0  0  0  0  0  0  0  0  0  0  0
   40.1700   33.5460   40.4240 N   0  0  0  0  0  0  0  0  0  0  0  0
   38.5140   33.9620   41.6740 H   0  0  0  0  0  0  0  0  0  0  0  0
   36.8880   32.8280   40.2420 H   0  0  0  0  0  0  0  0  0  0  0  0
   41.6150   32.9710   38.9680 H   0  0  0  0  0  0  0  0  0  0  0  0
   38.3000   29.3100   38.9930 O   0  0  0  0  0  0  0  0  0  0  0  0
   38.6490   28.9820   40.2420 C   0  0  1  0  0  3  0  0  0  0  0  0
   39.7240   29.5550   40.6560 O   0  0  0  0  0  0  0  0  0  0  0  0
   38.8570   28.5260   41.5520 C   0  0  0  0  0  0  0  0  0  0  0  0
   38.5630   27.0570   41.7510 C   0  0  0  0  0  2  0  0  0  0  0  0
   37.0970   26.8120   42.0300 C   0  0  0  0  0  2  0  0  0  0  0  0
   36.8900   27.2450   43.4630 C   0  0  0  0  0  2  0  0  0  0  0  0
   37.4400   28.5900   43.6790 C   0  0  0  0  0  2  0  0  0  0  0  0
   38.0640   29.3430   42.6130 C   0  0  0  0  0  2  0  0  0  0  0  0
   35.7190   30.1910   39.4850 O   0  0  0  0  0  0  0  0  0  0  0  0
   35.0170   29.0070   39.6120 C   0  0  0  0  0  0  0  0  0  0  0  0
   33.8000   29.0430   38.9360 F   0  0  0  0  0  0  0  0  0  0  0  0
   35.7890   27.9610   39.2220 F   0  0  0  0  0  0  0  0  0  0  0  0
   34.7090   28.8680   40.9580 F   0  0  0  0  0  0  0  0  0  0  0  0
  2  1  2  6  0  0  0
  2 13  1  0  0  0  0
  2 22  1  0  0  0  0
  3  2  1  0  0  0  0
  3  6  1  0  0  0  0
  4 10  1  0  0  0  0
  5 11  1  0  0  0  0
  5  4  2  0  0  0  0
  6  5  1  0  0  0  0
  7  6  2  0  0  0  0
  7  8  1  0  0  0  0
  8  9  2  0  0  0  0
  9  4  1  0  0  0  0
 12  8  1  0  0  0  0
 14 13  1  1  0  0  0
 14 15  1  0  0  0  0
 14 16  1  0  0  0  0
 15 16  1  0  0  0  0
 16 17  1  0  0  0  0
 16 21  1  0  0  0  0
 17 18  1  0  0  0  0
 18 19  1  0  0  0  0
 19 20  1  0  0  0  0
 21 20  1  0  0  0  0
 22 23  1  0  0  0  0
 23 26  1  0  0  0  0
 24 23  1  0  0  0  0
 25 23  1  0  0  0  0
M  END
>  <minimizedAffinity>
-4.96592283

$$$$

 OpenBabel03242519433D

 26 28  0  0  1  0  0  0  0  0999 V2000
   38.3560   30.1060   39.0790 O   0  0  0  0  0  0  0  0  0  0  0  0
   39.0160   31.0780   40.0280 P   0  0  2  0  0  0  0  0  0  0  0  0
   40.7300   30.8990   39.9380 O   0  0  0  0  0  0  0  0  0  0  0  0
   42.4820   31.7500   36.8950 C   0  0  0  0  0  0  0  0  0  0  0  0
   41.8450   31.8810   38.1460 C   0  0  0  0  0  0  0  0  0  0  0  0
   41.3350   30.7240   38.7390 C   0  0  0  0  0  0  0  0  0  0  0  0
   41.4650   29.5380   38.1100 N   0  0  0  0  0  0  0  0  0  0  0  0
   42.0810   29.4400   36.9090 C   0  0  0  0  0  0  0  0  0  0  0  0
   42.5880   30.5330   36.2990 N   0  0  0  0  0  0  0  0  0  0  0  0
   42.8760   32.6250   36.4300 H   0  0  0  0  0  0  0  0  0  0  0  0
   41.7720   32.8470   38.6000 H   0  0  0  0  0  0  0  0  0  0  0  0
   42.1470   28.4560   36.4660 H   0  0  0  0  0  0  0  0  0  0  0  0
   38.6550   30.7830   41.6190 O   0  0  0  0  0  0  0  0  0  0  0  0
   38.1140   29.7200   42.2270 C   0  0  1  0  0  3  0  0  0  0  0  0
   36.8370   29.6340   42.0970 O   0  0  0  0  0  0  0  0  0  0  0  0
   37.7280   28.5630   42.9180 C   0  0  0  0  0  0  0  0  0  0  0  0
   38.8810   27.7580   43.4720 C   0  0  0  0  0  2  0  0  0  0  0  0
   39.4450   26.8050   42.4420 C   0  0  0  0  0  2  0  0  0  0  0  0
   38.4440   25.6760   42.3590 C   0  0  0  0  0  2  0  0  0  0  0  0
   37.0860   26.2030   42.1720 C   0  0  0  0  0  2  0  0  0  0  0  0
   36.8230   27.6230   42.0710 C   0  0  0  0  0  2  0  0  0  0  0  0
   38.6980   32.6280   39.5520 O   0  0  0  0  0  0  0  0  0  0  0  0
   37.3510   32.7990   39.2930 C   0  0  0  0  0  0  0  0  0  0  0  0
   36.5600   31.9170   40.0230 F   0  0  0  0  0  0  0  0  0  0  0  0
   36.9960   34.0940   39.4960 F   0  0  0  0  0  0  0  0  0  0  0  0
   37.1570   32.4790   37.9570 F   0  0  0  0  0  0  0  0  0  0  0  0
  2  1  2  6  0  0  0
  2 13  1  0  0  0  0
  3  2  1  0  0  0  0
  4  5  1  0  0  0  0
  5 11  1  0  0  0  0
  5  6  2  0  0  0  0
  6  3  1  0  0  0  0
  7  6  1  0  0  0  0
  8  7  2  0  0  0  0
  9  4  2  0  0  0  0
  9  8  1  0  0  0  0
 10  4  1  0  0  0  0
 12  8  1  0  0  0  0
 14 13  1  6  0  0  0
 14 16  1  0  0  0  0
 15 14  1  0  0  0  0
 15 16  1  0  0  0  0
 16 17  1  0  0  0  0
 18 17  1  0  0  0  0
 19 18  1  0  0  0  0
 20 19  1  0  0  0  0
 21 20  1  0  0  0  0
 21 16  1  0  0  0  0
 22  2  1  0  0  0  0
 23 25  1  0  0  0  0
 23 22  1  0  0  0  0
 23 24  1  0  0  0  0
 26 23  1  0  0  0  0
M  END
>  <minimizedAffinity>
-4.91272306

$$$$

 OpenBabel03242519433D

 26 28  0  0  1  0  0  0  0  0999 V2000
   38.0920   28.8840   39.5990 O   0  0  0  0  0  0  0  0  0  0  0  0
   36.9130   29.5810   40.2360 P   0  0  2  0  0  0  0  0  0  0  0  0
   37.4330   31.0680   40.9390 O   0  0  0  0  0  0  0  0  0  0  0  0
   40.6250   30.8320   42.6140 C   0  0  0  0  0  0  0  0  0  0  0  0
   39.2630   30.6360   42.3120 C   0  0  0  0  0  0  0  0  0  0  0  0
   38.7470   31.2830   41.1880 C   0  0  0  0  0  0  0  0  0  0  0  0
   39.5530   32.0620   40.4370 N   0  0  0  0  0  0  0  0  0  0  0  0
   40.8580   32.2330   40.7490 C   0  0  0  0  0  0  0  0  0  0  0  0
   41.3990   31.6270   41.8280 N   0  0  0  0  0  0  0  0  0  0  0  0
   41.0340   30.3440   43.4700 H   0  0  0  0  0  0  0  0  0  0  0  0
   38.6700   30.0060   42.9430 H   0  0  0  0  0  0  0  0  0  0  0  0
   41.4420   32.8730   40.1000 H   0  0  0  0  0  0  0  0  0  0  0  0
   36.2610   28.7330   41.5030 O   0  0  0  0  0  0  0  0  0  0  0  0
   36.7680   27.7740   42.2870 C   0  0  2  0  0  3  0  0  0  0  0  0
   36.9940   28.1480   43.4970 O   0  0  0  0  0  0  0  0  0  0  0  0
   37.2910   26.6560   42.9510 C   0  0  0  0  0  0  0  0  0  0  0  0
   38.7730   26.7420   43.2380 C   0  0  0  0  0  2  0  0  0  0  0  0
   39.5990   26.2740   42.0610 C   0  0  0  0  0  2  0  0  0  0  0  0
   39.4880   24.7670   42.0730 C   0  0  0  0  0  2  0  0  0  0  0  0
   38.0810   24.3550   42.1630 C   0  0  0  0  0  2  0  0  0  0  0  0
   37.0030   25.3190   42.2100 C   0  0  0  0  0  2  0  0  0  0  0  0
   35.8110   29.9910   39.0750 O   0  0  0  0  0  0  0  0  0  0  0  0
   34.8380   29.0180   38.9500 C   0  0  0  0  0  0  0  0  0  0  0  0
   35.3750   27.7340   38.9650 F   0  0  0  0  0  0  0  0  0  0  0  0
   33.8840   29.1860   39.9010 F   0  0  0  0  0  0  0  0  0  0  0  0
   34.2650   29.1840   37.6970 F   0  0  0  0  0  0  0  0  0  0  0  0
  2  1  2  6  0  0  0
  2  3  1  0  0  0  0
  2 13  1  0  0  0  0
  3  6  1  0  0  0  0
  4 10  1  0  0  0  0
  5  4  1  0  0  0  0
  5 11  1  0  0  0  0
  6  5  2  0  0  0  0
  7  8  2  0  0  0  0
  7  6  1  0  0  0  0
  8  9  1  0  0  0  0
  9  4  2  0  0  0  0
 12  8  1  0  0  0  0
 14 13  1  6  0  0  0
 14 16  1  0  0  0  0
 14 15  1  0  0  0  0
 16 17  1  0  0  0  0
 16 15  1  0  0  0  0
 18 19  1  0  0  0  0
 18 17  1  0  0  0  0
 19 20  1  0  0  0  0
 20 21  1  0  0  0  0
 21 16  1  0  0  0  0
 22  2  1  0  0  0  0
 23 24  1  0  0  0  0
 23 22  1  0  0  0  0
 23 25  1  0  0  0  0
 26 23  1  0  0  0  0
M  END
>  <minimizedAffinity>
-4.9114337

$$$$

 OpenBabel03242519433D

 26 28  0  0  1  0  0  0  0  0999 V2000
   38.8860   27.2210   40.3480 O   0  0  0  0  0  0  0  0  0  0  0  0
   38.3770   27.3580   41.7640 P   0  0  2  0  0  0  0  0  0  0  0  0
   38.0700   25.7920   42.4200 O   0  0  0  0  0  0  0  0  0  0  0  0
   36.2370   23.6150   40.1940 C   0  0  0  0  0  0  0  0  0  0  0  0
   36.5400   24.6900   41.0530 C   0  0  0  0  0  0  0  0  0  0  0  0
   37.8250   24.7440   41.5980 C   0  0  0  0  0  0  0  0  0  0  0  0
   38.7210   23.7830   41.2910 N   0  0  0  0  0  0  0  0  0  0  0  0
   38.4030   22.7610   40.4630 C   0  0  0  0  0  0  0  0  0  0  0  0
   37.1730   22.6700   39.9150 N   0  0  0  0  0  0  0  0  0  0  0  0
   35.2590   23.5610   39.7710 H   0  0  0  0  0  0  0  0  0  0  0  0
   35.7900   25.4250   41.2610 H   0  0  0  0  0  0  0  0  0  0  0  0
   39.1740   22.0280   40.2630 H   0  0  0  0  0  0  0  0  0  0  0  0
   36.9180   28.1390   41.8610 O   0  0  0  0  0  0  0  0  0  0  0  0
   36.3590   29.0770   41.0880 C   0  0  1  0  0  3  0  0  0  0  0  0
   35.1250   28.8550   40.7990 O   0  0  0  0  0  0  0  0  0  0  0  0
   35.9450   30.1480   40.2830 C   0  0  0  0  0  0  0  0  0  0  0  0
   36.0400   29.8810   38.7980 C   0  0  0  0  0  2  0  0  0  0  0  0
   37.4240   30.1750   38.2630 C   0  0  0  0  0  2  0  0  0  0  0  0
   37.5090   31.6820   38.1930 C   0  0  0  0  0  2  0  0  0  0  0  0
   37.0980   32.2810   39.4690 C   0  0  0  0  0  2  0  0  0  0  0  0
   36.6960   31.4730   40.6010 C   0  0  0  0  0  2  0  0  0  0  0  0
   39.5520   28.0240   42.7170 O   0  0  0  0  0  0  0  0  0  0  0  0
   39.6060   29.3950   42.5490 C   0  0  0  0  0  0  0  0  0  0  0  0
   39.5070   29.7650   41.2110 F   0  0  0  0  0  0  0  0  0  0  0  0
   38.6650   29.9990   43.3190 F   0  0  0  0  0  0  0  0  0  0  0  0
   40.8650   29.7980   42.9700 F   0  0  0  0  0  0  0  0  0  0  0  0
  2  1  2  6  0  0  0
  2 13  1  0  0  0  0
  2  3  1  0  0  0  0
  2 22  1  0  0  0  0
  4  5  1  0  0  0  0
  5 11  1  0  0  0  0
  5  6  2  0  0  0  0
  6  3  1  0  0  0  0
  7  6  1  0  0  0  0
  8  7  2  0  0  0  0
  9  4  2  0  0  0  0
  9  8  1  0  0  0  0
 10  4  1  0  0  0  0
 12  8  1  0  0  0  0
 14 13  1  1  0  0  0
 15 14  1  0  0  0  0
 16 21  1  0  0  0  0
 16 15  1  0  0  0  0
 16 14  1  0  0  0  0
 17 16  1  0  0  0  0
 18 17  1  0  0  0  0
 19 18  1  0  0  0  0
 19 20  1  0  0  0  0
 20 21  1  0  0  0  0
 23 22  1  0  0  0  0
 23 26  1  0  0  0  0
 23 25  1  0  0  0  0
 24 23  1  0  0  0  0
M  END
>  <minimizedAffinity>
-4.90800619

$$$$

 OpenBabel03242519433D

 26 28  0  0  1  0  0  0  0  0999 V2000
   36.9740   32.1520   38.7980 O   0  0  0  0  0  0  0  0  0  0  0  0
   37.5650   30.9770   39.5410 P   0  0  2  0  0  0  0  0  0  0  0  0
   37.5470   29.5830   38.5240 O   0  0  0  0  0  0  0  0  0  0  0  0
   36.0050   29.4720   35.2590 C   0  0  0  0  0  0  0  0  0  0  0  0
   36.9800   29.6160   36.2660 C   0  0  0  0  0  0  0  0  0  0  0  0
   36.5770   29.4320   37.5900 C   0  0  0  0  0  0  0  0  0  0  0  0
   35.2910   29.1270   37.8620 N   0  0  0  0  0  0  0  0  0  0  0  0
   34.3750   28.9950   36.8750 C   0  0  0  0  0  0  0  0  0  0  0  0
   34.7200   29.1650   35.5810 N   0  0  0  0  0  0  0  0  0  0  0  0
   36.2980   29.6100   34.2420 H   0  0  0  0  0  0  0  0  0  0  0  0
   37.9860   29.8580   35.9930 H   0  0  0  0  0  0  0  0  0  0  0  0
   33.3630   28.7490   37.1690 H   0  0  0  0  0  0  0  0  0  0  0  0
   36.6770   30.5300   40.8680 O   0  0  0  0  0  0  0  0  0  0  0  0
   36.5510   29.3570   41.4990 C   0  0  2  0  0  3  0  0  0  0  0  0
   35.5210   28.6740   41.1420 O   0  0  0  0  0  0  0  0  0  0  0  0
   36.5820   28.1760   42.2550 C   0  0  0  0  0  0  0  0  0  0  0  0
   37.3860   28.2770   43.5310 C   0  0  0  0  0  2  0  0  0  0  0  0
   38.8560   28.0140   43.2890 C   0  0  0  0  0  2  0  0  0  0  0  0
   38.9640   26.5170   43.1110 C   0  0  0  0  0  2  0  0  0  0  0  0
   37.9850   26.0430   42.1240 C   0  0  0  0  0  2  0  0  0  0  0  0
   37.0840   26.9480   41.4440 C   0  0  0  0  0  2  0  0  0  0  0  0
   39.1560   31.2720   39.8760 O   0  0  0  0  0  0  0  0  0  0  0  0
   39.2900   32.0040   41.0400 C   0  0  0  0  0  0  0  0  0  0  0  0
   38.3510   33.0280   41.1270 F   0  0  0  0  0  0  0  0  0  0  0  0
   39.2510   31.1800   42.1180 F   0  0  0  0  0  0  0  0  0  0  0  0
   40.5320   32.6210   40.9830 F   0  0  0  0  0  0  0  0  0  0  0  0
  2  1  2  6  0  0  0
  2 22  1  0  0  0  0
  2 13  1  0  0  0  0
  3  2  1  0  0  0  0
  4  9  2  0  0  0  0
  4  5  1  0  0  0  0
  5  6  2  0  0  0  0
  6  7  1  0  0  0  0
  6  3  1  0  0  0  0
  8 12  1  0  0  0  0
  8  7  2  0  0  0  0
  9  8  1  0  0  0  0
 10  4  1  0  0  0  0
 11  5  1  0  0  0  0
 14 13  1  1  0  0  0
 14 16  1  0  0  0  0
 15 14  1  0  0  0  0
 15 16  1  0  0  0  0
 16 17  1  0  0  0  0
 18 17  1  0  0  0  0
 19 18  1  0  0  0  0
 20 19  1  0  0  0  0
 21 20  1  0  0  0  0
 21 16  1  0  0  0  0
 22 23  1  0  0  0  0
 23 24  1  0  0  0  0
 23 25  1  0  0  0  0
 26 23  1  0  0  0  0
M  END
>  <minimizedAffinity>
-4.84732199

$$$$

 OpenBabel03242519433D

 26 28  0  0  1  0  0  0  0  0999 V2000
   37.9740   29.8470   37.8920 O   0  0  0  0  0  0  0  0  0  0  0  0
   36.8250   29.3670   38.7480 P   0  0  2  0  0  0  0  0  0  0  0  0
   36.7560   30.3020   40.1970 O   0  0  0  0  0  0  0  0  0  0  0  0
   39.2820   32.7090   41.1290 C   0  0  0  0  0  0  0  0  0  0  0  0
   38.5790   31.4930   41.0180 C   0  0  0  0  0  0  0  0  0  0  0  0
   37.3980   31.4920   40.2730 C   0  0  0  0  0  0  0  0  0  0  0  0
   36.9730   32.6330   39.6920 N   0  0  0  0  0  0  0  0  0  0  0  0
   37.6680   33.7870   39.8150 C   0  0  0  0  0  0  0  0  0  0  0  0
   38.8140   33.8340   40.5260 N   0  0  0  0  0  0  0  0  0  0  0  0
   40.1860   32.7260   41.6950 H   0  0  0  0  0  0  0  0  0  0  0  0
   38.9640   30.6180   41.4990 H   0  0  0  0  0  0  0  0  0  0  0  0
   37.2640   34.6620   39.3210 H   0  0  0  0  0  0  0  0  0  0  0  0
   37.0120   27.8060   39.2750 O   0  0  0  0  0  0  0  0  0  0  0  0
   37.0740   27.2830   40.5050 C   0  0  2  0  0  3  0  0  0  0  0  0
   36.6630   26.0670   40.5820 O   0  0  0  0  0  0  0  0  0  0  0  0
   37.2090   26.9090   41.8490 C   0  0  0  0  0  0  0  0  0  0  0  0
   37.5570   28.0490   42.7790 C   0  0  0  0  0  2  0  0  0  0  0  0
   39.0480   28.2970   42.8270 C   0  0  0  0  0  2  0  0  0  0  0  0
   39.6080   27.1790   43.6760 C   0  0  0  0  0  2  0  0  0  0  0  0
   39.1180   25.8780   43.2020 C   0  0  0  0  0  2  0  0  0  0  0  0
   38.2370   25.7610   42.0600 C   0  0  0  0  0  2  0  0  0  0  0  0
   35.3950   29.6370   37.9660 O   0  0  0  0  0  0  0  0  0  0  0  0
   34.4000   28.8120   38.4550 C   0  0  0  0  0  0  0  0  0  0  0  0
   34.6060   27.4790   38.1080 F   0  0  0  0  0  0  0  0  0  0  0  0
   34.2700   28.9780   39.7960 F   0  0  0  0  0  0  0  0  0  0  0  0
   33.2210   29.1960   37.8330 F   0  0  0  0  0  0  0  0  0  0  0  0
  2  1  2  6  0  0  0
  2 13  1  0  0  0  0
  2  3  1  0  0  0  0
  3  6  1  0  0  0  0
  4 10  1  0  0  0  0
  5  4  1  0  0  0  0
  5 11  1  0  0  0  0
  6  5  2  0  0  0  0
  7  8  2  0  0  0  0
  7  6  1  0  0  0  0
  8  9  1  0  0  0  0
  9  4  2  0  0  0  0
 12  8  1  0  0  0  0
 14 13  1  1  0  0  0
 14 15  1  0  0  0  0
 14 16  1  0  0  0  0
 15 16  1  0  0  0  0
 16 21  1  0  0  0  0
 16 17  1  0  0  0  0
 17 18  1  0  0  0  0
 18 19  1  0  0  0  0
 20 19  1  0  0  0  0
 21 20  1  0  0  0  0
 22 23  1  0  0  0  0
 22  2  1  0  0  0  0
 23 25  1  0  0  0  0
 24 23  1  0  0  0  0
 26 23  1  0  0  0  0
M  END
>  <minimizedAffinity>
-4.79480362

$$$$

 OpenBabel03242519433D

 26 28  0  0  1  0  0  0  0  0999 V2000
   34.8910   28.9610   39.2620 O   0  0  0  0  0  0  0  0  0  0  0  0
   36.1460   28.4080   39.8960 P   0  0  2  0  0  0  0  0  0  0  0  0
   36.3950   26.7860   39.3630 O   0  0  0  0  0  0  0  0  0  0  0  0
   37.7740   24.1450   41.4050 C   0  0  0  0  0  0  0  0  0  0  0  0
   36.8380   24.9800   40.7630 C   0  0  0  0  0  0  0  0  0  0  0  0
   37.3310   26.0080   39.9570 C   0  0  0  0  0  0  0  0  0  0  0  0
   38.6630   26.1690   39.8190 N   0  0  0  0  0  0  0  0  0  0  0  0
   39.5400   25.3530   40.4480 C   0  0  0  0  0  0  0  0  0  0  0  0
   39.1080   24.3470   41.2370 N   0  0  0  0  0  0  0  0  0  0  0  0
   37.4130   23.3550   42.0240 H   0  0  0  0  0  0  0  0  0  0  0  0
   35.7920   24.8060   40.9070 H   0  0  0  0  0  0  0  0  0  0  0  0
   40.5940   25.5440   40.2900 H   0  0  0  0  0  0  0  0  0  0  0  0
   36.0460   28.2880   41.5460 O   0  0  0  0  0  0  0  0  0  0  0  0
   36.9840   28.3290   42.5000 C   0  0  1  0  0  3  0  0  0  0  0  0
   36.6450   27.7500   43.5970 O   0  0  0  0  0  0  0  0  0  0  0  0
   38.0740   28.4700   43.3700 C   0  0  0  0  0  0  0  0  0  0  0  0
   39.0860   29.5050   42.9330 C   0  0  0  0  0  2  0  0  0  0  0  0
   40.0940   28.9280   41.9640 C   0  0  0  0  0  2  0  0  0  0  0  0
   41.0250   28.0930   42.8120 C   0  0  0  0  0  2  0  0  0  0  0  0
   40.2610   27.1790   43.6700 C   0  0  0  0  0  2  0  0  0  0  0  0
   38.8150   27.1290   43.6400 C   0  0  0  0  0  2  0  0  0  0  0  0
   37.4600   29.2620   39.3710 O   0  0  0  0  0  0  0  0  0  0  0  0
   37.2300   30.6230   39.4510 C   0  0  0  0  0  0  0  0  0  0  0  0
   36.5430   31.1050   38.3400 F   0  0  0  0  0  0  0  0  0  0  0  0
   36.5990   30.9240   40.6140 F   0  0  0  0  0  0  0  0  0  0  0  0
   38.4730   31.2390   39.4350 F   0  0  0  0  0  0  0  0  0  0  0  0
  2  1  2  6  0  0  0
  2 13  1  0  0  0  0
  3  2  1  0  0  0  0
  3  6  1  0  0  0  0
  4 10  1  0  0  0  0
  5 11  1  0  0  0  0
  5  4  2  0  0  0  0
  6  5  1  0  0  0  0
  7  6  2  0  0  0  0
  7  8  1  0  0  0  0
  8  9  2  0  0  0  0
  9  4  1  0  0  0  0
 12  8  1  0  0  0  0
 14 13  1  6  0  0  0
 14 16  1  0  0  0  0
 14 15  1  0  0  0  0
 16 15  1  0  0  0  0
 16 21  1  0  0  0  0
 17 16  1  0  0  0  0
 18 19  1  0  0  0  0
 18 17  1  0  0  0  0
 19 20  1  0  0  0  0
 21 20  1  0  0  0  0
 22 23  1  0  0  0  0
 22  2  1  0  0  0  0
 23 25  1  0  0  0  0
 24 23  1  0  0  0  0
 26 23  1  0  0  0  0
M  END
>  <minimizedAffinity>
-4.78534842

$$$$
