
 OpenBabel03252503293D

 22 23  0  0  0  0  0  0  0  0999 V2000
   39.0010   30.6820   41.9540 C   0  0  0  0  0  0  0  0  0  0  0  0
   38.0220   31.1180   41.0410 C   0  0  0  0  0  0  0  0  0  0  0  0
   38.4290   32.1110   40.1380 C   0  0  0  0  0  0  0  0  0  0  0  0
   39.6900   32.5710   40.2010 N   0  0  0  0  0  0  0  0  0  0  0  0
   40.5980   32.1250   41.0940 C   0  0  0  0  0  0  0  0  0  0  0  0
   40.2510   31.1680   41.9830 N   0  0  0  0  0  0  0  0  0  0  0  0
   38.6400   28.3750   42.3200 C   0  0  0  0  0  0  0  0  0  0  0  0
   38.8650   28.2930   41.0670 O   0  0  0  0  0  0  0  0  0  0  0  0
   38.6990   29.6740   42.9200 N   0  0  0  0  0  0  0  0  0  0  0  0
   37.0230   30.6900   41.0600 H   0  0  0  0  0  0  0  0  0  0  0  0
   41.6090   32.5220   41.1130 H   0  0  0  0  0  0  0  0  0  0  0  0
   38.5430   29.8600   43.9240 H   0  0  0  0  0  0  0  0  0  0  0  0
   38.3180   27.1940   43.1940 C   0  0  0  0  0  3  0  0  0  0  0  0
   39.4990   26.3180   43.3220 C   0  0  0  0  0  2  0  0  0  0  0  0
   39.5820   25.1700   42.3800 C   0  0  0  0  0  2  0  0  0  0  0  0
   38.2760   24.4150   42.4580 C   0  0  0  0  0  2  0  0  0  0  0  0
   37.2300   25.3310   41.8810 C   0  0  0  0  0  2  0  0  0  0  0  0
   37.0750   26.6100   42.6470 C   0  0  0  0  0  2  0  0  0  0  0  0
   37.3920   32.5460   39.2000 C   0  0  0  0  0  0  0  0  0  0  0  0
   36.2710   31.7240   39.3590 F   0  0  0  0  0  0  0  0  0  0  0  0
   37.8640   32.2980   37.9210 F   0  0  0  0  0  0  0  0  0  0  0  0
   36.9940   33.8410   39.3720 F   0  0  0  0  0  0  0  0  0  0  0  0
  1  6  1  0  0  0  0
  1  9  1  0  0  0  0
  2 10  1  0  0  0  0
  2  1  2  0  0  0  0
  3  4  2  0  0  0  0
  3  2  1  0  0  0  0
  4  5  1  0  0  0  0
  5 11  1  0  0  0  0
  5  6  2  0  0  0  0
  7  9  1  0  0  0  0
  7 13  1  0  0  0  0
  8  7  2  0  0  0  0
  9 12  1  0  0  0  0
 13 14  1  0  0  0  0
 15 16  1  0  0  0  0
 15 14  1  0  0  0  0
 17 16  1  0  0  0  0
 17 18  1  0  0  0  0
 18 13  1  0  0  0  0
 19 20  1  0  0  0  0
 19 22  1  0  0  0  0
 19  3  1  0  0  0  0
 21 19  1  0  0  0  0
M  END
>  <minimizedAffinity>
-5.49299908

$$$$

 OpenBabel03252503293D

 22 23  0  0  0  0  0  0  0  0999 V2000
   36.6730   29.6810   40.7950 C   0  0  0  0  0  0  0  0  0  0  0  0
   36.7050   29.3550   39.4260 C   0  0  0  0  0  0  0  0  0  0  0  0
   36.8560   30.4350   38.5440 C   0  0  0  0  0  0  0  0  0  0  0  0
   36.9550   31.6770   39.0480 N   0  0  0  0  0  0  0  0  0  0  0  0
   36.9190   31.9460   40.3690 C   0  0  0  0  0  0  0  0  0  0  0  0
   36.7760   30.9360   41.2560 N   0  0  0  0  0  0  0  0  0  0  0  0
   37.7360   27.9210   41.9600 C   0  0  0  0  0  0  0  0  0  0  0  0
   38.7440   28.2610   41.2540 O   0  0  0  0  0  0  0  0  0  0  0  0
   36.5240   28.6620   41.7830 N   0  0  0  0  0  0  0  0  0  0  0  0
   36.6180   28.3190   39.1050 H   0  0  0  0  0  0  0  0  0  0  0  0
   37.0040   32.9650   40.7370 H   0  0  0  0  0  0  0  0  0  0  0  0
   35.6500   28.4810   42.3050 H   0  0  0  0  0  0  0  0  0  0  0  0
   37.7530   26.7950   42.9570 C   0  0  0  0  0  3  0  0  0  0  0  0
   39.0400   26.7730   43.6790 C   0  0  0  0  0  2  0  0  0  0  0  0
   40.0890   25.8650   43.1440 C   0  0  0  0  0  2  0  0  0  0  0  0
   39.4750   24.4920   42.9900 C   0  0  0  0  0  2  0  0  0  0  0  0
   38.4520   24.6150   41.8920 C   0  0  0  0  0  2  0  0  0  0  0  0
   37.3540   25.5830   42.2100 C   0  0  0  0  0  2  0  0  0  0  0  0
   36.8870   30.0680   37.1270 C   0  0  0  0  0  0  0  0  0  0  0  0
   37.9140   29.1380   36.9280 F   0  0  0  0  0  0  0  0  0  0  0  0
   37.2580   31.1990   36.4160 F   0  0  0  0  0  0  0  0  0  0  0  0
   35.7240   29.5170   36.6690 F   0  0  0  0  0  0  0  0  0  0  0  0
  1  6  1  0  0  0  0
  1  9  1  0  0  0  0
  2  1  2  0  0  0  0
  3  4  2  0  0  0  0
  3  2  1  0  0  0  0
  4  5  1  0  0  0  0
  5 11  1  0  0  0  0
  5  6  2  0  0  0  0
  7 13  1  0  0  0  0
  8  7  2  0  0  0  0
  9  7  1  0  0  0  0
  9 12  1  0  0  0  0
 10  2  1  0  0  0  0
 13 14  1  0  0  0  0
 15 14  1  0  0  0  0
 16 15  1  0  0  0  0
 17 18  1  0  0  0  0
 17 16  1  0  0  0  0
 18 13  1  0  0  0  0
 19  3  1  0  0  0  0
 20 19  1  0  0  0  0
 21 19  1  0  0  0  0
 22 19  1  0  0  0  0
M  END
>  <minimizedAffinity>
-5.4121356

$$$$

 OpenBabel03252503293D

 22 23  0  0  0  0  0  0  0  0999 V2000
   37.8360   29.3390   39.6800 C   0  0  0  0  0  0  0  0  0  0  0  0
   38.0760   30.6570   40.1120 C   0  0  0  0  0  0  0  0  0  0  0  0
   37.7900   31.6660   39.1800 C   0  0  0  0  0  0  0  0  0  0  0  0
   37.3220   31.3200   37.9680 N   0  0  0  0  0  0  0  0  0  0  0  0
   37.1070   30.0410   37.5950 C   0  0  0  0  0  0  0  0  0  0  0  0
   37.3670   29.0370   38.4600 N   0  0  0  0  0  0  0  0  0  0  0  0
   37.0830   28.1130   41.5550 C   0  0  0  0  0  0  0  0  0  0  0  0
   36.1320   28.9640   41.5420 O   0  0  0  0  0  0  0  0  0  0  0  0
   38.0910   28.2320   40.5450 N   0  0  0  0  0  0  0  0  0  0  0  0
   38.4570   30.8480   41.1120 H   0  0  0  0  0  0  0  0  0  0  0  0
   36.7260   29.8020   36.6060 H   0  0  0  0  0  0  0  0  0  0  0  0
   38.9010   27.5960   40.4530 H   0  0  0  0  0  0  0  0  0  0  0  0
   37.2030   27.0040   42.5640 C   0  0  0  0  0  3  0  0  0  0  0  0
   38.0730   27.4230   43.6800 C   0  0  0  0  0  2  0  0  0  0  0  0
   39.5060   27.0360   43.5870 C   0  0  0  0  0  2  0  0  0  0  0  0
   39.5660   25.5500   43.3160 C   0  0  0  0  0  2  0  0  0  0  0  0
   39.0090   25.3570   41.9320 C   0  0  0  0  0  2  0  0  0  0  0  0
   37.5820   25.7970   41.8000 C   0  0  0  0  0  2  0  0  0  0  0  0
   38.0470   33.0280   39.6540 C   0  0  0  0  0  0  0  0  0  0  0  0
   38.0760   33.0160   41.0540 F   0  0  0  0  0  0  0  0  0  0  0  0
   36.9510   33.8000   39.3050 F   0  0  0  0  0  0  0  0  0  0  0  0
   39.2260   33.5570   39.2120 F   0  0  0  0  0  0  0  0  0  0  0  0
  1  2  1  0  0  0  0
  1  9  1  0  0  0  0
  2 10  1  0  0  0  0
  3 19  1  0  0  0  0
  3  2  2  0  0  0  0
  4  3  1  0  0  0  0
  5  4  2  0  0  0  0
  5  6  1  0  0  0  0
  6  1  2  0  0  0  0
  7 13  1  0  0  0  0
  8  7  2  0  0  0  0
  9  7  1  0  0  0  0
 11  5  1  0  0  0  0
 12  9  1  0  0  0  0
 13 14  1  0  0  0  0
 15 14  1  0  0  0  0
 16 15  1  0  0  0  0
 17 16  1  0  0  0  0
 18 17  1  0  0  0  0
 18 13  1  0  0  0  0
 19 20  1  0  0  0  0
 21 19  1  0  0  0  0
 22 19  1  0  0  0  0
M  END
>  <minimizedAffinity>
-5.33466387

$$$$

 OpenBabel03252503293D

 22 23  0  0  0  0  0  0  0  0999 V2000
   38.5790   28.9290   42.4380 C   0  0  0  0  0  0  0  0  0  0  0  0
   37.6240   29.5340   41.5990 C   0  0  0  0  0  0  0  0  0  0  0  0
   37.9470   30.8170   41.1320 C   0  0  0  0  0  0  0  0  0  0  0  0
   39.1120   31.3720   41.5080 N   0  0  0  0  0  0  0  0  0  0  0  0
   40.0000   30.7560   42.3150 C   0  0  0  0  0  0  0  0  0  0  0  0
   39.7320   29.5190   42.7870 N   0  0  0  0  0  0  0  0  0  0  0  0
   38.5490   26.6110   41.9760 C   0  0  0  0  0  0  0  0  0  0  0  0
   38.8880   26.9910   40.8060 O   0  0  0  0  0  0  0  0  0  0  0  0
   38.3570   27.6230   42.9710 N   0  0  0  0  0  0  0  0  0  0  0  0
   36.7050   29.0120   41.3460 H   0  0  0  0  0  0  0  0  0  0  0  0
   40.9330   31.2380   42.5940 H   0  0  0  0  0  0  0  0  0  0  0  0
   38.0910   27.4330   43.9510 H   0  0  0  0  0  0  0  0  0  0  0  0
   38.3420   25.1720   42.3640 C   0  0  0  0  0  3  0  0  0  0  0  0
   39.3340   24.3150   41.6870 C   0  0  0  0  0  2  0  0  0  0  0  0
   38.9050   23.6800   40.4110 C   0  0  0  0  0  2  0  0  0  0  0  0
   37.5910   22.9780   40.6650 C   0  0  0  0  0  2  0  0  0  0  0  0
   36.5830   24.0640   40.9300 C   0  0  0  0  0  2  0  0  0  0  0  0
   36.9080   24.8920   42.1360 C   0  0  0  0  0  2  0  0  0  0  0  0
   36.9370   31.4230   40.2620 C   0  0  0  0  0  0  0  0  0  0  0  0
   37.2570   31.1270   38.9320 F   0  0  0  0  0  0  0  0  0  0  0  0
   37.0600   32.7980   40.3830 F   0  0  0  0  0  0  0  0  0  0  0  0
   35.6640   30.9860   40.4980 F   0  0  0  0  0  0  0  0  0  0  0  0
  1  6  1  0  0  0  0
  1  9  1  0  0  0  0
  2  1  2  0  0  0  0
  3  4  2  0  0  0  0
  3  2  1  0  0  0  0
  4  5  1  0  0  0  0
  5 11  1  0  0  0  0
  5  6  2  0  0  0  0
  7 13  1  0  0  0  0
  7  9  1  0  0  0  0
  8  7  2  0  0  0  0
  9 12  1  0  0  0  0
 10  2  1  0  0  0  0
 14 13  1  0  0  0  0
 15 16  1  0  0  0  0
 15 14  1  0  0  0  0
 16 17  1  0  0  0  0
 17 18  1  0  0  0  0
 18 13  1  0  0  0  0
 19 21  1  0  0  0  0
 19 22  1  0  0  0  0
 19  3  1  0  0  0  0
 20 19  1  0  0  0  0
M  END
>  <minimizedAffinity>
-5.25184011

$$$$

 OpenBabel03252503293D

 22 23  0  0  0  0  0  0  0  0999 V2000
   36.5790   28.0510   39.1280 C   0  0  0  0  0  0  0  0  0  0  0  0
   37.2710   29.2450   38.8510 C   0  0  0  0  0  0  0  0  0  0  0  0
   36.7900   29.9910   37.7650 C   0  0  0  0  0  0  0  0  0  0  0  0
   35.7310   29.5310   37.0760 N   0  0  0  0  0  0  0  0  0  0  0  0
   35.0970   28.3790   37.3760 C   0  0  0  0  0  0  0  0  0  0  0  0
   35.5240   27.6280   38.4150 N   0  0  0  0  0  0  0  0  0  0  0  0
   36.5900   27.7630   41.4740 C   0  0  0  0  0  0  0  0  0  0  0  0
   35.9580   28.8710   41.4640 O   0  0  0  0  0  0  0  0  0  0  0  0
   36.9800   27.2110   40.2110 N   0  0  0  0  0  0  0  0  0  0  0  0
   38.1210   29.5430   39.4610 H   0  0  0  0  0  0  0  0  0  0  0  0
   34.2430   28.0410   36.7960 H   0  0  0  0  0  0  0  0  0  0  0  0
   37.4870   26.3180   40.0970 H   0  0  0  0  0  0  0  0  0  0  0  0
   36.9470   27.0120   42.7280 C   0  0  0  0  0  3  0  0  0  0  0  0
   37.8200   27.8370   43.5840 C   0  0  0  0  0  2  0  0  0  0  0  0
   39.2850   27.6230   43.4440 C   0  0  0  0  0  2  0  0  0  0  0  0
   39.5500   26.1420   43.5830 C   0  0  0  0  0  2  0  0  0  0  0  0
   38.9330   25.4930   42.3730 C   0  0  0  0  0  2  0  0  0  0  0  0
   37.4510   25.6950   42.2840 C   0  0  0  0  0  2  0  0  0  0  0  0
   37.5280   31.2280   37.4980 C   0  0  0  0  0  0  0  0  0  0  0  0
   37.3560   31.5690   36.1510 F   0  0  0  0  0  0  0  0  0  0  0  0
   38.8760   30.9440   37.6470 F   0  0  0  0  0  0  0  0  0  0  0  0
   37.1260   32.2900   38.2570 F   0  0  0  0  0  0  0  0  0  0  0  0
  1  9  1  0  0  0  0
  2  1  1  0  0  0  0
  2 10  1  0  0  0  0
  3  2  2  0  0  0  0
  4  5  2  0  0  0  0
  4  3  1  0  0  0  0
  5  6  1  0  0  0  0
  6  1  2  0  0  0  0
  7 13  1  0  0  0  0
  8  7  2  0  0  0  0
  9  7  1  0  0  0  0
 11  5  1  0  0  0  0
 12  9  1  0  0  0  0
 13 14  1  0  0  0  0
 15 16  1  0  0  0  0
 15 14  1  0  0  0  0
 17 16  1  0  0  0  0
 18 17  1  0  0  0  0
 18 13  1  0  0  0  0
 19 21  1  0  0  0  0
 19  3  1  0  0  0  0
 19 22  1  0  0  0  0
 20 19  1  0  0  0  0
M  END
>  <minimizedAffinity>
-5.24591923

$$$$

 OpenBabel03252503293D

 22 23  0  0  0  0  0  0  0  0999 V2000
   41.3300   32.4210   37.0990 C   0  0  0  0  0  0  0  0  0  0  0  0
   42.0440   31.2390   36.8270 C   0  0  0  0  0  0  0  0  0  0  0  0
   43.4360   31.3180   36.9790 C   0  0  0  0  0  0  0  0  0  0  0  0
   43.9840   32.4850   37.3620 N   0  0  0  0  0  0  0  0  0  0  0  0
   43.2610   33.5960   37.6130 C   0  0  0  0  0  0  0  0  0  0  0  0
   41.9160   33.5660   37.4800 N   0  0  0  0  0  0  0  0  0  0  0  0
   39.2710   31.7870   38.0720 C   0  0  0  0  0  0  0  0  0  0  0  0
   40.0220   31.2820   38.9720 O   0  0  0  0  0  0  0  0  0  0  0  0
   39.9070   32.4570   36.9780 N   0  0  0  0  0  0  0  0  0  0  0  0
   41.5190   30.3370   36.5210 H   0  0  0  0  0  0  0  0  0  0  0  0
   43.7410   34.5200   37.9210 H   0  0  0  0  0  0  0  0  0  0  0  0
   39.4010   32.9090   36.1980 H   0  0  0  0  0  0  0  0  0  0  0  0
   37.7690   31.7170   38.0970 C   0  0  0  0  0  3  0  0  0  0  0  0
   37.2420   32.4850   39.2420 C   0  0  0  0  0  2  0  0  0  0  0  0
   36.9610   31.7190   40.4850 C   0  0  0  0  0  2  0  0  0  0  0  0
   36.0910   30.5410   40.1140 C   0  0  0  0  0  2  0  0  0  0  0  0
   36.9510   29.6370   39.2720 C   0  0  0  0  0  2  0  0  0  0  0  0
   37.4270   30.2820   38.0060 C   0  0  0  0  0  2  0  0  0  0  0  0
   44.1550   30.0760   36.6900 C   0  0  0  0  0  0  0  0  0  0  0  0
   45.5290   30.3420   36.6980 F   0  0  0  0  0  0  0  0  0  0  0  0
   43.8480   29.7160   35.3870 F   0  0  0  0  0  0  0  0  0  0  0  0
   43.9130   29.0720   37.5840 F   0  0  0  0  0  0  0  0  0  0  0  0
  1  6  1  0  0  0  0
  2  3  1  0  0  0  0
  2  1  2  0  0  0  0
  3  4  2  0  0  0  0
  4  5  1  0  0  0  0
  5 11  1  0  0  0  0
  6  5  2  0  0  0  0
  7 13  1  0  0  0  0
  7  8  2  0  0  0  0
  9  1  1  0  0  0  0
  9  7  1  0  0  0  0
 10  2  1  0  0  0  0
 12  9  1  0  0  0  0
 13 14  1  0  0  0  0
 14 15  1  0  0  0  0
 16 15  1  0  0  0  0
 17 16  1  0  0  0  0
 18 13  1  0  0  0  0
 18 17  1  0  0  0  0
 19 20  1  0  0  0  0
 19  3  1  0  0  0  0
 19 22  1  0  0  0  0
 21 19  1  0  0  0  0
M  END
>  <minimizedAffinity>
-5.18345499

$$$$

 OpenBabel03252503293D

 22 23  0  0  0  0  0  0  0  0999 V2000
   37.0450   28.4590   39.4070 C   0  0  0  0  0  0  0  0  0  0  0  0
   37.0990   28.1720   40.7830 C   0  0  0  0  0  0  0  0  0  0  0  0
   36.9900   26.8170   41.1290 C   0  0  0  0  0  0  0  0  0  0  0  0
   36.8420   25.9060   40.1520 N   0  0  0  0  0  0  0  0  0  0  0  0
   36.7940   26.2250   38.8420 C   0  0  0  0  0  0  0  0  0  0  0  0
   36.8970   27.5180   38.4630 N   0  0  0  0  0  0  0  0  0  0  0  0
   38.4930   30.2860   39.0140 C   0  0  0  0  0  0  0  0  0  0  0  0
   39.3820   29.4840   39.4570 O   0  0  0  0  0  0  0  0  0  0  0  0
   37.1460   29.8050   38.9390 N   0  0  0  0  0  0  0  0  0  0  0  0
   37.2210   28.9730   41.5090 H   0  0  0  0  0  0  0  0  0  0  0  0
   36.6750   25.4590   38.0820 H   0  0  0  0  0  0  0  0  0  0  0  0
   36.3480   30.3610   38.5900 H   0  0  0  0  0  0  0  0  0  0  0  0
   38.7800   31.6950   38.5720 C   0  0  0  0  0  3  0  0  0  0  0  0
   39.8600   32.2750   39.3930 C   0  0  0  0  0  2  0  0  0  0  0  0
   39.4410   33.0880   40.5660 C   0  0  0  0  0  2  0  0  0  0  0  0
   38.4480   34.1190   40.0820 C   0  0  0  0  0  2  0  0  0  0  0  0
   37.2210   33.3520   39.6680 C   0  0  0  0  0  2  0  0  0  0  0  0
   37.4740   32.3870   38.5490 C   0  0  0  0  0  2  0  0  0  0  0  0
   37.0500   26.5460   42.5670 C   0  0  0  0  0  0  0  0  0  0  0  0
   36.5510   25.2590   42.8000 F   0  0  0  0  0  0  0  0  0  0  0  0
   36.1640   27.4120   43.1870 F   0  0  0  0  0  0  0  0  0  0  0  0
   38.3080   26.6130   43.0940 F   0  0  0  0  0  0  0  0  0  0  0  0
  1  2  1  0  0  0  0
  2  3  2  0  0  0  0
  2 10  1  0  0  0  0
  3 19  1  0  0  0  0
  4  3  1  0  0  0  0
  5  4  2  0  0  0  0
  6  5  1  0  0  0  0
  6  1  2  0  0  0  0
  7  8  2  0  0  0  0
  9  7  1  0  0  0  0
  9  1  1  0  0  0  0
 11  5  1  0  0  0  0
 12  9  1  0  0  0  0
 13  7  1  0  0  0  0
 13 14  1  0  0  0  0
 14 15  1  0  0  0  0
 16 15  1  0  0  0  0
 17 16  1  0  0  0  0
 18 13  1  0  0  0  0
 18 17  1  0  0  0  0
 19 20  1  0  0  0  0
 19 22  1  0  0  0  0
 19 21  1  0  0  0  0
M  END
>  <minimizedAffinity>
-5.1198101

$$$$

 OpenBabel03252503293D

 22 23  0  0  0  0  0  0  0  0999 V2000
   37.9200   30.5470   40.6240 C   0  0  0  0  0  0  0  0  0  0  0  0
   39.1580   30.6280   39.9590 C   0  0  0  0  0  0  0  0  0  0  0  0
   39.4410   31.8560   39.3430 C   0  0  0  0  0  0  0  0  0  0  0  0
   38.5380   32.8480   39.4250 N   0  0  0  0  0  0  0  0  0  0  0  0
   37.3610   32.7280   40.0740 C   0  0  0  0  0  0  0  0  0  0  0  0
   37.0470   31.5630   40.6820 N   0  0  0  0  0  0  0  0  0  0  0  0
   38.2330   29.1710   42.5200 C   0  0  0  0  0  0  0  0  0  0  0  0
   39.0710   30.0740   42.8530 O   0  0  0  0  0  0  0  0  0  0  0  0
   37.5260   29.3450   41.2870 N   0  0  0  0  0  0  0  0  0  0  0  0
   39.8310   29.7740   39.9420 H   0  0  0  0  0  0  0  0  0  0  0  0
   36.6580   33.5550   40.1180 H   0  0  0  0  0  0  0  0  0  0  0  0
   36.8210   28.6840   40.9220 H   0  0  0  0  0  0  0  0  0  0  0  0
   37.9500   27.9450   43.3440 C   0  0  0  0  0  3  0  0  0  0  0  0
   39.1970   27.1910   43.5790 C   0  0  0  0  0  2  0  0  0  0  0  0
   39.4890   26.0770   42.6380 C   0  0  0  0  0  2  0  0  0  0  0  0
   38.2660   25.1920   42.5770 C   0  0  0  0  0  2  0  0  0  0  0  0
   37.1930   26.0090   41.9090 C   0  0  0  0  0  2  0  0  0  0  0  0
   36.8330   27.2490   42.6700 C   0  0  0  0  0  2  0  0  0  0  0  0
   40.7340   31.9140   38.6580 C   0  0  0  0  0  0  0  0  0  0  0  0
   40.6640   32.8830   37.6510 F   0  0  0  0  0  0  0  0  0  0  0  0
   40.9090   30.7030   38.0060 F   0  0  0  0  0  0  0  0  0  0  0  0
   41.7830   32.2280   39.4740 F   0  0  0  0  0  0  0  0  0  0  0  0
  1  6  1  0  0  0  0
  1  9  1  0  0  0  0
  2  1  2  0  0  0  0
  3  4  2  0  0  0  0
  3  2  1  0  0  0  0
  4  5  1  0  0  0  0
  5 11  1  0  0  0  0
  5  6  2  0  0  0  0
  7  8  2  0  0  0  0
  7 13  1  0  0  0  0
  9  7  1  0  0  0  0
 10  2  1  0  0  0  0
 12  9  1  0  0  0  0
 13 14  1  0  0  0  0
 15 14  1  0  0  0  0
 16 15  1  0  0  0  0
 17 16  1  0  0  0  0
 17 18  1  0  0  0  0
 18 13  1  0  0  0  0
 19  3  1  0  0  0  0
 19 22  1  0  0  0  0
 20 19  1  0  0  0  0
 21 19  1  0  0  0  0
M  END
>  <minimizedAffinity>
-5.10411978

$$$$

 OpenBabel03252503293D

 22 23  0  0  0  0  0  0  0  0999 V2000
   38.2460   28.4180   41.5800 C   0  0  0  0  0  0  0  0  0  0  0  0
   37.9890   27.2290   40.8740 C   0  0  0  0  0  0  0  0  0  0  0  0
   37.3110   26.2290   41.5880 C   0  0  0  0  0  0  0  0  0  0  0  0
   36.9620   26.4650   42.8650 N   0  0  0  0  0  0  0  0  0  0  0  0
   37.2280   27.6230   43.5050 C   0  0  0  0  0  0  0  0  0  0  0  0
   37.8790   28.6130   42.8550 N   0  0  0  0  0  0  0  0  0  0  0  0
   38.0790   30.2000   40.0350 C   0  0  0  0  0  0  0  0  0  0  0  0
   36.8790   29.7850   39.9130 O   0  0  0  0  0  0  0  0  0  0  0  0
   38.9300   29.5040   40.9530 N   0  0  0  0  0  0  0  0  0  0  0  0
   38.3090   27.1220   39.8400 H   0  0  0  0  0  0  0  0  0  0  0  0
   36.9280   27.7750   44.5370 H   0  0  0  0  0  0  0  0  0  0  0  0
   39.9150   29.7560   41.1390 H   0  0  0  0  0  0  0  0  0  0  0  0
   38.6440   31.3670   39.2730 C   0  0  0  0  0  3  0  0  0  0  0  0
   39.6580   32.0640   40.0880 C   0  0  0  0  0  2  0  0  0  0  0  0
   39.1900   33.2370   40.8730 C   0  0  0  0  0  2  0  0  0  0  0  0
   38.4540   34.1600   39.9290 C   0  0  0  0  0  2  0  0  0  0  0  0
   37.2050   33.4270   39.5200 C   0  0  0  0  0  2  0  0  0  0  0  0
   37.4800   32.1440   38.7970 C   0  0  0  0  0  2  0  0  0  0  0  0
   37.0560   25.0020   40.8310 C   0  0  0  0  0  0  0  0  0  0  0  0
   36.6700   23.9970   41.7250 F   0  0  0  0  0  0  0  0  0  0  0  0
   38.2670   24.5890   40.2980 F   0  0  0  0  0  0  0  0  0  0  0  0
   36.0790   25.1240   39.8850 F   0  0  0  0  0  0  0  0  0  0  0  0
  1  6  1  0  0  0  0
  2  1  2  0  0  0  0
  2  3  1  0  0  0  0
  3  4  2  0  0  0  0
  4  5  1  0  0  0  0
  5 11  1  0  0  0  0
  6  5  2  0  0  0  0
  7  9  1  0  0  0  0
  8  7  2  0  0  0  0
  9 12  1  0  0  0  0
  9  1  1  0  0  0  0
 10  2  1  0  0  0  0
 13  7  1  0  0  0  0
 13 14  1  0  0  0  0
 14 15  1  0  0  0  0
 16 15  1  0  0  0  0
 17 16  1  0  0  0  0
 18 13  1  0  0  0  0
 18 17  1  0  0  0  0
 19  3  1  0  0  0  0
 19 20  1  0  0  0  0
 21 19  1  0  0  0  0
 22 19  1  0  0  0  0
M  END
>  <minimizedAffinity>
-5.01012611

$$$$
