
 OpenBabel03252502373D

 21 22  0  0  1  0  0  0  0  0999 V2000
   45.8780   35.2450   42.4260 C   0  0  2  0  0  0  0  0  0  0  0  0
   45.7530   36.3500   42.5120 H   0  0  0  0  0  0  0  0  0  0  0  0
   44.8420   35.2850   44.6520 C   0  0  0  0  0  0  0  0  0  0  0  0
   45.7850   34.6940   43.7740 C   0  0  0  0  0  0  0  0  0  0  0  0
   46.5600   33.6410   44.2670 C   0  0  0  0  0  0  0  0  0  0  0  0
   46.3560   33.2550   45.5500 N   0  0  0  0  0  0  0  0  0  0  0  0
   45.4570   33.8380   46.3470 C   0  0  0  0  0  0  0  0  0  0  0  0
   44.6900   34.8510   45.9230 N   0  0  0  0  0  0  0  0  0  0  0  0
   44.2130   36.1040   44.3310 H   0  0  0  0  0  0  0  0  0  0  0  0
   47.2900   33.1740   43.6250 H   0  0  0  0  0  0  0  0  0  0  0  0
   45.2800   33.5410   47.3830 H   0  0  0  0  0  0  0  0  0  0  0  0
   44.7850   34.7960   41.4790 C   0  0  0  0  0  0  0  0  0  0  0  0
   44.4420   33.3480   41.6680 C   0  0  0  0  0  0  0  0  0  0  0  0
   43.0570   32.9970   41.1880 C   0  0  0  0  0  0  0  0  0  0  0  0
   42.6350   33.9200   40.0590 C   0  0  0  0  0  0  0  0  0  0  0  0
   42.4370   35.2620   40.6860 C   0  0  0  0  0  0  0  0  0  0  0  0
   43.6050   35.7130   41.4680 C   0  0  0  0  0  0  0  0  0  0  0  0
   47.2750   34.9190   41.9150 C   0  0  0  0  0  0  0  0  0  0  0  0
   47.9840   34.6870   42.7360 H   0  0  0  0  0  0  0  0  0  0  0  0
   47.2540   34.1450   41.1310 H   0  0  0  0  0  0  0  0  0  0  0  0
   47.6540   35.8340   41.4150 H   0  0  0  0  0  0  0  0  0  0  0  0
  1  2  1  1  0  0  0
  1  4  1  0  0  0  0
  3  8  1  0  0  0  0
  4  5  1  0  0  0  0
  4  3  2  0  0  0  0
  5  6  2  0  0  0  0
  6  7  1  0  0  0  0
  7 11  1  0  0  0  0
  8  7  2  0  0  0  0
  9  3  1  0  0  0  0
 10  5  1  0  0  0  0
 12 13  1  0  0  0  0
 12  1  1  0  0  0  0
 14 13  1  0  0  0  0
 15 16  1  0  0  0  0
 15 14  1  0  0  0  0
 16 17  1  0  0  0  0
 17 12  1  0  0  0  0
 18  1  1  0  0  0  0
 18 19  1  0  0  0  0
 20 18  1  0  0  0  0
 21 18  1  0  0  0  0
M  END
>  <minimizedAffinity>
-4.3677659

>  <minimizedRMSD>
1.55420816

$$$$
