
 OpenBabel03242517533D

 35 37  0  0  0  0  0  0  0  0999 V2000
   44.4950   35.3540   45.3580 C   0  0  0  0  0  0  0  0  0  0  0  0
   44.8300   35.5770   44.0070 C   0  0  0  0  0  0  0  0  0  0  0  0
   45.8610   34.8520   43.4440 C   0  0  0  0  0  0  0  0  0  0  0  0
   46.4760   33.9740   44.2420 N   0  0  0  0  0  0  0  0  0  0  0  0
   46.1600   33.7640   45.5120 C   0  0  0  0  0  0  0  0  0  0  0  0
   45.1650   34.4610   46.0650 N   0  0  0  0  0  0  0  0  0  0  0  0
   43.6790   35.9370   45.7780 H   0  0  0  0  0  0  0  0  0  0  0  0
   44.3180   36.2920   43.3800 H   0  0  0  0  0  0  0  0  0  0  0  0
   46.3080   35.0110   42.0340 C   0  0  0  0  0  0  0  0  0  0  0  0
   47.0930   35.7590   41.9810 H   0  0  0  0  0  0  0  0  0  0  0  0
   45.3670   35.3330   41.4960 H   0  0  0  0  0  0  0  0  0  0  0  0
   46.6790   33.6870   41.4200 C   0  0  0  0  0  0  0  0  0  0  0  0
   46.4910   32.9260   42.2190 H   0  0  0  0  0  0  0  0  0  0  0  0
   45.9570   33.4450   40.6240 H   0  0  0  0  0  0  0  0  0  0  0  0
   48.1030   33.6310   40.9560 C   0  0  0  0  0  0  0  0  0  0  0  0
   48.6050   32.2690   40.6580 C   0  0  0  0  0  0  0  0  0  0  0  0
   49.4010   32.2210   39.3470 C   0  0  0  0  0  0  0  0  0  0  0  0
   48.4450   32.6010   38.2580 C   0  0  0  0  0  0  0  0  0  0  0  0
   47.8790   33.9710   38.4850 C   0  0  0  0  0  0  0  0  0  0  0  0
   48.3070   34.5850   39.7980 C   0  0  0  0  0  0  0  0  0  0  0  0
   46.8120   32.8500   46.3160 O   0  0  0  0  0  0  0  0  0  0  0  0
   45.8430   30.6130   46.8120 C   0  0  0  0  0  0  0  0  0  0  0  0
   46.2110   31.8960   47.1160 C   0  0  0  0  0  0  0  0  0  0  0  0
   45.9680   32.3480   48.4030 C   0  0  0  0  0  0  0  0  0  0  0  0
   45.3720   31.5460   49.3650 C   0  0  0  0  0  0  0  0  0  0  0  0
   45.0110   30.2540   49.0270 C   0  0  0  0  0  0  0  0  0  0  0  0
   45.2540   29.7990   47.7410 C   0  0  0  0  0  0  0  0  0  0  0  0
   46.2090   33.3290   48.7650 H   0  0  0  0  0  0  0  0  0  0  0  0
   45.1710   31.8750   50.3740 H   0  0  0  0  0  0  0  0  0  0  0  0
   44.5460   29.5370   49.6690 H   0  0  0  0  0  0  0  0  0  0  0  0
   45.0130   28.8110   47.3650 H   0  0  0  0  0  0  0  0  0  0  0  0
   46.1850   30.1300   45.1780 S   0  0  0  0  0  0  0  0  0  0  0  0
   45.1590   30.6600   44.2040 O   0  0  0  0  0  0  0  0  0  0  0  0
   46.0520   28.6140   45.1190 O   0  0  0  0  0  0  0  0  0  0  0  0
   47.4290   30.5040   44.7490 H   0  0  0  0  0  0  0  0  0  0  0  0
  1  7  1  0  0  0  0
  1  6  1  0  0  0  0
  2  1  2  0  0  0  0
  3  2  1  0  0  0  0
  3  4  2  0  0  0  0
  4  5  1  0  0  0  0
  5  6  2  0  0  0  0
  5 21  1  0  0  0  0
  8  2  1  0  0  0  0
  9  3  1  0  0  0  0
 10  9  1  0  0  0  0
 11  9  1  0  0  0  0
 12  9  1  0  0  0  0
 12 13  1  0  0  0  0
 14 12  1  0  0  0  0
 15 12  1  0  0  0  0
 16 15  1  0  0  0  0
 17 16  1  0  0  0  0
 18 19  1  0  0  0  0
 18 17  1  0  0  0  0
 19 20  1  0  0  0  0
 20 15  1  0  0  0  0
 21 23  1  0  0  0  0
 22 23  2  0  0  0  0
 22 27  1  0  0  0  0
 23 24  1  0  0  0  0
 24 28  1  0  0  0  0
 24 25  2  0  0  0  0
 25 29  1  0  0  0  0
 26 25  1  0  0  0  0
 26 30  1  0  0  0  0
 27 26  2  0  0  0  0
 31 27  1  0  0  0  0
 32 22  1  0  0  0  0
 33 32  2  0  0  0  0
 34 32  2  0  0  0  0
 35 32  1  0  0  0  0
M  END
>  <minimizedAffinity>
-5.6034956

>  <minimizedRMSD>
2.59437776

$$$$
