
 OpenBabel03242522503D

 23 24  0  0  0  0  0  0  0  0999 V2000
   45.5690   30.5820   47.7050 O   0  0  0  0  0  0  0  0  0  0  0  0
   45.9730   31.8920   48.4150 P   0  0  2  0  0  0  0  0  0  0  0  0
   45.3270   31.7960   49.9650 O   0  0  0  0  0  0  0  0  0  0  0  0
   45.5890   32.5230   50.5620 H   0  0  0  0  0  0  0  0  0  0  0  0
   45.2830   33.1850   47.5770 O   0  0  0  0  0  0  0  0  0  0  0  0
   47.1100   33.0110   44.4430 C   0  0  0  0  0  0  0  0  0  0  0  0
   46.6910   32.7430   45.7580 C   0  0  0  0  0  0  0  0  0  0  0  0
   45.6590   33.4810   46.2840 C   0  0  0  0  0  0  0  0  0  0  0  0
   45.0980   34.4320   45.5020 N   0  0  0  0  0  0  0  0  0  0  0  0
   45.4920   34.6920   44.2500 C   0  0  0  0  0  0  0  0  0  0  0  0
   46.5100   33.9710   43.7180 N   0  0  0  0  0  0  0  0  0  0  0  0
   47.9100   32.4910   43.9340 H   0  0  0  0  0  0  0  0  0  0  0  0
   47.2620   31.9600   46.1820 H   0  0  0  0  0  0  0  0  0  0  0  0
   44.9240   35.4860   43.7830 H   0  0  0  0  0  0  0  0  0  0  0  0
   47.6220   32.0080   48.4230 O   0  0  0  0  0  0  0  0  0  0  0  0
   48.5830   31.2430   48.9830 C   0  0  0  0  0  0  0  0  0  0  0  0
   49.4890   31.9230   49.5850 O   0  0  0  0  0  0  0  0  0  0  0  0
   49.2530   29.9640   49.3340 C   0  0  0  0  0  3  0  0  0  0  0  0
   50.7470   30.1190   49.4030 C   0  0  0  0  0  2  0  0  0  0  0  0
   51.4710   30.1790   48.1180 C   0  0  0  0  0  2  0  0  0  0  0  0
   51.0010   29.1870   47.0870 C   0  0  0  0  0  2  0  0  0  0  0  0
   49.5170   29.1890   46.9640 C   0  0  0  0  0  2  0  0  0  0  0  0
   48.8260   28.9590   48.2860 C   0  0  0  0  0  2  0  0  0  0  0  0
  2  1  2  6  0  0  0
  2 15  1  0  0  0  0
  2  3  1  0  0  0  0
  3  4  1  0  0  0  0
  5  2  1  0  0  0  0
  6  7  1  0  0  0  0
  7 13  1  0  0  0  0
  7  8  2  0  0  0  0
  8  5  1  0  0  0  0
  9  8  1  0  0  0  0
 10  9  2  0  0  0  0
 11 10  1  0  0  0  0
 11  6  2  0  0  0  0
 12  6  1  0  0  0  0
 14 10  1  0  0  0  0
 15 16  1  0  0  0  0
 16 18  1  0  0  0  0
 16 17  2  0  0  0  0
 18 19  1  0  0  0  0
 20 19  1  0  0  0  0
 21 20  1  0  0  0  0
 22 21  1  0  0  0  0
 22 23  1  0  0  0  0
 23 18  1  0  0  0  0
M  END
>  <minimizedAffinity>
-4.57904625

>  <minimizedRMSD>
1.62867069

$$$$
