
 OpenBabel03242516303D

 43 47  0  0  0  0  0  0  0  0999 V2000
   39.1740   30.3450   42.2390 C   0  0  0  0  0  0  0  0  0  0  0  0
   40.4480   30.2720   42.7420 N   0  0  0  0  0  0  0  0  0  0  0  0
   41.4140   31.1170   42.4120 C   0  0  0  0  0  0  0  0  0  0  0  0
   41.1170   32.0860   41.5420 N   0  0  0  0  0  0  0  0  0  0  0  0
   39.9050   32.2260   41.0040 C   0  0  0  0  0  0  0  0  0  0  0  0
   39.6100   33.2460   40.1020 C   0  0  0  0  0  0  0  0  0  0  0  0
   38.3490   33.3660   39.5660 C   0  0  0  0  0  0  0  0  0  0  0  0
   37.3620   32.4700   39.9220 C   0  0  0  0  0  0  0  0  0  0  0  0
   37.6340   31.4510   40.8200 C   0  0  0  0  0  0  0  0  0  0  0  0
   38.8820   31.3380   41.3470 C   0  0  0  0  0  0  0  0  0  0  0  0
   42.3890   30.9970   42.8480 H   0  0  0  0  0  0  0  0  0  0  0  0
   40.4470   33.8940   39.8850 H   0  0  0  0  0  0  0  0  0  0  0  0
   38.2390   34.1930   38.8810 H   0  0  0  0  0  0  0  0  0  0  0  0
   36.4520   32.6990   39.4040 H   0  0  0  0  0  0  0  0  0  0  0  0
   36.5100   30.5490   41.1130 C   0  0  0  0  0  0  0  0  0  0  0  0
   36.7540   29.5850   41.5350 H   0  0  0  0  0  0  0  0  0  0  0  0
   35.6110   31.0880   41.4950 H   0  0  0  0  0  0  0  0  0  0  0  0
   35.8180   30.0440   39.8240 C   0  0  0  0  0  3  0  0  0  0  0  0
   36.8710   29.0740   39.2300 C   0  0  0  0  0  2  0  0  0  0  0  0
   36.1700   28.1670   38.2330 C   0  0  0  0  0  2  0  0  0  0  0  0
   34.9580   28.8890   37.7140 C   0  0  0  0  0  2  0  0  0  0  0  0
   33.9000   28.9930   38.8080 C   0  0  0  0  0  2  0  0  0  0  0  0
   34.6580   29.1420   40.1160 C   0  0  0  0  0  2  0  0  0  0  0  0
   37.9440   29.2500   42.7400 S   0  0  0  0  0  0  0  0  0  0  0  0
   38.2420   25.3600   41.8630 C   0  0  0  0  0  0  0  0  0  0  0  0
   37.8790   26.6890   41.8870 C   0  0  0  0  0  0  0  0  0  0  0  0
   38.4740   27.5800   42.7440 C   0  0  0  0  0  0  0  0  0  0  0  0
   39.4600   27.1600   43.6090 C   0  0  0  0  0  0  0  0  0  0  0  0
   39.8580   25.8580   43.6280 C   0  0  0  0  0  0  0  0  0  0  0  0
   39.2460   24.9810   42.7600 C   0  0  0  0  0  0  0  0  0  0  0  0
   37.1050   27.0030   41.2030 H   0  0  0  0  0  0  0  0  0  0  0  0
   39.9000   27.8970   44.2630 H   0  0  0  0  0  0  0  0  0  0  0  0
   40.6330   25.5490   44.3150 H   0  0  0  0  0  0  0  0  0  0  0  0
   39.5500   23.9330   42.7590 H   0  0  0  0  0  0  0  0  0  0  0  0
   37.5990   22.2630   40.0520 C   0  0  0  0  0  0  0  0  0  0  0  0
   36.4720   22.5830   39.2490 C   0  0  0  0  0  0  0  0  0  0  0  0
   35.9450   23.8650   39.3410 C   0  0  0  0  0  0  0  0  0  0  0  0
   36.5070   24.7840   40.1860 N   0  0  0  0  0  0  0  0  0  0  0  0
   37.6060   24.4170   40.9460 C   0  0  0  0  0  0  0  0  0  0  0  0
   38.1420   23.1700   40.8770 N   0  0  0  0  0  0  0  0  0  0  0  0
   38.0840   21.2850   40.0490 H   0  0  0  0  0  0  0  0  0  0  0  0
   36.1080   21.8040   38.6260 H   0  0  0  0  0  0  0  0  0  0  0  0
   35.0920   24.1070   38.7340 H   0  0  0  0  0  0  0  0  0  0  0  0
  1 24  1  0  0  0  0
  1  2  1  0  0  0  0
  3  2  2  0  0  0  0
  3 11  1  0  0  0  0
  4  3  1  0  0  0  0
  5 10  1  0  0  0  0
  5  4  2  0  0  0  0
  6  5  1  0  0  0  0
  7  8  1  0  0  0  0
  7  6  2  0  0  0  0
  8  9  2  0  0  0  0
  9 15  1  0  0  0  0
  9 10  1  0  0  0  0
 10  1  2  0  0  0  0
 12  6  1  0  0  0  0
 13  7  1  0  0  0  0
 14  8  1  0  0  0  0
 15 17  1  0  0  0  0
 15 16  1  0  0  0  0
 18 23  1  0  0  0  0
 18 15  1  0  0  0  0
 19 18  1  0  0  0  0
 20 19  1  0  0  0  0
 21 20  1  0  0  0  0
 21 22  1  0  0  0  0
 22 23  1  0  0  0  0
 24 27  1  0  0  0  0
 25 26  2  0  0  0  0
 25 30  1  0  0  0  0
 26 27  1  0  0  0  0
 27 28  2  0  0  0  0
 28 29  1  0  0  0  0
 28 32  1  0  0  0  0
 29 33  1  0  0  0  0
 30 29  2  0  0  0  0
 31 26  1  0  0  0  0
 34 30  1  0  0  0  0
 35 40  1  0  0  0  0
 36 37  1  0  0  0  0
 36 35  2  0  0  0  0
 37 38  2  0  0  0  0
 38 39  1  0  0  0  0
 39 25  1  0  0  0  0
 40 39  2  0  0  0  0
 41 35  1  0  0  0  0
 42 36  1  0  0  0  0
 43 37  1  0  0  0  0
M  END
>  <minimizedAffinity>
-6.86031961

$$$$

 OpenBabel03242516303D

 43 47  0  0  0  0  0  0  0  0999 V2000
   37.4690   26.4790   41.9100 C   0  0  0  0  0  0  0  0  0  0  0  0
   37.8940   25.2700   42.4000 N   0  0  0  0  0  0  0  0  0  0  0  0
   37.7530   24.1250   41.7470 C   0  0  0  0  0  0  0  0  0  0  0  0
   37.1650   24.1670   40.5480 N   0  0  0  0  0  0  0  0  0  0  0  0
   36.7240   25.2990   40.0000 C   0  0  0  0  0  0  0  0  0  0  0  0
   36.1180   25.3260   38.7450 C   0  0  0  0  0  0  0  0  0  0  0  0
   35.6740   26.5110   38.2050 C   0  0  0  0  0  0  0  0  0  0  0  0
   35.8280   27.6880   38.9080 C   0  0  0  0  0  0  0  0  0  0  0  0
   36.4300   27.6830   40.1560 C   0  0  0  0  0  0  0  0  0  0  0  0
   36.8670   26.5100   40.6840 C   0  0  0  0  0  0  0  0  0  0  0  0
   38.1100   23.2170   42.1950 H   0  0  0  0  0  0  0  0  0  0  0  0
   36.0420   24.3560   38.2750 H   0  0  0  0  0  0  0  0  0  0  0  0
   35.2230   26.4080   37.2300 H   0  0  0  0  0  0  0  0  0  0  0  0
   35.4160   28.5060   38.3520 H   0  0  0  0  0  0  0  0  0  0  0  0
   36.5250   28.9930   40.8170 C   0  0  0  0  0  0  0  0  0  0  0  0
   35.6180   29.3880   41.2520 H   0  0  0  0  0  0  0  0  0  0  0  0
   37.4860   29.1310   41.3660 H   0  0  0  0  0  0  0  0  0  0  0  0
   36.7890   30.1370   39.8080 C   0  0  0  0  0  3  0  0  0  0  0  0
   36.7580   31.3980   40.7090 C   0  0  0  0  0  2  0  0  0  0  0  0
   37.4430   32.5300   39.9630 C   0  0  0  0  0  2  0  0  0  0  0  0
   37.3280   32.2570   38.4890 C   0  0  0  0  0  2  0  0  0  0  0  0
   38.2120   31.0750   38.1030 C   0  0  0  0  0  2  0  0  0  0  0  0
   38.1940   30.1290   39.2910 C   0  0  0  0  0  2  0  0  0  0  0  0
   37.7220   27.9420   42.7810 S   0  0  0  0  0  0  0  0  0  0  0  0
   41.1530   29.9810   42.5280 C   0  0  0  0  0  0  0  0  0  0  0  0
   39.8310   29.5990   42.4630 C   0  0  0  0  0  0  0  0  0  0  0  0
   39.4150   28.3730   42.9190 C   0  0  0  0  0  0  0  0  0  0  0  0
   40.3220   27.4870   43.4580 C   0  0  0  0  0  0  0  0  0  0  0  0
   41.6410   27.8130   43.5470 C   0  0  0  0  0  0  0  0  0  0  0  0
   42.0350   29.0480   43.0830 C   0  0  0  0  0  0  0  0  0  0  0  0
   39.1330   30.3030   42.0380 H   0  0  0  0  0  0  0  0  0  0  0  0
   39.9470   26.5360   43.8050 H   0  0  0  0  0  0  0  0  0  0  0  0
   42.3360   27.1040   43.9740 H   0  0  0  0  0  0  0  0  0  0  0  0
   43.0880   29.3290   43.1450 H   0  0  0  0  0  0  0  0  0  0  0  0
   41.1900   33.0660   40.5880 C   0  0  0  0  0  0  0  0  0  0  0  0
   42.3380   33.7450   41.0770 C   0  0  0  0  0  0  0  0  0  0  0  0
   43.0870   33.1300   42.0730 C   0  0  0  0  0  0  0  0  0  0  0  0
   42.7190   31.9050   42.5580 N   0  0  0  0  0  0  0  0  0  0  0  0
   41.5890   31.2880   42.0440 C   0  0  0  0  0  0  0  0  0  0  0  0
   40.8370   31.8660   41.0710 N   0  0  0  0  0  0  0  0  0  0  0  0
   40.5390   33.4660   39.8080 H   0  0  0  0  0  0  0  0  0  0  0  0
   42.5420   34.6900   40.6380 H   0  0  0  0  0  0  0  0  0  0  0  0
   43.9560   33.6440   42.4430 H   0  0  0  0  0  0  0  0  0  0  0  0
  1  2  1  0  0  0  0
  1 24  1  0  0  0  0
  3 11  1  0  0  0  0
  3  2  2  0  0  0  0
  4  3  1  0  0  0  0
  5  4  2  0  0  0  0
  5 10  1  0  0  0  0
  6  5  1  0  0  0  0
  7  6  2  0  0  0  0
  7  8  1  0  0  0  0
  8  9  2  0  0  0  0
  9 10  1  0  0  0  0
  9 15  1  0  0  0  0
 10  1  2  0  0  0  0
 12  6  1  0  0  0  0
 13  7  1  0  0  0  0
 14  8  1  0  0  0  0
 15 16  1  0  0  0  0
 15 17  1  0  0  0  0
 18 19  1  0  0  0  0
 18 15  1  0  0  0  0
 20 19  1  0  0  0  0
 21 20  1  0  0  0  0
 22 21  1  0  0  0  0
 22 23  1  0  0  0  0
 23 18  1  0  0  0  0
 24 27  1  0  0  0  0
 25 30  1  0  0  0  0
 26 25  2  0  0  0  0
 26 27  1  0  0  0  0
 27 28  2  0  0  0  0
 28 29  1  0  0  0  0
 28 32  1  0  0  0  0
 29 33  1  0  0  0  0
 30 34  1  0  0  0  0
 30 29  2  0  0  0  0
 31 26  1  0  0  0  0
 35 40  2  0  0  0  0
 35 36  1  0  0  0  0
 36 37  2  0  0  0  0
 37 43  1  0  0  0  0
 37 38  1  0  0  0  0
 39 25  1  0  0  0  0
 39 38  2  0  0  0  0
 40 39  1  0  0  0  0
 41 35  1  0  0  0  0
 42 36  1  0  0  0  0
M  END
>  <minimizedAffinity>
-6.59224796

$$$$

 OpenBabel03242516303D

 43 47  0  0  0  0  0  0  0  0999 V2000
   36.6860   27.0730   39.4730 C   0  0  0  0  0  0  0  0  0  0  0  0
   36.6250   25.7050   39.3910 N   0  0  0  0  0  0  0  0  0  0  0  0
   36.7790   24.9020   40.4340 C   0  0  0  0  0  0  0  0  0  0  0  0
   37.0020   25.4700   41.6230 N   0  0  0  0  0  0  0  0  0  0  0  0
   37.0760   26.7900   41.7890 C   0  0  0  0  0  0  0  0  0  0  0  0
   37.3040   27.3660   43.0370 C   0  0  0  0  0  0  0  0  0  0  0  0
   37.3730   28.7330   43.1780 C   0  0  0  0  0  0  0  0  0  0  0  0
   37.2160   29.5460   42.0750 C   0  0  0  0  0  0  0  0  0  0  0  0
   36.9850   28.9940   40.8260 C   0  0  0  0  0  0  0  0  0  0  0  0
   36.9170   27.6430   40.6930 C   0  0  0  0  0  0  0  0  0  0  0  0
   36.7180   23.8390   40.2920 H   0  0  0  0  0  0  0  0  0  0  0  0
   37.4150   26.6480   43.8370 H   0  0  0  0  0  0  0  0  0  0  0  0
   37.5530   29.0630   44.1900 H   0  0  0  0  0  0  0  0  0  0  0  0
   37.3140   30.5750   42.3590 H   0  0  0  0  0  0  0  0  0  0  0  0
   36.8490   29.9570   39.7240 C   0  0  0  0  0  0  0  0  0  0  0  0
   37.3180   29.6960   38.7850 H   0  0  0  0  0  0  0  0  0  0  0  0
   35.8490   30.4510   39.7020 H   0  0  0  0  0  0  0  0  0  0  0  0
   37.6320   31.2650   39.9920 C   0  0  0  0  0  3  0  0  0  0  0  0
   38.9850   31.0030   39.2830 C   0  0  0  0  0  2  0  0  0  0  0  0
   39.6720   32.3400   39.0660 C   0  0  0  0  0  2  0  0  0  0  0  0
   39.1720   33.3000   40.1090 C   0  0  0  0  0  2  0  0  0  0  0  0
   37.7190   33.6690   39.8290 C   0  0  0  0  0  2  0  0  0  0  0  0
   37.0750   32.4290   39.2320 C   0  0  0  0  0  2  0  0  0  0  0  0
   36.4310   28.0700   38.0940 S   0  0  0  0  0  0  0  0  0  0  0  0
   32.6790   28.7040   36.8610 C   0  0  0  0  0  0  0  0  0  0  0  0
   33.9370   28.8460   37.4050 C   0  0  0  0  0  0  0  0  0  0  0  0
   34.8590   27.8300   37.3560 C   0  0  0  0  0  0  0  0  0  0  0  0
   34.5430   26.6330   36.7540 C   0  0  0  0  0  0  0  0  0  0  0  0
   33.3150   26.4380   36.1990 C   0  0  0  0  0  0  0  0  0  0  0  0
   32.4060   27.4710   36.2610 C   0  0  0  0  0  0  0  0  0  0  0  0
   34.1700   29.7900   37.8740 H   0  0  0  0  0  0  0  0  0  0  0  0
   35.3010   25.8650   36.7380 H   0  0  0  0  0  0  0  0  0  0  0  0
   33.0870   25.4910   35.7310 H   0  0  0  0  0  0  0  0  0  0  0  0
   31.4160   27.3350   35.8220 H   0  0  0  0  0  0  0  0  0  0  0  0
   30.7070   31.5790   35.7970 C   0  0  0  0  0  0  0  0  0  0  0  0
   29.8930   31.8520   36.9290 C   0  0  0  0  0  0  0  0  0  0  0  0
   30.0340   31.0400   38.0480 C   0  0  0  0  0  0  0  0  0  0  0  0
   30.9350   30.0100   38.0460 N   0  0  0  0  0  0  0  0  0  0  0  0
   31.7040   29.7900   36.9140 C   0  0  0  0  0  0  0  0  0  0  0  0
   31.5870   30.5670   35.8050 N   0  0  0  0  0  0  0  0  0  0  0  0
   30.6700   32.1590   34.8740 H   0  0  0  0  0  0  0  0  0  0  0  0
   29.2240   32.6710   36.8350 H   0  0  0  0  0  0  0  0  0  0  0  0
   29.4180   31.2470   38.9050 H   0  0  0  0  0  0  0  0  0  0  0  0
  1 10  1  0  0  0  0
  2  1  2  0  0  0  0
  2  3  1  0  0  0  0
  3  4  2  0  0  0  0
  4  5  1  0  0  0  0
  5  6  1  0  0  0  0
  6  7  2  0  0  0  0
  6 12  1  0  0  0  0
  7 13  1  0  0  0  0
  8 14  1  0  0  0  0
  8  7  1  0  0  0  0
  9  8  2  0  0  0  0
 10  9  1  0  0  0  0
 10  5  2  0  0  0  0
 11  3  1  0  0  0  0
 15 18  1  0  0  0  0
 15  9  1  0  0  0  0
 16 15  1  0  0  0  0
 17 15  1  0  0  0  0
 19 18  1  0  0  0  0
 20 19  1  0  0  0  0
 20 21  1  0  0  0  0
 22 21  1  0  0  0  0
 23 22  1  0  0  0  0
 23 18  1  0  0  0  0
 24  1  1  0  0  0  0
 25 39  1  0  0  0  0
 25 26  1  0  0  0  0
 26 31  1  0  0  0  0
 27 26  2  0  0  0  0
 27 24  1  0  0  0  0
 28 27  1  0  0  0  0
 29 30  1  0  0  0  0
 29 28  2  0  0  0  0
 30 25  2  0  0  0  0
 32 28  1  0  0  0  0
 33 29  1  0  0  0  0
 34 30  1  0  0  0  0
 35 40  2  0  0  0  0
 35 36  1  0  0  0  0
 36 37  2  0  0  0  0
 37 43  1  0  0  0  0
 38 37  1  0  0  0  0
 39 38  2  0  0  0  0
 40 39  1  0  0  0  0
 41 35  1  0  0  0  0
 42 36  1  0  0  0  0
M  END
>  <minimizedAffinity>
-6.5486393

$$$$

 OpenBabel03242516303D

 43 47  0  0  0  0  0  0  0  0999 V2000
   36.7720   28.8660   41.7170 C   0  0  0  0  0  0  0  0  0  0  0  0
   37.3180   28.8820   42.9760 N   0  0  0  0  0  0  0  0  0  0  0  0
   37.8450   27.8150   43.5580 C   0  0  0  0  0  0  0  0  0  0  0  0
   37.8390   26.6700   42.8700 N   0  0  0  0  0  0  0  0  0  0  0  0
   37.3280   26.5680   41.6430 C   0  0  0  0  0  0  0  0  0  0  0  0
   37.3350   25.3670   40.9380 C   0  0  0  0  0  0  0  0  0  0  0  0
   36.8020   25.2940   39.6710 C   0  0  0  0  0  0  0  0  0  0  0  0
   36.2540   26.4180   39.0900 C   0  0  0  0  0  0  0  0  0  0  0  0
   36.2400   27.6220   39.7740 C   0  0  0  0  0  0  0  0  0  0  0  0
   36.7690   27.6890   41.0240 C   0  0  0  0  0  0  0  0  0  0  0  0
   38.2540   27.9050   44.5470 H   0  0  0  0  0  0  0  0  0  0  0  0
   37.7840   24.5450   41.4760 H   0  0  0  0  0  0  0  0  0  0  0  0
   36.8640   24.3130   39.2240 H   0  0  0  0  0  0  0  0  0  0  0  0
   35.8740   26.1810   38.1160 H   0  0  0  0  0  0  0  0  0  0  0  0
   35.6170   28.7480   39.0610 C   0  0  0  0  0  0  0  0  0  0  0  0
   34.5460   28.8550   39.1590 H   0  0  0  0  0  0  0  0  0  0  0  0
   36.2490   29.6670   39.0650 H   0  0  0  0  0  0  0  0  0  0  0  0
   35.6690   28.5640   37.5250 C   0  0  0  0  0  3  0  0  0  0  0  0
   34.1970   28.8130   37.1030 C   0  0  0  0  0  2  0  0  0  0  0  0
   34.1770   29.1190   35.6150 C   0  0  0  0  0  2  0  0  0  0  0  0
   35.3830   28.4770   34.9880 C   0  0  0  0  0  2  0  0  0  0  0  0
   36.6510   29.2070   35.4180 C   0  0  0  0  0  2  0  0  0  0  0  0
   36.4050   29.6760   36.8420 C   0  0  0  0  0  2  0  0  0  0  0  0
   36.1450   30.2940   40.9900 S   0  0  0  0  0  0  0  0  0  0  0  0
   39.6270   32.2610   40.9950 C   0  0  0  0  0  0  0  0  0  0  0  0
   38.6260   31.3390   41.2100 C   0  0  0  0  0  0  0  0  0  0  0  0
   37.3800   31.4910   40.6530 C   0  0  0  0  0  0  0  0  0  0  0  0
   37.1010   32.5810   39.8590 C   0  0  0  0  0  0  0  0  0  0  0  0
   38.0540   33.5220   39.6130 C   0  0  0  0  0  0  0  0  0  0  0  0
   39.2960   33.3500   40.1830 C   0  0  0  0  0  0  0  0  0  0  0  0
   38.8590   30.4910   41.8340 H   0  0  0  0  0  0  0  0  0  0  0  0
   36.1080   32.6560   39.4420 H   0  0  0  0  0  0  0  0  0  0  0  0
   37.8150   34.3700   38.9870 H   0  0  0  0  0  0  0  0  0  0  0  0
   40.0730   34.0930   39.9990 H   0  0  0  0  0  0  0  0  0  0  0  0
   42.2620   30.9710   43.1570 C   0  0  0  0  0  0  0  0  0  0  0  0
   43.4050   31.7130   42.7560 C   0  0  0  0  0  0  0  0  0  0  0  0
   43.2540   32.6520   41.7430 C   0  0  0  0  0  0  0  0  0  0  0  0
   42.0320   32.8460   41.1570 N   0  0  0  0  0  0  0  0  0  0  0  0
   40.9510   32.0930   41.5880 C   0  0  0  0  0  0  0  0  0  0  0  0
   41.0700   31.1680   42.5770 N   0  0  0  0  0  0  0  0  0  0  0  0
   42.2800   30.2140   43.9430 H   0  0  0  0  0  0  0  0  0  0  0  0
   44.3080   31.4930   43.2700 H   0  0  0  0  0  0  0  0  0  0  0  0
   44.1190   33.2140   41.4390 H   0  0  0  0  0  0  0  0  0  0  0  0
  1  2  1  0  0  0  0
  2  3  2  0  0  0  0
  3 11  1  0  0  0  0
  4  3  1  0  0  0  0
  5  4  2  0  0  0  0
  6 12  1  0  0  0  0
  6  5  1  0  0  0  0
  7  6  2  0  0  0  0
  8  7  1  0  0  0  0
  8  9  2  0  0  0  0
  9 10  1  0  0  0  0
 10  5  1  0  0  0  0
 10  1  2  0  0  0  0
 13  7  1  0  0  0  0
 14  8  1  0  0  0  0
 15 17  1  0  0  0  0
 15 16  1  0  0  0  0
 15  9  1  0  0  0  0
 18 15  1  0  0  0  0
 19 18  1  0  0  0  0
 20 19  1  0  0  0  0
 21 22  1  0  0  0  0
 21 20  1  0  0  0  0
 22 23  1  0  0  0  0
 23 18  1  0  0  0  0
 24  1  1  0  0  0  0
 25 26  1  0  0  0  0
 25 39  1  0  0  0  0
 26 31  1  0  0  0  0
 27 24  1  0  0  0  0
 27 26  2  0  0  0  0
 28 27  1  0  0  0  0
 29 28  2  0  0  0  0
 29 30  1  0  0  0  0
 30 25  2  0  0  0  0
 32 28  1  0  0  0  0
 33 29  1  0  0  0  0
 34 30  1  0  0  0  0
 35 41  1  0  0  0  0
 36 35  1  0  0  0  0
 36 42  1  0  0  0  0
 37 36  2  0  0  0  0
 38 39  2  0  0  0  0
 38 37  1  0  0  0  0
 39 40  1  0  0  0  0
 40 35  2  0  0  0  0
 43 37  1  0  0  0  0
M  END
>  <minimizedAffinity>
-6.53466034

$$$$

 OpenBabel03242516303D

 43 47  0  0  0  0  0  0  0  0999 V2000
   36.9480   29.1220   41.6300 C   0  0  0  0  0  0  0  0  0  0  0  0
   37.5430   29.1810   42.8650 N   0  0  0  0  0  0  0  0  0  0  0  0
   38.0020   28.1170   43.5080 C   0  0  0  0  0  0  0  0  0  0  0  0
   37.8740   26.9310   42.9080 N   0  0  0  0  0  0  0  0  0  0  0  0
   37.3080   26.7850   41.7100 C   0  0  0  0  0  0  0  0  0  0  0  0
   37.1870   25.5400   41.0960 C   0  0  0  0  0  0  0  0  0  0  0  0
   36.5990   25.4220   39.8570 C   0  0  0  0  0  0  0  0  0  0  0  0
   36.1240   26.5450   39.2120 C   0  0  0  0  0  0  0  0  0  0  0  0
   36.2370   27.7920   39.8040 C   0  0  0  0  0  0  0  0  0  0  0  0
   36.8190   27.9030   41.0270 C   0  0  0  0  0  0  0  0  0  0  0  0
   38.4570   28.2420   44.4730 H   0  0  0  0  0  0  0  0  0  0  0  0
   37.5870   24.7240   41.6800 H   0  0  0  0  0  0  0  0  0  0  0  0
   36.5620   24.4110   39.4830 H   0  0  0  0  0  0  0  0  0  0  0  0
   35.6870   26.2720   38.2720 H   0  0  0  0  0  0  0  0  0  0  0  0
   35.6820   28.9120   39.0300 C   0  0  0  0  0  0  0  0  0  0  0  0
   34.6230   29.1020   39.1360 H   0  0  0  0  0  0  0  0  0  0  0  0
   36.3770   29.7830   38.9690 H   0  0  0  0  0  0  0  0  0  0  0  0
   35.6940   28.6320   37.5090 C   0  0  0  0  0  3  0  0  0  0  0  0
   34.2310   28.9390   37.0950 C   0  0  0  0  0  2  0  0  0  0  0  0
   34.2000   29.1530   35.5910 C   0  0  0  0  0  2  0  0  0  0  0  0
   35.3550   28.4040   34.9870 C   0  0  0  0  0  2  0  0  0  0  0  0
   36.6700   29.0850   35.3510 C   0  0  0  0  0  2  0  0  0  0  0  0
   36.4790   29.6540   36.7460 C   0  0  0  0  0  2  0  0  0  0  0  0
   36.4130   30.5430   40.8200 S   0  0  0  0  0  0  0  0  0  0  0  0
   39.7120   31.5520   38.7980 C   0  0  0  0  0  0  0  0  0  0  0  0
   38.6470   30.8640   39.3370 C   0  0  0  0  0  0  0  0  0  0  0  0
   37.7290   31.4850   40.1470 C   0  0  0  0  0  0  0  0  0  0  0  0
   37.8540   32.8240   40.4420 C   0  0  0  0  0  0  0  0  0  0  0  0
   38.8870   33.5520   39.9360 C   0  0  0  0  0  0  0  0  0  0  0  0
   39.7970   32.9090   39.1270 C   0  0  0  0  0  0  0  0  0  0  0  0
   38.5620   29.8160   39.0970 H   0  0  0  0  0  0  0  0  0  0  0  0
   37.1060   33.2680   41.0820 H   0  0  0  0  0  0  0  0  0  0  0  0
   38.9670   34.6020   40.1800 H   0  0  0  0  0  0  0  0  0  0  0  0
   40.6330   33.4740   38.7120 H   0  0  0  0  0  0  0  0  0  0  0  0
   42.6280   31.0900   36.6600 C   0  0  0  0  0  0  0  0  0  0  0  0
   42.5570   29.7160   36.3050 C   0  0  0  0  0  0  0  0  0  0  0  0
   41.5030   28.9630   36.8090 C   0  0  0  0  0  0  0  0  0  0  0  0
   40.5660   29.5420   37.6220 N   0  0  0  0  0  0  0  0  0  0  0  0
   40.6850   30.8870   37.9350 C   0  0  0  0  0  0  0  0  0  0  0  0
   41.7050   31.6480   37.4580 N   0  0  0  0  0  0  0  0  0  0  0  0
   43.4150   31.7620   36.3150 H   0  0  0  0  0  0  0  0  0  0  0  0
   43.3290   29.3580   35.6700 H   0  0  0  0  0  0  0  0  0  0  0  0
   41.4500   27.9230   36.5400 H   0  0  0  0  0  0  0  0  0  0  0  0
  1  2  1  0  0  0  0
  2  3  2  0  0  0  0
  3 11  1  0  0  0  0
  4  3  1  0  0  0  0
  5  4  2  0  0  0  0
  6 12  1  0  0  0  0
  6  5  1  0  0  0  0
  7  6  2  0  0  0  0
  8  9  2  0  0  0  0
  8  7  1  0  0  0  0
  9 10  1  0  0  0  0
 10  1  2  0  0  0  0
 10  5  1  0  0  0  0
 13  7  1  0  0  0  0
 14  8  1  0  0  0  0
 15 16  1  0  0  0  0
 15  9  1  0  0  0  0
 17 15  1  0  0  0  0
 18 15  1  0  0  0  0
 19 18  1  0  0  0  0
 20 19  1  0  0  0  0
 21 22  1  0  0  0  0
 21 20  1  0  0  0  0
 22 23  1  0  0  0  0
 23 18  1  0  0  0  0
 24  1  1  0  0  0  0
 25 30  2  0  0  0  0
 25 26  1  0  0  0  0
 26 27  2  0  0  0  0
 27 28  1  0  0  0  0
 27 24  1  0  0  0  0
 28 32  1  0  0  0  0
 29 33  1  0  0  0  0
 29 28  2  0  0  0  0
 30 29  1  0  0  0  0
 31 26  1  0  0  0  0
 34 30  1  0  0  0  0
 35 40  1  0  0  0  0
 36 35  2  0  0  0  0
 36 37  1  0  0  0  0
 37 38  2  0  0  0  0
 38 39  1  0  0  0  0
 39 25  1  0  0  0  0
 40 39  2  0  0  0  0
 41 35  1  0  0  0  0
 42 36  1  0  0  0  0
 43 37  1  0  0  0  0
M  END
>  <minimizedAffinity>
-6.51258326

$$$$

 OpenBabel03242516303D

 43 47  0  0  0  0  0  0  0  0999 V2000
   36.8180   30.2050   40.8900 C   0  0  0  0  0  0  0  0  0  0  0  0
   36.5660   31.3880   40.2430 N   0  0  0  0  0  0  0  0  0  0  0  0
   37.4330   32.3890   40.1850 C   0  0  0  0  0  0  0  0  0  0  0  0
   38.6110   32.2220   40.7920 N   0  0  0  0  0  0  0  0  0  0  0  0
   38.9350   31.1050   41.4430 C   0  0  0  0  0  0  0  0  0  0  0  0
   40.1710   30.9450   42.0660 C   0  0  0  0  0  0  0  0  0  0  0  0
   40.4780   29.7790   42.7280 C   0  0  0  0  0  0  0  0  0  0  0  0
   39.5560   28.7540   42.7790 C   0  0  0  0  0  0  0  0  0  0  0  0
   38.3220   28.8920   42.1640 C   0  0  0  0  0  0  0  0  0  0  0  0
   38.0250   30.0460   41.5100 C   0  0  0  0  0  0  0  0  0  0  0  0
   37.1640   33.2870   39.6590 H   0  0  0  0  0  0  0  0  0  0  0  0
   40.8220   31.8020   41.9720 H   0  0  0  0  0  0  0  0  0  0  0  0
   41.4620   29.7700   43.1710 H   0  0  0  0  0  0  0  0  0  0  0  0
   39.9490   27.9320   43.3440 H   0  0  0  0  0  0  0  0  0  0  0  0
   37.4170   27.7410   42.2970 C   0  0  0  0  0  0  0  0  0  0  0  0
   37.0130   27.5480   43.2810 H   0  0  0  0  0  0  0  0  0  0  0  0
   36.7510   27.6090   41.4110 H   0  0  0  0  0  0  0  0  0  0  0  0
   38.1540   26.3940   42.1050 C   0  0  0  0  0  3  0  0  0  0  0  0
   37.0010   25.3610   42.1920 C   0  0  0  0  0  2  0  0  0  0  0  0
   37.4860   24.0600   41.5750 C   0  0  0  0  0  2  0  0  0  0  0  0
   38.9840   24.0140   41.6930 C   0  0  0  0  0  2  0  0  0  0  0  0
   39.6160   25.0350   40.7530 C   0  0  0  0  0  2  0  0  0  0  0  0
   38.6610   26.2150   40.7080 C   0  0  0  0  0  2  0  0  0  0  0  0
   35.6740   28.9190   40.8930 S   0  0  0  0  0  0  0  0  0  0  0  0
   33.8790   28.5830   37.3350 C   0  0  0  0  0  0  0  0  0  0  0  0
   34.2560   28.9920   38.5950 C   0  0  0  0  0  0  0  0  0  0  0  0
   35.2650   28.3630   39.2820 C   0  0  0  0  0  0  0  0  0  0  0  0
   35.9300   27.2980   38.7180 C   0  0  0  0  0  0  0  0  0  0  0  0
   35.5990   26.8520   37.4750 C   0  0  0  0  0  0  0  0  0  0  0  0
   34.5830   27.4970   36.8050 C   0  0  0  0  0  0  0  0  0  0  0  0
   33.7260   29.8290   39.0230 H   0  0  0  0  0  0  0  0  0  0  0  0
   36.7170   26.8370   39.2950 H   0  0  0  0  0  0  0  0  0  0  0  0
   36.1330   26.0140   37.0510 H   0  0  0  0  0  0  0  0  0  0  0  0
   34.3020   27.1550   35.8080 H   0  0  0  0  0  0  0  0  0  0  0  0
   30.7040   30.2620   36.7150 C   0  0  0  0  0  0  0  0  0  0  0  0
   30.7450   30.5320   35.3210 C   0  0  0  0  0  0  0  0  0  0  0  0
   31.8700   30.1320   34.6090 C   0  0  0  0  0  0  0  0  0  0  0  0
   32.9010   29.4960   35.2460 N   0  0  0  0  0  0  0  0  0  0  0  0
   32.8060   29.2580   36.6080 C   0  0  0  0  0  0  0  0  0  0  0  0
   31.7190   29.6380   37.3300 N   0  0  0  0  0  0  0  0  0  0  0  0
   29.8650   30.5350   37.3570 H   0  0  0  0  0  0  0  0  0  0  0  0
   29.8980   31.0300   34.9170 H   0  0  0  0  0  0  0  0  0  0  0  0
   31.9010   30.3370   33.5540 H   0  0  0  0  0  0  0  0  0  0  0  0
  1 24  1  0  0  0  0
  1 10  1  0  0  0  0
  2  1  2  0  0  0  0
  3  2  1  0  0  0  0
  3  4  2  0  0  0  0
  4  5  1  0  0  0  0
  5 10  2  0  0  0  0
  5  6  1  0  0  0  0
  6  7  2  0  0  0  0
  7  8  1  0  0  0  0
  7 13  1  0  0  0  0
  8 14  1  0  0  0  0
  9 15  1  0  0  0  0
  9  8  2  0  0  0  0
 10  9  1  0  0  0  0
 11  3  1  0  0  0  0
 12  6  1  0  0  0  0
 15 16  1  0  0  0  0
 17 15  1  0  0  0  0
 18 19  1  0  0  0  0
 18 15  1  0  0  0  0
 20 21  1  0  0  0  0
 20 19  1  0  0  0  0
 22 21  1  0  0  0  0
 23 22  1  0  0  0  0
 23 18  1  0  0  0  0
 25 26  1  0  0  0  0
 26 31  1  0  0  0  0
 26 27  2  0  0  0  0
 27 24  1  0  0  0  0
 28 27  1  0  0  0  0
 28 32  1  0  0  0  0
 29 28  2  0  0  0  0
 30 25  2  0  0  0  0
 30 29  1  0  0  0  0
 33 29  1  0  0  0  0
 34 30  1  0  0  0  0
 35 40  1  0  0  0  0
 35 41  1  0  0  0  0
 36 35  2  0  0  0  0
 37 38  2  0  0  0  0
 37 36  1  0  0  0  0
 38 39  1  0  0  0  0
 39 40  2  0  0  0  0
 39 25  1  0  0  0  0
 42 36  1  0  0  0  0
 43 37  1  0  0  0  0
M  END
>  <minimizedAffinity>
-6.51127768

$$$$

 OpenBabel03242516303D

 43 47  0  0  0  0  0  0  0  0999 V2000
   38.0140   29.7410   41.9780 C   0  0  0  0  0  0  0  0  0  0  0  0
   39.0410   29.9890   42.8530 N   0  0  0  0  0  0  0  0  0  0  0  0
   39.8700   31.0160   42.7340 C   0  0  0  0  0  0  0  0  0  0  0  0
   39.6820   31.8460   41.7040 N   0  0  0  0  0  0  0  0  0  0  0  0
   38.7100   31.6760   40.8090 C   0  0  0  0  0  0  0  0  0  0  0  0
   38.5250   32.5550   39.7440 C   0  0  0  0  0  0  0  0  0  0  0  0
   37.5090   32.3540   38.8370 C   0  0  0  0  0  0  0  0  0  0  0  0
   36.6630   31.2740   38.9790 C   0  0  0  0  0  0  0  0  0  0  0  0
   36.8290   30.3910   40.0340 C   0  0  0  0  0  0  0  0  0  0  0  0
   37.8330   30.5940   40.9270 C   0  0  0  0  0  0  0  0  0  0  0  0
   40.6530   31.1460   43.4590 H   0  0  0  0  0  0  0  0  0  0  0  0
   39.2370   33.3660   39.7170 H   0  0  0  0  0  0  0  0  0  0  0  0
   37.4630   33.0980   38.0560 H   0  0  0  0  0  0  0  0  0  0  0  0
   35.9460   31.2610   38.1840 H   0  0  0  0  0  0  0  0  0  0  0  0
   35.8780   29.2700   40.0740 C   0  0  0  0  0  0  0  0  0  0  0  0
   36.2610   28.3160   40.4090 H   0  0  0  0  0  0  0  0  0  0  0  0
   34.8570   29.5800   40.4010 H   0  0  0  0  0  0  0  0  0  0  0  0
   35.4320   28.8320   38.6590 C   0  0  0  0  0  3  0  0  0  0  0  0
   35.7910   27.3240   38.6400 C   0  0  0  0  0  2  0  0  0  0  0  0
   35.0100   26.6650   37.5170 C   0  0  0  0  0  2  0  0  0  0  0  0
   34.7040   27.7110   36.4820 C   0  0  0  0  0  2  0  0  0  0  0  0
   33.6700   28.6950   37.0180 C   0  0  0  0  0  2  0  0  0  0  0  0
   33.9420   28.8230   38.5080 C   0  0  0  0  0  2  0  0  0  0  0  0
   36.9360   28.4190   42.2070 S   0  0  0  0  0  0  0  0  0  0  0  0
   39.8090   25.6360   42.2020 C   0  0  0  0  0  0  0  0  0  0  0  0
   39.1200   26.8290   42.2280 C   0  0  0  0  0  0  0  0  0  0  0  0
   37.7480   26.8650   42.2000 C   0  0  0  0  0  0  0  0  0  0  0  0
   37.0220   25.6960   42.1470 C   0  0  0  0  0  0  0  0  0  0  0  0
   37.6510   24.4890   42.1210 C   0  0  0  0  0  0  0  0  0  0  0  0
   39.0280   24.4770   42.1480 C   0  0  0  0  0  0  0  0  0  0  0  0
   39.7020   27.7360   42.2690 H   0  0  0  0  0  0  0  0  0  0  0  0
   35.9450   25.7750   42.1290 H   0  0  0  0  0  0  0  0  0  0  0  0
   37.0630   23.5830   42.0790 H   0  0  0  0  0  0  0  0  0  0  0  0
   39.5520   23.5200   42.1270 H   0  0  0  0  0  0  0  0  0  0  0  0
   43.2510   25.6030   41.0050 C   0  0  0  0  0  0  0  0  0  0  0  0
   44.0120   25.5450   42.2030 C   0  0  0  0  0  0  0  0  0  0  0  0
   43.3290   25.5180   43.4130 C   0  0  0  0  0  0  0  0  0  0  0  0
   41.9600   25.5460   43.4340 N   0  0  0  0  0  0  0  0  0  0  0  0
   41.2690   25.6030   42.2340 C   0  0  0  0  0  0  0  0  0  0  0  0
   41.9100   25.6310   41.0360 N   0  0  0  0  0  0  0  0  0  0  0  0
   43.6960   25.6270   40.0090 H   0  0  0  0  0  0  0  0  0  0  0  0
   45.0670   25.5270   42.0840 H   0  0  0  0  0  0  0  0  0  0  0  0
   43.9050   25.4740   44.3190 H   0  0  0  0  0  0  0  0  0  0  0  0
  1 24  1  0  0  0  0
  1  2  1  0  0  0  0
  3  2  2  0  0  0  0
  3 11  1  0  0  0  0
  4  3  1  0  0  0  0
  5 10  1  0  0  0  0
  5  4  2  0  0  0  0
  6  5  1  0  0  0  0
  7  8  1  0  0  0  0
  7  6  2  0  0  0  0
  8  9  2  0  0  0  0
  9 15  1  0  0  0  0
  9 10  1  0  0  0  0
 10  1  2  0  0  0  0
 12  6  1  0  0  0  0
 13  7  1  0  0  0  0
 14  8  1  0  0  0  0
 15 17  1  0  0  0  0
 15 16  1  0  0  0  0
 18 15  1  0  0  0  0
 19 18  1  0  0  0  0
 20 19  1  0  0  0  0
 21 22  1  0  0  0  0
 21 20  1  0  0  0  0
 22 23  1  0  0  0  0
 23 18  1  0  0  0  0
 25 26  1  0  0  0  0
 25 39  1  0  0  0  0
 26 31  1  0  0  0  0
 27 24  1  0  0  0  0
 27 26  2  0  0  0  0
 28 27  1  0  0  0  0
 29 28  2  0  0  0  0
 29 30  1  0  0  0  0
 30 25  2  0  0  0  0
 32 28  1  0  0  0  0
 33 29  1  0  0  0  0
 34 30  1  0  0  0  0
 35 40  2  0  0  0  0
 35 36  1  0  0  0  0
 36 37  2  0  0  0  0
 37 38  1  0  0  0  0
 37 43  1  0  0  0  0
 39 38  2  0  0  0  0
 40 39  1  0  0  0  0
 41 35  1  0  0  0  0
 42 36  1  0  0  0  0
M  END
>  <minimizedAffinity>
-6.50128126

$$$$

 OpenBabel03242516303D

 43 47  0  0  0  0  0  0  0  0999 V2000
   36.8180   28.1790   41.3820 C   0  0  0  0  0  0  0  0  0  0  0  0
   37.0460   29.0710   42.3990 N   0  0  0  0  0  0  0  0  0  0  0  0
   37.8250   28.8120   43.4400 C   0  0  0  0  0  0  0  0  0  0  0  0
   38.4130   27.6140   43.4860 N   0  0  0  0  0  0  0  0  0  0  0  0
   38.2440   26.6890   42.5410 C   0  0  0  0  0  0  0  0  0  0  0  0
   38.8700   25.4460   42.6030 C   0  0  0  0  0  0  0  0  0  0  0  0
   38.6780   24.5130   41.6100 C   0  0  0  0  0  0  0  0  0  0  0  0
   37.8570   24.8060   40.5410 C   0  0  0  0  0  0  0  0  0  0  0  0
   37.2280   26.0370   40.4590 C   0  0  0  0  0  0  0  0  0  0  0  0
   37.4220   26.9560   41.4420 C   0  0  0  0  0  0  0  0  0  0  0  0
   37.9550   29.5620   44.1980 H   0  0  0  0  0  0  0  0  0  0  0  0
   39.4900   25.3110   43.4770 H   0  0  0  0  0  0  0  0  0  0  0  0
   39.2130   23.5890   41.7650 H   0  0  0  0  0  0  0  0  0  0  0  0
   37.8070   23.9680   39.8740 H   0  0  0  0  0  0  0  0  0  0  0  0
   36.3660   26.2310   39.2830 C   0  0  0  0  0  0  0  0  0  0  0  0
   35.4710   25.6270   39.2290 H   0  0  0  0  0  0  0  0  0  0  0  0
   36.3140   27.2960   38.9560 H   0  0  0  0  0  0  0  0  0  0  0  0
   37.0360   25.7290   37.9820 C   0  0  0  0  0  3  0  0  0  0  0  0
   35.9680   26.0500   36.9040 C   0  0  0  0  0  2  0  0  0  0  0  0
   36.6490   26.0420   35.5460 C   0  0  0  0  0  2  0  0  0  0  0  0
   37.8580   25.1520   35.6330 C   0  0  0  0  0  2  0  0  0  0  0  0
   38.9320   25.8070   36.4940 C   0  0  0  0  0  2  0  0  0  0  0  0
   38.1950   26.5850   37.5700 C   0  0  0  0  0  2  0  0  0  0  0  0
   35.8350   28.5870   40.0300 S   0  0  0  0  0  0  0  0  0  0  0  0
   37.9140   31.7240   38.6780 C   0  0  0  0  0  0  0  0  0  0  0  0
   37.3110   30.7810   39.4810 C   0  0  0  0  0  0  0  0  0  0  0  0
   36.6000   29.7350   38.9490 C   0  0  0  0  0  0  0  0  0  0  0  0
   36.4740   29.6020   37.5840 C   0  0  0  0  0  0  0  0  0  0  0  0
   37.0500   30.5050   36.7430 C   0  0  0  0  0  0  0  0  0  0  0  0
   37.7580   31.5470   37.2990 C   0  0  0  0  0  0  0  0  0  0  0  0
   37.4180   30.8990   40.5480 H   0  0  0  0  0  0  0  0  0  0  0  0
   35.9070   28.7620   37.2130 H   0  0  0  0  0  0  0  0  0  0  0  0
   36.9390   30.3820   35.6750 H   0  0  0  0  0  0  0  0  0  0  0  0
   38.2270   32.2820   36.6430 H   0  0  0  0  0  0  0  0  0  0  0  0
   40.7590   33.8340   39.5360 C   0  0  0  0  0  0  0  0  0  0  0  0
   40.1700   34.8850   40.2900 C   0  0  0  0  0  0  0  0  0  0  0  0
   38.7960   34.8540   40.4930 C   0  0  0  0  0  0  0  0  0  0  0  0
   38.0430   33.8330   39.9770 N   0  0  0  0  0  0  0  0  0  0  0  0
   38.6720   32.8340   39.2500 C   0  0  0  0  0  0  0  0  0  0  0  0
   40.0130   32.8390   39.0340 N   0  0  0  0  0  0  0  0  0  0  0  0
   41.8280   33.7710   39.3240 H   0  0  0  0  0  0  0  0  0  0  0  0
   40.8350   35.6310   40.6480 H   0  0  0  0  0  0  0  0  0  0  0  0
   38.3500   35.6490   41.0630 H   0  0  0  0  0  0  0  0  0  0  0  0
  1 10  2  0  0  0  0
  1  2  1  0  0  0  0
  2  3  2  0  0  0  0
  3  4  1  0  0  0  0
  3 11  1  0  0  0  0
  5  6  1  0  0  0  0
  5  4  2  0  0  0  0
  6 12  1  0  0  0  0
  7 13  1  0  0  0  0
  7  6  2  0  0  0  0
  8  7  1  0  0  0  0
  9  8  2  0  0  0  0
  9 10  1  0  0  0  0
 10  5  1  0  0  0  0
 14  8  1  0  0  0  0
 15  9  1  0  0  0  0
 16 15  1  0  0  0  0
 17 15  1  0  0  0  0
 18 15  1  0  0  0  0
 19 18  1  0  0  0  0
 20 21  1  0  0  0  0
 20 19  1  0  0  0  0
 21 22  1  0  0  0  0
 22 23  1  0  0  0  0
 23 18  1  0  0  0  0
 24  1  1  0  0  0  0
 25 39  1  0  0  0  0
 25 26  1  0  0  0  0
 26 31  1  0  0  0  0
 27 26  2  0  0  0  0
 27 24  1  0  0  0  0
 28 27  1  0  0  0  0
 29 30  1  0  0  0  0
 29 28  2  0  0  0  0
 30 25  2  0  0  0  0
 32 28  1  0  0  0  0
 33 29  1  0  0  0  0
 34 30  1  0  0  0  0
 35 36  1  0  0  0  0
 36 37  2  0  0  0  0
 36 42  1  0  0  0  0
 37 43  1  0  0  0  0
 38 37  1  0  0  0  0
 39 38  2  0  0  0  0
 40 39  1  0  0  0  0
 40 35  2  0  0  0  0
 41 35  1  0  0  0  0
M  END
>  <minimizedAffinity>
-6.48639107

$$$$

 OpenBabel03242516303D

 43 47  0  0  0  0  0  0  0  0999 V2000
   38.9320   31.3920   40.9710 C   0  0  0  0  0  0  0  0  0  0  0  0
   37.5960   31.3760   40.6580 N   0  0  0  0  0  0  0  0  0  0  0  0
   36.9630   32.3990   40.1000 C   0  0  0  0  0  0  0  0  0  0  0  0
   37.6770   33.4950   39.8330 N   0  0  0  0  0  0  0  0  0  0  0  0
   38.9780   33.5930   40.1070 C   0  0  0  0  0  0  0  0  0  0  0  0
   39.7090   34.7430   39.8160 C   0  0  0  0  0  0  0  0  0  0  0  0
   41.0520   34.8140   40.1080 C   0  0  0  0  0  0  0  0  0  0  0  0
   41.6860   33.7380   40.6940 C   0  0  0  0  0  0  0  0  0  0  0  0
   40.9770   32.5840   40.9870 C   0  0  0  0  0  0  0  0  0  0  0  0
   39.6510   32.5200   40.6960 C   0  0  0  0  0  0  0  0  0  0  0  0
   35.9140   32.3120   39.8840 H   0  0  0  0  0  0  0  0  0  0  0  0
   39.1260   35.5300   39.3610 H   0  0  0  0  0  0  0  0  0  0  0  0
   41.5130   35.7520   39.8390 H   0  0  0  0  0  0  0  0  0  0  0  0
   42.7190   33.9670   40.8650 H   0  0  0  0  0  0  0  0  0  0  0  0
   41.7540   31.5090   41.6240 C   0  0  0  0  0  0  0  0  0  0  0  0
   41.2920   31.0020   42.4590 H   0  0  0  0  0  0  0  0  0  0  0  0
   42.3410   30.9070   40.8900 H   0  0  0  0  0  0  0  0  0  0  0  0
   42.9970   32.0520   42.3690 C   0  0  0  0  0  3  0  0  0  0  0  0
   43.0370   31.1740   43.6470 C   0  0  0  0  0  2  0  0  0  0  0  0
   44.4310   31.2680   44.2420 C   0  0  0  0  0  2  0  0  0  0  0  0
   45.0360   32.5760   43.8150 C   0  0  0  0  0  2  0  0  0  0  0  0
   45.3570   32.5450   42.3240 C   0  0  0  0  0  2  0  0  0  0  0  0
   44.2770   31.6950   41.6780 C   0  0  0  0  0  2  0  0  0  0  0  0
   39.7130   30.0170   41.6500 S   0  0  0  0  0  0  0  0  0  0  0  0
   37.3650   26.7820   41.7840 C   0  0  0  0  0  0  0  0  0  0  0  0
   38.2610   27.7540   41.3940 C   0  0  0  0  0  0  0  0  0  0  0  0
   38.5860   28.8010   42.2200 C   0  0  0  0  0  0  0  0  0  0  0  0
   38.0190   28.9040   43.4700 C   0  0  0  0  0  0  0  0  0  0  0  0
   37.1280   27.9710   43.9060 C   0  0  0  0  0  0  0  0  0  0  0  0
   36.8150   26.9300   43.0610 C   0  0  0  0  0  0  0  0  0  0  0  0
   38.6970   27.6600   40.4120 H   0  0  0  0  0  0  0  0  0  0  0  0
   38.3070   29.7440   44.0840 H   0  0  0  0  0  0  0  0  0  0  0  0
   36.6940   28.0700   44.8910 H   0  0  0  0  0  0  0  0  0  0  0  0
   36.1030   26.1720   43.3910 H   0  0  0  0  0  0  0  0  0  0  0  0
   36.1560   25.0010   38.8430 C   0  0  0  0  0  0  0  0  0  0  0  0
   36.3550   23.6360   39.1840 C   0  0  0  0  0  0  0  0  0  0  0  0
   36.9050   23.3450   40.4260 C   0  0  0  0  0  0  0  0  0  0  0  0
   37.2410   24.3550   41.2870 N   0  0  0  0  0  0  0  0  0  0  0  0
   37.0240   25.6680   40.9020 C   0  0  0  0  0  0  0  0  0  0  0  0
   36.4880   25.9830   39.6930 N   0  0  0  0  0  0  0  0  0  0  0  0
   35.7310   25.3290   37.8930 H   0  0  0  0  0  0  0  0  0  0  0  0
   36.0640   22.9250   38.4500 H   0  0  0  0  0  0  0  0  0  0  0  0
   37.0560   22.3120   40.6840 H   0  0  0  0  0  0  0  0  0  0  0  0
  1 24  1  0  0  0  0
  2  1  2  0  0  0  0
  3  2  1  0  0  0  0
  4  3  2  0  0  0  0
  4  5  1  0  0  0  0
  5 10  1  0  0  0  0
  6  5  2  0  0  0  0
  6  7  1  0  0  0  0
  7  8  2  0  0  0  0
  8 14  1  0  0  0  0
  8  9  1  0  0  0  0
  9 15  1  0  0  0  0
 10  1  1  0  0  0  0
 10  9  2  0  0  0  0
 11  3  1  0  0  0  0
 12  6  1  0  0  0  0
 13  7  1  0  0  0  0
 15 18  1  0  0  0  0
 15 16  1  0  0  0  0
 17 15  1  0  0  0  0
 18 19  1  0  0  0  0
 19 20  1  0  0  0  0
 21 20  1  0  0  0  0
 22 21  1  0  0  0  0
 23 22  1  0  0  0  0
 23 18  1  0  0  0  0
 24 27  1  0  0  0  0
 25 30  1  0  0  0  0
 26 25  2  0  0  0  0
 26 27  1  0  0  0  0
 27 28  2  0  0  0  0
 28 29  1  0  0  0  0
 28 32  1  0  0  0  0
 29 33  1  0  0  0  0
 30 34  1  0  0  0  0
 30 29  2  0  0  0  0
 31 26  1  0  0  0  0
 35 36  2  0  0  0  0
 35 40  1  0  0  0  0
 36 37  1  0  0  0  0
 37 43  1  0  0  0  0
 37 38  2  0  0  0  0
 39 38  1  0  0  0  0
 39 25  1  0  0  0  0
 40 39  2  0  0  0  0
 41 35  1  0  0  0  0
 42 36  1  0  0  0  0
M  END
>  <minimizedAffinity>
-6.43636227

$$$$
