
 OpenBabel03242522503D

 23 24  0  0  0  0  0  0  0  0999 V2000
   45.5890   30.5700   47.7210 O   0  0  0  0  0  0  0  0  0  0  0  0
   45.9770   31.8890   48.4240 P   0  0  2  0  0  0  0  0  0  0  0  0
   45.3270   31.7950   49.9730 O   0  0  0  0  0  0  0  0  0  0  0  0
   45.5810   32.5280   50.5670 H   0  0  0  0  0  0  0  0  0  0  0  0
   45.2760   33.1700   47.5770 O   0  0  0  0  0  0  0  0  0  0  0  0
   47.1150   32.9940   44.4490 C   0  0  0  0  0  0  0  0  0  0  0  0
   46.6890   32.7260   45.7620 C   0  0  0  0  0  0  0  0  0  0  0  0
   45.6590   33.4680   46.2860 C   0  0  0  0  0  0  0  0  0  0  0  0
   45.1060   34.4230   45.5040 N   0  0  0  0  0  0  0  0  0  0  0  0
   45.5060   34.6850   44.2550 C   0  0  0  0  0  0  0  0  0  0  0  0
   46.5230   33.9600   43.7240 N   0  0  0  0  0  0  0  0  0  0  0  0
   47.9150   32.4720   43.9420 H   0  0  0  0  0  0  0  0  0  0  0  0
   47.2550   31.9390   46.1860 H   0  0  0  0  0  0  0  0  0  0  0  0
   44.9440   35.4830   43.7870 H   0  0  0  0  0  0  0  0  0  0  0  0
   47.6250   32.0220   48.4360 O   0  0  0  0  0  0  0  0  0  0  0  0
   48.5920   31.2730   49.0080 C   0  0  0  0  0  0  0  0  0  0  0  0
   49.5030   31.9700   49.5820 O   0  0  0  0  0  0  0  0  0  0  0  0
   49.2660   30.0050   49.3870 C   0  0  0  0  0  3  0  0  0  0  0  0
   50.7560   30.1740   49.4880 C   0  0  0  0  0  2  0  0  0  0  0  0
   51.5090   30.2280   48.2200 C   0  0  0  0  0  2  0  0  0  0  0  0
   51.0710   29.2200   47.1900 C   0  0  0  0  0  2  0  0  0  0  0  0
   49.5900   29.2070   47.0340 C   0  0  0  0  0  2  0  0  0  0  0  0
   48.8710   28.9840   48.3420 C   0  0  0  0  0  2  0  0  0  0  0  0
  2  1  2  6  0  0  0
  2 15  1  0  0  0  0
  2  3  1  0  0  0  0
  3  4  1  0  0  0  0
  5  2  1  0  0  0  0
  6  7  1  0  0  0  0
  7 13  1  0  0  0  0
  7  8  2  0  0  0  0
  8  5  1  0  0  0  0
  9  8  1  0  0  0  0
 10  9  2  0  0  0  0
 11 10  1  0  0  0  0
 11  6  2  0  0  0  0
 12  6  1  0  0  0  0
 14 10  1  0  0  0  0
 15 16  1  0  0  0  0
 16 18  1  0  0  0  0
 16 17  2  0  0  0  0
 18 19  1  0  0  0  0
 20 19  1  0  0  0  0
 21 20  1  0  0  0  0
 22 21  1  0  0  0  0
 22 23  1  0  0  0  0
 23 18  1  0  0  0  0
M  END
>  <minimizedAffinity>
-4.61300325

>  <minimizedRMSD>
1.45245278

$$$$
