
 OpenBabel03252507043D

 44 47  0  0  0  0  0  0  0  0999 V2000
   41.9130   31.5550   41.9740 C   0  0  0  0  0  0  0  0  0  0  0  0
   41.8020   32.2610   41.0820 H   0  0  0  0  0  0  0  0  0  0  0  0
   41.4870   32.1480   42.8130 H   0  0  0  0  0  0  0  0  0  0  0  0
   41.3160   30.3750   41.8080 N   0  0  0  0  0  0  0  0  0  0  0  0
   41.3500   29.2400   42.6670 C   0  0  0  0  0  0  0  0  0  0  0  0
   39.9400   29.3420   43.2480 C   0  0  0  0  0  0  0  0  0  0  0  0
   38.8830   29.2660   42.2550 C   0  0  0  0  0  0  0  0  0  0  0  0
   39.1730   29.6250   40.8840 C   0  0  0  0  0  0  0  0  0  0  0  0
   40.5030   30.2660   40.5700 C   0  0  0  0  0  0  0  0  0  0  0  0
   42.0470   29.5040   43.5120 H   0  0  0  0  0  0  0  0  0  0  0  0
   41.6020   28.2750   42.2590 H   0  0  0  0  0  0  0  0  0  0  0  0
   39.8740   28.5140   43.9940 H   0  0  0  0  0  0  0  0  0  0  0  0
   39.9390   30.2840   43.8610 H   0  0  0  0  0  0  0  0  0  0  0  0
   38.4650   28.2170   42.2320 H   0  0  0  0  0  0  0  0  0  0  0  0
   38.0070   29.8800   42.5940 H   0  0  0  0  0  0  0  0  0  0  0  0
   38.5360   29.5090   40.0520 H   0  0  0  0  0  0  0  0  0  0  0  0
   40.9390   30.8130   38.9900 S   0  0  0  0  0  0  0  0  0  0  0  0
   40.7370   32.5150   38.5700 C   0  0  0  0  0  3  0  0  0  0  0  0
   41.9840   33.3370   38.4570 C   0  0  0  0  0  2  0  0  0  0  0  0
   41.5790   34.7990   38.3800 C   0  0  0  0  0  2  0  0  0  0  0  0
   40.2280   34.9940   37.7230 C   0  0  0  0  0  2  0  0  0  0  0  0
   39.1230   34.3400   38.5300 C   0  0  0  0  0  2  0  0  0  0  0  0
   39.7560   33.2820   39.4440 C   0  0  0  0  0  2  0  0  0  0  0  0
   43.3830   31.4520   42.1770 C   0  0  0  0  0  0  0  0  0  0  0  0
   43.5690   31.1230   43.2410 H   0  0  0  0  0  0  0  0  0  0  0  0
   43.8390   30.7180   41.4870 H   0  0  0  0  0  0  0  0  0  0  0  0
   43.9690   32.7920   42.0160 C   0  0  0  0  0  0  0  0  0  0  0  0
   43.1680   33.8780   41.7550 C   0  0  0  0  0  0  0  0  0  0  0  0
   43.7640   35.1190   41.5970 C   0  0  0  0  0  0  0  0  0  0  0  0
   45.1280   35.1990   41.7120 N   0  0  0  0  0  0  0  0  0  0  0  0
   45.8690   34.1270   41.9660 C   0  0  0  0  0  0  0  0  0  0  0  0
   45.2700   32.9450   42.1130 N   0  0  0  0  0  0  0  0  0  0  0  0
   42.1060   34.0220   41.6480 H   0  0  0  0  0  0  0  0  0  0  0  0
   43.2990   36.0790   41.3860 H   0  0  0  0  0  0  0  0  0  0  0  0
   47.3130   34.3170   42.1020 C   0  0  0  0  0  0  0  0  0  0  0  0
   48.1060   33.3090   42.6430 C   0  0  0  0  0  0  0  0  0  0  0  0
   49.4640   33.4970   42.7780 C   0  0  0  0  0  0  0  0  0  0  0  0
   49.9160   34.7170   42.3460 C   0  0  0  0  0  0  0  0  0  0  0  0
   49.1690   35.7620   41.7970 C   0  0  0  0  0  0  0  0  0  0  0  0
   47.8420   35.4880   41.7010 N   0  0  0  0  0  0  0  0  0  0  0  0
   47.6820   32.3590   42.9690 H   0  0  0  0  0  0  0  0  0  0  0  0
   50.1590   32.7780   43.1850 H   0  0  0  0  0  0  0  0  0  0  0  0
   50.9910   34.9140   42.4340 H   0  0  0  0  0  0  0  0  0  0  0  0
   49.6180   36.6730   41.4910 H   0  0  0  0  0  0  0  0  0  0  0  0
  1 24  1  0  0  0  0
  1  3  1  0  0  0  0
  2  1  1  0  0  0  0
  4  1  1  0  0  0  0
  4  5  1  0  0  0  0
  5  6  1  0  0  0  0
  5 10  1  0  0  0  0
  6 13  1  0  0  0  0
  6 12  1  0  0  0  0
  7 15  1  0  0  0  0
  7  6  1  0  0  0  0
  8  7  1  0  0  0  0
  9  8  2  0  0  0  0
  9  4  1  0  0  0  0
 11  5  1  0  0  0  0
 14  7  1  0  0  0  0
 16  8  1  0  0  0  0
 17  9  1  0  0  0  0
 18 17  1  0  0  0  0
 18 23  1  0  0  0  0
 19 18  1  0  0  0  0
 20 19  1  0  0  0  0
 21 20  1  0  0  0  0
 21 22  1  0  0  0  0
 22 23  1  0  0  0  0
 24 25  1  0  0  0  0
 26 24  1  0  0  0  0
 27 32  1  0  0  0  0
 27 24  1  0  0  0  0
 28 27  2  0  0  0  0
 29 30  2  0  0  0  0
 29 28  1  0  0  0  0
 30 31  1  0  0  0  0
 31 35  1  0  0  0  0
 31 32  2  0  0  0  0
 33 28  1  0  0  0  0
 34 29  1  0  0  0  0
 35 36  1  0  0  0  0
 36 37  2  0  0  0  0
 36 41  1  0  0  0  0
 37 42  1  0  0  0  0
 38 43  1  0  0  0  0
 38 37  1  0  0  0  0
 39 38  2  0  0  0  0
 40 39  1  0  0  0  0
 40 35  2  0  0  0  0
 44 39  1  0  0  0  0
M  END
>  <minimizedAffinity>
-5.42873669

>  <minimizedRMSD>
3.3249054

$$$$
