
 OpenBabel03252507163D

 26 28  0  0  0  0  0  0  0  0999 V2000
   45.2630   35.9760   43.0890 C   0  0  0  0  0  0  0  0  0  0  0  0
   45.8100   34.6740   42.9640 C   0  0  0  0  0  0  0  0  0  0  0  0
   45.7240   33.8580   44.0910 C   0  0  0  0  0  0  0  0  0  0  0  0
   45.1470   34.3140   45.2190 N   0  0  0  0  0  0  0  0  0  0  0  0
   44.6290   35.5820   45.2990 C   0  0  0  0  0  0  0  0  0  0  0  0
   44.7010   36.3730   44.2350 N   0  0  0  0  0  0  0  0  0  0  0  0
   45.3070   36.6560   42.2270 H   0  0  0  0  0  0  0  0  0  0  0  0
   44.2000   35.7970   46.2680 H   0  0  0  0  0  0  0  0  0  0  0  0
   46.2790   32.5120   43.9930 C   0  0  0  0  0  0  0  0  0  0  0  0
   45.4390   31.4290   43.8780 C   0  0  0  0  0  0  0  0  0  0  0  0
   45.9900   30.1700   43.7870 C   0  0  0  0  0  0  0  0  0  0  0  0
   47.3580   29.9340   43.8050 C   0  0  0  0  0  0  0  0  0  0  0  0
   48.1480   31.0740   43.9240 C   0  0  0  0  0  0  0  0  0  0  0  0
   47.5920   32.2900   44.0110 N   0  0  0  0  0  0  0  0  0  0  0  0
   44.3430   31.5320   43.8550 H   0  0  0  0  0  0  0  0  0  0  0  0
   45.3500   29.2820   43.6940 H   0  0  0  0  0  0  0  0  0  0  0  0
   47.8030   28.9550   43.7350 H   0  0  0  0  0  0  0  0  0  0  0  0
   49.2290   30.9920   43.9470 H   0  0  0  0  0  0  0  0  0  0  0  0
   46.4070   34.2480   41.7500 C   0  0  0  0  0  0  0  0  0  0  0  0
   47.4880   34.8240   41.4160 O   0  0  0  0  0  0  0  0  0  0  0  0
   46.0210   33.2240   40.7340 C   0  0  0  0  0  3  0  0  0  0  0  0
   46.6990   33.6120   39.4590 C   0  0  0  0  0  2  0  0  0  0  0  0
   46.1180   32.9840   38.2250 C   0  0  0  0  0  2  0  0  0  0  0  0
   44.6260   33.0430   38.1680 C   0  0  0  0  0  2  0  0  0  0  0  0
   43.9870   33.6650   39.3690 C   0  0  0  0  0  2  0  0  0  0  0  0
   44.5380   33.1010   40.6510 C   0  0  0  0  0  2  0  0  0  0  0  0
  1  6  1  0  0  0  0
  2  1  2  0  0  0  0
  2  3  1  0  0  0  0
  3  4  2  0  0  0  0
  4  5  1  0  0  0  0
  5  8  1  0  0  0  0
  6  5  2  0  0  0  0
  7  1  1  0  0  0  0
  9 14  1  0  0  0  0
  9  3  1  0  0  0  0
 10  9  2  0  0  0  0
 11 12  2  0  0  0  0
 11 10  1  0  0  0  0
 12 13  1  0  0  0  0
 13 18  1  0  0  0  0
 13 14  2  0  0  0  0
 15 10  1  0  0  0  0
 16 11  1  0  0  0  0
 17 12  1  0  0  0  0
 19  2  1  0  0  0  0
 20 19  2  0  0  0  0
 21 19  1  0  0  0  0
 22 21  1  0  0  0  0
 23 22  1  0  0  0  0
 24 23  1  0  0  0  0
 24 25  1  0  0  0  0
 25 26  1  0  0  0  0
 26 21  1  0  0  0  0
M  END
>  <minimizedAffinity>
-4.2141552

>  <minimizedRMSD>
0.739950955

$$$$
