
 OpenBabel03252509263D

 27 29  0  0  1  0  0  0  0  0999 V2000
   46.8310   35.1410   41.8570 C   0  0  1  0  0  0  0  0  0  0  0  0
   48.3390   35.5200   41.9140 C   0  0  0  0  0  0  0  0  0  0  0  0
   47.7200   34.2690   41.2090 C   0  0  2  0  0  0  0  0  0  0  0  0
   46.2160   35.8950   41.3190 H   0  0  0  0  0  0  0  0  0  0  0  0
   48.6550   36.2980   41.1900 H   0  0  0  0  0  0  0  0  0  0  0  0
   48.8910   35.3730   42.8360 H   0  0  0  0  0  0  0  0  0  0  0  0
   48.0030   33.3200   41.7640 H   0  0  0  0  0  0  0  0  0  0  0  0
   44.8350   35.0680   45.0340 C   0  0  0  0  0  0  0  0  0  0  0  0
   45.2800   35.5060   43.7540 C   0  0  0  0  0  0  0  0  0  0  0  0
   46.3180   34.8040   43.2360 C   0  0  0  0  0  0  0  0  0  0  0  0
   46.8970   33.7480   43.9050 N   0  0  0  0  0  0  0  0  0  0  0  0
   46.4460   33.3610   45.1250 C   0  0  0  0  0  0  0  0  0  0  0  0
   45.4050   34.0320   45.6870 N   0  0  0  0  0  0  0  0  0  0  0  0
   43.9960   35.6370   45.4490 H   0  0  0  0  0  0  0  0  0  0  0  0
   46.8640   32.5480   45.6790 H   0  0  0  0  0  0  0  0  0  0  0  0
   44.7030   36.6040   43.0720 N   0  0  0  0  0  0  0  0  0  0  0  0
   44.0730   36.5730   42.2240 H   0  0  0  0  0  0  0  0  0  0  0  0
   44.8530   37.6190   43.3560 H   0  0  0  0  0  0  0  0  0  0  0  0
   47.8140   34.1930   39.6990 C   0  0  0  0  0  0  0  0  0  0  0  0
   46.8070   34.3490   39.2550 H   0  0  0  0  0  0  0  0  0  0  0  0
   48.4850   35.0160   39.3400 H   0  0  0  0  0  0  0  0  0  0  0  0
   48.3580   32.8320   39.3080 C   0  0  0  0  0  3  0  0  0  0  0  0
   48.9470   32.8410   37.9430 C   0  0  0  0  0  2  0  0  0  0  0  0
   50.1150   31.9730   37.6850 C   0  0  0  0  0  2  0  0  0  0  0  0
   50.1910   30.8790   38.7310 C   0  0  0  0  0  2  0  0  0  0  0  0
   50.4690   31.6350   40.0170 C   0  0  0  0  0  2  0  0  0  0  0  0
   49.1840   32.3050   40.4100 C   0  0  0  0  0  2  0  0  0  0  0  0
  1  4  1  6  0  0  0
  1  2  1  0  0  0  0
  1 10  1  0  0  0  0
  2  6  1  0  0  0  0
  3  7  1  1  0  0  0
  3  1  1  0  0  0  0
  3  2  1  0  0  0  0
  5  2  1  0  0  0  0
  8 14  1  0  0  0  0
  8 13  1  0  0  0  0
  9  8  2  0  0  0  0
 10  9  1  0  0  0  0
 10 11  2  0  0  0  0
 11 12  1  0  0  0  0
 12 15  1  0  0  0  0
 12 13  2  0  0  0  0
 16 18  1  0  0  0  0
 16  9  1  0  0  0  0
 17 16  1  0  0  0  0
 19  3  1  0  0  0  0
 20 19  1  0  0  0  0
 21 19  1  0  0  0  0
 22 19  1  0  0  0  0
 22 27  1  0  0  0  0
 23 22  1  0  0  0  0
 24 23  1  0  0  0  0
 24 25  1  0  0  0  0
 25 26  1  0  0  0  0
 26 27  1  0  0  0  0
M  END
>  <minimizedAffinity>
-4.84467363

>  <minimizedRMSD>
0.426954985

$$$$
