
 OpenBabel03252505493D

 19 20  0  0  0  0  0  0  0  0999 V2000
   45.0560   34.5400   45.6390 C   0  0  0  0  0  0  0  0  0  0  0  0
   45.5760   34.7900   44.3700 C   0  0  0  0  0  0  0  0  0  0  0  0
   46.5860   33.9520   43.9240 C   0  0  0  0  0  0  0  0  0  0  0  0
   47.0230   32.9470   44.7150 N   0  0  0  0  0  0  0  0  0  0  0  0
   46.4910   32.7440   45.9340 C   0  0  0  0  0  0  0  0  0  0  0  0
   45.5070   33.5270   46.4170 N   0  0  0  0  0  0  0  0  0  0  0  0
   44.2700   35.1500   46.0510 H   0  0  0  0  0  0  0  0  0  0  0  0
   46.9720   34.1640   42.9420 H   0  0  0  0  0  0  0  0  0  0  0  0
   44.9930   35.9420   43.6060 C   0  0  0  0  0  0  0  0  0  0  0  0
   44.8440   36.9630   44.5160 F   0  0  0  0  0  0  0  0  0  0  0  0
   43.7730   35.5430   43.1240 F   0  0  0  0  0  0  0  0  0  0  0  0
   45.8640   36.2400   42.5760 F   0  0  0  0  0  0  0  0  0  0  0  0
   46.9370   31.7050   46.7570 O   0  0  0  0  0  0  0  0  0  0  0  0
   46.8710   30.3500   46.3570 C   0  0  0  0  0  3  0  0  0  0  0  0
   45.4570   29.9620   46.0350 C   0  0  0  0  0  2  0  0  0  0  0  0
   44.7840   29.1640   47.1030 C   0  0  0  0  0  2  0  0  0  0  0  0
   45.5760   27.9720   47.5610 C   0  0  0  0  0  2  0  0  0  0  0  0
   47.0580   28.0910   47.3340 C   0  0  0  0  0  2  0  0  0  0  0  0
   47.4510   29.5300   47.4900 C   0  0  0  0  0  2  0  0  0  0  0  0
  1  7  1  0  0  0  0
  1  6  1  0  0  0  0
  2  1  2  0  0  0  0
  3  2  1  0  0  0  0
  3  4  2  0  0  0  0
  4  5  1  0  0  0  0
  5  6  2  0  0  0  0
  5 13  1  0  0  0  0
  8  3  1  0  0  0  0
  9  2  1  0  0  0  0
  9 10  1  0  0  0  0
 11  9  1  0  0  0  0
 12  9  1  0  0  0  0
 14 13  1  0  0  0  0
 14 19  1  0  0  0  0
 15 14  1  0  0  0  0
 15 16  1  0  0  0  0
 16 17  1  0  0  0  0
 18 19  1  0  0  0  0
 18 17  1  0  0  0  0
M  END
>  <minimizedAffinity>
-4.56483173

>  <minimizedRMSD>
2.18609214

$$$$
