
 OpenBabel03252509273D

 27 29  0  0  1  0  0  0  0  0999 V2000
   46.9860   35.1210   41.7660 C   0  0  1  0  0  0  0  0  0  0  0  0
   48.4760   35.5620   41.8400 C   0  0  0  0  0  0  0  0  0  0  0  0
   47.9140   34.3010   41.1060 C   0  0  2  0  0  0  0  0  0  0  0  0
   46.3420   35.8590   41.2400 H   0  0  0  0  0  0  0  0  0  0  0  0
   48.7620   36.3670   41.1340 H   0  0  0  0  0  0  0  0  0  0  0  0
   49.0280   35.4190   42.7620 H   0  0  0  0  0  0  0  0  0  0  0  0
   48.2340   33.3540   41.6430 H   0  0  0  0  0  0  0  0  0  0  0  0
   44.9790   34.8990   44.9290 C   0  0  0  0  0  0  0  0  0  0  0  0
   45.4110   35.3820   43.6610 C   0  0  0  0  0  0  0  0  0  0  0  0
   46.4800   34.7350   43.1350 C   0  0  0  0  0  0  0  0  0  0  0  0
   47.1000   33.6890   43.7850 N   0  0  0  0  0  0  0  0  0  0  0  0
   46.6590   33.2580   44.9940 C   0  0  0  0  0  0  0  0  0  0  0  0
   45.5880   33.8740   45.5640 N   0  0  0  0  0  0  0  0  0  0  0  0
   44.1160   35.4240   45.3510 H   0  0  0  0  0  0  0  0  0  0  0  0
   47.1070   32.4520   45.5340 H   0  0  0  0  0  0  0  0  0  0  0  0
   44.7940   36.4700   42.9990 N   0  0  0  0  0  0  0  0  0  0  0  0
   44.1690   36.4300   42.1470 H   0  0  0  0  0  0  0  0  0  0  0  0
   44.8990   37.4830   43.3050 H   0  0  0  0  0  0  0  0  0  0  0  0
   48.0180   34.2600   39.5960 C   0  0  0  0  0  0  0  0  0  0  0  0
   47.0270   34.4870   39.1470 H   0  0  0  0  0  0  0  0  0  0  0  0
   48.7410   35.0510   39.2650 H   0  0  0  0  0  0  0  0  0  0  0  0
   48.4850   32.8800   39.1720 C   0  0  0  0  0  3  0  0  0  0  0  0
   49.0940   32.8910   37.8160 C   0  0  0  0  0  2  0  0  0  0  0  0
   50.2110   31.9610   37.5500 C   0  0  0  0  0  2  0  0  0  0  0  0
   50.2030   30.8340   38.5630 C   0  0  0  0  0  2  0  0  0  0  0  0
   50.5070   31.5350   39.8750 C   0  0  0  0  0  2  0  0  0  0  0  0
   49.2600   32.2710   40.2690 C   0  0  0  0  0  2  0  0  0  0  0  0
  1  4  1  6  0  0  0
  1  2  1  0  0  0  0
  1 10  1  0  0  0  0
  2  6  1  0  0  0  0
  3  7  1  1  0  0  0
  3  1  1  0  0  0  0
  3  2  1  0  0  0  0
  5  2  1  0  0  0  0
  8 14  1  0  0  0  0
  8 13  1  0  0  0  0
  9  8  2  0  0  0  0
 10  9  1  0  0  0  0
 10 11  2  0  0  0  0
 11 12  1  0  0  0  0
 12 15  1  0  0  0  0
 12 13  2  0  0  0  0
 16 18  1  0  0  0  0
 16  9  1  0  0  0  0
 17 16  1  0  0  0  0
 19  3  1  0  0  0  0
 20 19  1  0  0  0  0
 21 19  1  0  0  0  0
 22 19  1  0  0  0  0
 22 27  1  0  0  0  0
 23 22  1  0  0  0  0
 24 23  1  0  0  0  0
 24 25  1  0  0  0  0
 25 26  1  0  0  0  0
 26 27  1  0  0  0  0
M  END
>  <minimizedAffinity>
-4.8418541

>  <minimizedRMSD>
0.647557855

$$$$
