
 OpenBabel03242520293D

 38 40  0  0  0  0  0  0  0  0999 V2000
   45.7420   35.5180   42.9120 C   0  0  0  0  0  0  0  0  0  0  0  0
   46.6090   34.4870   43.3840 C   0  0  0  0  0  0  0  0  0  0  0  0
   46.3660   33.9630   44.6420 C   0  0  0  0  0  0  0  0  0  0  0  0
   45.3280   34.4400   45.3720 N   0  0  0  0  0  0  0  0  0  0  0  0
   44.5200   35.4140   44.9100 C   0  0  0  0  0  0  0  0  0  0  0  0
   44.7300   35.9440   43.6910 N   0  0  0  0  0  0  0  0  0  0  0  0
   45.9040   35.9490   41.9330 H   0  0  0  0  0  0  0  0  0  0  0  0
   43.7080   35.7480   45.5500 H   0  0  0  0  0  0  0  0  0  0  0  0
   47.6420   34.1070   42.4950 N   0  0  0  0  0  0  0  0  0  0  0  0
   47.5310   32.9780   41.5790 C   0  0  0  0  0  0  0  0  0  0  0  0
   48.7360   32.9240   40.6820 C   0  0  0  0  0  0  0  0  0  0  0  0
   49.9790   32.9740   41.3960 N   0  0  0  0  0  0  0  0  0  0  0  0
   50.0780   33.9990   42.3750 C   0  0  0  0  0  0  0  0  0  0  0  0
   48.8700   34.8870   42.5040 C   0  0  0  0  0  0  0  0  0  0  0  0
   46.6430   33.1730   40.9580 H   0  0  0  0  0  0  0  0  0  0  0  0
   47.3720   32.0100   42.1150 H   0  0  0  0  0  0  0  0  0  0  0  0
   48.6970   31.9740   40.1120 H   0  0  0  0  0  0  0  0  0  0  0  0
   48.6510   33.7480   39.9280 H   0  0  0  0  0  0  0  0  0  0  0  0
   50.3650   32.0580   41.6620 H   0  0  0  0  0  0  0  0  0  0  0  0
   50.9390   34.6780   42.1320 H   0  0  0  0  0  0  0  0  0  0  0  0
   50.2980   33.5440   43.3560 H   0  0  0  0  0  0  0  0  0  0  0  0
   48.9750   35.4790   43.4300 H   0  0  0  0  0  0  0  0  0  0  0  0
   48.8370   35.5340   41.5980 H   0  0  0  0  0  0  0  0  0  0  0  0
   47.2320   32.9620   45.0620 O   0  0  0  0  0  0  0  0  0  0  0  0
   45.5750   30.9200   44.7130 O   0  0  0  0  0  0  0  0  0  0  0  0
   46.5610   31.5160   45.7170 P   0  0  1  0  0  0  0  0  0  0  0  0
   47.8140   30.4580   46.0360 O   0  0  0  0  0  0  0  0  0  0  0  0
   47.4560   29.1520   45.7810 C   0  0  0  0  0  0  0  0  0  0  0  0
   46.6490   28.5590   46.9200 C   0  0  0  0  0  0  0  0  0  0  0  0
   46.9200   27.0540   47.0350 C   0  0  0  0  0  0  0  0  0  0  0  0
   48.3220   26.8000   47.5350 C   0  0  0  0  0  0  0  0  0  0  0  0
   49.1640   27.9930   47.1110 C   0  0  0  0  0  0  0  0  0  0  0  0
   48.7350   28.3330   45.6840 C   0  0  0  0  0  0  0  0  0  0  0  0
   45.7200   31.9400   47.1020 O   0  0  0  0  0  0  0  0  0  0  0  0
   46.5400   32.1540   48.1930 C   0  0  0  0  0  0  0  0  0  0  0  0
   47.6660   32.8890   47.9110 F   0  0  0  0  0  0  0  0  0  0  0  0
   46.9200   31.0090   48.8460 F   0  0  0  0  0  0  0  0  0  0  0  0
   45.7770   32.8780   49.1060 F   0  0  0  0  0  0  0  0  0  0  0  0
  1  2  2  0  0  0  0
  1  6  1  0  0  0  0
  2  3  1  0  0  0  0
  3 24  1  0  0  0  0
  3  4  2  0  0  0  0
  5  4  1  0  0  0  0
  5  8  1  0  0  0  0
  6  5  2  0  0  0  0
  7  1  1  0  0  0  0
  9 14  1  0  0  0  0
  9  2  1  0  0  0  0
 10 16  1  0  0  0  0
 10  9  1  0  0  0  0
 11 12  1  0  0  0  0
 11 10  1  0  0  0  0
 12 19  1  0  0  0  0
 12 13  1  0  0  0  0
 13 14  1  0  0  0  0
 13 21  1  0  0  0  0
 14 22  1  0  0  0  0
 15 10  1  0  0  0  0
 17 11  1  0  0  0  0
 18 11  1  0  0  0  0
 20 13  1  0  0  0  0
 23 14  1  0  0  0  0
 24 26  1  0  0  0  0
 26 25  2  6  0  0  0
 26 27  1  0  0  0  0
 26 34  1  0  0  0  0
 28 27  1  0  0  0  0
 28 29  1  0  0  0  0
 29 30  1  0  0  0  0
 30 31  1  0  0  0  0
 32 31  1  0  0  0  0
 33 28  1  0  0  0  0
 33 32  1  0  0  0  0
 34 35  1  0  0  0  0
 35 37  1  0  0  0  0
 35 38  1  0  0  0  0
 36 35  1  0  0  0  0
M  END
>  <minimizedAffinity>
-5.24247456

>  <minimizedRMSD>
2.84501863

$$$$
