
 OpenBabel03252508353D

 32 34  0  0  1  0  0  0  0  0999 V2000
   37.1060   30.6840   39.4270 N   0  0  0  0  0  0  0  0  0  0  0  0
   36.0810   30.3990   40.4040 C   0  0  1  0  0  0  0  0  0  0  0  0
   35.2380   29.2210   40.0280 C   0  0  0  0  0  0  0  0  0  0  0  0
   34.9090   29.0840   38.6720 N   0  0  0  0  0  0  0  0  0  0  0  0
   35.7840   29.6000   37.7180 C   0  0  0  0  0  0  0  0  0  0  0  0
   37.1790   29.7920   38.3170 C   0  0  0  0  0  0  0  0  0  0  0  0
   35.4350   31.2810   40.5050 H   0  0  0  0  0  0  0  0  0  0  0  0
   34.2980   29.2650   40.6190 H   0  0  0  0  0  0  0  0  0  0  0  0
   35.7650   28.2930   40.3600 H   0  0  0  0  0  0  0  0  0  0  0  0
   34.7080   28.0720   38.4520 H   0  0  0  0  0  0  0  0  0  0  0  0
   35.4480   30.6250   37.4350 H   0  0  0  0  0  0  0  0  0  0  0  0
   35.8610   29.0480   36.7640 H   0  0  0  0  0  0  0  0  0  0  0  0
   37.5210   28.8040   38.6890 H   0  0  0  0  0  0  0  0  0  0  0  0
   37.8920   30.1690   37.5460 H   0  0  0  0  0  0  0  0  0  0  0  0
   37.3090   33.0430   39.7420 C   0  0  0  0  0  0  0  0  0  0  0  0
   37.9260   31.8070   39.6710 C   0  0  0  0  0  0  0  0  0  0  0  0
   39.3280   31.7700   39.8510 C   0  0  0  0  0  0  0  0  0  0  0  0
   40.0030   32.9210   40.0800 N   0  0  0  0  0  0  0  0  0  0  0  0
   39.3630   34.0980   40.1390 C   0  0  0  0  0  0  0  0  0  0  0  0
   38.0470   34.1590   39.9750 N   0  0  0  0  0  0  0  0  0  0  0  0
   36.2410   33.1430   39.6140 H   0  0  0  0  0  0  0  0  0  0  0  0
   39.7440   30.7750   39.7840 H   0  0  0  0  0  0  0  0  0  0  0  0
   40.0050   34.9480   40.3270 H   0  0  0  0  0  0  0  0  0  0  0  0
   36.7740   30.0450   41.6950 C   0  0  0  0  0  0  0  0  0  0  0  0
   36.0820   30.1870   42.5670 H   0  0  0  0  0  0  0  0  0  0  0  0
   37.6250   30.7550   41.8170 H   0  0  0  0  0  0  0  0  0  0  0  0
   37.3520   28.6730   41.7440 C   0  0  0  0  0  3  0  0  0  0  0  0
   38.8410   28.7850   41.9420 C   0  0  0  0  0  2  0  0  0  0  0  0
   39.4120   27.9330   43.0120 C   0  0  0  0  0  2  0  0  0  0  0  0
   38.8030   26.5970   43.2240 C   0  0  0  0  0  2  0  0  0  0  0  0
   37.4030   26.4550   42.7030 C   0  0  0  0  0  2  0  0  0  0  0  0
   36.7380   27.8100   42.8260 C   0  0  0  0  0  2  0  0  0  0  0  0
  1 16  1  0  0  0  0
  1  2  1  0  0  0  0
  2  7  1  1  0  0  0
  2 24  1  0  0  0  0
  3  9  1  0  0  0  0
  3  2  1  0  0  0  0
  3  8  1  0  0  0  0
  4  3  1  0  0  0  0
  5  6  1  0  0  0  0
  5  4  1  0  0  0  0
  6 13  1  0  0  0  0
  6  1  1  0  0  0  0
 10  4  1  0  0  0  0
 11  5  1  0  0  0  0
 12  5  1  0  0  0  0
 14  6  1  0  0  0  0
 15 20  1  0  0  0  0
 16 15  2  0  0  0  0
 16 17  1  0  0  0  0
 17 18  2  0  0  0  0
 18 19  1  0  0  0  0
 19 23  1  0  0  0  0
 20 19  2  0  0  0  0
 21 15  1  0  0  0  0
 22 17  1  0  0  0  0
 24 27  1  0  0  0  0
 24 26  1  0  0  0  0
 24 25  1  0  0  0  0
 27 28  1  0  0  0  0
 27 32  1  0  0  0  0
 28 29  1  0  0  0  0
 29 30  1  0  0  0  0
 31 32  1  0  0  0  0
 31 30  1  0  0  0  0
M  END
>  <minimizedAffinity>
-5.11254787

$$$$

 OpenBabel03252508353D

 32 34  0  0  1  0  0  0  0  0999 V2000
   38.1370   30.5620   41.1060 N   0  0  0  0  0  0  0  0  0  0  0  0
   39.0040   29.9340   42.0750 C   0  0  1  0  0  0  0  0  0  0  0  0
   39.9450   30.9030   42.7200 C   0  0  0  0  0  0  0  0  0  0  0  0
   40.4900   31.8990   41.8970 N   0  0  0  0  0  0  0  0  0  0  0  0
   39.7580   32.3260   40.7920 C   0  0  0  0  0  0  0  0  0  0  0  0
   38.2780   31.9730   40.9580 C   0  0  0  0  0  0  0  0  0  0  0  0
   39.5890   29.1520   41.5720 H   0  0  0  0  0  0  0  0  0  0  0  0
   40.7760   30.3260   43.1790 H   0  0  0  0  0  0  0  0  0  0  0  0
   39.4110   31.3990   43.5670 H   0  0  0  0  0  0  0  0  0  0  0  0
   40.7670   32.7350   42.4790 H   0  0  0  0  0  0  0  0  0  0  0  0
   40.0910   31.7560   39.8930 H   0  0  0  0  0  0  0  0  0  0  0  0
   39.8580   33.3910   40.5110 H   0  0  0  0  0  0  0  0  0  0  0  0
   37.9240   32.4550   41.8920 H   0  0  0  0  0  0  0  0  0  0  0  0
   37.6830   32.3470   40.0930 H   0  0  0  0  0  0  0  0  0  0  0  0
   37.7880   28.7400   39.6010 C   0  0  0  0  0  0  0  0  0  0  0  0
   37.2420   29.7190   40.4100 C   0  0  0  0  0  0  0  0  0  0  0  0
   35.8310   29.7960   40.4760 C   0  0  0  0  0  0  0  0  0  0  0  0
   35.0810   28.9270   39.7590 N   0  0  0  0  0  0  0  0  0  0  0  0
   35.6540   27.9930   38.9860 C   0  0  0  0  0  0  0  0  0  0  0  0
   36.9770   27.9000   38.9080 N   0  0  0  0  0  0  0  0  0  0  0  0
   38.8580   28.6260   39.5040 H   0  0  0  0  0  0  0  0  0  0  0  0
   35.4740   30.5810   41.1260 H   0  0  0  0  0  0  0  0  0  0  0  0
   34.9550   27.3560   38.4600 H   0  0  0  0  0  0  0  0  0  0  0  0
   38.1290   29.3810   43.1720 C   0  0  0  0  0  0  0  0  0  0  0  0
   37.0510   29.6190   42.9730 H   0  0  0  0  0  0  0  0  0  0  0  0
   38.4230   29.8930   44.1170 H   0  0  0  0  0  0  0  0  0  0  0  0
   38.2730   27.9180   43.4150 C   0  0  0  0  0  3  0  0  0  0  0  0
   36.9840   27.2390   43.0340 C   0  0  0  0  0  2  0  0  0  0  0  0
   37.1190   26.0460   42.1650 C   0  0  0  0  0  2  0  0  0  0  0  0
   38.3030   25.1760   42.3710 C   0  0  0  0  0  2  0  0  0  0  0  0
   39.4590   25.8420   43.0600 C   0  0  0  0  0  2  0  0  0  0  0  0
   39.4360   27.3040   42.6650 C   0  0  0  0  0  2  0  0  0  0  0  0
  1  2  1  0  0  0  0
  2  7  1  6  0  0  0
  2  3  1  0  0  0  0
  2 24  1  0  0  0  0
  3  8  1  0  0  0  0
  3  9  1  0  0  0  0
  4 10  1  0  0  0  0
  4  3  1  0  0  0  0
  5  6  1  0  0  0  0
  5  4  1  0  0  0  0
  6  1  1  0  0  0  0
  6 13  1  0  0  0  0
 11  5  1  0  0  0  0
 12  5  1  0  0  0  0
 14  6  1  0  0  0  0
 15 16  1  0  0  0  0
 16 17  2  0  0  0  0
 16  1  1  0  0  0  0
 17 22  1  0  0  0  0
 18 17  1  0  0  0  0
 19 18  2  0  0  0  0
 20 19  1  0  0  0  0
 20 15  2  0  0  0  0
 21 15  1  0  0  0  0
 23 19  1  0  0  0  0
 24 27  1  0  0  0  0
 24 26  1  0  0  0  0
 25 24  1  0  0  0  0
 28 27  1  0  0  0  0
 29 30  1  0  0  0  0
 29 28  1  0  0  0  0
 30 31  1  0  0  0  0
 32 31  1  0  0  0  0
 32 27  1  0  0  0  0
M  END
>  <minimizedAffinity>
-5.05140924

$$$$

 OpenBabel03252508353D

 32 34  0  0  1  0  0  0  0  0999 V2000
   38.7530   31.0170   38.8760 N   0  0  0  0  0  0  0  0  0  0  0  0
   38.9720   31.1910   40.2930 C   0  0  1  0  0  0  0  0  0  0  0  0
   37.7770   31.7570   40.9950 C   0  0  0  0  0  0  0  0  0  0  0  0
   37.0530   32.7460   40.3150 N   0  0  0  0  0  0  0  0  0  0  0  0
   37.0560   32.7380   38.9220 C   0  0  0  0  0  0  0  0  0  0  0  0
   37.4550   31.3570   38.3940 C   0  0  0  0  0  0  0  0  0  0  0  0
   39.8230   31.8690   40.4380 H   0  0  0  0  0  0  0  0  0  0  0  0
   38.1110   32.1680   41.9710 H   0  0  0  0  0  0  0  0  0  0  0  0
   37.0830   30.9160   41.2380 H   0  0  0  0  0  0  0  0  0  0  0  0
   36.0570   32.7660   40.6630 H   0  0  0  0  0  0  0  0  0  0  0  0
   37.8530   33.4270   38.5560 H   0  0  0  0  0  0  0  0  0  0  0  0
   36.1310   33.0750   38.4200 H   0  0  0  0  0  0  0  0  0  0  0  0
   36.7310   30.6220   38.8040 H   0  0  0  0  0  0  0  0  0  0  0  0
   37.4220   31.3350   37.2800 H   0  0  0  0  0  0  0  0  0  0  0  0
   40.8510   31.4210   37.8070 C   0  0  0  0  0  0  0  0  0  0  0  0
   39.8410   30.5300   38.1180 C   0  0  0  0  0  0  0  0  0  0  0  0
   39.9800   29.2020   37.6520 C   0  0  0  0  0  0  0  0  0  0  0  0
   41.0740   28.8580   36.9330 N   0  0  0  0  0  0  0  0  0  0  0  0
   42.0300   29.7560   36.6540 C   0  0  0  0  0  0  0  0  0  0  0  0
   41.9220   31.0090   37.0810 N   0  0  0  0  0  0  0  0  0  0  0  0
   40.8080   32.4510   38.1320 H   0  0  0  0  0  0  0  0  0  0  0  0
   39.1570   28.5600   37.9310 H   0  0  0  0  0  0  0  0  0  0  0  0
   42.8550   29.3670   36.0740 H   0  0  0  0  0  0  0  0  0  0  0  0
   39.2170   29.8250   40.8820 C   0  0  0  0  0  0  0  0  0  0  0  0
   40.1410   29.8310   41.5190 H   0  0  0  0  0  0  0  0  0  0  0  0
   39.3950   29.1270   40.0320 H   0  0  0  0  0  0  0  0  0  0  0  0
   38.0820   29.2640   41.6670 C   0  0  0  0  0  3  0  0  0  0  0  0
   37.4070   28.2010   40.8410 C   0  0  0  0  0  2  0  0  0  0  0  0
   37.1540   26.9150   41.5340 C   0  0  0  0  0  2  0  0  0  0  0  0
   36.8100   26.9670   42.9760 C   0  0  0  0  0  2  0  0  0  0  0  0
   37.2390   28.2230   43.6780 C   0  0  0  0  0  2  0  0  0  0  0  0
   38.5080   28.7020   43.0070 C   0  0  0  0  0  2  0  0  0  0  0  0
  1  2  1  0  0  0  0
  2  7  1  1  0  0  0
  2 24  1  0  0  0  0
  2  3  1  0  0  0  0
  3  9  1  0  0  0  0
  3  8  1  0  0  0  0
  4 10  1  0  0  0  0
  4  3  1  0  0  0  0
  5  4  1  0  0  0  0
  6 13  1  0  0  0  0
  6  1  1  0  0  0  0
  6  5  1  0  0  0  0
 11  5  1  0  0  0  0
 12  5  1  0  0  0  0
 14  6  1  0  0  0  0
 15 16  1  0  0  0  0
 15 21  1  0  0  0  0
 16  1  1  0  0  0  0
 17 22  1  0  0  0  0
 17 16  2  0  0  0  0
 18 17  1  0  0  0  0
 19 18  2  0  0  0  0
 19 20  1  0  0  0  0
 20 15  2  0  0  0  0
 23 19  1  0  0  0  0
 24 25  1  0  0  0  0
 24 27  1  0  0  0  0
 26 24  1  0  0  0  0
 27 32  1  0  0  0  0
 28 29  1  0  0  0  0
 28 27  1  0  0  0  0
 29 30  1  0  0  0  0
 30 31  1  0  0  0  0
 32 31  1  0  0  0  0
M  END
>  <minimizedAffinity>
-4.92491961

$$$$

 OpenBabel03252508353D

 32 34  0  0  1  0  0  0  0  0999 V2000
   38.0530   29.7020   41.1470 N   0  0  0  0  0  0  0  0  0  0  0  0
   36.6780   30.0330   41.4460 C   0  0  1  0  0  0  0  0  0  0  0  0
   36.2200   31.2730   40.7440 C   0  0  0  0  0  0  0  0  0  0  0  0
   37.1430   32.3230   40.6460 N   0  0  0  0  0  0  0  0  0  0  0  0
   38.5010   32.0180   40.6230 C   0  0  0  0  0  0  0  0  0  0  0  0
   38.7170   30.5570   40.2210 C   0  0  0  0  0  0  0  0  0  0  0  0
   36.5780   30.1790   42.5290 H   0  0  0  0  0  0  0  0  0  0  0  0
   35.3100   31.6460   41.2600 H   0  0  0  0  0  0  0  0  0  0  0  0
   35.8930   30.9910   39.7130 H   0  0  0  0  0  0  0  0  0  0  0  0
   36.9070   32.9330   39.8170 H   0  0  0  0  0  0  0  0  0  0  0  0
   38.9080   32.0940   41.6590 H   0  0  0  0  0  0  0  0  0  0  0  0
   39.1480   32.6720   40.0100 H   0  0  0  0  0  0  0  0  0  0  0  0
   38.2520   30.4140   39.2230 H   0  0  0  0  0  0  0  0  0  0  0  0
   39.8050   30.3190   40.1640 H   0  0  0  0  0  0  0  0  0  0  0  0
   39.3260   27.6830   41.0330 C   0  0  0  0  0  0  0  0  0  0  0  0
   38.5920   28.5710   41.7990 C   0  0  0  0  0  0  0  0  0  0  0  0
   38.4430   28.2730   43.1730 C   0  0  0  0  0  0  0  0  0  0  0  0
   39.0120   27.1530   43.6790 N   0  0  0  0  0  0  0  0  0  0  0  0
   39.7150   26.3200   42.8980 C   0  0  0  0  0  0  0  0  0  0  0  0
   39.8690   26.5790   41.6040 N   0  0  0  0  0  0  0  0  0  0  0  0
   39.4780   27.8500   39.9760 H   0  0  0  0  0  0  0  0  0  0  0  0
   37.8610   29.0070   43.7110 H   0  0  0  0  0  0  0  0  0  0  0  0
   40.1210   25.4600   43.4120 H   0  0  0  0  0  0  0  0  0  0  0  0
   35.8210   28.9020   40.9380 C   0  0  0  0  0  0  0  0  0  0  0  0
   34.8340   28.8840   41.4720 H   0  0  0  0  0  0  0  0  0  0  0  0
   36.3540   27.9520   41.1760 H   0  0  0  0  0  0  0  0  0  0  0  0
   35.5850   28.9020   39.4670 C   0  0  0  0  0  3  0  0  0  0  0  0
   36.2170   27.6680   38.8790 C   0  0  0  0  0  2  0  0  0  0  0  0
   35.3580   26.8820   37.9610 C   0  0  0  0  0  2  0  0  0  0  0  0
   34.4090   27.6290   37.0990 C   0  0  0  0  0  2  0  0  0  0  0  0
   34.0660   29.0050   37.5900 C   0  0  0  0  0  2  0  0  0  0  0  0
   34.1170   28.9690   39.1030 C   0  0  0  0  0  2  0  0  0  0  0  0
  1  2  1  0  0  0  0
  1 16  1  0  0  0  0
  2  7  1  1  0  0  0
  3  8  1  0  0  0  0
  3  2  1  0  0  0  0
  4  3  1  0  0  0  0
  5  4  1  0  0  0  0
  5 11  1  0  0  0  0
  6  5  1  0  0  0  0
  6  1  1  0  0  0  0
  9  3  1  0  0  0  0
 10  4  1  0  0  0  0
 12  5  1  0  0  0  0
 13  6  1  0  0  0  0
 14  6  1  0  0  0  0
 15 20  2  0  0  0  0
 15 16  1  0  0  0  0
 16 17  2  0  0  0  0
 17 18  1  0  0  0  0
 17 22  1  0  0  0  0
 19 23  1  0  0  0  0
 19 18  2  0  0  0  0
 20 19  1  0  0  0  0
 21 15  1  0  0  0  0
 24 26  1  0  0  0  0
 24  2  1  0  0  0  0
 24 25  1  0  0  0  0
 27 24  1  0  0  0  0
 28 27  1  0  0  0  0
 29 28  1  0  0  0  0
 30 31  1  0  0  0  0
 30 29  1  0  0  0  0
 31 32  1  0  0  0  0
 32 27  1  0  0  0  0
M  END
>  <minimizedAffinity>
-4.88988543

$$$$

 OpenBabel03252508353D

 32 34  0  0  1  0  0  0  0  0999 V2000
   39.4150   31.6730   40.0880 N   0  0  0  0  0  0  0  0  0  0  0  0
   38.3340   30.9780   40.7470 C   0  0  1  0  0  0  0  0  0  0  0  0
   36.9930   31.5610   40.4250 C   0  0  0  0  0  0  0  0  0  0  0  0
   36.9160   32.9570   40.3310 N   0  0  0  0  0  0  0  0  0  0  0  0
   38.0520   33.6640   39.9450 C   0  0  0  0  0  0  0  0  0  0  0  0
   39.0390   32.7430   39.2240 C   0  0  0  0  0  0  0  0  0  0  0  0
   38.4920   31.0270   41.8320 H   0  0  0  0  0  0  0  0  0  0  0  0
   36.2720   31.2150   41.1950 H   0  0  0  0  0  0  0  0  0  0  0  0
   36.6440   31.1210   39.4590 H   0  0  0  0  0  0  0  0  0  0  0  0
   36.1050   33.2320   39.7140 H   0  0  0  0  0  0  0  0  0  0  0  0
   38.5930   34.0090   40.8570 H   0  0  0  0  0  0  0  0  0  0  0  0
   37.8890   34.5770   39.3440 H   0  0  0  0  0  0  0  0  0  0  0  0
   38.5110   32.3100   38.3480 H   0  0  0  0  0  0  0  0  0  0  0  0
   39.9330   33.3130   38.8790 H   0  0  0  0  0  0  0  0  0  0  0  0
   41.4640   30.7230   39.3100 C   0  0  0  0  0  0  0  0  0  0  0  0
   40.7250   31.2250   40.3660 C   0  0  0  0  0  0  0  0  0  0  0  0
   41.3430   31.2490   41.6380 C   0  0  0  0  0  0  0  0  0  0  0  0
   42.6090   30.7880   41.7730 N   0  0  0  0  0  0  0  0  0  0  0  0
   43.2880   30.3090   40.7200 C   0  0  0  0  0  0  0  0  0  0  0  0
   42.7290   30.2770   39.5160 N   0  0  0  0  0  0  0  0  0  0  0  0
   41.0520   30.6750   38.3120 H   0  0  0  0  0  0  0  0  0  0  0  0
   40.7110   31.6530   42.4150 H   0  0  0  0  0  0  0  0  0  0  0  0
   44.2890   29.9700   40.9500 H   0  0  0  0  0  0  0  0  0  0  0  0
   38.3290   29.5610   40.2310 C   0  0  0  0  0  0  0  0  0  0  0  0
   39.2240   29.3760   39.5800 H   0  0  0  0  0  0  0  0  0  0  0  0
   37.4190   29.4450   39.5990 H   0  0  0  0  0  0  0  0  0  0  0  0
   38.2580   28.5080   41.2810 C   0  0  0  0  0  3  0  0  0  0  0  0
   38.4600   29.1560   42.6260 C   0  0  0  0  0  2  0  0  0  0  0  0
   37.4720   28.7900   43.6700 C   0  0  0  0  0  2  0  0  0  0  0  0
   36.9480   27.4020   43.6630 C   0  0  0  0  0  2  0  0  0  0  0  0
   37.0740   26.6900   42.3480 C   0  0  0  0  0  2  0  0  0  0  0  0
   36.9560   27.7340   41.2580 C   0  0  0  0  0  2  0  0  0  0  0  0
  1 16  1  0  0  0  0
  1  2  1  0  0  0  0
  2  7  1  1  0  0  0
  3  2  1  0  0  0  0
  3  8  1  0  0  0  0
  4  3  1  0  0  0  0
  5  4  1  0  0  0  0
  5 11  1  0  0  0  0
  6  5  1  0  0  0  0
  6  1  1  0  0  0  0
  9  3  1  0  0  0  0
 10  4  1  0  0  0  0
 12  5  1  0  0  0  0
 13  6  1  0  0  0  0
 14  6  1  0  0  0  0
 15 20  2  0  0  0  0
 15 16  1  0  0  0  0
 16 17  2  0  0  0  0
 17 18  1  0  0  0  0
 17 22  1  0  0  0  0
 19 23  1  0  0  0  0
 19 18  2  0  0  0  0
 20 19  1  0  0  0  0
 21 15  1  0  0  0  0
 24  2  1  0  0  0  0
 24 27  1  0  0  0  0
 25 24  1  0  0  0  0
 26 24  1  0  0  0  0
 27 28  1  0  0  0  0
 28 29  1  0  0  0  0
 30 29  1  0  0  0  0
 31 30  1  0  0  0  0
 32 27  1  0  0  0  0
 32 31  1  0  0  0  0
M  END
>  <minimizedAffinity>
-4.87928724

$$$$

 OpenBabel03252508353D

 32 34  0  0  1  0  0  0  0  0999 V2000
   37.4390   29.8510   39.2340 N   0  0  0  0  0  0  0  0  0  0  0  0
   37.1560   29.9110   40.6500 C   0  0  1  0  0  0  0  0  0  0  0  0
   36.3760   31.1300   41.0310 C   0  0  0  0  0  0  0  0  0  0  0  0
   36.7080   32.3240   40.3760 N   0  0  0  0  0  0  0  0  0  0  0  0
   37.2360   32.2550   39.0890 C   0  0  0  0  0  0  0  0  0  0  0  0
   36.9020   30.9080   38.4420 C   0  0  0  0  0  0  0  0  0  0  0  0
   38.1060   29.9100   41.2000 H   0  0  0  0  0  0  0  0  0  0  0  0
   36.4840   31.2820   42.1250 H   0  0  0  0  0  0  0  0  0  0  0  0
   35.2920   30.9210   40.8560 H   0  0  0  0  0  0  0  0  0  0  0  0
   35.8790   32.9790   40.3800 H   0  0  0  0  0  0  0  0  0  0  0  0
   38.3490   32.2760   39.1510 H   0  0  0  0  0  0  0  0  0  0  0  0
   36.9700   33.0760   38.3970 H   0  0  0  0  0  0  0  0  0  0  0  0
   35.7970   30.8080   38.4340 H   0  0  0  0  0  0  0  0  0  0  0  0
   37.2910   30.8630   37.3980 H   0  0  0  0  0  0  0  0  0  0  0  0
   39.5090   28.6590   39.2490 C   0  0  0  0  0  0  0  0  0  0  0  0
   38.2100   28.7580   38.7830 C   0  0  0  0  0  0  0  0  0  0  0  0
   37.7610   27.7540   37.8940 C   0  0  0  0  0  0  0  0  0  0  0  0
   38.6000   26.7540   37.5370 N   0  0  0  0  0  0  0  0  0  0  0  0
   39.8530   26.6990   38.0130 C   0  0  0  0  0  0  0  0  0  0  0  0
   40.2980   27.6290   38.8500 N   0  0  0  0  0  0  0  0  0  0  0  0
   39.9160   29.3920   39.9300 H   0  0  0  0  0  0  0  0  0  0  0  0
   36.7390   27.8920   37.5720 H   0  0  0  0  0  0  0  0  0  0  0  0
   40.4300   25.8550   37.6590 H   0  0  0  0  0  0  0  0  0  0  0  0
   36.2960   28.7190   40.9880 C   0  0  0  0  0  0  0  0  0  0  0  0
   36.0480   28.1370   40.0620 H   0  0  0  0  0  0  0  0  0  0  0  0
   35.3420   29.1120   41.4100 H   0  0  0  0  0  0  0  0  0  0  0  0
   36.8690   27.7990   42.0090 C   0  0  0  0  0  3  0  0  0  0  0  0
   37.1340   26.4660   41.3590 C   0  0  0  0  0  2  0  0  0  0  0  0
   38.4770   25.8880   41.6050 C   0  0  0  0  0  2  0  0  0  0  0  0
   39.0940   26.1240   42.9330 C   0  0  0  0  0  2  0  0  0  0  0  0
   38.5450   27.3050   43.6800 C   0  0  0  0  0  2  0  0  0  0  0  0
   38.1320   28.3350   42.6490 C   0  0  0  0  0  2  0  0  0  0  0  0
  1  2  1  0  0  0  0
  2 24  1  0  0  0  0
  2  3  1  0  0  0  0
  2  7  1  1  0  0  0
  3  8  1  0  0  0  0
  4 10  1  0  0  0  0
  4  3  1  0  0  0  0
  5 11  1  0  0  0  0
  5  4  1  0  0  0  0
  6  5  1  0  0  0  0
  6  1  1  0  0  0  0
  9  3  1  0  0  0  0
 12  5  1  0  0  0  0
 13  6  1  0  0  0  0
 14  6  1  0  0  0  0
 15 21  1  0  0  0  0
 16  1  1  0  0  0  0
 16 15  2  0  0  0  0
 17 16  1  0  0  0  0
 18 17  2  0  0  0  0
 18 19  1  0  0  0  0
 19 20  2  0  0  0  0
 20 15  1  0  0  0  0
 22 17  1  0  0  0  0
 23 19  1  0  0  0  0
 24 26  1  0  0  0  0
 24 27  1  0  0  0  0
 25 24  1  0  0  0  0
 27 32  1  0  0  0  0
 28 29  1  0  0  0  0
 28 27  1  0  0  0  0
 29 30  1  0  0  0  0
 30 31  1  0  0  0  0
 32 31  1  0  0  0  0
M  END
>  <minimizedAffinity>
-4.73623705

$$$$

 OpenBabel03252508353D

 32 34  0  0  1  0  0  0  0  0999 V2000
   37.9200   31.2150   40.5110 N   0  0  0  0  0  0  0  0  0  0  0  0
   39.1230   30.7560   41.1680 C   0  0  1  0  0  0  0  0  0  0  0  0
   39.9590   31.8820   41.6900 C   0  0  0  0  0  0  0  0  0  0  0  0
   40.0430   33.0310   40.8920 N   0  0  0  0  0  0  0  0  0  0  0  0
   38.9780   33.3380   40.0480 C   0  0  0  0  0  0  0  0  0  0  0  0
   37.7050   32.6240   40.5090 C   0  0  0  0  0  0  0  0  0  0  0  0
   39.7170   30.1750   40.4510 H   0  0  0  0  0  0  0  0  0  0  0  0
   40.9850   31.4970   41.8690 H   0  0  0  0  0  0  0  0  0  0  0  0
   39.5620   32.1760   42.6930 H   0  0  0  0  0  0  0  0  0  0  0  0
   40.2680   33.8700   41.4920 H   0  0  0  0  0  0  0  0  0  0  0  0
   39.1890   32.9260   39.0340 H   0  0  0  0  0  0  0  0  0  0  0  0
   38.7660   34.4100   39.8850 H   0  0  0  0  0  0  0  0  0  0  0  0
   37.5030   32.9440   41.5520 H   0  0  0  0  0  0  0  0  0  0  0  0
   36.8420   32.8960   39.8580 H   0  0  0  0  0  0  0  0  0  0  0  0
   35.7820   30.1560   40.3970 C   0  0  0  0  0  0  0  0  0  0  0  0
   37.0860   30.2260   39.9440 C   0  0  0  0  0  0  0  0  0  0  0  0
   37.4780   29.3020   38.9470 C   0  0  0  0  0  0  0  0  0  0  0  0
   36.5810   28.4010   38.4830 N   0  0  0  0  0  0  0  0  0  0  0  0
   35.3260   28.3690   38.9530 C   0  0  0  0  0  0  0  0  0  0  0  0
   34.9340   29.2260   39.8890 N   0  0  0  0  0  0  0  0  0  0  0  0
   35.4170   30.8320   41.1580 H   0  0  0  0  0  0  0  0  0  0  0  0
   38.5070   29.4140   38.6390 H   0  0  0  0  0  0  0  0  0  0  0  0
   34.7000   27.6060   38.5080 H   0  0  0  0  0  0  0  0  0  0  0  0
   38.7000   29.9370   42.3610 C   0  0  0  0  0  0  0  0  0  0  0  0
   37.5920   30.0180   42.5220 H   0  0  0  0  0  0  0  0  0  0  0  0
   39.2060   30.3710   43.2540 H   0  0  0  0  0  0  0  0  0  0  0  0
   39.0850   28.4990   42.3060 C   0  0  0  0  0  3  0  0  0  0  0  0
   40.5650   28.3880   42.5650 C   0  0  0  0  0  2  0  0  0  0  0  0
   40.9670   27.3780   43.5730 C   0  0  0  0  0  2  0  0  0  0  0  0
   40.1750   26.1260   43.6440 C   0  0  0  0  0  2  0  0  0  0  0  0
   38.7940   26.2220   43.0650 C   0  0  0  0  0  2  0  0  0  0  0  0
   38.3120   27.6410   43.2860 C   0  0  0  0  0  2  0  0  0  0  0  0
  1  2  1  0  0  0  0
  2  7  1  6  0  0  0
  2  3  1  0  0  0  0
  2 24  1  0  0  0  0
  3  8  1  0  0  0  0
  3  9  1  0  0  0  0
  4 10  1  0  0  0  0
  4  3  1  0  0  0  0
  5  6  1  0  0  0  0
  5  4  1  0  0  0  0
  6  1  1  0  0  0  0
  6 13  1  0  0  0  0
 11  5  1  0  0  0  0
 12  5  1  0  0  0  0
 14  6  1  0  0  0  0
 15 21  1  0  0  0  0
 16 15  1  0  0  0  0
 16  1  1  0  0  0  0
 17 16  2  0  0  0  0
 18 17  1  0  0  0  0
 18 19  2  0  0  0  0
 19 20  1  0  0  0  0
 20 15  2  0  0  0  0
 22 17  1  0  0  0  0
 23 19  1  0  0  0  0
 24 25  1  0  0  0  0
 24 26  1  0  0  0  0
 27 24  1  0  0  0  0
 27 28  1  0  0  0  0
 27 32  1  0  0  0  0
 28 29  1  0  0  0  0
 29 30  1  0  0  0  0
 31 32  1  0  0  0  0
 31 30  1  0  0  0  0
M  END
>  <minimizedAffinity>
-4.72797251

$$$$

 OpenBabel03252508353D

 32 34  0  0  1  0  0  0  0  0999 V2000
   37.8950   30.1860   40.1580 N   0  0  0  0  0  0  0  0  0  0  0  0
   37.1490   29.8140   41.3380 C   0  0  1  0  0  0  0  0  0  0  0  0
   36.4450   28.5030   41.1850 C   0  0  0  0  0  0  0  0  0  0  0  0
   35.8730   28.2330   39.9340 N   0  0  0  0  0  0  0  0  0  0  0  0
   36.4400   28.8120   38.8020 C   0  0  0  0  0  0  0  0  0  0  0  0
   37.8800   29.2470   39.0850 C   0  0  0  0  0  0  0  0  0  0  0  0
   36.4060   30.5950   41.5460 H   0  0  0  0  0  0  0  0  0  0  0  0
   35.6520   28.4440   41.9600 H   0  0  0  0  0  0  0  0  0  0  0  0
   37.1690   27.6860   41.4260 H   0  0  0  0  0  0  0  0  0  0  0  0
   35.7930   27.1900   39.7920 H   0  0  0  0  0  0  0  0  0  0  0  0
   35.8960   29.7560   38.5650 H   0  0  0  0  0  0  0  0  0  0  0  0
   36.4070   28.2190   37.8700 H   0  0  0  0  0  0  0  0  0  0  0  0
   38.4430   28.3460   39.4060 H   0  0  0  0  0  0  0  0  0  0  0  0
   38.3510   29.6770   38.1700 H   0  0  0  0  0  0  0  0  0  0  0  0
   39.9190   31.4350   39.9390 C   0  0  0  0  0  0  0  0  0  0  0  0
   38.5590   31.4320   40.1880 C   0  0  0  0  0  0  0  0  0  0  0  0
   37.9440   32.6770   40.4530 C   0  0  0  0  0  0  0  0  0  0  0  0
   38.6930   33.8050   40.4530 N   0  0  0  0  0  0  0  0  0  0  0  0
   40.0100   33.7610   40.2060 C   0  0  0  0  0  0  0  0  0  0  0  0
   40.6110   32.6040   39.9540 N   0  0  0  0  0  0  0  0  0  0  0  0
   40.4520   30.5190   39.7300 H   0  0  0  0  0  0  0  0  0  0  0  0
   36.8820   32.6020   40.6380 H   0  0  0  0  0  0  0  0  0  0  0  0
   40.5030   34.7240   40.2330 H   0  0  0  0  0  0  0  0  0  0  0  0
   38.1400   29.6490   42.4630 C   0  0  0  0  0  0  0  0  0  0  0  0
   37.6280   29.7550   43.4570 H   0  0  0  0  0  0  0  0  0  0  0  0
   38.8820   30.4750   42.3720 H   0  0  0  0  0  0  0  0  0  0  0  0
   38.9120   28.3760   42.4400 C   0  0  0  0  0  3  0  0  0  0  0  0
   40.3790   28.7050   42.3480 C   0  0  0  0  0  2  0  0  0  0  0  0
   41.2570   28.0020   43.3130 C   0  0  0  0  0  2  0  0  0  0  0  0
   40.9020   26.6080   43.6760 C   0  0  0  0  0  2  0  0  0  0  0  0
   39.4660   26.2440   43.4360 C   0  0  0  0  0  2  0  0  0  0  0  0
   38.6430   27.4980   43.6440 C   0  0  0  0  0  2  0  0  0  0  0  0
  1 16  1  0  0  0  0
  1  2  1  0  0  0  0
  2  7  1  1  0  0  0
  2 24  1  0  0  0  0
  3  2  1  0  0  0  0
  3  9  1  0  0  0  0
  3  8  1  0  0  0  0
  4  3  1  0  0  0  0
  5  6  1  0  0  0  0
  5  4  1  0  0  0  0
  6 13  1  0  0  0  0
  6  1  1  0  0  0  0
 10  4  1  0  0  0  0
 11  5  1  0  0  0  0
 12  5  1  0  0  0  0
 14  6  1  0  0  0  0
 15 20  2  0  0  0  0
 15 16  1  0  0  0  0
 16 17  2  0  0  0  0
 17 18  1  0  0  0  0
 17 22  1  0  0  0  0
 19 23  1  0  0  0  0
 19 18  2  0  0  0  0
 20 19  1  0  0  0  0
 21 15  1  0  0  0  0
 24 25  1  0  0  0  0
 26 24  1  0  0  0  0
 27 24  1  0  0  0  0
 27 32  1  0  0  0  0
 28 27  1  0  0  0  0
 28 29  1  0  0  0  0
 29 30  1  0  0  0  0
 31 32  1  0  0  0  0
 31 30  1  0  0  0  0
M  END
>  <minimizedAffinity>
-4.726089

$$$$

 OpenBabel03252508353D

 32 34  0  0  1  0  0  0  0  0999 V2000
   37.8150   27.1690   41.5590 N   0  0  0  0  0  0  0  0  0  0  0  0
   36.6720   27.8460   40.9910 C   0  0  1  0  0  0  0  0  0  0  0  0
   36.5630   29.2690   41.4420 C   0  0  0  0  0  0  0  0  0  0  0  0
   36.8880   29.5370   42.7780 N   0  0  0  0  0  0  0  0  0  0  0  0
   37.8090   28.7120   43.4200 C   0  0  0  0  0  0  0  0  0  0  0  0
   38.6600   27.9580   42.3950 C   0  0  0  0  0  0  0  0  0  0  0  0
   35.7620   27.3080   41.2860 H   0  0  0  0  0  0  0  0  0  0  0  0
   35.5240   29.6130   41.2520 H   0  0  0  0  0  0  0  0  0  0  0  0
   37.2170   29.8950   40.7860 H   0  0  0  0  0  0  0  0  0  0  0  0
   37.1890   30.5440   42.8800 H   0  0  0  0  0  0  0  0  0  0  0  0
   37.2580   27.9180   43.9770 H   0  0  0  0  0  0  0  0  0  0  0  0
   38.4650   29.1890   44.1700 H   0  0  0  0  0  0  0  0  0  0  0  0
   39.1650   28.7150   41.7600 H   0  0  0  0  0  0  0  0  0  0  0  0
   39.4230   27.3240   42.9040 H   0  0  0  0  0  0  0  0  0  0  0  0
   39.1760   25.4310   40.6460 C   0  0  0  0  0  0  0  0  0  0  0  0
   37.9790   25.8060   41.2290 C   0  0  0  0  0  0  0  0  0  0  0  0
   37.0170   24.7930   41.4470 C   0  0  0  0  0  0  0  0  0  0  0  0
   37.2960   23.5190   41.0840 N   0  0  0  0  0  0  0  0  0  0  0  0
   38.4710   23.2000   40.5220 C   0  0  0  0  0  0  0  0  0  0  0  0
   39.3910   24.1340   40.3070 N   0  0  0  0  0  0  0  0  0  0  0  0
   39.9550   26.1550   40.4520 H   0  0  0  0  0  0  0  0  0  0  0  0
   36.1080   25.1550   41.9040 H   0  0  0  0  0  0  0  0  0  0  0  0
   38.5810   22.1530   40.2750 H   0  0  0  0  0  0  0  0  0  0  0  0
   36.8630   27.8750   39.4960 C   0  0  0  0  0  0  0  0  0  0  0  0
   37.0130   26.8360   39.0980 H   0  0  0  0  0  0  0  0  0  0  0  0
   37.7930   28.4550   39.2940 H   0  0  0  0  0  0  0  0  0  0  0  0
   35.7690   28.5400   38.7340 C   0  0  0  0  0  3  0  0  0  0  0  0
   36.3860   29.4580   37.7120 C   0  0  0  0  0  2  0  0  0  0  0  0
   35.8520   29.3360   36.3340 C   0  0  0  0  0  2  0  0  0  0  0  0
   34.4090   29.0310   36.1810 C   0  0  0  0  0  2  0  0  0  0  0  0
   33.7710   28.3970   37.3820 C   0  0  0  0  0  2  0  0  0  0  0  0
   34.8310   27.5580   38.0640 C   0  0  0  0  0  2  0  0  0  0  0  0
  1  6  1  0  0  0  0
  2  7  1  1  0  0  0
  2  3  1  0  0  0  0
  2  1  1  0  0  0  0
  3  4  1  0  0  0  0
  4 10  1  0  0  0  0
  4  5  1  0  0  0  0
  5 11  1  0  0  0  0
  5 12  1  0  0  0  0
  6 14  1  0  0  0  0
  6  5  1  0  0  0  0
  8  3  1  0  0  0  0
  9  3  1  0  0  0  0
 13  6  1  0  0  0  0
 15 16  1  0  0  0  0
 16 17  2  0  0  0  0
 16  1  1  0  0  0  0
 17 22  1  0  0  0  0
 18 17  1  0  0  0  0
 19 18  2  0  0  0  0
 20 19  1  0  0  0  0
 20 15  2  0  0  0  0
 21 15  1  0  0  0  0
 23 19  1  0  0  0  0
 24  2  1  0  0  0  0
 25 24  1  0  0  0  0
 26 24  1  0  0  0  0
 27 24  1  0  0  0  0
 28 27  1  0  0  0  0
 29 28  1  0  0  0  0
 30 29  1  0  0  0  0
 30 31  1  0  0  0  0
 31 32  1  0  0  0  0
 32 27  1  0  0  0  0
M  END
>  <minimizedAffinity>
-4.69628191

$$$$
