
 OpenBabel03242517103D

 44 47  0  0  1  0  0  0  0  0999 V2000
   46.0540   33.7980   43.2700 C   0  0  2  0  0  0  0  0  0  0  0  0
   45.1960   34.8440   42.6500 C   0  0  2  0  0  0  0  0  0  0  0  0
   45.0410   36.0500   43.5020 C   0  0  0  0  0  0  0  0  0  0  0  0
   44.6020   35.7590   44.9170 C   0  0  0  0  0  0  0  0  0  0  0  0
   45.1610   34.4860   45.4800 C   0  0  0  0  0  0  0  0  0  0  0  0
   46.3910   34.0300   44.7170 C   0  0  0  0  0  0  0  0  0  0  0  0
   45.5080   32.8090   43.2130 H   0  0  0  0  0  0  0  0  0  0  0  0
   45.6790   35.1700   41.7060 H   0  0  0  0  0  0  0  0  0  0  0  0
   44.2550   36.6980   43.0500 H   0  0  0  0  0  0  0  0  0  0  0  0
   45.9600   36.6950   43.4840 H   0  0  0  0  0  0  0  0  0  0  0  0
   44.8840   36.6190   45.5580 H   0  0  0  0  0  0  0  0  0  0  0  0
   43.4920   35.6780   44.9920 H   0  0  0  0  0  0  0  0  0  0  0  0
   45.4930   34.6190   46.5410 H   0  0  0  0  0  0  0  0  0  0  0  0
   44.4090   33.6760   45.4830 H   0  0  0  0  0  0  0  0  0  0  0  0
   46.6760   33.0310   45.1660 H   0  0  0  0  0  0  0  0  0  0  0  0
   47.1660   34.7650   44.9230 H   0  0  0  0  0  0  0  0  0  0  0  0
   42.8870   35.2270   41.6960 C   0  0  1  0  0  0  0  0  0  0  0  0
   43.8500   34.2630   42.2810 C   0  0  1  0  0  0  0  0  0  0  0  0
   44.0590   33.2350   41.3690 O   0  0  0  0  0  0  0  0  0  0  0  0
   43.6750   33.6830   40.1170 C   0  0  0  0  0  0  0  0  0  0  0  0
   42.4100   34.4560   40.4580 C   0  0  2  0  0  0  0  0  0  0  0  0
   43.4120   36.1440   41.3920 H   0  0  0  0  0  0  0  0  0  0  0  0
   43.4220   33.7730   43.1880 H   0  0  0  0  0  0  0  0  0  0  0  0
   44.4110   34.3890   39.6870 H   0  0  0  0  0  0  0  0  0  0  0  0
   43.4940   32.8320   39.4530 H   0  0  0  0  0  0  0  0  0  0  0  0
   41.5820   33.7810   40.7160 H   0  0  0  0  0  0  0  0  0  0  0  0
   41.7920   35.4850   42.4920 O   0  0  0  0  0  0  0  0  0  0  0  0
   41.8600   36.4040   42.8740 H   0  0  0  0  0  0  0  0  0  0  0  0
   42.0650   35.3540   39.4590 O   0  0  0  0  0  0  0  0  0  0  0  0
   40.8290   34.9860   38.9370 C   0  0  0  0  0  0  0  0  0  0  0  0
   40.8800   33.4930   38.6680 C   0  0  0  0  0  0  0  0  0  0  0  0
   39.7340   33.1810   37.7110 C   0  0  0  0  0  0  0  0  0  0  0  0
   38.5920   34.1120   38.0610 C   0  0  0  0  0  0  0  0  0  0  0  0
   38.5520   34.3630   39.5560 C   0  0  0  0  0  0  0  0  0  0  0  0
   39.7200   35.2230   39.9550 C   0  0  0  0  0  0  0  0  0  0  0  0
   47.3110   33.5840   42.5270 C   0  0  0  0  0  0  0  0  0  0  0  0
   48.3880   34.3590   42.9590 C   0  0  0  0  0  0  0  0  0  0  0  0
   49.6400   34.2450   42.3370 C   0  0  0  0  0  0  0  0  0  0  0  0
   49.7070   33.3280   41.2930 N   0  0  0  0  0  0  0  0  0  0  0  0
   48.6390   32.5970   40.9050 C   0  0  0  0  0  0  0  0  0  0  0  0
   47.4280   32.7160   41.5170 N   0  0  0  0  0  0  0  0  0  0  0  0
   48.4890   35.1040   43.7310 H   0  0  0  0  0  0  0  0  0  0  0  0
   50.5380   34.7630   42.5560 H   0  0  0  0  0  0  0  0  0  0  0  0
   48.8300   31.9240   40.0820 H   0  0  0  0  0  0  0  0  0  0  0  0
  1  7  1  6  0  0  0
  1  6  1  0  0  0  0
  2  8  1  6  0  0  0
  2  1  1  0  0  0  0
  2  3  1  0  0  0  0
  3  4  1  0  0  0  0
  4 12  1  0  0  0  0
  4  5  1  0  0  0  0
  4 11  1  0  0  0  0
  5 14  1  0  0  0  0
  5 13  1  0  0  0  0
  6 16  1  0  0  0  0
  6 15  1  0  0  0  0
  6  5  1  0  0  0  0
  9  3  1  0  0  0  0
 10  3  1  0  0  0  0
 17 22  1  6  0  0  0
 17 18  1  0  0  0  0
 17 27  1  0  0  0  0
 18  2  1  0  0  0  0
 18 23  1  1  0  0  0
 19 18  1  0  0  0  0
 20 21  1  0  0  0  0
 20 19  1  0  0  0  0
 21 26  1  1  0  0  0
 21 17  1  0  0  0  0
 24 20  1  0  0  0  0
 25 20  1  0  0  0  0
 27 28  1  0  0  0  0
 29 21  1  0  0  0  0
 30 29  1  0  0  0  0
 30 35  1  0  0  0  0
 31 30  1  0  0  0  0
 32 33  1  0  0  0  0
 32 31  1  0  0  0  0
 33 34  1  0  0  0  0
 34 35  1  0  0  0  0
 36 37  1  0  0  0  0
 36  1  1  0  0  0  0
 37 42  1  0  0  0  0
 38 43  1  0  0  0  0
 38 37  2  0  0  0  0
 39 38  1  0  0  0  0
 40 39  2  0  0  0  0
 40 41  1  0  0  0  0
 41 36  2  0  0  0  0
 44 40  1  0  0  0  0
M  END
>  <minimizedAffinity>
-6.95891094

>  <minimizedRMSD>
0.682048559

$$$$
