
 OpenBabel03242518553D

 39 41  0  0  1  0  0  0  0  0999 V2000
   45.8920   31.3100   46.2860 C   0  0  2  0  0  0  0  0  0  0  0  0
   45.3930   30.6700   47.5420 C   0  0  0  0  0  0  0  0  0  0  0  0
   44.8540   29.3360   47.1630 C   0  0  0  0  0  0  0  0  0  0  0  0
   44.8750   29.0210   45.7020 C   0  0  0  0  0  0  0  0  0  0  0  0
   46.2610   29.1920   45.1440 C   0  0  0  0  0  0  0  0  0  0  0  0
   46.9140   30.3950   45.6400 C   0  0  2  0  0  0  0  0  0  0  0  0
   45.0660   31.3520   45.5460 H   0  0  0  0  0  0  0  0  0  0  0  0
   46.1450   30.6520   48.3560 H   0  0  0  0  0  0  0  0  0  0  0  0
   44.5850   31.3520   47.9530 H   0  0  0  0  0  0  0  0  0  0  0  0
   43.7540   29.3430   47.4370 H   0  0  0  0  0  0  0  0  0  0  0  0
   45.2380   28.4780   47.7630 H   0  0  0  0  0  0  0  0  0  0  0  0
   44.1100   29.5980   45.1340 H   0  0  0  0  0  0  0  0  0  0  0  0
   44.5520   27.9610   45.6060 H   0  0  0  0  0  0  0  0  0  0  0  0
   46.1120   29.2790   44.0240 H   0  0  0  0  0  0  0  0  0  0  0  0
   46.7650   28.2180   45.2630 H   0  0  0  0  0  0  0  0  0  0  0  0
   47.3430   30.9810   44.8080 H   0  0  0  0  0  0  0  0  0  0  0  0
   47.9140   29.9500   46.6430 C   0  0  0  0  0  0  0  0  0  0  0  0
   47.4510   29.9110   47.6490 H   0  0  0  0  0  0  0  0  0  0  0  0
   48.7460   30.7130   46.6230 H   0  0  0  0  0  0  0  0  0  0  0  0
   48.5620   28.6240   46.4350 C   0  0  0  0  0  3  0  0  0  0  0  0
   50.0210   28.7180   46.0690 C   0  0  0  0  0  2  0  0  0  0  0  0
   50.9040   28.0040   47.0760 C   0  0  0  0  0  2  0  0  0  0  0  0
   50.4340   26.5690   47.1650 C   0  0  0  0  0  2  0  0  0  0  0  0
   49.0850   26.5940   47.8170 C   0  0  0  0  0  2  0  0  0  0  0  0
   48.3890   27.9030   47.7800 C   0  0  0  0  0  2  0  0  0  0  0  0
   46.4060   32.6900   46.4810 C   0  0  0  0  0  0  0  0  0  0  0  0
   47.1320   33.0280   47.4450 O   0  0  0  0  0  0  0  0  0  0  0  0
   44.6840   35.4450   44.8060 C   0  0  0  0  0  0  0  0  0  0  0  0
   45.3040   35.5300   43.5350 C   0  0  0  0  0  0  0  0  0  0  0  0
   46.3190   34.6240   43.2890 C   0  0  0  0  0  0  0  0  0  0  0  0
   46.5890   33.7790   44.2860 N   0  0  0  0  0  0  0  0  0  0  0  0
   46.0200   33.6920   45.4680 C   0  0  0  0  0  0  0  0  0  0  0  0
   45.0320   34.5600   45.7310 N   0  0  0  0  0  0  0  0  0  0  0  0
   43.8710   36.1540   45.0340 H   0  0  0  0  0  0  0  0  0  0  0  0
   44.9830   36.2710   42.8140 H   0  0  0  0  0  0  0  0  0  0  0  0
   46.9580   34.6950   41.9850 C   0  0  0  0  0  0  0  0  0  0  0  0
   47.7520   33.5680   41.7890 F   0  0  0  0  0  0  0  0  0  0  0  0
   47.7530   35.7940   41.9900 F   0  0  0  0  0  0  0  0  0  0  0  0
   46.0370   34.6830   40.9430 F   0  0  0  0  0  0  0  0  0  0  0  0
  1  7  1  6  0  0  0
  1 26  1  0  0  0  0
  1  2  1  0  0  0  0
  2  9  1  0  0  0  0
  2  8  1  0  0  0  0
  3 10  1  0  0  0  0
  3  2  1  0  0  0  0
  3 11  1  0  0  0  0
  4  3  1  0  0  0  0
  5 15  1  0  0  0  0
  5  6  1  0  0  0  0
  5  4  1  0  0  0  0
  6 16  1  6  0  0  0
  6  1  1  0  0  0  0
  6 17  1  0  0  0  0
 12  4  1  0  0  0  0
 13  4  1  0  0  0  0
 14  5  1  0  0  0  0
 17 18  1  0  0  0  0
 19 17  1  0  0  0  0
 20 17  1  0  0  0  0
 20 25  1  0  0  0  0
 21 20  1  0  0  0  0
 21 22  1  0  0  0  0
 22 23  1  0  0  0  0
 23 24  1  0  0  0  0
 25 24  1  0  0  0  0
 26 27  2  0  0  0  0
 28 34  1  0  0  0  0
 28 33  1  0  0  0  0
 29 28  2  0  0  0  0
 30 29  1  0  0  0  0
 30 31  2  0  0  0  0
 31 32  1  0  0  0  0
 32 33  2  0  0  0  0
 32 26  1  0  0  0  0
 35 29  1  0  0  0  0
 36 38  1  0  0  0  0
 36 30  1  0  0  0  0
 37 36  1  0  0  0  0
 39 36  1  0  0  0  0
M  END
>  <minimizedAffinity>
-5.22162724

>  <minimizedRMSD>
0.733484566

$$$$
