
 OpenBabel03252501573D

 28 30  0  0  0  0  0  0  0  0999 V2000
   39.7940   31.9520   40.7680 C   0  0  0  0  0  0  0  0  0  0  0  0
   38.8220   31.0020   40.4090 C   0  0  0  0  0  0  0  0  0  0  0  0
   37.6050   31.5360   39.9780 C   0  0  0  0  0  0  0  0  0  0  0  0
   37.4320   32.8810   39.9310 N   0  0  0  0  0  0  0  0  0  0  0  0
   38.4140   33.7440   40.2930 C   0  0  0  0  0  0  0  0  0  0  0  0
   39.6130   33.2710   40.7180 N   0  0  0  0  0  0  0  0  0  0  0  0
   40.7830   31.6930   41.1040 H   0  0  0  0  0  0  0  0  0  0  0  0
   38.1520   34.7900   40.2080 H   0  0  0  0  0  0  0  0  0  0  0  0
   36.5430   30.6120   39.5890 C   0  0  0  0  0  0  0  0  0  0  0  0
   35.5690   30.0550   40.3720 C   0  0  0  0  0  0  0  0  0  0  0  0
   34.6550   29.1860   39.7880 C   0  0  0  0  0  0  0  0  0  0  0  0
   34.7110   28.8780   38.4560 C   0  0  0  0  0  0  0  0  0  0  0  0
   35.6870   29.4320   37.6550 C   0  0  0  0  0  0  0  0  0  0  0  0
   36.6050   30.3020   38.2220 C   0  0  0  0  0  0  0  0  0  0  0  0
   35.6020   30.3560   41.4050 H   0  0  0  0  0  0  0  0  0  0  0  0
   33.8950   28.7600   40.4370 H   0  0  0  0  0  0  0  0  0  0  0  0
   34.0250   28.2120   37.9750 H   0  0  0  0  0  0  0  0  0  0  0  0
   35.7390   29.1920   36.6000 H   0  0  0  0  0  0  0  0  0  0  0  0
   37.3540   30.7030   37.5230 H   0  0  0  0  0  0  0  0  0  0  0  0
   39.0990   29.5850   40.4870 C   0  0  0  0  0  0  0  0  0  0  0  0
   40.0700   29.4310   39.9100 H   0  0  0  0  0  0  0  0  0  0  0  0
   38.3600   29.0550   39.8130 H   0  0  0  0  0  0  0  0  0  0  0  0
   39.1860   28.9270   41.8050 C   0  0  0  0  0  3  0  0  0  0  0  0
   38.9140   27.4180   41.5470 C   0  0  0  0  0  2  0  0  0  0  0  0
   37.4040   27.1590   41.4970 C   0  0  0  0  0  2  0  0  0  0  0  0
   36.7930   27.3930   42.8710 C   0  0  0  0  0  2  0  0  0  0  0  0
   37.6770   28.3130   43.6800 C   0  0  0  0  0  2  0  0  0  0  0  0
   38.0720   29.4380   42.7150 C   0  0  0  0  0  2  0  0  0  0  0  0
  1  7  1  0  0  0  0
  2 20  1  0  0  0  0
  2  1  2  0  0  0  0
  3  2  1  0  0  0  0
  4  3  2  0  0  0  0
  4  5  1  0  0  0  0
  5  6  2  0  0  0  0
  6  1  1  0  0  0  0
  8  5  1  0  0  0  0
  9  3  1  0  0  0  0
  9 10  1  0  0  0  0
 10 15  1  0  0  0  0
 11 10  2  0  0  0  0
 11 16  1  0  0  0  0
 12 11  1  0  0  0  0
 13 14  1  0  0  0  0
 13 12  2  0  0  0  0
 14  9  2  0  0  0  0
 17 12  1  0  0  0  0
 18 13  1  0  0  0  0
 19 14  1  0  0  0  0
 20 23  1  0  0  0  0
 21 20  1  0  0  0  0
 22 20  1  0  0  0  0
 23 28  1  0  0  0  0
 24 23  1  0  0  0  0
 25 24  1  0  0  0  0
 25 26  1  0  0  0  0
 26 27  1  0  0  0  0
 28 27  1  0  0  0  0
M  END
>  <minimizedAffinity>
-5.61610079

$$$$

 OpenBabel03252501573D

 28 30  0  0  0  0  0  0  0  0999 V2000
   38.7470   28.9500   42.8160 C   0  0  0  0  0  0  0  0  0  0  0  0
   37.6960   28.6520   41.9310 C   0  0  0  0  0  0  0  0  0  0  0  0
   37.4070   29.6540   41.0010 C   0  0  0  0  0  0  0  0  0  0  0  0
   38.1210   30.8070   40.9990 N   0  0  0  0  0  0  0  0  0  0  0  0
   39.1250   31.0300   41.8840 C   0  0  0  0  0  0  0  0  0  0  0  0
   39.4420   30.0860   42.8060 N   0  0  0  0  0  0  0  0  0  0  0  0
   39.0930   28.2720   43.5770 H   0  0  0  0  0  0  0  0  0  0  0  0
   39.6190   31.9870   41.7770 H   0  0  0  0  0  0  0  0  0  0  0  0
   36.3260   29.4200   40.0470 C   0  0  0  0  0  0  0  0  0  0  0  0
   34.9910   29.2510   40.2970 C   0  0  0  0  0  0  0  0  0  0  0  0
   34.1310   29.0310   39.2270 C   0  0  0  0  0  0  0  0  0  0  0  0
   34.5920   28.9790   37.9380 C   0  0  0  0  0  0  0  0  0  0  0  0
   35.9330   29.1480   37.6730 C   0  0  0  0  0  0  0  0  0  0  0  0
   36.8030   29.3700   38.7290 C   0  0  0  0  0  0  0  0  0  0  0  0
   34.7220   29.3090   41.3370 H   0  0  0  0  0  0  0  0  0  0  0  0
   33.0790   28.8990   39.4590 H   0  0  0  0  0  0  0  0  0  0  0  0
   33.9580   28.8100   37.0930 H   0  0  0  0  0  0  0  0  0  0  0  0
   36.3050   29.1070   36.6560 H   0  0  0  0  0  0  0  0  0  0  0  0
   37.8580   29.4940   38.4410 H   0  0  0  0  0  0  0  0  0  0  0  0
   36.9930   27.3910   42.0040 C   0  0  0  0  0  0  0  0  0  0  0  0
   36.0690   27.5170   41.3480 H   0  0  0  0  0  0  0  0  0  0  0  0
   36.5230   27.3220   43.0310 H   0  0  0  0  0  0  0  0  0  0  0  0
   37.6940   26.1400   41.6530 C   0  0  0  0  0  3  0  0  0  0  0  0
   37.7620   26.1120   40.1000 C   0  0  0  0  0  2  0  0  0  0  0  0
   36.4520   25.5610   39.5270 C   0  0  0  0  0  2  0  0  0  0  0  0
   36.3050   24.0920   39.8950 C   0  0  0  0  0  2  0  0  0  0  0  0
   37.1320   23.7810   41.1210 C   0  0  0  0  0  2  0  0  0  0  0  0
   36.8620   24.9370   42.0900 C   0  0  0  0  0  2  0  0  0  0  0  0
  1  7  1  0  0  0  0
  2 20  1  0  0  0  0
  2  1  2  0  0  0  0
  3  2  1  0  0  0  0
  4  3  2  0  0  0  0
  4  5  1  0  0  0  0
  5  6  2  0  0  0  0
  6  1  1  0  0  0  0
  8  5  1  0  0  0  0
  9 10  1  0  0  0  0
  9  3  1  0  0  0  0
 10 15  1  0  0  0  0
 11 16  1  0  0  0  0
 11 10  2  0  0  0  0
 12 11  1  0  0  0  0
 13 12  2  0  0  0  0
 13 14  1  0  0  0  0
 14  9  2  0  0  0  0
 17 12  1  0  0  0  0
 18 13  1  0  0  0  0
 19 14  1  0  0  0  0
 20 22  1  0  0  0  0
 21 20  1  0  0  0  0
 23 20  1  0  0  0  0
 23 28  1  0  0  0  0
 24 23  1  0  0  0  0
 25 26  1  0  0  0  0
 25 24  1  0  0  0  0
 26 27  1  0  0  0  0
 27 28  1  0  0  0  0
M  END
>  <minimizedAffinity>
-5.21730661

$$$$

 OpenBabel03252501573D

 28 30  0  0  0  0  0  0  0  0999 V2000
   35.6610   26.8990   38.1050 C   0  0  0  0  0  0  0  0  0  0  0  0
   36.1730   27.4380   39.2990 C   0  0  0  0  0  0  0  0  0  0  0  0
   36.6720   26.4990   40.2040 C   0  0  0  0  0  0  0  0  0  0  0  0
   36.6370   25.1760   39.9000 N   0  0  0  0  0  0  0  0  0  0  0  0
   36.1280   24.7230   38.7280 C   0  0  0  0  0  0  0  0  0  0  0  0
   35.6320   25.5990   37.8170 N   0  0  0  0  0  0  0  0  0  0  0  0
   35.2560   27.4980   37.3080 H   0  0  0  0  0  0  0  0  0  0  0  0
   36.1610   23.6480   38.6050 H   0  0  0  0  0  0  0  0  0  0  0  0
   37.2200   26.9800   41.4690 C   0  0  0  0  0  0  0  0  0  0  0  0
   36.5470   27.4250   42.5750 C   0  0  0  0  0  0  0  0  0  0  0  0
   37.2780   27.8490   43.6790 C   0  0  0  0  0  0  0  0  0  0  0  0
   38.6470   27.8330   43.6800 C   0  0  0  0  0  0  0  0  0  0  0  0
   39.3370   27.3870   42.5730 C   0  0  0  0  0  0  0  0  0  0  0  0
   38.6220   26.9590   41.4650 C   0  0  0  0  0  0  0  0  0  0  0  0
   35.4750   27.4010   42.4840 H   0  0  0  0  0  0  0  0  0  0  0  0
   36.7150   28.1970   44.5390 H   0  0  0  0  0  0  0  0  0  0  0  0
   39.2390   28.1530   44.5110 H   0  0  0  0  0  0  0  0  0  0  0  0
   40.4200   27.3720   42.5660 H   0  0  0  0  0  0  0  0  0  0  0  0
   39.2400   26.6190   40.6190 H   0  0  0  0  0  0  0  0  0  0  0  0
   36.1720   28.8650   39.5340 C   0  0  0  0  0  0  0  0  0  0  0  0
   36.0020   28.9900   40.6540 H   0  0  0  0  0  0  0  0  0  0  0  0
   35.2040   29.2790   39.1190 H   0  0  0  0  0  0  0  0  0  0  0  0
   37.3270   29.6780   39.1060 C   0  0  0  0  0  3  0  0  0  0  0  0
   37.7810   30.4690   40.3650 C   0  0  0  0  0  2  0  0  0  0  0  0
   36.9280   31.7310   40.5280 C   0  0  0  0  0  2  0  0  0  0  0  0
   37.2140   32.6990   39.3890 C   0  0  0  0  0  2  0  0  0  0  0  0
   37.7680   31.9480   38.2000 C   0  0  0  0  0  2  0  0  0  0  0  0
   36.8840   30.7040   38.0650 C   0  0  0  0  0  2  0  0  0  0  0  0
  1  2  1  0  0  0  0
  2 20  1  0  0  0  0
  2  3  2  0  0  0  0
  3  9  1  0  0  0  0
  4  3  1  0  0  0  0
  5  4  2  0  0  0  0
  6  1  2  0  0  0  0
  6  5  1  0  0  0  0
  7  1  1  0  0  0  0
  8  5  1  0  0  0  0
  9 10  1  0  0  0  0
 10 11  2  0  0  0  0
 11 12  1  0  0  0  0
 11 16  1  0  0  0  0
 12 17  1  0  0  0  0
 13 12  2  0  0  0  0
 14  9  2  0  0  0  0
 14 13  1  0  0  0  0
 15 10  1  0  0  0  0
 18 13  1  0  0  0  0
 19 14  1  0  0  0  0
 20 21  1  0  0  0  0
 22 20  1  0  0  0  0
 23 20  1  0  0  0  0
 23 24  1  0  0  0  0
 24 25  1  0  0  0  0
 26 25  1  0  0  0  0
 27 26  1  0  0  0  0
 28 27  1  0  0  0  0
 28 23  1  0  0  0  0
M  END
>  <minimizedAffinity>
-5.13185501

$$$$

 OpenBabel03252501573D

 28 30  0  0  0  0  0  0  0  0999 V2000
   37.1930   31.0270   38.2600 C   0  0  0  0  0  0  0  0  0  0  0  0
   37.2470   29.9660   39.1820 C   0  0  0  0  0  0  0  0  0  0  0  0
   37.3430   30.3530   40.5210 C   0  0  0  0  0  0  0  0  0  0  0  0
   37.3770   31.6690   40.8480 N   0  0  0  0  0  0  0  0  0  0  0  0
   37.3210   32.6440   39.9070 C   0  0  0  0  0  0  0  0  0  0  0  0
   37.2280   32.3170   38.5920 N   0  0  0  0  0  0  0  0  0  0  0  0
   37.1050   30.8860   37.1970 H   0  0  0  0  0  0  0  0  0  0  0  0
   37.3540   33.6530   40.2960 H   0  0  0  0  0  0  0  0  0  0  0  0
   37.4050   29.3080   41.5400 C   0  0  0  0  0  0  0  0  0  0  0  0
   36.4000   28.4920   41.9850 C   0  0  0  0  0  0  0  0  0  0  0  0
   36.6830   27.5630   42.9800 C   0  0  0  0  0  0  0  0  0  0  0  0
   37.9370   27.4500   43.5180 C   0  0  0  0  0  0  0  0  0  0  0  0
   38.9570   28.2650   43.0780 C   0  0  0  0  0  0  0  0  0  0  0  0
   38.6920   29.1960   42.0860 C   0  0  0  0  0  0  0  0  0  0  0  0
   35.4500   28.6510   41.5050 H   0  0  0  0  0  0  0  0  0  0  0  0
   35.8640   26.9310   43.3120 H   0  0  0  0  0  0  0  0  0  0  0  0
   38.1880   26.7470   44.2840 H   0  0  0  0  0  0  0  0  0  0  0  0
   39.9520   28.1830   43.5000 H   0  0  0  0  0  0  0  0  0  0  0  0
   39.5530   29.8120   41.7870 H   0  0  0  0  0  0  0  0  0  0  0  0
   37.1990   28.5910   38.7400 C   0  0  0  0  0  0  0  0  0  0  0  0
   37.8020   28.0010   39.5080 H   0  0  0  0  0  0  0  0  0  0  0  0
   37.8640   28.5020   37.8280 H   0  0  0  0  0  0  0  0  0  0  0  0
   35.8940   27.9390   38.5150 C   0  0  0  0  0  3  0  0  0  0  0  0
   35.9130   27.4470   37.0400 C   0  0  0  0  0  2  0  0  0  0  0  0
   35.5240   28.5930   36.1000 C   0  0  0  0  0  2  0  0  0  0  0  0
   34.0670   28.9720   36.3210 C   0  0  0  0  0  2  0  0  0  0  0  0
   33.6280   28.5480   37.7040 C   0  0  0  0  0  2  0  0  0  0  0  0
   34.7720   28.9670   38.6330 C   0  0  0  0  0  2  0  0  0  0  0  0
  1  6  2  0  0  0  0
  1  2  1  0  0  0  0
  2  3  2  0  0  0  0
  3  4  1  0  0  0  0
  3  9  1  0  0  0  0
  5  8  1  0  0  0  0
  5  4  2  0  0  0  0
  6  5  1  0  0  0  0
  7  1  1  0  0  0  0
  9 10  2  0  0  0  0
  9 14  1  0  0  0  0
 10 11  1  0  0  0  0
 11 16  1  0  0  0  0
 11 12  2  0  0  0  0
 12 17  1  0  0  0  0
 13 18  1  0  0  0  0
 13 12  1  0  0  0  0
 14 13  2  0  0  0  0
 15 10  1  0  0  0  0
 19 14  1  0  0  0  0
 20  2  1  0  0  0  0
 20 21  1  0  0  0  0
 22 20  1  0  0  0  0
 23 28  1  0  0  0  0
 23 20  1  0  0  0  0
 24 23  1  0  0  0  0
 25 26  1  0  0  0  0
 25 24  1  0  0  0  0
 26 27  1  0  0  0  0
 27 28  1  0  0  0  0
M  END
>  <minimizedAffinity>
-5.04988575

$$$$

 OpenBabel03252501573D

 28 30  0  0  0  0  0  0  0  0999 V2000
   37.3680   24.4030   41.8990 C   0  0  0  0  0  0  0  0  0  0  0  0
   37.1520   25.7520   41.5640 C   0  0  0  0  0  0  0  0  0  0  0  0
   37.1710   26.0300   40.1950 C   0  0  0  0  0  0  0  0  0  0  0  0
   37.3870   25.0320   39.3020 N   0  0  0  0  0  0  0  0  0  0  0  0
   37.5880   23.7490   39.6940 C   0  0  0  0  0  0  0  0  0  0  0  0
   37.5780   23.4310   41.0130 N   0  0  0  0  0  0  0  0  0  0  0  0
   37.3670   24.0340   42.9110 H   0  0  0  0  0  0  0  0  0  0  0  0
   37.7450   23.0480   38.8850 H   0  0  0  0  0  0  0  0  0  0  0  0
   36.9570   27.4100   39.7670 C   0  0  0  0  0  0  0  0  0  0  0  0
   35.8150   28.1600   39.8510 C   0  0  0  0  0  0  0  0  0  0  0  0
   35.8330   29.4640   39.3680 C   0  0  0  0  0  0  0  0  0  0  0  0
   36.9620   30.0060   38.8140 C   0  0  0  0  0  0  0  0  0  0  0  0
   38.1180   29.2610   38.7240 C   0  0  0  0  0  0  0  0  0  0  0  0
   38.1170   27.9600   39.2020 C   0  0  0  0  0  0  0  0  0  0  0  0
   34.9800   27.6520   40.3010 H   0  0  0  0  0  0  0  0  0  0  0  0
   34.9110   30.0320   39.4480 H   0  0  0  0  0  0  0  0  0  0  0  0
   37.0090   31.0040   38.4330 H   0  0  0  0  0  0  0  0  0  0  0  0
   39.0150   29.6830   38.2860 H   0  0  0  0  0  0  0  0  0  0  0  0
   39.0740   27.4270   39.0950 H   0  0  0  0  0  0  0  0  0  0  0  0
   36.9260   26.7470   42.5880 C   0  0  0  0  0  0  0  0  0  0  0  0
   36.1580   26.2900   43.2960 H   0  0  0  0  0  0  0  0  0  0  0  0
   36.3220   27.5830   42.1230 H   0  0  0  0  0  0  0  0  0  0  0  0
   38.0680   27.2790   43.3580 C   0  0  0  0  0  3  0  0  0  0  0  0
   37.7130   28.7580   43.6800 C   0  0  0  0  0  2  0  0  0  0  0  0
   38.0730   29.6540   42.4900 C   0  0  0  0  0  2  0  0  0  0  0  0
   39.5840   29.6910   42.3090 C   0  0  0  0  0  2  0  0  0  0  0  0
   40.2080   28.4630   42.9300 C   0  0  0  0  0  2  0  0  0  0  0  0
   39.3210   27.2950   42.4860 C   0  0  0  0  0  2  0  0  0  0  0  0
  1  7  1  0  0  0  0
  2  1  1  0  0  0  0
  2 20  1  0  0  0  0
  3  2  2  0  0  0  0
  4  5  2  0  0  0  0
  4  3  1  0  0  0  0
  5  6  1  0  0  0  0
  6  1  2  0  0  0  0
  8  5  1  0  0  0  0
  9 10  1  0  0  0  0
  9  3  1  0  0  0  0
 10 15  1  0  0  0  0
 11 16  1  0  0  0  0
 11 10  2  0  0  0  0
 12 11  1  0  0  0  0
 13 12  2  0  0  0  0
 13 14  1  0  0  0  0
 14  9  2  0  0  0  0
 17 12  1  0  0  0  0
 18 13  1  0  0  0  0
 19 14  1  0  0  0  0
 20 21  1  0  0  0  0
 20 23  1  0  0  0  0
 22 20  1  0  0  0  0
 23 24  1  0  0  0  0
 25 24  1  0  0  0  0
 26 25  1  0  0  0  0
 26 27  1  0  0  0  0
 28 27  1  0  0  0  0
 28 23  1  0  0  0  0
M  END
>  <minimizedAffinity>
-5.00538826

$$$$

 OpenBabel03252501573D

 28 30  0  0  0  0  0  0  0  0999 V2000
   37.6870   29.2600   42.9220 C   0  0  0  0  0  0  0  0  0  0  0  0
   36.9910   29.4890   41.7210 C   0  0  0  0  0  0  0  0  0  0  0  0
   36.5530   28.3360   41.0640 C   0  0  0  0  0  0  0  0  0  0  0  0
   36.8090   27.1130   41.5940 N   0  0  0  0  0  0  0  0  0  0  0  0
   37.4870   26.9640   42.7590 C   0  0  0  0  0  0  0  0  0  0  0  0
   37.9320   28.0550   43.4330 N   0  0  0  0  0  0  0  0  0  0  0  0
   38.0720   30.0490   43.5450 H   0  0  0  0  0  0  0  0  0  0  0  0
   37.6230   25.9380   43.0750 H   0  0  0  0  0  0  0  0  0  0  0  0
   35.8240   28.4910   39.8080 C   0  0  0  0  0  0  0  0  0  0  0  0
   34.5580   28.9740   39.6120 C   0  0  0  0  0  0  0  0  0  0  0  0
   34.0540   29.0250   38.3170 C   0  0  0  0  0  0  0  0  0  0  0  0
   34.7930   28.6030   37.2450 C   0  0  0  0  0  0  0  0  0  0  0  0
   36.0680   28.1150   37.4290 C   0  0  0  0  0  0  0  0  0  0  0  0
   36.5860   28.0590   38.7130 C   0  0  0  0  0  0  0  0  0  0  0  0
   34.0540   29.2820   40.5120 H   0  0  0  0  0  0  0  0  0  0  0  0
   33.0470   29.4120   38.1960 H   0  0  0  0  0  0  0  0  0  0  0  0
   34.4350   28.6270   36.2370 H   0  0  0  0  0  0  0  0  0  0  0  0
   36.6590   27.7780   36.5850 H   0  0  0  0  0  0  0  0  0  0  0  0
   37.6080   27.6560   38.7820 H   0  0  0  0  0  0  0  0  0  0  0  0
   36.7610   30.8320   41.2360 C   0  0  0  0  0  0  0  0  0  0  0  0
   36.3140   31.4020   42.1150 H   0  0  0  0  0  0  0  0  0  0  0  0
   35.8780   30.7930   40.5300 H   0  0  0  0  0  0  0  0  0  0  0  0
   37.8780   31.6010   40.6520 C   0  0  0  0  0  3  0  0  0  0  0  0
   37.2500   32.4800   39.5340 C   0  0  0  0  0  2  0  0  0  0  0  0
   37.1110   31.6660   38.2430 C   0  0  0  0  0  2  0  0  0  0  0  0
   38.4890   31.3330   37.6900 C   0  0  0  0  0  2  0  0  0  0  0  0
   39.5160   31.3830   38.7980 C   0  0  0  0  0  2  0  0  0  0  0  0
   38.8660   30.6520   39.9790 C   0  0  0  0  0  2  0  0  0  0  0  0
  1  6  1  0  0  0  0
  1  7  1  0  0  0  0
  2  1  2  0  0  0  0
  3  4  2  0  0  0  0
  3  2  1  0  0  0  0
  4  5  1  0  0  0  0
  5  8  1  0  0  0  0
  5  6  2  0  0  0  0
  9  3  1  0  0  0  0
 10  9  1  0  0  0  0
 10 15  1  0  0  0  0
 11 10  2  0  0  0  0
 12 13  2  0  0  0  0
 12 11  1  0  0  0  0
 13 14  1  0  0  0  0
 14 19  1  0  0  0  0
 14  9  2  0  0  0  0
 16 11  1  0  0  0  0
 17 12  1  0  0  0  0
 18 13  1  0  0  0  0
 20  2  1  0  0  0  0
 20 21  1  0  0  0  0
 22 20  1  0  0  0  0
 23 20  1  0  0  0  0
 24 23  1  0  0  0  0
 25 24  1  0  0  0  0
 26 25  1  0  0  0  0
 26 27  1  0  0  0  0
 27 28  1  0  0  0  0
 28 23  1  0  0  0  0
M  END
>  <minimizedAffinity>
-4.99499035

$$$$

 OpenBabel03252501573D

 28 30  0  0  0  0  0  0  0  0999 V2000
   38.3480   32.7470   40.3430 C   0  0  0  0  0  0  0  0  0  0  0  0
   38.0170   31.5070   40.9190 C   0  0  0  0  0  0  0  0  0  0  0  0
   39.0880   30.8190   41.4950 C   0  0  0  0  0  0  0  0  0  0  0  0
   40.3330   31.3570   41.4710 N   0  0  0  0  0  0  0  0  0  0  0  0
   40.5830   32.5610   40.8970 C   0  0  0  0  0  0  0  0  0  0  0  0
   39.5740   33.2660   40.3250 N   0  0  0  0  0  0  0  0  0  0  0  0
   37.6270   33.3960   39.8750 H   0  0  0  0  0  0  0  0  0  0  0  0
   41.6160   32.8800   40.9470 H   0  0  0  0  0  0  0  0  0  0  0  0
   38.8250   29.5220   42.1120 C   0  0  0  0  0  0  0  0  0  0  0  0
   38.0950   29.2460   43.2370 C   0  0  0  0  0  0  0  0  0  0  0  0
   37.9820   27.9250   43.6550 C   0  0  0  0  0  0  0  0  0  0  0  0
   38.5830   26.9040   42.9690 C   0  0  0  0  0  0  0  0  0  0  0  0
   39.3200   27.1680   41.8350 C   0  0  0  0  0  0  0  0  0  0  0  0
   39.4420   28.4800   41.4050 C   0  0  0  0  0  0  0  0  0  0  0  0
   37.6590   30.1100   43.7080 H   0  0  0  0  0  0  0  0  0  0  0  0
   37.3970   27.7400   44.5500 H   0  0  0  0  0  0  0  0  0  0  0  0
   38.5170   25.8780   43.2640 H   0  0  0  0  0  0  0  0  0  0  0  0
   39.8000   26.3650   41.2880 H   0  0  0  0  0  0  0  0  0  0  0  0
   40.0460   28.6140   40.4950 H   0  0  0  0  0  0  0  0  0  0  0  0
   36.6570   31.0150   40.9010 C   0  0  0  0  0  0  0  0  0  0  0  0
   36.0120   31.8850   41.2580 H   0  0  0  0  0  0  0  0  0  0  0  0
   36.5440   30.2930   41.7640 H   0  0  0  0  0  0  0  0  0  0  0  0
   36.0990   30.4510   39.6570 C   0  0  0  0  0  3  0  0  0  0  0  0
   35.1610   29.2920   40.0980 C   0  0  0  0  0  2  0  0  0  0  0  0
   35.9780   28.0170   40.3320 C   0  0  0  0  0  2  0  0  0  0  0  0
   36.5490   27.5180   39.0120 C   0  0  0  0  0  2  0  0  0  0  0  0
   36.6350   28.6580   38.0240 C   0  0  0  0  0  2  0  0  0  0  0  0
   37.2150   29.8340   38.8190 C   0  0  0  0  0  2  0  0  0  0  0  0
  1  2  1  0  0  0  0
  2  3  2  0  0  0  0
  3  9  1  0  0  0  0
  4  3  1  0  0  0  0
  5  8  1  0  0  0  0
  5  4  2  0  0  0  0
  6  1  2  0  0  0  0
  6  5  1  0  0  0  0
  7  1  1  0  0  0  0
  9 10  1  0  0  0  0
 10 11  2  0  0  0  0
 10 15  1  0  0  0  0
 11 16  1  0  0  0  0
 12 17  1  0  0  0  0
 12 11  1  0  0  0  0
 13 12  2  0  0  0  0
 14 13  1  0  0  0  0
 14  9  2  0  0  0  0
 18 13  1  0  0  0  0
 19 14  1  0  0  0  0
 20  2  1  0  0  0  0
 20 21  1  0  0  0  0
 20 22  1  0  0  0  0
 23 24  1  0  0  0  0
 23 20  1  0  0  0  0
 24 25  1  0  0  0  0
 26 25  1  0  0  0  0
 27 28  1  0  0  0  0
 27 26  1  0  0  0  0
 28 23  1  0  0  0  0
M  END
>  <minimizedAffinity>
-4.9622159

$$$$

 OpenBabel03252501573D

 28 30  0  0  0  0  0  0  0  0999 V2000
   35.5960   28.4370   38.1120 C   0  0  0  0  0  0  0  0  0  0  0  0
   36.1680   28.5900   39.3870 C   0  0  0  0  0  0  0  0  0  0  0  0
   36.5630   27.4010   40.0040 C   0  0  0  0  0  0  0  0  0  0  0  0
   36.3830   26.2140   39.3700 N   0  0  0  0  0  0  0  0  0  0  0  0
   35.8230   26.1370   38.1380 C   0  0  0  0  0  0  0  0  0  0  0  0
   35.4230   27.2670   37.4990 N   0  0  0  0  0  0  0  0  0  0  0  0
   35.2570   29.2620   37.5090 H   0  0  0  0  0  0  0  0  0  0  0  0
   35.7370   25.1340   37.7410 H   0  0  0  0  0  0  0  0  0  0  0  0
   37.1650   27.4770   41.3320 C   0  0  0  0  0  0  0  0  0  0  0  0
   36.5610   27.7680   42.5250 C   0  0  0  0  0  0  0  0  0  0  0  0
   37.3360   27.7940   43.6800 C   0  0  0  0  0  0  0  0  0  0  0  0
   38.6800   27.5380   43.6450 C   0  0  0  0  0  0  0  0  0  0  0  0
   39.3000   27.2440   42.4500 C   0  0  0  0  0  0  0  0  0  0  0  0
   38.5420   27.2120   41.2900 C   0  0  0  0  0  0  0  0  0  0  0  0
   35.5030   27.9530   42.4560 H   0  0  0  0  0  0  0  0  0  0  0  0
   36.8270   28.0290   44.6100 H   0  0  0  0  0  0  0  0  0  0  0  0
   39.3050   27.5510   44.5130 H   0  0  0  0  0  0  0  0  0  0  0  0
   40.3640   27.0410   42.4140 H   0  0  0  0  0  0  0  0  0  0  0  0
   39.1050   26.9720   40.3760 H   0  0  0  0  0  0  0  0  0  0  0  0
   36.3250   29.8990   39.9820 C   0  0  0  0  0  0  0  0  0  0  0  0
   36.6600   29.7090   41.0550 H   0  0  0  0  0  0  0  0  0  0  0  0
   35.2900   30.3240   40.1500 H   0  0  0  0  0  0  0  0  0  0  0  0
   37.2120   30.8920   39.3440 C   0  0  0  0  0  3  0  0  0  0  0  0
   38.6600   30.4780   39.7310 C   0  0  0  0  0  2  0  0  0  0  0  0
   39.0100   31.0280   41.1180 C   0  0  0  0  0  2  0  0  0  0  0  0
   39.0840   32.5480   41.0690 C   0  0  0  0  0  2  0  0  0  0  0  0
   38.2730   33.0660   39.9040 C   0  0  0  0  0  2  0  0  0  0  0  0
   36.9620   32.2730   39.9440 C   0  0  0  0  0  2  0  0  0  0  0  0
  1  2  1  0  0  0  0
  2 20  1  0  0  0  0
  2  3  2  0  0  0  0
  3  9  1  0  0  0  0
  4  3  1  0  0  0  0
  5  4  2  0  0  0  0
  6  1  2  0  0  0  0
  6  5  1  0  0  0  0
  7  1  1  0  0  0  0
  8  5  1  0  0  0  0
  9 10  1  0  0  0  0
 10 11  2  0  0  0  0
 11 16  1  0  0  0  0
 12 11  1  0  0  0  0
 12 17  1  0  0  0  0
 13 12  2  0  0  0  0
 14  9  2  0  0  0  0
 14 13  1  0  0  0  0
 15 10  1  0  0  0  0
 18 13  1  0  0  0  0
 19 14  1  0  0  0  0
 20 22  1  0  0  0  0
 20 21  1  0  0  0  0
 23 24  1  0  0  0  0
 23 28  1  0  0  0  0
 23 20  1  0  0  0  0
 24 25  1  0  0  0  0
 26 25  1  0  0  0  0
 27 28  1  0  0  0  0
 27 26  1  0  0  0  0
M  END
>  <minimizedAffinity>
-4.91380882

$$$$

 OpenBabel03252501573D

 28 30  0  0  0  0  0  0  0  0999 V2000
   37.2870   32.5390   40.0250 C   0  0  0  0  0  0  0  0  0  0  0  0
   37.2510   31.2050   40.4690 C   0  0  0  0  0  0  0  0  0  0  0  0
   38.3600   30.8010   41.2150 C   0  0  0  0  0  0  0  0  0  0  0  0
   39.3680   31.6750   41.4620 N   0  0  0  0  0  0  0  0  0  0  0  0
   39.3390   32.9510   41.0030 C   0  0  0  0  0  0  0  0  0  0  0  0
   38.2820   33.3890   40.2730 N   0  0  0  0  0  0  0  0  0  0  0  0
   36.4980   32.9960   39.4520 H   0  0  0  0  0  0  0  0  0  0  0  0
   40.2020   33.5480   41.2690 H   0  0  0  0  0  0  0  0  0  0  0  0
   38.3980   29.4280   41.7110 C   0  0  0  0  0  0  0  0  0  0  0  0
   38.9840   28.3320   41.1390 C   0  0  0  0  0  0  0  0  0  0  0  0
   38.8890   27.1060   41.7880 C   0  0  0  0  0  0  0  0  0  0  0  0
   38.2250   26.9760   42.9780 C   0  0  0  0  0  0  0  0  0  0  0  0
   37.6310   28.0720   43.5650 C   0  0  0  0  0  0  0  0  0  0  0  0
   37.7180   29.3010   42.9310 C   0  0  0  0  0  0  0  0  0  0  0  0
   39.4840   28.5290   40.2060 H   0  0  0  0  0  0  0  0  0  0  0  0
   39.3640   26.2550   41.3070 H   0  0  0  0  0  0  0  0  0  0  0  0
   38.1320   26.0480   43.5020 H   0  0  0  0  0  0  0  0  0  0  0  0
   37.1020   27.9770   44.5060 H   0  0  0  0  0  0  0  0  0  0  0  0
   37.2180   30.1290   43.4570 H   0  0  0  0  0  0  0  0  0  0  0  0
   36.1290   30.3460   40.1610 C   0  0  0  0  0  0  0  0  0  0  0  0
   35.2040   30.9110   40.5150 H   0  0  0  0  0  0  0  0  0  0  0  0
   36.1490   29.4820   40.8910 H   0  0  0  0  0  0  0  0  0  0  0  0
   35.9290   29.8700   38.7780 C   0  0  0  0  0  3  0  0  0  0  0  0
   35.1350   28.5390   38.8960 C   0  0  0  0  0  2  0  0  0  0  0  0
   36.0970   27.3780   39.1770 C   0  0  0  0  0  2  0  0  0  0  0  0
   36.9910   27.1440   37.9670 C   0  0  0  0  0  2  0  0  0  0  0  0
   37.0720   28.4010   37.1340 C   0  0  0  0  0  2  0  0  0  0  0  0
   37.2770   29.5370   38.1430 C   0  0  0  0  0  2  0  0  0  0  0  0
  1  6  2  0  0  0  0
  1  2  1  0  0  0  0
  2  3  2  0  0  0  0
  3  4  1  0  0  0  0
  3  9  1  0  0  0  0
  5  8  1  0  0  0  0
  5  4  2  0  0  0  0
  6  5  1  0  0  0  0
  7  1  1  0  0  0  0
  9 14  1  0  0  0  0
 10  9  2  0  0  0  0
 10 11  1  0  0  0  0
 11 12  2  0  0  0  0
 12 17  1  0  0  0  0
 12 13  1  0  0  0  0
 13 18  1  0  0  0  0
 14 19  1  0  0  0  0
 14 13  2  0  0  0  0
 15 10  1  0  0  0  0
 16 11  1  0  0  0  0
 20  2  1  0  0  0  0
 20 21  1  0  0  0  0
 20 22  1  0  0  0  0
 23 24  1  0  0  0  0
 23 20  1  0  0  0  0
 24 25  1  0  0  0  0
 26 25  1  0  0  0  0
 27 26  1  0  0  0  0
 27 28  1  0  0  0  0
 28 23  1  0  0  0  0
M  END
>  <minimizedAffinity>
-4.87658978

$$$$
