
 OpenBabel03252509293D

 18 19  0  0  0  0  0  0  0  0999 V2000
   44.3750   36.0020   44.7180 C   0  0  0  0  0  0  0  0  0  0  0  0
   44.8770   35.4400   43.5190 C   0  0  0  0  0  0  0  0  0  0  0  0
   45.5100   34.2030   43.6090 C   0  0  0  0  0  0  0  0  0  0  0  0
   45.6220   33.5930   44.8220 N   0  0  0  0  0  0  0  0  0  0  0  0
   45.1220   34.1750   45.9510 C   0  0  0  0  0  0  0  0  0  0  0  0
   44.5040   35.3690   45.8950 N   0  0  0  0  0  0  0  0  0  0  0  0
   43.8820   36.9590   44.6680 H   0  0  0  0  0  0  0  0  0  0  0  0
   44.7490   35.9840   42.6060 H   0  0  0  0  0  0  0  0  0  0  0  0
   45.2100   33.6960   46.9040 H   0  0  0  0  0  0  0  0  0  0  0  0
   46.0250   33.6300   42.3670 C   0  0  0  0  0  0  0  0  0  0  0  0
   45.9810   32.5250   42.4710 H   0  0  0  0  0  0  0  0  0  0  0  0
   45.4400   33.8960   41.4790 H   0  0  0  0  0  0  0  0  0  0  0  0
   47.4690   33.9600   42.1050 C   0  0  0  0  0  3  0  0  0  0  0  0
   47.8040   35.4180   42.1990 C   0  0  0  0  0  2  0  0  0  0  0  0
   49.1570   35.5760   41.5000 C   0  0  0  0  0  2  0  0  0  0  0  0
   50.1590   34.8030   42.3130 C   0  0  0  0  0  2  0  0  0  0  0  0
   49.7890   33.3390   42.3690 C   0  0  0  0  0  2  0  0  0  0  0  0
   48.4110   33.2150   43.0310 C   0  0  0  0  0  2  0  0  0  0  0  0
  1  6  1  0  0  0  0
  2  3  1  0  0  0  0
  2  1  2  0  0  0  0
  3  4  2  0  0  0  0
  4  5  1  0  0  0  0
  5  9  1  0  0  0  0
  6  5  2  0  0  0  0
  7  1  1  0  0  0  0
  8  2  1  0  0  0  0
 10 11  1  0  0  0  0
 10  3  1  0  0  0  0
 12 10  1  0  0  0  0
 13 14  1  0  0  0  0
 13 10  1  0  0  0  0
 13 18  1  0  0  0  0
 15 14  1  0  0  0  0
 15 16  1  0  0  0  0
 16 17  1  0  0  0  0
 17 18  1  0  0  0  0
M  END
>  <minimizedAffinity>
-4.39030552

>  <minimizedRMSD>
1.51580608

$$$$
