
 OpenBabel03242521293D

 32 34  0  0  1  0  0  0  0  0999 V2000
   39.1700   31.8590   38.3690 C   0  0  1  0  0  0  0  0  0  0  0  0
   40.1410   32.5720   39.2820 C   0  0  2  0  0  0  0  0  0  0  0  0
   39.6490   33.7960   39.6960 O   0  0  0  0  0  0  0  0  0  0  0  0
   38.6110   33.5190   40.5710 C   0  0  0  0  0  0  0  0  0  0  0  0
   37.4330   33.0360   39.7640 C   0  0  2  0  0  0  0  0  0  0  0  0
   37.7580   31.9220   38.8120 C   0  0  2  0  0  0  0  0  0  0  0  0
   39.4890   30.7740   38.3860 H   0  0  0  0  0  0  0  0  0  0  0  0
   40.2570   31.9120   40.1710 H   0  0  0  0  0  0  0  0  0  0  0  0
   38.2790   34.4150   41.1130 H   0  0  0  0  0  0  0  0  0  0  0  0
   38.8940   32.6670   41.2420 H   0  0  0  0  0  0  0  0  0  0  0  0
   36.6220   32.6820   40.4470 H   0  0  0  0  0  0  0  0  0  0  0  0
   37.1120   32.1010   37.9060 H   0  0  0  0  0  0  0  0  0  0  0  0
   43.3350   34.1590   38.0090 C   0  0  0  0  0  0  0  0  0  0  0  0
   42.1070   34.0220   38.6740 C   0  0  0  0  0  0  0  0  0  0  0  0
   41.4400   32.7670   38.6120 C   0  0  0  0  0  0  0  0  0  0  0  0
   42.0140   31.7570   37.9150 N   0  0  0  0  0  0  0  0  0  0  0  0
   43.2150   31.9380   37.2820 C   0  0  0  0  0  0  0  0  0  0  0  0
   43.8650   33.1310   37.3310 N   0  0  0  0  0  0  0  0  0  0  0  0
   43.7100   35.1620   38.1510 H   0  0  0  0  0  0  0  0  0  0  0  0
   41.6040   34.7960   39.2450 H   0  0  0  0  0  0  0  0  0  0  0  0
   43.6520   31.1220   36.7330 H   0  0  0  0  0  0  0  0  0  0  0  0
   39.3370   32.2310   37.0300 O   0  0  0  0  0  0  0  0  0  0  0  0
   38.7950   33.0730   36.9320 H   0  0  0  0  0  0  0  0  0  0  0  0
   36.9290   34.1560   39.1000 O   0  0  0  0  0  0  0  0  0  0  0  0
   36.0490   34.4220   39.4190 H   0  0  0  0  0  0  0  0  0  0  0  0
   37.3040   30.6660   39.2780 O   0  0  0  0  0  0  0  0  0  0  0  0
   36.8400   30.7100   40.5800 C   0  0  0  0  0  3  0  0  0  0  0  0
   37.8750   30.0450   41.4460 C   0  0  0  0  0  2  0  0  0  0  0  0
   37.3050   29.0610   42.4330 C   0  0  0  0  0  2  0  0  0  0  0  0
   36.4580   28.0010   41.7980 C   0  0  0  0  0  2  0  0  0  0  0  0
   35.9840   28.4550   40.4410 C   0  0  0  0  0  2  0  0  0  0  0  0
   35.5540   29.8940   40.5870 C   0  0  0  0  0  2  0  0  0  0  0  0
  1  7  1  1  0  0  0
  1  6  1  0  0  0  0
  1  2  1  0  0  0  0
  2  3  1  0  0  0  0
  2  8  1  1  0  0  0
  3  4  1  0  0  0  0
  4  9  1  0  0  0  0
  4 10  1  0  0  0  0
  5 11  1  1  0  0  0
  5  4  1  0  0  0  0
  6 12  1  6  0  0  0
  6 26  1  0  0  0  0
  6  5  1  0  0  0  0
 13 19  1  0  0  0  0
 13 14  1  0  0  0  0
 14 20  1  0  0  0  0
 15 14  2  0  0  0  0
 15  2  1  0  0  0  0
 16 15  1  0  0  0  0
 17 18  1  0  0  0  0
 17 16  2  0  0  0  0
 18 13  2  0  0  0  0
 21 17  1  0  0  0  0
 22  1  1  0  0  0  0
 23 22  1  0  0  0  0
 24 25  1  0  0  0  0
 24  5  1  0  0  0  0
 26 27  1  0  0  0  0
 27 32  1  0  0  0  0
 27 28  1  0  0  0  0
 28 29  1  0  0  0  0
 30 29  1  0  0  0  0
 31 32  1  0  0  0  0
 31 30  1  0  0  0  0
M  END
>  <minimizedAffinity>
-5.86383486

$$$$

 OpenBabel03242521293D

 32 34  0  0  1  0  0  0  0  0999 V2000
   39.6460   31.1470   39.2230 C   0  0  1  0  0  0  0  0  0  0  0  0
   40.4000   32.2900   39.8650 C   0  0  2  0  0  0  0  0  0  0  0  0
   39.5890   33.3920   40.0590 O   0  0  0  0  0  0  0  0  0  0  0  0
   38.7090   33.0500   41.0730 C   0  0  0  0  0  0  0  0  0  0  0  0
   37.6940   32.0890   40.5070 C   0  0  2  0  0  0  0  0  0  0  0  0
   38.2930   30.9200   39.7830 C   0  0  2  0  0  0  0  0  0  0  0  0
   40.2670   30.2260   39.4360 H   0  0  0  0  0  0  0  0  0  0  0  0
   40.7350   31.9090   40.8560 H   0  0  0  0  0  0  0  0  0  0  0  0
   38.1500   33.9200   41.4450 H   0  0  0  0  0  0  0  0  0  0  0  0
   39.2500   32.4860   41.8750 H   0  0  0  0  0  0  0  0  0  0  0  0
   37.0450   31.6930   41.3270 H   0  0  0  0  0  0  0  0  0  0  0  0
   37.5910   30.7010   38.9290 H   0  0  0  0  0  0  0  0  0  0  0  0
   43.8910   32.4310   38.4040 C   0  0  0  0  0  0  0  0  0  0  0  0
   42.8150   32.0200   39.2040 C   0  0  0  0  0  0  0  0  0  0  0  0
   41.5610   32.6750   39.0410 C   0  0  0  0  0  0  0  0  0  0  0  0
   41.4580   33.6660   38.1240 N   0  0  0  0  0  0  0  0  0  0  0  0
   42.5380   34.0330   37.3660 C   0  0  0  0  0  0  0  0  0  0  0  0
   43.7420   33.4180   37.5100 N   0  0  0  0  0  0  0  0  0  0  0  0
   44.7630   31.8420   38.6470 H   0  0  0  0  0  0  0  0  0  0  0  0
   42.8420   31.2340   39.9520 H   0  0  0  0  0  0  0  0  0  0  0  0
   42.4340   34.8240   36.6430 H   0  0  0  0  0  0  0  0  0  0  0  0
   39.6490   31.2330   37.8260 O   0  0  0  0  0  0  0  0  0  0  0  0
   38.8840   31.8480   37.6090 H   0  0  0  0  0  0  0  0  0  0  0  0
   36.8630   32.8450   39.6770 O   0  0  0  0  0  0  0  0  0  0  0  0
   35.9550   32.9240   40.0200 H   0  0  0  0  0  0  0  0  0  0  0  0
   38.2400   29.7290   40.5450 O   0  0  0  0  0  0  0  0  0  0  0  0
   37.3510   29.8060   41.6010 C   0  0  0  0  0  3  0  0  0  0  0  0
   38.0830   29.3520   42.8350 C   0  0  0  0  0  2  0  0  0  0  0  0
   37.3090   28.3750   43.6800 C   0  0  0  0  0  2  0  0  0  0  0  0
   36.8480   27.1660   42.9240 C   0  0  0  0  0  2  0  0  0  0  0  0
   36.8310   27.4520   41.4440 C   0  0  0  0  0  2  0  0  0  0  0  0
   36.2330   28.8270   41.2710 C   0  0  0  0  0  2  0  0  0  0  0  0
  1  7  1  1  0  0  0
  1  6  1  0  0  0  0
  1  2  1  0  0  0  0
  2  3  1  0  0  0  0
  2  8  1  1  0  0  0
  3  4  1  0  0  0  0
  4  9  1  0  0  0  0
  4 10  1  0  0  0  0
  5  4  1  0  0  0  0
  5 11  1  1  0  0  0
  6 12  1  6  0  0  0
  6  5  1  0  0  0  0
  6 26  1  0  0  0  0
 13 19  1  0  0  0  0
 13 14  1  0  0  0  0
 14 20  1  0  0  0  0
 15 14  2  0  0  0  0
 15  2  1  0  0  0  0
 16 15  1  0  0  0  0
 17 18  1  0  0  0  0
 17 16  2  0  0  0  0
 18 13  2  0  0  0  0
 21 17  1  0  0  0  0
 22  1  1  0  0  0  0
 23 22  1  0  0  0  0
 24 25  1  0  0  0  0
 24  5  1  0  0  0  0
 26 27  1  0  0  0  0
 27 28  1  0  0  0  0
 28 29  1  0  0  0  0
 30 29  1  0  0  0  0
 31 30  1  0  0  0  0
 32 31  1  0  0  0  0
 32 27  1  0  0  0  0
M  END
>  <minimizedAffinity>
-5.66040421

$$$$

 OpenBabel03242521293D

 32 34  0  0  1  0  0  0  0  0999 V2000
   36.1010   29.5250   40.4580 C   0  0  1  0  0  0  0  0  0  0  0  0
   36.4660   29.4080   38.9960 C   0  0  2  0  0  0  0  0  0  0  0  0
   36.6020   30.6490   38.4030 O   0  0  0  0  0  0  0  0  0  0  0  0
   37.7620   31.2010   38.9240 C   0  0  0  0  0  0  0  0  0  0  0  0
   37.4790   31.6310   40.3410 C   0  0  2  0  0  0  0  0  0  0  0  0
   36.8610   30.5620   41.1940 C   0  0  2  0  0  0  0  0  0  0  0  0
   36.3620   28.5210   40.9100 H   0  0  0  0  0  0  0  0  0  0  0  0
   37.4490   28.8870   38.9720 H   0  0  0  0  0  0  0  0  0  0  0  0
   38.0730   32.1000   38.3750 H   0  0  0  0  0  0  0  0  0  0  0  0
   38.5590   30.4170   38.9940 H   0  0  0  0  0  0  0  0  0  0  0  0
   38.4260   31.9620   40.8340 H   0  0  0  0  0  0  0  0  0  0  0  0
   36.1470   31.1010   41.8810 H   0  0  0  0  0  0  0  0  0  0  0  0
   34.6120   26.5240   37.3880 C   0  0  0  0  0  0  0  0  0  0  0  0
   35.6010   27.2200   38.0990 C   0  0  0  0  0  0  0  0  0  0  0  0
   35.4500   28.6250   38.2680 C   0  0  0  0  0  0  0  0  0  0  0  0
   34.3620   29.2330   37.7360 N   0  0  0  0  0  0  0  0  0  0  0  0
   33.4230   28.5100   37.0500 C   0  0  0  0  0  0  0  0  0  0  0  0
   33.5520   27.1680   36.8790 N   0  0  0  0  0  0  0  0  0  0  0  0
   34.8700   25.4760   37.3480 H   0  0  0  0  0  0  0  0  0  0  0  0
   36.4890   26.7850   38.5440 H   0  0  0  0  0  0  0  0  0  0  0  0
   32.5660   29.0140   36.6350 H   0  0  0  0  0  0  0  0  0  0  0  0
   34.7180   29.6240   40.6510 O   0  0  0  0  0  0  0  0  0  0  0  0
   34.5160   30.6020   40.5320 H   0  0  0  0  0  0  0  0  0  0  0  0
   36.6650   32.7610   40.2510 O   0  0  0  0  0  0  0  0  0  0  0  0
   37.1080   33.5730   40.5520 H   0  0  0  0  0  0  0  0  0  0  0  0
   37.7880   29.9870   42.0940 O   0  0  0  0  0  0  0  0  0  0  0  0
   37.8550   28.6100   41.9900 C   0  0  0  0  0  3  0  0  0  0  0  0
   37.7700   28.0510   43.3840 C   0  0  0  0  0  2  0  0  0  0  0  0
   38.7920   26.9860   43.6790 C   0  0  0  0  0  2  0  0  0  0  0  0
   40.2010   27.4230   43.4230 C   0  0  0  0  0  2  0  0  0  0  0  0
   40.2190   28.6030   42.4860 C   0  0  0  0  0  2  0  0  0  0  0  0
   39.2230   28.3080   41.3920 C   0  0  0  0  0  2  0  0  0  0  0  0
  1 22  1  0  0  0  0
  1  7  1  1  0  0  0
  1  6  1  0  0  0  0
  2  8  1  6  0  0  0
  2  1  1  0  0  0  0
  3  4  1  0  0  0  0
  3  2  1  0  0  0  0
  4 10  1  0  0  0  0
  4  5  1  0  0  0  0
  5 11  1  1  0  0  0
  5  6  1  0  0  0  0
  6 12  1  1  0  0  0
  6 26  1  0  0  0  0
  9  4  1  0  0  0  0
 13 14  1  0  0  0  0
 14 15  2  0  0  0  0
 14 20  1  0  0  0  0
 15  2  1  0  0  0  0
 16 15  1  0  0  0  0
 17 16  2  0  0  0  0
 18 17  1  0  0  0  0
 18 13  2  0  0  0  0
 19 13  1  0  0  0  0
 21 17  1  0  0  0  0
 23 22  1  0  0  0  0
 24  5  1  0  0  0  0
 24 25  1  0  0  0  0
 27 26  1  0  0  0  0
 27 28  1  0  0  0  0
 28 29  1  0  0  0  0
 30 29  1  0  0  0  0
 31 30  1  0  0  0  0
 32 27  1  0  0  0  0
 32 31  1  0  0  0  0
M  END
>  <minimizedAffinity>
-5.63474655

$$$$

 OpenBabel03242521293D

 32 34  0  0  1  0  0  0  0  0999 V2000
   39.2360   31.7980   38.6620 C   0  0  1  0  0  0  0  0  0  0  0  0
   40.2020   32.6820   39.4170 C   0  0  2  0  0  0  0  0  0  0  0  0
   39.6740   33.9390   39.6430 O   0  0  0  0  0  0  0  0  0  0  0  0
   38.6710   33.7730   40.5850 C   0  0  0  0  0  0  0  0  0  0  0  0
   37.4920   33.1250   39.9040 C   0  0  2  0  0  0  0  0  0  0  0  0
   37.8350   31.8840   39.1350 C   0  0  2  0  0  0  0  0  0  0  0  0
   39.5970   30.7410   38.8430 H   0  0  0  0  0  0  0  0  0  0  0  0
   40.3680   32.1790   40.3950 H   0  0  0  0  0  0  0  0  0  0  0  0
   38.3190   34.7330   40.9860 H   0  0  0  0  0  0  0  0  0  0  0  0
   39.0050   33.0510   41.3750 H   0  0  0  0  0  0  0  0  0  0  0  0
   36.7140   32.8590   40.6620 H   0  0  0  0  0  0  0  0  0  0  0  0
   37.1580   31.8910   38.2330 H   0  0  0  0  0  0  0  0  0  0  0  0
   43.2080   34.1590   37.6490 C   0  0  0  0  0  0  0  0  0  0  0  0
   42.0000   34.0930   38.3600 C   0  0  0  0  0  0  0  0  0  0  0  0
   41.4740   32.8100   38.6820 C   0  0  0  0  0  0  0  0  0  0  0  0
   42.1570   31.7080   38.2900 N   0  0  0  0  0  0  0  0  0  0  0  0
   43.3330   31.8230   37.5980 C   0  0  0  0  0  0  0  0  0  0  0  0
   43.8490   33.0410   37.2820 N   0  0  0  0  0  0  0  0  0  0  0  0
   43.4710   35.1940   37.4850 H   0  0  0  0  0  0  0  0  0  0  0  0
   41.4140   34.9410   38.6970 H   0  0  0  0  0  0  0  0  0  0  0  0
   43.8600   30.9340   37.2950 H   0  0  0  0  0  0  0  0  0  0  0  0
   39.3520   31.9540   37.2760 O   0  0  0  0  0  0  0  0  0  0  0  0
   38.7760   32.7500   37.0610 H   0  0  0  0  0  0  0  0  0  0  0  0
   36.9280   34.1050   39.0860 O   0  0  0  0  0  0  0  0  0  0  0  0
   36.0460   34.3890   39.3870 H   0  0  0  0  0  0  0  0  0  0  0  0
   37.4420   30.7050   39.8110 O   0  0  0  0  0  0  0  0  0  0  0  0
   37.2080   29.6460   38.9540 C   0  0  0  0  0  3  0  0  0  0  0  0
   36.2760   30.1380   37.8800 C   0  0  0  0  0  2  0  0  0  0  0  0
   35.1310   29.2060   37.5900 C   0  0  0  0  0  2  0  0  0  0  0  0
   34.3230   28.8570   38.8020 C   0  0  0  0  0  2  0  0  0  0  0  0
   35.1250   29.1070   40.0530 C   0  0  0  0  0  2  0  0  0  0  0  0
   36.5150   28.5810   39.7940 C   0  0  0  0  0  2  0  0  0  0  0  0
  1  7  1  1  0  0  0
  1  6  1  0  0  0  0
  1  2  1  0  0  0  0
  2  3  1  0  0  0  0
  2  8  1  1  0  0  0
  3  4  1  0  0  0  0
  4  9  1  0  0  0  0
  4 10  1  0  0  0  0
  5  4  1  0  0  0  0
  5 11  1  1  0  0  0
  6 12  1  6  0  0  0
  6 26  1  0  0  0  0
  6  5  1  0  0  0  0
 13 14  1  0  0  0  0
 14 15  2  0  0  0  0
 14 20  1  0  0  0  0
 15  2  1  0  0  0  0
 16 15  1  0  0  0  0
 17 16  2  0  0  0  0
 18 17  1  0  0  0  0
 18 13  2  0  0  0  0
 19 13  1  0  0  0  0
 21 17  1  0  0  0  0
 22  1  1  0  0  0  0
 23 22  1  0  0  0  0
 24 25  1  0  0  0  0
 24  5  1  0  0  0  0
 27 32  1  0  0  0  0
 27 26  1  0  0  0  0
 28 27  1  0  0  0  0
 29 28  1  0  0  0  0
 29 30  1  0  0  0  0
 30 31  1  0  0  0  0
 32 31  1  0  0  0  0
M  END
>  <minimizedAffinity>
-5.51397991

$$$$

 OpenBabel03242521293D

 32 34  0  0  1  0  0  0  0  0999 V2000
   37.0740   28.9060   41.6720 C   0  0  1  0  0  0  0  0  0  0  0  0
   37.3970   27.8360   40.6540 C   0  0  2  0  0  0  0  0  0  0  0  0
   36.3050   27.5380   39.8610 O   0  0  0  0  0  0  0  0  0  0  0  0
   36.1110   28.6380   39.0410 C   0  0  0  0  0  0  0  0  0  0  0  0
   35.5190   29.7450   39.8750 C   0  0  2  0  0  0  0  0  0  0  0  0
   36.2790   30.0360   41.1360 C   0  0  2  0  0  0  0  0  0  0  0  0
   38.0760   29.3140   42.0020 H   0  0  0  0  0  0  0  0  0  0  0  0
   38.2010   28.2640   40.0140 H   0  0  0  0  0  0  0  0  0  0  0  0
   35.3940   28.4290   38.2350 H   0  0  0  0  0  0  0  0  0  0  0  0
   37.0980   29.0210   38.6770 H   0  0  0  0  0  0  0  0  0  0  0  0
   35.4690   30.6880   39.2760 H   0  0  0  0  0  0  0  0  0  0  0  0
   35.4990   30.3130   41.9010 H   0  0  0  0  0  0  0  0  0  0  0  0
   39.6280   25.2870   42.3470 C   0  0  0  0  0  0  0  0  0  0  0  0
   39.2270   26.4800   41.7270 C   0  0  0  0  0  0  0  0  0  0  0  0
   37.8690   26.6090   41.3210 C   0  0  0  0  0  0  0  0  0  0  0  0
   37.0200   25.5780   41.5480 N   0  0  0  0  0  0  0  0  0  0  0  0
   37.4580   24.4320   42.1580 C   0  0  0  0  0  0  0  0  0  0  0  0
   38.7520   24.2930   42.5510 N   0  0  0  0  0  0  0  0  0  0  0  0
   40.6780   25.3460   42.5920 H   0  0  0  0  0  0  0  0  0  0  0  0
   39.8630   27.3340   41.5210 H   0  0  0  0  0  0  0  0  0  0  0  0
   36.7660   23.6250   42.3270 H   0  0  0  0  0  0  0  0  0  0  0  0
   36.5330   28.3700   42.8460 O   0  0  0  0  0  0  0  0  0  0  0  0
   35.5510   28.2720   42.6510 H   0  0  0  0  0  0  0  0  0  0  0  0
   34.1990   29.3730   40.1370 O   0  0  0  0  0  0  0  0  0  0  0  0
   33.5490   29.9470   39.6950 H   0  0  0  0  0  0  0  0  0  0  0  0
   37.0550   31.2150   41.0380 O   0  0  0  0  0  0  0  0  0  0  0  0
   37.4460   31.4950   39.7420 C   0  0  0  0  0  3  0  0  0  0  0  0
   38.9000   31.1260   39.6240 C   0  0  0  0  0  2  0  0  0  0  0  0
   39.7430   32.1710   38.9440 C   0  0  0  0  0  2  0  0  0  0  0  0
   39.6430   33.5250   39.5770 C   0  0  0  0  0  2  0  0  0  0  0  0
   38.3810   33.6250   40.3950 C   0  0  0  0  0  2  0  0  0  0  0  0
   37.2790   33.0000   39.5770 C   0  0  0  0  0  2  0  0  0  0  0  0
  1  7  1  1  0  0  0
  1 22  1  0  0  0  0
  2  8  1  6  0  0  0
  2 15  1  0  0  0  0
  2  1  1  0  0  0  0
  3  2  1  0  0  0  0
  4  3  1  0  0  0  0
  4  5  1  0  0  0  0
  5 11  1  6  0  0  0
  5 24  1  0  0  0  0
  5  6  1  0  0  0  0
  6  1  1  0  0  0  0
  6 12  1  1  0  0  0
  9  4  1  0  0  0  0
 10  4  1  0  0  0  0
 13 18  1  0  0  0  0
 13 19  1  0  0  0  0
 14 13  2  0  0  0  0
 15 16  2  0  0  0  0
 15 14  1  0  0  0  0
 16 17  1  0  0  0  0
 17 21  1  0  0  0  0
 17 18  2  0  0  0  0
 20 14  1  0  0  0  0
 23 22  1  0  0  0  0
 25 24  1  0  0  0  0
 26  6  1  0  0  0  0
 27 26  1  0  0  0  0
 28 27  1  0  0  0  0
 29 30  1  0  0  0  0
 29 28  1  0  0  0  0
 30 31  1  0  0  0  0
 32 27  1  0  0  0  0
 32 31  1  0  0  0  0
M  END
>  <minimizedAffinity>
-5.49582672

$$$$

 OpenBabel03242521293D

 32 34  0  0  1  0  0  0  0  0999 V2000
   38.5060   30.6420   39.3710 C   0  0  1  0  0  0  0  0  0  0  0  0
   39.8140   31.3910   39.4880 C   0  0  2  0  0  0  0  0  0  0  0  0
   39.6240   32.7600   39.4620 O   0  0  0  0  0  0  0  0  0  0  0  0
   39.0190   33.0890   40.6650 C   0  0  0  0  0  0  0  0  0  0  0  0
   37.5830   32.6350   40.6050 C   0  0  2  0  0  0  0  0  0  0  0  0
   37.4080   31.2030   40.1930 C   0  0  2  0  0  0  0  0  0  0  0  0
   38.7260   29.6000   39.7540 H   0  0  0  0  0  0  0  0  0  0  0  0
   40.2370   31.1040   40.4780 H   0  0  0  0  0  0  0  0  0  0  0  0
   39.0030   34.1740   40.8350 H   0  0  0  0  0  0  0  0  0  0  0  0
   39.4900   32.5090   41.5000 H   0  0  0  0  0  0  0  0  0  0  0  0
   37.0990   32.7690   41.6050 H   0  0  0  0  0  0  0  0  0  0  0  0
   36.4620   31.1790   39.5800 H   0  0  0  0  0  0  0  0  0  0  0  0
   42.3670   31.5630   36.6960 C   0  0  0  0  0  0  0  0  0  0  0  0
   41.5150   31.9840   37.7290 C   0  0  0  0  0  0  0  0  0  0  0  0
   40.7350   31.0030   38.4040 C   0  0  0  0  0  0  0  0  0  0  0  0
   40.8450   29.7070   38.0240 N   0  0  0  0  0  0  0  0  0  0  0  0
   41.6910   29.3450   37.0090 C   0  0  0  0  0  0  0  0  0  0  0  0
   42.4420   30.2700   36.3540 N   0  0  0  0  0  0  0  0  0  0  0  0
   42.8840   32.4190   36.2880 H   0  0  0  0  0  0  0  0  0  0  0  0
   41.3890   33.0050   38.0720 H   0  0  0  0  0  0  0  0  0  0  0  0
   41.7620   28.3100   36.7230 H   0  0  0  0  0  0  0  0  0  0  0  0
   38.1360   30.4340   38.0380 O   0  0  0  0  0  0  0  0  0  0  0  0
   37.6640   31.2810   37.7710 H   0  0  0  0  0  0  0  0  0  0  0  0
   36.9330   33.5110   39.7330 O   0  0  0  0  0  0  0  0  0  0  0  0
   36.2820   34.0790   40.1810 H   0  0  0  0  0  0  0  0  0  0  0  0
   37.0960   30.3610   41.2860 O   0  0  0  0  0  0  0  0  0  0  0  0
   37.7270   29.1330   41.2170 C   0  0  0  0  0  3  0  0  0  0  0  0
   36.6540   28.0780   41.2250 C   0  0  0  0  0  2  0  0  0  0  0  0
   36.9250   26.9390   42.1710 C   0  0  0  0  0  2  0  0  0  0  0  0
   37.1760   27.3800   43.5810 C   0  0  0  0  0  2  0  0  0  0  0  0
   37.5840   28.8300   43.6090 C   0  0  0  0  0  2  0  0  0  0  0  0
   38.5670   29.0300   42.4830 C   0  0  0  0  0  2  0  0  0  0  0  0
  1  2  1  0  0  0  0
  1  7  1  1  0  0  0
  1  6  1  0  0  0  0
  2  8  1  1  0  0  0
  3  2  1  0  0  0  0
  3  4  1  0  0  0  0
  4  9  1  0  0  0  0
  4 10  1  0  0  0  0
  5  4  1  0  0  0  0
  5 11  1  1  0  0  0
  6 12  1  6  0  0  0
  6  5  1  0  0  0  0
  6 26  1  0  0  0  0
 13 14  1  0  0  0  0
 14 20  1  0  0  0  0
 14 15  2  0  0  0  0
 15  2  1  0  0  0  0
 16 15  1  0  0  0  0
 17 16  2  0  0  0  0
 18 13  2  0  0  0  0
 18 17  1  0  0  0  0
 19 13  1  0  0  0  0
 21 17  1  0  0  0  0
 22  1  1  0  0  0  0
 23 22  1  0  0  0  0
 24 25  1  0  0  0  0
 24  5  1  0  0  0  0
 27 28  1  0  0  0  0
 27 26  1  0  0  0  0
 27 32  1  0  0  0  0
 28 29  1  0  0  0  0
 29 30  1  0  0  0  0
 30 31  1  0  0  0  0
 32 31  1  0  0  0  0
M  END
>  <minimizedAffinity>
-5.3833375

$$$$

 OpenBabel03242521293D

 32 34  0  0  1  0  0  0  0  0999 V2000
   36.7130   28.5980   39.2860 C   0  0  1  0  0  0  0  0  0  0  0  0
   36.8170   29.7090   38.2670 C   0  0  2  0  0  0  0  0  0  0  0  0
   36.2020   30.8660   38.7070 O   0  0  0  0  0  0  0  0  0  0  0  0
   36.9980   31.3630   39.7270 C   0  0  0  0  0  0  0  0  0  0  0  0
   36.7960   30.4940   40.9430 C   0  0  2  0  0  0  0  0  0  0  0  0
   36.9640   29.0260   40.6820 C   0  0  2  0  0  0  0  0  0  0  0  0
   37.5190   27.8570   39.0020 H   0  0  0  0  0  0  0  0  0  0  0  0
   37.9070   29.9040   38.1460 H   0  0  0  0  0  0  0  0  0  0  0  0
   36.7110   32.3830   40.0140 H   0  0  0  0  0  0  0  0  0  0  0  0
   38.0790   31.2600   39.4520 H   0  0  0  0  0  0  0  0  0  0  0  0
   37.5180   30.7880   41.7440 H   0  0  0  0  0  0  0  0  0  0  0  0
   36.2130   28.5140   41.3480 H   0  0  0  0  0  0  0  0  0  0  0  0
   36.4350   28.5340   34.6870 C   0  0  0  0  0  0  0  0  0  0  0  0
   37.0500   28.9080   35.8910 C   0  0  0  0  0  0  0  0  0  0  0  0
   36.2230   29.2950   36.9820 C   0  0  0  0  0  0  0  0  0  0  0  0
   34.8780   29.2880   36.8160 N   0  0  0  0  0  0  0  0  0  0  0  0
   34.3230   28.9150   35.6210 C   0  0  0  0  0  0  0  0  0  0  0  0
   35.1000   28.5430   34.5690 N   0  0  0  0  0  0  0  0  0  0  0  0
   37.1930   28.2710   33.9640 H   0  0  0  0  0  0  0  0  0  0  0  0
   38.1190   28.9320   36.0780 H   0  0  0  0  0  0  0  0  0  0  0  0
   33.2520   28.9170   35.5100 H   0  0  0  0  0  0  0  0  0  0  0  0
   35.5280   27.8650   39.1470 O   0  0  0  0  0  0  0  0  0  0  0  0
   34.8430   28.3910   39.6630 H   0  0  0  0  0  0  0  0  0  0  0  0
   35.5230   30.7940   41.4290 O   0  0  0  0  0  0  0  0  0  0  0  0
   35.5430   31.2460   42.2910 H   0  0  0  0  0  0  0  0  0  0  0  0
   38.1990   28.5310   41.1620 O   0  0  0  0  0  0  0  0  0  0  0  0
   38.1370   28.1220   42.4820 C   0  0  0  0  0  3  0  0  0  0  0  0
   39.5470   27.8520   42.9320 C   0  0  0  0  0  2  0  0  0  0  0  0
   39.7120   26.5550   43.6790 C   0  0  0  0  0  2  0  0  0  0  0  0
   39.2140   25.3620   42.9210 C   0  0  0  0  0  2  0  0  0  0  0  0
   38.2420   25.7920   41.8530 C   0  0  0  0  0  2  0  0  0  0  0  0
   37.3370   26.8260   42.4750 C   0  0  0  0  0  2  0  0  0  0  0  0
  1  7  1  6  0  0  0
  1  6  1  0  0  0  0
  2  8  1  6  0  0  0
  2  3  1  0  0  0  0
  2  1  1  0  0  0  0
  3  4  1  0  0  0  0
  4  9  1  0  0  0  0
  4  5  1  0  0  0  0
  5 24  1  0  0  0  0
  5 11  1  1  0  0  0
  6  5  1  0  0  0  0
  6 26  1  0  0  0  0
  6 12  1  1  0  0  0
 10  4  1  0  0  0  0
 13 14  1  0  0  0  0
 14 20  1  0  0  0  0
 14 15  2  0  0  0  0
 15  2  1  0  0  0  0
 16 15  1  0  0  0  0
 17 16  2  0  0  0  0
 18 13  2  0  0  0  0
 18 17  1  0  0  0  0
 19 13  1  0  0  0  0
 21 17  1  0  0  0  0
 22  1  1  0  0  0  0
 22 23  1  0  0  0  0
 24 25  1  0  0  0  0
 26 27  1  0  0  0  0
 27 28  1  0  0  0  0
 28 29  1  0  0  0  0
 30 29  1  0  0  0  0
 31 32  1  0  0  0  0
 31 30  1  0  0  0  0
 32 27  1  0  0  0  0
M  END
>  <minimizedAffinity>
-5.29073763

$$$$

 OpenBabel03242521293D

 32 34  0  0  1  0  0  0  0  0999 V2000
   37.2290   28.0010   40.6040 C   0  0  1  0  0  0  0  0  0  0  0  0
   37.9420   29.2400   41.0920 C   0  0  2  0  0  0  0  0  0  0  0  0
   37.5350   29.5980   42.3630 O   0  0  0  0  0  0  0  0  0  0  0  0
   38.0510   28.6380   43.2190 C   0  0  0  0  0  0  0  0  0  0  0  0
   37.2470   27.3740   43.0440 C   0  0  2  0  0  0  0  0  0  0  0  0
   37.1090   26.9280   41.6190 C   0  0  2  0  0  0  0  0  0  0  0  0
   37.8660   27.6050   39.7570 H   0  0  0  0  0  0  0  0  0  0  0  0
   39.0220   28.9730   41.1220 H   0  0  0  0  0  0  0  0  0  0  0  0
   37.9570   28.9310   44.2730 H   0  0  0  0  0  0  0  0  0  0  0  0
   39.0980   28.3790   42.9160 H   0  0  0  0  0  0  0  0  0  0  0  0
   37.7160   26.5410   43.6240 H   0  0  0  0  0  0  0  0  0  0  0  0
   36.0770   26.4820   41.5410 H   0  0  0  0  0  0  0  0  0  0  0  0
   37.1930   32.7010   39.7490 C   0  0  0  0  0  0  0  0  0  0  0  0
   37.4110   31.6650   40.6700 C   0  0  0  0  0  0  0  0  0  0  0  0
   37.7170   30.3680   40.1690 C   0  0  0  0  0  0  0  0  0  0  0  0
   37.7850   30.1860   38.8290 N   0  0  0  0  0  0  0  0  0  0  0  0
   37.5650   31.2290   37.9690 C   0  0  0  0  0  0  0  0  0  0  0  0
   37.2710   32.4740   38.4310 N   0  0  0  0  0  0  0  0  0  0  0  0
   36.9740   33.6140   40.2830 H   0  0  0  0  0  0  0  0  0  0  0  0
   37.3680   31.7550   41.7500 H   0  0  0  0  0  0  0  0  0  0  0  0
   37.6240   31.0620   36.9070 H   0  0  0  0  0  0  0  0  0  0  0  0
   36.0100   28.3030   39.9870 O   0  0  0  0  0  0  0  0  0  0  0  0
   35.3520   28.3720   40.7450 H   0  0  0  0  0  0  0  0  0  0  0  0
   36.0060   27.6170   43.6360 O   0  0  0  0  0  0  0  0  0  0  0  0
   35.8570   27.0860   44.4380 H   0  0  0  0  0  0  0  0  0  0  0  0
   37.9480   25.8300   41.3140 O   0  0  0  0  0  0  0  0  0  0  0  0
   37.3040   24.6120   41.4320 C   0  0  0  0  0  3  0  0  0  0  0  0
   38.3550   23.5390   41.3370 C   0  0  0  0  0  2  0  0  0  0  0  0
   37.9910   22.4070   40.4140 C   0  0  0  0  0  2  0  0  0  0  0  0
   37.6370   22.8550   39.0290 C   0  0  0  0  0  2  0  0  0  0  0  0
   37.2520   24.3120   39.0350 C   0  0  0  0  0  2  0  0  0  0  0  0
   36.3650   24.5250   40.2360 C   0  0  0  0  0  2  0  0  0  0  0  0
  1  7  1  6  0  0  0
  1  2  1  0  0  0  0
  1  6  1  0  0  0  0
  2  8  1  1  0  0  0
  2  3  1  0  0  0  0
  3  4  1  0  0  0  0
  4  9  1  0  0  0  0
  5  4  1  0  0  0  0
  5 11  1  1  0  0  0
  5 24  1  0  0  0  0
  6 12  1  6  0  0  0
  6  5  1  0  0  0  0
 10  4  1  0  0  0  0
 13 19  1  0  0  0  0
 13 14  1  0  0  0  0
 14 20  1  0  0  0  0
 15 14  2  0  0  0  0
 15  2  1  0  0  0  0
 16 15  1  0  0  0  0
 17 18  1  0  0  0  0
 17 16  2  0  0  0  0
 18 13  2  0  0  0  0
 21 17  1  0  0  0  0
 22  1  1  0  0  0  0
 22 23  1  0  0  0  0
 24 25  1  0  0  0  0
 26 27  1  0  0  0  0
 26  6  1  0  0  0  0
 28 27  1  0  0  0  0
 29 28  1  0  0  0  0
 30 31  1  0  0  0  0
 30 29  1  0  0  0  0
 31 32  1  0  0  0  0
 32 27  1  0  0  0  0
M  END
>  <minimizedAffinity>
-5.26143599

$$$$

 OpenBabel03242521293D

 32 34  0  0  1  0  0  0  0  0999 V2000
   40.0060   31.4080   40.0870 C   0  0  1  0  0  0  0  0  0  0  0  0
   40.2490   32.9000   40.1170 C   0  0  2  0  0  0  0  0  0  0  0  0
   39.2100   33.5990   39.5320 O   0  0  0  0  0  0  0  0  0  0  0  0
   38.1340   33.4860   40.3970 C   0  0  0  0  0  0  0  0  0  0  0  0
   37.5870   32.0860   40.2840 C   0  0  2  0  0  0  0  0  0  0  0  0
   38.6220   31.0100   40.4360 C   0  0  2  0  0  0  0  0  0  0  0  0
   40.6970   30.9790   40.8730 H   0  0  0  0  0  0  0  0  0  0  0  0
   40.3060   33.1730   41.1940 H   0  0  0  0  0  0  0  0  0  0  0  0
   37.3160   34.1690   40.1290 H   0  0  0  0  0  0  0  0  0  0  0  0
   38.4820   33.5960   41.4570 H   0  0  0  0  0  0  0  0  0  0  0  0
   36.8000   31.9200   41.0610 H   0  0  0  0  0  0  0  0  0  0  0  0
   38.3050   30.1860   39.7350 H   0  0  0  0  0  0  0  0  0  0  0  0
   43.9100   33.6140   39.4590 C   0  0  0  0  0  0  0  0  0  0  0  0
   42.7380   33.2790   40.1550 C   0  0  0  0  0  0  0  0  0  0  0  0
   41.5120   33.2350   39.4330 C   0  0  0  0  0  0  0  0  0  0  0  0
   41.5240   33.5170   38.1080 N   0  0  0  0  0  0  0  0  0  0  0  0
   42.6940   33.8400   37.4730 C   0  0  0  0  0  0  0  0  0  0  0  0
   43.8730   33.8870   38.1470 N   0  0  0  0  0  0  0  0  0  0  0  0
   44.7470   33.6050   40.1420 H   0  0  0  0  0  0  0  0  0  0  0  0
   42.6720   33.0440   41.2120 H   0  0  0  0  0  0  0  0  0  0  0  0
   42.6810   34.0620   36.4190 H   0  0  0  0  0  0  0  0  0  0  0  0
   40.4560   30.8240   38.8970 O   0  0  0  0  0  0  0  0  0  0  0  0
   39.6970   30.9520   38.2500 H   0  0  0  0  0  0  0  0  0  0  0  0
   36.9420   32.0170   39.0480 O   0  0  0  0  0  0  0  0  0  0  0  0
   35.9770   31.9230   39.1280 H   0  0  0  0  0  0  0  0  0  0  0  0
   38.5660   30.3830   41.7030 O   0  0  0  0  0  0  0  0  0  0  0  0
   38.8370   29.0280   41.6450 C   0  0  0  0  0  3  0  0  0  0  0  0
   37.6800   28.3710   40.9430 C   0  0  0  0  0  2  0  0  0  0  0  0
   37.1750   27.1300   41.6290 C   0  0  0  0  0  2  0  0  0  0  0  0
   36.8030   27.3490   43.0630 C   0  0  0  0  0  2  0  0  0  0  0  0
   37.4790   28.5870   43.5930 C   0  0  0  0  0  2  0  0  0  0  0  0
   38.9010   28.5580   43.0920 C   0  0  0  0  0  2  0  0  0  0  0  0
  1  2  1  0  0  0  0
  1  6  1  0  0  0  0
  1  7  1  1  0  0  0
  2  8  1  1  0  0  0
  3  2  1  0  0  0  0
  3  4  1  0  0  0  0
  4 10  1  0  0  0  0
  5  4  1  0  0  0  0
  5  6  1  0  0  0  0
  5 11  1  1  0  0  0
  6 12  1  6  0  0  0
  6 26  1  0  0  0  0
  9  4  1  0  0  0  0
 13 19  1  0  0  0  0
 13 14  1  0  0  0  0
 14 20  1  0  0  0  0
 15  2  1  0  0  0  0
 15 14  2  0  0  0  0
 16 15  1  0  0  0  0
 17 16  2  0  0  0  0
 17 18  1  0  0  0  0
 18 13  2  0  0  0  0
 21 17  1  0  0  0  0
 22  1  1  0  0  0  0
 23 22  1  0  0  0  0
 24 25  1  0  0  0  0
 24  5  1  0  0  0  0
 27 26  1  0  0  0  0
 27 32  1  0  0  0  0
 28 29  1  0  0  0  0
 28 27  1  0  0  0  0
 29 30  1  0  0  0  0
 30 31  1  0  0  0  0
 32 31  1  0  0  0  0
M  END
>  <minimizedAffinity>
-5.24792528

$$$$
