
 OpenBabel03252502363D

 21 22  0  0  1  0  0  0  0  0999 V2000
   46.5160   34.9330   42.0190 C   0  0  2  0  0  0  0  0  0  0  0  0
   45.9130   35.8380   41.7730 H   0  0  0  0  0  0  0  0  0  0  0  0
   45.1550   35.2840   44.0330 C   0  0  0  0  0  0  0  0  0  0  0  0
   46.1880   34.5560   43.3900 C   0  0  0  0  0  0  0  0  0  0  0  0
   46.8200   33.5460   44.1190 C   0  0  0  0  0  0  0  0  0  0  0  0
   46.4020   33.3290   45.3890 N   0  0  0  0  0  0  0  0  0  0  0  0
   45.4240   34.0360   45.9610 C   0  0  0  0  0  0  0  0  0  0  0  0
   44.7870   35.0160   45.3050 N   0  0  0  0  0  0  0  0  0  0  0  0
   44.6270   36.0790   43.5230 H   0  0  0  0  0  0  0  0  0  0  0  0
   47.6140   32.9780   43.6590 H   0  0  0  0  0  0  0  0  0  0  0  0
   45.0750   33.8760   46.9830 H   0  0  0  0  0  0  0  0  0  0  0  0
   46.1370   33.9080   40.9710 C   0  0  0  0  0  3  0  0  0  0  0  0
   44.6880   34.0070   40.5880 C   0  0  0  0  0  2  0  0  0  0  0  0
   44.3920   33.4370   39.2260 C   0  0  0  0  0  2  0  0  0  0  0  0
   45.3770   32.3330   38.8840 C   0  0  0  0  0  2  0  0  0  0  0  0
   46.6920   33.0120   38.6800 C   0  0  0  0  0  2  0  0  0  0  0  0
   47.0800   33.8770   39.8120 C   0  0  0  0  0  2  0  0  0  0  0  0
   47.9990   35.2760   42.0020 C   0  0  0  0  0  0  0  0  0  0  0  0
   48.3920   35.5100   43.0130 H   0  0  0  0  0  0  0  0  0  0  0  0
   48.5910   34.5110   41.4750 H   0  0  0  0  0  0  0  0  0  0  0  0
   48.1060   36.2000   41.3960 H   0  0  0  0  0  0  0  0  0  0  0  0
  1  2  1  6  0  0  0
  1  4  1  0  0  0  0
  3  8  1  0  0  0  0
  4  3  2  0  0  0  0
  4  5  1  0  0  0  0
  5  6  2  0  0  0  0
  6  7  1  0  0  0  0
  7 11  1  0  0  0  0
  8  7  2  0  0  0  0
  9  3  1  0  0  0  0
 10  5  1  0  0  0  0
 12  1  1  0  0  0  0
 13 12  1  0  0  0  0
 14 13  1  0  0  0  0
 15 14  1  0  0  0  0
 16 15  1  0  0  0  0
 16 17  1  0  0  0  0
 17 12  1  0  0  0  0
 18  1  1  0  0  0  0
 18 19  1  0  0  0  0
 20 18  1  0  0  0  0
 21 18  1  0  0  0  0
M  END
>  <minimizedAffinity>
-4.11243868

>  <minimizedRMSD>
0.483191878

$$$$
