
 OpenBabel03242519303D

 40 43  0  0  0  0  0  0  0  0999 V2000
   32.3440   29.4080   36.9230 C   0  0  0  0  0  0  0  0  0  0  0  0
   32.9390   29.2780   35.6330 C   0  0  0  0  0  0  0  0  0  0  0  0
   34.2880   28.9130   35.5330 C   0  0  0  0  0  0  0  0  0  0  0  0
   34.9520   28.7040   36.7180 N   0  0  0  0  0  0  0  0  0  0  0  0
   34.3360   28.8430   37.9440 C   0  0  0  0  0  0  0  0  0  0  0  0
   33.0640   29.1870   38.0180 N   0  0  0  0  0  0  0  0  0  0  0  0
   32.4900   29.4220   34.6770 H   0  0  0  0  0  0  0  0  0  0  0  0
   34.8050   28.7950   34.6110 H   0  0  0  0  0  0  0  0  0  0  0  0
   30.9280   29.8000   36.9050 C   0  0  0  0  0  0  0  0  0  0  0  0
   30.6150   30.9310   36.0520 C   0  0  0  0  0  0  0  0  0  0  0  0
   30.1990   32.1560   36.7660 C   0  0  0  0  0  0  0  0  0  0  0  0
   29.0520   31.9110   37.7380 C   0  0  0  0  0  0  0  0  0  0  0  0
   29.1130   30.5970   38.4320 C   0  0  0  0  0  0  0  0  0  0  0  0
   30.5290   30.0360   38.3860 C   0  0  0  0  0  0  0  0  0  0  0  0
   30.3330   28.8720   36.6530 H   0  0  0  0  0  0  0  0  0  0  0  0
   29.7600   30.6480   35.3700 H   0  0  0  0  0  0  0  0  0  0  0  0
   31.4250   31.2240   35.3450 H   0  0  0  0  0  0  0  0  0  0  0  0
   30.9650   32.7200   37.2940 H   0  0  0  0  0  0  0  0  0  0  0  0
   29.7940   32.8650   35.9850 H   0  0  0  0  0  0  0  0  0  0  0  0
   28.0900   32.0190   37.2000 H   0  0  0  0  0  0  0  0  0  0  0  0
   29.0670   32.7130   38.5120 H   0  0  0  0  0  0  0  0  0  0  0  0
   28.7840   30.5920   39.4740 H   0  0  0  0  0  0  0  0  0  0  0  0
   28.5020   29.8840   37.8030 H   0  0  0  0  0  0  0  0  0  0  0  0
   31.2230   30.8190   38.7350 H   0  0  0  0  0  0  0  0  0  0  0  0
   30.5560   29.0930   38.9380 H   0  0  0  0  0  0  0  0  0  0  0  0
   35.2050   28.5840   39.0780 C   0  0  0  0  0  0  0  0  0  0  0  0
   35.0760   29.3560   40.1760 N   0  0  0  0  0  0  0  0  0  0  0  0
   35.9740   28.9450   41.1030 C   0  0  0  0  0  0  0  0  0  0  0  0
   36.6590   27.9150   40.5740 N   0  0  0  0  0  0  0  0  0  0  0  0
   36.1970   27.6850   39.3330 N   0  0  0  0  0  0  0  0  0  0  0  0
   36.1110   29.3710   42.0880 H   0  0  0  0  0  0  0  0  0  0  0  0
   37.7340   27.1330   41.1810 C   0  0  0  0  0  0  0  0  0  0  0  0
   38.6460   27.7250   41.1780 H   0  0  0  0  0  0  0  0  0  0  0  0
   37.9360   26.2460   40.5310 H   0  0  0  0  0  0  0  0  0  0  0  0
   37.3720   26.5770   42.5320 C   0  0  0  0  0  3  0  0  0  0  0  0
   37.7190   25.0940   42.5480 C   0  0  0  0  0  2  0  0  0  0  0  0
   39.1900   24.8410   42.5050 C   0  0  0  0  0  2  0  0  0  0  0  0
   39.9490   25.5860   43.5790 C   0  0  0  0  0  2  0  0  0  0  0  0
   39.5980   27.0460   43.6220 C   0  0  0  0  0  2  0  0  0  0  0  0
   38.1030   27.2090   43.6740 C   0  0  0  0  0  2  0  0  0  0  0  0
  1  6  1  0  0  0  0
  2  1  2  0  0  0  0
  3  2  1  0  0  0  0
  3  4  2  0  0  0  0
  4  5  1  0  0  0  0
  5  6  2  0  0  0  0
  5 26  1  0  0  0  0
  7  2  1  0  0  0  0
  8  3  1  0  0  0  0
  9  1  1  0  0  0  0
  9 14  1  0  0  0  0
 10 11  1  0  0  0  0
 10  9  1  0  0  0  0
 11 18  1  0  0  0  0
 11 12  1  0  0  0  0
 12 13  1  0  0  0  0
 12 21  1  0  0  0  0
 13 22  1  0  0  0  0
 14 13  1  0  0  0  0
 14 24  1  0  0  0  0
 14 25  1  0  0  0  0
 15  9  1  0  0  0  0
 16 10  1  0  0  0  0
 17 10  1  0  0  0  0
 19 11  1  0  0  0  0
 20 12  1  0  0  0  0
 23 13  1  0  0  0  0
 26 30  2  0  0  0  0
 26 27  1  0  0  0  0
 27 28  2  0  0  0  0
 28 31  1  0  0  0  0
 29 28  1  0  0  0  0
 29 32  1  0  0  0  0
 30 29  1  0  0  0  0
 32 35  1  0  0  0  0
 33 32  1  0  0  0  0
 34 32  1  0  0  0  0
 35 36  1  0  0  0  0
 35 40  1  0  0  0  0
 37 36  1  0  0  0  0
 37 38  1  0  0  0  0
 38 39  1  0  0  0  0
 39 40  1  0  0  0  0
M  END
>  <minimizedAffinity>
-6.13585424

$$$$

 OpenBabel03242519303D

 40 43  0  0  0  0  0  0  0  0999 V2000
   32.4530   29.2840   36.0690 C   0  0  0  0  0  0  0  0  0  0  0  0
   33.0390   28.6720   34.9210 C   0  0  0  0  0  0  0  0  0  0  0  0
   34.2670   28.0110   35.0460 C   0  0  0  0  0  0  0  0  0  0  0  0
   34.8290   28.0040   36.3010 N   0  0  0  0  0  0  0  0  0  0  0  0
   34.2270   28.6090   37.3830 C   0  0  0  0  0  0  0  0  0  0  0  0
   33.0690   29.2270   37.2450 N   0  0  0  0  0  0  0  0  0  0  0  0
   32.6640   28.6370   33.9230 H   0  0  0  0  0  0  0  0  0  0  0  0
   34.7690   27.5310   34.2410 H   0  0  0  0  0  0  0  0  0  0  0  0
   31.1690   29.9510   35.8160 C   0  0  0  0  0  0  0  0  0  0  0  0
   31.1260   30.7640   34.6140 C   0  0  0  0  0  0  0  0  0  0  0  0
   31.0140   32.2180   34.8470 C   0  0  0  0  0  0  0  0  0  0  0  0
   29.8470   32.5820   35.7580 C   0  0  0  0  0  0  0  0  0  0  0  0
   29.6020   31.6040   36.8520 C   0  0  0  0  0  0  0  0  0  0  0  0
   30.8460   30.7610   37.1000 C   0  0  0  0  0  0  0  0  0  0  0  0
   30.3710   29.1510   35.8440 H   0  0  0  0  0  0  0  0  0  0  0  0
   30.2230   30.4640   34.0040 H   0  0  0  0  0  0  0  0  0  0  0  0
   31.9770   30.6090   33.9130 H   0  0  0  0  0  0  0  0  0  0  0  0
   31.8940   32.7420   35.2130 H   0  0  0  0  0  0  0  0  0  0  0  0
   30.7820   32.6900   33.8470 H   0  0  0  0  0  0  0  0  0  0  0  0
   28.9340   32.7120   35.1440 H   0  0  0  0  0  0  0  0  0  0  0  0
   30.0550   33.5750   36.2190 H   0  0  0  0  0  0  0  0  0  0  0  0
   29.2870   32.0290   37.8080 H   0  0  0  0  0  0  0  0  0  0  0  0
   28.8360   30.8760   36.4520 H   0  0  0  0  0  0  0  0  0  0  0  0
   31.7070   31.4390   37.2190 H   0  0  0  0  0  0  0  0  0  0  0  0
   30.6530   30.0820   37.9340 H   0  0  0  0  0  0  0  0  0  0  0  0
   34.9780   28.4960   38.6210 C   0  0  0  0  0  0  0  0  0  0  0  0
   34.5650   29.2060   39.6900 N   0  0  0  0  0  0  0  0  0  0  0  0
   35.3980   28.9550   40.7270 C   0  0  0  0  0  0  0  0  0  0  0  0
   36.3300   28.0840   40.2950 N   0  0  0  0  0  0  0  0  0  0  0  0
   36.0820   27.7960   39.0050 N   0  0  0  0  0  0  0  0  0  0  0  0
   35.3250   29.3780   41.7200 H   0  0  0  0  0  0  0  0  0  0  0  0
   37.4480   27.5080   41.0390 C   0  0  0  0  0  0  0  0  0  0  0  0
   38.2380   28.2510   41.1200 H   0  0  0  0  0  0  0  0  0  0  0  0
   37.8730   26.6650   40.4410 H   0  0  0  0  0  0  0  0  0  0  0  0
   37.0360   26.9080   42.3570 C   0  0  0  0  0  3  0  0  0  0  0  0
   37.3450   25.4170   42.3220 C   0  0  0  0  0  2  0  0  0  0  0  0
   38.8090   25.1270   42.3060 C   0  0  0  0  0  2  0  0  0  0  0  0
   39.5590   25.8090   43.4280 C   0  0  0  0  0  2  0  0  0  0  0  0
   39.2440   27.2750   43.5210 C   0  0  0  0  0  2  0  0  0  0  0  0
   37.7530   27.4750   43.5410 C   0  0  0  0  0  2  0  0  0  0  0  0
  1  6  1  0  0  0  0
  2  3  1  0  0  0  0
  2  1  2  0  0  0  0
  3  4  2  0  0  0  0
  4  5  1  0  0  0  0
  5 26  1  0  0  0  0
  6  5  2  0  0  0  0
  7  2  1  0  0  0  0
  8  3  1  0  0  0  0
  9 15  1  0  0  0  0
  9  1  1  0  0  0  0
  9 14  1  0  0  0  0
 10 11  1  0  0  0  0
 10  9  1  0  0  0  0
 11 18  1  0  0  0  0
 11 12  1  0  0  0  0
 12 21  1  0  0  0  0
 12 13  1  0  0  0  0
 13 14  1  0  0  0  0
 13 22  1  0  0  0  0
 14 24  1  0  0  0  0
 14 25  1  0  0  0  0
 16 10  1  0  0  0  0
 17 10  1  0  0  0  0
 19 11  1  0  0  0  0
 20 12  1  0  0  0  0
 23 13  1  0  0  0  0
 26 30  2  0  0  0  0
 26 27  1  0  0  0  0
 27 28  2  0  0  0  0
 28 31  1  0  0  0  0
 29 28  1  0  0  0  0
 29 32  1  0  0  0  0
 30 29  1  0  0  0  0
 32 33  1  0  0  0  0
 32 35  1  0  0  0  0
 34 32  1  0  0  0  0
 35 40  1  0  0  0  0
 36 35  1  0  0  0  0
 37 36  1  0  0  0  0
 37 38  1  0  0  0  0
 38 39  1  0  0  0  0
 39 40  1  0  0  0  0
M  END
>  <minimizedAffinity>
-6.07899761

$$$$

 OpenBabel03242519303D

 40 43  0  0  0  0  0  0  0  0999 V2000
   32.7710   29.2790   36.9460 C   0  0  0  0  0  0  0  0  0  0  0  0
   33.5050   29.2060   35.7250 C   0  0  0  0  0  0  0  0  0  0  0  0
   34.8690   28.8880   35.7630 C   0  0  0  0  0  0  0  0  0  0  0  0
   35.4080   28.6670   37.0070 N   0  0  0  0  0  0  0  0  0  0  0  0
   34.6600   28.7490   38.1620 C   0  0  0  0  0  0  0  0  0  0  0  0
   33.3760   29.0500   38.1060 N   0  0  0  0  0  0  0  0  0  0  0  0
   33.1560   29.3630   34.7300 H   0  0  0  0  0  0  0  0  0  0  0  0
   35.4850   28.8140   34.9000 H   0  0  0  0  0  0  0  0  0  0  0  0
   31.3510   29.6250   36.7840 C   0  0  0  0  0  0  0  0  0  0  0  0
   31.0750   30.6250   35.7700 C   0  0  0  0  0  0  0  0  0  0  0  0
   30.5890   31.9200   36.2850 C   0  0  0  0  0  0  0  0  0  0  0  0
   29.3840   31.7740   37.2060 C   0  0  0  0  0  0  0  0  0  0  0  0
   29.4230   30.5650   38.0720 C   0  0  0  0  0  0  0  0  0  0  0  0
   30.8490   30.0440   38.1920 C   0  0  0  0  0  0  0  0  0  0  0  0
   30.7930   28.6560   36.6220 H   0  0  0  0  0  0  0  0  0  0  0  0
   30.2730   30.2300   35.0780 H   0  0  0  0  0  0  0  0  0  0  0  0
   31.9250   30.8440   35.0830 H   0  0  0  0  0  0  0  0  0  0  0  0
   31.3060   32.5710   36.7810 H   0  0  0  0  0  0  0  0  0  0  0  0
   30.2240   32.5090   35.3920 H   0  0  0  0  0  0  0  0  0  0  0  0
   28.4580   31.7830   36.5970 H   0  0  0  0  0  0  0  0  0  0  0  0
   29.3300   32.6710   37.8650 H   0  0  0  0  0  0  0  0  0  0  0  0
   29.0240   30.6900   39.0810 H   0  0  0  0  0  0  0  0  0  0  0  0
   28.8690   29.7590   37.5060 H   0  0  0  0  0  0  0  0  0  0  0  0
   31.5030   30.8850   38.4770 H   0  0  0  0  0  0  0  0  0  0  0  0
   30.8570   29.1830   38.8660 H   0  0  0  0  0  0  0  0  0  0  0  0
   35.4110   28.4850   39.3760 C   0  0  0  0  0  0  0  0  0  0  0  0
   35.4660   29.4470   40.3200 N   0  0  0  0  0  0  0  0  0  0  0  0
   36.2090   28.9950   41.3580 C   0  0  0  0  0  0  0  0  0  0  0  0
   36.6140   27.7490   41.0530 N   0  0  0  0  0  0  0  0  0  0  0  0
   36.1310   27.4250   39.8400 N   0  0  0  0  0  0  0  0  0  0  0  0
   36.4330   29.5410   42.2650 H   0  0  0  0  0  0  0  0  0  0  0  0
   37.4380   26.8410   41.8490 C   0  0  0  0  0  0  0  0  0  0  0  0
   36.9320   25.8810   41.9250 H   0  0  0  0  0  0  0  0  0  0  0  0
   37.5010   27.2440   42.8900 H   0  0  0  0  0  0  0  0  0  0  0  0
   38.8580   26.7460   41.3600 C   0  0  0  0  0  3  0  0  0  0  0  0
   39.7670   27.3840   42.4030 C   0  0  0  0  0  2  0  0  0  0  0  0
   39.8350   26.5990   43.6710 C   0  0  0  0  0  2  0  0  0  0  0  0
   40.1980   25.1490   43.4500 C   0  0  0  0  0  2  0  0  0  0  0  0
   39.3500   24.4990   42.3940 C   0  0  0  0  0  2  0  0  0  0  0  0
   39.3450   25.3480   41.1520 C   0  0  0  0  0  2  0  0  0  0  0  0
  1  6  1  0  0  0  0
  2  3  1  0  0  0  0
  2  1  2  0  0  0  0
  3  4  2  0  0  0  0
  4  5  1  0  0  0  0
  5 26  1  0  0  0  0
  6  5  2  0  0  0  0
  7  2  1  0  0  0  0
  8  3  1  0  0  0  0
  9  1  1  0  0  0  0
  9 14  1  0  0  0  0
 10 11  1  0  0  0  0
 10  9  1  0  0  0  0
 11 18  1  0  0  0  0
 11 12  1  0  0  0  0
 12 21  1  0  0  0  0
 12 13  1  0  0  0  0
 13 14  1  0  0  0  0
 13 22  1  0  0  0  0
 14 24  1  0  0  0  0
 14 25  1  0  0  0  0
 15  9  1  0  0  0  0
 16 10  1  0  0  0  0
 17 10  1  0  0  0  0
 19 11  1  0  0  0  0
 20 12  1  0  0  0  0
 23 13  1  0  0  0  0
 26 30  2  0  0  0  0
 26 27  1  0  0  0  0
 27 28  2  0  0  0  0
 28 31  1  0  0  0  0
 29 28  1  0  0  0  0
 29 32  1  0  0  0  0
 30 29  1  0  0  0  0
 32 33  1  0  0  0  0
 32 34  1  0  0  0  0
 35 32  1  0  0  0  0
 35 36  1  0  0  0  0
 36 37  1  0  0  0  0
 38 37  1  0  0  0  0
 39 38  1  0  0  0  0
 40 35  1  0  0  0  0
 40 39  1  0  0  0  0
M  END
>  <minimizedAffinity>
-5.67960596

$$$$

 OpenBabel03242519303D

 40 43  0  0  0  0  0  0  0  0999 V2000
   36.8650   28.1210   41.7480 C   0  0  0  0  0  0  0  0  0  0  0  0
   37.2590   29.4150   42.2010 C   0  0  0  0  0  0  0  0  0  0  0  0
   36.8750   30.5460   41.4690 C   0  0  0  0  0  0  0  0  0  0  0  0
   36.1270   30.3140   40.3390 N   0  0  0  0  0  0  0  0  0  0  0  0
   35.7690   29.0440   39.9380 C   0  0  0  0  0  0  0  0  0  0  0  0
   36.1410   27.9910   40.6410 N   0  0  0  0  0  0  0  0  0  0  0  0
   37.8340   29.6700   43.0620 H   0  0  0  0  0  0  0  0  0  0  0  0
   37.1270   31.5420   41.7390 H   0  0  0  0  0  0  0  0  0  0  0  0
   37.3300   27.0110   42.5920 C   0  0  0  0  0  0  0  0  0  0  0  0
   38.2240   27.3930   43.6690 C   0  0  0  0  0  0  0  0  0  0  0  0
   39.6140   26.9150   43.5260 C   0  0  0  0  0  0  0  0  0  0  0  0
   39.7000   25.4120   43.2920 C   0  0  0  0  0  0  0  0  0  0  0  0
   38.6060   24.8640   42.4470 C   0  0  0  0  0  0  0  0  0  0  0  0
   37.9620   25.9730   41.6260 C   0  0  0  0  0  0  0  0  0  0  0  0
   36.4090   26.4610   42.9480 H   0  0  0  0  0  0  0  0  0  0  0  0
   37.8320   26.9620   44.6380 H   0  0  0  0  0  0  0  0  0  0  0  0
   38.2730   28.4870   43.8730 H   0  0  0  0  0  0  0  0  0  0  0  0
   40.2440   27.4010   42.7830 H   0  0  0  0  0  0  0  0  0  0  0  0
   40.1260   27.1020   44.5160 H   0  0  0  0  0  0  0  0  0  0  0  0
   39.7300   24.8930   44.2700 H   0  0  0  0  0  0  0  0  0  0  0  0
   40.6710   25.1860   42.7920 H   0  0  0  0  0  0  0  0  0  0  0  0
   38.8890   24.0600   41.7630 H   0  0  0  0  0  0  0  0  0  0  0  0
   37.7980   24.5300   43.1630 H   0  0  0  0  0  0  0  0  0  0  0  0
   38.7610   26.5320   41.1090 H   0  0  0  0  0  0  0  0  0  0  0  0
   37.1910   25.5390   40.9840 H   0  0  0  0  0  0  0  0  0  0  0  0
   34.9830   29.0060   38.7180 C   0  0  0  0  0  0  0  0  0  0  0  0
   35.6300   29.0340   37.5350 N   0  0  0  0  0  0  0  0  0  0  0  0
   34.7150   28.9910   36.5380 C   0  0  0  0  0  0  0  0  0  0  0  0
   33.4980   28.9350   37.1090 N   0  0  0  0  0  0  0  0  0  0  0  0
   33.6490   28.9450   38.4450 N   0  0  0  0  0  0  0  0  0  0  0  0
   34.9290   28.9990   35.4770 H   0  0  0  0  0  0  0  0  0  0  0  0
   32.1910   28.8740   36.4560 C   0  0  0  0  0  0  0  0  0  0  0  0
   31.7070   27.9380   36.7250 H   0  0  0  0  0  0  0  0  0  0  0  0
   32.3500   28.8350   35.3510 H   0  0  0  0  0  0  0  0  0  0  0  0
   31.3460   30.0930   36.7070 C   0  0  0  0  0  3  0  0  0  0  0  0
   31.2800   30.9030   35.4180 C   0  0  0  0  0  2  0  0  0  0  0  0
   30.5060   30.2190   34.3410 C   0  0  0  0  0  2  0  0  0  0  0  0
   29.1250   29.7950   34.7840 C   0  0  0  0  0  2  0  0  0  0  0  0
   29.1470   29.0300   36.0770 C   0  0  0  0  0  2  0  0  0  0  0  0
   29.9360   29.7930   37.1060 C   0  0  0  0  0  2  0  0  0  0  0  0
  1  2  1  0  0  0  0
  1  9  1  0  0  0  0
  2  7  1  0  0  0  0
  3  8  1  0  0  0  0
  3  2  2  0  0  0  0
  4  3  1  0  0  0  0
  5  4  2  0  0  0  0
  5  6  1  0  0  0  0
  6  1  2  0  0  0  0
  9 15  1  0  0  0  0
  9 10  1  0  0  0  0
 10 17  1  0  0  0  0
 10 16  1  0  0  0  0
 11 10  1  0  0  0  0
 11 19  1  0  0  0  0
 12 11  1  0  0  0  0
 12 20  1  0  0  0  0
 13 23  1  0  0  0  0
 13 12  1  0  0  0  0
 14 13  1  0  0  0  0
 14  9  1  0  0  0  0
 18 11  1  0  0  0  0
 21 12  1  0  0  0  0
 22 13  1  0  0  0  0
 24 14  1  0  0  0  0
 25 14  1  0  0  0  0
 26  5  1  0  0  0  0
 27 26  1  0  0  0  0
 28 29  1  0  0  0  0
 28 27  2  0  0  0  0
 29 30  1  0  0  0  0
 30 26  2  0  0  0  0
 31 28  1  0  0  0  0
 32 35  1  0  0  0  0
 32 33  1  0  0  0  0
 32 29  1  0  0  0  0
 34 32  1  0  0  0  0
 35 40  1  0  0  0  0
 36 35  1  0  0  0  0
 37 38  1  0  0  0  0
 37 36  1  0  0  0  0
 38 39  1  0  0  0  0
 39 40  1  0  0  0  0
M  END
>  <minimizedAffinity>
-5.56091595

$$$$

 OpenBabel03242519303D

 40 43  0  0  0  0  0  0  0  0999 V2000
   40.4760   33.0020   39.1790 C   0  0  0  0  0  0  0  0  0  0  0  0
   39.8460   34.1430   39.7590 C   0  0  0  0  0  0  0  0  0  0  0  0
   38.8510   33.9590   40.7280 C   0  0  0  0  0  0  0  0  0  0  0  0
   38.5500   32.6580   41.0520 N   0  0  0  0  0  0  0  0  0  0  0  0
   39.1840   31.5840   40.4650 C   0  0  0  0  0  0  0  0  0  0  0  0
   40.1200   31.7780   39.5540 N   0  0  0  0  0  0  0  0  0  0  0  0
   40.0270   35.1740   39.5600 H   0  0  0  0  0  0  0  0  0  0  0  0
   38.3350   34.7550   41.2070 H   0  0  0  0  0  0  0  0  0  0  0  0
   41.5000   33.3160   38.1720 C   0  0  0  0  0  0  0  0  0  0  0  0
   41.8210   32.2310   37.2650 C   0  0  0  0  0  0  0  0  0  0  0  0
   43.1780   31.6680   37.4200 C   0  0  0  0  0  0  0  0  0  0  0  0
   44.2680   32.7310   37.3600 C   0  0  0  0  0  0  0  0  0  0  0  0
   43.8930   34.0240   37.9920 C   0  0  0  0  0  0  0  0  0  0  0  0
   42.7360   33.8250   38.9620 C   0  0  0  0  0  0  0  0  0  0  0  0
   41.1630   34.2570   37.6440 H   0  0  0  0  0  0  0  0  0  0  0  0
   41.7480   32.6100   36.2030 H   0  0  0  0  0  0  0  0  0  0  0  0
   41.1080   31.3760   37.2850 H   0  0  0  0  0  0  0  0  0  0  0  0
   43.3720   31.0450   38.2910 H   0  0  0  0  0  0  0  0  0  0  0  0
   43.3540   30.9950   36.5290 H   0  0  0  0  0  0  0  0  0  0  0  0
   44.5640   32.8880   36.3040 H   0  0  0  0  0  0  0  0  0  0  0  0
   45.1730   32.3400   37.8800 H   0  0  0  0  0  0  0  0  0  0  0  0
   44.6930   34.5430   38.5250 H   0  0  0  0  0  0  0  0  0  0  0  0
   43.4670   34.6630   37.1630 H   0  0  0  0  0  0  0  0  0  0  0  0
   42.9890   32.9930   39.6390 H   0  0  0  0  0  0  0  0  0  0  0  0
   42.5070   34.7800   39.4430 H   0  0  0  0  0  0  0  0  0  0  0  0
   38.7240   30.2910   40.9370 C   0  0  0  0  0  0  0  0  0  0  0  0
   38.5200   30.1260   42.2600 N   0  0  0  0  0  0  0  0  0  0  0  0
   38.0980   28.8580   42.4790 C   0  0  0  0  0  0  0  0  0  0  0  0
   38.0400   28.2390   41.2850 N   0  0  0  0  0  0  0  0  0  0  0  0
   38.4230   29.1080   40.3320 N   0  0  0  0  0  0  0  0  0  0  0  0
   37.8520   28.4260   43.4400 H   0  0  0  0  0  0  0  0  0  0  0  0
   37.6420   26.8630   40.9940 C   0  0  0  0  0  0  0  0  0  0  0  0
   38.0960   26.5560   40.0550 H   0  0  0  0  0  0  0  0  0  0  0  0
   36.5370   26.8430   40.8270 H   0  0  0  0  0  0  0  0  0  0  0  0
   37.9010   25.9170   42.1360 C   0  0  0  0  0  3  0  0  0  0  0  0
   36.7470   24.9260   42.2060 C   0  0  0  0  0  2  0  0  0  0  0  0
   36.7130   23.9890   41.0440 C   0  0  0  0  0  2  0  0  0  0  0  0
   38.0270   23.2760   40.8220 C   0  0  0  0  0  2  0  0  0  0  0  0
   39.1940   24.2200   40.7900 C   0  0  0  0  0  2  0  0  0  0  0  0
   39.1570   25.1170   41.9980 C   0  0  0  0  0  2  0  0  0  0  0  0
  1  6  2  0  0  0  0
  1  2  1  0  0  0  0
  2  3  2  0  0  0  0
  3  4  1  0  0  0  0
  3  8  1  0  0  0  0
  5 26  1  0  0  0  0
  5  4  2  0  0  0  0
  6  5  1  0  0  0  0
  7  2  1  0  0  0  0
  9 14  1  0  0  0  0
  9  1  1  0  0  0  0
 10 17  1  0  0  0  0
 10 11  1  0  0  0  0
 10  9  1  0  0  0  0
 11 18  1  0  0  0  0
 12 11  1  0  0  0  0
 12 21  1  0  0  0  0
 12 13  1  0  0  0  0
 13 22  1  0  0  0  0
 13 14  1  0  0  0  0
 14 25  1  0  0  0  0
 14 24  1  0  0  0  0
 15  9  1  0  0  0  0
 16 10  1  0  0  0  0
 19 11  1  0  0  0  0
 20 12  1  0  0  0  0
 23 13  1  0  0  0  0
 26 27  1  0  0  0  0
 27 28  2  0  0  0  0
 28 31  1  0  0  0  0
 29 28  1  0  0  0  0
 30 26  2  0  0  0  0
 30 29  1  0  0  0  0
 32 29  1  0  0  0  0
 32 35  1  0  0  0  0
 33 32  1  0  0  0  0
 34 32  1  0  0  0  0
 35 36  1  0  0  0  0
 37 36  1  0  0  0  0
 38 37  1  0  0  0  0
 39 38  1  0  0  0  0
 39 40  1  0  0  0  0
 40 35  1  0  0  0  0
M  END
>  <minimizedAffinity>
-5.44935942

$$$$

 OpenBabel03242519303D

 40 43  0  0  0  0  0  0  0  0999 V2000
   36.6560   24.2790   40.1520 C   0  0  0  0  0  0  0  0  0  0  0  0
   37.4120   23.5250   41.0990 C   0  0  0  0  0  0  0  0  0  0  0  0
   38.0950   24.1950   42.1220 C   0  0  0  0  0  0  0  0  0  0  0  0
   37.9820   25.5650   42.1330 N   0  0  0  0  0  0  0  0  0  0  0  0
   37.2410   26.2530   41.1960 C   0  0  0  0  0  0  0  0  0  0  0  0
   36.6040   25.6040   40.2400 N   0  0  0  0  0  0  0  0  0  0  0  0
   37.5430   22.4690   41.1530 H   0  0  0  0  0  0  0  0  0  0  0  0
   38.6780   23.7080   42.8650 H   0  0  0  0  0  0  0  0  0  0  0  0
   35.9870   23.4700   39.1230 C   0  0  0  0  0  0  0  0  0  0  0  0
   35.8320   24.1220   37.8360 C   0  0  0  0  0  0  0  0  0  0  0  0
   34.4400   24.4430   37.4630 C   0  0  0  0  0  0  0  0  0  0  0  0
   33.5130   23.2370   37.5450 C   0  0  0  0  0  0  0  0  0  0  0  0
   33.8160   22.3130   38.6710 C   0  0  0  0  0  0  0  0  0  0  0  0
   34.6330   23.0270   39.7400 C   0  0  0  0  0  0  0  0  0  0  0  0
   36.5440   22.4880   39.0640 H   0  0  0  0  0  0  0  0  0  0  0  0
   36.2330   23.4370   37.0310 H   0  0  0  0  0  0  0  0  0  0  0  0
   36.4290   25.0530   37.7060 H   0  0  0  0  0  0  0  0  0  0  0  0
   33.9540   25.2690   37.9790 H   0  0  0  0  0  0  0  0  0  0  0  0
   34.4570   24.7440   36.3740 H   0  0  0  0  0  0  0  0  0  0  0  0
   33.5390   22.6920   36.5810 H   0  0  0  0  0  0  0  0  0  0  0  0
   32.4670   23.6010   37.6670 H   0  0  0  0  0  0  0  0  0  0  0  0
   32.9510   21.8570   39.1590 H   0  0  0  0  0  0  0  0  0  0  0  0
   34.5130   21.5290   38.2510 H   0  0  0  0  0  0  0  0  0  0  0  0
   34.1250   23.9730   39.9910 H   0  0  0  0  0  0  0  0  0  0  0  0
   34.8060   22.3410   40.5730 H   0  0  0  0  0  0  0  0  0  0  0  0
   37.2480   27.6940   41.3740 C   0  0  0  0  0  0  0  0  0  0  0  0
   37.6960   28.1950   42.5440 N   0  0  0  0  0  0  0  0  0  0  0  0
   37.6170   29.5460   42.4960 C   0  0  0  0  0  0  0  0  0  0  0  0
   37.1180   29.8790   41.2920 N   0  0  0  0  0  0  0  0  0  0  0  0
   36.8880   28.7530   40.5950 N   0  0  0  0  0  0  0  0  0  0  0  0
   37.9040   30.2280   43.2850 H   0  0  0  0  0  0  0  0  0  0  0  0
   36.8440   31.2140   40.7600 C   0  0  0  0  0  0  0  0  0  0  0  0
   37.0240   31.9480   41.5420 H   0  0  0  0  0  0  0  0  0  0  0  0
   35.7560   31.2790   40.5150 H   0  0  0  0  0  0  0  0  0  0  0  0
   37.5730   31.5000   39.4750 C   0  0  0  0  0  3  0  0  0  0  0  0
   37.1630   32.8850   38.9910 C   0  0  0  0  0  2  0  0  0  0  0  0
   37.6670   33.9810   39.8720 C   0  0  0  0  0  2  0  0  0  0  0  0
   39.1580   33.9090   40.1090 C   0  0  0  0  0  2  0  0  0  0  0  0
   39.6050   32.5440   40.5450 C   0  0  0  0  0  2  0  0  0  0  0  0
   39.0630   31.5050   39.6010 C   0  0  0  0  0  2  0  0  0  0  0  0
  1  6  2  0  0  0  0
  1  2  1  0  0  0  0
  2  7  1  0  0  0  0
  2  3  2  0  0  0  0
  3  4  1  0  0  0  0
  3  8  1  0  0  0  0
  5 26  1  0  0  0  0
  5  4  2  0  0  0  0
  6  5  1  0  0  0  0
  9 14  1  0  0  0  0
  9  1  1  0  0  0  0
 10  9  1  0  0  0  0
 11 12  1  0  0  0  0
 11 10  1  0  0  0  0
 11 18  1  0  0  0  0
 12 21  1  0  0  0  0
 12 13  1  0  0  0  0
 13 22  1  0  0  0  0
 13 14  1  0  0  0  0
 14 24  1  0  0  0  0
 14 25  1  0  0  0  0
 15  9  1  0  0  0  0
 16 10  1  0  0  0  0
 17 10  1  0  0  0  0
 19 11  1  0  0  0  0
 20 12  1  0  0  0  0
 23 13  1  0  0  0  0
 26 27  1  0  0  0  0
 28 27  2  0  0  0  0
 28 31  1  0  0  0  0
 29 28  1  0  0  0  0
 30 29  1  0  0  0  0
 30 26  2  0  0  0  0
 32 29  1  0  0  0  0
 32 33  1  0  0  0  0
 34 32  1  0  0  0  0
 35 40  1  0  0  0  0
 35 32  1  0  0  0  0
 36 35  1  0  0  0  0
 36 37  1  0  0  0  0
 37 38  1  0  0  0  0
 38 39  1  0  0  0  0
 40 39  1  0  0  0  0
M  END
>  <minimizedAffinity>
-5.40511513

$$$$

 OpenBabel03242519303D

 40 43  0  0  0  0  0  0  0  0999 V2000
   35.5160   28.7240   40.0210 C   0  0  0  0  0  0  0  0  0  0  0  0
   36.3740   27.8110   39.3380 C   0  0  0  0  0  0  0  0  0  0  0  0
   36.0170   27.3560   38.0630 C   0  0  0  0  0  0  0  0  0  0  0  0
   34.8350   27.8370   37.5540 N   0  0  0  0  0  0  0  0  0  0  0  0
   34.0350   28.7180   38.2490 C   0  0  0  0  0  0  0  0  0  0  0  0
   34.3880   29.1350   39.4510 N   0  0  0  0  0  0  0  0  0  0  0  0
   37.3000   27.3990   39.6680 H   0  0  0  0  0  0  0  0  0  0  0  0
   36.6010   26.6770   37.4890 H   0  0  0  0  0  0  0  0  0  0  0  0
   35.9890   29.1270   41.3520 C   0  0  0  0  0  0  0  0  0  0  0  0
   36.8430   30.3000   41.3700 C   0  0  0  0  0  0  0  0  0  0  0  0
   38.2490   30.0440   41.7400 C   0  0  0  0  0  0  0  0  0  0  0  0
   38.3840   29.2880   43.0560 C   0  0  0  0  0  0  0  0  0  0  0  0
   37.3290   28.2640   43.2810 C   0  0  0  0  0  0  0  0  0  0  0  0
   36.6760   27.8750   41.9610 C   0  0  0  0  0  0  0  0  0  0  0  0
   35.0750   29.2280   42.0100 H   0  0  0  0  0  0  0  0  0  0  0  0
   36.4370   31.0340   42.1280 H   0  0  0  0  0  0  0  0  0  0  0  0
   36.8550   30.8860   40.4230 H   0  0  0  0  0  0  0  0  0  0  0  0
   38.8840   29.5490   41.0080 H   0  0  0  0  0  0  0  0  0  0  0  0
   38.7280   31.0530   41.9140 H   0  0  0  0  0  0  0  0  0  0  0  0
   38.4030   30.0140   43.8930 H   0  0  0  0  0  0  0  0  0  0  0  0
   39.3740   28.7750   43.0700 H   0  0  0  0  0  0  0  0  0  0  0  0
   37.6530   27.3470   43.7780 H   0  0  0  0  0  0  0  0  0  0  0  0
   36.5120   28.7830   43.8640 H   0  0  0  0  0  0  0  0  0  0  0  0
   37.4720   27.6230   41.2410 H   0  0  0  0  0  0  0  0  0  0  0  0
   35.9360   27.0930   42.1470 H   0  0  0  0  0  0  0  0  0  0  0  0
   32.8260   29.1060   37.5460 C   0  0  0  0  0  0  0  0  0  0  0  0
   31.8200   29.6600   38.2530 N   0  0  0  0  0  0  0  0  0  0  0  0
   30.8000   29.9430   37.4090 C   0  0  0  0  0  0  0  0  0  0  0  0
   31.1790   29.5630   36.1750 N   0  0  0  0  0  0  0  0  0  0  0  0
   32.4190   29.0480   36.2460 N   0  0  0  0  0  0  0  0  0  0  0  0
   29.8550   30.3930   37.6810 H   0  0  0  0  0  0  0  0  0  0  0  0
   30.4280   29.6590   34.9240 C   0  0  0  0  0  0  0  0  0  0  0  0
   29.3860   29.8660   35.1550 H   0  0  0  0  0  0  0  0  0  0  0  0
   30.4440   28.6600   34.4250 H   0  0  0  0  0  0  0  0  0  0  0  0
   31.0380   30.6200   33.9390 C   0  0  0  0  0  3  0  0  0  0  0  0
   30.1560   30.6560   32.6980 C   0  0  0  0  0  2  0  0  0  0  0  0
   28.8270   31.2880   32.9470 C   0  0  0  0  0  2  0  0  0  0  0  0
   28.9330   32.6580   33.5760 C   0  0  0  0  0  2  0  0  0  0  0  0
   29.8310   32.6690   34.7800 C   0  0  0  0  0  2  0  0  0  0  0  0
   31.1480   32.0250   34.4380 C   0  0  0  0  0  2  0  0  0  0  0  0
  1  9  1  0  0  0  0
  2  7  1  0  0  0  0
  2  1  2  0  0  0  0
  3  2  1  0  0  0  0
  4  3  2  0  0  0  0
  4  5  1  0  0  0  0
  5  6  2  0  0  0  0
  6  1  1  0  0  0  0
  8  3  1  0  0  0  0
  9 10  1  0  0  0  0
  9 14  1  0  0  0  0
  9 15  1  0  0  0  0
 10 11  1  0  0  0  0
 10 16  1  0  0  0  0
 11 19  1  0  0  0  0
 11 12  1  0  0  0  0
 12 21  1  0  0  0  0
 12 13  1  0  0  0  0
 12 20  1  0  0  0  0
 13 22  1  0  0  0  0
 13 23  1  0  0  0  0
 14 25  1  0  0  0  0
 14 13  1  0  0  0  0
 17 10  1  0  0  0  0
 18 11  1  0  0  0  0
 24 14  1  0  0  0  0
 26  5  1  0  0  0  0
 26 27  1  0  0  0  0
 28 31  1  0  0  0  0
 28 27  2  0  0  0  0
 29 30  1  0  0  0  0
 29 28  1  0  0  0  0
 30 26  2  0  0  0  0
 32 33  1  0  0  0  0
 32 29  1  0  0  0  0
 34 32  1  0  0  0  0
 35 40  1  0  0  0  0
 35 32  1  0  0  0  0
 36 37  1  0  0  0  0
 36 35  1  0  0  0  0
 37 38  1  0  0  0  0
 38 39  1  0  0  0  0
 40 39  1  0  0  0  0
M  END
>  <minimizedAffinity>
-5.37659883

$$$$

 OpenBabel03242519303D

 40 43  0  0  0  0  0  0  0  0999 V2000
   32.4370   29.0360   36.4480 C   0  0  0  0  0  0  0  0  0  0  0  0
   32.6120   28.1880   35.3140 C   0  0  0  0  0  0  0  0  0  0  0  0
   33.8670   27.6150   35.0720 C   0  0  0  0  0  0  0  0  0  0  0  0
   34.8610   27.9240   35.9700 N   0  0  0  0  0  0  0  0  0  0  0  0
   34.6470   28.7500   37.0530 C   0  0  0  0  0  0  0  0  0  0  0  0
   33.4570   29.2800   37.2640 N   0  0  0  0  0  0  0  0  0  0  0  0
   31.8920   27.9040   34.5810 H   0  0  0  0  0  0  0  0  0  0  0  0
   34.0790   26.9730   34.2520 H   0  0  0  0  0  0  0  0  0  0  0  0
   31.0810   29.5830   36.5980 C   0  0  0  0  0  0  0  0  0  0  0  0
   30.7380   30.6360   35.6610 C   0  0  0  0  0  0  0  0  0  0  0  0
   30.5660   31.9740   36.2610 C   0  0  0  0  0  0  0  0  0  0  0  0
   29.5810   31.9770   37.4230 C   0  0  0  0  0  0  0  0  0  0  0  0
   29.6330   30.7540   38.2680 C   0  0  0  0  0  0  0  0  0  0  0  0
   30.9620   30.0340   38.0780 C   0  0  0  0  0  0  0  0  0  0  0  0
   30.3680   28.7060   36.5680 H   0  0  0  0  0  0  0  0  0  0  0  0
   29.7570   30.3750   35.1640 H   0  0  0  0  0  0  0  0  0  0  0  0
   31.4410   30.7490   34.8040 H   0  0  0  0  0  0  0  0  0  0  0  0
   31.4600   32.5040   36.5840 H   0  0  0  0  0  0  0  0  0  0  0  0
   30.1040   32.6300   35.4650 H   0  0  0  0  0  0  0  0  0  0  0  0
   28.5560   32.1330   37.0310 H   0  0  0  0  0  0  0  0  0  0  0  0
   29.8010   32.8570   38.0720 H   0  0  0  0  0  0  0  0  0  0  0  0
   29.4850   30.9090   39.3400 H   0  0  0  0  0  0  0  0  0  0  0  0
   28.8600   30.0490   37.8430 H   0  0  0  0  0  0  0  0  0  0  0  0
   31.7760   30.7660   38.2080 H   0  0  0  0  0  0  0  0  0  0  0  0
   30.9920   29.1640   38.7400 H   0  0  0  0  0  0  0  0  0  0  0  0
   35.8200   28.9580   37.8820 C   0  0  0  0  0  0  0  0  0  0  0  0
   37.0360   28.9060   37.3000 N   0  0  0  0  0  0  0  0  0  0  0  0
   37.9800   29.1260   38.2460 C   0  0  0  0  0  0  0  0  0  0  0  0
   37.3430   29.3140   39.4170 N   0  0  0  0  0  0  0  0  0  0  0  0
   36.0190   29.2140   39.2060 N   0  0  0  0  0  0  0  0  0  0  0  0
   39.0490   29.1450   38.0850 H   0  0  0  0  0  0  0  0  0  0  0  0
   37.9210   29.5860   40.7320 C   0  0  0  0  0  0  0  0  0  0  0  0
   37.1510   30.0020   41.3760 H   0  0  0  0  0  0  0  0  0  0  0  0
   38.6970   30.3820   40.6180 H   0  0  0  0  0  0  0  0  0  0  0  0
   38.6350   28.3990   41.3210 C   0  0  0  0  0  3  0  0  0  0  0  0
   39.0680   28.7570   42.7370 C   0  0  0  0  0  2  0  0  0  0  0  0
   37.9180   28.9100   43.6760 C   0  0  0  0  0  2  0  0  0  0  0  0
   36.9940   27.7130   43.6780 C   0  0  0  0  0  2  0  0  0  0  0  0
   36.5810   27.3050   42.2930 C   0  0  0  0  0  2  0  0  0  0  0  0
   37.7980   27.1640   41.4190 C   0  0  0  0  0  2  0  0  0  0  0  0
  1  9  1  0  0  0  0
  1  6  1  0  0  0  0
  2  1  2  0  0  0  0
  3  2  1  0  0  0  0
  3  4  2  0  0  0  0
  4  5  1  0  0  0  0
  5  6  2  0  0  0  0
  5 26  1  0  0  0  0
  7  2  1  0  0  0  0
  8  3  1  0  0  0  0
  9 14  1  0  0  0  0
 10 11  1  0  0  0  0
 10  9  1  0  0  0  0
 11 18  1  0  0  0  0
 11 12  1  0  0  0  0
 12 21  1  0  0  0  0
 12 13  1  0  0  0  0
 13 22  1  0  0  0  0
 14 24  1  0  0  0  0
 14 13  1  0  0  0  0
 14 25  1  0  0  0  0
 15  9  1  0  0  0  0
 16 10  1  0  0  0  0
 17 10  1  0  0  0  0
 19 11  1  0  0  0  0
 20 12  1  0  0  0  0
 23 13  1  0  0  0  0
 26 30  2  0  0  0  0
 27 26  1  0  0  0  0
 27 28  2  0  0  0  0
 28 29  1  0  0  0  0
 29 32  1  0  0  0  0
 30 29  1  0  0  0  0
 31 28  1  0  0  0  0
 32 35  1  0  0  0  0
 32 33  1  0  0  0  0
 34 32  1  0  0  0  0
 35 40  1  0  0  0  0
 35 36  1  0  0  0  0
 36 37  1  0  0  0  0
 37 38  1  0  0  0  0
 39 38  1  0  0  0  0
 40 39  1  0  0  0  0
M  END
>  <minimizedAffinity>
-5.33322334

$$$$

 OpenBabel03242519303D

 40 43  0  0  0  0  0  0  0  0999 V2000
   35.9240   28.0160   40.0520 C   0  0  0  0  0  0  0  0  0  0  0  0
   36.5330   26.7390   39.8650 C   0  0  0  0  0  0  0  0  0  0  0  0
   36.3910   26.0840   38.6360 C   0  0  0  0  0  0  0  0  0  0  0  0
   35.6540   26.7400   37.6780 N   0  0  0  0  0  0  0  0  0  0  0  0
   35.0820   27.9740   37.9030 C   0  0  0  0  0  0  0  0  0  0  0  0
   35.2280   28.5750   39.0680 N   0  0  0  0  0  0  0  0  0  0  0  0
   37.1160   26.1740   40.5560 H   0  0  0  0  0  0  0  0  0  0  0  0
   36.8130   25.1330   38.4160 H   0  0  0  0  0  0  0  0  0  0  0  0
   36.1370   28.6040   41.3820 C   0  0  0  0  0  0  0  0  0  0  0  0
   36.8940   29.8420   41.3910 C   0  0  0  0  0  0  0  0  0  0  0  0
   38.2310   29.7510   42.0110 C   0  0  0  0  0  0  0  0  0  0  0  0
   38.1920   29.1600   43.4150 C   0  0  0  0  0  0  0  0  0  0  0  0
   37.1850   28.0800   43.5920 C   0  0  0  0  0  0  0  0  0  0  0  0
   36.7930   27.4920   42.2430 C   0  0  0  0  0  0  0  0  0  0  0  0
   35.1200   28.6980   41.8660 H   0  0  0  0  0  0  0  0  0  0  0  0
   36.3170   30.6170   41.9780 H   0  0  0  0  0  0  0  0  0  0  0  0
   37.0280   30.3180   40.3930 H   0  0  0  0  0  0  0  0  0  0  0  0
   39.0130   29.2350   41.4580 H   0  0  0  0  0  0  0  0  0  0  0  0
   38.6050   30.8110   42.1340 H   0  0  0  0  0  0  0  0  0  0  0  0
   38.0190   29.9740   44.1470 H   0  0  0  0  0  0  0  0  0  0  0  0
   39.1970   28.7400   43.6510 H   0  0  0  0  0  0  0  0  0  0  0  0
   37.4810   27.2550   44.2450 H   0  0  0  0  0  0  0  0  0  0  0  0
   36.2480   28.5870   43.9680 H   0  0  0  0  0  0  0  0  0  0  0  0
   37.7150   27.2310   41.6970 H   0  0  0  0  0  0  0  0  0  0  0  0
   36.0860   26.6740   42.4040 H   0  0  0  0  0  0  0  0  0  0  0  0
   34.3400   28.5000   36.7710 C   0  0  0  0  0  0  0  0  0  0  0  0
   35.0260   29.0890   35.7710 N   0  0  0  0  0  0  0  0  0  0  0  0
   34.1480   29.5040   34.8270 C   0  0  0  0  0  0  0  0  0  0  0  0
   32.9150   29.1680   35.2480 N   0  0  0  0  0  0  0  0  0  0  0  0
   33.0190   28.5520   36.4380 N   0  0  0  0  0  0  0  0  0  0  0  0
   34.3980   30.0110   33.9050 H   0  0  0  0  0  0  0  0  0  0  0  0
   31.6340   29.3990   34.5810 C   0  0  0  0  0  0  0  0  0  0  0  0
   31.2620   28.4530   34.1950 H   0  0  0  0  0  0  0  0  0  0  0  0
   31.8120   30.0500   33.6910 H   0  0  0  0  0  0  0  0  0  0  0  0
   30.6450   30.1400   35.4400 C   0  0  0  0  0  3  0  0  0  0  0  0
   31.1350   31.5730   35.6070 C   0  0  0  0  0  2  0  0  0  0  0  0
   31.0780   32.3580   34.3380 C   0  0  0  0  0  2  0  0  0  0  0  0
   29.7150   32.3250   33.6840 C   0  0  0  0  0  2  0  0  0  0  0  0
   29.1800   30.9280   33.5430 C   0  0  0  0  0  2  0  0  0  0  0  0
   29.2660   30.2140   34.8650 C   0  0  0  0  0  2  0  0  0  0  0  0
  1  9  1  0  0  0  0
  2  1  1  0  0  0  0
  2  7  1  0  0  0  0
  3  2  2  0  0  0  0
  4  5  2  0  0  0  0
  4  3  1  0  0  0  0
  5  6  1  0  0  0  0
  6  1  2  0  0  0  0
  8  3  1  0  0  0  0
  9 10  1  0  0  0  0
  9 15  1  0  0  0  0
  9 14  1  0  0  0  0
 10 16  1  0  0  0  0
 10 11  1  0  0  0  0
 11 19  1  0  0  0  0
 11 12  1  0  0  0  0
 12 13  1  0  0  0  0
 12 21  1  0  0  0  0
 12 20  1  0  0  0  0
 13 23  1  0  0  0  0
 13 22  1  0  0  0  0
 14 25  1  0  0  0  0
 14 13  1  0  0  0  0
 17 10  1  0  0  0  0
 18 11  1  0  0  0  0
 24 14  1  0  0  0  0
 26  5  1  0  0  0  0
 27 26  1  0  0  0  0
 28 29  1  0  0  0  0
 28 27  2  0  0  0  0
 29 30  1  0  0  0  0
 30 26  2  0  0  0  0
 31 28  1  0  0  0  0
 32 29  1  0  0  0  0
 32 35  1  0  0  0  0
 33 32  1  0  0  0  0
 34 32  1  0  0  0  0
 35 36  1  0  0  0  0
 37 36  1  0  0  0  0
 38 37  1  0  0  0  0
 39 38  1  0  0  0  0
 39 40  1  0  0  0  0
 40 35  1  0  0  0  0
M  END
>  <minimizedAffinity>
-5.3108182

$$$$
