
 OpenBabel03242513273D

 27 29  0  0  0  0  0  0  0  0999 V2000
   46.5240   34.1020   41.0030 C   0  0  0  0  0  0  0  0  0  0  0  0
   46.9800   34.8670   42.0630 C   0  0  0  0  0  0  0  0  0  0  0  0
   48.1590   35.5380   41.8870 C   0  0  0  0  0  0  0  0  0  0  0  0
   48.8720   35.4600   40.7010 C   0  0  0  0  0  0  0  0  0  0  0  0
   48.4090   34.7020   39.6670 C   0  0  0  0  0  0  0  0  0  0  0  0
   47.2160   34.0040   39.8010 C   0  0  0  0  0  0  0  0  0  0  0  0
   48.5460   36.1480   42.6990 H   0  0  0  0  0  0  0  0  0  0  0  0
   49.8000   35.9980   40.5840 H   0  0  0  0  0  0  0  0  0  0  0  0
   48.9490   34.6390   38.7580 H   0  0  0  0  0  0  0  0  0  0  0  0
   44.5130   35.9220   44.7170 C   0  0  0  0  0  0  0  0  0  0  0  0
   45.2720   35.9040   43.5410 C   0  0  0  0  0  0  0  0  0  0  0  0
   46.1930   34.9040   43.2640 C   0  0  0  0  0  0  0  0  0  0  0  0
   46.2910   33.9520   44.2320 N   0  0  0  0  0  0  0  0  0  0  0  0
   45.5700   33.9540   45.3700 C   0  0  0  0  0  0  0  0  0  0  0  0
   44.6880   34.9330   45.6080 N   0  0  0  0  0  0  0  0  0  0  0  0
   43.8110   36.7270   44.8800 H   0  0  0  0  0  0  0  0  0  0  0  0
   45.1360   36.6920   42.8240 H   0  0  0  0  0  0  0  0  0  0  0  0
   45.7570   33.1230   46.0530 H   0  0  0  0  0  0  0  0  0  0  0  0
   45.3220   33.4010   41.1440 O   0  0  0  0  0  0  0  0  0  0  0  0
   45.4540   32.4300   41.4650 H   0  0  0  0  0  0  0  0  0  0  0  0
   46.6710   33.2130   38.8110 O   0  0  0  0  0  0  0  0  0  0  0  0
   46.8040   33.3640   37.4480 C   0  0  0  0  0  0  0  0  0  0  0  0
   45.4180   33.2480   36.8340 C   0  0  0  0  0  0  0  0  0  0  0  0
   45.2790   32.0710   35.9200 C   0  0  0  0  0  0  0  0  0  0  0  0
   46.3710   31.9830   34.8940 C   0  0  0  0  0  0  0  0  0  0  0  0
   47.7430   32.2050   35.4510 C   0  0  0  0  0  0  0  0  0  0  0  0
   47.6660   32.2190   36.9470 C   0  0  0  0  0  0  0  0  0  0  0  0
  1 19  1  0  0  0  0
  1  2  1  0  0  0  0
  2 12  1  0  0  0  0
  3  2  2  0  0  0  0
  3  7  1  0  0  0  0
  4  3  1  0  0  0  0
  5  6  1  0  0  0  0
  5  4  2  0  0  0  0
  6  1  2  0  0  0  0
  8  4  1  0  0  0  0
  9  5  1  0  0  0  0
 10 16  1  0  0  0  0
 10 15  1  0  0  0  0
 11 10  2  0  0  0  0
 12 11  1  0  0  0  0
 12 13  2  0  0  0  0
 13 14  1  0  0  0  0
 14 15  2  0  0  0  0
 14 18  1  0  0  0  0
 17 11  1  0  0  0  0
 19 20  1  0  0  0  0
 21  6  1  0  0  0  0
 22 21  1  0  0  0  0
 23 22  1  0  0  0  0
 24 23  1  0  0  0  0
 25 26  1  0  0  0  0
 25 24  1  0  0  0  0
 26 27  1  0  0  0  0
 27 22  1  0  0  0  0
M  END
>  <minimizedAffinity>
-5.65222263

>  <minimizedRMSD>
0.741902053

$$$$
