
 OpenBabel03252507043D

 44 47  0  0  0  0  0  0  0  0999 V2000
   41.9220   31.4140   42.2690 C   0  0  0  0  0  0  0  0  0  0  0  0
   41.7610   32.1280   41.3910 H   0  0  0  0  0  0  0  0  0  0  0  0
   41.5310   31.9930   43.1340 H   0  0  0  0  0  0  0  0  0  0  0  0
   41.3280   30.2290   42.1180 N   0  0  0  0  0  0  0  0  0  0  0  0
   41.3930   29.0940   42.9740 C   0  0  0  0  0  0  0  0  0  0  0  0
   39.9980   29.1870   43.5930 C   0  0  0  0  0  0  0  0  0  0  0  0
   38.9160   29.1050   42.6290 C   0  0  0  0  0  0  0  0  0  0  0  0
   39.1660   29.4660   41.2510 C   0  0  0  0  0  0  0  0  0  0  0  0
   40.4830   30.1160   40.9020 C   0  0  0  0  0  0  0  0  0  0  0  0
   42.1100   29.3630   43.8010 H   0  0  0  0  0  0  0  0  0  0  0  0
   41.6400   28.1320   42.5600 H   0  0  0  0  0  0  0  0  0  0  0  0
   39.9580   28.3590   44.3410 H   0  0  0  0  0  0  0  0  0  0  0  0
   40.0070   30.1290   44.2070 H   0  0  0  0  0  0  0  0  0  0  0  0
   38.5040   28.0530   42.6170 H   0  0  0  0  0  0  0  0  0  0  0  0
   38.0450   29.7130   42.9920 H   0  0  0  0  0  0  0  0  0  0  0  0
   38.5080   29.3460   40.4370 H   0  0  0  0  0  0  0  0  0  0  0  0
   40.8730   30.6660   39.3110 S   0  0  0  0  0  0  0  0  0  0  0  0
   40.3400   32.2650   38.7870 C   0  0  0  0  0  3  0  0  0  0  0  0
   41.3910   33.1900   38.2560 C   0  0  0  0  0  2  0  0  0  0  0  0
   40.7850   34.5770   38.1420 C   0  0  0  0  0  2  0  0  0  0  0  0
   39.2970   34.5380   37.8590 C   0  0  0  0  0  2  0  0  0  0  0  0
   38.5360   33.8880   38.9980 C   0  0  0  0  0  2  0  0  0  0  0  0
   39.5210   33.0360   39.8100 C   0  0  0  0  0  2  0  0  0  0  0  0
   43.4010   31.3230   42.4000 C   0  0  0  0  0  0  0  0  0  0  0  0
   43.6470   31.1560   43.4890 H   0  0  0  0  0  0  0  0  0  0  0  0
   43.8110   30.4860   41.8040 H   0  0  0  0  0  0  0  0  0  0  0  0
   43.9830   32.6150   42.0030 C   0  0  0  0  0  0  0  0  0  0  0  0
   43.1910   33.6010   41.4650 C   0  0  0  0  0  0  0  0  0  0  0  0
   43.7830   34.7970   41.0930 C   0  0  0  0  0  0  0  0  0  0  0  0
   45.1340   34.9350   41.2840 N   0  0  0  0  0  0  0  0  0  0  0  0
   45.8660   33.9600   41.8090 C   0  0  0  0  0  0  0  0  0  0  0  0
   45.2710   32.8180   42.1570 N   0  0  0  0  0  0  0  0  0  0  0  0
   42.1380   33.6920   41.2560 H   0  0  0  0  0  0  0  0  0  0  0  0
   43.3250   35.6800   40.6530 H   0  0  0  0  0  0  0  0  0  0  0  0
   47.2940   34.2110   42.0020 C   0  0  0  0  0  0  0  0  0  0  0  0
   48.1030   33.2460   42.5940 C   0  0  0  0  0  0  0  0  0  0  0  0
   49.4450   33.4920   42.7840 C   0  0  0  0  0  0  0  0  0  0  0  0
   49.8650   34.7230   42.3510 C   0  0  0  0  0  0  0  0  0  0  0  0
   49.1010   35.7270   41.7520 C   0  0  0  0  0  0  0  0  0  0  0  0
   47.7920   35.3970   41.6040 N   0  0  0  0  0  0  0  0  0  0  0  0
   47.7050   32.2850   42.9180 H   0  0  0  0  0  0  0  0  0  0  0  0
   50.1510   32.8090   43.2330 H   0  0  0  0  0  0  0  0  0  0  0  0
   50.9270   34.9660   42.4820 H   0  0  0  0  0  0  0  0  0  0  0  0
   49.5250   36.6510   41.4500 H   0  0  0  0  0  0  0  0  0  0  0  0
  1 24  1  0  0  0  0
  1  3  1  0  0  0  0
  2  1  1  0  0  0  0
  4  1  1  0  0  0  0
  4  5  1  0  0  0  0
  5  6  1  0  0  0  0
  5 10  1  0  0  0  0
  6 13  1  0  0  0  0
  6 12  1  0  0  0  0
  7 15  1  0  0  0  0
  7  6  1  0  0  0  0
  8  7  1  0  0  0  0
  9  8  2  0  0  0  0
  9  4  1  0  0  0  0
 11  5  1  0  0  0  0
 14  7  1  0  0  0  0
 16  8  1  0  0  0  0
 17  9  1  0  0  0  0
 18 17  1  0  0  0  0
 18 23  1  0  0  0  0
 19 18  1  0  0  0  0
 20 19  1  0  0  0  0
 21 20  1  0  0  0  0
 21 22  1  0  0  0  0
 22 23  1  0  0  0  0
 24 25  1  0  0  0  0
 26 24  1  0  0  0  0
 27 32  1  0  0  0  0
 27 24  1  0  0  0  0
 28 27  2  0  0  0  0
 29 30  2  0  0  0  0
 29 28  1  0  0  0  0
 30 31  1  0  0  0  0
 31 35  1  0  0  0  0
 31 32  2  0  0  0  0
 33 28  1  0  0  0  0
 34 29  1  0  0  0  0
 35 36  1  0  0  0  0
 36 37  2  0  0  0  0
 36 41  1  0  0  0  0
 37 42  1  0  0  0  0
 38 43  1  0  0  0  0
 38 37  1  0  0  0  0
 39 38  2  0  0  0  0
 40 39  1  0  0  0  0
 40 35  2  0  0  0  0
 44 39  1  0  0  0  0
M  END
>  <minimizedAffinity>
-5.4361515

>  <minimizedRMSD>
3.53058434

$$$$
