
 OpenBabel03252503333D

 38 40  0  0  1  0  0  0  0  0999 V2000
   41.1030   32.2280   40.6580 C   0  0  0  0  0  0  0  0  0  0  0  0
   41.4490   32.8700   39.4320 C   0  0  0  0  0  0  0  0  0  0  0  0
   42.8210   33.1210   39.2320 C   0  0  0  0  0  0  0  0  0  0  0  0
   43.6810   32.7440   40.1930 N   0  0  0  0  0  0  0  0  0  0  0  0
   43.2990   32.1360   41.3410 C   0  0  0  0  0  0  0  0  0  0  0  0
   41.9940   31.8820   41.5650 N   0  0  0  0  0  0  0  0  0  0  0  0
   39.2750   30.8320   40.1880 C   0  0  0  0  0  0  0  0  0  0  0  0
   40.0750   30.2770   39.3610 O   0  0  0  0  0  0  0  0  0  0  0  0
   39.7250   31.9380   40.9370 N   0  0  0  0  0  0  0  0  0  0  0  0
   37.9720   30.2860   40.2930 N   0  0  0  0  0  0  0  0  0  0  0  0
   37.4830   29.3650   39.2470 C   0  0  0  0  0  0  0  0  0  0  0  0
   36.0100   29.6440   39.2450 C   0  0  0  0  0  0  0  0  0  0  0  0
   35.7700   30.6200   40.3580 C   0  0  0  0  0  0  0  0  0  0  0  0
   36.9470   30.4270   41.2830 C   0  0  1  0  0  0  0  0  0  0  0  0
   40.6430   33.1150   38.7490 H   0  0  0  0  0  0  0  0  0  0  0  0
   44.0400   31.8610   42.0690 H   0  0  0  0  0  0  0  0  0  0  0  0
   39.0510   32.3840   41.5640 H   0  0  0  0  0  0  0  0  0  0  0  0
   37.7230   28.3220   39.4920 H   0  0  0  0  0  0  0  0  0  0  0  0
   37.8690   29.6810   38.2570 H   0  0  0  0  0  0  0  0  0  0  0  0
   35.4840   28.6690   39.4340 H   0  0  0  0  0  0  0  0  0  0  0  0
   35.6440   30.0410   38.2540 H   0  0  0  0  0  0  0  0  0  0  0  0
   34.8060   30.8380   40.6850 H   0  0  0  0  0  0  0  0  0  0  0  0
   36.0790   31.6070   39.8600 H   0  0  0  0  0  0  0  0  0  0  0  0
   36.9780   31.3140   41.8940 H   0  0  0  0  0  0  0  0  0  0  0  0
   37.9170   28.8140   43.0380 C   0  0  0  0  0  0  0  0  0  0  0  0
   38.7120   29.7660   43.2440 O   0  0  0  0  0  0  0  0  0  0  0  0
   36.8860   29.2330   42.1110 N   0  0  0  0  0  0  0  0  0  0  0  0
   36.0080   28.6330   42.0140 H   0  0  0  0  0  0  0  0  0  0  0  0
   37.9060   27.4130   43.5870 C   0  0  0  0  0  3  0  0  0  0  0  0
   39.2800   26.9180   43.8370 C   0  0  0  0  0  2  0  0  0  0  0  0
   39.8120   25.9020   42.8880 C   0  0  0  0  0  2  0  0  0  0  0  0
   38.7830   24.7800   42.7980 C   0  0  0  0  0  2  0  0  0  0  0  0
   37.6180   25.4170   42.0510 C   0  0  0  0  0  2  0  0  0  0  0  0
   36.9860   26.5230   42.8330 C   0  0  0  0  0  2  0  0  0  0  0  0
   43.1440   33.7770   37.9700 C   0  0  0  0  0  0  0  0  0  0  0  0
   43.5010   32.8030   37.0380 F   0  0  0  0  0  0  0  0  0  0  0  0
   44.3060   34.5280   38.1800 F   0  0  0  0  0  0  0  0  0  0  0  0
   42.1130   34.5040   37.4410 F   0  0  0  0  0  0  0  0  0  0  0  0
  1  9  1  0  0  0  0
  1  6  1  0  0  0  0
  2  1  2  0  0  0  0
  3  2  1  0  0  0  0
  3  4  2  0  0  0  0
  4  5  1  0  0  0  0
  5  6  2  0  0  0  0
  5 16  1  0  0  0  0
  7 10  1  0  0  0  0
  7  9  1  0  0  0  0
  8  7  2  0  0  0  0
  9 17  1  0  0  0  0
 10 14  1  0  0  0  0
 11 18  1  0  0  0  0
 11 10  1  0  0  0  0
 12 11  1  0  0  0  0
 12 20  1  0  0  0  0
 12 13  1  0  0  0  0
 13 22  1  0  0  0  0
 13 14  1  0  0  0  0
 14 24  1  1  0  0  0
 14 27  1  0  0  0  0
 15  2  1  0  0  0  0
 19 11  1  0  0  0  0
 21 12  1  0  0  0  0
 23 13  1  0  0  0  0
 25 26  2  0  0  0  0
 25 29  1  0  0  0  0
 27 25  1  0  0  0  0
 28 27  1  0  0  0  0
 29 30  1  0  0  0  0
 31 30  1  0  0  0  0
 32 31  1  0  0  0  0
 33 32  1  0  0  0  0
 33 34  1  0  0  0  0
 34 29  1  0  0  0  0
 35 37  1  0  0  0  0
 35  3  1  0  0  0  0
 36 35  1  0  0  0  0
 38 35  1  0  0  0  0
M  END
>  <minimizedAffinity>
-6.50032806

$$$$

 OpenBabel03252503333D

 38 40  0  0  1  0  0  0  0  0999 V2000
   42.4270   29.8860   38.7220 C   0  0  0  0  0  0  0  0  0  0  0  0
   42.9570   30.4350   37.5170 C   0  0  0  0  0  0  0  0  0  0  0  0
   43.9360   29.6600   36.8630 C   0  0  0  0  0  0  0  0  0  0  0  0
   44.2880   28.4870   37.4140 N   0  0  0  0  0  0  0  0  0  0  0  0
   43.7530   28.0100   38.5630 C   0  0  0  0  0  0  0  0  0  0  0  0
   42.8140   28.7260   39.2150 N   0  0  0  0  0  0  0  0  0  0  0  0
   40.1710   30.5270   38.8130 C   0  0  0  0  0  0  0  0  0  0  0  0
   40.0790   29.8920   37.7080 O   0  0  0  0  0  0  0  0  0  0  0  0
   41.4260   30.6140   39.4480 N   0  0  0  0  0  0  0  0  0  0  0  0
   38.9840   31.1060   39.3280 N   0  0  0  0  0  0  0  0  0  0  0  0
   37.8080   31.2580   38.4470 C   0  0  0  0  0  0  0  0  0  0  0  0
   37.1600   32.4930   38.9970 C   0  0  0  0  0  0  0  0  0  0  0  0
   37.9600   32.8790   40.2060 C   0  0  0  0  0  0  0  0  0  0  0  0
   38.6390   31.5990   40.6270 C   0  0  1  0  0  0  0  0  0  0  0  0
   42.5730   31.3960   37.1930 H   0  0  0  0  0  0  0  0  0  0  0  0
   44.0800   27.0630   38.9500 H   0  0  0  0  0  0  0  0  0  0  0  0
   41.4760   31.1590   40.3120 H   0  0  0  0  0  0  0  0  0  0  0  0
   37.1590   30.3740   38.4940 H   0  0  0  0  0  0  0  0  0  0  0  0
   38.1390   31.5030   37.4170 H   0  0  0  0  0  0  0  0  0  0  0  0
   36.1050   32.2240   39.2730 H   0  0  0  0  0  0  0  0  0  0  0  0
   37.1110   33.3310   38.2430 H   0  0  0  0  0  0  0  0  0  0  0  0
   37.6130   33.5970   40.8730 H   0  0  0  0  0  0  0  0  0  0  0  0
   38.8510   33.4180   39.7210 H   0  0  0  0  0  0  0  0  0  0  0  0
   39.4540   31.9040   41.2630 H   0  0  0  0  0  0  0  0  0  0  0  0
   38.2060   29.7630   42.3770 C   0  0  0  0  0  0  0  0  0  0  0  0
   39.3170   30.1450   42.8230 O   0  0  0  0  0  0  0  0  0  0  0  0
   37.7800   30.6450   41.3100 N   0  0  0  0  0  0  0  0  0  0  0  0
   36.7630   30.6070   40.9870 H   0  0  0  0  0  0  0  0  0  0  0  0
   37.3380   28.6010   42.7780 C   0  0  0  0  0  3  0  0  0  0  0  0
   38.0940   27.6100   43.5790 C   0  0  0  0  0  2  0  0  0  0  0  0
   38.4580   26.3340   42.9030 C   0  0  0  0  0  2  0  0  0  0  0  0
   37.1810   25.7600   42.2990 C   0  0  0  0  0  2  0  0  0  0  0  0
   36.8610   26.7120   41.1550 C   0  0  0  0  0  2  0  0  0  0  0  0
   36.5300   28.0860   41.6420 C   0  0  0  0  0  2  0  0  0  0  0  0
   44.4580   30.2470   35.6340 C   0  0  0  0  0  0  0  0  0  0  0  0
   45.6370   29.5890   35.2900 F   0  0  0  0  0  0  0  0  0  0  0  0
   44.8420   31.5580   35.9320 F   0  0  0  0  0  0  0  0  0  0  0  0
   43.6030   30.1590   34.5690 F   0  0  0  0  0  0  0  0  0  0  0  0
  1  6  1  0  0  0  0
  1  9  1  0  0  0  0
  2  1  2  0  0  0  0
  3  4  2  0  0  0  0
  3  2  1  0  0  0  0
  4  5  1  0  0  0  0
  5 16  1  0  0  0  0
  5  6  2  0  0  0  0
  7 10  1  0  0  0  0
  7  9  1  0  0  0  0
  8  7  2  0  0  0  0
  9 17  1  0  0  0  0
 10 14  1  0  0  0  0
 11 18  1  0  0  0  0
 11 12  1  0  0  0  0
 11 10  1  0  0  0  0
 12 20  1  0  0  0  0
 12 13  1  0  0  0  0
 13 14  1  0  0  0  0
 13 22  1  0  0  0  0
 14 24  1  1  0  0  0
 14 27  1  0  0  0  0
 15  2  1  0  0  0  0
 19 11  1  0  0  0  0
 21 12  1  0  0  0  0
 23 13  1  0  0  0  0
 25 29  1  0  0  0  0
 25 26  2  0  0  0  0
 27 25  1  0  0  0  0
 28 27  1  0  0  0  0
 29 30  1  0  0  0  0
 31 30  1  0  0  0  0
 32 31  1  0  0  0  0
 33 34  1  0  0  0  0
 33 32  1  0  0  0  0
 34 29  1  0  0  0  0
 35 37  1  0  0  0  0
 35  3  1  0  0  0  0
 36 35  1  0  0  0  0
 38 35  1  0  0  0  0
M  END
>  <minimizedAffinity>
-6.17783546

$$$$

 OpenBabel03252503333D

 38 40  0  0  1  0  0  0  0  0999 V2000
   38.5300   29.6690   39.4240 C   0  0  0  0  0  0  0  0  0  0  0  0
   38.8220   30.9850   39.8930 C   0  0  0  0  0  0  0  0  0  0  0  0
   38.0250   32.0190   39.3630 C   0  0  0  0  0  0  0  0  0  0  0  0
   37.0710   31.6940   38.4760 N   0  0  0  0  0  0  0  0  0  0  0  0
   36.8340   30.4260   38.0640 C   0  0  0  0  0  0  0  0  0  0  0  0
   37.5780   29.4120   38.5500 N   0  0  0  0  0  0  0  0  0  0  0  0
   38.9160   28.2170   41.2280 C   0  0  0  0  0  0  0  0  0  0  0  0
   38.0230   28.9160   41.8160 O   0  0  0  0  0  0  0  0  0  0  0  0
   39.2960   28.5600   39.9150 N   0  0  0  0  0  0  0  0  0  0  0  0
   39.4660   27.1300   41.9510 N   0  0  0  0  0  0  0  0  0  0  0  0
   39.2650   27.0520   43.4120 C   0  0  0  0  0  0  0  0  0  0  0  0
   40.5160   26.3630   43.8670 C   0  0  0  0  0  0  0  0  0  0  0  0
   41.2740   26.0130   42.6200 C   0  0  0  0  0  0  0  0  0  0  0  0
   40.2220   25.9850   41.5400 C   0  0  1  0  0  0  0  0  0  0  0  0
   39.6250   31.0930   40.6130 H   0  0  0  0  0  0  0  0  0  0  0  0
   36.0530   30.2360   37.3500 H   0  0  0  0  0  0  0  0  0  0  0  0
   40.0400   28.0050   39.4840 H   0  0  0  0  0  0  0  0  0  0  0  0
   38.3520   26.4930   43.6580 H   0  0  0  0  0  0  0  0  0  0  0  0
   39.2840   28.0710   43.8490 H   0  0  0  0  0  0  0  0  0  0  0  0
   40.2060   25.4410   44.4300 H   0  0  0  0  0  0  0  0  0  0  0  0
   41.1320   26.9970   44.5670 H   0  0  0  0  0  0  0  0  0  0  0  0
   42.0910   25.3700   42.6510 H   0  0  0  0  0  0  0  0  0  0  0  0
   41.7740   27.0180   42.3750 H   0  0  0  0  0  0  0  0  0  0  0  0
   40.7630   26.0670   40.6120 H   0  0  0  0  0  0  0  0  0  0  0  0
   38.6470   24.3060   40.3900 C   0  0  0  0  0  0  0  0  0  0  0  0
   39.0830   24.8510   39.3450 O   0  0  0  0  0  0  0  0  0  0  0  0
   39.3750   24.8030   41.5400 N   0  0  0  0  0  0  0  0  0  0  0  0
   39.2960   24.2760   42.4650 H   0  0  0  0  0  0  0  0  0  0  0  0
   37.5550   23.2880   40.5800 C   0  0  0  0  0  3  0  0  0  0  0  0
   37.8010   22.0720   39.7700 C   0  0  0  0  0  2  0  0  0  0  0  0
   36.9490   21.8820   38.5640 C   0  0  0  0  0  2  0  0  0  0  0  0
   35.4970   22.0160   39.0090 C   0  0  0  0  0  2  0  0  0  0  0  0
   35.3540   23.4960   39.3390 C   0  0  0  0  0  2  0  0  0  0  0  0
   36.2020   23.8960   40.5030 C   0  0  0  0  0  2  0  0  0  0  0  0
   38.3460   33.3530   39.8610 C   0  0  0  0  0  0  0  0  0  0  0  0
   38.4710   33.2940   41.2490 F   0  0  0  0  0  0  0  0  0  0  0  0
   37.2290   34.1620   39.6260 F   0  0  0  0  0  0  0  0  0  0  0  0
   39.5090   33.8690   39.3580 F   0  0  0  0  0  0  0  0  0  0  0  0
  1  2  1  0  0  0  0
  1  9  1  0  0  0  0
  2 15  1  0  0  0  0
  3 35  1  0  0  0  0
  3  2  2  0  0  0  0
  4  3  1  0  0  0  0
  5  4  2  0  0  0  0
  5  6  1  0  0  0  0
  6  1  2  0  0  0  0
  7  8  2  0  0  0  0
  7 10  1  0  0  0  0
  9  7  1  0  0  0  0
 10 11  1  0  0  0  0
 11 18  1  0  0  0  0
 11 19  1  0  0  0  0
 11 12  1  0  0  0  0
 12 20  1  0  0  0  0
 12 21  1  0  0  0  0
 13 22  1  0  0  0  0
 13 12  1  0  0  0  0
 14 24  1  6  0  0  0
 14 27  1  0  0  0  0
 14 10  1  0  0  0  0
 14 13  1  0  0  0  0
 16  5  1  0  0  0  0
 17  9  1  0  0  0  0
 23 13  1  0  0  0  0
 25 29  1  0  0  0  0
 25 27  1  0  0  0  0
 26 25  2  0  0  0  0
 27 28  1  0  0  0  0
 30 29  1  0  0  0  0
 31 32  1  0  0  0  0
 31 30  1  0  0  0  0
 32 33  1  0  0  0  0
 33 34  1  0  0  0  0
 34 29  1  0  0  0  0
 35 36  1  0  0  0  0
 37 35  1  0  0  0  0
 38 35  1  0  0  0  0
M  END
>  <minimizedAffinity>
-5.93090582

$$$$

 OpenBabel03252503333D

 38 40  0  0  1  0  0  0  0  0999 V2000
   40.7200   30.1410   39.5810 C   0  0  0  0  0  0  0  0  0  0  0  0
   40.7950   31.5240   39.9210 C   0  0  0  0  0  0  0  0  0  0  0  0
   41.1150   32.4020   38.8660 C   0  0  0  0  0  0  0  0  0  0  0  0
   41.3210   31.8800   37.6460 N   0  0  0  0  0  0  0  0  0  0  0  0
   41.2380   30.5560   37.3760 C   0  0  0  0  0  0  0  0  0  0  0  0
   40.9340   29.6870   38.3620 N   0  0  0  0  0  0  0  0  0  0  0  0
   39.0280   29.2140   40.9180 C   0  0  0  0  0  0  0  0  0  0  0  0
   38.2780   30.0720   40.3390 O   0  0  0  0  0  0  0  0  0  0  0  0
   40.4000   29.1810   40.5980 N   0  0  0  0  0  0  0  0  0  0  0  0
   38.4130   28.3450   41.8520 N   0  0  0  0  0  0  0  0  0  0  0  0
   37.0680   28.6670   42.3710 C   0  0  0  0  0  0  0  0  0  0  0  0
   37.1150   28.0880   43.7520 C   0  0  0  0  0  0  0  0  0  0  0  0
   38.4400   27.3950   43.8670 C   0  0  0  0  0  0  0  0  0  0  0  0
   38.8360   27.1100   42.4400 C   0  0  1  0  0  0  0  0  0  0  0  0
   40.6010   31.7980   40.9520 H   0  0  0  0  0  0  0  0  0  0  0  0
   41.4160   30.2040   36.3760 H   0  0  0  0  0  0  0  0  0  0  0  0
   40.9810   28.5080   41.1050 H   0  0  0  0  0  0  0  0  0  0  0  0
   36.2840   28.2230   41.7440 H   0  0  0  0  0  0  0  0  0  0  0  0
   36.9630   29.7650   42.4870 H   0  0  0  0  0  0  0  0  0  0  0  0
   36.2630   27.3610   43.8400 H   0  0  0  0  0  0  0  0  0  0  0  0
   36.9800   28.8690   44.5560 H   0  0  0  0  0  0  0  0  0  0  0  0
   38.6470   26.7590   44.6640 H   0  0  0  0  0  0  0  0  0  0  0  0
   39.1370   28.2810   44.0860 H   0  0  0  0  0  0  0  0  0  0  0  0
   39.8970   26.9240   42.4700 H   0  0  0  0  0  0  0  0  0  0  0  0
   38.5720   24.6170   41.8590 C   0  0  0  0  0  0  0  0  0  0  0  0
   39.4580   24.4790   42.7400 O   0  0  0  0  0  0  0  0  0  0  0  0
   38.1350   25.9970   41.8200 N   0  0  0  0  0  0  0  0  0  0  0  0
   37.2320   26.2350   41.3020 H   0  0  0  0  0  0  0  0  0  0  0  0
   37.9630   23.6120   40.9180 C   0  0  0  0  0  3  0  0  0  0  0  0
   38.8770   23.2980   39.7950 C   0  0  0  0  0  2  0  0  0  0  0  0
   38.5260   23.8650   38.4630 C   0  0  0  0  0  2  0  0  0  0  0  0
   37.0780   23.4860   38.1760 C   0  0  0  0  0  2  0  0  0  0  0  0
   36.2800   24.3280   39.1620 C   0  0  0  0  0  2  0  0  0  0  0  0
   36.5540   23.9420   40.5810 C   0  0  0  0  0  2  0  0  0  0  0  0
   41.1830   33.8100   39.2440 C   0  0  0  0  0  0  0  0  0  0  0  0
   41.7020   34.5360   38.1730 F   0  0  0  0  0  0  0  0  0  0  0  0
   42.1380   33.9200   40.2600 F   0  0  0  0  0  0  0  0  0  0  0  0
   39.9720   34.3560   39.5720 F   0  0  0  0  0  0  0  0  0  0  0  0
  1  2  1  0  0  0  0
  1  9  1  0  0  0  0
  2 15  1  0  0  0  0
  3 35  1  0  0  0  0
  3  2  2  0  0  0  0
  4  3  1  0  0  0  0
  5  4  2  0  0  0  0
  5  6  1  0  0  0  0
  6  1  2  0  0  0  0
  7 10  1  0  0  0  0
  8  7  2  0  0  0  0
  9  7  1  0  0  0  0
  9 17  1  0  0  0  0
 10 11  1  0  0  0  0
 10 14  1  0  0  0  0
 11 19  1  0  0  0  0
 11 12  1  0  0  0  0
 12 20  1  0  0  0  0
 12 13  1  0  0  0  0
 12 21  1  0  0  0  0
 13 23  1  0  0  0  0
 13 22  1  0  0  0  0
 14 24  1  6  0  0  0
 14 13  1  0  0  0  0
 16  5  1  0  0  0  0
 18 11  1  0  0  0  0
 25 26  2  0  0  0  0
 27 25  1  0  0  0  0
 27 14  1  0  0  0  0
 28 27  1  0  0  0  0
 29 25  1  0  0  0  0
 30 29  1  0  0  0  0
 31 30  1  0  0  0  0
 32 31  1  0  0  0  0
 32 33  1  0  0  0  0
 33 34  1  0  0  0  0
 34 29  1  0  0  0  0
 35 38  1  0  0  0  0
 35 37  1  0  0  0  0
 36 35  1  0  0  0  0
M  END
>  <minimizedAffinity>
-5.74155807

$$$$

 OpenBabel03252503333D

 38 40  0  0  1  0  0  0  0  0999 V2000
   40.0650   27.6520   40.0150 C   0  0  0  0  0  0  0  0  0  0  0  0
   39.2780   26.9630   40.9850 C   0  0  0  0  0  0  0  0  0  0  0  0
   39.9180   25.9040   41.6590 C   0  0  0  0  0  0  0  0  0  0  0  0
   41.1940   25.6300   41.3430 N   0  0  0  0  0  0  0  0  0  0  0  0
   41.8980   26.3170   40.4120 C   0  0  0  0  0  0  0  0  0  0  0  0
   41.3170   27.3360   39.7480 N   0  0  0  0  0  0  0  0  0  0  0  0
   39.3920   29.9000   40.0840 C   0  0  0  0  0  0  0  0  0  0  0  0
   39.7630   29.8400   41.3060 O   0  0  0  0  0  0  0  0  0  0  0  0
   39.4870   28.7440   39.2840 N   0  0  0  0  0  0  0  0  0  0  0  0
   38.9060   31.1460   39.6160 N   0  0  0  0  0  0  0  0  0  0  0  0
   38.5260   32.1900   40.5880 C   0  0  0  0  0  0  0  0  0  0  0  0
   37.4260   32.9080   39.8680 C   0  0  0  0  0  0  0  0  0  0  0  0
   37.3430   32.2810   38.5070 C   0  0  0  0  0  0  0  0  0  0  0  0
   38.7040   31.6650   38.2970 C   0  0  1  0  0  0  0  0  0  0  0  0
   38.2580   27.2990   41.1330 H   0  0  0  0  0  0  0  0  0  0  0  0
   42.9170   26.0450   40.2080 H   0  0  0  0  0  0  0  0  0  0  0  0
   39.1480   28.8120   38.3210 H   0  0  0  0  0  0  0  0  0  0  0  0
   39.3790   32.8400   40.8280 H   0  0  0  0  0  0  0  0  0  0  0  0
   38.0700   31.7220   41.4840 H   0  0  0  0  0  0  0  0  0  0  0  0
   37.7180   33.9910   39.8020 H   0  0  0  0  0  0  0  0  0  0  0  0
   36.4400   32.8540   40.4140 H   0  0  0  0  0  0  0  0  0  0  0  0
   36.7800   32.7160   37.7480 H   0  0  0  0  0  0  0  0  0  0  0  0
   36.7370   31.3320   38.7350 H   0  0  0  0  0  0  0  0  0  0  0  0
   38.5730   30.9460   37.5060 H   0  0  0  0  0  0  0  0  0  0  0  0
   41.0760   32.2450   37.4860 C   0  0  0  0  0  0  0  0  0  0  0  0
   41.0730   31.0440   37.1150 O   0  0  0  0  0  0  0  0  0  0  0  0
   39.7590   32.6100   37.9660 N   0  0  0  0  0  0  0  0  0  0  0  0
   39.5270   33.6440   38.0930 H   0  0  0  0  0  0  0  0  0  0  0  0
   42.1840   33.2640   37.4930 C   0  0  0  0  0  3  0  0  0  0  0  0
   43.5110   32.6230   37.3400 C   0  0  0  0  0  2  0  0  0  0  0  0
   44.3710   32.5580   38.5540 C   0  0  0  0  0  2  0  0  0  0  0  0
   44.4550   33.9680   39.1270 C   0  0  0  0  0  2  0  0  0  0  0  0
   43.0560   34.2210   39.6730 C   0  0  0  0  0  2  0  0  0  0  0  0
   42.0270   34.2550   38.5890 C   0  0  0  0  0  2  0  0  0  0  0  0
   39.0890   25.2190   42.6450 C   0  0  0  0  0  0  0  0  0  0  0  0
   39.7610   25.2110   43.8660 F   0  0  0  0  0  0  0  0  0  0  0  0
   39.0120   23.8760   42.2590 F   0  0  0  0  0  0  0  0  0  0  0  0
   37.8660   25.7990   42.8430 F   0  0  0  0  0  0  0  0  0  0  0  0
  1  2  1  0  0  0  0
  2 15  1  0  0  0  0
  2  3  2  0  0  0  0
  3 35  1  0  0  0  0
  4  3  1  0  0  0  0
  5  4  2  0  0  0  0
  6  1  2  0  0  0  0
  6  5  1  0  0  0  0
  7  8  2  0  0  0  0
  9  1  1  0  0  0  0
  9  7  1  0  0  0  0
 10  7  1  0  0  0  0
 10 11  1  0  0  0  0
 11 18  1  0  0  0  0
 11 19  1  0  0  0  0
 12 21  1  0  0  0  0
 12 11  1  0  0  0  0
 13 23  1  0  0  0  0
 13 12  1  0  0  0  0
 14 24  1  6  0  0  0
 14 13  1  0  0  0  0
 14 10  1  0  0  0  0
 16  5  1  0  0  0  0
 17  9  1  0  0  0  0
 20 12  1  0  0  0  0
 22 13  1  0  0  0  0
 25 29  1  0  0  0  0
 25 27  1  0  0  0  0
 26 25  2  0  0  0  0
 27 28  1  0  0  0  0
 27 14  1  0  0  0  0
 29 34  1  0  0  0  0
 30 29  1  0  0  0  0
 30 31  1  0  0  0  0
 31 32  1  0  0  0  0
 32 33  1  0  0  0  0
 34 33  1  0  0  0  0
 35 38  1  0  0  0  0
 35 36  1  0  0  0  0
 37 35  1  0  0  0  0
M  END
>  <minimizedAffinity>
-5.65003681

$$$$

 OpenBabel03252503333D

 38 40  0  0  1  0  0  0  0  0999 V2000
   34.2480   28.2000   36.9390 C   0  0  0  0  0  0  0  0  0  0  0  0
   33.3250   29.1750   36.4570 C   0  0  0  0  0  0  0  0  0  0  0  0
   32.1330   28.6740   35.8980 C   0  0  0  0  0  0  0  0  0  0  0  0
   31.9610   27.3420   35.8620 N   0  0  0  0  0  0  0  0  0  0  0  0
   32.8710   26.4570   36.3340 C   0  0  0  0  0  0  0  0  0  0  0  0
   34.0230   26.9030   36.8750 N   0  0  0  0  0  0  0  0  0  0  0  0
   35.2900   29.1390   38.8220 C   0  0  0  0  0  0  0  0  0  0  0  0
   34.1010   29.2020   39.2880 O   0  0  0  0  0  0  0  0  0  0  0  0
   35.4870   28.6290   37.5230 N   0  0  0  0  0  0  0  0  0  0  0  0
   36.3380   29.5910   39.6610 N   0  0  0  0  0  0  0  0  0  0  0  0
   36.0190   30.4100   40.8470 C   0  0  0  0  0  0  0  0  0  0  0  0
   37.2320   31.2820   40.9660 C   0  0  0  0  0  0  0  0  0  0  0  0
   38.1840   30.8150   39.9030 C   0  0  0  0  0  0  0  0  0  0  0  0
   37.7560   29.3960   39.6170 C   0  0  1  0  0  0  0  0  0  0  0  0
   33.6030   30.2190   36.5550 H   0  0  0  0  0  0  0  0  0  0  0  0
   32.6690   25.4040   36.2740 H   0  0  0  0  0  0  0  0  0  0  0  0
   36.4450   28.6250   37.1630 H   0  0  0  0  0  0  0  0  0  0  0  0
   35.8530   29.7810   41.7310 H   0  0  0  0  0  0  0  0  0  0  0  0
   35.1650   31.0810   40.6220 H   0  0  0  0  0  0  0  0  0  0  0  0
   37.6580   31.1260   41.9940 H   0  0  0  0  0  0  0  0  0  0  0  0
   36.9930   32.3790   40.8590 H   0  0  0  0  0  0  0  0  0  0  0  0
   39.1730   31.1350   39.8890 H   0  0  0  0  0  0  0  0  0  0  0  0
   37.7540   31.3350   38.9740 H   0  0  0  0  0  0  0  0  0  0  0  0
   38.1850   29.1570   38.6590 H   0  0  0  0  0  0  0  0  0  0  0  0
   37.9240   26.9950   40.5260 C   0  0  0  0  0  0  0  0  0  0  0  0
   37.6100   26.6940   39.3470 O   0  0  0  0  0  0  0  0  0  0  0  0
   38.1560   28.4220   40.6200 N   0  0  0  0  0  0  0  0  0  0  0  0
   38.6560   28.8050   41.4810 H   0  0  0  0  0  0  0  0  0  0  0  0
   38.0750   26.1310   41.7500 C   0  0  0  0  0  3  0  0  0  0  0  0
   38.1830   26.9490   42.9810 C   0  0  0  0  0  2  0  0  0  0  0  0
   39.5290   27.0400   43.6110 C   0  0  0  0  0  2  0  0  0  0  0  0
   40.0410   25.6160   43.7970 C   0  0  0  0  0  2  0  0  0  0  0  0
   40.3250   25.1460   42.3770 C   0  0  0  0  0  2  0  0  0  0  0  0
   39.0790   25.0540   41.5550 C   0  0  0  0  0  2  0  0  0  0  0  0
   31.2090   29.6940   35.4150 C   0  0  0  0  0  0  0  0  0  0  0  0
   31.7020   30.2140   34.2190 F   0  0  0  0  0  0  0  0  0  0  0  0
   31.2540   30.7560   36.3250 F   0  0  0  0  0  0  0  0  0  0  0  0
   29.9430   29.2320   35.1810 F   0  0  0  0  0  0  0  0  0  0  0  0
  1  9  1  0  0  0  0
  2 15  1  0  0  0  0
  2  1  2  0  0  0  0
  3  2  1  0  0  0  0
  4  3  2  0  0  0  0
  4  5  1  0  0  0  0
  5  6  2  0  0  0  0
  6  1  1  0  0  0  0
  7  8  2  0  0  0  0
  7 10  1  0  0  0  0
  9  7  1  0  0  0  0
 10 11  1  0  0  0  0
 11 12  1  0  0  0  0
 11 18  1  0  0  0  0
 12 20  1  0  0  0  0
 13 12  1  0  0  0  0
 14 24  1  6  0  0  0
 14 10  1  0  0  0  0
 14 13  1  0  0  0  0
 14 27  1  0  0  0  0
 16  5  1  0  0  0  0
 17  9  1  0  0  0  0
 19 11  1  0  0  0  0
 21 12  1  0  0  0  0
 22 13  1  0  0  0  0
 23 13  1  0  0  0  0
 25 27  1  0  0  0  0
 25 29  1  0  0  0  0
 26 25  2  0  0  0  0
 27 28  1  0  0  0  0
 29 30  1  0  0  0  0
 30 31  1  0  0  0  0
 31 32  1  0  0  0  0
 33 32  1  0  0  0  0
 34 29  1  0  0  0  0
 34 33  1  0  0  0  0
 35  3  1  0  0  0  0
 35 37  1  0  0  0  0
 36 35  1  0  0  0  0
 38 35  1  0  0  0  0
M  END
>  <minimizedAffinity>
-5.5370388

$$$$

 OpenBabel03252503333D

 38 40  0  0  1  0  0  0  0  0999 V2000
   36.6890   28.7850   38.2000 C   0  0  0  0  0  0  0  0  0  0  0  0
   36.2340   28.5000   36.8790 C   0  0  0  0  0  0  0  0  0  0  0  0
   36.4350   29.5160   35.9240 C   0  0  0  0  0  0  0  0  0  0  0  0
   37.0280   30.6530   36.3240 N   0  0  0  0  0  0  0  0  0  0  0  0
   37.4420   30.8740   37.5930 C   0  0  0  0  0  0  0  0  0  0  0  0
   37.2650   29.9230   38.5330 N   0  0  0  0  0  0  0  0  0  0  0  0
   37.4540   26.7550   39.0960 C   0  0  0  0  0  0  0  0  0  0  0  0
   38.2630   26.7710   38.1070 O   0  0  0  0  0  0  0  0  0  0  0  0
   36.5210   27.8020   39.2320 N   0  0  0  0  0  0  0  0  0  0  0  0
   37.5590   25.6680   39.9990 N   0  0  0  0  0  0  0  0  0  0  0  0
   38.3160   24.4630   39.6030 C   0  0  0  0  0  0  0  0  0  0  0  0
   37.5890   23.3770   40.3360 C   0  0  0  0  0  0  0  0  0  0  0  0
   36.5470   24.0650   41.1690 C   0  0  0  0  0  0  0  0  0  0  0  0
   37.0670   25.4720   41.3290 C   0  0  1  0  0  0  0  0  0  0  0  0
   35.7720   27.5340   36.7060 H   0  0  0  0  0  0  0  0  0  0  0  0
   37.9100   31.8080   37.8460 H   0  0  0  0  0  0  0  0  0  0  0  0
   35.8620   27.7420   40.0130 H   0  0  0  0  0  0  0  0  0  0  0  0
   39.3720   24.5450   39.8920 H   0  0  0  0  0  0  0  0  0  0  0  0
   38.1740   24.2690   38.5200 H   0  0  0  0  0  0  0  0  0  0  0  0
   38.3400   22.8440   40.9790 H   0  0  0  0  0  0  0  0  0  0  0  0
   37.1330   22.6140   39.6420 H   0  0  0  0  0  0  0  0  0  0  0  0
   36.0250   23.5510   41.9080 H   0  0  0  0  0  0  0  0  0  0  0  0
   35.7250   24.2520   40.3880 H   0  0  0  0  0  0  0  0  0  0  0  0
   36.2130   26.0600   41.6240 H   0  0  0  0  0  0  0  0  0  0  0  0
   38.5200   26.8610   42.9350 C   0  0  0  0  0  0  0  0  0  0  0  0
   37.6020   27.7060   42.7850 O   0  0  0  0  0  0  0  0  0  0  0  0
   38.1500   25.6190   42.2880 N   0  0  0  0  0  0  0  0  0  0  0  0
   38.7020   24.7350   42.5200 H   0  0  0  0  0  0  0  0  0  0  0  0
   39.8440   26.9700   43.6420 C   0  0  0  0  0  3  0  0  0  0  0  0
   40.6710   28.0630   43.0780 C   0  0  0  0  0  2  0  0  0  0  0  0
   41.8310   27.6630   42.2340 C   0  0  0  0  0  2  0  0  0  0  0  0
   42.6470   26.6520   43.0330 C   0  0  0  0  0  2  0  0  0  0  0  0
   41.7610   25.4140   43.0620 C   0  0  0  0  0  2  0  0  0  0  0  0
   40.4940   25.6460   43.8230 C   0  0  0  0  0  2  0  0  0  0  0  0
   35.9600   29.1950   34.5820 C   0  0  0  0  0  0  0  0  0  0  0  0
   37.0150   29.3540   33.6850 F   0  0  0  0  0  0  0  0  0  0  0  0
   35.0260   30.1750   34.2290 F   0  0  0  0  0  0  0  0  0  0  0  0
   35.4870   27.9190   34.4500 F   0  0  0  0  0  0  0  0  0  0  0  0
  1  6  1  0  0  0  0
  1  9  1  0  0  0  0
  2  1  2  0  0  0  0
  3  4  2  0  0  0  0
  3  2  1  0  0  0  0
  4  5  1  0  0  0  0
  5 16  1  0  0  0  0
  5  6  2  0  0  0  0
  7  9  1  0  0  0  0
  7 10  1  0  0  0  0
  8  7  2  0  0  0  0
  9 17  1  0  0  0  0
 10 14  1  0  0  0  0
 11 18  1  0  0  0  0
 11 10  1  0  0  0  0
 11 12  1  0  0  0  0
 12 20  1  0  0  0  0
 12 13  1  0  0  0  0
 13 14  1  0  0  0  0
 13 22  1  0  0  0  0
 14 24  1  1  0  0  0
 14 27  1  0  0  0  0
 15  2  1  0  0  0  0
 19 11  1  0  0  0  0
 21 12  1  0  0  0  0
 23 13  1  0  0  0  0
 25 29  1  0  0  0  0
 26 25  2  0  0  0  0
 27 28  1  0  0  0  0
 27 25  1  0  0  0  0
 29 34  1  0  0  0  0
 30 29  1  0  0  0  0
 31 32  1  0  0  0  0
 31 30  1  0  0  0  0
 32 33  1  0  0  0  0
 33 34  1  0  0  0  0
 35  3  1  0  0  0  0
 36 35  1  0  0  0  0
 37 35  1  0  0  0  0
 38 35  1  0  0  0  0
M  END
>  <minimizedAffinity>
-5.50977087

$$$$

 OpenBabel03252503333D

 38 40  0  0  1  0  0  0  0  0999 V2000
   36.3960   25.6180   38.5920 C   0  0  0  0  0  0  0  0  0  0  0  0
   36.6950   24.2260   38.6660 C   0  0  0  0  0  0  0  0  0  0  0  0
   36.8730   23.5670   37.4330 C   0  0  0  0  0  0  0  0  0  0  0  0
   36.7500   24.2870   36.3060 N   0  0  0  0  0  0  0  0  0  0  0  0
   36.4640   25.6100   36.2910 C   0  0  0  0  0  0  0  0  0  0  0  0
   36.2870   26.2720   37.4530 N   0  0  0  0  0  0  0  0  0  0  0  0
   37.4250   26.6220   40.4480 C   0  0  0  0  0  0  0  0  0  0  0  0
   38.5020   26.1550   39.9410 O   0  0  0  0  0  0  0  0  0  0  0  0
   36.1990   26.3620   39.8040 N   0  0  0  0  0  0  0  0  0  0  0  0
   37.5470   27.3790   41.6400 N   0  0  0  0  0  0  0  0  0  0  0  0
   38.8000   27.3130   42.4180 C   0  0  0  0  0  0  0  0  0  0  0  0
   38.3120   27.5180   43.8210 C   0  0  0  0  0  0  0  0  0  0  0  0
   36.8390   27.7860   43.7130 C   0  0  0  0  0  0  0  0  0  0  0  0
   36.6540   28.2820   42.3000 C   0  0  1  0  0  0  0  0  0  0  0  0
   36.7640   23.7790   39.6510 H   0  0  0  0  0  0  0  0  0  0  0  0
   36.3800   26.1260   35.3530 H   0  0  0  0  0  0  0  0  0  0  0  0
   35.3510   26.7170   40.2530 H   0  0  0  0  0  0  0  0  0  0  0  0
   39.5100   28.0850   42.0930 H   0  0  0  0  0  0  0  0  0  0  0  0
   39.2190   26.2880   42.3720 H   0  0  0  0  0  0  0  0  0  0  0  0
   38.8600   28.4040   44.2410 H   0  0  0  0  0  0  0  0  0  0  0  0
   38.5280   26.6350   44.4900 H   0  0  0  0  0  0  0  0  0  0  0  0
   36.2960   28.1380   44.5270 H   0  0  0  0  0  0  0  0  0  0  0  0
   36.4270   26.7200   43.5970 H   0  0  0  0  0  0  0  0  0  0  0  0
   35.6030   28.1660   42.0930 H   0  0  0  0  0  0  0  0  0  0  0  0
   36.5960   30.5020   41.0000 C   0  0  0  0  0  0  0  0  0  0  0  0
   35.5630   29.9970   40.4930 O   0  0  0  0  0  0  0  0  0  0  0  0
   37.0760   29.6550   42.0720 N   0  0  0  0  0  0  0  0  0  0  0  0
   37.7940   30.0500   42.7570 H   0  0  0  0  0  0  0  0  0  0  0  0
   37.3340   31.7690   40.6610 C   0  0  0  0  0  3  0  0  0  0  0  0
   37.1680   32.1270   39.2320 C   0  0  0  0  0  2  0  0  0  0  0  0
   38.3440   31.9120   38.3440 C   0  0  0  0  0  2  0  0  0  0  0  0
   39.5370   32.6020   38.9950 C   0  0  0  0  0  2  0  0  0  0  0  0
   39.8300   31.7420   40.2170 C   0  0  0  0  0  2  0  0  0  0  0  0
   38.7140   31.7800   41.2120 C   0  0  0  0  0  2  0  0  0  0  0  0
   37.1790   22.1440   37.5390 C   0  0  0  0  0  0  0  0  0  0  0  0
   36.3860   21.4470   36.6290 F   0  0  0  0  0  0  0  0  0  0  0  0
   36.7470   21.7230   38.8010 F   0  0  0  0  0  0  0  0  0  0  0  0
   38.4860   21.8350   37.2800 F   0  0  0  0  0  0  0  0  0  0  0  0
  1  2  1  0  0  0  0
  1  9  1  0  0  0  0
  2 15  1  0  0  0  0
  3 35  1  0  0  0  0
  3  2  2  0  0  0  0
  4  3  1  0  0  0  0
  5  4  2  0  0  0  0
  5  6  1  0  0  0  0
  6  1  2  0  0  0  0
  7 10  1  0  0  0  0
  8  7  2  0  0  0  0
  9 17  1  0  0  0  0
  9  7  1  0  0  0  0
 10 14  1  0  0  0  0
 10 11  1  0  0  0  0
 11 12  1  0  0  0  0
 12 20  1  0  0  0  0
 12 21  1  0  0  0  0
 13 12  1  0  0  0  0
 13 22  1  0  0  0  0
 14 24  1  6  0  0  0
 14 13  1  0  0  0  0
 16  5  1  0  0  0  0
 18 11  1  0  0  0  0
 19 11  1  0  0  0  0
 23 13  1  0  0  0  0
 25 27  1  0  0  0  0
 26 25  2  0  0  0  0
 27 14  1  0  0  0  0
 27 28  1  0  0  0  0
 29 25  1  0  0  0  0
 29 34  1  0  0  0  0
 30 29  1  0  0  0  0
 31 32  1  0  0  0  0
 31 30  1  0  0  0  0
 32 33  1  0  0  0  0
 33 34  1  0  0  0  0
 35 37  1  0  0  0  0
 36 35  1  0  0  0  0
 38 35  1  0  0  0  0
M  END
>  <minimizedAffinity>
-5.4593749

$$$$

 OpenBabel03252503333D

 38 40  0  0  1  0  0  0  0  0999 V2000
   37.5530   29.3650   36.6070 C   0  0  0  0  0  0  0  0  0  0  0  0
   37.2860   30.3300   35.5910 C   0  0  0  0  0  0  0  0  0  0  0  0
   36.2220   30.0270   34.7170 C   0  0  0  0  0  0  0  0  0  0  0  0
   35.5560   28.8760   34.9040 N   0  0  0  0  0  0  0  0  0  0  0  0
   35.8510   27.9920   35.8870 C   0  0  0  0  0  0  0  0  0  0  0  0
   36.8620   28.2500   36.7410 N   0  0  0  0  0  0  0  0  0  0  0  0
   38.2590   30.5640   38.4980 C   0  0  0  0  0  0  0  0  0  0  0  0
   37.1130   31.1240   38.4120 O   0  0  0  0  0  0  0  0  0  0  0  0
   38.6210   29.5980   37.5380 N   0  0  0  0  0  0  0  0  0  0  0  0
   39.0930   30.9620   39.5720 N   0  0  0  0  0  0  0  0  0  0  0  0
   38.7820   32.1990   40.3150 C   0  0  0  0  0  0  0  0  0  0  0  0
   40.1440   32.6710   40.7270 C   0  0  0  0  0  0  0  0  0  0  0  0
   41.1040   31.6110   40.2760 C   0  0  0  0  0  0  0  0  0  0  0  0
   40.2580   30.3680   40.1560 C   0  0  1  0  0  0  0  0  0  0  0  0
   37.9100   31.2160   35.5650 H   0  0  0  0  0  0  0  0  0  0  0  0
   35.2770   27.0890   35.9800 H   0  0  0  0  0  0  0  0  0  0  0  0
   39.5580   29.1950   37.6110 H   0  0  0  0  0  0  0  0  0  0  0  0
   38.1210   31.9960   41.1680 H   0  0  0  0  0  0  0  0  0  0  0  0
   38.3760   32.9630   39.6210 H   0  0  0  0  0  0  0  0  0  0  0  0
   40.1400   32.7710   41.8460 H   0  0  0  0  0  0  0  0  0  0  0  0
   40.4030   33.6810   40.2960 H   0  0  0  0  0  0  0  0  0  0  0  0
   42.0940   31.6090   40.5980 H   0  0  0  0  0  0  0  0  0  0  0  0
   41.2190   31.8720   39.1630 H   0  0  0  0  0  0  0  0  0  0  0  0
   40.8250   29.6950   39.5330 H   0  0  0  0  0  0  0  0  0  0  0  0
   39.8080   28.3060   41.6280 C   0  0  0  0  0  0  0  0  0  0  0  0
   40.3400   27.6970   40.6650 O   0  0  0  0  0  0  0  0  0  0  0  0
   39.9150   29.7360   41.4190 N   0  0  0  0  0  0  0  0  0  0  0  0
   39.7310   30.3900   42.2430 H   0  0  0  0  0  0  0  0  0  0  0  0
   39.1320   27.7790   42.8650 C   0  0  0  0  0  3  0  0  0  0  0  0
   38.5640   26.4290   42.6390 C   0  0  0  0  0  2  0  0  0  0  0  0
   37.0830   26.3350   42.5130 C   0  0  0  0  0  2  0  0  0  0  0  0
   36.4790   27.0390   43.7230 C   0  0  0  0  0  2  0  0  0  0  0  0
   36.7820   28.5100   43.4740 C   0  0  0  0  0  2  0  0  0  0  0  0
   38.2500   28.7940   43.4970 C   0  0  0  0  0  2  0  0  0  0  0  0
   35.9720   31.0320   33.6900 C   0  0  0  0  0  0  0  0  0  0  0  0
   36.3500   30.5120   32.4530 F   0  0  0  0  0  0  0  0  0  0  0  0
   36.8520   32.0940   33.9270 F   0  0  0  0  0  0  0  0  0  0  0  0
   34.6630   31.4200   33.5990 F   0  0  0  0  0  0  0  0  0  0  0  0
  1  6  1  0  0  0  0
  1  9  1  0  0  0  0
  2  1  2  0  0  0  0
  3  4  2  0  0  0  0
  3  2  1  0  0  0  0
  4  5  1  0  0  0  0
  5 16  1  0  0  0  0
  5  6  2  0  0  0  0
  7 10  1  0  0  0  0
  8  7  2  0  0  0  0
  9 17  1  0  0  0  0
  9  7  1  0  0  0  0
 10 14  1  0  0  0  0
 10 11  1  0  0  0  0
 11 12  1  0  0  0  0
 11 18  1  0  0  0  0
 12 20  1  0  0  0  0
 13 22  1  0  0  0  0
 13 12  1  0  0  0  0
 14 24  1  6  0  0  0
 14 13  1  0  0  0  0
 14 27  1  0  0  0  0
 15  2  1  0  0  0  0
 19 11  1  0  0  0  0
 21 12  1  0  0  0  0
 23 13  1  0  0  0  0
 25 29  1  0  0  0  0
 26 25  2  0  0  0  0
 27 25  1  0  0  0  0
 27 28  1  0  0  0  0
 29 34  1  0  0  0  0
 30 29  1  0  0  0  0
 31 30  1  0  0  0  0
 31 32  1  0  0  0  0
 33 34  1  0  0  0  0
 33 32  1  0  0  0  0
 35 37  1  0  0  0  0
 35  3  1  0  0  0  0
 36 35  1  0  0  0  0
 38 35  1  0  0  0  0
M  END
>  <minimizedAffinity>
-5.37193871

$$$$
