
 OpenBabel03252509273D

 27 29  0  0  1  0  0  0  0  0999 V2000
   47.1670   35.2780   41.8040 C   0  0  1  0  0  0  0  0  0  0  0  0
   48.6970   35.5310   41.9330 C   0  0  0  0  0  0  0  0  0  0  0  0
   48.0050   34.4480   41.0430 C   0  0  2  0  0  0  0  0  0  0  0  0
   46.6210   36.1470   41.3780 H   0  0  0  0  0  0  0  0  0  0  0  0
   49.0850   36.3810   41.3380 H   0  0  0  0  0  0  0  0  0  0  0  0
   49.2160   35.2080   42.8300 H   0  0  0  0  0  0  0  0  0  0  0  0
   48.2060   33.4090   41.4530 H   0  0  0  0  0  0  0  0  0  0  0  0
   44.9940   34.7650   44.8200 C   0  0  0  0  0  0  0  0  0  0  0  0
   45.4780   35.3500   43.6140 C   0  0  0  0  0  0  0  0  0  0  0  0
   46.6010   34.7810   43.1110 C   0  0  0  0  0  0  0  0  0  0  0  0
   47.2250   33.7170   43.7270 N   0  0  0  0  0  0  0  0  0  0  0  0
   46.7340   33.1880   44.8760 C   0  0  0  0  0  0  0  0  0  0  0  0
   45.6080   33.7220   45.4200 N   0  0  0  0  0  0  0  0  0  0  0  0
   44.0870   35.2270   45.2230 H   0  0  0  0  0  0  0  0  0  0  0  0
   47.1840   32.3640   45.3880 H   0  0  0  0  0  0  0  0  0  0  0  0
   44.8540   36.4560   42.9900 N   0  0  0  0  0  0  0  0  0  0  0  0
   44.2810   36.4510   42.1010 H   0  0  0  0  0  0  0  0  0  0  0  0
   44.9000   37.4490   43.3680 H   0  0  0  0  0  0  0  0  0  0  0  0
   48.1260   34.5900   39.5400 C   0  0  0  0  0  0  0  0  0  0  0  0
   47.4370   35.3850   39.1830 H   0  0  0  0  0  0  0  0  0  0  0  0
   49.1750   34.9010   39.2930 H   0  0  0  0  0  0  0  0  0  0  0  0
   47.7810   33.2630   38.8910 C   0  0  0  0  0  3  0  0  0  0  0  0
   46.9590   33.4400   37.6660 C   0  0  0  0  0  2  0  0  0  0  0  0
   47.1560   32.4880   36.5540 C   0  0  0  0  0  2  0  0  0  0  0  0
   47.8150   31.2220   37.0630 C   0  0  0  0  0  2  0  0  0  0  0  0
   49.1910   31.6910   37.5020 C   0  0  0  0  0  2  0  0  0  0  0  0
   49.0020   32.4420   38.7880 C   0  0  0  0  0  2  0  0  0  0  0  0
  1  4  1  6  0  0  0
  1  2  1  0  0  0  0
  1 10  1  0  0  0  0
  2  6  1  0  0  0  0
  3  7  1  1  0  0  0
  3  1  1  0  0  0  0
  3  2  1  0  0  0  0
  5  2  1  0  0  0  0
  8 14  1  0  0  0  0
  8 13  1  0  0  0  0
  9  8  2  0  0  0  0
 10  9  1  0  0  0  0
 10 11  2  0  0  0  0
 11 12  1  0  0  0  0
 12 15  1  0  0  0  0
 12 13  2  0  0  0  0
 16 18  1  0  0  0  0
 16  9  1  0  0  0  0
 17 16  1  0  0  0  0
 19  3  1  0  0  0  0
 20 19  1  0  0  0  0
 21 19  1  0  0  0  0
 22 19  1  0  0  0  0
 23 22  1  0  0  0  0
 24 25  1  0  0  0  0
 24 23  1  0  0  0  0
 25 26  1  0  0  0  0
 26 27  1  0  0  0  0
 27 22  1  0  0  0  0
M  END
>  <minimizedAffinity>
-4.733778

>  <minimizedRMSD>
1.19676805

$$$$
