
 OpenBabel03252509293D

 18 19  0  0  0  0  0  0  0  0999 V2000
   44.5650   36.0690   44.6880 C   0  0  0  0  0  0  0  0  0  0  0  0
   45.2390   35.7920   43.4730 C   0  0  0  0  0  0  0  0  0  0  0  0
   45.9440   34.5950   43.3930 C   0  0  0  0  0  0  0  0  0  0  0  0
   45.9610   33.7510   44.4630 N   0  0  0  0  0  0  0  0  0  0  0  0
   45.2940   34.0630   45.6140 C   0  0  0  0  0  0  0  0  0  0  0  0
   44.6040   35.2120   45.7210 N   0  0  0  0  0  0  0  0  0  0  0  0
   44.0130   36.9910   44.7690 H   0  0  0  0  0  0  0  0  0  0  0  0
   45.1770   36.5070   42.6790 H   0  0  0  0  0  0  0  0  0  0  0  0
   45.3080   33.4010   46.4550 H   0  0  0  0  0  0  0  0  0  0  0  0
   46.6360   34.3160   42.1360 C   0  0  0  0  0  0  0  0  0  0  0  0
   46.0960   33.4820   41.6390 H   0  0  0  0  0  0  0  0  0  0  0  0
   46.6430   35.1600   41.4360 H   0  0  0  0  0  0  0  0  0  0  0  0
   48.0500   33.8370   42.3210 C   0  0  0  0  0  3  0  0  0  0  0  0
   48.4140   32.6300   41.5100 C   0  0  0  0  0  2  0  0  0  0  0  0
   49.6890   32.0740   42.1460 C   0  0  0  0  0  2  0  0  0  0  0  0
   50.7600   33.1140   41.9580 C   0  0  0  0  0  2  0  0  0  0  0  0
   50.3760   34.4060   42.6420 C   0  0  0  0  0  2  0  0  0  0  0  0
   49.0720   34.9150   42.0160 C   0  0  0  0  0  2  0  0  0  0  0  0
  1  7  1  0  0  0  0
  1  6  1  0  0  0  0
  2  1  2  0  0  0  0
  3  2  1  0  0  0  0
  3  4  2  0  0  0  0
  4  5  1  0  0  0  0
  5  6  2  0  0  0  0
  5  9  1  0  0  0  0
  8  2  1  0  0  0  0
 10 13  1  0  0  0  0
 10  3  1  0  0  0  0
 11 10  1  0  0  0  0
 12 10  1  0  0  0  0
 14 15  1  0  0  0  0
 14 13  1  0  0  0  0
 16 15  1  0  0  0  0
 16 17  1  0  0  0  0
 18 13  1  0  0  0  0
 18 17  1  0  0  0  0
M  END
>  <minimizedAffinity>
-4.42135334

>  <minimizedRMSD>
2.23717737

$$$$
