
 OpenBabel03242522503D

 23 24  0  0  0  0  0  0  0  0999 V2000
   45.5970   30.5690   47.7220 O   0  0  0  0  0  0  0  0  0  0  0  0
   45.9780   31.8910   48.4240 P   0  0  2  0  0  0  0  0  0  0  0  0
   45.3290   31.7960   49.9720 O   0  0  0  0  0  0  0  0  0  0  0  0
   45.5790   32.5320   50.5650 H   0  0  0  0  0  0  0  0  0  0  0  0
   45.2710   33.1670   47.5740 O   0  0  0  0  0  0  0  0  0  0  0  0
   47.1140   32.9970   44.4480 C   0  0  0  0  0  0  0  0  0  0  0  0
   46.6860   32.7260   45.7600 C   0  0  0  0  0  0  0  0  0  0  0  0
   45.6560   33.4670   46.2840 C   0  0  0  0  0  0  0  0  0  0  0  0
   45.1050   34.4250   45.5040 N   0  0  0  0  0  0  0  0  0  0  0  0
   45.5070   34.6900   44.2560 C   0  0  0  0  0  0  0  0  0  0  0  0
   46.5230   33.9650   43.7250 N   0  0  0  0  0  0  0  0  0  0  0  0
   47.9140   32.4750   43.9410 H   0  0  0  0  0  0  0  0  0  0  0  0
   47.2500   31.9370   46.1820 H   0  0  0  0  0  0  0  0  0  0  0  0
   44.9460   35.4890   43.7900 H   0  0  0  0  0  0  0  0  0  0  0  0
   47.6260   32.0330   48.4350 O   0  0  0  0  0  0  0  0  0  0  0  0
   48.5960   31.2970   49.0190 C   0  0  0  0  0  0  0  0  0  0  0  0
   49.5090   32.0070   49.5740 O   0  0  0  0  0  0  0  0  0  0  0  0
   49.2730   30.0380   49.4220 C   0  0  0  0  0  3  0  0  0  0  0  0
   50.7600   30.2220   49.5500 C   0  0  0  0  0  2  0  0  0  0  0  0
   51.5360   30.2710   48.2950 C   0  0  0  0  0  2  0  0  0  0  0  0
   51.1270   29.2500   47.2670 C   0  0  0  0  0  2  0  0  0  0  0  0
   49.6490   29.2220   47.0820 C   0  0  0  0  0  2  0  0  0  0  0  0
   48.9080   29.0050   48.3790 C   0  0  0  0  0  2  0  0  0  0  0  0
  2  1  2  6  0  0  0
  2 15  1  0  0  0  0
  2  3  1  0  0  0  0
  3  4  1  0  0  0  0
  5  2  1  0  0  0  0
  6  7  1  0  0  0  0
  7 13  1  0  0  0  0
  7  8  2  0  0  0  0
  8  5  1  0  0  0  0
  9  8  1  0  0  0  0
 10  9  2  0  0  0  0
 11 10  1  0  0  0  0
 11  6  2  0  0  0  0
 12  6  1  0  0  0  0
 14 10  1  0  0  0  0
 15 16  1  0  0  0  0
 16 18  1  0  0  0  0
 16 17  2  0  0  0  0
 18 19  1  0  0  0  0
 20 19  1  0  0  0  0
 21 20  1  0  0  0  0
 22 21  1  0  0  0  0
 22 23  1  0  0  0  0
 23 18  1  0  0  0  0
M  END
>  <minimizedAffinity>
-4.6359539

>  <minimizedRMSD>
0.865983546

$$$$
