
 OpenBabel03252507163D

 26 28  0  0  0  0  0  0  0  0999 V2000
   45.2290   36.1640   43.3950 C   0  0  0  0  0  0  0  0  0  0  0  0
   45.8760   34.9490   43.0570 C   0  0  0  0  0  0  0  0  0  0  0  0
   45.8520   33.9470   44.0250 C   0  0  0  0  0  0  0  0  0  0  0  0
   45.2380   34.1550   45.2050 N   0  0  0  0  0  0  0  0  0  0  0  0
   44.6220   35.3470   45.4940 C   0  0  0  0  0  0  0  0  0  0  0  0
   44.6350   36.3130   44.5840 N   0  0  0  0  0  0  0  0  0  0  0  0
   45.2220   36.9850   42.6630 H   0  0  0  0  0  0  0  0  0  0  0  0
   44.1760   35.3570   46.4780 H   0  0  0  0  0  0  0  0  0  0  0  0
   46.5110   32.6840   43.7050 C   0  0  0  0  0  0  0  0  0  0  0  0
   45.7600   31.5520   43.4900 C   0  0  0  0  0  0  0  0  0  0  0  0
   46.4080   30.3750   43.1900 C   0  0  0  0  0  0  0  0  0  0  0  0
   47.7890   30.2690   43.0920 C   0  0  0  0  0  0  0  0  0  0  0  0
   48.4860   31.4520   43.3220 C   0  0  0  0  0  0  0  0  0  0  0  0
   47.8360   32.5870   43.6130 N   0  0  0  0  0  0  0  0  0  0  0  0
   44.6610   31.5540   43.5480 H   0  0  0  0  0  0  0  0  0  0  0  0
   45.8420   29.4510   43.0120 H   0  0  0  0  0  0  0  0  0  0  0  0
   48.3100   29.3550   42.8590 H   0  0  0  0  0  0  0  0  0  0  0  0
   49.5690   31.4700   43.2690 H   0  0  0  0  0  0  0  0  0  0  0  0
   46.5080   34.7870   41.7970 C   0  0  0  0  0  0  0  0  0  0  0  0
   47.7220   35.1490   41.7190 O   0  0  0  0  0  0  0  0  0  0  0  0
   46.0320   34.2580   40.4840 C   0  0  0  0  0  3  0  0  0  0  0  0
   44.6870   33.6500   40.7300 C   0  0  0  0  0  2  0  0  0  0  0  0
   44.2270   32.6980   39.6660 C   0  0  0  0  0  2  0  0  0  0  0  0
   45.2750   31.7170   39.2470 C   0  0  0  0  0  2  0  0  0  0  0  0
   46.5970   31.9000   39.9200 C   0  0  0  0  0  2  0  0  0  0  0  0
   47.0440   33.3360   39.8940 C   0  0  0  0  0  2  0  0  0  0  0  0
  1  6  1  0  0  0  0
  2  1  2  0  0  0  0
  2  3  1  0  0  0  0
  3  4  2  0  0  0  0
  4  5  1  0  0  0  0
  5  8  1  0  0  0  0
  6  5  2  0  0  0  0
  7  1  1  0  0  0  0
  9  3  1  0  0  0  0
 10 15  1  0  0  0  0
 10  9  2  0  0  0  0
 11 10  1  0  0  0  0
 12 11  2  0  0  0  0
 12 13  1  0  0  0  0
 13 14  2  0  0  0  0
 14  9  1  0  0  0  0
 16 11  1  0  0  0  0
 17 12  1  0  0  0  0
 18 13  1  0  0  0  0
 19  2  1  0  0  0  0
 20 19  2  0  0  0  0
 21 22  1  0  0  0  0
 21 19  1  0  0  0  0
 23 22  1  0  0  0  0
 24 23  1  0  0  0  0
 24 25  1  0  0  0  0
 26 25  1  0  0  0  0
 26 21  1  0  0  0  0
M  END
>  <minimizedAffinity>
-4.25529766

>  <minimizedRMSD>
0.316033125

$$$$
