
 OpenBabel03252508503D

 25 27  0  0  0  0  0  0  0  0999 V2000
   45.8900   34.1660   41.0130 C   0  0  0  0  0  0  0  0  0  0  0  0
   46.4990   34.7780   42.1020 C   0  0  0  0  0  0  0  0  0  0  0  0
   47.8480   35.1270   41.9790 C   0  0  0  0  0  0  0  0  0  0  0  0
   48.4830   34.8500   40.8100 N   0  0  0  0  0  0  0  0  0  0  0  0
   47.8540   34.2540   39.7780 C   0  0  0  0  0  0  0  0  0  0  0  0
   46.5480   33.9110   39.8840 N   0  0  0  0  0  0  0  0  0  0  0  0
   48.3530   35.6120   42.8210 H   0  0  0  0  0  0  0  0  0  0  0  0
   48.3730   34.0400   38.8550 H   0  0  0  0  0  0  0  0  0  0  0  0
   45.7320   35.0380   43.3220 C   0  0  0  0  0  0  0  0  0  0  0  0
   45.0780   36.2220   43.5660 C   0  0  0  0  0  0  0  0  0  0  0  0
   44.5010   36.0360   44.7990 C   0  0  0  0  0  0  0  0  0  0  0  0
   44.7910   34.7970   45.2850 N   0  0  0  0  0  0  0  0  0  0  0  0
   45.5360   34.2230   44.3690 N   0  0  0  0  0  0  0  0  0  0  0  0
   45.0470   37.0650   42.9210 H   0  0  0  0  0  0  0  0  0  0  0  0
   43.8940   36.7490   45.3450 H   0  0  0  0  0  0  0  0  0  0  0  0
   44.4790   34.4070   46.1940 H   0  0  0  0  0  0  0  0  0  0  0  0
   44.5640   33.8210   41.1310 O   0  0  0  0  0  0  0  0  0  0  0  0
   43.4910   34.5240   40.6640 C   0  0  0  0  0  0  0  0  0  0  0  0
   43.3450   35.7900   40.6250 O   0  0  0  0  0  0  0  0  0  0  0  0
   42.1580   34.1490   40.0570 C   0  0  0  0  0  0  0  0  0  0  0  0
   41.8560   35.0360   38.8760 C   0  0  0  0  0  0  0  0  0  0  0  0
   40.6570   34.4100   38.1870 C   0  0  0  0  0  0  0  0  0  0  0  0
   39.4560   34.5910   39.0790 C   0  0  0  0  0  0  0  0  0  0  0  0
   39.7720   34.8180   40.5180 C   0  0  0  0  0  0  0  0  0  0  0  0
   41.0280   34.1750   41.0140 C   0  0  0  0  0  0  0  0  0  0  0  0
  1 17  1  0  0  0  0
  1  2  1  0  0  0  0
  2  9  1  0  0  0  0
  3  2  2  0  0  0  0
  3  7  1  0  0  0  0
  4  3  1  0  0  0  0
  5  6  1  0  0  0  0
  5  4  2  0  0  0  0
  6  1  2  0  0  0  0
  8  5  1  0  0  0  0
  9 10  1  0  0  0  0
  9 13  2  0  0  0  0
 10 11  2  0  0  0  0
 11 12  1  0  0  0  0
 11 15  1  0  0  0  0
 12 16  1  0  0  0  0
 13 12  1  0  0  0  0
 14 10  1  0  0  0  0
 18 17  1  0  0  0  0
 19 18  2  0  0  0  0
 20 18  1  0  0  0  0
 20 25  1  0  0  0  0
 21 20  1  0  0  0  0
 22 21  1  0  0  0  0
 22 23  1  0  0  0  0
 23 24  1  0  0  0  0
 24 25  1  0  0  0  0
M  END
>  <minimizedAffinity>
-5.97163963

>  <minimizedRMSD>
0.790719032

$$$$
