
 OpenBabel03242519253D

 37 40  0  0  0  0  0  0  0  0999 V2000
   47.8500   33.9670   42.8980 C   0  0  0  0  0  0  0  0  0  0  0  0
   48.3960   35.2200   42.5950 C   0  0  0  0  0  0  0  0  0  0  0  0
   49.7400   35.3240   42.1860 C   0  0  0  0  0  0  0  0  0  0  0  0
   50.4370   34.1430   42.1130 N   0  0  0  0  0  0  0  0  0  0  0  0
   49.8670   32.9360   42.4190 C   0  0  0  0  0  0  0  0  0  0  0  0
   48.5960   32.8670   42.8020 N   0  0  0  0  0  0  0  0  0  0  0  0
   47.9330   36.1960   42.6220 H   0  0  0  0  0  0  0  0  0  0  0  0
   50.2320   36.2410   41.9360 H   0  0  0  0  0  0  0  0  0  0  0  0
   46.4370   33.9910   43.3190 C   0  0  0  0  0  0  0  0  0  0  0  0
   45.6300   35.0040   42.6430 C   0  0  0  0  0  0  0  0  0  0  0  0
   45.1640   36.1080   43.5220 C   0  0  0  0  0  0  0  0  0  0  0  0
   44.4440   35.6130   44.7670 C   0  0  0  0  0  0  0  0  0  0  0  0
   45.0390   34.3560   45.3590 C   0  0  0  0  0  0  0  0  0  0  0  0
   46.4390   34.1370   44.8490 C   0  0  0  0  0  0  0  0  0  0  0  0
   46.0480   32.9440   43.1480 H   0  0  0  0  0  0  0  0  0  0  0  0
   44.7050   34.5110   42.2240 H   0  0  0  0  0  0  0  0  0  0  0  0
   46.1320   35.4480   41.7760 H   0  0  0  0  0  0  0  0  0  0  0  0
   45.8900   36.8850   43.7690 H   0  0  0  0  0  0  0  0  0  0  0  0
   44.3580   36.6480   42.9400 H   0  0  0  0  0  0  0  0  0  0  0  0
   43.3610   35.5200   44.6160 H   0  0  0  0  0  0  0  0  0  0  0  0
   44.5760   36.4120   45.5410 H   0  0  0  0  0  0  0  0  0  0  0  0
   44.4260   33.4840   45.0880 H   0  0  0  0  0  0  0  0  0  0  0  0
   45.0930   34.4050   46.4580 H   0  0  0  0  0  0  0  0  0  0  0  0
   46.8110   33.1740   45.2530 H   0  0  0  0  0  0  0  0  0  0  0  0
   47.1380   34.9300   45.1660 H   0  0  0  0  0  0  0  0  0  0  0  0
   50.7510   31.7870   42.2930 C   0  0  0  0  0  0  0  0  0  0  0  0
   51.4770   31.6860   41.1560 N   0  0  0  0  0  0  0  0  0  0  0  0
   52.2370   30.5690   41.2090 C   0  0  0  0  0  0  0  0  0  0  0  0
   51.9670   29.9800   42.4090 N   0  0  0  0  0  0  0  0  0  0  0  0
   51.0670   30.7190   43.0630 N   0  0  0  0  0  0  0  0  0  0  0  0
   52.9200   30.2280   40.4430 H   0  0  0  0  0  0  0  0  0  0  0  0
   52.5400   28.7600   42.9180 C   0  0  0  0  0  0  0  0  0  0  0  0
   53.7810   28.3140   42.2160 C   0  0  0  0  0  0  0  0  0  0  0  0
   54.7470   27.7520   43.2390 C   0  0  0  0  0  0  0  0  0  0  0  0
   55.2440   28.8470   44.1450 C   0  0  0  0  0  0  0  0  0  0  0  0
   54.0870   29.6620   44.6710 C   0  0  0  0  0  0  0  0  0  0  0  0
   52.7660   28.9850   44.4000 C   0  0  0  0  0  0  0  0  0  0  0  0
  1  9  1  0  0  0  0
  2  7  1  0  0  0  0
  2  1  2  0  0  0  0
  3  2  1  0  0  0  0
  4  3  2  0  0  0  0
  4  5  1  0  0  0  0
  5  6  2  0  0  0  0
  6  1  1  0  0  0  0
  8  3  1  0  0  0  0
  9 14  1  0  0  0  0
 10  9  1  0  0  0  0
 10 11  1  0  0  0  0
 11 18  1  0  0  0  0
 11 12  1  0  0  0  0
 12 13  1  0  0  0  0
 12 21  1  0  0  0  0
 13 23  1  0  0  0  0
 14 25  1  0  0  0  0
 14 24  1  0  0  0  0
 14 13  1  0  0  0  0
 15  9  1  0  0  0  0
 16 10  1  0  0  0  0
 17 10  1  0  0  0  0
 19 11  1  0  0  0  0
 20 12  1  0  0  0  0
 22 13  1  0  0  0  0
 26  5  1  0  0  0  0
 26 30  2  0  0  0  0
 27 28  2  0  0  0  0
 27 26  1  0  0  0  0
 28 29  1  0  0  0  0
 29 32  1  0  0  0  0
 29 30  1  0  0  0  0
 31 28  1  0  0  0  0
 32 37  1  0  0  0  0
 33 32  1  0  0  0  0
 33 34  1  0  0  0  0
 34 35  1  0  0  0  0
 35 36  1  0  0  0  0
 37 36  1  0  0  0  0
M  END
>  <minimizedAffinity>
-4.38193035

>  <minimizedRMSD>
1.70187128

$$$$
