
 OpenBabel03252508103D

 41 44  0  0  0  0  0  0  0  0999 V2000
   41.8390   29.1900   40.3410 C   0  0  0  0  0  0  0  0  0  0  0  0
   40.5490   28.7810   40.6380 C   0  0  0  0  0  0  0  0  0  0  0  0
   40.2420   28.3270   41.8960 C   0  0  0  0  0  0  0  0  0  0  0  0
   41.2670   28.3060   42.8210 N   0  0  0  0  0  0  0  0  0  0  0  0
   42.5070   28.7010   42.5290 C   0  0  0  0  0  0  0  0  0  0  0  0
   42.7790   29.1410   41.2850 N   0  0  0  0  0  0  0  0  0  0  0  0
   42.1560   29.5540   39.3870 H   0  0  0  0  0  0  0  0  0  0  0  0
   43.2920   28.6740   43.2740 H   0  0  0  0  0  0  0  0  0  0  0  0
   38.9830   27.8750   42.3530 C   0  0  0  0  0  0  0  0  0  0  0  0
   38.1360   28.6200   43.1790 C   0  0  0  0  0  0  0  0  0  0  0  0
   36.9450   28.1600   43.6760 C   0  0  0  0  0  0  0  0  0  0  0  0
   36.5200   26.8890   43.3630 C   0  0  0  0  0  0  0  0  0  0  0  0
   37.3670   26.1100   42.5180 C   0  0  0  0  0  0  0  0  0  0  0  0
   36.9510   24.8470   42.2040 C   0  0  0  0  0  0  0  0  0  0  0  0
   37.7220   24.0430   41.3890 C   0  0  0  0  0  0  0  0  0  0  0  0
   38.9370   24.5350   40.8850 C   0  0  0  0  0  0  0  0  0  0  0  0
   39.3190   25.8410   41.2400 C   0  0  0  0  0  0  0  0  0  0  0  0
   38.5370   26.6150   42.0520 C   0  0  0  0  0  0  0  0  0  0  0  0
   38.4390   29.6280   43.4490 H   0  0  0  0  0  0  0  0  0  0  0  0
   36.3350   28.7870   44.3110 H   0  0  0  0  0  0  0  0  0  0  0  0
   35.5940   26.4540   43.7160 H   0  0  0  0  0  0  0  0  0  0  0  0
   35.9990   24.4610   42.5980 H   0  0  0  0  0  0  0  0  0  0  0  0
   37.3390   23.0600   41.1810 H   0  0  0  0  0  0  0  0  0  0  0  0
   39.4530   23.8380   40.2680 H   0  0  0  0  0  0  0  0  0  0  0  0
   40.2470   26.0370   40.7470 H   0  0  0  0  0  0  0  0  0  0  0  0
   39.6250   28.8570   39.6320 O   0  0  0  0  0  0  0  0  0  0  0  0
   39.0930   30.8720   38.0450 O   0  0  0  0  0  0  0  0  0  0  0  0
   38.6640   30.2130   39.3070 P   0  0  1  0  0  0  0  0  0  0  0  0
   37.0430   29.7780   39.1110 O   0  0  0  0  0  0  0  0  0  0  0  0
   36.6910   28.6370   39.8270 C   0  0  0  0  0  3  0  0  0  0  0  0
   35.3150   28.8980   40.4110 C   0  0  0  0  0  2  0  0  0  0  0  0
   34.3980   29.2680   39.2830 C   0  0  0  0  0  2  0  0  0  0  0  0
   34.4250   28.3360   38.1200 C   0  0  0  0  0  2  0  0  0  0  0  0
   35.8080   27.9100   37.6940 C   0  0  0  0  0  2  0  0  0  0  0  0
   36.5250   27.4340   38.9140 C   0  0  0  0  0  2  0  0  0  0  0  0
   38.7880   31.2680   40.6090 O   0  0  0  0  0  0  0  0  0  0  0  0
   38.3170   32.5700   40.6690 C   0  0  0  0  0  0  0  0  0  0  0  0
   39.3110   33.2510   40.9810 O   0  0  0  0  0  0  0  0  0  0  0  0
   36.9090   32.6210   40.3570 N   0  0  0  0  0  0  0  0  0  0  0  0
   36.6490   32.4260   39.3840 H   0  0  0  0  0  0  0  0  0  0  0  0
   36.1000   32.8270   40.9700 H   0  0  0  0  0  0  0  0  0  0  0  0
  1  2  2  0  0  0  0
  1  6  1  0  0  0  0
  2  3  1  0  0  0  0
  3  9  1  0  0  0  0
  3  4  2  0  0  0  0
  5  4  1  0  0  0  0
  5  8  1  0  0  0  0
  6  5  2  0  0  0  0
  7  1  1  0  0  0  0
  9 10  1  0  0  0  0
 10 19  1  0  0  0  0
 10 11  2  0  0  0  0
 11 20  1  0  0  0  0
 12 11  1  0  0  0  0
 12 21  1  0  0  0  0
 13 12  2  0  0  0  0
 14 13  1  0  0  0  0
 14 22  1  0  0  0  0
 15 14  2  0  0  0  0
 16 17  2  0  0  0  0
 16 15  1  0  0  0  0
 17 18  1  0  0  0  0
 18  9  2  0  0  0  0
 18 13  1  0  0  0  0
 23 15  1  0  0  0  0
 24 16  1  0  0  0  0
 25 17  1  0  0  0  0
 26  2  1  0  0  0  0
 28 27  2  6  0  0  0
 28 26  1  0  0  0  0
 28 36  1  0  0  0  0
 29 28  1  0  0  0  0
 29 30  1  0  0  0  0
 30 31  1  0  0  0  0
 32 31  1  0  0  0  0
 33 32  1  0  0  0  0
 34 33  1  0  0  0  0
 34 35  1  0  0  0  0
 35 30  1  0  0  0  0
 36 37  1  0  0  0  0
 37 38  2  0  0  0  0
 39 37  1  0  0  0  0
 39 41  1  0  0  0  0
 40 39  1  0  0  0  0
M  END
>  <minimizedAffinity>
-6.23915434

$$$$

 OpenBabel03252508103D

 41 44  0  0  0  0  0  0  0  0999 V2000
   42.8870   27.9130   41.4040 C   0  0  0  0  0  0  0  0  0  0  0  0
   41.5030   27.8800   41.4150 C   0  0  0  0  0  0  0  0  0  0  0  0
   40.8310   27.5390   42.5630 C   0  0  0  0  0  0  0  0  0  0  0  0
   41.5980   27.2430   43.6720 N   0  0  0  0  0  0  0  0  0  0  0  0
   42.9310   27.2780   43.6550 C   0  0  0  0  0  0  0  0  0  0  0  0
   43.5630   27.6140   42.5130 N   0  0  0  0  0  0  0  0  0  0  0  0
   43.4810   28.1670   40.5510 H   0  0  0  0  0  0  0  0  0  0  0  0
   43.5080   27.0420   44.5400 H   0  0  0  0  0  0  0  0  0  0  0  0
   39.4300   27.4570   42.7360 C   0  0  0  0  0  0  0  0  0  0  0  0
   38.6550   28.4530   43.3360 C   0  0  0  0  0  0  0  0  0  0  0  0
   37.3080   28.3490   43.5620 C   0  0  0  0  0  0  0  0  0  0  0  0
   36.6390   27.2060   43.1890 C   0  0  0  0  0  0  0  0  0  0  0  0
   37.4100   26.1750   42.5710 C   0  0  0  0  0  0  0  0  0  0  0  0
   36.7510   25.0370   42.1980 C   0  0  0  0  0  0  0  0  0  0  0  0
   37.4370   24.0030   41.5940 C   0  0  0  0  0  0  0  0  0  0  0  0
   38.8170   24.1320   41.3640 C   0  0  0  0  0  0  0  0  0  0  0  0
   39.4450   25.3230   41.7690 C   0  0  0  0  0  0  0  0  0  0  0  0
   38.7420   26.3300   42.3690 C   0  0  0  0  0  0  0  0  0  0  0  0
   39.1490   29.3700   43.6450 H   0  0  0  0  0  0  0  0  0  0  0  0
   36.7650   29.1580   44.0320 H   0  0  0  0  0  0  0  0  0  0  0  0
   35.5790   27.0470   43.3340 H   0  0  0  0  0  0  0  0  0  0  0  0
   35.6710   24.9360   42.3770 H   0  0  0  0  0  0  0  0  0  0  0  0
   36.8610   23.1350   41.3250 H   0  0  0  0  0  0  0  0  0  0  0  0
   39.2490   23.2800   40.8930 H   0  0  0  0  0  0  0  0  0  0  0  0
   40.4740   25.2390   41.4910 H   0  0  0  0  0  0  0  0  0  0  0  0
   40.8620   28.1990   40.2500 O   0  0  0  0  0  0  0  0  0  0  0  0
   40.4310   30.0370   38.4340 O   0  0  0  0  0  0  0  0  0  0  0  0
   40.2470   29.7320   39.8780 P   0  0  1  0  0  0  0  0  0  0  0  0
   38.5880   29.8160   40.1930 O   0  0  0  0  0  0  0  0  0  0  0  0
   37.8390   30.2040   39.0850 C   0  0  0  0  0  3  0  0  0  0  0  0
   37.1240   28.9620   38.5870 C   0  0  0  0  0  2  0  0  0  0  0  0
   36.3440   28.3890   39.7330 C   0  0  0  0  0  2  0  0  0  0  0  0
   35.4830   29.3660   40.4580 C   0  0  0  0  0  2  0  0  0  0  0  0
   36.1490   30.6890   40.7470 C   0  0  0  0  0  2  0  0  0  0  0  0
   36.7410   31.1810   39.4690 C   0  0  0  0  0  2  0  0  0  0  0  0
   41.0380   30.8620   40.8370 O   0  0  0  0  0  0  0  0  0  0  0  0
   40.5210   31.5190   41.9420 C   0  0  0  0  0  0  0  0  0  0  0  0
   41.1560   31.0590   42.9090 O   0  0  0  0  0  0  0  0  0  0  0  0
   39.4870   32.4450   41.5500 N   0  0  0  0  0  0  0  0  0  0  0  0
   39.7890   33.2740   41.0270 H   0  0  0  0  0  0  0  0  0  0  0  0
   38.4650   32.4080   41.7160 H   0  0  0  0  0  0  0  0  0  0  0  0
  1  2  2  0  0  0  0
  1  6  1  0  0  0  0
  2  3  1  0  0  0  0
  3  9  1  0  0  0  0
  3  4  2  0  0  0  0
  5  4  1  0  0  0  0
  5  8  1  0  0  0  0
  6  5  2  0  0  0  0
  7  1  1  0  0  0  0
  9 10  1  0  0  0  0
 10 11  2  0  0  0  0
 10 19  1  0  0  0  0
 11 20  1  0  0  0  0
 12 21  1  0  0  0  0
 12 11  1  0  0  0  0
 13 12  2  0  0  0  0
 14 22  1  0  0  0  0
 14 13  1  0  0  0  0
 15 14  2  0  0  0  0
 16 15  1  0  0  0  0
 16 17  2  0  0  0  0
 17 18  1  0  0  0  0
 18 13  1  0  0  0  0
 18  9  2  0  0  0  0
 23 15  1  0  0  0  0
 24 16  1  0  0  0  0
 25 17  1  0  0  0  0
 26  2  1  0  0  0  0
 28 27  2  6  0  0  0
 28 29  1  0  0  0  0
 28 26  1  0  0  0  0
 28 36  1  0  0  0  0
 30 35  1  0  0  0  0
 30 29  1  0  0  0  0
 31 30  1  0  0  0  0
 31 32  1  0  0  0  0
 32 33  1  0  0  0  0
 33 34  1  0  0  0  0
 35 34  1  0  0  0  0
 36 37  1  0  0  0  0
 37 38  2  0  0  0  0
 39 41  1  0  0  0  0
 39 37  1  0  0  0  0
 40 39  1  0  0  0  0
M  END
>  <minimizedAffinity>
-6.10878468

$$$$

 OpenBabel03252508103D

 41 44  0  0  0  0  0  0  0  0999 V2000
   37.7320   30.0570   37.7690 C   0  0  0  0  0  0  0  0  0  0  0  0
   37.8510   29.4750   39.0210 C   0  0  0  0  0  0  0  0  0  0  0  0
   36.8070   28.7580   39.5490 C   0  0  0  0  0  0  0  0  0  0  0  0
   35.6660   28.6520   38.7780 N   0  0  0  0  0  0  0  0  0  0  0  0
   35.5590   29.2150   37.5740 C   0  0  0  0  0  0  0  0  0  0  0  0
   36.6000   29.9140   37.0810 N   0  0  0  0  0  0  0  0  0  0  0  0
   38.4990   30.6300   37.2920 H   0  0  0  0  0  0  0  0  0  0  0  0
   34.6530   29.1160   36.9890 H   0  0  0  0  0  0  0  0  0  0  0  0
   36.7700   28.1090   40.8050 C   0  0  0  0  0  0  0  0  0  0  0  0
   36.6270   28.7730   42.0260 C   0  0  0  0  0  0  0  0  0  0  0  0
   36.6550   28.1540   43.2470 C   0  0  0  0  0  0  0  0  0  0  0  0
   36.8330   26.7910   43.3180 C   0  0  0  0  0  0  0  0  0  0  0  0
   36.9790   26.0900   42.0830 C   0  0  0  0  0  0  0  0  0  0  0  0
   37.1570   24.7360   42.1460 C   0  0  0  0  0  0  0  0  0  0  0  0
   37.3010   23.9990   40.9890 C   0  0  0  0  0  0  0  0  0  0  0  0
   37.2630   24.6520   39.7450 C   0  0  0  0  0  0  0  0  0  0  0  0
   37.0790   26.0460   39.7370 C   0  0  0  0  0  0  0  0  0  0  0  0
   36.9420   26.7520   40.9000 C   0  0  0  0  0  0  0  0  0  0  0  0
   36.4850   29.8500   42.0100 H   0  0  0  0  0  0  0  0  0  0  0  0
   36.5380   28.7260   44.1580 H   0  0  0  0  0  0  0  0  0  0  0  0
   36.8680   26.2300   44.2430 H   0  0  0  0  0  0  0  0  0  0  0  0
   37.1860   24.2250   43.1190 H   0  0  0  0  0  0  0  0  0  0  0  0
   37.4380   22.9390   41.1070 H   0  0  0  0  0  0  0  0  0  0  0  0
   37.3830   23.9940   38.9170 H   0  0  0  0  0  0  0  0  0  0  0  0
   37.0560   26.3490   38.7120 H   0  0  0  0  0  0  0  0  0  0  0  0
   39.0370   29.6500   39.6800 O   0  0  0  0  0  0  0  0  0  0  0  0
   39.7570   30.5380   42.0360 O   0  0  0  0  0  0  0  0  0  0  0  0
   39.4060   30.9800   40.6610 P   0  0  1  0  0  0  0  0  0  0  0  0
   40.7380   31.8290   40.0600 O   0  0  0  0  0  0  0  0  0  0  0  0
   41.1080   31.4320   38.7780 C   0  0  0  0  0  3  0  0  0  0  0  0
   40.7720   32.5860   37.8520 C   0  0  0  0  0  2  0  0  0  0  0  0
   41.4560   33.8130   38.3770 C   0  0  0  0  0  2  0  0  0  0  0  0
   42.9070   33.6450   38.6760 C   0  0  0  0  0  2  0  0  0  0  0  0
   43.2490   32.3700   39.4070 C   0  0  0  0  0  2  0  0  0  0  0  0
   42.6120   31.2430   38.6650 C   0  0  0  0  0  2  0  0  0  0  0  0
   38.0740   32.0040   40.6790 O   0  0  0  0  0  0  0  0  0  0  0  0
   38.0480   33.3370   40.3010 C   0  0  0  0  0  0  0  0  0  0  0  0
   37.3040   33.3680   39.3040 O   0  0  0  0  0  0  0  0  0  0  0  0
   38.8640   34.1360   41.1820 N   0  0  0  0  0  0  0  0  0  0  0  0
   38.5190   34.2590   42.1400 H   0  0  0  0  0  0  0  0  0  0  0  0
   39.7630   34.6180   40.9990 H   0  0  0  0  0  0  0  0  0  0  0  0
  1  2  1  0  0  0  0
  2  3  2  0  0  0  0
  2 26  1  0  0  0  0
  3  9  1  0  0  0  0
  4  3  1  0  0  0  0
  5  4  2  0  0  0  0
  6  5  1  0  0  0  0
  6  1  2  0  0  0  0
  7  1  1  0  0  0  0
  8  5  1  0  0  0  0
  9 18  2  0  0  0  0
  9 10  1  0  0  0  0
 10 11  2  0  0  0  0
 11 12  1  0  0  0  0
 11 20  1  0  0  0  0
 12 21  1  0  0  0  0
 13 14  1  0  0  0  0
 13 12  2  0  0  0  0
 14 22  1  0  0  0  0
 15 23  1  0  0  0  0
 15 14  2  0  0  0  0
 16 15  1  0  0  0  0
 17 16  2  0  0  0  0
 17 18  1  0  0  0  0
 18 13  1  0  0  0  0
 19 10  1  0  0  0  0
 24 16  1  0  0  0  0
 25 17  1  0  0  0  0
 26 28  1  0  0  0  0
 28 36  1  0  0  0  0
 28 27  2  1  0  0  0
 29 28  1  0  0  0  0
 30 29  1  0  0  0  0
 31 32  1  0  0  0  0
 31 30  1  0  0  0  0
 32 33  1  0  0  0  0
 33 34  1  0  0  0  0
 35 30  1  0  0  0  0
 35 34  1  0  0  0  0
 37 36  1  0  0  0  0
 37 39  1  0  0  0  0
 38 37  2  0  0  0  0
 39 40  1  0  0  0  0
 41 39  1  0  0  0  0
M  END
>  <minimizedAffinity>
-6.03323174

$$$$

 OpenBabel03252508103D

 41 44  0  0  0  0  0  0  0  0999 V2000
   37.7150   28.0080   36.8260 C   0  0  0  0  0  0  0  0  0  0  0  0
   38.0320   28.9310   37.8090 C   0  0  0  0  0  0  0  0  0  0  0  0
   37.6860   30.2500   37.6530 C   0  0  0  0  0  0  0  0  0  0  0  0
   37.0190   30.5890   36.4920 N   0  0  0  0  0  0  0  0  0  0  0  0
   36.7160   29.6950   35.5500 C   0  0  0  0  0  0  0  0  0  0  0  0
   37.0700   28.4070   35.7300 N   0  0  0  0  0  0  0  0  0  0  0  0
   37.9510   26.9650   36.8740 H   0  0  0  0  0  0  0  0  0  0  0  0
   36.1930   29.9880   34.6490 H   0  0  0  0  0  0  0  0  0  0  0  0
   37.9380   31.3080   38.5560 C   0  0  0  0  0  0  0  0  0  0  0  0
   37.0190   31.7620   39.5060 C   0  0  0  0  0  0  0  0  0  0  0  0
   37.2370   32.8270   40.3390 C   0  0  0  0  0  0  0  0  0  0  0  0
   38.4240   33.5210   40.2670 C   0  0  0  0  0  0  0  0  0  0  0  0
   39.3790   33.0730   39.3040 C   0  0  0  0  0  0  0  0  0  0  0  0
   40.5600   33.7580   39.2270 C   0  0  0  0  0  0  0  0  0  0  0  0
   41.5270   33.3740   38.3200 C   0  0  0  0  0  0  0  0  0  0  0  0
   41.2880   32.2750   37.4790 C   0  0  0  0  0  0  0  0  0  0  0  0
   40.0560   31.6080   37.5990 C   0  0  0  0  0  0  0  0  0  0  0  0
   39.1140   32.0100   38.5050 C   0  0  0  0  0  0  0  0  0  0  0  0
   36.0710   31.2400   39.5930 H   0  0  0  0  0  0  0  0  0  0  0  0
   36.4840   33.1300   41.0550 H   0  0  0  0  0  0  0  0  0  0  0  0
   38.6690   34.3720   40.8870 H   0  0  0  0  0  0  0  0  0  0  0  0
   40.7480   34.6180   39.8860 H   0  0  0  0  0  0  0  0  0  0  0  0
   42.4330   33.9550   38.3080 H   0  0  0  0  0  0  0  0  0  0  0  0
   42.0960   32.0630   36.8190 H   0  0  0  0  0  0  0  0  0  0  0  0
   40.0740   30.7980   36.9010 H   0  0  0  0  0  0  0  0  0  0  0  0
   38.6900   28.4640   38.9130 O   0  0  0  0  0  0  0  0  0  0  0  0
   36.4770   28.1420   40.2770 O   0  0  0  0  0  0  0  0  0  0  0  0
   37.9330   27.8420   40.2940 P   0  0  1  0  0  0  0  0  0  0  0  0
   38.0900   26.1610   40.3710 O   0  0  0  0  0  0  0  0  0  0  0  0
   38.3180   25.6900   41.6620 C   0  0  0  0  0  3  0  0  0  0  0  0
   37.0070   25.0980   42.1450 C   0  0  0  0  0  2  0  0  0  0  0  0
   36.5680   24.0710   41.1440 C   0  0  0  0  0  2  0  0  0  0  0  0
   37.6120   23.0740   40.7680 C   0  0  0  0  0  2  0  0  0  0  0  0
   38.9740   23.6670   40.5080 C   0  0  0  0  0  2  0  0  0  0  0  0
   39.3110   24.5410   41.6690 C   0  0  0  0  0  2  0  0  0  0  0  0
   38.6700   28.5170   41.6460 O   0  0  0  0  0  0  0  0  0  0  0  0
   38.2400   29.6230   42.3590 C   0  0  0  0  0  0  0  0  0  0  0  0
   39.0950   30.4990   42.1300 O   0  0  0  0  0  0  0  0  0  0  0  0
   37.0130   29.3360   43.0620 N   0  0  0  0  0  0  0  0  0  0  0  0
   36.1750   29.2100   42.4860 H   0  0  0  0  0  0  0  0  0  0  0  0
   36.8390   29.2330   44.0780 H   0  0  0  0  0  0  0  0  0  0  0  0
  1  7  1  0  0  0  0
  1  2  1  0  0  0  0
  2 26  1  0  0  0  0
  3  2  2  0  0  0  0
  3  9  1  0  0  0  0
  4  3  1  0  0  0  0
  5  6  1  0  0  0  0
  5  4  2  0  0  0  0
  6  1  2  0  0  0  0
  8  5  1  0  0  0  0
  9 10  1  0  0  0  0
 10 19  1  0  0  0  0
 10 11  2  0  0  0  0
 11 20  1  0  0  0  0
 12 11  1  0  0  0  0
 12 21  1  0  0  0  0
 13 12  2  0  0  0  0
 14 13  1  0  0  0  0
 14 22  1  0  0  0  0
 15 14  2  0  0  0  0
 16 17  2  0  0  0  0
 16 15  1  0  0  0  0
 17 18  1  0  0  0  0
 18  9  2  0  0  0  0
 18 13  1  0  0  0  0
 23 15  1  0  0  0  0
 24 16  1  0  0  0  0
 25 17  1  0  0  0  0
 26 28  1  0  0  0  0
 28 27  2  6  0  0  0
 28 29  1  0  0  0  0
 28 36  1  0  0  0  0
 29 30  1  0  0  0  0
 30 35  1  0  0  0  0
 30 31  1  0  0  0  0
 32 31  1  0  0  0  0
 33 32  1  0  0  0  0
 34 33  1  0  0  0  0
 34 35  1  0  0  0  0
 36 37  1  0  0  0  0
 37 39  1  0  0  0  0
 38 37  2  0  0  0  0
 39 41  1  0  0  0  0
 40 39  1  0  0  0  0
M  END
>  <minimizedAffinity>
-5.97103739

$$$$

 OpenBabel03252508103D

 41 44  0  0  0  0  0  0  0  0999 V2000
   40.2930   32.2890   40.1650 C   0  0  0  0  0  0  0  0  0  0  0  0
   39.3360   31.2980   40.0240 C   0  0  0  0  0  0  0  0  0  0  0  0
   38.0160   31.6340   39.8500 C   0  0  0  0  0  0  0  0  0  0  0  0
   37.7120   32.9810   39.8210 N   0  0  0  0  0  0  0  0  0  0  0  0
   38.6390   33.9300   39.9570 C   0  0  0  0  0  0  0  0  0  0  0  0
   39.9260   33.5700   40.1280 N   0  0  0  0  0  0  0  0  0  0  0  0
   41.3380   32.1070   40.3040 H   0  0  0  0  0  0  0  0  0  0  0  0
   38.3730   34.9790   39.9310 H   0  0  0  0  0  0  0  0  0  0  0  0
   36.9260   30.7480   39.6940 C   0  0  0  0  0  0  0  0  0  0  0  0
   36.1780   30.2320   40.7560 C   0  0  0  0  0  0  0  0  0  0  0  0
   35.1630   29.3230   40.6130 C   0  0  0  0  0  0  0  0  0  0  0  0
   34.8280   28.8650   39.3590 C   0  0  0  0  0  0  0  0  0  0  0  0
   35.5780   29.3790   38.2570 C   0  0  0  0  0  0  0  0  0  0  0  0
   35.2510   28.9280   37.0100 C   0  0  0  0  0  0  0  0  0  0  0  0
   35.9340   29.3880   35.9030 C   0  0  0  0  0  0  0  0  0  0  0  0
   36.9680   30.3250   36.0700 C   0  0  0  0  0  0  0  0  0  0  0  0
   37.2640   30.7550   37.3750 C   0  0  0  0  0  0  0  0  0  0  0  0
   36.5720   30.2800   38.4550 C   0  0  0  0  0  0  0  0  0  0  0  0
   36.4140   30.5700   41.7610 H   0  0  0  0  0  0  0  0  0  0  0  0
   34.6210   28.9620   41.4760 H   0  0  0  0  0  0  0  0  0  0  0  0
   34.0420   28.1480   39.1640 H   0  0  0  0  0  0  0  0  0  0  0  0
   34.4410   28.1950   36.8790 H   0  0  0  0  0  0  0  0  0  0  0  0
   35.6290   28.9930   34.9500 H   0  0  0  0  0  0  0  0  0  0  0  0
   37.4290   30.6150   35.1550 H   0  0  0  0  0  0  0  0  0  0  0  0
   38.0520   31.4730   37.2930 H   0  0  0  0  0  0  0  0  0  0  0  0
   39.7700   30.0010   40.0650 O   0  0  0  0  0  0  0  0  0  0  0  0
   39.9310   30.0120   42.6790 O   0  0  0  0  0  0  0  0  0  0  0  0
   40.1670   29.1640   41.4810 P   0  0  1  0  0  0  0  0  0  0  0  0
   39.2120   27.7810   41.6590 O   0  0  0  0  0  0  0  0  0  0  0  0
   38.7030   27.6280   42.9470 C   0  0  0  0  0  3  0  0  0  0  0  0
   37.2490   27.2200   42.7930 C   0  0  0  0  0  2  0  0  0  0  0  0
   37.2030   25.9980   41.9250 C   0  0  0  0  0  2  0  0  0  0  0  0
   38.1280   24.9010   42.3330 C   0  0  0  0  0  2  0  0  0  0  0  0
   39.5170   25.3630   42.7000 C   0  0  0  0  0  2  0  0  0  0  0  0
   39.3740   26.4790   43.6790 C   0  0  0  0  0  2  0  0  0  0  0  0
   41.7790   28.6990   41.3820 O   0  0  0  0  0  0  0  0  0  0  0  0
   42.2810   27.4150   41.5140 C   0  0  0  0  0  0  0  0  0  0  0  0
   42.8300   27.4040   42.6320 O   0  0  0  0  0  0  0  0  0  0  0  0
   41.9810   26.6230   40.3460 N   0  0  0  0  0  0  0  0  0  0  0  0
   40.9970   26.3720   40.2040 H   0  0  0  0  0  0  0  0  0  0  0  0
   42.6130   26.2600   39.6100 H   0  0  0  0  0  0  0  0  0  0  0  0
  1  7  1  0  0  0  0
  2 26  1  0  0  0  0
  2  1  2  0  0  0  0
  3  2  1  0  0  0  0
  4  3  2  0  0  0  0
  4  5  1  0  0  0  0
  5  6  2  0  0  0  0
  6  1  1  0  0  0  0
  8  5  1  0  0  0  0
  9  3  1  0  0  0  0
  9 10  1  0  0  0  0
 10 19  1  0  0  0  0
 11 10  2  0  0  0  0
 11 20  1  0  0  0  0
 12 11  1  0  0  0  0
 13 18  1  0  0  0  0
 13 12  2  0  0  0  0
 14 13  1  0  0  0  0
 15 16  1  0  0  0  0
 15 14  2  0  0  0  0
 16 17  2  0  0  0  0
 17 18  1  0  0  0  0
 18  9  2  0  0  0  0
 21 12  1  0  0  0  0
 22 14  1  0  0  0  0
 23 15  1  0  0  0  0
 24 16  1  0  0  0  0
 25 17  1  0  0  0  0
 26 28  1  0  0  0  0
 28 29  1  0  0  0  0
 28 27  2  1  0  0  0
 29 30  1  0  0  0  0
 30 35  1  0  0  0  0
 31 30  1  0  0  0  0
 32 33  1  0  0  0  0
 32 31  1  0  0  0  0
 33 34  1  0  0  0  0
 34 35  1  0  0  0  0
 36 28  1  0  0  0  0
 36 37  1  0  0  0  0
 37 38  2  0  0  0  0
 39 37  1  0  0  0  0
 40 39  1  0  0  0  0
 41 39  1  0  0  0  0
M  END
>  <minimizedAffinity>
-5.96753311

$$$$

 OpenBabel03252508103D

 41 44  0  0  0  0  0  0  0  0999 V2000
   37.4730   29.2440   37.3200 C   0  0  0  0  0  0  0  0  0  0  0  0
   37.6960   28.6560   38.5540 C   0  0  0  0  0  0  0  0  0  0  0  0
   36.6350   28.3080   39.3530 C   0  0  0  0  0  0  0  0  0  0  0  0
   35.3710   28.5690   38.8630 N   0  0  0  0  0  0  0  0  0  0  0  0
   35.1640   29.1350   37.6740 C   0  0  0  0  0  0  0  0  0  0  0  0
   36.2250   29.4680   36.9120 N   0  0  0  0  0  0  0  0  0  0  0  0
   38.2460   29.5440   36.6430 H   0  0  0  0  0  0  0  0  0  0  0  0
   34.1610   29.3290   37.3140 H   0  0  0  0  0  0  0  0  0  0  0  0
   36.6950   27.7050   40.6310 C   0  0  0  0  0  0  0  0  0  0  0  0
   36.5740   28.4070   41.8330 C   0  0  0  0  0  0  0  0  0  0  0  0
   36.6950   27.8360   43.0730 C   0  0  0  0  0  0  0  0  0  0  0  0
   36.9530   26.4880   43.1820 C   0  0  0  0  0  0  0  0  0  0  0  0
   37.0780   25.7500   41.9660 C   0  0  0  0  0  0  0  0  0  0  0  0
   37.3330   24.4110   42.0670 C   0  0  0  0  0  0  0  0  0  0  0  0
   37.4620   23.6400   40.9300 C   0  0  0  0  0  0  0  0  0  0  0  0
   37.3280   24.2430   39.6680 C   0  0  0  0  0  0  0  0  0  0  0  0
   37.0670   25.6240   39.6210 C   0  0  0  0  0  0  0  0  0  0  0  0
   36.9470   26.3650   40.7640 C   0  0  0  0  0  0  0  0  0  0  0  0
   36.3720   29.4730   41.7880 H   0  0  0  0  0  0  0  0  0  0  0  0
   36.5910   28.4340   43.9670 H   0  0  0  0  0  0  0  0  0  0  0  0
   37.0630   25.9640   44.1220 H   0  0  0  0  0  0  0  0  0  0  0  0
   37.4370   23.9390   43.0550 H   0  0  0  0  0  0  0  0  0  0  0  0
   37.6640   22.5940   41.0780 H   0  0  0  0  0  0  0  0  0  0  0  0
   37.4450   23.5610   38.8590 H   0  0  0  0  0  0  0  0  0  0  0  0
   36.9780   25.8860   38.5890 H   0  0  0  0  0  0  0  0  0  0  0  0
   38.9980   28.4470   38.9190 O   0  0  0  0  0  0  0  0  0  0  0  0
   41.3190   29.6350   39.1650 O   0  0  0  0  0  0  0  0  0  0  0  0
   39.9560   29.5650   39.7540 P   0  0  1  0  0  0  0  0  0  0  0  0
   39.2980   31.1200   39.6620 O   0  0  0  0  0  0  0  0  0  0  0  0
   38.6880   31.5280   40.8450 C   0  0  0  0  0  3  0  0  0  0  0  0
   39.1950   32.9290   41.1340 C   0  0  0  0  0  2  0  0  0  0  0  0
   38.9150   33.7780   39.9300 C   0  0  0  0  0  2  0  0  0  0  0  0
   37.5150   33.7040   39.4210 C   0  0  0  0  0  2  0  0  0  0  0  0
   36.9490   32.3070   39.3530 C   0  0  0  0  0  2  0  0  0  0  0  0
   37.1850   31.6650   40.6800 C   0  0  0  0  0  2  0  0  0  0  0  0
   40.0210   29.1000   41.3680 O   0  0  0  0  0  0  0  0  0  0  0  0
   40.2810   27.8300   41.8550 C   0  0  0  0  0  0  0  0  0  0  0  0
   40.1850   27.9400   43.0910 O   0  0  0  0  0  0  0  0  0  0  0  0
   40.5510   26.9120   40.7750 N   0  0  0  0  0  0  0  0  0  0  0  0
   39.7570   26.6680   40.1730 H   0  0  0  0  0  0  0  0  0  0  0  0
   41.4370   26.4480   40.5040 H   0  0  0  0  0  0  0  0  0  0  0  0
  1  2  1  0  0  0  0
  2 26  1  0  0  0  0
  2  3  2  0  0  0  0
  3  9  1  0  0  0  0
  4  3  1  0  0  0  0
  5  4  2  0  0  0  0
  6  1  2  0  0  0  0
  6  5  1  0  0  0  0
  7  1  1  0  0  0  0
  8  5  1  0  0  0  0
  9 18  2  0  0  0  0
  9 10  1  0  0  0  0
 10 11  2  0  0  0  0
 11 12  1  0  0  0  0
 11 20  1  0  0  0  0
 12 21  1  0  0  0  0
 13 14  1  0  0  0  0
 13 12  2  0  0  0  0
 14 22  1  0  0  0  0
 15 23  1  0  0  0  0
 15 14  2  0  0  0  0
 16 15  1  0  0  0  0
 17 16  2  0  0  0  0
 17 18  1  0  0  0  0
 18 13  1  0  0  0  0
 19 10  1  0  0  0  0
 24 16  1  0  0  0  0
 25 17  1  0  0  0  0
 26 28  1  0  0  0  0
 28 27  2  6  0  0  0
 28 36  1  0  0  0  0
 29 28  1  0  0  0  0
 29 30  1  0  0  0  0
 30 31  1  0  0  0  0
 32 31  1  0  0  0  0
 33 32  1  0  0  0  0
 34 33  1  0  0  0  0
 34 35  1  0  0  0  0
 35 30  1  0  0  0  0
 36 37  1  0  0  0  0
 37 38  2  0  0  0  0
 39 37  1  0  0  0  0
 40 39  1  0  0  0  0
 41 39  1  0  0  0  0
M  END
>  <minimizedAffinity>
-5.90834188

$$$$

 OpenBabel03252508103D

 41 44  0  0  0  0  0  0  0  0999 V2000
   37.2520   29.6210   37.1520 C   0  0  0  0  0  0  0  0  0  0  0  0
   37.6310   29.2300   38.4250 C   0  0  0  0  0  0  0  0  0  0  0  0
   36.6810   28.8650   39.3460 C   0  0  0  0  0  0  0  0  0  0  0  0
   35.3630   28.9090   38.9350 N   0  0  0  0  0  0  0  0  0  0  0  0
   35.0050   29.2860   37.7080 C   0  0  0  0  0  0  0  0  0  0  0  0
   35.9600   29.6400   36.8250 N   0  0  0  0  0  0  0  0  0  0  0  0
   37.9320   29.9190   36.3820 H   0  0  0  0  0  0  0  0  0  0  0  0
   33.9640   29.3110   37.4110 H   0  0  0  0  0  0  0  0  0  0  0  0
   36.9030   28.4460   40.6780 C   0  0  0  0  0  0  0  0  0  0  0  0
   37.1540   29.3170   41.7410 C   0  0  0  0  0  0  0  0  0  0  0  0
   37.4330   28.9110   43.0190 C   0  0  0  0  0  0  0  0  0  0  0  0
   37.4790   27.5670   43.3150 C   0  0  0  0  0  0  0  0  0  0  0  0
   37.2230   26.6580   42.2440 C   0  0  0  0  0  0  0  0  0  0  0  0
   37.2670   25.3230   42.5310 C   0  0  0  0  0  0  0  0  0  0  0  0
   37.0260   24.3910   41.5420 C   0  0  0  0  0  0  0  0  0  0  0  0
   36.7350   24.8280   40.2390 C   0  0  0  0  0  0  0  0  0  0  0  0
   36.7040   26.2130   39.9980 C   0  0  0  0  0  0  0  0  0  0  0  0
   36.9490   27.1140   40.9970 C   0  0  0  0  0  0  0  0  0  0  0  0
   37.1280   30.3860   41.5470 H   0  0  0  0  0  0  0  0  0  0  0  0
   37.6190   29.6370   43.8000 H   0  0  0  0  0  0  0  0  0  0  0  0
   37.6930   27.1680   44.2970 H   0  0  0  0  0  0  0  0  0  0  0  0
   37.4930   24.9810   43.5510 H   0  0  0  0  0  0  0  0  0  0  0  0
   37.0760   23.3570   41.8320 H   0  0  0  0  0  0  0  0  0  0  0  0
   36.5650   24.0310   39.5530 H   0  0  0  0  0  0  0  0  0  0  0  0
   36.4470   26.3420   38.9680 H   0  0  0  0  0  0  0  0  0  0  0  0
   38.9710   29.2260   38.7030 O   0  0  0  0  0  0  0  0  0  0  0  0
   38.9210   31.6970   39.5690 O   0  0  0  0  0  0  0  0  0  0  0  0
   39.8290   30.5450   39.3270 P   0  0  1  0  0  0  0  0  0  0  0  0
   40.5440   30.1610   40.8100 O   0  0  0  0  0  0  0  0  0  0  0  0
   41.8050   29.5850   40.6770 C   0  0  0  0  0  3  0  0  0  0  0  0
   42.5200   29.7970   41.9990 C   0  0  0  0  0  2  0  0  0  0  0  0
   41.6570   29.2300   43.0860 C   0  0  0  0  0  2  0  0  0  0  0  0
   41.1730   27.8400   42.8440 C   0  0  0  0  0  2  0  0  0  0  0  0
   40.6690   27.5910   41.4440 C   0  0  0  0  0  2  0  0  0  0  0  0
   41.7150   28.0800   40.4990 C   0  0  0  0  0  2  0  0  0  0  0  0
   41.0370   30.9510   38.2330 O   0  0  0  0  0  0  0  0  0  0  0  0
   41.0050   31.9790   37.3050 C   0  0  0  0  0  0  0  0  0  0  0  0
   42.1990   32.2790   37.1240 O   0  0  0  0  0  0  0  0  0  0  0  0
   39.6470   32.2860   36.9270 N   0  0  0  0  0  0  0  0  0  0  0  0
   39.1570   31.5800   36.3670 H   0  0  0  0  0  0  0  0  0  0  0  0
   39.0730   33.1240   37.1340 H   0  0  0  0  0  0  0  0  0  0  0  0
  1  2  1  0  0  0  0
  2 26  1  0  0  0  0
  2  3  2  0  0  0  0
  3  9  1  0  0  0  0
  4  3  1  0  0  0  0
  5  4  2  0  0  0  0
  6  1  2  0  0  0  0
  6  5  1  0  0  0  0
  7  1  1  0  0  0  0
  8  5  1  0  0  0  0
  9 18  2  0  0  0  0
  9 10  1  0  0  0  0
 10 11  2  0  0  0  0
 11 12  1  0  0  0  0
 11 20  1  0  0  0  0
 12 21  1  0  0  0  0
 13 14  1  0  0  0  0
 13 12  2  0  0  0  0
 14 22  1  0  0  0  0
 15 23  1  0  0  0  0
 15 14  2  0  0  0  0
 16 15  1  0  0  0  0
 17 16  2  0  0  0  0
 17 18  1  0  0  0  0
 18 13  1  0  0  0  0
 19 10  1  0  0  0  0
 24 16  1  0  0  0  0
 25 17  1  0  0  0  0
 26 28  1  0  0  0  0
 28 27  2  1  0  0  0
 28 29  1  0  0  0  0
 30 29  1  0  0  0  0
 30 31  1  0  0  0  0
 31 32  1  0  0  0  0
 33 32  1  0  0  0  0
 34 33  1  0  0  0  0
 35 30  1  0  0  0  0
 35 34  1  0  0  0  0
 36 28  1  0  0  0  0
 37 36  1  0  0  0  0
 38 37  2  0  0  0  0
 39 41  1  0  0  0  0
 39 37  1  0  0  0  0
 40 39  1  0  0  0  0
M  END
>  <minimizedAffinity>
-5.87622261

$$$$

 OpenBabel03252508103D

 41 44  0  0  0  0  0  0  0  0999 V2000
   36.8790   28.9370   36.8230 C   0  0  0  0  0  0  0  0  0  0  0  0
   37.3020   28.1340   37.8700 C   0  0  0  0  0  0  0  0  0  0  0  0
   36.3990   27.6800   38.7990 C   0  0  0  0  0  0  0  0  0  0  0  0
   35.0820   28.0600   38.6280 N   0  0  0  0  0  0  0  0  0  0  0  0
   34.6810   28.8330   37.6190 C   0  0  0  0  0  0  0  0  0  0  0  0
   35.5910   29.2650   36.7220 N   0  0  0  0  0  0  0  0  0  0  0  0
   37.5210   29.3300   36.0630 H   0  0  0  0  0  0  0  0  0  0  0  0
   33.6420   29.1150   37.5080 H   0  0  0  0  0  0  0  0  0  0  0  0
   36.6700   26.8610   39.9180 C   0  0  0  0  0  0  0  0  0  0  0  0
   36.6040   25.4650   39.9010 C   0  0  0  0  0  0  0  0  0  0  0  0
   36.8040   24.6710   41.0000 C   0  0  0  0  0  0  0  0  0  0  0  0
   37.0900   25.2480   42.2160 C   0  0  0  0  0  0  0  0  0  0  0  0
   37.1650   26.6740   42.2580 C   0  0  0  0  0  0  0  0  0  0  0  0
   37.4480   27.2530   43.4630 C   0  0  0  0  0  0  0  0  0  0  0  0
   37.5390   28.6250   43.5700 C   0  0  0  0  0  0  0  0  0  0  0  0
   37.3370   29.4220   42.4300 C   0  0  0  0  0  0  0  0  0  0  0  0
   37.0470   28.7750   41.2160 C   0  0  0  0  0  0  0  0  0  0  0  0
   36.9610   27.4120   41.1380 C   0  0  0  0  0  0  0  0  0  0  0  0
   36.3800   24.9730   38.9590 H   0  0  0  0  0  0  0  0  0  0  0  0
   36.7390   23.5950   40.9210 H   0  0  0  0  0  0  0  0  0  0  0  0
   37.2590   24.6910   43.1280 H   0  0  0  0  0  0  0  0  0  0  0  0
   37.6070   26.6300   44.3550 H   0  0  0  0  0  0  0  0  0  0  0  0
   37.7630   29.0190   44.5460 H   0  0  0  0  0  0  0  0  0  0  0  0
   37.4290   30.4650   42.6210 H   0  0  0  0  0  0  0  0  0  0  0  0
   36.9510   29.5390   40.4740 H   0  0  0  0  0  0  0  0  0  0  0  0
   38.6340   27.8270   37.9210 O   0  0  0  0  0  0  0  0  0  0  0  0
   40.6150   29.4140   37.2740 O   0  0  0  0  0  0  0  0  0  0  0  0
   39.8480   28.8890   38.4340 P   0  0  1  0  0  0  0  0  0  0  0  0
   39.1910   30.2240   39.2360 O   0  0  0  0  0  0  0  0  0  0  0  0
   39.4490   31.4310   38.5920 C   0  0  0  0  0  3  0  0  0  0  0  0
   38.1380   31.8820   37.9740 C   0  0  0  0  0  2  0  0  0  0  0  0
   37.1080   31.9320   39.0630 C   0  0  0  0  0  2  0  0  0  0  0  0
   37.5200   32.6790   40.2850 C   0  0  0  0  0  2  0  0  0  0  0  0
   38.9220   32.3780   40.7560 C   0  0  0  0  0  2  0  0  0  0  0  0
   39.8290   32.5210   39.5800 C   0  0  0  0  0  2  0  0  0  0  0  0
   40.8550   28.0620   39.4960 O   0  0  0  0  0  0  0  0  0  0  0  0
   40.4770   27.0980   40.4160 C   0  0  0  0  0  0  0  0  0  0  0  0
   40.5200   27.6780   41.5170 O   0  0  0  0  0  0  0  0  0  0  0  0
   40.1930   25.8450   39.7590 N   0  0  0  0  0  0  0  0  0  0  0  0
   39.3500   25.8160   39.1760 H   0  0  0  0  0  0  0  0  0  0  0  0
   40.7140   24.9500   39.7820 H   0  0  0  0  0  0  0  0  0  0  0  0
  1  2  1  0  0  0  0
  2 26  1  0  0  0  0
  2  3  2  0  0  0  0
  3  9  1  0  0  0  0
  4  3  1  0  0  0  0
  5  4  2  0  0  0  0
  6  1  2  0  0  0  0
  6  5  1  0  0  0  0
  7  1  1  0  0  0  0
  8  5  1  0  0  0  0
  9 18  1  0  0  0  0
 10  9  2  0  0  0  0
 10 11  1  0  0  0  0
 11 12  2  0  0  0  0
 12 13  1  0  0  0  0
 12 21  1  0  0  0  0
 13 14  1  0  0  0  0
 14 15  2  0  0  0  0
 14 22  1  0  0  0  0
 15 23  1  0  0  0  0
 16 24  1  0  0  0  0
 16 15  1  0  0  0  0
 17 16  2  0  0  0  0
 18 17  1  0  0  0  0
 18 13  2  0  0  0  0
 19 10  1  0  0  0  0
 20 11  1  0  0  0  0
 25 17  1  0  0  0  0
 26 28  1  0  0  0  0
 28 27  2  6  0  0  0
 28 29  1  0  0  0  0
 28 36  1  0  0  0  0
 30 29  1  0  0  0  0
 30 35  1  0  0  0  0
 31 30  1  0  0  0  0
 31 32  1  0  0  0  0
 32 33  1  0  0  0  0
 33 34  1  0  0  0  0
 35 34  1  0  0  0  0
 36 37  1  0  0  0  0
 37 38  2  0  0  0  0
 39 41  1  0  0  0  0
 39 37  1  0  0  0  0
 40 39  1  0  0  0  0
M  END
>  <minimizedAffinity>
-5.75708342

$$$$

 OpenBabel03252508103D

 41 44  0  0  0  0  0  0  0  0999 V2000
   37.3880   30.4780   37.9710 C   0  0  0  0  0  0  0  0  0  0  0  0
   37.5200   29.4970   38.9410 C   0  0  0  0  0  0  0  0  0  0  0  0
   37.4750   29.8320   40.2710 C   0  0  0  0  0  0  0  0  0  0  0  0
   37.2930   31.1670   40.5740 N   0  0  0  0  0  0  0  0  0  0  0  0
   37.1670   32.1060   39.6360 C   0  0  0  0  0  0  0  0  0  0  0  0
   37.2160   31.7470   38.3380 N   0  0  0  0  0  0  0  0  0  0  0  0
   37.4130   30.2960   36.9180 H   0  0  0  0  0  0  0  0  0  0  0  0
   37.0250   33.1460   39.9010 H   0  0  0  0  0  0  0  0  0  0  0  0
   37.5950   28.9550   41.3730 C   0  0  0  0  0  0  0  0  0  0  0  0
   36.5080   28.4030   42.0570 C   0  0  0  0  0  0  0  0  0  0  0  0
   36.6200   27.6050   43.1640 C   0  0  0  0  0  0  0  0  0  0  0  0
   37.8670   27.3040   43.6660 C   0  0  0  0  0  0  0  0  0  0  0  0
   38.9930   27.8550   42.9820 C   0  0  0  0  0  0  0  0  0  0  0  0
   40.2320   27.5600   43.4760 C   0  0  0  0  0  0  0  0  0  0  0  0
   41.3620   28.0580   42.8600 C   0  0  0  0  0  0  0  0  0  0  0  0
   41.2260   28.8700   41.7210 C   0  0  0  0  0  0  0  0  0  0  0  0
   39.9280   29.1430   41.2570 C   0  0  0  0  0  0  0  0  0  0  0  0
   38.8250   28.6380   41.8880 C   0  0  0  0  0  0  0  0  0  0  0  0
   35.5090   28.6200   41.6910 H   0  0  0  0  0  0  0  0  0  0  0  0
   35.7390   27.2080   43.6490 H   0  0  0  0  0  0  0  0  0  0  0  0
   38.0380   26.6830   44.5350 H   0  0  0  0  0  0  0  0  0  0  0  0
   40.3390   26.9230   44.3660 H   0  0  0  0  0  0  0  0  0  0  0  0
   42.3080   27.7900   43.2970 H   0  0  0  0  0  0  0  0  0  0  0  0
   42.1570   29.2000   41.3230 H   0  0  0  0  0  0  0  0  0  0  0  0
   40.0340   29.7480   40.3820 H   0  0  0  0  0  0  0  0  0  0  0  0
   37.6900   28.2110   38.5070 O   0  0  0  0  0  0  0  0  0  0  0  0
   36.5590   26.2970   37.1210 O   0  0  0  0  0  0  0  0  0  0  0  0
   36.4520   27.0620   38.3920 P   0  0  1  0  0  0  0  0  0  0  0  0
   36.5430   25.9390   39.6520 O   0  0  0  0  0  0  0  0  0  0  0  0
   36.9720   24.6820   39.2360 C   0  0  0  0  0  3  0  0  0  0  0  0
   38.4890   24.7070   39.2710 C   0  0  0  0  0  2  0  0  0  0  0  0
   38.9120   25.1160   40.6500 C   0  0  0  0  0  2  0  0  0  0  0  0
   38.2670   24.3540   41.7580 C   0  0  0  0  0  2  0  0  0  0  0  0
   36.7820   24.1470   41.5890 C   0  0  0  0  0  2  0  0  0  0  0  0
   36.5600   23.5990   40.2190 C   0  0  0  0  0  2  0  0  0  0  0  0
   34.9790   27.8650   38.4880 O   0  0  0  0  0  0  0  0  0  0  0  0
   34.0590   28.0350   37.4660 C   0  0  0  0  0  0  0  0  0  0  0  0
   34.0930   29.2530   37.2100 O   0  0  0  0  0  0  0  0  0  0  0  0
   33.4460   26.7780   37.1130 N   0  0  0  0  0  0  0  0  0  0  0  0
   34.0470   26.0920   36.6440 H   0  0  0  0  0  0  0  0  0  0  0  0
   32.4750   26.4480   37.2600 H   0  0  0  0  0  0  0  0  0  0  0  0
  1  6  2  0  0  0  0
  1  2  1  0  0  0  0
  2  3  2  0  0  0  0
  3  4  1  0  0  0  0
  3  9  1  0  0  0  0
  5  8  1  0  0  0  0
  5  4  2  0  0  0  0
  6  5  1  0  0  0  0
  7  1  1  0  0  0  0
  9 18  2  0  0  0  0
  9 10  1  0  0  0  0
 10 11  2  0  0  0  0
 11 20  1  0  0  0  0
 11 12  1  0  0  0  0
 12 21  1  0  0  0  0
 13 14  1  0  0  0  0
 13 12  2  0  0  0  0
 14 22  1  0  0  0  0
 15 23  1  0  0  0  0
 15 14  2  0  0  0  0
 16 15  1  0  0  0  0
 17 16  2  0  0  0  0
 17 18  1  0  0  0  0
 18 13  1  0  0  0  0
 19 10  1  0  0  0  0
 24 16  1  0  0  0  0
 25 17  1  0  0  0  0
 26  2  1  0  0  0  0
 28 27  2  6  0  0  0
 28 36  1  0  0  0  0
 28 26  1  0  0  0  0
 28 29  1  0  0  0  0
 30 31  1  0  0  0  0
 30 29  1  0  0  0  0
 30 35  1  0  0  0  0
 31 32  1  0  0  0  0
 32 33  1  0  0  0  0
 34 33  1  0  0  0  0
 35 34  1  0  0  0  0
 37 36  1  0  0  0  0
 38 37  2  0  0  0  0
 39 41  1  0  0  0  0
 39 37  1  0  0  0  0
 40 39  1  0  0  0  0
M  END
>  <minimizedAffinity>
-5.73982048

$$$$
