
 OpenBabel03252509273D

 27 29  0  0  1  0  0  0  0  0999 V2000
   46.8520   35.1510   41.8890 C   0  0  1  0  0  0  0  0  0  0  0  0
   48.3430   35.5880   41.9730 C   0  0  0  0  0  0  0  0  0  0  0  0
   47.7870   34.3070   41.2720 C   0  0  2  0  0  0  0  0  0  0  0  0
   46.2200   35.8750   41.3300 H   0  0  0  0  0  0  0  0  0  0  0  0
   48.6440   36.3690   41.2460 H   0  0  0  0  0  0  0  0  0  0  0  0
   48.8800   35.4730   42.9090 H   0  0  0  0  0  0  0  0  0  0  0  0
   48.0930   33.3760   41.8440 H   0  0  0  0  0  0  0  0  0  0  0  0
   44.8200   35.0720   45.0430 C   0  0  0  0  0  0  0  0  0  0  0  0
   45.2790   35.5130   43.7690 C   0  0  0  0  0  0  0  0  0  0  0  0
   46.3230   34.8120   43.2620 C   0  0  0  0  0  0  0  0  0  0  0  0
   46.8940   33.7530   43.9350 N   0  0  0  0  0  0  0  0  0  0  0  0
   46.4290   33.3640   45.1490 C   0  0  0  0  0  0  0  0  0  0  0  0
   45.3810   34.0340   45.7010 N   0  0  0  0  0  0  0  0  0  0  0  0
   43.9760   35.6400   45.4500 H   0  0  0  0  0  0  0  0  0  0  0  0
   46.8400   32.5490   45.7060 H   0  0  0  0  0  0  0  0  0  0  0  0
   44.7110   36.6130   43.0840 N   0  0  0  0  0  0  0  0  0  0  0  0
   44.0900   36.5840   42.2280 H   0  0  0  0  0  0  0  0  0  0  0  0
   44.8570   37.6260   43.3720 H   0  0  0  0  0  0  0  0  0  0  0  0
   47.9150   34.2160   39.7650 C   0  0  0  0  0  0  0  0  0  0  0  0
   46.9040   34.2290   39.3030 H   0  0  0  0  0  0  0  0  0  0  0  0
   48.4770   35.1150   39.3990 H   0  0  0  0  0  0  0  0  0  0  0  0
   48.6420   32.9330   39.4090 C   0  0  0  0  0  3  0  0  0  0  0  0
   49.4160   32.3960   40.5590 C   0  0  0  0  0  2  0  0  0  0  0  0
   49.5300   30.9270   40.6920 C   0  0  0  0  0  2  0  0  0  0  0  0
   49.2420   30.2600   39.3630 C   0  0  0  0  0  2  0  0  0  0  0  0
   47.7780   30.5750   39.1160 C   0  0  0  0  0  2  0  0  0  0  0  0
   47.7090   32.0220   38.7210 C   0  0  0  0  0  2  0  0  0  0  0  0
  1  4  1  6  0  0  0
  1  2  1  0  0  0  0
  1 10  1  0  0  0  0
  2  6  1  0  0  0  0
  3  7  1  1  0  0  0
  3  1  1  0  0  0  0
  3  2  1  0  0  0  0
  5  2  1  0  0  0  0
  8 14  1  0  0  0  0
  8 13  1  0  0  0  0
  9  8  2  0  0  0  0
 10  9  1  0  0  0  0
 10 11  2  0  0  0  0
 11 12  1  0  0  0  0
 12 13  2  0  0  0  0
 12 15  1  0  0  0  0
 16 18  1  0  0  0  0
 16  9  1  0  0  0  0
 17 16  1  0  0  0  0
 19  3  1  0  0  0  0
 20 19  1  0  0  0  0
 21 19  1  0  0  0  0
 22 19  1  0  0  0  0
 22 23  1  0  0  0  0
 23 24  1  0  0  0  0
 25 24  1  0  0  0  0
 26 25  1  0  0  0  0
 27 26  1  0  0  0  0
 27 22  1  0  0  0  0
M  END
>  <minimizedAffinity>
-4.53278971

>  <minimizedRMSD>
0.388605207

$$$$
