
 OpenBabel03252503283D

 22 23  0  0  0  0  0  0  0  0999 V2000
   45.2890   35.0880   42.9150 C   0  0  0  0  0  0  0  0  0  0  0  0
   46.4800   35.3490   42.2140 C   0  0  0  0  0  0  0  0  0  0  0  0
   47.6200   34.6710   42.6720 C   0  0  0  0  0  0  0  0  0  0  0  0
   47.5040   33.8410   43.7230 N   0  0  0  0  0  0  0  0  0  0  0  0
   46.3400   33.6190   44.3680 C   0  0  0  0  0  0  0  0  0  0  0  0
   45.2170   34.2500   43.9600 N   0  0  0  0  0  0  0  0  0  0  0  0
   43.5230   35.1440   41.3440 C   0  0  0  0  0  0  0  0  0  0  0  0
   44.1660   34.1790   40.8100 O   0  0  0  0  0  0  0  0  0  0  0  0
   44.0660   35.7220   42.5370 N   0  0  0  0  0  0  0  0  0  0  0  0
   46.4840   36.0380   41.3720 H   0  0  0  0  0  0  0  0  0  0  0  0
   46.2880   32.9390   45.2130 H   0  0  0  0  0  0  0  0  0  0  0  0
   43.6290   36.5000   43.0580 H   0  0  0  0  0  0  0  0  0  0  0  0
   42.2400   35.7030   40.7940 C   0  0  0  0  0  0  0  0  0  0  0  0
   41.1260   35.4280   41.7210 C   0  0  0  0  0  0  0  0  0  0  0  0
   40.3170   34.2090   41.4480 C   0  0  0  0  0  0  0  0  0  0  0  0
   39.8840   34.2580   40.0010 C   0  0  0  0  0  0  0  0  0  0  0  0
   41.1380   34.0980   39.1850 C   0  0  0  0  0  0  0  0  0  0  0  0
   42.1350   35.1930   39.4090 C   0  0  0  0  0  0  0  0  0  0  0  0
   48.8450   34.9610   41.9250 C   0  0  0  0  0  0  0  0  0  0  0  0
   49.2770   33.7850   41.3000 F   0  0  0  0  0  0  0  0  0  0  0  0
   49.8260   35.2790   42.8500 F   0  0  0  0  0  0  0  0  0  0  0  0
   48.6980   35.9200   40.9640 F   0  0  0  0  0  0  0  0  0  0  0  0
  1  6  1  0  0  0  0
  2  3  1  0  0  0  0
  2  1  2  0  0  0  0
  3  4  2  0  0  0  0
  4  5  1  0  0  0  0
  5 11  1  0  0  0  0
  6  5  2  0  0  0  0
  7  9  1  0  0  0  0
  8  7  2  0  0  0  0
  9  1  1  0  0  0  0
  9 12  1  0  0  0  0
 10  2  1  0  0  0  0
 13  7  1  0  0  0  0
 13 14  1  0  0  0  0
 15 14  1  0  0  0  0
 16 15  1  0  0  0  0
 17 18  1  0  0  0  0
 17 16  1  0  0  0  0
 18 13  1  0  0  0  0
 19  3  1  0  0  0  0
 19 21  1  0  0  0  0
 20 19  1  0  0  0  0
 22 19  1  0  0  0  0
M  END
>  <minimizedAffinity>
-6.19032669

>  <minimizedRMSD>
1.38417804

$$$$
