
 OpenBabel03252505493D

 19 20  0  0  0  0  0  0  0  0999 V2000
   44.9140   34.9650   44.9710 C   0  0  0  0  0  0  0  0  0  0  0  0
   45.9000   34.5290   44.0880 C   0  0  0  0  0  0  0  0  0  0  0  0
   46.7450   33.5220   44.5300 C   0  0  0  0  0  0  0  0  0  0  0  0
   46.5870   33.0100   45.7710 N   0  0  0  0  0  0  0  0  0  0  0  0
   45.6200   33.4620   46.5890 C   0  0  0  0  0  0  0  0  0  0  0  0
   44.7720   34.4390   46.2110 N   0  0  0  0  0  0  0  0  0  0  0  0
   44.2220   35.7430   44.6960 H   0  0  0  0  0  0  0  0  0  0  0  0
   47.4980   33.2020   43.8320 H   0  0  0  0  0  0  0  0  0  0  0  0
   45.9560   35.1900   42.7420 C   0  0  0  0  0  0  0  0  0  0  0  0
   45.2580   36.3690   42.8710 F   0  0  0  0  0  0  0  0  0  0  0  0
   45.3350   34.3580   41.8470 F   0  0  0  0  0  0  0  0  0  0  0  0
   47.2880   35.3660   42.4210 F   0  0  0  0  0  0  0  0  0  0  0  0
   45.4500   32.9370   47.8740 O   0  0  0  0  0  0  0  0  0  0  0  0
   45.4140   31.5440   48.1150 C   0  0  0  0  0  3  0  0  0  0  0  0
   46.5880   31.1200   48.9510 C   0  0  0  0  0  2  0  0  0  0  0  0
   47.6810   30.4570   48.1790 C   0  0  0  0  0  2  0  0  0  0  0  0
   47.2090   29.3290   47.3060 C   0  0  0  0  0  2  0  0  0  0  0  0
   45.7610   29.4190   46.9080 C   0  0  0  0  0  2  0  0  0  0  0  0
   45.3950   30.8650   46.7610 C   0  0  0  0  0  2  0  0  0  0  0  0
  1  6  1  0  0  0  0
  2  3  1  0  0  0  0
  2  1  2  0  0  0  0
  3  4  2  0  0  0  0
  4  5  1  0  0  0  0
  5 13  1  0  0  0  0
  6  5  2  0  0  0  0
  7  1  1  0  0  0  0
  8  3  1  0  0  0  0
  9 10  1  0  0  0  0
  9  2  1  0  0  0  0
 11  9  1  0  0  0  0
 12  9  1  0  0  0  0
 13 14  1  0  0  0  0
 14 15  1  0  0  0  0
 16 15  1  0  0  0  0
 17 16  1  0  0  0  0
 18 17  1  0  0  0  0
 19 18  1  0  0  0  0
 19 14  1  0  0  0  0
M  END
>  <minimizedAffinity>
-4.68124151

>  <minimizedRMSD>
1.10261977

$$$$
