
 OpenBabel03252507043D

 44 47  0  0  0  0  0  0  0  0999 V2000
   41.9290   31.4700   42.0110 C   0  0  0  0  0  0  0  0  0  0  0  0
   41.8970   31.9620   40.9800 H   0  0  0  0  0  0  0  0  0  0  0  0
   41.4380   32.2260   42.6610 H   0  0  0  0  0  0  0  0  0  0  0  0
   41.3400   30.2740   42.0580 N   0  0  0  0  0  0  0  0  0  0  0  0
   41.5830   29.2060   42.9660 C   0  0  0  0  0  0  0  0  0  0  0  0
   40.3260   29.3370   43.8250 C   0  0  0  0  0  0  0  0  0  0  0  0
   39.0850   29.1780   43.0870 C   0  0  0  0  0  0  0  0  0  0  0  0
   39.0700   29.4370   41.6640 C   0  0  0  0  0  0  0  0  0  0  0  0
   40.2880   30.0670   41.0310 C   0  0  0  0  0  0  0  0  0  0  0  0
   42.4360   29.5390   43.6240 H   0  0  0  0  0  0  0  0  0  0  0  0
   41.7680   28.2170   42.5830 H   0  0  0  0  0  0  0  0  0  0  0  0
   40.4400   28.5660   44.6240 H   0  0  0  0  0  0  0  0  0  0  0  0
   40.4300   30.3210   44.3570 H   0  0  0  0  0  0  0  0  0  0  0  0
   38.6990   28.1260   43.2270 H   0  0  0  0  0  0  0  0  0  0  0  0
   38.2850   29.8060   43.5600 H   0  0  0  0  0  0  0  0  0  0  0  0
   38.2750   29.2540   40.9960 H   0  0  0  0  0  0  0  0  0  0  0  0
   40.3660   30.5000   39.3600 S   0  0  0  0  0  0  0  0  0  0  0  0
   39.8590   32.1130   38.8530 C   0  0  0  0  0  3  0  0  0  0  0  0
   38.5630   32.2140   38.1090 C   0  0  0  0  0  2  0  0  0  0  0  0
   38.4630   33.6120   37.5260 C   0  0  0  0  0  2  0  0  0  0  0  0
   39.1770   34.6470   38.3710 C   0  0  0  0  0  2  0  0  0  0  0  0
   40.6670   34.3730   38.4360 C   0  0  0  0  0  2  0  0  0  0  0  0
   40.9020   32.8990   38.0740 C   0  0  0  0  0  2  0  0  0  0  0  0
   43.3760   31.4320   42.3520 C   0  0  0  0  0  0  0  0  0  0  0  0
   43.4700   31.2810   43.4670 H   0  0  0  0  0  0  0  0  0  0  0  0
   43.8950   30.6060   41.8310 H   0  0  0  0  0  0  0  0  0  0  0  0
   43.9650   32.7410   42.0270 C   0  0  0  0  0  0  0  0  0  0  0  0
   43.1730   33.7700   41.5780 C   0  0  0  0  0  0  0  0  0  0  0  0
   43.7720   34.9810   41.2700 C   0  0  0  0  0  0  0  0  0  0  0  0
   45.1290   35.0900   41.4330 N   0  0  0  0  0  0  0  0  0  0  0  0
   45.8610   34.0730   41.8710 C   0  0  0  0  0  0  0  0  0  0  0  0
   45.2590   32.9180   42.1590 N   0  0  0  0  0  0  0  0  0  0  0  0
   42.1160   33.8870   41.4040 H   0  0  0  0  0  0  0  0  0  0  0  0
   43.3130   35.8970   40.9030 H   0  0  0  0  0  0  0  0  0  0  0  0
   47.2970   34.2940   42.0430 C   0  0  0  0  0  0  0  0  0  0  0  0
   48.0930   33.3140   42.6280 C   0  0  0  0  0  0  0  0  0  0  0  0
   49.4430   33.5310   42.7960 C   0  0  0  0  0  0  0  0  0  0  0  0
   49.8830   34.7500   42.3500 C   0  0  0  0  0  0  0  0  0  0  0  0
   49.1320   35.7680   41.7570 C   0  0  0  0  0  0  0  0  0  0  0  0
   47.8140   35.4660   41.6310 N   0  0  0  0  0  0  0  0  0  0  0  0
   47.6790   32.3630   42.9630 H   0  0  0  0  0  0  0  0  0  0  0  0
   50.1400   32.8350   43.2380 H   0  0  0  0  0  0  0  0  0  0  0  0
   50.9520   34.9700   42.4640 H   0  0  0  0  0  0  0  0  0  0  0  0
   49.5720   36.6810   41.4440 H   0  0  0  0  0  0  0  0  0  0  0  0
  1  4  1  0  0  0  0
  1 24  1  0  0  0  0
  1  3  1  0  0  0  0
  2  1  1  0  0  0  0
  4  5  1  0  0  0  0
  5 10  1  0  0  0  0
  5  6  1  0  0  0  0
  6 13  1  0  0  0  0
  6 12  1  0  0  0  0
  7 14  1  0  0  0  0
  7 15  1  0  0  0  0
  7  6  1  0  0  0  0
  8  7  1  0  0  0  0
  9  8  2  0  0  0  0
  9  4  1  0  0  0  0
 11  5  1  0  0  0  0
 16  8  1  0  0  0  0
 17  9  1  0  0  0  0
 18 17  1  0  0  0  0
 19 18  1  0  0  0  0
 20 19  1  0  0  0  0
 20 21  1  0  0  0  0
 21 22  1  0  0  0  0
 23 22  1  0  0  0  0
 23 18  1  0  0  0  0
 24 25  1  0  0  0  0
 26 24  1  0  0  0  0
 27 32  1  0  0  0  0
 27 24  1  0  0  0  0
 28 27  2  0  0  0  0
 29 30  2  0  0  0  0
 29 28  1  0  0  0  0
 30 31  1  0  0  0  0
 31 35  1  0  0  0  0
 31 32  2  0  0  0  0
 33 28  1  0  0  0  0
 34 29  1  0  0  0  0
 35 36  1  0  0  0  0
 36 37  2  0  0  0  0
 36 41  1  0  0  0  0
 37 42  1  0  0  0  0
 38 43  1  0  0  0  0
 38 37  1  0  0  0  0
 39 38  2  0  0  0  0
 40 39  1  0  0  0  0
 40 35  2  0  0  0  0
 44 39  1  0  0  0  0
M  END
>  <minimizedAffinity>
-5.56178188

>  <minimizedRMSD>
3.52513885

$$$$
