
 OpenBabel03242517583D

 40 42  0  0  0  0  0  0  0  0999 V2000
   36.9970   28.9490   36.5890 C   0  0  0  0  0  0  0  0  0  0  0  0
   35.6050   29.0670   36.7550 C   0  0  0  0  0  0  0  0  0  0  0  0
   35.0490   28.8140   37.9800 C   0  0  0  0  0  0  0  0  0  0  0  0
   35.8960   28.4610   38.9590 N   0  0  0  0  0  0  0  0  0  0  0  0
   37.2080   28.3500   38.7990 C   0  0  0  0  0  0  0  0  0  0  0  0
   37.7570   28.5950   37.6140 N   0  0  0  0  0  0  0  0  0  0  0  0
   37.4360   29.1490   35.6250 H   0  0  0  0  0  0  0  0  0  0  0  0
   35.0580   29.3610   35.8770 H   0  0  0  0  0  0  0  0  0  0  0  0
   33.6130   28.9250   38.2670 C   0  0  0  0  0  0  0  0  0  0  0  0
   33.4480   29.8910   38.7990 H   0  0  0  0  0  0  0  0  0  0  0  0
   33.2990   28.1260   38.9700 H   0  0  0  0  0  0  0  0  0  0  0  0
   32.7690   28.9310   37.0250 C   0  0  0  0  0  0  0  0  0  0  0  0
   32.1810   27.9590   37.0840 H   0  0  0  0  0  0  0  0  0  0  0  0
   33.3190   28.8570   36.0990 H   0  0  0  0  0  0  0  0  0  0  0  0
   31.7560   29.9850   37.0080 C   0  0  0  0  0  3  0  0  0  0  0  0
   31.0670   30.7540   36.1730 C   0  0  0  0  0  3  0  0  0  0  0  0
   30.1190   31.8780   36.5540 C   0  0  0  0  0  0  0  0  0  0  0  0
   30.2530   32.1050   37.6320 H   0  0  0  0  0  0  0  0  0  0  0  0
   29.0970   31.5020   36.3960 H   0  0  0  0  0  0  0  0  0  0  0  0
   30.3450   32.7460   35.9290 H   0  0  0  0  0  0  0  0  0  0  0  0
   38.0580   27.9880   39.8160 O   0  0  0  0  0  0  0  0  0  0  0  0
   38.1650   29.0290   42.0380 C   0  0  0  0  0  0  0  0  0  0  0  0
   37.7980   28.0520   41.1730 C   0  0  0  0  0  0  0  0  0  0  0  0
   37.0780   26.9760   41.6420 C   0  0  0  0  0  0  0  0  0  0  0  0
   36.7100   26.8490   42.9650 C   0  0  0  0  0  0  0  0  0  0  0  0
   37.0790   27.8440   43.8500 C   0  0  0  0  0  0  0  0  0  0  0  0
   37.8030   28.9230   43.3740 C   0  0  0  0  0  0  0  0  0  0  0  0
   36.7490   26.1560   41.0260 H   0  0  0  0  0  0  0  0  0  0  0  0
   36.1560   26.0360   43.3650 H   0  0  0  0  0  0  0  0  0  0  0  0
   36.8480   27.8610   44.9180 H   0  0  0  0  0  0  0  0  0  0  0  0
   38.1120   29.7280   44.0450 H   0  0  0  0  0  0  0  0  0  0  0  0
   39.1560   30.3070   41.4150 S   0  0  0  0  0  0  0  0  0  0  0  0
   40.3840   29.8330   40.7290 O   0  0  0  0  0  0  0  0  0  0  0  0
   39.6690   31.0550   42.6630 O   0  0  0  0  0  0  0  0  0  0  0  0
   38.3260   31.5830   40.5520 C   0  0  0  0  0  3  0  0  0  0  0  0
   38.5560   31.6330   39.0700 C   0  0  0  0  0  2  0  0  0  0  0  0
   37.4170   32.4780   38.5140 C   0  0  0  0  0  2  0  0  0  0  0  0
   37.1770   33.6540   39.4530 C   0  0  0  0  0  2  0  0  0  0  0  0
   38.4230   34.0290   40.2060 C   0  0  0  0  0  2  0  0  0  0  0  0
   39.0470   32.9260   40.9940 C   0  0  0  0  0  2  0  0  0  0  0  0
  1  2  2  0  0  0  0
  1  6  1  0  0  0  0
  2  3  1  0  0  0  0
  3  9  1  0  0  0  0
  3  4  2  0  0  0  0
  5  4  1  0  0  0  0
  5 21  1  0  0  0  0
  6  5  2  0  0  0  0
  7  1  1  0  0  0  0
  8  2  1  0  0  0  0
  9 10  1  0  0  0  0
  9 11  1  0  0  0  0
 12 13  1  0  0  0  0
 12  9  1  0  0  0  0
 14 12  1  0  0  0  0
 15 12  1  0  0  0  0
 16 17  1  0  0  0  0
 16 15  2  0  0  0  0
 17 18  1  0  0  0  0
 19 17  1  0  0  0  0
 20 17  1  0  0  0  0
 21 23  1  0  0  0  0
 22 27  1  0  0  0  0
 23 24  1  0  0  0  0
 23 22  2  0  0  0  0
 24 25  2  0  0  0  0
 25 29  1  0  0  0  0
 25 26  1  0  0  0  0
 26 30  1  0  0  0  0
 27 26  2  0  0  0  0
 27 31  1  0  0  0  0
 28 24  1  0  0  0  0
 32 22  1  0  0  0  0
 32 34  2  0  0  0  0
 33 32  2  0  0  0  0
 35 40  1  0  0  0  0
 35 32  1  0  0  0  0
 36 35  1  0  0  0  0
 37 36  1  0  0  0  0
 37 38  1  0  0  0  0
 38 39  1  0  0  0  0
 39 40  1  0  0  0  0
M  END
>  <minimizedAffinity>
-6.07775831

$$$$

 OpenBabel03242517583D

 40 42  0  0  0  0  0  0  0  0999 V2000
   36.4380   29.1570   35.8220 C   0  0  0  0  0  0  0  0  0  0  0  0
   35.0850   28.9450   36.1410 C   0  0  0  0  0  0  0  0  0  0  0  0
   34.6680   29.0940   37.4370 C   0  0  0  0  0  0  0  0  0  0  0  0
   35.6070   29.4390   38.3310 N   0  0  0  0  0  0  0  0  0  0  0  0
   36.8820   29.6380   38.0270 C   0  0  0  0  0  0  0  0  0  0  0  0
   37.2970   29.4970   36.7710 N   0  0  0  0  0  0  0  0  0  0  0  0
   36.7680   29.0410   34.8020 H   0  0  0  0  0  0  0  0  0  0  0  0
   34.4520   28.6750   35.3160 H   0  0  0  0  0  0  0  0  0  0  0  0
   33.2780   28.9150   37.8770 C   0  0  0  0  0  0  0  0  0  0  0  0
   33.1140   29.5780   38.7580 H   0  0  0  0  0  0  0  0  0  0  0  0
   33.1190   27.8770   38.2350 H   0  0  0  0  0  0  0  0  0  0  0  0
   32.2790   29.2940   36.8210 C   0  0  0  0  0  0  0  0  0  0  0  0
   31.8720   28.2980   36.4530 H   0  0  0  0  0  0  0  0  0  0  0  0
   32.6990   29.7550   35.9400 H   0  0  0  0  0  0  0  0  0  0  0  0
   31.1150   30.0090   37.3430 C   0  0  0  0  0  3  0  0  0  0  0  0
   30.3820   30.1440   38.4410 C   0  0  0  0  0  3  0  0  0  0  0  0
   29.1040   30.9530   38.5800 C   0  0  0  0  0  0  0  0  0  0  0  0
   28.7550   31.2440   37.5670 H   0  0  0  0  0  0  0  0  0  0  0  0
   29.3630   31.8650   39.1400 H   0  0  0  0  0  0  0  0  0  0  0  0
   28.3630   30.3420   39.1010 H   0  0  0  0  0  0  0  0  0  0  0  0
   37.8290   29.9920   38.9570 O   0  0  0  0  0  0  0  0  0  0  0  0
   38.8350   31.5820   40.5350 C   0  0  0  0  0  0  0  0  0  0  0  0
   38.0140   31.2450   39.5120 C   0  0  0  0  0  0  0  0  0  0  0  0
   37.2530   32.2250   38.9120 C   0  0  0  0  0  0  0  0  0  0  0  0
   37.2930   33.5440   39.3110 C   0  0  0  0  0  0  0  0  0  0  0  0
   38.1320   33.8930   40.3520 C   0  0  0  0  0  0  0  0  0  0  0  0
   38.8940   32.9060   40.9520 C   0  0  0  0  0  0  0  0  0  0  0  0
   36.5730   32.0450   38.0960 H   0  0  0  0  0  0  0  0  0  0  0  0
   36.7230   34.3280   38.8740 H   0  0  0  0  0  0  0  0  0  0  0  0
   38.2550   34.9000   40.7580 H   0  0  0  0  0  0  0  0  0  0  0  0
   39.5670   33.1440   41.7780 H   0  0  0  0  0  0  0  0  0  0  0  0
   39.6910   30.2950   41.3200 S   0  0  0  0  0  0  0  0  0  0  0  0
   40.6550   30.7570   42.3490 O   0  0  0  0  0  0  0  0  0  0  0  0
   40.5670   29.6710   40.2140 O   0  0  0  0  0  0  0  0  0  0  0  0
   38.7320   28.9230   41.8300 C   0  0  0  0  0  3  0  0  0  0  0  0
   37.4330   29.2450   42.5080 C   0  0  0  0  0  2  0  0  0  0  0  0
   36.6100   27.9650   42.4280 C   0  0  0  0  0  2  0  0  0  0  0  0
   37.5250   26.7770   42.6990 C   0  0  0  0  0  2  0  0  0  0  0  0
   38.6950   27.1600   43.5630 C   0  0  0  0  0  2  0  0  0  0  0  0
   39.5310   28.2820   43.0430 C   0  0  0  0  0  2  0  0  0  0  0  0
  1  2  2  0  0  0  0
  1  6  1  0  0  0  0
  2  3  1  0  0  0  0
  3  9  1  0  0  0  0
  3  4  2  0  0  0  0
  5  4  1  0  0  0  0
  5 21  1  0  0  0  0
  6  5  2  0  0  0  0
  7  1  1  0  0  0  0
  8  2  1  0  0  0  0
  9 11  1  0  0  0  0
  9 10  1  0  0  0  0
 12 15  1  0  0  0  0
 12  9  1  0  0  0  0
 13 12  1  0  0  0  0
 14 12  1  0  0  0  0
 15 16  2  0  0  0  0
 16 17  1  0  0  0  0
 17 20  1  0  0  0  0
 17 19  1  0  0  0  0
 18 17  1  0  0  0  0
 21 23  1  0  0  0  0
 22 27  1  0  0  0  0
 22 32  1  0  0  0  0
 23 22  2  0  0  0  0
 24 25  2  0  0  0  0
 24 23  1  0  0  0  0
 25 26  1  0  0  0  0
 26 30  1  0  0  0  0
 26 27  2  0  0  0  0
 27 31  1  0  0  0  0
 28 24  1  0  0  0  0
 29 25  1  0  0  0  0
 32 35  1  0  0  0  0
 32 33  2  0  0  0  0
 34 32  2  0  0  0  0
 35 36  1  0  0  0  0
 35 40  1  0  0  0  0
 37 36  1  0  0  0  0
 37 38  1  0  0  0  0
 38 39  1  0  0  0  0
 40 39  1  0  0  0  0
M  END
>  <minimizedAffinity>
-6.04118919

$$$$

 OpenBabel03242517583D

 40 42  0  0  0  0  0  0  0  0999 V2000
   33.9430   28.4420   37.7730 C   0  0  0  0  0  0  0  0  0  0  0  0
   34.4230   27.1820   37.3730 C   0  0  0  0  0  0  0  0  0  0  0  0
   35.5090   26.6420   38.0100 C   0  0  0  0  0  0  0  0  0  0  0  0
   36.0490   27.3760   38.9950 N   0  0  0  0  0  0  0  0  0  0  0  0
   35.5940   28.5640   39.3700 C   0  0  0  0  0  0  0  0  0  0  0  0
   34.5400   29.0960   38.7580 N   0  0  0  0  0  0  0  0  0  0  0  0
   33.0880   28.8680   37.2730 H   0  0  0  0  0  0  0  0  0  0  0  0
   33.8840   26.7150   36.5690 H   0  0  0  0  0  0  0  0  0  0  0  0
   36.0810   25.3290   37.6860 C   0  0  0  0  0  0  0  0  0  0  0  0
   37.1890   25.4100   37.7820 H   0  0  0  0  0  0  0  0  0  0  0  0
   35.8800   25.0740   36.6250 H   0  0  0  0  0  0  0  0  0  0  0  0
   35.6140   24.2450   38.6140 C   0  0  0  0  0  0  0  0  0  0  0  0
   35.7370   23.2890   38.0090 H   0  0  0  0  0  0  0  0  0  0  0  0
   34.5630   24.2740   38.8580 H   0  0  0  0  0  0  0  0  0  0  0  0
   36.4700   24.0630   39.7850 C   0  0  0  0  0  3  0  0  0  0  0  0
   36.5750   24.4080   41.0620 C   0  0  0  0  0  3  0  0  0  0  0  0
   37.7330   24.0910   41.9920 C   0  0  0  0  0  0  0  0  0  0  0  0
   38.5820   23.7120   41.3860 H   0  0  0  0  0  0  0  0  0  0  0  0
   37.3930   23.2900   42.6640 H   0  0  0  0  0  0  0  0  0  0  0  0
   38.0010   25.0030   42.5330 H   0  0  0  0  0  0  0  0  0  0  0  0
   36.1610   29.2990   40.3820 O   0  0  0  0  0  0  0  0  0  0  0  0
   38.2380   29.0250   41.6650 C   0  0  0  0  0  0  0  0  0  0  0  0
   36.9210   28.8120   41.4310 C   0  0  0  0  0  0  0  0  0  0  0  0
   36.2020   28.0310   42.3090 C   0  0  0  0  0  0  0  0  0  0  0  0
   36.7690   27.4540   43.4250 C   0  0  0  0  0  0  0  0  0  0  0  0
   38.1110   27.6710   43.6690 C   0  0  0  0  0  0  0  0  0  0  0  0
   38.8300   28.4560   42.7840 C   0  0  0  0  0  0  0  0  0  0  0  0
   35.1530   27.8090   42.1980 H   0  0  0  0  0  0  0  0  0  0  0  0
   36.2490   26.8470   44.1250 H   0  0  0  0  0  0  0  0  0  0  0  0
   38.6750   27.2720   44.5160 H   0  0  0  0  0  0  0  0  0  0  0  0
   39.8940   28.6480   42.9450 H   0  0  0  0  0  0  0  0  0  0  0  0
   39.1170   29.9290   40.4750 S   0  0  0  0  0  0  0  0  0  0  0  0
   39.2020   29.2570   39.1540 O   0  0  0  0  0  0  0  0  0  0  0  0
   40.5700   29.9590   40.9930 O   0  0  0  0  0  0  0  0  0  0  0  0
   38.7440   31.6360   40.3650 C   0  0  0  0  0  3  0  0  0  0  0  0
   37.8660   32.0440   39.2190 C   0  0  0  0  0  2  0  0  0  0  0  0
   37.3270   33.4180   39.5960 C   0  0  0  0  0  2  0  0  0  0  0  0
   38.4500   34.2270   40.2340 C   0  0  0  0  0  2  0  0  0  0  0  0
   39.8010   33.7830   39.7470 C   0  0  0  0  0  2  0  0  0  0  0  0
   40.1040   32.3350   39.9400 C   0  0  0  0  0  2  0  0  0  0  0  0
  1  6  1  0  0  0  0
  2  1  2  0  0  0  0
  2  3  1  0  0  0  0
  3  4  2  0  0  0  0
  4  5  1  0  0  0  0
  5 21  1  0  0  0  0
  6  5  2  0  0  0  0
  7  1  1  0  0  0  0
  8  2  1  0  0  0  0
  9 10  1  0  0  0  0
  9  3  1  0  0  0  0
  9 12  1  0  0  0  0
 11  9  1  0  0  0  0
 12 14  1  0  0  0  0
 12 15  1  0  0  0  0
 13 12  1  0  0  0  0
 15 16  2  0  0  0  0
 16 17  1  0  0  0  0
 17 20  1  0  0  0  0
 17 19  1  0  0  0  0
 18 17  1  0  0  0  0
 21 23  1  0  0  0  0
 22 27  1  0  0  0  0
 23 22  2  0  0  0  0
 23 24  1  0  0  0  0
 24 25  2  0  0  0  0
 25 26  1  0  0  0  0
 25 29  1  0  0  0  0
 26 30  1  0  0  0  0
 27 31  1  0  0  0  0
 27 26  2  0  0  0  0
 28 24  1  0  0  0  0
 32 34  2  0  0  0  0
 32 22  1  0  0  0  0
 33 32  2  0  0  0  0
 35 32  1  0  0  0  0
 36 37  1  0  0  0  0
 36 35  1  0  0  0  0
 37 38  1  0  0  0  0
 39 40  1  0  0  0  0
 39 38  1  0  0  0  0
 40 35  1  0  0  0  0
M  END
>  <minimizedAffinity>
-5.67706394

$$$$

 OpenBabel03242517583D

 40 42  0  0  0  0  0  0  0  0999 V2000
   35.5880   27.5310   37.8810 C   0  0  0  0  0  0  0  0  0  0  0  0
   34.3320   27.9590   37.4140 C   0  0  0  0  0  0  0  0  0  0  0  0
   33.5990   28.8390   38.1640 C   0  0  0  0  0  0  0  0  0  0  0  0
   34.1490   29.2390   39.3220 N   0  0  0  0  0  0  0  0  0  0  0  0
   35.3320   28.8330   39.7590 C   0  0  0  0  0  0  0  0  0  0  0  0
   36.0520   27.9800   39.0380 N   0  0  0  0  0  0  0  0  0  0  0  0
   36.1660   26.8380   37.2910 H   0  0  0  0  0  0  0  0  0  0  0  0
   34.0270   27.5520   36.4670 H   0  0  0  0  0  0  0  0  0  0  0  0
   32.2880   29.3640   37.7640 C   0  0  0  0  0  0  0  0  0  0  0  0
   32.1860   30.3870   38.1960 H   0  0  0  0  0  0  0  0  0  0  0  0
   31.4760   28.7550   38.2130 H   0  0  0  0  0  0  0  0  0  0  0  0
   32.1350   29.4760   36.2740 C   0  0  0  0  0  0  0  0  0  0  0  0
   31.4930   28.5790   35.9920 H   0  0  0  0  0  0  0  0  0  0  0  0
   33.0450   29.3420   35.7100 H   0  0  0  0  0  0  0  0  0  0  0  0
   31.3620   30.6410   35.8470 C   0  0  0  0  0  3  0  0  0  0  0  0
   30.4190   31.4760   36.2670 C   0  0  0  0  0  3  0  0  0  0  0  0
   29.7540   32.5720   35.4510 C   0  0  0  0  0  0  0  0  0  0  0  0
   30.0220   32.4310   34.3830 H   0  0  0  0  0  0  0  0  0  0  0  0
   30.1750   33.5270   35.7990 H   0  0  0  0  0  0  0  0  0  0  0  0
   28.6740   32.5100   35.6070 H   0  0  0  0  0  0  0  0  0  0  0  0
   35.8770   29.2560   40.9470 O   0  0  0  0  0  0  0  0  0  0  0  0
   38.1040   29.8470   41.8000 C   0  0  0  0  0  0  0  0  0  0  0  0
   36.9670   30.0940   41.1050 C   0  0  0  0  0  0  0  0  0  0  0  0
   36.8250   31.3010   40.4570 C   0  0  0  0  0  0  0  0  0  0  0  0
   37.7990   32.2760   40.4830 C   0  0  0  0  0  0  0  0  0  0  0  0
   38.9610   32.0280   41.1880 C   0  0  0  0  0  0  0  0  0  0  0  0
   39.0990   30.8150   41.8390 C   0  0  0  0  0  0  0  0  0  0  0  0
   35.9560   31.5800   39.8850 H   0  0  0  0  0  0  0  0  0  0  0  0
   37.7280   33.2180   39.9970 H   0  0  0  0  0  0  0  0  0  0  0  0
   39.8050   32.7170   41.2840 H   0  0  0  0  0  0  0  0  0  0  0  0
   40.0040   30.5850   42.4060 H   0  0  0  0  0  0  0  0  0  0  0  0
   38.1860   28.3570   42.6810 S   0  0  0  0  0  0  0  0  0  0  0  0
   37.2860   28.3070   43.8600 O   0  0  0  0  0  0  0  0  0  0  0  0
   39.6090   28.3240   43.2730 O   0  0  0  0  0  0  0  0  0  0  0  0
   38.1650   26.8890   41.7270 C   0  0  0  0  0  3  0  0  0  0  0  0
   37.0350   25.9410   42.0040 C   0  0  0  0  0  2  0  0  0  0  0  0
   36.9720   25.0260   40.7870 C   0  0  0  0  0  2  0  0  0  0  0  0
   38.3930   24.6730   40.3650 C   0  0  0  0  0  2  0  0  0  0  0  0
   39.3480   24.7280   41.5240 C   0  0  0  0  0  2  0  0  0  0  0  0
   39.3900   26.0290   42.2550 C   0  0  0  0  0  2  0  0  0  0  0  0
  1  6  1  0  0  0  0
  2  1  2  0  0  0  0
  2  3  1  0  0  0  0
  3  4  2  0  0  0  0
  4  5  1  0  0  0  0
  5 21  1  0  0  0  0
  6  5  2  0  0  0  0
  7  1  1  0  0  0  0
  8  2  1  0  0  0  0
  9  3  1  0  0  0  0
  9 10  1  0  0  0  0
  9 11  1  0  0  0  0
 12  9  1  0  0  0  0
 13 12  1  0  0  0  0
 14 12  1  0  0  0  0
 15 16  2  0  0  0  0
 15 12  1  0  0  0  0
 17 20  1  0  0  0  0
 17 19  1  0  0  0  0
 17 16  1  0  0  0  0
 18 17  1  0  0  0  0
 21 23  1  0  0  0  0
 22 27  1  0  0  0  0
 22 32  1  0  0  0  0
 23 22  2  0  0  0  0
 24 25  2  0  0  0  0
 24 23  1  0  0  0  0
 25 26  1  0  0  0  0
 26 30  1  0  0  0  0
 26 27  2  0  0  0  0
 27 31  1  0  0  0  0
 28 24  1  0  0  0  0
 29 25  1  0  0  0  0
 32 34  2  0  0  0  0
 32 33  2  0  0  0  0
 35 36  1  0  0  0  0
 35 40  1  0  0  0  0
 35 32  1  0  0  0  0
 37 36  1  0  0  0  0
 38 37  1  0  0  0  0
 38 39  1  0  0  0  0
 39 40  1  0  0  0  0
M  END
>  <minimizedAffinity>
-5.64585304

$$$$

 OpenBabel03242517583D

 40 42  0  0  0  0  0  0  0  0999 V2000
   33.5920   29.0240   38.3310 C   0  0  0  0  0  0  0  0  0  0  0  0
   34.3010   28.2310   37.4100 C   0  0  0  0  0  0  0  0  0  0  0  0
   35.5120   27.7020   37.7700 C   0  0  0  0  0  0  0  0  0  0  0  0
   35.9450   27.9880   39.0070 N   0  0  0  0  0  0  0  0  0  0  0  0
   35.2750   28.7360   39.8720 C   0  0  0  0  0  0  0  0  0  0  0  0
   34.0980   29.2540   39.5330 N   0  0  0  0  0  0  0  0  0  0  0  0
   32.6380   29.4410   38.0490 H   0  0  0  0  0  0  0  0  0  0  0  0
   33.8230   28.0900   36.4580 H   0  0  0  0  0  0  0  0  0  0  0  0
   36.3250   26.8480   36.8950 C   0  0  0  0  0  0  0  0  0  0  0  0
   35.6630   26.4690   36.0820 H   0  0  0  0  0  0  0  0  0  0  0  0
   36.6770   25.9540   37.4500 H   0  0  0  0  0  0  0  0  0  0  0  0
   37.4660   27.5860   36.2560 C   0  0  0  0  0  0  0  0  0  0  0  0
   38.0410   26.7790   35.6960 H   0  0  0  0  0  0  0  0  0  0  0  0
   38.1860   27.9990   36.9460 H   0  0  0  0  0  0  0  0  0  0  0  0
   37.0490   28.5360   35.2260 C   0  0  0  0  0  3  0  0  0  0  0  0
   36.6110   29.7800   35.0720 C   0  0  0  0  0  3  0  0  0  0  0  0
   36.1530   30.4230   33.7740 C   0  0  0  0  0  0  0  0  0  0  0  0
   36.0360   29.6290   33.0070 H   0  0  0  0  0  0  0  0  0  0  0  0
   36.9560   31.1060   33.4560 H   0  0  0  0  0  0  0  0  0  0  0  0
   35.2110   30.9450   33.9600 H   0  0  0  0  0  0  0  0  0  0  0  0
   35.7360   29.0170   41.1350 O   0  0  0  0  0  0  0  0  0  0  0  0
   37.9430   28.9710   42.2130 C   0  0  0  0  0  0  0  0  0  0  0  0
   36.9700   29.5470   41.4660 C   0  0  0  0  0  0  0  0  0  0  0  0
   37.1810   30.8050   40.9450 C   0  0  0  0  0  0  0  0  0  0  0  0
   38.3500   31.5070   41.1510 C   0  0  0  0  0  0  0  0  0  0  0  0
   39.3450   30.9220   41.9100 C   0  0  0  0  0  0  0  0  0  0  0  0
   39.1290   29.6590   42.4320 C   0  0  0  0  0  0  0  0  0  0  0  0
   36.4630   31.3360   40.3430 H   0  0  0  0  0  0  0  0  0  0  0  0
   38.5500   32.4770   40.7660 H   0  0  0  0  0  0  0  0  0  0  0  0
   40.3130   31.3730   42.1440 H   0  0  0  0  0  0  0  0  0  0  0  0
   39.8930   29.1660   43.0370 H   0  0  0  0  0  0  0  0  0  0  0  0
   37.5850   27.4330   42.9280 S   0  0  0  0  0  0  0  0  0  0  0  0
   36.4000   27.4490   43.8220 O   0  0  0  0  0  0  0  0  0  0  0  0
   38.7770   27.1440   43.8640 O   0  0  0  0  0  0  0  0  0  0  0  0
   37.6300   26.0490   41.8580 C   0  0  0  0  0  3  0  0  0  0  0  0
   36.7410   24.9000   42.2310 C   0  0  0  0  0  2  0  0  0  0  0  0
   36.6060   24.0670   40.9620 C   0  0  0  0  0  2  0  0  0  0  0  0
   37.9650   24.0000   40.2750 C   0  0  0  0  0  2  0  0  0  0  0  0
   39.0940   24.1500   41.2560 C   0  0  0  0  0  2  0  0  0  0  0  0
   39.0550   25.3880   42.0880 C   0  0  0  0  0  2  0  0  0  0  0  0
  1  6  1  0  0  0  0
  2  3  1  0  0  0  0
  2  1  2  0  0  0  0
  3  4  2  0  0  0  0
  4  5  1  0  0  0  0
  5 21  1  0  0  0  0
  6  5  2  0  0  0  0
  7  1  1  0  0  0  0
  8  2  1  0  0  0  0
  9 11  1  0  0  0  0
  9  3  1  0  0  0  0
 10  9  1  0  0  0  0
 12  9  1  0  0  0  0
 12 14  1  0  0  0  0
 13 12  1  0  0  0  0
 15 12  1  0  0  0  0
 16 15  2  0  0  0  0
 17 20  1  0  0  0  0
 17 16  1  0  0  0  0
 18 17  1  0  0  0  0
 19 17  1  0  0  0  0
 21 23  1  0  0  0  0
 22 27  1  0  0  0  0
 22 32  1  0  0  0  0
 23 22  2  0  0  0  0
 24 25  2  0  0  0  0
 24 23  1  0  0  0  0
 25 26  1  0  0  0  0
 26 30  1  0  0  0  0
 26 27  2  0  0  0  0
 27 31  1  0  0  0  0
 28 24  1  0  0  0  0
 29 25  1  0  0  0  0
 32 33  2  0  0  0  0
 32 34  2  0  0  0  0
 35 40  1  0  0  0  0
 35 36  1  0  0  0  0
 35 32  1  0  0  0  0
 37 36  1  0  0  0  0
 38 37  1  0  0  0  0
 38 39  1  0  0  0  0
 39 40  1  0  0  0  0
M  END
>  <minimizedAffinity>
-5.47959471

$$$$

 OpenBabel03242517583D

 40 42  0  0  0  0  0  0  0  0999 V2000
   36.5450   28.0290   38.5390 C   0  0  0  0  0  0  0  0  0  0  0  0
   36.2240   27.6110   39.8430 C   0  0  0  0  0  0  0  0  0  0  0  0
   36.8420   28.2050   40.9110 C   0  0  0  0  0  0  0  0  0  0  0  0
   37.7340   29.1670   40.6270 N   0  0  0  0  0  0  0  0  0  0  0  0
   38.0350   29.5570   39.3960 C   0  0  0  0  0  0  0  0  0  0  0  0
   37.4390   28.9880   38.3530 N   0  0  0  0  0  0  0  0  0  0  0  0
   36.0590   27.5620   37.6970 H   0  0  0  0  0  0  0  0  0  0  0  0
   35.4880   26.8300   39.9110 H   0  0  0  0  0  0  0  0  0  0  0  0
   36.5690   27.8600   42.3120 C   0  0  0  0  0  0  0  0  0  0  0  0
   36.6280   26.7500   42.4050 H   0  0  0  0  0  0  0  0  0  0  0  0
   35.5290   28.1380   42.5810 H   0  0  0  0  0  0  0  0  0  0  0  0
   37.5640   28.4570   43.2650 C   0  0  0  0  0  0  0  0  0  0  0  0
   36.9700   28.6210   44.2210 H   0  0  0  0  0  0  0  0  0  0  0  0
   37.9190   29.4400   42.9970 H   0  0  0  0  0  0  0  0  0  0  0  0
   38.6410   27.5420   43.6410 C   0  0  0  0  0  3  0  0  0  0  0  0
   39.8000   27.0620   43.2060 C   0  0  0  0  0  3  0  0  0  0  0  0
   40.6350   25.9790   43.8670 C   0  0  0  0  0  0  0  0  0  0  0  0
   40.0250   25.4930   44.6570 H   0  0  0  0  0  0  0  0  0  0  0  0
   41.4920   26.4810   44.3410 H   0  0  0  0  0  0  0  0  0  0  0  0
   40.9420   25.2640   43.1000 H   0  0  0  0  0  0  0  0  0  0  0  0
   38.9500   30.5450   39.1260 O   0  0  0  0  0  0  0  0  0  0  0  0
   39.8460   32.6500   40.0200 C   0  0  0  0  0  0  0  0  0  0  0  0
   38.8650   31.8750   39.4990 C   0  0  0  0  0  0  0  0  0  0  0  0
   37.6180   32.4210   39.2890 C   0  0  0  0  0  0  0  0  0  0  0  0
   37.3240   33.7350   39.5870 C   0  0  0  0  0  0  0  0  0  0  0  0
   38.3220   34.5300   40.1160 C   0  0  0  0  0  0  0  0  0  0  0  0
   39.5730   33.9770   40.3260 C   0  0  0  0  0  0  0  0  0  0  0  0
   36.7820   31.8780   38.8810 H   0  0  0  0  0  0  0  0  0  0  0  0
   36.3770   34.1930   39.4400 H   0  0  0  0  0  0  0  0  0  0  0  0
   38.2160   35.5820   40.3930 H   0  0  0  0  0  0  0  0  0  0  0  0
   40.3860   34.5760   40.7440 H   0  0  0  0  0  0  0  0  0  0  0  0
   41.3640   31.8850   40.3590 S   0  0  0  0  0  0  0  0  0  0  0  0
   41.2340   30.5240   40.9360 O   0  0  0  0  0  0  0  0  0  0  0  0
   41.9910   32.7290   41.4870 O   0  0  0  0  0  0  0  0  0  0  0  0
   42.5860   31.9970   39.1110 C   0  0  0  0  0  3  0  0  0  0  0  0
   42.7990   33.3600   38.5190 C   0  0  0  0  0  2  0  0  0  0  0  0
   44.1610   33.2950   37.8410 C   0  0  0  0  0  2  0  0  0  0  0  0
   44.2950   31.9500   37.1370 C   0  0  0  0  0  2  0  0  0  0  0  0
   42.9560   31.3930   36.7420 C   0  0  0  0  0  2  0  0  0  0  0  0
   41.9760   31.2380   37.8580 C   0  0  0  0  0  2  0  0  0  0  0  0
  1  2  1  0  0  0  0
  2  8  1  0  0  0  0
  2  3  2  0  0  0  0
  3  9  1  0  0  0  0
  4  3  1  0  0  0  0
  5  4  2  0  0  0  0
  6  1  2  0  0  0  0
  6  5  1  0  0  0  0
  7  1  1  0  0  0  0
  9 10  1  0  0  0  0
  9 11  1  0  0  0  0
  9 12  1  0  0  0  0
 12 15  1  0  0  0  0
 12 13  1  0  0  0  0
 14 12  1  0  0  0  0
 16 15  2  0  0  0  0
 16 17  1  0  0  0  0
 17 19  1  0  0  0  0
 17 18  1  0  0  0  0
 20 17  1  0  0  0  0
 21  5  1  0  0  0  0
 21 23  1  0  0  0  0
 22 27  1  0  0  0  0
 22 32  1  0  0  0  0
 23 22  2  0  0  0  0
 24 23  1  0  0  0  0
 24 25  2  0  0  0  0
 25 26  1  0  0  0  0
 26 27  2  0  0  0  0
 26 30  1  0  0  0  0
 27 31  1  0  0  0  0
 28 24  1  0  0  0  0
 29 25  1  0  0  0  0
 32 33  2  0  0  0  0
 32 34  2  0  0  0  0
 35 32  1  0  0  0  0
 36 35  1  0  0  0  0
 37 36  1  0  0  0  0
 38 37  1  0  0  0  0
 39 38  1  0  0  0  0
 39 40  1  0  0  0  0
 40 35  1  0  0  0  0
M  END
>  <minimizedAffinity>
-5.43761635

$$$$

 OpenBabel03242517583D

 40 42  0  0  0  0  0  0  0  0999 V2000
   37.7360   28.1680   36.4400 C   0  0  0  0  0  0  0  0  0  0  0  0
   36.6340   28.8250   37.0160 C   0  0  0  0  0  0  0  0  0  0  0  0
   36.2880   28.5490   38.3120 C   0  0  0  0  0  0  0  0  0  0  0  0
   37.0460   27.6470   38.9540 N   0  0  0  0  0  0  0  0  0  0  0  0
   38.0840   27.0290   38.4080 C   0  0  0  0  0  0  0  0  0  0  0  0
   38.4290   27.2910   37.1510 N   0  0  0  0  0  0  0  0  0  0  0  0
   38.0100   28.3850   35.4200 H   0  0  0  0  0  0  0  0  0  0  0  0
   36.1250   29.5230   36.3760 H   0  0  0  0  0  0  0  0  0  0  0  0
   35.1690   29.1890   39.0160 C   0  0  0  0  0  0  0  0  0  0  0  0
   34.3170   28.4700   39.0210 H   0  0  0  0  0  0  0  0  0  0  0  0
   34.8200   30.0790   38.4540 H   0  0  0  0  0  0  0  0  0  0  0  0
   35.4950   29.5290   40.4420 C   0  0  0  0  0  0  0  0  0  0  0  0
   36.0810   28.6280   40.8160 H   0  0  0  0  0  0  0  0  0  0  0  0
   34.6440   29.5890   41.1030 H   0  0  0  0  0  0  0  0  0  0  0  0
   36.4110   30.6600   40.5830 C   0  0  0  0  0  3  0  0  0  0  0  0
   36.7900   31.7750   39.9710 C   0  0  0  0  0  3  0  0  0  0  0  0
   37.9170   32.7010   40.3970 C   0  0  0  0  0  0  0  0  0  0  0  0
   38.5190   32.1910   41.1770 H   0  0  0  0  0  0  0  0  0  0  0  0
   37.4480   33.5930   40.8380 H   0  0  0  0  0  0  0  0  0  0  0  0
   38.5190   32.9390   39.5160 H   0  0  0  0  0  0  0  0  0  0  0  0
   38.8480   26.1090   39.0830 O   0  0  0  0  0  0  0  0  0  0  0  0
   38.6240   24.2430   40.6650 C   0  0  0  0  0  0  0  0  0  0  0  0
   38.4670   24.8320   39.4540 C   0  0  0  0  0  0  0  0  0  0  0  0
   37.8610   24.1260   38.4380 C   0  0  0  0  0  0  0  0  0  0  0  0
   37.4020   22.8360   38.6030 C   0  0  0  0  0  0  0  0  0  0  0  0
   37.5570   22.2330   39.8360 C   0  0  0  0  0  0  0  0  0  0  0  0
   38.1660   22.9460   40.8530 C   0  0  0  0  0  0  0  0  0  0  0  0
   37.6990   24.5150   37.4470 H   0  0  0  0  0  0  0  0  0  0  0  0
   36.9300   22.2590   37.8450 H   0  0  0  0  0  0  0  0  0  0  0  0
   37.2350   21.2200   40.0920 H   0  0  0  0  0  0  0  0  0  0  0  0
   38.3060   22.5000   41.8410 H   0  0  0  0  0  0  0  0  0  0  0  0
   39.4830   25.1380   41.8750 S   0  0  0  0  0  0  0  0  0  0  0  0
   40.8420   25.5610   41.4550 O   0  0  0  0  0  0  0  0  0  0  0  0
   39.7230   24.1300   43.0180 O   0  0  0  0  0  0  0  0  0  0  0  0
   38.5850   26.3970   42.6940 C   0  0  0  0  0  3  0  0  0  0  0  0
   37.1540   26.5630   42.2750 C   0  0  0  0  0  2  0  0  0  0  0  0
   36.4940   27.3480   43.4020 C   0  0  0  0  0  2  0  0  0  0  0  0
   37.4530   28.4360   43.8670 C   0  0  0  0  0  2  0  0  0  0  0  0
   38.3890   28.8600   42.7700 C   0  0  0  0  0  2  0  0  0  0  0  0
   39.1950   27.7620   42.1600 C   0  0  0  0  0  2  0  0  0  0  0  0
  1  2  2  0  0  0  0
  1  6  1  0  0  0  0
  2  3  1  0  0  0  0
  3  4  2  0  0  0  0
  3  9  1  0  0  0  0
  5  4  1  0  0  0  0
  5 21  1  0  0  0  0
  6  5  2  0  0  0  0
  7  1  1  0  0  0  0
  8  2  1  0  0  0  0
  9 10  1  0  0  0  0
  9 12  1  0  0  0  0
 11  9  1  0  0  0  0
 12 15  1  0  0  0  0
 12 13  1  0  0  0  0
 12 14  1  0  0  0  0
 16 17  1  0  0  0  0
 16 15  2  0  0  0  0
 17 19  1  0  0  0  0
 17 18  1  0  0  0  0
 20 17  1  0  0  0  0
 21 23  1  0  0  0  0
 22 27  1  0  0  0  0
 22 32  1  0  0  0  0
 23 22  2  0  0  0  0
 24 25  2  0  0  0  0
 24 23  1  0  0  0  0
 25 26  1  0  0  0  0
 26 30  1  0  0  0  0
 26 27  2  0  0  0  0
 27 31  1  0  0  0  0
 28 24  1  0  0  0  0
 29 25  1  0  0  0  0
 32 35  1  0  0  0  0
 32 34  2  0  0  0  0
 33 32  2  0  0  0  0
 36 35  1  0  0  0  0
 36 37  1  0  0  0  0
 37 38  1  0  0  0  0
 39 38  1  0  0  0  0
 40 35  1  0  0  0  0
 40 39  1  0  0  0  0
M  END
>  <minimizedAffinity>
-5.43636942

$$$$

 OpenBabel03242517583D

 40 42  0  0  0  0  0  0  0  0999 V2000
   37.3360   28.5590   35.9820 C   0  0  0  0  0  0  0  0  0  0  0  0
   36.0330   28.9790   36.3010 C   0  0  0  0  0  0  0  0  0  0  0  0
   35.4670   28.5810   37.4830 C   0  0  0  0  0  0  0  0  0  0  0  0
   36.2190   27.7960   38.2700 N   0  0  0  0  0  0  0  0  0  0  0  0
   37.4480   27.4020   37.9660 C   0  0  0  0  0  0  0  0  0  0  0  0
   38.0060   27.7840   36.8220 N   0  0  0  0  0  0  0  0  0  0  0  0
   37.7830   28.8730   35.0520 H   0  0  0  0  0  0  0  0  0  0  0  0
   35.5570   29.6080   35.5700 H   0  0  0  0  0  0  0  0  0  0  0  0
   34.1230   28.9750   37.9230 C   0  0  0  0  0  0  0  0  0  0  0  0
   34.1410   30.0710   38.1240 H   0  0  0  0  0  0  0  0  0  0  0  0
   33.8750   28.4870   38.8880 H   0  0  0  0  0  0  0  0  0  0  0  0
   33.0700   28.7120   36.8850 C   0  0  0  0  0  0  0  0  0  0  0  0
   32.5920   27.7340   37.2150 H   0  0  0  0  0  0  0  0  0  0  0  0
   33.4460   28.5070   35.8940 H   0  0  0  0  0  0  0  0  0  0  0  0
   31.9800   29.6870   36.8930 C   0  0  0  0  0  3  0  0  0  0  0  0
   31.3310   30.5300   36.1000 C   0  0  0  0  0  3  0  0  0  0  0  0
   30.2530   31.5160   36.5170 C   0  0  0  0  0  0  0  0  0  0  0  0
   30.2390   31.5780   37.6250 H   0  0  0  0  0  0  0  0  0  0  0  0
   29.2920   31.1020   36.1740 H   0  0  0  0  0  0  0  0  0  0  0  0
   30.4760   32.4840   36.0620 H   0  0  0  0  0  0  0  0  0  0  0  0
   38.2020   26.5990   38.7870 O   0  0  0  0  0  0  0  0  0  0  0  0
   38.0170   26.5360   41.2360 C   0  0  0  0  0  0  0  0  0  0  0  0
   37.8060   26.0440   39.9910 C   0  0  0  0  0  0  0  0  0  0  0  0
   37.1190   24.8580   39.8460 C   0  0  0  0  0  0  0  0  0  0  0  0
   36.6320   24.1470   40.9210 C   0  0  0  0  0  0  0  0  0  0  0  0
   36.8430   24.6460   42.1920 C   0  0  0  0  0  0  0  0  0  0  0  0
   37.5330   25.8370   42.3340 C   0  0  0  0  0  0  0  0  0  0  0  0
   36.9090   24.3950   38.8960 H   0  0  0  0  0  0  0  0  0  0  0  0
   36.0980   23.2300   40.8510 H   0  0  0  0  0  0  0  0  0  0  0  0
   36.5070   24.1790   43.1220 H   0  0  0  0  0  0  0  0  0  0  0  0
   37.7190   26.2610   43.3230 H   0  0  0  0  0  0  0  0  0  0  0  0
   38.9750   27.9750   41.3660 S   0  0  0  0  0  0  0  0  0  0  0  0
   40.3730   27.8090   40.8990 O   0  0  0  0  0  0  0  0  0  0  0  0
   39.0960   28.2340   42.8810 O   0  0  0  0  0  0  0  0  0  0  0  0
   38.2270   29.4580   40.8110 C   0  0  0  0  0  3  0  0  0  0  0  0
   38.6770   30.7160   41.4930 C   0  0  0  0  0  2  0  0  0  0  0  0
   38.2630   31.8480   40.5610 C   0  0  0  0  0  2  0  0  0  0  0  0
   36.8780   31.5420   40.0050 C   0  0  0  0  0  2  0  0  0  0  0  0
   36.0800   30.6760   40.9400 C   0  0  0  0  0  2  0  0  0  0  0  0
   36.7250   29.3840   41.3170 C   0  0  0  0  0  2  0  0  0  0  0  0
  1  2  2  0  0  0  0
  1  6  1  0  0  0  0
  2  3  1  0  0  0  0
  3  9  1  0  0  0  0
  3  4  2  0  0  0  0
  5  4  1  0  0  0  0
  5 21  1  0  0  0  0
  6  5  2  0  0  0  0
  7  1  1  0  0  0  0
  8  2  1  0  0  0  0
  9 10  1  0  0  0  0
  9 11  1  0  0  0  0
 12 15  1  0  0  0  0
 12 13  1  0  0  0  0
 12  9  1  0  0  0  0
 14 12  1  0  0  0  0
 16 17  1  0  0  0  0
 16 15  2  0  0  0  0
 17 18  1  0  0  0  0
 19 17  1  0  0  0  0
 20 17  1  0  0  0  0
 21 23  1  0  0  0  0
 22 32  1  0  0  0  0
 22 27  1  0  0  0  0
 23 22  2  0  0  0  0
 24 23  1  0  0  0  0
 24 25  2  0  0  0  0
 25 26  1  0  0  0  0
 26 27  2  0  0  0  0
 26 30  1  0  0  0  0
 27 31  1  0  0  0  0
 28 24  1  0  0  0  0
 29 25  1  0  0  0  0
 32 34  2  0  0  0  0
 33 32  2  0  0  0  0
 35 40  1  0  0  0  0
 35 32  1  0  0  0  0
 35 36  1  0  0  0  0
 37 36  1  0  0  0  0
 38 37  1  0  0  0  0
 38 39  1  0  0  0  0
 39 40  1  0  0  0  0
M  END
>  <minimizedAffinity>
-5.39851284

$$$$

 OpenBabel03242517583D

 40 42  0  0  0  0  0  0  0  0999 V2000
   37.3530   28.4240   43.7420 C   0  0  0  0  0  0  0  0  0  0  0  0
   36.7230   27.2140   43.3990 C   0  0  0  0  0  0  0  0  0  0  0  0
   37.3640   26.3320   42.5720 C   0  0  0  0  0  0  0  0  0  0  0  0
   38.5800   26.6970   42.1370 N   0  0  0  0  0  0  0  0  0  0  0  0
   39.1710   27.8390   42.4610 C   0  0  0  0  0  0  0  0  0  0  0  0
   38.5570   28.7020   43.2640 N   0  0  0  0  0  0  0  0  0  0  0  0
   36.8490   29.1200   44.3940 H   0  0  0  0  0  0  0  0  0  0  0  0
   35.7490   27.0620   43.8290 H   0  0  0  0  0  0  0  0  0  0  0  0
   36.8070   25.0350   42.1660 C   0  0  0  0  0  0  0  0  0  0  0  0
   35.7150   25.1760   41.9930 H   0  0  0  0  0  0  0  0  0  0  0  0
   36.8990   24.3020   42.9930 H   0  0  0  0  0  0  0  0  0  0  0  0
   37.4120   24.5130   40.8950 C   0  0  0  0  0  0  0  0  0  0  0  0
   37.2920   23.3840   40.9720 H   0  0  0  0  0  0  0  0  0  0  0  0
   38.4770   24.6640   40.8000 H   0  0  0  0  0  0  0  0  0  0  0  0
   36.6710   24.8900   39.6920 C   0  0  0  0  0  3  0  0  0  0  0  0
   36.3470   25.9470   38.9570 C   0  0  0  0  0  3  0  0  0  0  0  0
   35.4140   25.9620   37.7580 C   0  0  0  0  0  0  0  0  0  0  0  0
   34.8730   24.9940   37.7180 H   0  0  0  0  0  0  0  0  0  0  0  0
   36.0470   26.0500   36.8620 H   0  0  0  0  0  0  0  0  0  0  0  0
   34.7260   26.8040   37.8670 H   0  0  0  0  0  0  0  0  0  0  0  0
   40.4170   28.1940   42.0050 O   0  0  0  0  0  0  0  0  0  0  0  0
   40.6580   30.3170   40.7930 C   0  0  0  0  0  0  0  0  0  0  0  0
   40.8980   29.4790   41.8310 C   0  0  0  0  0  0  0  0  0  0  0  0
   41.7050   29.9040   42.8630 C   0  0  0  0  0  0  0  0  0  0  0  0
   42.2810   31.1560   42.8870 C   0  0  0  0  0  0  0  0  0  0  0  0
   42.0370   32.0150   41.8330 C   0  0  0  0  0  0  0  0  0  0  0  0
   41.2260   31.5840   40.7980 C   0  0  0  0  0  0  0  0  0  0  0  0
   41.9500   29.3040   43.7240 H   0  0  0  0  0  0  0  0  0  0  0  0
   42.9090   31.5210   43.6640 H   0  0  0  0  0  0  0  0  0  0  0  0
   42.4330   33.0290   41.7350 H   0  0  0  0  0  0  0  0  0  0  0  0
   41.0120   32.2360   39.9470 H   0  0  0  0  0  0  0  0  0  0  0  0
   39.7210   29.6950   39.4740 S   0  0  0  0  0  0  0  0  0  0  0  0
   40.2740   28.4530   38.8800 O   0  0  0  0  0  0  0  0  0  0  0  0
   39.8520   30.7540   38.3610 O   0  0  0  0  0  0  0  0  0  0  0  0
   37.9870   29.6410   39.7100 C   0  0  0  0  0  3  0  0  0  0  0  0
   37.1510   30.0950   38.5500 C   0  0  0  0  0  2  0  0  0  0  0  0
   35.7600   29.5330   38.8130 C   0  0  0  0  0  2  0  0  0  0  0  0
   35.4430   29.6850   40.2960 C   0  0  0  0  0  2  0  0  0  0  0  0
   36.1870   30.8380   40.9100 C   0  0  0  0  0  2  0  0  0  0  0  0
   37.6710   30.7950   40.7530 C   0  0  0  0  0  2  0  0  0  0  0  0
  1  7  1  0  0  0  0
  2  1  1  0  0  0  0
  2  8  1  0  0  0  0
  3  2  2  0  0  0  0
  4  5  2  0  0  0  0
  4  3  1  0  0  0  0
  5  6  1  0  0  0  0
  6  1  2  0  0  0  0
  9  3  1  0  0  0  0
  9 11  1  0  0  0  0
 10  9  1  0  0  0  0
 12 13  1  0  0  0  0
 12  9  1  0  0  0  0
 14 12  1  0  0  0  0
 15 12  1  0  0  0  0
 16 15  2  0  0  0  0
 17 20  1  0  0  0  0
 17 16  1  0  0  0  0
 18 17  1  0  0  0  0
 19 17  1  0  0  0  0
 21  5  1  0  0  0  0
 22 27  2  0  0  0  0
 22 23  1  0  0  0  0
 23 21  1  0  0  0  0
 23 24  2  0  0  0  0
 24 25  1  0  0  0  0
 24 28  1  0  0  0  0
 25 29  1  0  0  0  0
 26 25  2  0  0  0  0
 27 26  1  0  0  0  0
 30 26  1  0  0  0  0
 31 27  1  0  0  0  0
 32 35  1  0  0  0  0
 32 22  1  0  0  0  0
 33 32  2  0  0  0  0
 34 32  2  0  0  0  0
 35 40  1  0  0  0  0
 36 37  1  0  0  0  0
 36 35  1  0  0  0  0
 37 38  1  0  0  0  0
 38 39  1  0  0  0  0
 40 39  1  0  0  0  0
M  END
>  <minimizedAffinity>
-5.39330482

$$$$
