
 OpenBabel03252502363D

 21 22  0  0  1  0  0  0  0  0999 V2000
   46.7460   35.0800   41.7860 C   0  0  2  0  0  0  0  0  0  0  0  0
   46.3840   36.0040   41.2790 H   0  0  0  0  0  0  0  0  0  0  0  0
   45.1910   36.0660   43.4120 C   0  0  0  0  0  0  0  0  0  0  0  0
   46.0800   35.0120   43.0840 C   0  0  0  0  0  0  0  0  0  0  0  0
   46.2610   33.9980   44.0280 C   0  0  0  0  0  0  0  0  0  0  0  0
   45.5740   34.0900   45.1920 N   0  0  0  0  0  0  0  0  0  0  0  0
   44.7440   35.1000   45.4650 C   0  0  0  0  0  0  0  0  0  0  0  0
   44.5370   36.0970   44.5940 N   0  0  0  0  0  0  0  0  0  0  0  0
   45.0080   36.8810   42.7240 H   0  0  0  0  0  0  0  0  0  0  0  0
   46.9360   33.1850   43.8090 H   0  0  0  0  0  0  0  0  0  0  0  0
   44.1840   35.1910   46.3970 H   0  0  0  0  0  0  0  0  0  0  0  0
   46.4050   33.9490   40.8380 C   0  0  0  0  0  3  0  0  0  0  0  0
   44.9390   33.9040   40.5230 C   0  0  0  0  0  2  0  0  0  0  0  0
   44.6300   33.2080   39.2240 C   0  0  0  0  0  2  0  0  0  0  0  0
   45.6850   32.1610   38.9160 C   0  0  0  0  0  2  0  0  0  0  0  0
   46.9290   32.9240   38.5950 C   0  0  0  0  0  2  0  0  0  0  0  0
   47.2950   33.9020   39.6390 C   0  0  0  0  0  2  0  0  0  0  0  0
   48.2380   35.1900   42.0650 C   0  0  0  0  0  0  0  0  0  0  0  0
   48.4530   35.5420   43.0950 H   0  0  0  0  0  0  0  0  0  0  0  0
   48.7730   34.2620   41.8060 H   0  0  0  0  0  0  0  0  0  0  0  0
   48.6360   35.9610   41.3740 H   0  0  0  0  0  0  0  0  0  0  0  0
  1  2  1  6  0  0  0
  1 18  1  0  0  0  0
  1  4  1  0  0  0  0
  3  8  1  0  0  0  0
  4  3  2  0  0  0  0
  4  5  1  0  0  0  0
  5  6  2  0  0  0  0
  6  7  1  0  0  0  0
  7 11  1  0  0  0  0
  8  7  2  0  0  0  0
  9  3  1  0  0  0  0
 10  5  1  0  0  0  0
 12  1  1  0  0  0  0
 13 12  1  0  0  0  0
 14 13  1  0  0  0  0
 15 14  1  0  0  0  0
 16 15  1  0  0  0  0
 16 17  1  0  0  0  0
 17 12  1  0  0  0  0
 18 19  1  0  0  0  0
 20 18  1  0  0  0  0
 21 18  1  0  0  0  0
M  END
>  <minimizedAffinity>
-4.33426428

>  <minimizedRMSD>
1.02609122

$$$$
