
 OpenBabel03252509293D

 18 19  0  0  0  0  0  0  0  0999 V2000
   44.4220   36.0210   44.9500 C   0  0  0  0  0  0  0  0  0  0  0  0
   44.5130   35.8540   43.5470 C   0  0  0  0  0  0  0  0  0  0  0  0
   45.0100   34.6400   43.0790 C   0  0  0  0  0  0  0  0  0  0  0  0
   45.3850   33.6800   43.9700 N   0  0  0  0  0  0  0  0  0  0  0  0
   45.2780   33.8890   45.3160 C   0  0  0  0  0  0  0  0  0  0  0  0
   44.8000   35.0510   45.7970 N   0  0  0  0  0  0  0  0  0  0  0  0
   44.0390   36.9540   45.3310 H   0  0  0  0  0  0  0  0  0  0  0  0
   44.1980   36.6570   42.9140 H   0  0  0  0  0  0  0  0  0  0  0  0
   45.5720   33.1350   46.0160 H   0  0  0  0  0  0  0  0  0  0  0  0
   45.1010   34.4740   41.6300 C   0  0  0  0  0  0  0  0  0  0  0  0
   44.6360   33.4970   41.3800 H   0  0  0  0  0  0  0  0  0  0  0  0
   44.5650   35.2440   41.0600 H   0  0  0  0  0  0  0  0  0  0  0  0
   46.5140   34.4000   41.1200 C   0  0  0  0  0  3  0  0  0  0  0  0
   47.5160   35.1510   41.9420 C   0  0  0  0  0  2  0  0  0  0  0  0
   48.7500   35.3010   41.0500 C   0  0  0  0  0  2  0  0  0  0  0  0
   49.2810   33.9150   40.8020 C   0  0  0  0  0  2  0  0  0  0  0  0
   48.2490   33.0670   40.0950 C   0  0  0  0  0  2  0  0  0  0  0  0
   47.0080   32.9720   40.9900 C   0  0  0  0  0  2  0  0  0  0  0  0
  1  7  1  0  0  0  0
  1  6  1  0  0  0  0
  2  1  2  0  0  0  0
  3  2  1  0  0  0  0
  3  4  2  0  0  0  0
  4  5  1  0  0  0  0
  5  6  2  0  0  0  0
  5  9  1  0  0  0  0
  8  2  1  0  0  0  0
 10  3  1  0  0  0  0
 11 10  1  0  0  0  0
 12 10  1  0  0  0  0
 13 10  1  0  0  0  0
 13 14  1  0  0  0  0
 15 14  1  0  0  0  0
 16 15  1  0  0  0  0
 17 16  1  0  0  0  0
 17 18  1  0  0  0  0
 18 13  1  0  0  0  0
M  END
>  <minimizedAffinity>
-3.9083941

>  <minimizedRMSD>
2.24069262

$$$$
