
 OpenBabel03252509273D

 27 29  0  0  1  0  0  0  0  0999 V2000
   47.2030   35.2860   41.8370 C   0  0  1  0  0  0  0  0  0  0  0  0
   48.7450   35.4510   41.9700 C   0  0  0  0  0  0  0  0  0  0  0  0
   47.9940   34.4280   41.0580 C   0  0  2  0  0  0  0  0  0  0  0  0
   46.7050   36.1920   41.4320 H   0  0  0  0  0  0  0  0  0  0  0  0
   49.1780   36.2920   41.3920 H   0  0  0  0  0  0  0  0  0  0  0  0
   49.2460   35.0810   42.8580 H   0  0  0  0  0  0  0  0  0  0  0  0
   48.1380   33.3710   41.4440 H   0  0  0  0  0  0  0  0  0  0  0  0
   44.9710   34.7780   44.8110 C   0  0  0  0  0  0  0  0  0  0  0  0
   45.4780   35.3600   43.6140 C   0  0  0  0  0  0  0  0  0  0  0  0
   46.6110   34.7910   43.1350 C   0  0  0  0  0  0  0  0  0  0  0  0
   47.2240   33.7290   43.7660 N   0  0  0  0  0  0  0  0  0  0  0  0
   46.7100   33.2030   44.9060 C   0  0  0  0  0  0  0  0  0  0  0  0
   45.5730   33.7380   45.4260 N   0  0  0  0  0  0  0  0  0  0  0  0
   44.0550   35.2410   45.1950 H   0  0  0  0  0  0  0  0  0  0  0  0
   47.1510   32.3810   45.4280 H   0  0  0  0  0  0  0  0  0  0  0  0
   44.8660   36.4650   42.9740 N   0  0  0  0  0  0  0  0  0  0  0  0
   44.3110   36.4570   42.0740 H   0  0  0  0  0  0  0  0  0  0  0  0
   44.9040   37.4590   43.3500 H   0  0  0  0  0  0  0  0  0  0  0  0
   48.1220   34.5960   39.5580 C   0  0  0  0  0  0  0  0  0  0  0  0
   47.5160   35.4660   39.2260 H   0  0  0  0  0  0  0  0  0  0  0  0
   49.1960   34.8040   39.3110 H   0  0  0  0  0  0  0  0  0  0  0  0
   47.6390   33.3280   38.8770 C   0  0  0  0  0  3  0  0  0  0  0  0
   46.1630   33.1750   38.9690 C   0  0  0  0  0  2  0  0  0  0  0  0
   45.4600   32.5380   37.8360 C   0  0  0  0  0  2  0  0  0  0  0  0
   46.4350   31.7260   37.0090 C   0  0  0  0  0  2  0  0  0  0  0  0
   47.3660   32.7740   36.4260 C   0  0  0  0  0  2  0  0  0  0  0  0
   48.2600   33.2270   37.5430 C   0  0  0  0  0  2  0  0  0  0  0  0
  1  4  1  6  0  0  0
  1  2  1  0  0  0  0
  1 10  1  0  0  0  0
  2  6  1  0  0  0  0
  3  7  1  1  0  0  0
  3  1  1  0  0  0  0
  3  2  1  0  0  0  0
  5  2  1  0  0  0  0
  8 14  1  0  0  0  0
  8 13  1  0  0  0  0
  9  8  2  0  0  0  0
 10  9  1  0  0  0  0
 10 11  2  0  0  0  0
 11 12  1  0  0  0  0
 12 13  2  0  0  0  0
 12 15  1  0  0  0  0
 16 18  1  0  0  0  0
 16  9  1  0  0  0  0
 17 16  1  0  0  0  0
 19  3  1  0  0  0  0
 20 19  1  0  0  0  0
 21 19  1  0  0  0  0
 22 23  1  0  0  0  0
 22 19  1  0  0  0  0
 24 23  1  0  0  0  0
 25 24  1  0  0  0  0
 26 25  1  0  0  0  0
 26 27  1  0  0  0  0
 27 22  1  0  0  0  0
M  END
>  <minimizedAffinity>
-4.76758575

>  <minimizedRMSD>
1.60023749

$$$$
