
 OpenBabel03242522503D

 23 24  0  0  0  0  0  0  0  0999 V2000
   44.8830   30.6030   47.8180 O   0  0  0  0  0  0  0  0  0  0  0  0
   45.6830   31.7600   48.4550 P   0  0  2  0  0  0  0  0  0  0  0  0
   45.2080   31.8160   50.0680 O   0  0  0  0  0  0  0  0  0  0  0  0
   45.7120   32.4460   50.6190 H   0  0  0  0  0  0  0  0  0  0  0  0
   45.2580   33.1940   47.6740 O   0  0  0  0  0  0  0  0  0  0  0  0
   47.0850   32.8830   44.5490 C   0  0  0  0  0  0  0  0  0  0  0  0
   46.6620   32.6690   45.8730 C   0  0  0  0  0  0  0  0  0  0  0  0
   45.6380   33.4380   46.3700 C   0  0  0  0  0  0  0  0  0  0  0  0
   45.0890   34.3660   45.5540 N   0  0  0  0  0  0  0  0  0  0  0  0
   45.4870   34.5750   44.2930 C   0  0  0  0  0  0  0  0  0  0  0  0
   46.4960   33.8230   43.7890 N   0  0  0  0  0  0  0  0  0  0  0  0
   47.8790   32.3360   44.0600 H   0  0  0  0  0  0  0  0  0  0  0  0
   47.2230   31.8960   46.3250 H   0  0  0  0  0  0  0  0  0  0  0  0
   44.9280   35.3580   43.7970 H   0  0  0  0  0  0  0  0  0  0  0  0
   47.2980   31.4500   48.2810 O   0  0  0  0  0  0  0  0  0  0  0  0
   48.0320   30.3300   48.4580 C   0  0  0  0  0  0  0  0  0  0  0  0
   48.8540   30.4100   49.4400 O   0  0  0  0  0  0  0  0  0  0  0  0
   48.4740   28.9470   48.1470 C   0  0  0  0  0  3  0  0  0  0  0  0
   49.9100   28.9070   47.7050 C   0  0  0  0  0  2  0  0  0  0  0  0
   50.1930   29.3380   46.3200 C   0  0  0  0  0  2  0  0  0  0  0  0
   49.2160   28.8270   45.2960 C   0  0  0  0  0  2  0  0  0  0  0  0
   47.8060   29.0300   45.7340 C   0  0  0  0  0  2  0  0  0  0  0  0
   47.5290   28.4250   47.0890 C   0  0  0  0  0  2  0  0  0  0  0  0
  2  1  2  6  0  0  0
  2  3  1  0  0  0  0
  3  4  1  0  0  0  0
  5  2  1  0  0  0  0
  6  7  1  0  0  0  0
  7 13  1  0  0  0  0
  7  8  2  0  0  0  0
  8  5  1  0  0  0  0
  9  8  1  0  0  0  0
 10  9  2  0  0  0  0
 11 10  1  0  0  0  0
 11  6  2  0  0  0  0
 12  6  1  0  0  0  0
 14 10  1  0  0  0  0
 15  2  1  0  0  0  0
 15 16  1  0  0  0  0
 16 17  2  0  0  0  0
 18 16  1  0  0  0  0
 19 18  1  0  0  0  0
 20 19  1  0  0  0  0
 21 22  1  0  0  0  0
 21 20  1  0  0  0  0
 22 23  1  0  0  0  0
 23 18  1  0  0  0  0
M  END
>  <minimizedAffinity>
-4.19084263

>  <minimizedRMSD>
0.99989593

$$$$
