
 OpenBabel03252507043D

 44 47  0  0  0  0  0  0  0  0999 V2000
   41.8910   31.4470   42.1780 C   0  0  0  0  0  0  0  0  0  0  0  0
   41.7610   32.1150   41.2600 H   0  0  0  0  0  0  0  0  0  0  0  0
   41.4640   32.0660   42.9970 H   0  0  0  0  0  0  0  0  0  0  0  0
   41.3110   30.2510   42.0640 N   0  0  0  0  0  0  0  0  0  0  0  0
   41.3960   29.1410   42.9510 C   0  0  0  0  0  0  0  0  0  0  0  0
   40.0050   29.2340   43.5770 C   0  0  0  0  0  0  0  0  0  0  0  0
   38.9160   29.1130   42.6240 C   0  0  0  0  0  0  0  0  0  0  0  0
   39.1520   29.4390   41.2350 C   0  0  0  0  0  0  0  0  0  0  0  0
   40.4590   30.0950   40.8580 C   0  0  0  0  0  0  0  0  0  0  0  0
   42.1160   29.4410   43.7640 H   0  0  0  0  0  0  0  0  0  0  0  0
   41.6520   28.1710   42.5610 H   0  0  0  0  0  0  0  0  0  0  0  0
   39.9810   28.4260   44.3480 H   0  0  0  0  0  0  0  0  0  0  0  0
   40.0070   30.1920   44.1650 H   0  0  0  0  0  0  0  0  0  0  0  0
   38.5180   28.0560   42.6450 H   0  0  0  0  0  0  0  0  0  0  0  0
   38.0410   29.7200   42.9770 H   0  0  0  0  0  0  0  0  0  0  0  0
   38.4890   29.2890   40.4300 H   0  0  0  0  0  0  0  0  0  0  0  0
   40.8290   30.6050   39.2500 S   0  0  0  0  0  0  0  0  0  0  0  0
   40.2790   32.1860   38.6890 C   0  0  0  0  0  3  0  0  0  0  0  0
   41.3360   33.2030   38.3850 C   0  0  0  0  0  2  0  0  0  0  0  0
   40.6570   34.5490   38.2060 C   0  0  0  0  0  2  0  0  0  0  0  0
   39.2490   34.4220   37.6610 C   0  0  0  0  0  2  0  0  0  0  0  0
   38.3500   33.6730   38.6230 C   0  0  0  0  0  2  0  0  0  0  0  0
   39.2370   32.8540   39.5720 C   0  0  0  0  0  2  0  0  0  0  0  0
   43.3650   31.3740   42.3700 C   0  0  0  0  0  0  0  0  0  0  0  0
   43.5670   31.1760   43.4630 H   0  0  0  0  0  0  0  0  0  0  0  0
   43.8140   30.5640   41.7670 H   0  0  0  0  0  0  0  0  0  0  0  0
   43.9410   32.6870   42.0410 C   0  0  0  0  0  0  0  0  0  0  0  0
   43.1390   33.7100   41.5950 C   0  0  0  0  0  0  0  0  0  0  0  0
   43.7270   34.9260   41.2830 C   0  0  0  0  0  0  0  0  0  0  0  0
   45.0830   35.0460   41.4400 N   0  0  0  0  0  0  0  0  0  0  0  0
   45.8260   34.0350   41.8760 C   0  0  0  0  0  0  0  0  0  0  0  0
   45.2350   32.8750   42.1670 N   0  0  0  0  0  0  0  0  0  0  0  0
   42.0810   33.8190   41.4260 H   0  0  0  0  0  0  0  0  0  0  0  0
   43.2590   35.8380   40.9180 H   0  0  0  0  0  0  0  0  0  0  0  0
   47.2600   34.2670   42.0400 C   0  0  0  0  0  0  0  0  0  0  0  0
   48.0650   33.3000   42.6340 C   0  0  0  0  0  0  0  0  0  0  0  0
   49.4140   33.5290   42.7970 C   0  0  0  0  0  0  0  0  0  0  0  0
   49.8450   34.7450   42.3340 C   0  0  0  0  0  0  0  0  0  0  0  0
   49.0860   35.7500   41.7310 C   0  0  0  0  0  0  0  0  0  0  0  0
   47.7690   35.4380   41.6120 N   0  0  0  0  0  0  0  0  0  0  0  0
   47.6580   32.3510   42.9830 H   0  0  0  0  0  0  0  0  0  0  0  0
   50.1170   32.8420   43.2450 H   0  0  0  0  0  0  0  0  0  0  0  0
   50.9120   34.9730   42.4420 H   0  0  0  0  0  0  0  0  0  0  0  0
   49.5180   36.6620   41.4060 H   0  0  0  0  0  0  0  0  0  0  0  0
  1 24  1  0  0  0  0
  1  3  1  0  0  0  0
  2  1  1  0  0  0  0
  4  1  1  0  0  0  0
  4  5  1  0  0  0  0
  5  6  1  0  0  0  0
  5 10  1  0  0  0  0
  6 13  1  0  0  0  0
  6 12  1  0  0  0  0
  7 14  1  0  0  0  0
  7 15  1  0  0  0  0
  7  6  1  0  0  0  0
  8  7  1  0  0  0  0
  9  8  2  0  0  0  0
  9  4  1  0  0  0  0
 11  5  1  0  0  0  0
 16  8  1  0  0  0  0
 17  9  1  0  0  0  0
 18 17  1  0  0  0  0
 18 23  1  0  0  0  0
 19 18  1  0  0  0  0
 20 19  1  0  0  0  0
 21 20  1  0  0  0  0
 21 22  1  0  0  0  0
 22 23  1  0  0  0  0
 24 25  1  0  0  0  0
 26 24  1  0  0  0  0
 27 32  1  0  0  0  0
 27 24  1  0  0  0  0
 28 27  2  0  0  0  0
 29 30  2  0  0  0  0
 29 28  1  0  0  0  0
 30 31  1  0  0  0  0
 31 35  1  0  0  0  0
 31 32  2  0  0  0  0
 33 28  1  0  0  0  0
 34 29  1  0  0  0  0
 35 36  1  0  0  0  0
 36 37  2  0  0  0  0
 36 41  1  0  0  0  0
 37 42  1  0  0  0  0
 38 43  1  0  0  0  0
 38 37  1  0  0  0  0
 39 38  2  0  0  0  0
 40 39  1  0  0  0  0
 40 35  2  0  0  0  0
 44 39  1  0  0  0  0
M  END
>  <minimizedAffinity>
-5.50598097

>  <minimizedRMSD>
3.50683141

$$$$
