
 OpenBabel03252509303D

 18 19  0  0  0  0  0  0  0  0999 V2000
   38.8050   31.4540   40.8230 C   0  0  0  0  0  0  0  0  0  0  0  0
   38.9710   30.4800   41.8390 C   0  0  0  0  0  0  0  0  0  0  0  0
   37.8320   29.8020   42.2660 C   0  0  0  0  0  0  0  0  0  0  0  0
   36.6260   30.0950   41.7040 N   0  0  0  0  0  0  0  0  0  0  0  0
   36.5170   31.0440   40.7270 C   0  0  0  0  0  0  0  0  0  0  0  0
   37.5990   31.7140   40.2930 N   0  0  0  0  0  0  0  0  0  0  0  0
   39.6750   31.9890   40.4800 H   0  0  0  0  0  0  0  0  0  0  0  0
   39.9520   30.3090   42.2280 H   0  0  0  0  0  0  0  0  0  0  0  0
   35.5690   31.2740   40.2860 H   0  0  0  0  0  0  0  0  0  0  0  0
   38.0110   28.7990   43.3130 C   0  0  0  0  0  0  0  0  0  0  0  0
   38.9240   29.0740   43.8820 H   0  0  0  0  0  0  0  0  0  0  0  0
   37.1830   28.7530   44.0310 H   0  0  0  0  0  0  0  0  0  0  0  0
   38.2600   27.4130   42.7830 C   0  0  0  0  0  3  0  0  0  0  0  0
   39.2640   26.6170   43.5600 C   0  0  0  0  0  2  0  0  0  0  0  0
   39.6730   25.4620   42.6430 C   0  0  0  0  0  2  0  0  0  0  0  0
   38.4480   24.6140   42.4370 C   0  0  0  0  0  2  0  0  0  0  0  0
   37.3480   25.4130   41.7800 C   0  0  0  0  0  2  0  0  0  0  0  0
   36.9910   26.5890   42.6970 C   0  0  0  0  0  2  0  0  0  0  0  0
  1  2  1  0  0  0  0
  2  8  1  0  0  0  0
  2  3  2  0  0  0  0
  3 10  1  0  0  0  0
  4  3  1  0  0  0  0
  5  4  2  0  0  0  0
  6  5  1  0  0  0  0
  6  1  2  0  0  0  0
  7  1  1  0  0  0  0
  9  5  1  0  0  0  0
 10 11  1  0  0  0  0
 10 12  1  0  0  0  0
 13 10  1  0  0  0  0
 13 14  1  0  0  0  0
 15 14  1  0  0  0  0
 16 15  1  0  0  0  0
 17 16  1  0  0  0  0
 17 18  1  0  0  0  0
 18 13  1  0  0  0  0
M  END
>  <minimizedAffinity>
-4.28802061

$$$$

 OpenBabel03252509303D

 18 19  0  0  0  0  0  0  0  0999 V2000
   37.1480   30.6450   37.9110 C   0  0  0  0  0  0  0  0  0  0  0  0
   36.7290   29.9580   39.0760 C   0  0  0  0  0  0  0  0  0  0  0  0
   36.6800   30.6840   40.2630 C   0  0  0  0  0  0  0  0  0  0  0  0
   37.0320   32.0010   40.2590 N   0  0  0  0  0  0  0  0  0  0  0  0
   37.4300   32.6200   39.1080 C   0  0  0  0  0  0  0  0  0  0  0  0
   37.4850   31.9440   37.9460 N   0  0  0  0  0  0  0  0  0  0  0  0
   37.1910   30.0990   36.9820 H   0  0  0  0  0  0  0  0  0  0  0  0
   36.4700   28.9230   38.9950 H   0  0  0  0  0  0  0  0  0  0  0  0
   37.7060   33.6530   39.1060 H   0  0  0  0  0  0  0  0  0  0  0  0
   36.2460   29.9690   41.4610 C   0  0  0  0  0  0  0  0  0  0  0  0
   36.1530   30.7170   42.2760 H   0  0  0  0  0  0  0  0  0  0  0  0
   35.2710   29.4790   41.3570 H   0  0  0  0  0  0  0  0  0  0  0  0
   37.2420   28.9530   41.9490 C   0  0  0  0  0  3  0  0  0  0  0  0
   38.2860   29.4950   42.8770 C   0  0  0  0  0  2  0  0  0  0  0  0
   39.4000   28.4460   42.9030 C   0  0  0  0  0  2  0  0  0  0  0  0
   38.8140   27.2030   43.5180 C   0  0  0  0  0  2  0  0  0  0  0  0
   37.6590   26.6910   42.6910 C   0  0  0  0  0  2  0  0  0  0  0  0
   36.5790   27.7790   42.6430 C   0  0  0  0  0  2  0  0  0  0  0  0
  1  6  2  0  0  0  0
  1  2  1  0  0  0  0
  2  3  2  0  0  0  0
  3 10  1  0  0  0  0
  4  3  1  0  0  0  0
  5  4  2  0  0  0  0
  6  5  1  0  0  0  0
  7  1  1  0  0  0  0
  8  2  1  0  0  0  0
  9  5  1  0  0  0  0
 10 13  1  0  0  0  0
 10 11  1  0  0  0  0
 12 10  1  0  0  0  0
 13 18  1  0  0  0  0
 13 14  1  0  0  0  0
 14 15  1  0  0  0  0
 15 16  1  0  0  0  0
 17 16  1  0  0  0  0
 18 17  1  0  0  0  0
M  END
>  <minimizedAffinity>
-4.23578548

$$$$

 OpenBabel03252509303D

 18 19  0  0  0  0  0  0  0  0999 V2000
   36.9810   32.0250   40.0030 C   0  0  0  0  0  0  0  0  0  0  0  0
   37.4070   30.9570   40.8300 C   0  0  0  0  0  0  0  0  0  0  0  0
   38.6000   31.1250   41.5260 C   0  0  0  0  0  0  0  0  0  0  0  0
   39.3010   32.2860   41.3880 N   0  0  0  0  0  0  0  0  0  0  0  0
   38.8490   33.2880   40.5770 C   0  0  0  0  0  0  0  0  0  0  0  0
   37.6980   33.1540   39.8920 N   0  0  0  0  0  0  0  0  0  0  0  0
   36.0590   31.9130   39.4560 H   0  0  0  0  0  0  0  0  0  0  0  0
   36.7990   30.0780   40.8840 H   0  0  0  0  0  0  0  0  0  0  0  0
   39.3990   34.1990   40.4680 H   0  0  0  0  0  0  0  0  0  0  0  0
   39.0330   30.0200   42.3790 C   0  0  0  0  0  0  0  0  0  0  0  0
   40.0220   29.6810   42.0030 H   0  0  0  0  0  0  0  0  0  0  0  0
   39.1640   30.2960   43.4320 H   0  0  0  0  0  0  0  0  0  0  0  0
   38.1320   28.8170   42.3080 C   0  0  0  0  0  3  0  0  0  0  0  0
   38.7100   27.6450   41.5740 C   0  0  0  0  0  2  0  0  0  0  0  0
   37.5230   26.7340   41.2540 C   0  0  0  0  0  2  0  0  0  0  0  0
   36.9780   26.2500   42.5700 C   0  0  0  0  0  2  0  0  0  0  0  0
   36.5080   27.4110   43.4140 C   0  0  0  0  0  2  0  0  0  0  0  0
   37.7060   28.3320   43.6800 C   0  0  0  0  0  2  0  0  0  0  0  0
  1  2  1  0  0  0  0
  2  8  1  0  0  0  0
  2  3  2  0  0  0  0
  3 10  1  0  0  0  0
  4  3  1  0  0  0  0
  5  4  2  0  0  0  0
  6  1  2  0  0  0  0
  6  5  1  0  0  0  0
  7  1  1  0  0  0  0
  9  5  1  0  0  0  0
 10 12  1  0  0  0  0
 11 10  1  0  0  0  0
 13 10  1  0  0  0  0
 13 18  1  0  0  0  0
 14 13  1  0  0  0  0
 15 14  1  0  0  0  0
 15 16  1  0  0  0  0
 16 17  1  0  0  0  0
 17 18  1  0  0  0  0
M  END
>  <minimizedAffinity>
-4.22435522

$$$$

 OpenBabel03252509303D

 18 19  0  0  0  0  0  0  0  0999 V2000
   36.3030   29.5320   38.8390 C   0  0  0  0  0  0  0  0  0  0  0  0
   36.2380   28.5570   39.8640 C   0  0  0  0  0  0  0  0  0  0  0  0
   36.4090   28.9950   41.1740 C   0  0  0  0  0  0  0  0  0  0  0  0
   36.6310   30.3170   41.4170 N   0  0  0  0  0  0  0  0  0  0  0  0
   36.6850   31.2210   40.3940 C   0  0  0  0  0  0  0  0  0  0  0  0
   36.5220   30.8270   39.1180 N   0  0  0  0  0  0  0  0  0  0  0  0
   36.1720   29.2120   37.8180 H   0  0  0  0  0  0  0  0  0  0  0  0
   36.0600   27.5380   39.5900 H   0  0  0  0  0  0  0  0  0  0  0  0
   36.8590   32.2590   40.5840 H   0  0  0  0  0  0  0  0  0  0  0  0
   36.3400   27.9830   42.2270 C   0  0  0  0  0  0  0  0  0  0  0  0
   36.1950   28.5170   43.1890 H   0  0  0  0  0  0  0  0  0  0  0  0
   35.5030   27.2830   42.1150 H   0  0  0  0  0  0  0  0  0  0  0  0
   37.6090   27.1900   42.3840 C   0  0  0  0  0  3  0  0  0  0  0  0
   38.3280   27.4110   43.6800 C   0  0  0  0  0  2  0  0  0  0  0  0
   39.7440   26.8740   43.4610 C   0  0  0  0  0  2  0  0  0  0  0  0
   39.6190   25.3930   43.2320 C   0  0  0  0  0  2  0  0  0  0  0  0
   38.7790   25.1100   42.0100 C   0  0  0  0  0  2  0  0  0  0  0  0
   37.3810   25.6990   42.2360 C   0  0  0  0  0  2  0  0  0  0  0  0
  1  6  2  0  0  0  0
  1  2  1  0  0  0  0
  2  3  2  0  0  0  0
  3  4  1  0  0  0  0
  3 10  1  0  0  0  0
  5  9  1  0  0  0  0
  5  4  2  0  0  0  0
  6  5  1  0  0  0  0
  7  1  1  0  0  0  0
  8  2  1  0  0  0  0
 10 13  1  0  0  0  0
 10 11  1  0  0  0  0
 12 10  1  0  0  0  0
 13 14  1  0  0  0  0
 15 14  1  0  0  0  0
 16 15  1  0  0  0  0
 17 18  1  0  0  0  0
 17 16  1  0  0  0  0
 18 13  1  0  0  0  0
M  END
>  <minimizedAffinity>
-4.19662857

$$$$

 OpenBabel03252509303D

 18 19  0  0  0  0  0  0  0  0999 V2000
   36.2000   29.8270   37.7240 C   0  0  0  0  0  0  0  0  0  0  0  0
   36.7040   30.1050   39.0190 C   0  0  0  0  0  0  0  0  0  0  0  0
   35.9050   29.7540   40.1030 C   0  0  0  0  0  0  0  0  0  0  0  0
   34.6930   29.1700   39.8840 N   0  0  0  0  0  0  0  0  0  0  0  0
   34.2510   28.9230   38.6160 C   0  0  0  0  0  0  0  0  0  0  0  0
   35.0020   29.2500   37.5480 N   0  0  0  0  0  0  0  0  0  0  0  0
   36.8050   30.0920   36.8720 H   0  0  0  0  0  0  0  0  0  0  0  0
   37.6650   30.5670   39.1060 H   0  0  0  0  0  0  0  0  0  0  0  0
   33.3000   28.4640   38.4430 H   0  0  0  0  0  0  0  0  0  0  0  0
   36.4310   30.0430   41.4360 C   0  0  0  0  0  0  0  0  0  0  0  0
   37.0460   30.9640   41.3560 H   0  0  0  0  0  0  0  0  0  0  0  0
   35.6550   30.2360   42.1880 H   0  0  0  0  0  0  0  0  0  0  0  0
   37.3520   28.9780   41.9640 C   0  0  0  0  0  3  0  0  0  0  0  0
   38.3970   29.4700   42.9190 C   0  0  0  0  0  2  0  0  0  0  0  0
   39.4480   28.3610   42.9880 C   0  0  0  0  0  2  0  0  0  0  0  0
   38.7750   27.1600   43.5950 C   0  0  0  0  0  2  0  0  0  0  0  0
   37.6180   26.7050   42.7390 C   0  0  0  0  0  2  0  0  0  0  0  0
   36.6030   27.8510   42.6470 C   0  0  0  0  0  2  0  0  0  0  0  0
  1  2  1  0  0  0  0
  2  8  1  0  0  0  0
  2  3  2  0  0  0  0
  3 10  1  0  0  0  0
  4  3  1  0  0  0  0
  5  4  2  0  0  0  0
  6  1  2  0  0  0  0
  6  5  1  0  0  0  0
  7  1  1  0  0  0  0
  9  5  1  0  0  0  0
 10 13  1  0  0  0  0
 10 12  1  0  0  0  0
 11 10  1  0  0  0  0
 13 18  1  0  0  0  0
 13 14  1  0  0  0  0
 14 15  1  0  0  0  0
 15 16  1  0  0  0  0
 17 16  1  0  0  0  0
 18 17  1  0  0  0  0
M  END
>  <minimizedAffinity>
-4.17037106

$$$$

 OpenBabel03252509303D

 18 19  0  0  0  0  0  0  0  0999 V2000
   38.5630   24.6160   42.3270 C   0  0  0  0  0  0  0  0  0  0  0  0
   37.5190   25.5640   42.1840 C   0  0  0  0  0  0  0  0  0  0  0  0
   37.6720   26.7840   42.8360 C   0  0  0  0  0  0  0  0  0  0  0  0
   38.7950   27.0170   43.5720 N   0  0  0  0  0  0  0  0  0  0  0  0
   39.7740   26.0700   43.6800 C   0  0  0  0  0  0  0  0  0  0  0  0
   39.6550   24.8820   43.0600 N   0  0  0  0  0  0  0  0  0  0  0  0
   38.4620   23.6650   41.8290 H   0  0  0  0  0  0  0  0  0  0  0  0
   36.6700   25.3040   41.5880 H   0  0  0  0  0  0  0  0  0  0  0  0
   40.6560   26.2520   44.2580 H   0  0  0  0  0  0  0  0  0  0  0  0
   36.5930   27.7580   42.6830 C   0  0  0  0  0  0  0  0  0  0  0  0
   35.6490   27.1870   42.5590 H   0  0  0  0  0  0  0  0  0  0  0  0
   36.4620   28.4150   43.5510 H   0  0  0  0  0  0  0  0  0  0  0  0
   36.7220   28.6120   41.4520 C   0  0  0  0  0  3  0  0  0  0  0  0
   35.4290   28.8960   40.7490 C   0  0  0  0  0  2  0  0  0  0  0  0
   35.8170   29.3840   39.3520 C   0  0  0  0  0  2  0  0  0  0  0  0
   36.5560   30.6820   39.5340 C   0  0  0  0  0  2  0  0  0  0  0  0
   37.8030   30.4770   40.3610 C   0  0  0  0  0  2  0  0  0  0  0  0
   37.3880   29.9430   41.7370 C   0  0  0  0  0  2  0  0  0  0  0  0
  1  6  1  0  0  0  0
  2  1  2  0  0  0  0
  2  3  1  0  0  0  0
  3  4  2  0  0  0  0
  4  5  1  0  0  0  0
  5  9  1  0  0  0  0
  6  5  2  0  0  0  0
  7  1  1  0  0  0  0
  8  2  1  0  0  0  0
 10  3  1  0  0  0  0
 10 12  1  0  0  0  0
 11 10  1  0  0  0  0
 13 18  1  0  0  0  0
 13 10  1  0  0  0  0
 14 13  1  0  0  0  0
 15 16  1  0  0  0  0
 15 14  1  0  0  0  0
 16 17  1  0  0  0  0
 17 18  1  0  0  0  0
M  END
>  <minimizedAffinity>
-4.16008568

$$$$

 OpenBabel03252509303D

 18 19  0  0  0  0  0  0  0  0999 V2000
   38.6680   28.4190   43.2240 C   0  0  0  0  0  0  0  0  0  0  0  0
   38.0470   29.4670   42.5010 C   0  0  0  0  0  0  0  0  0  0  0  0
   36.8930   29.1540   41.7890 C   0  0  0  0  0  0  0  0  0  0  0  0
   36.4140   27.8790   41.8120 N   0  0  0  0  0  0  0  0  0  0  0  0
   37.0490   26.9020   42.5250 C   0  0  0  0  0  0  0  0  0  0  0  0
   38.1660   27.1740   43.2240 N   0  0  0  0  0  0  0  0  0  0  0  0
   39.5640   28.6420   43.7820 H   0  0  0  0  0  0  0  0  0  0  0  0
   38.4870   30.4410   42.5340 H   0  0  0  0  0  0  0  0  0  0  0  0
   36.6730   25.9000   42.5430 H   0  0  0  0  0  0  0  0  0  0  0  0
   36.2570   30.2400   41.0460 C   0  0  0  0  0  0  0  0  0  0  0  0
   35.2430   29.8920   40.7560 H   0  0  0  0  0  0  0  0  0  0  0  0
   36.1290   31.1610   41.6280 H   0  0  0  0  0  0  0  0  0  0  0  0
   36.9580   30.5810   39.7600 C   0  0  0  0  0  3  0  0  0  0  0  0
   36.2340   30.1540   38.5200 C   0  0  0  0  0  2  0  0  0  0  0  0
   37.2750   30.2000   37.3990 C   0  0  0  0  0  2  0  0  0  0  0  0
   37.6810   31.6400   37.2410 C   0  0  0  0  0  2  0  0  0  0  0  0
   38.2930   32.1660   38.5170 C   0  0  0  0  0  2  0  0  0  0  0  0
   37.2460   32.0640   39.6330 C   0  0  0  0  0  2  0  0  0  0  0  0
  1  6  1  0  0  0  0
  1  7  1  0  0  0  0
  2  8  1  0  0  0  0
  2  1  2  0  0  0  0
  3  4  2  0  0  0  0
  3  2  1  0  0  0  0
  4  5  1  0  0  0  0
  5  9  1  0  0  0  0
  5  6  2  0  0  0  0
 10 12  1  0  0  0  0
 10  3  1  0  0  0  0
 11 10  1  0  0  0  0
 13 10  1  0  0  0  0
 14 13  1  0  0  0  0
 15 14  1  0  0  0  0
 16 15  1  0  0  0  0
 16 17  1  0  0  0  0
 17 18  1  0  0  0  0
 18 13  1  0  0  0  0
M  END
>  <minimizedAffinity>
-4.0880785

$$$$

 OpenBabel03252509303D

 18 19  0  0  0  0  0  0  0  0999 V2000
   36.0310   29.2280   36.9890 C   0  0  0  0  0  0  0  0  0  0  0  0
   35.4300   29.0370   38.2570 C   0  0  0  0  0  0  0  0  0  0  0  0
   36.0930   29.5600   39.3630 C   0  0  0  0  0  0  0  0  0  0  0  0
   37.2710   30.2220   39.1900 N   0  0  0  0  0  0  0  0  0  0  0  0
   37.8120   30.3800   37.9450 C   0  0  0  0  0  0  0  0  0  0  0  0
   37.1940   29.8870   36.8570 N   0  0  0  0  0  0  0  0  0  0  0  0
   35.5320   28.8300   36.1200 H   0  0  0  0  0  0  0  0  0  0  0  0
   34.5020   28.5060   38.3080 H   0  0  0  0  0  0  0  0  0  0  0  0
   38.7380   30.9000   37.8090 H   0  0  0  0  0  0  0  0  0  0  0  0
   35.4660   29.3600   40.6680 C   0  0  0  0  0  0  0  0  0  0  0  0
   35.4710   30.3390   41.1910 H   0  0  0  0  0  0  0  0  0  0  0  0
   34.4220   29.0270   40.6130 H   0  0  0  0  0  0  0  0  0  0  0  0
   36.2220   28.4140   41.5600 C   0  0  0  0  0  3  0  0  0  0  0  0
   36.8840   27.2750   40.8460 C   0  0  0  0  0  2  0  0  0  0  0  0
   37.2100   26.2440   41.9290 C   0  0  0  0  0  2  0  0  0  0  0  0
   38.2170   26.8800   42.8480 C   0  0  0  0  0  2  0  0  0  0  0  0
   37.6460   28.1210   43.4900 C   0  0  0  0  0  2  0  0  0  0  0  0
   37.2850   29.1170   42.3820 C   0  0  0  0  0  2  0  0  0  0  0  0
  1  2  1  0  0  0  0
  2  8  1  0  0  0  0
  2  3  2  0  0  0  0
  3 10  1  0  0  0  0
  4  3  1  0  0  0  0
  5  4  2  0  0  0  0
  6  1  2  0  0  0  0
  6  5  1  0  0  0  0
  7  1  1  0  0  0  0
  9  5  1  0  0  0  0
 10 11  1  0  0  0  0
 10 13  1  0  0  0  0
 12 10  1  0  0  0  0
 13 18  1  0  0  0  0
 14 13  1  0  0  0  0
 14 15  1  0  0  0  0
 15 16  1  0  0  0  0
 16 17  1  0  0  0  0
 18 17  1  0  0  0  0
M  END
>  <minimizedAffinity>
-3.95726037

$$$$

 OpenBabel03252509303D

 18 19  0  0  0  0  0  0  0  0999 V2000
   38.8470   30.4570   41.7730 C   0  0  0  0  0  0  0  0  0  0  0  0
   38.3950   29.2050   42.2570 C   0  0  0  0  0  0  0  0  0  0  0  0
   37.0700   28.8630   42.0020 C   0  0  0  0  0  0  0  0  0  0  0  0
   36.2730   29.7270   41.3120 N   0  0  0  0  0  0  0  0  0  0  0  0
   36.7560   30.9240   40.8650 C   0  0  0  0  0  0  0  0  0  0  0  0
   38.0320   31.2820   41.0960 N   0  0  0  0  0  0  0  0  0  0  0  0
   39.8700   30.7390   41.9600 H   0  0  0  0  0  0  0  0  0  0  0  0
   39.0830   28.5840   42.7900 H   0  0  0  0  0  0  0  0  0  0  0  0
   36.1310   31.6030   40.3240 H   0  0  0  0  0  0  0  0  0  0  0  0
   36.6100   27.5690   42.5030 C   0  0  0  0  0  0  0  0  0  0  0  0
   36.9550   27.4820   43.5550 H   0  0  0  0  0  0  0  0  0  0  0  0
   35.5190   27.4570   42.5100 H   0  0  0  0  0  0  0  0  0  0  0  0
   37.2070   26.3950   41.7760 C   0  0  0  0  0  3  0  0  0  0  0  0
   36.8460   25.0570   42.3470 C   0  0  0  0  0  2  0  0  0  0  0  0
   37.8590   24.0720   41.7590 C   0  0  0  0  0  2  0  0  0  0  0  0
   37.6220   24.0370   40.2740 C   0  0  0  0  0  2  0  0  0  0  0  0
   37.8360   25.4020   39.6660 C   0  0  0  0  0  2  0  0  0  0  0  0
   36.8410   26.3780   40.3050 C   0  0  0  0  0  2  0  0  0  0  0  0
  1  7  1  0  0  0  0
  1  2  1  0  0  0  0
  2  8  1  0  0  0  0
  3  2  2  0  0  0  0
  3 10  1  0  0  0  0
  4  3  1  0  0  0  0
  5  6  1  0  0  0  0
  5  4  2  0  0  0  0
  6  1  2  0  0  0  0
  9  5  1  0  0  0  0
 10 12  1  0  0  0  0
 10 11  1  0  0  0  0
 13 14  1  0  0  0  0
 13 10  1  0  0  0  0
 15 14  1  0  0  0  0
 16 15  1  0  0  0  0
 17 16  1  0  0  0  0
 17 18  1  0  0  0  0
 18 13  1  0  0  0  0
M  END
>  <minimizedAffinity>
-3.94686699

$$$$
