
 OpenBabel03242518553D

 39 41  0  0  1  0  0  0  0  0999 V2000
   45.7350   31.2060   46.5600 C   0  0  2  0  0  0  0  0  0  0  0  0
   45.8390   30.4160   47.8250 C   0  0  0  0  0  0  0  0  0  0  0  0
   45.0220   29.1870   47.6360 C   0  0  0  0  0  0  0  0  0  0  0  0
   44.2860   29.0930   46.3390 C   0  0  0  0  0  0  0  0  0  0  0  0
   45.2310   29.2640   45.1810 C   0  0  0  0  0  0  0  0  0  0  0  0
   46.1870   30.3390   45.4000 C   0  0  2  0  0  0  0  0  0  0  0  0
   44.6660   31.4060   46.3420 H   0  0  0  0  0  0  0  0  0  0  0  0
   46.8840   30.2330   48.1460 H   0  0  0  0  0  0  0  0  0  0  0  0
   45.4280   31.0750   48.6520 H   0  0  0  0  0  0  0  0  0  0  0  0
   44.2070   29.2180   48.4240 H   0  0  0  0  0  0  0  0  0  0  0  0
   45.5390   28.2280   47.8730 H   0  0  0  0  0  0  0  0  0  0  0  0
   43.4190   29.7920   46.2920 H   0  0  0  0  0  0  0  0  0  0  0  0
   43.8280   28.0800   46.3120 H   0  0  0  0  0  0  0  0  0  0  0  0
   44.5650   29.5260   44.3020 H   0  0  0  0  0  0  0  0  0  0  0  0
   45.6020   28.2550   44.9330 H   0  0  0  0  0  0  0  0  0  0  0  0
   46.2230   31.0170   44.5290 H   0  0  0  0  0  0  0  0  0  0  0  0
   47.4860   29.6920   45.7160 C   0  0  0  0  0  0  0  0  0  0  0  0
   47.4250   28.6040   45.5210 H   0  0  0  0  0  0  0  0  0  0  0  0
   47.6810   29.8860   46.8110 H   0  0  0  0  0  0  0  0  0  0  0  0
   48.6950   30.1740   44.9890 C   0  0  0  0  0  3  0  0  0  0  0  0
   49.7220   29.0970   44.7510 C   0  0  0  0  0  2  0  0  0  0  0  0
   49.9970   28.8930   43.2720 C   0  0  0  0  0  2  0  0  0  0  0  0
   50.4260   30.2240   42.6960 C   0  0  0  0  0  2  0  0  0  0  0  0
   49.2240   31.1180   42.7220 C   0  0  0  0  0  2  0  0  0  0  0  0
   48.1490   30.7010   43.6530 C   0  0  0  0  0  2  0  0  0  0  0  0
   46.4470   32.5090   46.6080 C   0  0  0  0  0  0  0  0  0  0  0  0
   47.3980   32.7490   47.3880 O   0  0  0  0  0  0  0  0  0  0  0  0
   44.6090   35.3400   45.2060 C   0  0  0  0  0  0  0  0  0  0  0  0
   45.1150   35.4750   43.8900 C   0  0  0  0  0  0  0  0  0  0  0  0
   46.0970   34.5750   43.5190 C   0  0  0  0  0  0  0  0  0  0  0  0
   46.4460   33.6880   44.4520 N   0  0  0  0  0  0  0  0  0  0  0  0
   45.9830   33.5540   45.6750 C   0  0  0  0  0  0  0  0  0  0  0  0
   45.0290   34.4160   46.0600 N   0  0  0  0  0  0  0  0  0  0  0  0
   43.8250   36.0440   45.5340 H   0  0  0  0  0  0  0  0  0  0  0  0
   44.7390   36.2480   43.2310 H   0  0  0  0  0  0  0  0  0  0  0  0
   46.6190   34.6970   42.1670 C   0  0  0  0  0  0  0  0  0  0  0  0
   47.2850   33.5270   41.8130 F   0  0  0  0  0  0  0  0  0  0  0  0
   47.5090   35.7210   42.1750 F   0  0  0  0  0  0  0  0  0  0  0  0
   45.6110   34.8470   41.2210 F   0  0  0  0  0  0  0  0  0  0  0  0
  1  7  1  6  0  0  0
  1 26  1  0  0  0  0
  1  2  1  0  0  0  0
  2  8  1  0  0  0  0
  2  9  1  0  0  0  0
  3  2  1  0  0  0  0
  3 11  1  0  0  0  0
  3 10  1  0  0  0  0
  4  3  1  0  0  0  0
  5  6  1  0  0  0  0
  5  4  1  0  0  0  0
  6 16  1  6  0  0  0
  6 17  1  0  0  0  0
  6  1  1  0  0  0  0
 12  4  1  0  0  0  0
 13  4  1  0  0  0  0
 14  5  1  0  0  0  0
 15  5  1  0  0  0  0
 17 19  1  0  0  0  0
 18 17  1  0  0  0  0
 20 17  1  0  0  0  0
 21 20  1  0  0  0  0
 22 21  1  0  0  0  0
 23 24  1  0  0  0  0
 23 22  1  0  0  0  0
 24 25  1  0  0  0  0
 25 20  1  0  0  0  0
 26 27  2  0  0  0  0
 28 34  1  0  0  0  0
 28 33  1  0  0  0  0
 29 28  2  0  0  0  0
 30 29  1  0  0  0  0
 30 31  2  0  0  0  0
 31 32  1  0  0  0  0
 32 33  2  0  0  0  0
 32 26  1  0  0  0  0
 35 29  1  0  0  0  0
 36 38  1  0  0  0  0
 36 30  1  0  0  0  0
 37 36  1  0  0  0  0
 39 36  1  0  0  0  0
M  END
>  <minimizedAffinity>
-5.24912834

>  <minimizedRMSD>
1.72045779

$$$$
