
 OpenBabel03242515003D

 34 36  0  0  0  0  0  0  0  0999 V2000
   42.2920   34.7600   41.4890 C   0  0  0  0  0  0  0  0  0  0  0  0
   42.3840   34.9250   42.5870 H   0  0  0  0  0  0  0  0  0  0  0  0
   41.7680   33.7660   41.3780 H   0  0  0  0  0  0  0  0  0  0  0  0
   41.4350   35.7910   40.8310 C   0  0  0  0  0  0  0  0  0  0  0  0
   40.7950   36.2390   41.6300 H   0  0  0  0  0  0  0  0  0  0  0  0
   42.0000   36.6190   40.3740 H   0  0  0  0  0  0  0  0  0  0  0  0
   42.1040   36.0700   37.8750 Cl  0  0  0  0  0  0  0  0  0  0  0  0
   40.7160   35.2310   38.4800 C   0  0  0  0  0  0  0  0  0  0  0  0
   40.4960   35.1590   39.8730 C   0  0  0  0  0  0  0  0  0  0  0  0
   39.3770   34.4780   40.2640 C   0  0  0  0  0  0  0  0  0  0  0  0
   38.4440   33.8570   39.4500 C   0  0  0  0  0  0  0  0  0  0  0  0
   38.6780   33.9390   38.0870 C   0  0  0  0  0  0  0  0  0  0  0  0
   37.5550   33.1840   36.9600 Cl  0  0  0  0  0  0  0  0  0  0  0  0
   39.7920   34.6130   37.6270 C   0  0  0  0  0  0  0  0  0  0  0  0
   39.1810   34.4070   41.3390 H   0  0  0  0  0  0  0  0  0  0  0  0
   37.5900   33.3420   39.8600 H   0  0  0  0  0  0  0  0  0  0  0  0
   39.9670   34.6720   36.5550 H   0  0  0  0  0  0  0  0  0  0  0  0
   43.9240   34.6000   40.7410 S   0  0  0  0  0  0  0  0  0  0  0  0
   45.2170   34.3310   41.9610 C   0  0  0  0  0  0  0  0  0  0  0  0
   46.5070   34.7370   41.6030 C   0  0  0  0  0  0  0  0  0  0  0  0
   47.5440   34.5490   42.5190 C   0  0  0  0  0  0  0  0  0  0  0  0
   47.2380   33.9770   43.7120 N   0  0  0  0  0  0  0  0  0  0  0  0
   45.9930   33.5920   44.0410 C   0  0  0  0  0  0  0  0  0  0  0  0
   45.0060   33.7760   43.1570 N   0  0  0  0  0  0  0  0  0  0  0  0
   46.6810   35.1870   40.6360 H   0  0  0  0  0  0  0  0  0  0  0  0
   48.5430   34.8560   42.2600 H   0  0  0  0  0  0  0  0  0  0  0  0
   45.7730   32.9910   45.3410 C   0  0  0  0  0  0  0  0  0  0  0  0
   45.4190   33.7570   46.2730 O   0  0  0  0  0  0  0  0  0  0  0  0
   45.9490   31.5180   45.5990 C   0  0  0  0  0  3  0  0  0  0  0  0
   45.5510   30.7800   44.3390 C   0  0  0  0  0  2  0  0  0  0  0  0
   45.8940   29.3280   44.4010 C   0  0  0  0  0  2  0  0  0  0  0  0
   47.3630   29.1390   44.5870 C   0  0  0  0  0  2  0  0  0  0  0  0
   48.0220   30.4820   44.8210 C   0  0  0  0  0  2  0  0  0  0  0  0
   47.3440   31.1710   46.0100 C   0  0  0  0  0  2  0  0  0  0  0  0
  1  2  1  0  0  0  0
  3  1  1  0  0  0  0
  4  1  1  0  0  0  0
  4  5  1  0  0  0  0
  6  4  1  0  0  0  0
  7  8  1  0  0  0  0
  8  9  1  0  0  0  0
  9 10  2  0  0  0  0
  9  4  1  0  0  0  0
 10 15  1  0  0  0  0
 11 16  1  0  0  0  0
 11 10  1  0  0  0  0
 12 11  2  0  0  0  0
 13 12  1  0  0  0  0
 14 12  1  0  0  0  0
 14  8  2  0  0  0  0
 17 14  1  0  0  0  0
 18  1  1  0  0  0  0
 18 19  1  0  0  0  0
 19 24  1  0  0  0  0
 20 19  2  0  0  0  0
 20 21  1  0  0  0  0
 21 22  2  0  0  0  0
 22 23  1  0  0  0  0
 23 27  1  0  0  0  0
 24 23  2  0  0  0  0
 25 20  1  0  0  0  0
 26 21  1  0  0  0  0
 27 29  1  0  0  0  0
 27 28  2  0  0  0  0
 29 34  1  0  0  0  0
 30 31  1  0  0  0  0
 30 29  1  0  0  0  0
 31 32  1  0  0  0  0
 32 33  1  0  0  0  0
 33 34  1  0  0  0  0
M  END
>  <minimizedAffinity>
-5.84543037

>  <minimizedRMSD>
1.25512493

$$$$
