
 OpenBabel03252502373D

 21 22  0  0  1  0  0  0  0  0999 V2000
   37.8920   27.6950   43.3540 C   0  0  2  0  0  0  0  0  0  0  0  0
   38.4860   27.7370   44.2960 H   0  0  0  0  0  0  0  0  0  0  0  0
   37.0700   29.4620   41.8590 C   0  0  0  0  0  0  0  0  0  0  0  0
   38.1370   28.9410   42.6340 C   0  0  0  0  0  0  0  0  0  0  0  0
   39.3410   29.6490   42.6390 C   0  0  0  0  0  0  0  0  0  0  0  0
   39.4070   30.7860   41.9050 N   0  0  0  0  0  0  0  0  0  0  0  0
   38.3790   31.2460   41.1880 C   0  0  0  0  0  0  0  0  0  0  0  0
   37.2040   30.6030   41.1490 N   0  0  0  0  0  0  0  0  0  0  0  0
   36.1130   28.9600   41.8130 H   0  0  0  0  0  0  0  0  0  0  0  0
   40.1730   29.2740   43.2140 H   0  0  0  0  0  0  0  0  0  0  0  0
   38.4150   32.1580   40.5910 H   0  0  0  0  0  0  0  0  0  0  0  0
   38.3670   26.4460   42.6410 C   0  0  0  0  0  3  0  0  0  0  0  0
   39.5270   25.8060   43.3450 C   0  0  0  0  0  2  0  0  0  0  0  0
   39.6780   24.3400   43.0330 C   0  0  0  0  0  2  0  0  0  0  0  0
   39.1380   24.0320   41.6480 C   0  0  0  0  0  2  0  0  0  0  0  0
   37.6570   24.1990   41.7440 C   0  0  0  0  0  2  0  0  0  0  0  0
   37.2570   25.5050   42.3030 C   0  0  0  0  0  2  0  0  0  0  0  0
   36.4050   27.6610   43.6780 C   0  0  0  0  0  0  0  0  0  0  0  0
   35.9390   28.6680   43.6360 H   0  0  0  0  0  0  0  0  0  0  0  0
   35.8690   26.9120   43.0730 H   0  0  0  0  0  0  0  0  0  0  0  0
   36.3150   27.3110   44.7270 H   0  0  0  0  0  0  0  0  0  0  0  0
  1 18  1  0  0  0  0
  1  2  1  1  0  0  0
  3  4  1  0  0  0  0
  4  5  2  0  0  0  0
  4  1  1  0  0  0  0
  5 10  1  0  0  0  0
  6  5  1  0  0  0  0
  7  6  2  0  0  0  0
  8  7  1  0  0  0  0
  8  3  2  0  0  0  0
  9  3  1  0  0  0  0
 11  7  1  0  0  0  0
 12 13  1  0  0  0  0
 12  1  1  0  0  0  0
 14 13  1  0  0  0  0
 15 16  1  0  0  0  0
 15 14  1  0  0  0  0
 16 17  1  0  0  0  0
 17 12  1  0  0  0  0
 18 21  1  0  0  0  0
 19 18  1  0  0  0  0
 20 18  1  0  0  0  0
M  END
>  <minimizedAffinity>
-4.68681622

$$$$

 OpenBabel03252502373D

 21 22  0  0  1  0  0  0  0  0999 V2000
   37.8070   26.9310   43.0360 C   0  0  2  0  0  0  0  0  0  0  0  0
   38.2670   26.2540   43.7930 H   0  0  0  0  0  0  0  0  0  0  0  0
   40.0790   27.7850   42.6580 C   0  0  0  0  0  0  0  0  0  0  0  0
   38.7060   28.0690   42.8720 C   0  0  0  0  0  0  0  0  0  0  0  0
   38.3220   29.4110   42.9210 C   0  0  0  0  0  0  0  0  0  0  0  0
   39.2850   30.3500   42.7600 N   0  0  0  0  0  0  0  0  0  0  0  0
   40.5690   30.0420   42.5610 C   0  0  0  0  0  0  0  0  0  0  0  0
   40.9900   28.7710   42.5060 N   0  0  0  0  0  0  0  0  0  0  0  0
   40.4400   26.7660   42.6100 H   0  0  0  0  0  0  0  0  0  0  0  0
   37.2850   29.6600   43.0880 H   0  0  0  0  0  0  0  0  0  0  0  0
   41.3590   30.7850   42.4300 H   0  0  0  0  0  0  0  0  0  0  0  0
   37.6300   26.0780   41.7970 C   0  0  0  0  0  3  0  0  0  0  0  0
   37.0940   24.7160   42.1270 C   0  0  0  0  0  2  0  0  0  0  0  0
   36.3970   24.0540   40.9670 C   0  0  0  0  0  2  0  0  0  0  0  0
   36.9780   24.5370   39.6510 C   0  0  0  0  0  2  0  0  0  0  0  0
   36.5540   25.9640   39.5200 C   0  0  0  0  0  2  0  0  0  0  0  0
   36.8980   26.7800   40.7010 C   0  0  0  0  0  2  0  0  0  0  0  0
   36.4920   27.4850   43.5650 C   0  0  0  0  0  0  0  0  0  0  0  0
   36.6090   28.4870   44.0280 H   0  0  0  0  0  0  0  0  0  0  0  0
   35.6960   27.4510   42.8040 H   0  0  0  0  0  0  0  0  0  0  0  0
   36.1570   26.7990   44.3710 H   0  0  0  0  0  0  0  0  0  0  0  0
  1 18  1  0  0  0  0
  1  2  1  1  0  0  0
  3  4  1  0  0  0  0
  4  5  2  0  0  0  0
  4  1  1  0  0  0  0
  5 10  1  0  0  0  0
  6  5  1  0  0  0  0
  7  6  2  0  0  0  0
  8  7  1  0  0  0  0
  8  3  2  0  0  0  0
  9  3  1  0  0  0  0
 11  7  1  0  0  0  0
 12 13  1  0  0  0  0
 12  1  1  0  0  0  0
 14 13  1  0  0  0  0
 15 14  1  0  0  0  0
 16 15  1  0  0  0  0
 16 17  1  0  0  0  0
 17 12  1  0  0  0  0
 18 19  1  0  0  0  0
 18 21  1  0  0  0  0
 20 18  1  0  0  0  0
M  END
>  <minimizedAffinity>
-4.46271324

$$$$

 OpenBabel03252502373D

 21 22  0  0  1  0  0  0  0  0999 V2000
   36.7650   27.6190   42.3810 C   0  0  2  0  0  0  0  0  0  0  0  0
   35.6890   27.3520   42.4970 H   0  0  0  0  0  0  0  0  0  0  0  0
   38.8820   26.4810   41.8780 C   0  0  0  0  0  0  0  0  0  0  0  0
   37.4950   26.3770   42.1530 C   0  0  0  0  0  0  0  0  0  0  0  0
   36.9320   25.0980   42.1720 C   0  0  0  0  0  0  0  0  0  0  0  0
   37.7500   24.0450   41.9290 N   0  0  0  0  0  0  0  0  0  0  0  0
   39.0530   24.1840   41.6730 C   0  0  0  0  0  0  0  0  0  0  0  0
   39.6410   25.3880   41.6420 N   0  0  0  0  0  0  0  0  0  0  0  0
   39.3770   27.4420   41.8480 H   0  0  0  0  0  0  0  0  0  0  0  0
   35.8780   24.9860   42.3730 H   0  0  0  0  0  0  0  0  0  0  0  0
   39.7260   23.3490   41.4740 H   0  0  0  0  0  0  0  0  0  0  0  0
   36.8060   28.6010   41.2290 C   0  0  0  0  0  3  0  0  0  0  0  0
   35.8660   28.2110   40.1270 C   0  0  0  0  0  2  0  0  0  0  0  0
   35.4580   29.3700   39.2550 C   0  0  0  0  0  2  0  0  0  0  0  0
   36.5500   30.4240   39.2240 C   0  0  0  0  0  2  0  0  0  0  0  0
   36.5670   31.0280   40.5910 C   0  0  0  0  0  2  0  0  0  0  0  0
   36.6870   30.0240   41.6660 C   0  0  0  0  0  2  0  0  0  0  0  0
   37.2970   28.2090   43.6800 C   0  0  0  0  0  0  0  0  0  0  0  0
   37.8080   27.4520   44.3110 H   0  0  0  0  0  0  0  0  0  0  0  0
   37.9100   29.1070   43.5020 H   0  0  0  0  0  0  0  0  0  0  0  0
   36.4170   28.5620   44.2550 H   0  0  0  0  0  0  0  0  0  0  0  0
  1  2  1  1  0  0  0
  1 18  1  0  0  0  0
  3  4  1  0  0  0  0
  4  5  2  0  0  0  0
  4  1  1  0  0  0  0
  5 10  1  0  0  0  0
  6  5  1  0  0  0  0
  7  6  2  0  0  0  0
  8  7  1  0  0  0  0
  8  3  2  0  0  0  0
  9  3  1  0  0  0  0
 11  7  1  0  0  0  0
 12 17  1  0  0  0  0
 12  1  1  0  0  0  0
 13 12  1  0  0  0  0
 14 13  1  0  0  0  0
 15 14  1  0  0  0  0
 15 16  1  0  0  0  0
 16 17  1  0  0  0  0
 18 21  1  0  0  0  0
 18 19  1  0  0  0  0
 20 18  1  0  0  0  0
M  END
>  <minimizedAffinity>
-4.46134901

$$$$

 OpenBabel03252502373D

 21 22  0  0  1  0  0  0  0  0999 V2000
   35.9730   29.9710   40.7940 C   0  0  2  0  0  0  0  0  0  0  0  0
   35.0020   30.1270   41.3180 H   0  0  0  0  0  0  0  0  0  0  0  0
   38.0150   29.8190   42.1510 C   0  0  0  0  0  0  0  0  0  0  0  0
   36.8270   29.1970   41.6900 C   0  0  0  0  0  0  0  0  0  0  0  0
   36.5710   27.8910   42.1160 C   0  0  0  0  0  0  0  0  0  0  0  0
   37.4730   27.3090   42.9420 N   0  0  0  0  0  0  0  0  0  0  0  0
   38.5820   27.9280   43.3550 C   0  0  0  0  0  0  0  0  0  0  0  0
   38.8740   29.1790   42.9750 N   0  0  0  0  0  0  0  0  0  0  0  0
   38.2710   30.8280   41.8570 H   0  0  0  0  0  0  0  0  0  0  0  0
   35.6780   27.3890   41.7780 H   0  0  0  0  0  0  0  0  0  0  0  0
   39.3200   27.4740   44.0190 H   0  0  0  0  0  0  0  0  0  0  0  0
   35.6170   29.2740   39.4980 C   0  0  0  0  0  3  0  0  0  0  0  0
   34.1380   29.0570   39.3670 C   0  0  0  0  0  2  0  0  0  0  0  0
   33.6850   28.8950   37.9390 C   0  0  0  0  0  2  0  0  0  0  0  0
   34.7960   28.3030   37.0920 C   0  0  0  0  0  2  0  0  0  0  0  0
   35.8380   29.3690   36.9880 C   0  0  0  0  0  2  0  0  0  0  0  0
   36.2570   29.8970   38.3010 C   0  0  0  0  0  2  0  0  0  0  0  0
   36.6660   31.3080   40.5750 C   0  0  0  0  0  0  0  0  0  0  0  0
   37.4110   31.5350   41.3660 H   0  0  0  0  0  0  0  0  0  0  0  0
   37.0780   31.3960   39.5570 H   0  0  0  0  0  0  0  0  0  0  0  0
   35.8820   32.0900   40.6430 H   0  0  0  0  0  0  0  0  0  0  0  0
  1  2  1  1  0  0  0
  1  4  1  0  0  0  0
  3  8  1  0  0  0  0
  4  5  1  0  0  0  0
  4  3  2  0  0  0  0
  5  6  2  0  0  0  0
  6  7  1  0  0  0  0
  7 11  1  0  0  0  0
  8  7  2  0  0  0  0
  9  3  1  0  0  0  0
 10  5  1  0  0  0  0
 12  1  1  0  0  0  0
 13 12  1  0  0  0  0
 14 13  1  0  0  0  0
 15 14  1  0  0  0  0
 16 15  1  0  0  0  0
 16 17  1  0  0  0  0
 17 12  1  0  0  0  0
 18 21  1  0  0  0  0
 18  1  1  0  0  0  0
 18 19  1  0  0  0  0
 20 18  1  0  0  0  0
M  END
>  <minimizedAffinity>
-4.40485477

$$$$

 OpenBabel03252502373D

 21 22  0  0  1  0  0  0  0  0999 V2000
   36.2810   28.8620   41.3900 C   0  0  2  0  0  0  0  0  0  0  0  0
   35.8890   28.8540   42.4330 H   0  0  0  0  0  0  0  0  0  0  0  0
   36.6170   31.1600   40.5890 C   0  0  0  0  0  0  0  0  0  0  0  0
   37.1460   30.0310   41.2630 C   0  0  0  0  0  0  0  0  0  0  0  0
   38.4560   30.1160   41.7420 C   0  0  0  0  0  0  0  0  0  0  0  0
   39.1310   31.2720   41.5320 N   0  0  0  0  0  0  0  0  0  0  0  0
   38.5970   32.3160   40.8910 C   0  0  0  0  0  0  0  0  0  0  0  0
   37.3450   32.2840   40.4120 N   0  0  0  0  0  0  0  0  0  0  0  0
   35.6100   31.1570   40.1940 H   0  0  0  0  0  0  0  0  0  0  0  0
   38.8890   29.2710   42.2540 H   0  0  0  0  0  0  0  0  0  0  0  0
   39.1250   33.2540   40.7120 H   0  0  0  0  0  0  0  0  0  0  0  0
   36.9820   27.5310   41.2200 C   0  0  0  0  0  3  0  0  0  0  0  0
   36.9240   26.7040   42.4700 C   0  0  0  0  0  2  0  0  0  0  0  0
   37.0920   25.2280   42.2160 C   0  0  0  0  0  2  0  0  0  0  0  0
   37.9370   24.9940   40.9770 C   0  0  0  0  0  2  0  0  0  0  0  0
   37.0960   25.4350   39.8230 C   0  0  0  0  0  2  0  0  0  0  0  0
   36.5710   26.8050   39.9810 C   0  0  0  0  0  2  0  0  0  0  0  0
   35.1350   29.0570   40.4060 C   0  0  0  0  0  0  0  0  0  0  0  0
   35.0110   30.1180   40.1050 H   0  0  0  0  0  0  0  0  0  0  0  0
   35.2100   28.3710   39.5470 H   0  0  0  0  0  0  0  0  0  0  0  0
   34.2060   28.7650   40.9360 H   0  0  0  0  0  0  0  0  0  0  0  0
  1  2  1  1  0  0  0
  3  4  1  0  0  0  0
  4  1  1  0  0  0  0
  4  5  2  0  0  0  0
  5 10  1  0  0  0  0
  6  5  1  0  0  0  0
  7  6  2  0  0  0  0
  8  3  2  0  0  0  0
  8  7  1  0  0  0  0
  9  3  1  0  0  0  0
 11  7  1  0  0  0  0
 12  1  1  0  0  0  0
 12 13  1  0  0  0  0
 14 13  1  0  0  0  0
 15 14  1  0  0  0  0
 16 17  1  0  0  0  0
 16 15  1  0  0  0  0
 17 12  1  0  0  0  0
 18 21  1  0  0  0  0
 18  1  1  0  0  0  0
 19 18  1  0  0  0  0
 20 18  1  0  0  0  0
M  END
>  <minimizedAffinity>
-4.40249395

$$$$

 OpenBabel03252502373D

 21 22  0  0  1  0  0  0  0  0999 V2000
   39.2390   30.1470   41.4730 C   0  0  2  0  0  0  0  0  0  0  0  0
   40.0120   29.7410   40.7790 H   0  0  0  0  0  0  0  0  0  0  0  0
   39.0110   32.5500   41.0200 C   0  0  0  0  0  0  0  0  0  0  0  0
   38.5570   31.2300   40.7720 C   0  0  0  0  0  0  0  0  0  0  0  0
   37.4860   31.0680   39.8890 C   0  0  0  0  0  0  0  0  0  0  0  0
   36.9560   32.1810   39.3280 N   0  0  0  0  0  0  0  0  0  0  0  0
   37.4120   33.4090   39.5870 C   0  0  0  0  0  0  0  0  0  0  0  0
   38.4350   33.6190   40.4270 N   0  0  0  0  0  0  0  0  0  0  0  0
   39.8340   32.7430   41.6940 H   0  0  0  0  0  0  0  0  0  0  0  0
   37.1140   30.0760   39.6840 H   0  0  0  0  0  0  0  0  0  0  0  0
   36.9970   34.3170   39.1460 H   0  0  0  0  0  0  0  0  0  0  0  0
   38.3600   28.9650   41.8220 C   0  0  0  0  0  3  0  0  0  0  0  0
   39.0190   27.6590   41.4860 C   0  0  0  0  0  2  0  0  0  0  0  0
   38.4780   26.4980   42.2810 C   0  0  0  0  0  2  0  0  0  0  0  0
   37.0310   26.7450   42.6660 C   0  0  0  0  0  2  0  0  0  0  0  0
   37.0630   27.8480   43.6740 C   0  0  0  0  0  2  0  0  0  0  0  0
   37.8040   29.0360   43.2070 C   0  0  0  0  0  2  0  0  0  0  0  0
   39.9080   30.7670   42.6910 C   0  0  0  0  0  0  0  0  0  0  0  0
   40.0400   31.8650   42.5910 H   0  0  0  0  0  0  0  0  0  0  0  0
   39.4060   30.4770   43.6280 H   0  0  0  0  0  0  0  0  0  0  0  0
   40.9260   30.3290   42.7550 H   0  0  0  0  0  0  0  0  0  0  0  0
  1  2  1  6  0  0  0
  1 12  1  0  0  0  0
  1 18  1  0  0  0  0
  3  9  1  0  0  0  0
  4  3  1  0  0  0  0
  4  1  1  0  0  0  0
  5  4  2  0  0  0  0
  6  7  2  0  0  0  0
  6  5  1  0  0  0  0
  7  8  1  0  0  0  0
  8  3  2  0  0  0  0
 10  5  1  0  0  0  0
 11  7  1  0  0  0  0
 12 17  1  0  0  0  0
 13 12  1  0  0  0  0
 13 14  1  0  0  0  0
 14 15  1  0  0  0  0
 15 16  1  0  0  0  0
 17 16  1  0  0  0  0
 18 21  1  0  0  0  0
 18 20  1  0  0  0  0
 19 18  1  0  0  0  0
M  END
>  <minimizedAffinity>
-4.39686489

$$$$

 OpenBabel03252502373D

 21 22  0  0  1  0  0  0  0  0999 V2000
   37.1320   27.7290   42.5470 C   0  0  2  0  0  0  0  0  0  0  0  0
   36.1520   27.4290   42.9850 H   0  0  0  0  0  0  0  0  0  0  0  0
   37.7510   25.3780   42.1980 C   0  0  0  0  0  0  0  0  0  0  0  0
   38.0640   26.6310   42.7830 C   0  0  0  0  0  0  0  0  0  0  0  0
   39.2290   26.7160   43.5500 C   0  0  0  0  0  0  0  0  0  0  0  0
   39.9810   25.5970   43.6800 N   0  0  0  0  0  0  0  0  0  0  0  0
   39.6530   24.4330   43.1120 C   0  0  0  0  0  0  0  0  0  0  0  0
   38.5460   24.2990   42.3690 N   0  0  0  0  0  0  0  0  0  0  0  0
   36.8630   25.2470   41.5940 H   0  0  0  0  0  0  0  0  0  0  0  0
   39.4910   27.6540   44.0130 H   0  0  0  0  0  0  0  0  0  0  0  0
   40.2460   23.5220   43.2070 H   0  0  0  0  0  0  0  0  0  0  0  0
   36.8430   28.0140   41.0880 C   0  0  0  0  0  3  0  0  0  0  0  0
   35.5670   28.7820   40.9090 C   0  0  0  0  0  2  0  0  0  0  0  0
   35.5110   29.5490   39.6130 C   0  0  0  0  0  2  0  0  0  0  0  0
   36.3440   28.8580   38.5490 C   0  0  0  0  0  2  0  0  0  0  0  0
   37.7670   29.0300   38.9740 C   0  0  0  0  0  2  0  0  0  0  0  0
   38.0150   28.5860   40.3590 C   0  0  0  0  0  2  0  0  0  0  0  0
   37.6840   28.9390   43.2880 C   0  0  0  0  0  0  0  0  0  0  0  0
   38.4050   28.6570   44.0830 H   0  0  0  0  0  0  0  0  0  0  0  0
   38.0810   29.6990   42.5950 H   0  0  0  0  0  0  0  0  0  0  0  0
   36.8240   29.4230   43.7950 H   0  0  0  0  0  0  0  0  0  0  0  0
  1  4  1  0  0  0  0
  1  2  1  1  0  0  0
  1 18  1  0  0  0  0
  3  8  2  0  0  0  0
  3  4  1  0  0  0  0
  4  5  2  0  0  0  0
  5  6  1  0  0  0  0
  5 10  1  0  0  0  0
  7 11  1  0  0  0  0
  7  6  2  0  0  0  0
  8  7  1  0  0  0  0
  9  3  1  0  0  0  0
 12  1  1  0  0  0  0
 13 12  1  0  0  0  0
 14 13  1  0  0  0  0
 15 16  1  0  0  0  0
 15 14  1  0  0  0  0
 16 17  1  0  0  0  0
 17 12  1  0  0  0  0
 18 21  1  0  0  0  0
 18 19  1  0  0  0  0
 20 18  1  0  0  0  0
M  END
>  <minimizedAffinity>
-4.30225277

$$$$

 OpenBabel03252502373D

 21 22  0  0  1  0  0  0  0  0999 V2000
   35.4180   29.4470   40.3310 C   0  0  2  0  0  0  0  0  0  0  0  0
   34.6850   29.9410   41.0110 H   0  0  0  0  0  0  0  0  0  0  0  0
   36.9440   30.3200   38.6170 C   0  0  0  0  0  0  0  0  0  0  0  0
   36.3650   30.4710   39.9020 C   0  0  0  0  0  0  0  0  0  0  0  0
   36.7530   31.5770   40.6630 C   0  0  0  0  0  0  0  0  0  0  0  0
   37.6540   32.4310   40.1210 N   0  0  0  0  0  0  0  0  0  0  0  0
   38.1780   32.2550   38.9050 C   0  0  0  0  0  0  0  0  0  0  0  0
   37.8400   31.2110   38.1360 N   0  0  0  0  0  0  0  0  0  0  0  0
   36.6870   29.4860   37.9800 H   0  0  0  0  0  0  0  0  0  0  0  0
   36.3340   31.7160   41.6470 H   0  0  0  0  0  0  0  0  0  0  0  0
   38.9060   32.9310   38.4530 H   0  0  0  0  0  0  0  0  0  0  0  0
   36.0230   28.3260   41.1490 C   0  0  0  0  0  3  0  0  0  0  0  0
   36.5510   27.2220   40.2810 C   0  0  0  0  0  2  0  0  0  0  0  0
   37.6120   26.3910   40.9550 C   0  0  0  0  0  2  0  0  0  0  0  0
   37.4060   26.3820   42.4590 C   0  0  0  0  0  2  0  0  0  0  0  0
   37.7290   27.7660   42.9200 C   0  0  0  0  0  2  0  0  0  0  0  0
   36.9840   28.8080   42.1860 C   0  0  0  0  0  2  0  0  0  0  0  0
   34.7110   28.9510   39.0780 C   0  0  0  0  0  0  0  0  0  0  0  0
   34.7880   29.6690   38.2350 H   0  0  0  0  0  0  0  0  0  0  0  0
   35.0270   27.9310   38.8050 H   0  0  0  0  0  0  0  0  0  0  0  0
   33.6340   28.8680   39.3290 H   0  0  0  0  0  0  0  0  0  0  0  0
  1  2  1  1  0  0  0
  1 12  1  0  0  0  0
  3  4  1  0  0  0  0
  4  1  1  0  0  0  0
  4  5  2  0  0  0  0
  5 10  1  0  0  0  0
  6  5  1  0  0  0  0
  7  6  2  0  0  0  0
  8  3  2  0  0  0  0
  8  7  1  0  0  0  0
  9  3  1  0  0  0  0
 11  7  1  0  0  0  0
 12 17  1  0  0  0  0
 13 14  1  0  0  0  0
 13 12  1  0  0  0  0
 14 15  1  0  0  0  0
 15 16  1  0  0  0  0
 17 16  1  0  0  0  0
 18 21  1  0  0  0  0
 18  1  1  0  0  0  0
 19 18  1  0  0  0  0
 20 18  1  0  0  0  0
M  END
>  <minimizedAffinity>
-4.30036879

$$$$

 OpenBabel03252502373D

 21 22  0  0  1  0  0  0  0  0999 V2000
   37.8600   27.7790   42.3790 C   0  0  2  0  0  0  0  0  0  0  0  0
   38.9500   27.8580   42.5990 H   0  0  0  0  0  0  0  0  0  0  0  0
   36.1810   29.0420   41.1080 C   0  0  0  0  0  0  0  0  0  0  0  0
   37.4620   29.0160   41.7140 C   0  0  0  0  0  0  0  0  0  0  0  0
   38.2490   30.1660   41.6180 C   0  0  0  0  0  0  0  0  0  0  0  0
   37.7350   31.2290   40.9550 N   0  0  0  0  0  0  0  0  0  0  0  0
   36.5210   31.2160   40.3970 C   0  0  0  0  0  0  0  0  0  0  0  0
   35.7280   30.1380   40.4600 N   0  0  0  0  0  0  0  0  0  0  0  0
   35.5240   28.1840   41.1460 H   0  0  0  0  0  0  0  0  0  0  0  0
   39.2320   30.1740   42.0650 H   0  0  0  0  0  0  0  0  0  0  0  0
   36.0910   32.0620   39.8580 H   0  0  0  0  0  0  0  0  0  0  0  0
   37.7160   26.5300   41.5350 C   0  0  0  0  0  3  0  0  0  0  0  0
   39.0280   26.0930   40.9530 C   0  0  0  0  0  2  0  0  0  0  0  0
   39.0620   24.6300   40.5940 C   0  0  0  0  0  2  0  0  0  0  0  0
   37.6710   24.1350   40.2420 C   0  0  0  0  0  2  0  0  0  0  0  0
   36.9020   24.1430   41.5230 C   0  0  0  0  0  2  0  0  0  0  0  0
   36.9530   25.4430   42.2200 C   0  0  0  0  0  2  0  0  0  0  0  0
   37.0720   27.7080   43.6800 C   0  0  0  0  0  0  0  0  0  0  0  0
   36.6840   28.6980   43.9960 H   0  0  0  0  0  0  0  0  0  0  0  0
   36.2920   26.9300   43.6450 H   0  0  0  0  0  0  0  0  0  0  0  0
   37.7820   27.3770   44.4660 H   0  0  0  0  0  0  0  0  0  0  0  0
  1  2  1  1  0  0  0
  1 18  1  0  0  0  0
  3  9  1  0  0  0  0
  3  4  1  0  0  0  0
  4  1  1  0  0  0  0
  5  4  2  0  0  0  0
  5 10  1  0  0  0  0
  6  5  1  0  0  0  0
  7  8  1  0  0  0  0
  7  6  2  0  0  0  0
  8  3  2  0  0  0  0
 11  7  1  0  0  0  0
 12 17  1  0  0  0  0
 12  1  1  0  0  0  0
 13 12  1  0  0  0  0
 14 13  1  0  0  0  0
 15 14  1  0  0  0  0
 15 16  1  0  0  0  0
 16 17  1  0  0  0  0
 18 19  1  0  0  0  0
 18 21  1  0  0  0  0
 20 18  1  0  0  0  0
M  END
>  <minimizedAffinity>
-4.20066404

$$$$
