
 OpenBabel03242517263D

 32 34  0  0  1  0  0  0  0  0999 V2000
   45.0070   34.5540   44.8370 C   0  0  0  0  0  0  0  0  0  0  0  0
   45.9710   34.5630   43.7880 C   0  0  0  0  0  0  0  0  0  0  0  0
   47.1180   33.7580   43.9510 C   0  0  0  0  0  0  0  0  0  0  0  0
   47.2370   33.0310   45.0810 N   0  0  0  0  0  0  0  0  0  0  0  0
   46.3190   33.0310   46.0660 C   0  0  0  0  0  0  0  0  0  0  0  0
   45.2260   33.7960   45.9150 N   0  0  0  0  0  0  0  0  0  0  0  0
   46.5190   32.2530   47.2020 N   0  0  0  0  0  0  0  0  0  0  0  0
   47.6860   32.4450   48.0140 C   0  0  0  0  0  0  0  0  0  0  0  0
   47.9820   31.3010   48.9240 C   0  0  0  0  0  0  0  0  0  0  0  0
   46.8620   30.5900   49.4260 N   0  0  0  0  0  0  0  0  0  0  0  0
   45.6000   31.1580   49.0530 C   0  0  0  0  0  0  0  0  0  0  0  0
   45.5250   31.2330   47.5580 C   0  0  2  0  0  0  0  0  0  0  0  0
   44.1500   35.1780   44.6750 H   0  0  0  0  0  0  0  0  0  0  0  0
   45.8980   35.1360   42.8730 H   0  0  0  0  0  0  0  0  0  0  0  0
   47.8600   33.7440   43.1770 H   0  0  0  0  0  0  0  0  0  0  0  0
   47.4990   33.3340   48.6560 H   0  0  0  0  0  0  0  0  0  0  0  0
   48.5930   32.6900   47.4360 H   0  0  0  0  0  0  0  0  0  0  0  0
   48.6170   31.6870   49.7720 H   0  0  0  0  0  0  0  0  0  0  0  0
   48.6660   30.6040   48.3580 H   0  0  0  0  0  0  0  0  0  0  0  0
   46.9100   30.2500   50.3930 H   0  0  0  0  0  0  0  0  0  0  0  0
   44.7980   30.4870   49.4140 H   0  0  0  0  0  0  0  0  0  0  0  0
   45.4290   32.1720   49.4640 H   0  0  0  0  0  0  0  0  0  0  0  0
   44.5330   31.6340   47.2700 H   0  0  0  0  0  0  0  0  0  0  0  0
   45.8030   29.9220   46.8960 C   0  0  0  0  0  0  0  0  0  0  0  0
   46.7460   29.5280   47.3170 H   0  0  0  0  0  0  0  0  0  0  0  0
   45.8810   30.1070   45.8010 H   0  0  0  0  0  0  0  0  0  0  0  0
   44.6490   28.9640   47.1140 C   0  0  0  0  0  0  0  0  0  0  0  0
   45.2410   27.7260   47.7090 C   0  0  0  0  0  0  0  0  0  0  0  0
   44.2760   26.5860   47.8390 C   0  0  0  0  0  0  0  0  0  0  0  0
   43.1590   26.6340   46.8320 C   0  0  0  0  0  0  0  0  0  0  0  0
   43.5530   27.3080   45.5620 C   0  0  0  0  0  0  0  0  0  0  0  0
   43.9250   28.7440   45.8220 C   0  0  0  0  0  0  0  0  0  0  0  0
  1  6  1  0  0  0  0
  2  3  1  0  0  0  0
  2  1  2  0  0  0  0
  3  4  2  0  0  0  0
  4  5  1  0  0  0  0
  5  7  1  0  0  0  0
  6  5  2  0  0  0  0
  7 12  1  0  0  0  0
  7  8  1  0  0  0  0
  8 16  1  0  0  0  0
  8  9  1  0  0  0  0
  9 10  1  0  0  0  0
  9 18  1  0  0  0  0
 10 20  1  0  0  0  0
 11 21  1  0  0  0  0
 11 10  1  0  0  0  0
 11 22  1  0  0  0  0
 12 23  1  6  0  0  0
 12 11  1  0  0  0  0
 13  1  1  0  0  0  0
 14  2  1  0  0  0  0
 15  3  1  0  0  0  0
 17  8  1  0  0  0  0
 19  9  1  0  0  0  0
 24 27  1  0  0  0  0
 24 25  1  0  0  0  0
 24 12  1  0  0  0  0
 26 24  1  0  0  0  0
 27 28  1  0  0  0  0
 28 29  1  0  0  0  0
 30 29  1  0  0  0  0
 31 32  1  0  0  0  0
 31 30  1  0  0  0  0
 32 27  1  0  0  0  0
M  END
>  <minimizedAffinity>
-5.38205671

>  <minimizedRMSD>
1.65977752

$$$$
