
 OpenBabel03242520013D

 27 29  0  0  0  0  0  0  0  0999 V2000
   39.4740   30.0950   42.2830 Br  0  0  0  0  0  0  0  0  0  0  0  0
   37.8970   29.9290   41.2340 C   0  0  0  0  0  0  0  0  0  0  0  0
   37.5730   30.8240   40.2270 C   0  0  0  0  0  0  0  0  0  0  0  0
   36.4000   30.6110   39.5240 C   0  0  0  0  0  0  0  0  0  0  0  0
   35.5490   29.5610   39.7830 C   0  0  0  0  0  0  0  0  0  0  0  0
   35.8620   28.6640   40.7850 C   0  0  0  0  0  0  0  0  0  0  0  0
   37.0230   28.8910   41.4620 C   0  0  0  0  0  0  0  0  0  0  0  0
   36.2220   31.3440   38.7640 H   0  0  0  0  0  0  0  0  0  0  0  0
   34.6470   29.4720   39.1800 H   0  0  0  0  0  0  0  0  0  0  0  0
   35.1970   27.8360   40.9930 H   0  0  0  0  0  0  0  0  0  0  0  0
   40.4100   32.9110   38.8680 C   0  0  0  0  0  0  0  0  0  0  0  0
   39.5320   31.8340   39.0760 C   0  0  0  0  0  0  0  0  0  0  0  0
   38.5020   31.9150   39.9840 C   0  0  0  0  0  0  0  0  0  0  0  0
   38.4090   33.1120   40.6500 N   0  0  0  0  0  0  0  0  0  0  0  0
   39.2520   34.1310   40.4430 C   0  0  0  0  0  0  0  0  0  0  0  0
   40.2420   34.0480   39.5690 N   0  0  0  0  0  0  0  0  0  0  0  0
   41.2240   32.8260   38.1420 H   0  0  0  0  0  0  0  0  0  0  0  0
   39.6660   30.9190   38.5130 H   0  0  0  0  0  0  0  0  0  0  0  0
   39.0450   35.0060   41.0470 H   0  0  0  0  0  0  0  0  0  0  0  0
   37.3600   27.9130   42.4640 C   0  0  0  0  0  0  0  0  0  0  0  0
   37.0730   28.0430   43.6800 O   0  0  0  0  0  0  0  0  0  0  0  0
   38.0230   26.6020   42.6200 C   0  0  0  0  0  3  0  0  0  0  0  0
   38.6860   26.1720   41.3230 C   0  0  0  0  0  2  0  0  0  0  0  0
   39.0380   24.7130   41.5280 C   0  0  0  0  0  2  0  0  0  0  0  0
   39.5170   24.4360   42.9240 C   0  0  0  0  0  2  0  0  0  0  0  0
   40.0720   25.6760   43.5980 C   0  0  0  0  0  2  0  0  0  0  0  0
   39.0980   26.8020   43.6790 C   0  0  0  0  0  2  0  0  0  0  0  0
  2  7  1  0  0  0  0
  2  1  1  0  0  0  0
  3  2  2  0  0  0  0
  4  5  2  0  0  0  0
  4  3  1  0  0  0  0
  5  6  1  0  0  0  0
  6 10  1  0  0  0  0
  6  7  2  0  0  0  0
  7 20  1  0  0  0  0
  8  4  1  0  0  0  0
  9  5  1  0  0  0  0
 11 12  2  0  0  0  0
 11 16  1  0  0  0  0
 12 13  1  0  0  0  0
 13  3  1  0  0  0  0
 13 14  2  0  0  0  0
 15 14  1  0  0  0  0
 15 19  1  0  0  0  0
 16 15  2  0  0  0  0
 17 11  1  0  0  0  0
 18 12  1  0  0  0  0
 20 22  1  0  0  0  0
 20 21  2  0  0  0  0
 22 27  1  0  0  0  0
 23 24  1  0  0  0  0
 23 22  1  0  0  0  0
 24 25  1  0  0  0  0
 25 26  1  0  0  0  0
 26 27  1  0  0  0  0
M  END
>  <minimizedAffinity>
-5.90883112

$$$$

 OpenBabel03242520013D

 27 29  0  0  0  0  0  0  0  0999 V2000
   40.0580   29.9170   41.9720 Br  0  0  0  0  0  0  0  0  0  0  0  0
   38.2940   30.0220   41.2700 C   0  0  0  0  0  0  0  0  0  0  0  0
   37.8840   31.0500   40.4360 C   0  0  0  0  0  0  0  0  0  0  0  0
   36.5760   31.0320   39.9820 C   0  0  0  0  0  0  0  0  0  0  0  0
   35.6760   30.0480   40.3220 C   0  0  0  0  0  0  0  0  0  0  0  0
   36.0750   29.0200   41.1530 C   0  0  0  0  0  0  0  0  0  0  0  0
   37.3670   29.0570   41.5870 C   0  0  0  0  0  0  0  0  0  0  0  0
   36.3380   31.8580   39.3420 H   0  0  0  0  0  0  0  0  0  0  0  0
   34.6670   30.1150   39.9190 H   0  0  0  0  0  0  0  0  0  0  0  0
   35.3720   28.2440   41.4240 H   0  0  0  0  0  0  0  0  0  0  0  0
   40.0230   34.1590   40.4890 C   0  0  0  0  0  0  0  0  0  0  0  0
   39.0610   33.2000   40.8490 C   0  0  0  0  0  0  0  0  0  0  0  0
   38.8670   32.0650   40.0970 C   0  0  0  0  0  0  0  0  0  0  0  0
   39.6760   31.9550   38.9940 N   0  0  0  0  0  0  0  0  0  0  0  0
   40.5900   32.8760   38.6620 C   0  0  0  0  0  0  0  0  0  0  0  0
   40.7720   33.9660   39.3880 N   0  0  0  0  0  0  0  0  0  0  0  0
   40.1620   35.0570   41.1010 H   0  0  0  0  0  0  0  0  0  0  0  0
   38.4580   33.3550   41.7340 H   0  0  0  0  0  0  0  0  0  0  0  0
   41.1470   32.6420   37.7640 H   0  0  0  0  0  0  0  0  0  0  0  0
   37.7790   27.9470   42.4050 C   0  0  0  0  0  0  0  0  0  0  0  0
   37.5450   27.8720   43.6370 O   0  0  0  0  0  0  0  0  0  0  0  0
   38.4890   26.6530   42.3230 C   0  0  0  0  0  3  0  0  0  0  0  0
   39.1950   26.3380   43.6300 C   0  0  0  0  0  2  0  0  0  0  0  0
   40.1160   25.1790   43.3080 C   0  0  0  0  0  2  0  0  0  0  0  0
   39.4870   24.1990   42.3620 C   0  0  0  0  0  2  0  0  0  0  0  0
   37.9710   24.2580   42.3990 C   0  0  0  0  0  2  0  0  0  0  0  0
   37.4140   25.6030   42.0800 C   0  0  0  0  0  2  0  0  0  0  0  0
  2  7  1  0  0  0  0
  2  1  1  0  0  0  0
  3  2  2  0  0  0  0
  4  5  2  0  0  0  0
  4  3  1  0  0  0  0
  5  6  1  0  0  0  0
  6 10  1  0  0  0  0
  6  7  2  0  0  0  0
  7 20  1  0  0  0  0
  8  4  1  0  0  0  0
  9  5  1  0  0  0  0
 11 12  1  0  0  0  0
 11 17  1  0  0  0  0
 12 18  1  0  0  0  0
 13  3  1  0  0  0  0
 13 12  2  0  0  0  0
 14 13  1  0  0  0  0
 15 14  2  0  0  0  0
 15 16  1  0  0  0  0
 16 11  2  0  0  0  0
 19 15  1  0  0  0  0
 20 21  2  0  0  0  0
 22 20  1  0  0  0  0
 22 23  1  0  0  0  0
 24 23  1  0  0  0  0
 25 26  1  0  0  0  0
 25 24  1  0  0  0  0
 27 22  1  0  0  0  0
 27 26  1  0  0  0  0
M  END
>  <minimizedAffinity>
-5.72888708

$$$$

 OpenBabel03242520013D

 27 29  0  0  0  0  0  0  0  0999 V2000
   36.7590   27.3230   39.1730 Br  0  0  0  0  0  0  0  0  0  0  0  0
   37.2870   27.3860   40.9990 C   0  0  0  0  0  0  0  0  0  0  0  0
   37.8860   26.3120   41.6390 C   0  0  0  0  0  0  0  0  0  0  0  0
   38.2310   26.4630   42.9710 C   0  0  0  0  0  0  0  0  0  0  0  0
   38.0030   27.6220   43.6800 C   0  0  0  0  0  0  0  0  0  0  0  0
   37.4060   28.6960   43.0510 C   0  0  0  0  0  0  0  0  0  0  0  0
   37.0780   28.5260   41.7390 C   0  0  0  0  0  0  0  0  0  0  0  0
   38.6890   25.5920   43.3920 H   0  0  0  0  0  0  0  0  0  0  0  0
   38.3060   27.6510   44.7250 H   0  0  0  0  0  0  0  0  0  0  0  0
   37.2250   29.6090   43.6020 H   0  0  0  0  0  0  0  0  0  0  0  0
   39.4500   23.7150   39.3910 C   0  0  0  0  0  0  0  0  0  0  0  0
   39.2670   24.8900   40.1390 C   0  0  0  0  0  0  0  0  0  0  0  0
   38.1130   25.1110   40.8530 C   0  0  0  0  0  0  0  0  0  0  0  0
   37.1800   24.1080   40.7720 N   0  0  0  0  0  0  0  0  0  0  0  0
   37.3650   22.9920   40.0550 C   0  0  0  0  0  0  0  0  0  0  0  0
   38.4770   22.7840   39.3700 N   0  0  0  0  0  0  0  0  0  0  0  0
   40.3760   23.5580   38.8280 H   0  0  0  0  0  0  0  0  0  0  0  0
   40.0480   25.6390   40.1560 H   0  0  0  0  0  0  0  0  0  0  0  0
   36.5350   22.2980   40.0940 H   0  0  0  0  0  0  0  0  0  0  0  0
   36.5100   29.6770   41.0860 C   0  0  0  0  0  0  0  0  0  0  0  0
   35.3290   29.7170   40.6620 O   0  0  0  0  0  0  0  0  0  0  0  0
   36.8530   31.0510   40.6630 C   0  0  0  0  0  3  0  0  0  0  0  0
   38.3200   31.3460   40.9180 C   0  0  0  0  0  2  0  0  0  0  0  0
   38.4540   32.8450   40.7420 C   0  0  0  0  0  2  0  0  0  0  0  0
   37.6110   33.3610   39.6130 C   0  0  0  0  0  2  0  0  0  0  0  0
   37.2970   32.2840   38.5910 C   0  0  0  0  0  2  0  0  0  0  0  0
   36.5950   31.1000   39.1630 C   0  0  0  0  0  2  0  0  0  0  0  0
  1  2  1  0  0  0  0
  2  3  2  0  0  0  0
  2  7  1  0  0  0  0
  3  4  1  0  0  0  0
  4  8  1  0  0  0  0
  4  5  2  0  0  0  0
  5  9  1  0  0  0  0
  6 10  1  0  0  0  0
  6  5  1  0  0  0  0
  7  6  2  0  0  0  0
 11 12  1  0  0  0  0
 12 18  1  0  0  0  0
 12 13  2  0  0  0  0
 13  3  1  0  0  0  0
 14 13  1  0  0  0  0
 15 19  1  0  0  0  0
 15 14  2  0  0  0  0
 16 11  2  0  0  0  0
 16 15  1  0  0  0  0
 17 11  1  0  0  0  0
 20  7  1  0  0  0  0
 21 20  2  0  0  0  0
 22 23  1  0  0  0  0
 22 20  1  0  0  0  0
 24 23  1  0  0  0  0
 25 24  1  0  0  0  0
 26 27  1  0  0  0  0
 26 25  1  0  0  0  0
 27 22  1  0  0  0  0
M  END
>  <minimizedAffinity>
-5.58025789

$$$$

 OpenBabel03242520013D

 27 29  0  0  0  0  0  0  0  0999 V2000
   40.9180   30.2900   40.9030 Br  0  0  0  0  0  0  0  0  0  0  0  0
   39.1660   30.8990   40.4870 C   0  0  0  0  0  0  0  0  0  0  0  0
   38.9250   31.9010   39.5600 C   0  0  0  0  0  0  0  0  0  0  0  0
   37.6110   32.2700   39.3320 C   0  0  0  0  0  0  0  0  0  0  0  0
   36.5440   31.6920   39.9830 C   0  0  0  0  0  0  0  0  0  0  0  0
   36.7740   30.6940   40.9090 C   0  0  0  0  0  0  0  0  0  0  0  0
   38.0750   30.3450   41.1160 C   0  0  0  0  0  0  0  0  0  0  0  0
   37.5090   33.0480   38.6030 H   0  0  0  0  0  0  0  0  0  0  0  0
   35.5440   32.0460   39.7420 H   0  0  0  0  0  0  0  0  0  0  0  0
   35.9400   30.2360   41.4240 H   0  0  0  0  0  0  0  0  0  0  0  0
   41.8140   34.1570   38.6560 C   0  0  0  0  0  0  0  0  0  0  0  0
   40.6990   33.6270   39.3280 C   0  0  0  0  0  0  0  0  0  0  0  0
   40.0790   32.4800   38.8920 C   0  0  0  0  0  0  0  0  0  0  0  0
   40.6310   31.9130   37.7710 N   0  0  0  0  0  0  0  0  0  0  0  0
   41.6930   32.4270   37.1380 C   0  0  0  0  0  0  0  0  0  0  0  0
   42.2860   33.5310   37.5620 N   0  0  0  0  0  0  0  0  0  0  0  0
   42.2930   35.0720   39.0180 H   0  0  0  0  0  0  0  0  0  0  0  0
   40.3180   34.1300   40.2080 H   0  0  0  0  0  0  0  0  0  0  0  0
   42.0070   31.8620   36.2700 H   0  0  0  0  0  0  0  0  0  0  0  0
   38.2890   29.2640   42.0420 C   0  0  0  0  0  0  0  0  0  0  0  0
   38.3470   29.4210   43.2860 O   0  0  0  0  0  0  0  0  0  0  0  0
   38.4980   27.8010   42.0810 C   0  0  0  0  0  3  0  0  0  0  0  0
   39.1310   27.3790   43.3940 C   0  0  0  0  0  2  0  0  0  0  0  0
   39.5700   25.9460   43.1740 C   0  0  0  0  0  2  0  0  0  0  0  0
   38.5810   25.1680   42.3570 C   0  0  0  0  0  2  0  0  0  0  0  0
   37.1850   25.7600   42.4280 C   0  0  0  0  0  2  0  0  0  0  0  0
   37.1120   27.1800   41.9810 C   0  0  0  0  0  2  0  0  0  0  0  0
  2  1  1  0  0  0  0
  2  7  1  0  0  0  0
  3  2  2  0  0  0  0
  4  3  1  0  0  0  0
  4  5  2  0  0  0  0
  5  6  1  0  0  0  0
  6  7  2  0  0  0  0
  6 10  1  0  0  0  0
  7 20  1  0  0  0  0
  8  4  1  0  0  0  0
  9  5  1  0  0  0  0
 11 17  1  0  0  0  0
 11 12  1  0  0  0  0
 12 18  1  0  0  0  0
 13 12  2  0  0  0  0
 13  3  1  0  0  0  0
 14 13  1  0  0  0  0
 15 16  1  0  0  0  0
 15 14  2  0  0  0  0
 16 11  2  0  0  0  0
 19 15  1  0  0  0  0
 20 22  1  0  0  0  0
 20 21  2  0  0  0  0
 22 23  1  0  0  0  0
 24 23  1  0  0  0  0
 25 26  1  0  0  0  0
 25 24  1  0  0  0  0
 27 22  1  0  0  0  0
 27 26  1  0  0  0  0
M  END
>  <minimizedAffinity>
-5.45661592

$$$$

 OpenBabel03242520013D

 27 29  0  0  0  0  0  0  0  0999 V2000
   36.6490   26.7680   38.4070 Br  0  0  0  0  0  0  0  0  0  0  0  0
   36.7600   26.7200   40.3050 C   0  0  0  0  0  0  0  0  0  0  0  0
   37.0220   25.5540   41.0080 C   0  0  0  0  0  0  0  0  0  0  0  0
   37.0800   25.6300   42.3890 C   0  0  0  0  0  0  0  0  0  0  0  0
   36.8890   26.8010   43.0860 C   0  0  0  0  0  0  0  0  0  0  0  0
   36.6270   27.9680   42.3950 C   0  0  0  0  0  0  0  0  0  0  0  0
   36.5760   27.8700   41.0360 C   0  0  0  0  0  0  0  0  0  0  0  0
   37.2870   24.6890   42.8570 H   0  0  0  0  0  0  0  0  0  0  0  0
   36.9520   26.7670   44.1720 H   0  0  0  0  0  0  0  0  0  0  0  0
   36.4760   28.8920   42.9370 H   0  0  0  0  0  0  0  0  0  0  0  0
   36.4310   22.3250   39.1440 C   0  0  0  0  0  0  0  0  0  0  0  0
   36.1980   23.4890   39.8960 C   0  0  0  0  0  0  0  0  0  0  0  0
   37.2230   24.3410   40.2320 C   0  0  0  0  0  0  0  0  0  0  0  0
   38.4630   23.9650   39.7800 N   0  0  0  0  0  0  0  0  0  0  0  0
   38.6730   22.8530   39.0640 C   0  0  0  0  0  0  0  0  0  0  0  0
   37.6830   22.0360   38.7430 N   0  0  0  0  0  0  0  0  0  0  0  0
   35.6020   21.6590   38.8870 H   0  0  0  0  0  0  0  0  0  0  0  0
   35.1910   23.7230   40.2190 H   0  0  0  0  0  0  0  0  0  0  0  0
   39.7070   22.6970   38.7830 H   0  0  0  0  0  0  0  0  0  0  0  0
   36.3590   29.1080   40.3320 C   0  0  0  0  0  0  0  0  0  0  0  0
   35.2180   29.5630   40.0720 O   0  0  0  0  0  0  0  0  0  0  0  0
   37.0970   30.2210   39.7000 C   0  0  0  0  0  3  0  0  0  0  0  0
   36.5840   30.4840   38.2960 C   0  0  0  0  0  2  0  0  0  0  0  0
   37.6110   31.4050   37.6700 C   0  0  0  0  0  2  0  0  0  0  0  0
   38.1350   32.4180   38.6450 C   0  0  0  0  0  2  0  0  0  0  0  0
   37.1670   32.6700   39.7860 C   0  0  0  0  0  2  0  0  0  0  0  0
   36.8210   31.4450   40.5620 C   0  0  0  0  0  2  0  0  0  0  0  0
  1  2  1  0  0  0  0
  2  3  2  0  0  0  0
  2  7  1  0  0  0  0
  3  4  1  0  0  0  0
  4  8  1  0  0  0  0
  4  5  2  0  0  0  0
  5  9  1  0  0  0  0
  6 10  1  0  0  0  0
  6  5  1  0  0  0  0
  7  6  2  0  0  0  0
 11 12  1  0  0  0  0
 12 18  1  0  0  0  0
 12 13  2  0  0  0  0
 13  3  1  0  0  0  0
 14 13  1  0  0  0  0
 15 14  2  0  0  0  0
 16 15  1  0  0  0  0
 16 11  2  0  0  0  0
 17 11  1  0  0  0  0
 19 15  1  0  0  0  0
 20  7  1  0  0  0  0
 21 20  2  0  0  0  0
 22 20  1  0  0  0  0
 22 27  1  0  0  0  0
 23 22  1  0  0  0  0
 24 23  1  0  0  0  0
 24 25  1  0  0  0  0
 25 26  1  0  0  0  0
 26 27  1  0  0  0  0
M  END
>  <minimizedAffinity>
-5.43599558

$$$$

 OpenBabel03242520013D

 27 29  0  0  0  0  0  0  0  0999 V2000
   40.9630   30.2200   39.5460 Br  0  0  0  0  0  0  0  0  0  0  0  0
   39.5740   31.5060   39.7250 C   0  0  0  0  0  0  0  0  0  0  0  0
   39.7810   32.8610   39.5170 C   0  0  0  0  0  0  0  0  0  0  0  0
   38.7010   33.7120   39.6750 C   0  0  0  0  0  0  0  0  0  0  0  0
   37.4450   33.2750   40.0290 C   0  0  0  0  0  0  0  0  0  0  0  0
   37.2290   31.9280   40.2400 C   0  0  0  0  0  0  0  0  0  0  0  0
   38.3050   31.1080   40.0770 C   0  0  0  0  0  0  0  0  0  0  0  0
   38.9420   34.7400   39.4950 H   0  0  0  0  0  0  0  0  0  0  0  0
   36.6540   34.0160   40.1320 H   0  0  0  0  0  0  0  0  0  0  0  0
   36.2440   31.5780   40.5190 H   0  0  0  0  0  0  0  0  0  0  0  0
   42.8300   33.8100   37.5040 C   0  0  0  0  0  0  0  0  0  0  0  0
   41.5260   33.4020   37.8300 C   0  0  0  0  0  0  0  0  0  0  0  0
   41.1210   33.2780   39.1390 C   0  0  0  0  0  0  0  0  0  0  0  0
   42.0790   33.5810   40.0730 N   0  0  0  0  0  0  0  0  0  0  0  0
   43.3200   33.9680   39.7500 C   0  0  0  0  0  0  0  0  0  0  0  0
   43.7040   34.0850   38.4900 N   0  0  0  0  0  0  0  0  0  0  0  0
   43.1330   33.9010   36.4560 H   0  0  0  0  0  0  0  0  0  0  0  0
   40.8210   33.1790   37.0380 H   0  0  0  0  0  0  0  0  0  0  0  0
   43.9560   34.1700   40.6020 H   0  0  0  0  0  0  0  0  0  0  0  0
   38.0460   29.7010   40.2450 C   0  0  0  0  0  0  0  0  0  0  0  0
   37.6380   28.9590   39.3180 O   0  0  0  0  0  0  0  0  0  0  0  0
   38.0900   28.6330   41.2650 C   0  0  0  0  0  3  0  0  0  0  0  0
   38.8080   29.1070   42.5160 C   0  0  0  0  0  2  0  0  0  0  0  0
   39.0550   27.8510   43.3260 C   0  0  0  0  0  2  0  0  0  0  0  0
   37.9020   26.8930   43.2540 C   0  0  0  0  0  2  0  0  0  0  0  0
   36.5980   27.5890   42.9070 C   0  0  0  0  0  2  0  0  0  0  0  0
   36.6400   28.3320   41.6150 C   0  0  0  0  0  2  0  0  0  0  0  0
  1  2  1  0  0  0  0
  2  7  1  0  0  0  0
  3  4  1  0  0  0  0
  3  2  2  0  0  0  0
  4  5  2  0  0  0  0
  5  9  1  0  0  0  0
  5  6  1  0  0  0  0
  6 10  1  0  0  0  0
  7  6  2  0  0  0  0
  7 20  1  0  0  0  0
  8  4  1  0  0  0  0
 11 12  2  0  0  0  0
 11 16  1  0  0  0  0
 12 13  1  0  0  0  0
 13  3  1  0  0  0  0
 13 14  2  0  0  0  0
 15 14  1  0  0  0  0
 15 19  1  0  0  0  0
 16 15  2  0  0  0  0
 17 11  1  0  0  0  0
 18 12  1  0  0  0  0
 20 22  1  0  0  0  0
 21 20  2  0  0  0  0
 22 27  1  0  0  0  0
 22 23  1  0  0  0  0
 23 24  1  0  0  0  0
 25 24  1  0  0  0  0
 26 25  1  0  0  0  0
 27 26  1  0  0  0  0
M  END
>  <minimizedAffinity>
-5.35015869

$$$$

 OpenBabel03242520013D

 27 29  0  0  0  0  0  0  0  0999 V2000
   38.9260   28.5420   39.1900 Br  0  0  0  0  0  0  0  0  0  0  0  0
   38.4300   28.3450   41.0150 C   0  0  0  0  0  0  0  0  0  0  0  0
   38.0650   29.4220   41.8080 C   0  0  0  0  0  0  0  0  0  0  0  0
   37.7220   29.1680   43.1250 C   0  0  0  0  0  0  0  0  0  0  0  0
   37.7300   27.9050   43.6740 C   0  0  0  0  0  0  0  0  0  0  0  0
   38.0930   26.8270   42.8920 C   0  0  0  0  0  0  0  0  0  0  0  0
   38.4240   27.1000   41.5980 C   0  0  0  0  0  0  0  0  0  0  0  0
   37.4520   30.0490   43.6710 H   0  0  0  0  0  0  0  0  0  0  0  0
   37.4470   27.7990   44.7200 H   0  0  0  0  0  0  0  0  0  0  0  0
   38.1000   25.8320   43.3170 H   0  0  0  0  0  0  0  0  0  0  0  0
   37.0300   32.5090   39.9000 C   0  0  0  0  0  0  0  0  0  0  0  0
   36.9920   31.2320   40.4850 C   0  0  0  0  0  0  0  0  0  0  0  0
   38.0650   30.7360   41.1880 C   0  0  0  0  0  0  0  0  0  0  0  0
   39.1480   31.5760   41.2640 N   0  0  0  0  0  0  0  0  0  0  0  0
   39.1710   32.7910   40.7010 C   0  0  0  0  0  0  0  0  0  0  0  0
   38.1370   33.2640   40.0270 N   0  0  0  0  0  0  0  0  0  0  0  0
   36.1650   32.8860   39.3440 H   0  0  0  0  0  0  0  0  0  0  0  0
   36.1030   30.6230   40.3840 H   0  0  0  0  0  0  0  0  0  0  0  0
   40.0980   33.3300   40.8520 H   0  0  0  0  0  0  0  0  0  0  0  0
   38.7430   25.9560   40.7840 C   0  0  0  0  0  0  0  0  0  0  0  0
   39.9110   25.6680   40.4240 O   0  0  0  0  0  0  0  0  0  0  0  0
   38.1050   24.8080   40.1050 C   0  0  0  0  0  3  0  0  0  0  0  0
   38.0300   23.6050   41.0280 C   0  0  0  0  0  2  0  0  0  0  0  0
   37.6610   22.4440   40.1290 C   0  0  0  0  0  2  0  0  0  0  0  0
   36.6690   22.8360   39.0730 C   0  0  0  0  0  2  0  0  0  0  0  0
   35.8600   24.0570   39.4690 C   0  0  0  0  0  2  0  0  0  0  0  0
   36.6910   25.2580   39.7660 C   0  0  0  0  0  2  0  0  0  0  0  0
  1  2  1  0  0  0  0
  2  7  2  0  0  0  0
  2  3  1  0  0  0  0
  3  4  2  0  0  0  0
  4  8  1  0  0  0  0
  4  5  1  0  0  0  0
  5  9  1  0  0  0  0
  6 10  1  0  0  0  0
  6  5  2  0  0  0  0
  7  6  1  0  0  0  0
 11 16  2  0  0  0  0
 11 12  1  0  0  0  0
 12 13  2  0  0  0  0
 13 14  1  0  0  0  0
 13  3  1  0  0  0  0
 15 19  1  0  0  0  0
 15 14  2  0  0  0  0
 16 15  1  0  0  0  0
 17 11  1  0  0  0  0
 18 12  1  0  0  0  0
 20  7  1  0  0  0  0
 21 20  2  0  0  0  0
 22 20  1  0  0  0  0
 22 23  1  0  0  0  0
 24 23  1  0  0  0  0
 25 26  1  0  0  0  0
 25 24  1  0  0  0  0
 26 27  1  0  0  0  0
 27 22  1  0  0  0  0
M  END
>  <minimizedAffinity>
-5.23025608

$$$$

 OpenBabel03242520013D

 27 29  0  0  0  0  0  0  0  0999 V2000
   36.7120   27.8700   39.3480 Br  0  0  0  0  0  0  0  0  0  0  0  0
   37.4260   27.5940   41.0880 C   0  0  0  0  0  0  0  0  0  0  0  0
   37.7970   26.3410   41.5520 C   0  0  0  0  0  0  0  0  0  0  0  0
   38.3050   26.2510   42.8360 C   0  0  0  0  0  0  0  0  0  0  0  0
   38.4530   27.3400   43.6640 C   0  0  0  0  0  0  0  0  0  0  0  0
   38.0850   28.5920   43.2120 C   0  0  0  0  0  0  0  0  0  0  0  0
   37.5890   28.6580   41.9440 C   0  0  0  0  0  0  0  0  0  0  0  0
   38.5690   25.2520   43.1190 H   0  0  0  0  0  0  0  0  0  0  0  0
   38.8600   27.1760   44.6600 H   0  0  0  0  0  0  0  0  0  0  0  0
   38.1990   29.4530   43.8580 H   0  0  0  0  0  0  0  0  0  0  0  0
   36.4050   23.3170   39.7730 C   0  0  0  0  0  0  0  0  0  0  0  0
   36.5310   24.3920   40.6690 C   0  0  0  0  0  0  0  0  0  0  0  0
   37.6290   25.2190   40.6430 C   0  0  0  0  0  0  0  0  0  0  0  0
   38.5660   24.9100   39.6890 N   0  0  0  0  0  0  0  0  0  0  0  0
   38.4350   23.8820   38.8410 C   0  0  0  0  0  0  0  0  0  0  0  0
   37.3760   23.0890   38.8700 N   0  0  0  0  0  0  0  0  0  0  0  0
   35.5220   22.6700   39.8100 H   0  0  0  0  0  0  0  0  0  0  0  0
   35.7500   24.5770   41.3960 H   0  0  0  0  0  0  0  0  0  0  0  0
   39.2600   23.7710   38.1490 H   0  0  0  0  0  0  0  0  0  0  0  0
   37.2660   29.9790   41.4710 C   0  0  0  0  0  0  0  0  0  0  0  0
   36.0960   30.4340   41.4400 O   0  0  0  0  0  0  0  0  0  0  0  0
   37.8990   31.1960   40.9220 C   0  0  0  0  0  3  0  0  0  0  0  0
   39.0940   30.8410   40.0540 C   0  0  0  0  0  2  0  0  0  0  0  0
   39.8160   32.1530   39.8270 C   0  0  0  0  0  2  0  0  0  0  0  0
   38.8660   33.2980   39.6320 C   0  0  0  0  0  2  0  0  0  0  0  0
   37.5040   32.8380   39.1440 C   0  0  0  0  0  2  0  0  0  0  0  0
   36.8400   31.8600   40.0530 C   0  0  0  0  0  2  0  0  0  0  0  0
  1  2  1  0  0  0  0
  2  3  2  0  0  0  0
  2  7  1  0  0  0  0
  3  4  1  0  0  0  0
  4  8  1  0  0  0  0
  4  5  2  0  0  0  0
  5  9  1  0  0  0  0
  6  5  1  0  0  0  0
  6 10  1  0  0  0  0
  7  6  2  0  0  0  0
 11 17  1  0  0  0  0
 11 12  1  0  0  0  0
 12 18  1  0  0  0  0
 13 12  2  0  0  0  0
 13  3  1  0  0  0  0
 14 13  1  0  0  0  0
 15 16  1  0  0  0  0
 15 14  2  0  0  0  0
 16 11  2  0  0  0  0
 19 15  1  0  0  0  0
 20  7  1  0  0  0  0
 21 20  2  0  0  0  0
 22 20  1  0  0  0  0
 23 22  1  0  0  0  0
 24 23  1  0  0  0  0
 25 24  1  0  0  0  0
 26 25  1  0  0  0  0
 26 27  1  0  0  0  0
 27 22  1  0  0  0  0
M  END
>  <minimizedAffinity>
-5.21961164

$$$$

 OpenBabel03242520013D

 27 29  0  0  0  0  0  0  0  0999 V2000
   40.1000   29.6360   41.6080 Br  0  0  0  0  0  0  0  0  0  0  0  0
   38.2940   29.8570   41.0570 C   0  0  0  0  0  0  0  0  0  0  0  0
   37.8660   30.9520   40.3240 C   0  0  0  0  0  0  0  0  0  0  0  0
   36.5280   31.0150   39.9740 C   0  0  0  0  0  0  0  0  0  0  0  0
   35.6140   30.0470   40.3240 C   0  0  0  0  0  0  0  0  0  0  0  0
   36.0300   28.9520   41.0550 C   0  0  0  0  0  0  0  0  0  0  0  0
   37.3510   28.9100   41.3860 C   0  0  0  0  0  0  0  0  0  0  0  0
   36.2780   31.8890   39.4090 H   0  0  0  0  0  0  0  0  0  0  0  0
   34.5810   30.1800   40.0070 H   0  0  0  0  0  0  0  0  0  0  0  0
   35.3160   28.1880   41.3330 H   0  0  0  0  0  0  0  0  0  0  0  0
   40.5910   32.8490   38.5280 C   0  0  0  0  0  0  0  0  0  0  0  0
   39.6360   31.8660   38.8350 C   0  0  0  0  0  0  0  0  0  0  0  0
   38.8650   31.9480   39.9710 C   0  0  0  0  0  0  0  0  0  0  0  0
   39.1060   33.0460   40.7580 N   0  0  0  0  0  0  0  0  0  0  0  0
   40.0200   33.9760   40.4550 C   0  0  0  0  0  0  0  0  0  0  0  0
   40.7590   33.8930   39.3610 N   0  0  0  0  0  0  0  0  0  0  0  0
   41.1960   32.7660   37.6190 H   0  0  0  0  0  0  0  0  0  0  0  0
   39.5000   31.0250   38.1670 H   0  0  0  0  0  0  0  0  0  0  0  0
   40.0890   34.7810   41.1770 H   0  0  0  0  0  0  0  0  0  0  0  0
   37.7760   27.7330   42.0980 C   0  0  0  0  0  0  0  0  0  0  0  0
   37.8530   27.6740   43.3510 O   0  0  0  0  0  0  0  0  0  0  0  0
   38.2270   26.3440   41.8690 C   0  0  0  0  0  3  0  0  0  0  0  0
   37.1050   25.3580   42.1410 C   0  0  0  0  0  2  0  0  0  0  0  0
   37.7770   24.0010   42.1780 C   0  0  0  0  0  2  0  0  0  0  0  0
   38.8600   23.8760   41.1470 C   0  0  0  0  0  2  0  0  0  0  0  0
   38.6630   24.8350   39.9870 C   0  0  0  0  0  2  0  0  0  0  0  0
   38.6030   26.2670   40.3960 C   0  0  0  0  0  2  0  0  0  0  0  0
  2  7  1  0  0  0  0
  2  1  1  0  0  0  0
  3  2  2  0  0  0  0
  4  3  1  0  0  0  0
  4  5  2  0  0  0  0
  5  6  1  0  0  0  0
  6 10  1  0  0  0  0
  6  7  2  0  0  0  0
  7 20  1  0  0  0  0
  8  4  1  0  0  0  0
  9  5  1  0  0  0  0
 11 12  2  0  0  0  0
 11 16  1  0  0  0  0
 12 13  1  0  0  0  0
 13  3  1  0  0  0  0
 13 14  2  0  0  0  0
 15 14  1  0  0  0  0
 15 19  1  0  0  0  0
 16 15  2  0  0  0  0
 17 11  1  0  0  0  0
 18 12  1  0  0  0  0
 20 21  2  0  0  0  0
 22 20  1  0  0  0  0
 22 23  1  0  0  0  0
 23 24  1  0  0  0  0
 25 24  1  0  0  0  0
 26 27  1  0  0  0  0
 26 25  1  0  0  0  0
 27 22  1  0  0  0  0
M  END
>  <minimizedAffinity>
-5.20259619

$$$$
