
 OpenBabel03242522503D

 23 24  0  0  0  0  0  0  0  0999 V2000
   44.9200   30.7990   47.6220 O   0  0  0  0  0  0  0  0  0  0  0  0
   45.6570   31.9380   48.3600 P   0  0  2  0  0  0  0  0  0  0  0  0
   45.2340   31.7890   49.9810 O   0  0  0  0  0  0  0  0  0  0  0  0
   45.7090   32.3920   50.5830 H   0  0  0  0  0  0  0  0  0  0  0  0
   45.1070   33.4120   47.7480 O   0  0  0  0  0  0  0  0  0  0  0  0
   46.6580   33.4420   44.4640 C   0  0  0  0  0  0  0  0  0  0  0  0
   46.3530   33.0910   45.7900 C   0  0  0  0  0  0  0  0  0  0  0  0
   45.3700   33.7900   46.4480 C   0  0  0  0  0  0  0  0  0  0  0  0
   44.7450   34.7850   45.7790 N   0  0  0  0  0  0  0  0  0  0  0  0
   45.0300   35.1250   44.5160 C   0  0  0  0  0  0  0  0  0  0  0  0
   45.9980   34.4430   43.8540 N   0  0  0  0  0  0  0  0  0  0  0  0
   47.4110   32.9590   43.8560 H   0  0  0  0  0  0  0  0  0  0  0  0
   46.9580   32.2860   46.1140 H   0  0  0  0  0  0  0  0  0  0  0  0
   44.4250   35.9440   44.1500 H   0  0  0  0  0  0  0  0  0  0  0  0
   47.2830   31.7680   48.1120 O   0  0  0  0  0  0  0  0  0  0  0  0
   48.0600   30.6850   47.8940 C   0  0  0  0  0  0  0  0  0  0  0  0
   48.6270   30.2430   48.9560 O   0  0  0  0  0  0  0  0  0  0  0  0
   48.6890   29.6240   47.0670 C   0  0  0  0  0  3  0  0  0  0  0  0
   48.3740   29.7940   45.6070 C   0  0  0  0  0  2  0  0  0  0  0  0
   47.0290   29.3800   45.1630 C   0  0  0  0  0  2  0  0  0  0  0  0
   46.5480   28.0790   45.7500 C   0  0  0  0  0  2  0  0  0  0  0  0
   46.7570   28.0360   47.2250 C   0  0  0  0  0  2  0  0  0  0  0  0
   48.1890   28.3040   47.6160 C   0  0  0  0  0  2  0  0  0  0  0  0
  2  1  2  6  0  0  0
  2  3  1  0  0  0  0
  3  4  1  0  0  0  0
  5  2  1  0  0  0  0
  6  7  1  0  0  0  0
  7 13  1  0  0  0  0
  7  8  2  0  0  0  0
  8  5  1  0  0  0  0
  9  8  1  0  0  0  0
 10  9  2  0  0  0  0
 11  6  2  0  0  0  0
 11 10  1  0  0  0  0
 12  6  1  0  0  0  0
 14 10  1  0  0  0  0
 15  2  1  0  0  0  0
 16 15  1  0  0  0  0
 16 17  2  0  0  0  0
 18 23  1  0  0  0  0
 18 16  1  0  0  0  0
 19 18  1  0  0  0  0
 20 19  1  0  0  0  0
 20 21  1  0  0  0  0
 21 22  1  0  0  0  0
 22 23  1  0  0  0  0
M  END
>  <minimizedAffinity>
-4.33130026

>  <minimizedRMSD>
2.46400452

$$$$
