
 OpenBabel03252505503D

 19 20  0  0  0  0  0  0  0  0999 V2000
   36.6040   31.3910   40.4550 C   0  0  0  0  0  0  0  0  0  0  0  0
   37.8800   31.9250   40.6290 C   0  0  0  0  0  0  0  0  0  0  0  0
   38.7920   31.1630   41.3410 C   0  0  0  0  0  0  0  0  0  0  0  0
   38.4230   29.9580   41.8320 N   0  0  0  0  0  0  0  0  0  0  0  0
   37.1800   29.4840   41.6400 C   0  0  0  0  0  0  0  0  0  0  0  0
   36.2540   30.1820   40.9550 N   0  0  0  0  0  0  0  0  0  0  0  0
   35.8440   31.9260   39.9110 H   0  0  0  0  0  0  0  0  0  0  0  0
   39.7710   31.5950   41.4630 H   0  0  0  0  0  0  0  0  0  0  0  0
   38.1460   33.2730   40.0270 C   0  0  0  0  0  0  0  0  0  0  0  0
   39.0990   33.0720   39.0560 F   0  0  0  0  0  0  0  0  0  0  0  0
   38.6340   34.0810   41.0210 F   0  0  0  0  0  0  0  0  0  0  0  0
   36.9470   33.7540   39.5370 F   0  0  0  0  0  0  0  0  0  0  0  0
   36.7910   28.2390   42.1450 O   0  0  0  0  0  0  0  0  0  0  0  0
   37.5120   27.0570   41.8590 C   0  0  0  0  0  3  0  0  0  0  0  0
   37.5580   26.8090   40.3780 C   0  0  0  0  0  2  0  0  0  0  0  0
   36.6100   25.7530   39.9060 C   0  0  0  0  0  2  0  0  0  0  0  0
   36.7100   24.4630   40.6700 C   0  0  0  0  0  2  0  0  0  0  0  0
   37.2650   24.6090   42.0590 C   0  0  0  0  0  2  0  0  0  0  0  0
   36.8300   25.9330   42.6110 C   0  0  0  0  0  2  0  0  0  0  0  0
  1  2  2  0  0  0  0
  1  6  1  0  0  0  0
  2  3  1  0  0  0  0
  3  8  1  0  0  0  0
  3  4  2  0  0  0  0
  5  4  1  0  0  0  0
  5 13  1  0  0  0  0
  6  5  2  0  0  0  0
  7  1  1  0  0  0  0
  9  2  1  0  0  0  0
  9 11  1  0  0  0  0
 10  9  1  0  0  0  0
 12  9  1  0  0  0  0
 14 13  1  0  0  0  0
 14 19  1  0  0  0  0
 15 14  1  0  0  0  0
 16 15  1  0  0  0  0
 16 17  1  0  0  0  0
 17 18  1  0  0  0  0
 18 19  1  0  0  0  0
M  END
>  <minimizedAffinity>
-4.89327383

$$$$

 OpenBabel03252505503D

 19 20  0  0  0  0  0  0  0  0999 V2000
   36.5470   30.8320   40.4700 C   0  0  0  0  0  0  0  0  0  0  0  0
   37.6550   30.8740   39.6260 C   0  0  0  0  0  0  0  0  0  0  0  0
   38.8220   30.2830   40.0840 C   0  0  0  0  0  0  0  0  0  0  0  0
   38.8460   29.7000   41.3040 N   0  0  0  0  0  0  0  0  0  0  0  0
   37.7510   29.6830   42.0840 C   0  0  0  0  0  0  0  0  0  0  0  0
   36.5910   30.2430   41.6890 N   0  0  0  0  0  0  0  0  0  0  0  0
   35.6070   31.2700   40.1810 H   0  0  0  0  0  0  0  0  0  0  0  0
   39.6650   30.3280   39.4160 H   0  0  0  0  0  0  0  0  0  0  0  0
   37.4810   31.5560   38.3010 C   0  0  0  0  0  0  0  0  0  0  0  0
   36.6580   30.7390   37.5610 F   0  0  0  0  0  0  0  0  0  0  0  0
   38.7180   31.6480   37.7180 F   0  0  0  0  0  0  0  0  0  0  0  0
   36.9490   32.8070   38.5440 F   0  0  0  0  0  0  0  0  0  0  0  0
   37.7670   29.0820   43.3470 O   0  0  0  0  0  0  0  0  0  0  0  0
   37.6690   27.6800   43.5100 C   0  0  0  0  0  3  0  0  0  0  0  0
   39.0310   27.0700   43.6800 C   0  0  0  0  0  2  0  0  0  0  0  0
   39.5550   26.3930   42.4540 C   0  0  0  0  0  2  0  0  0  0  0  0
   38.5960   25.4050   41.8510 C   0  0  0  0  0  2  0  0  0  0  0  0
   37.1530   25.6650   42.1810 C   0  0  0  0  0  2  0  0  0  0  0  0
   36.9470   27.1460   42.2910 C   0  0  0  0  0  2  0  0  0  0  0  0
  1  6  1  0  0  0  0
  2  3  1  0  0  0  0
  2  1  2  0  0  0  0
  3  4  2  0  0  0  0
  4  5  1  0  0  0  0
  5 13  1  0  0  0  0
  6  5  2  0  0  0  0
  7  1  1  0  0  0  0
  8  3  1  0  0  0  0
  9 12  1  0  0  0  0
  9  2  1  0  0  0  0
 10  9  1  0  0  0  0
 11  9  1  0  0  0  0
 13 14  1  0  0  0  0
 14 15  1  0  0  0  0
 16 15  1  0  0  0  0
 17 18  1  0  0  0  0
 17 16  1  0  0  0  0
 18 19  1  0  0  0  0
 19 14  1  0  0  0  0
M  END
>  <minimizedAffinity>
-4.8580904

$$$$

 OpenBabel03252505503D

 19 20  0  0  0  0  0  0  0  0999 V2000
   38.2420   26.9440   40.9640 C   0  0  0  0  0  0  0  0  0  0  0  0
   37.5860   26.2770   41.9970 C   0  0  0  0  0  0  0  0  0  0  0  0
   37.0250   27.0550   42.9970 C   0  0  0  0  0  0  0  0  0  0  0  0
   37.1310   28.4020   42.9400 N   0  0  0  0  0  0  0  0  0  0  0  0
   37.7740   29.0020   41.9230 C   0  0  0  0  0  0  0  0  0  0  0  0
   38.3370   28.2950   40.9240 N   0  0  0  0  0  0  0  0  0  0  0  0
   38.7010   26.4050   40.1530 H   0  0  0  0  0  0  0  0  0  0  0  0
   36.5240   26.5180   43.7840 H   0  0  0  0  0  0  0  0  0  0  0  0
   37.5470   24.7780   41.9280 C   0  0  0  0  0  0  0  0  0  0  0  0
   38.5180   24.3350   42.7960 F   0  0  0  0  0  0  0  0  0  0  0  0
   37.8500   24.4150   40.6420 F   0  0  0  0  0  0  0  0  0  0  0  0
   36.2710   24.3790   42.2740 F   0  0  0  0  0  0  0  0  0  0  0  0
   37.8880   30.3950   41.8560 O   0  0  0  0  0  0  0  0  0  0  0  0
   38.1730   31.0650   40.6440 C   0  0  0  0  0  3  0  0  0  0  0  0
   39.3110   32.0280   40.8270 C   0  0  0  0  0  2  0  0  0  0  0  0
   38.8900   33.4580   40.9420 C   0  0  0  0  0  2  0  0  0  0  0  0
   37.9750   33.9110   39.8390 C   0  0  0  0  0  2  0  0  0  0  0  0
   37.2020   32.8010   39.1820 C   0  0  0  0  0  2  0  0  0  0  0  0
   36.8970   31.7570   40.2130 C   0  0  0  0  0  2  0  0  0  0  0  0
  1  2  1  0  0  0  0
  2  3  2  0  0  0  0
  3  8  1  0  0  0  0
  4  3  1  0  0  0  0
  5  4  2  0  0  0  0
  6  1  2  0  0  0  0
  6  5  1  0  0  0  0
  7  1  1  0  0  0  0
  9  2  1  0  0  0  0
  9 12  1  0  0  0  0
  9 10  1  0  0  0  0
 11  9  1  0  0  0  0
 13  5  1  0  0  0  0
 14 15  1  0  0  0  0
 14 13  1  0  0  0  0
 15 16  1  0  0  0  0
 17 16  1  0  0  0  0
 18 17  1  0  0  0  0
 18 19  1  0  0  0  0
 19 14  1  0  0  0  0
M  END
>  <minimizedAffinity>
-4.84285164

$$$$

 OpenBabel03252505503D

 19 20  0  0  0  0  0  0  0  0999 V2000
   38.8940   31.1700   40.9950 C   0  0  0  0  0  0  0  0  0  0  0  0
   37.8150   31.9540   40.5900 C   0  0  0  0  0  0  0  0  0  0  0  0
   36.5480   31.4100   40.7330 C   0  0  0  0  0  0  0  0  0  0  0  0
   36.4050   30.1680   41.2480 N   0  0  0  0  0  0  0  0  0  0  0  0
   37.4750   29.4470   41.6250 C   0  0  0  0  0  0  0  0  0  0  0  0
   38.7290   29.9270   41.5080 N   0  0  0  0  0  0  0  0  0  0  0  0
   39.9060   31.5270   40.9140 H   0  0  0  0  0  0  0  0  0  0  0  0
   35.7310   32.0340   40.4140 H   0  0  0  0  0  0  0  0  0  0  0  0
   38.1270   33.3140   40.0380 C   0  0  0  0  0  0  0  0  0  0  0  0
   36.9490   33.7830   39.5020 F   0  0  0  0  0  0  0  0  0  0  0  0
   39.0720   33.1560   39.0580 F   0  0  0  0  0  0  0  0  0  0  0  0
   38.6080   34.0840   41.0780 F   0  0  0  0  0  0  0  0  0  0  0  0
   37.3350   28.1620   42.1580 O   0  0  0  0  0  0  0  0  0  0  0  0
   38.0970   27.0680   41.6850 C   0  0  0  0  0  3  0  0  0  0  0  0
   37.2200   26.0870   40.9610 C   0  0  0  0  0  2  0  0  0  0  0  0
   36.8800   24.8680   41.7570 C   0  0  0  0  0  2  0  0  0  0  0  0
   38.0760   24.1800   42.3540 C   0  0  0  0  0  2  0  0  0  0  0  0
   39.2660   25.0750   42.5550 C   0  0  0  0  0  2  0  0  0  0  0  0
   38.7770   26.4530   42.8900 C   0  0  0  0  0  2  0  0  0  0  0  0
  1  6  1  0  0  0  0
  2  3  1  0  0  0  0
  2  1  2  0  0  0  0
  3  4  2  0  0  0  0
  4  5  1  0  0  0  0
  5 13  1  0  0  0  0
  6  5  2  0  0  0  0
  7  1  1  0  0  0  0
  8  3  1  0  0  0  0
  9  2  1  0  0  0  0
  9 12  1  0  0  0  0
 10  9  1  0  0  0  0
 11  9  1  0  0  0  0
 14 13  1  0  0  0  0
 14 19  1  0  0  0  0
 15 14  1  0  0  0  0
 15 16  1  0  0  0  0
 16 17  1  0  0  0  0
 17 18  1  0  0  0  0
 18 19  1  0  0  0  0
M  END
>  <minimizedAffinity>
-4.83855295

$$$$

 OpenBabel03252505503D

 19 20  0  0  0  0  0  0  0  0999 V2000
   38.7340   26.9010   41.2560 C   0  0  0  0  0  0  0  0  0  0  0  0
   37.7300   26.3000   42.0130 C   0  0  0  0  0  0  0  0  0  0  0  0
   36.8440   27.1390   42.6690 C   0  0  0  0  0  0  0  0  0  0  0  0
   36.9790   28.4800   42.5560 N   0  0  0  0  0  0  0  0  0  0  0  0
   37.9650   29.0150   41.8150 C   0  0  0  0  0  0  0  0  0  0  0  0
   38.8530   28.2460   41.1560 N   0  0  0  0  0  0  0  0  0  0  0  0
   39.4570   26.3120   40.7190 H   0  0  0  0  0  0  0  0  0  0  0  0
   36.0770   26.6530   43.2470 H   0  0  0  0  0  0  0  0  0  0  0  0
   37.7020   24.8000   42.0460 C   0  0  0  0  0  0  0  0  0  0  0  0
   37.9200   24.3890   40.7510 F   0  0  0  0  0  0  0  0  0  0  0  0
   36.4550   24.4180   42.4700 F   0  0  0  0  0  0  0  0  0  0  0  0
   38.6790   24.3850   42.9310 F   0  0  0  0  0  0  0  0  0  0  0  0
   38.1120   30.4010   41.6930 O   0  0  0  0  0  0  0  0  0  0  0  0
   37.2180   31.1840   40.9260 C   0  0  0  0  0  3  0  0  0  0  0  0
   36.7140   30.4070   39.7430 C   0  0  0  0  0  2  0  0  0  0  0  0
   37.3650   30.7750   38.4480 C   0  0  0  0  0  2  0  0  0  0  0  0
   37.3590   32.2500   38.1640 C   0  0  0  0  0  2  0  0  0  0  0  0
   37.2540   33.1160   39.3890 C   0  0  0  0  0  2  0  0  0  0  0  0
   37.9690   32.4340   40.5170 C   0  0  0  0  0  2  0  0  0  0  0  0
  1  2  1  0  0  0  0
  2  9  1  0  0  0  0
  2  3  2  0  0  0  0
  3  8  1  0  0  0  0
  4  3  1  0  0  0  0
  5  4  2  0  0  0  0
  6  1  2  0  0  0  0
  6  5  1  0  0  0  0
  7  1  1  0  0  0  0
  9 11  1  0  0  0  0
  9 12  1  0  0  0  0
 10  9  1  0  0  0  0
 13  5  1  0  0  0  0
 14 13  1  0  0  0  0
 15 14  1  0  0  0  0
 16 15  1  0  0  0  0
 17 16  1  0  0  0  0
 17 18  1  0  0  0  0
 18 19  1  0  0  0  0
 19 14  1  0  0  0  0
M  END
>  <minimizedAffinity>
-4.73158264

$$$$

 OpenBabel03252505503D

 19 20  0  0  0  0  0  0  0  0999 V2000
   38.9760   28.2930   42.6150 C   0  0  0  0  0  0  0  0  0  0  0  0
   37.6430   27.9720   42.3620 C   0  0  0  0  0  0  0  0  0  0  0  0
   36.8370   28.9750   41.8450 C   0  0  0  0  0  0  0  0  0  0  0  0
   37.3580   30.2000   41.6100 N   0  0  0  0  0  0  0  0  0  0  0  0
   38.6500   30.4650   41.8710 C   0  0  0  0  0  0  0  0  0  0  0  0
   39.4780   29.5280   42.3730 N   0  0  0  0  0  0  0  0  0  0  0  0
   39.6600   27.5650   43.0160 H   0  0  0  0  0  0  0  0  0  0  0  0
   35.8130   28.7040   41.6580 H   0  0  0  0  0  0  0  0  0  0  0  0
   37.2060   26.5700   42.6720 C   0  0  0  0  0  0  0  0  0  0  0  0
   38.3400   25.8990   43.0630 F   0  0  0  0  0  0  0  0  0  0  0  0
   36.7000   26.0310   41.5180 F   0  0  0  0  0  0  0  0  0  0  0  0
   36.2380   26.6450   43.6550 F   0  0  0  0  0  0  0  0  0  0  0  0
   39.1960   31.7300   41.6300 O   0  0  0  0  0  0  0  0  0  0  0  0
   39.3200   32.2560   40.3230 C   0  0  0  0  0  3  0  0  0  0  0  0
   38.1820   33.1870   40.0170 C   0  0  0  0  0  2  0  0  0  0  0  0
   37.1250   32.5930   39.1430 C   0  0  0  0  0  2  0  0  0  0  0  0
   37.6590   31.9660   37.8860 C   0  0  0  0  0  2  0  0  0  0  0  0
   39.0940   31.5280   37.9750 C   0  0  0  0  0  2  0  0  0  0  0  0
   39.3690   31.0740   39.3770 C   0  0  0  0  0  2  0  0  0  0  0  0
  1  7  1  0  0  0  0
  2  1  2  0  0  0  0
  2  9  1  0  0  0  0
  3  2  1  0  0  0  0
  4  3  2  0  0  0  0
  4  5  1  0  0  0  0
  5  6  2  0  0  0  0
  6  1  1  0  0  0  0
  8  3  1  0  0  0  0
  9 10  1  0  0  0  0
  9 12  1  0  0  0  0
 11  9  1  0  0  0  0
 13  5  1  0  0  0  0
 14 13  1  0  0  0  0
 15 14  1  0  0  0  0
 16 15  1  0  0  0  0
 17 18  1  0  0  0  0
 17 16  1  0  0  0  0
 18 19  1  0  0  0  0
 19 14  1  0  0  0  0
M  END
>  <minimizedAffinity>
-4.67830563

$$$$

 OpenBabel03252505503D

 19 20  0  0  0  0  0  0  0  0999 V2000
   38.3110   29.7950   39.7130 C   0  0  0  0  0  0  0  0  0  0  0  0
   37.3890   30.7910   40.0300 C   0  0  0  0  0  0  0  0  0  0  0  0
   36.3070   30.4250   40.8160 C   0  0  0  0  0  0  0  0  0  0  0  0
   36.1860   29.1460   41.2390 N   0  0  0  0  0  0  0  0  0  0  0  0
   37.1010   28.2190   40.9080 C   0  0  0  0  0  0  0  0  0  0  0  0
   38.1720   28.5190   40.1470 N   0  0  0  0  0  0  0  0  0  0  0  0
   39.1760   30.0060   39.1080 H   0  0  0  0  0  0  0  0  0  0  0  0
   35.6090   31.2100   41.0480 H   0  0  0  0  0  0  0  0  0  0  0  0
   37.6540   32.1660   39.4910 C   0  0  0  0  0  0  0  0  0  0  0  0
   39.0160   32.2490   39.3210 F   0  0  0  0  0  0  0  0  0  0  0  0
   37.2290   33.0680   40.4320 F   0  0  0  0  0  0  0  0  0  0  0  0
   36.9390   32.2960   38.3160 F   0  0  0  0  0  0  0  0  0  0  0  0
   36.9830   26.8940   41.3410 O   0  0  0  0  0  0  0  0  0  0  0  0
   37.5550   26.4500   42.5560 C   0  0  0  0  0  3  0  0  0  0  0  0
   38.0380   27.6150   43.3710 C   0  0  0  0  0  2  0  0  0  0  0  0
   39.5190   27.8210   43.3250 C   0  0  0  0  0  2  0  0  0  0  0  0
   40.3120   26.5830   43.6350 C   0  0  0  0  0  2  0  0  0  0  0  0
   39.5800   25.2970   43.3710 C   0  0  0  0  0  2  0  0  0  0  0  0
   38.6740   25.4960   42.1930 C   0  0  0  0  0  2  0  0  0  0  0  0
  1  2  2  0  0  0  0
  1  6  1  0  0  0  0
  2  3  1  0  0  0  0
  3  8  1  0  0  0  0
  3  4  2  0  0  0  0
  5  4  1  0  0  0  0
  5 13  1  0  0  0  0
  6  5  2  0  0  0  0
  7  1  1  0  0  0  0
  9  2  1  0  0  0  0
  9 11  1  0  0  0  0
 10  9  1  0  0  0  0
 12  9  1  0  0  0  0
 13 14  1  0  0  0  0
 14 15  1  0  0  0  0
 16 15  1  0  0  0  0
 16 17  1  0  0  0  0
 18 17  1  0  0  0  0
 19 14  1  0  0  0  0
 19 18  1  0  0  0  0
M  END
>  <minimizedAffinity>
-4.59257698

$$$$

 OpenBabel03252505503D

 19 20  0  0  0  0  0  0  0  0999 V2000
   37.8040   27.7070   40.3170 C   0  0  0  0  0  0  0  0  0  0  0  0
   36.8960   27.7860   41.3710 C   0  0  0  0  0  0  0  0  0  0  0  0
   35.9250   28.7720   41.2980 C   0  0  0  0  0  0  0  0  0  0  0  0
   35.8930   29.6050   40.2340 N   0  0  0  0  0  0  0  0  0  0  0  0
   36.7910   29.4930   39.2400 C   0  0  0  0  0  0  0  0  0  0  0  0
   37.7550   28.5520   39.2590 N   0  0  0  0  0  0  0  0  0  0  0  0
   38.5850   26.9660   40.3060 H   0  0  0  0  0  0  0  0  0  0  0  0
   35.2350   28.8130   42.1230 H   0  0  0  0  0  0  0  0  0  0  0  0
   37.0530   26.7930   42.4860 C   0  0  0  0  0  0  0  0  0  0  0  0
   38.3670   26.8790   42.8850 F   0  0  0  0  0  0  0  0  0  0  0  0
   36.7850   25.5510   41.9740 F   0  0  0  0  0  0  0  0  0  0  0  0
   36.1500   27.1330   43.4750 F   0  0  0  0  0  0  0  0  0  0  0  0
   36.7650   30.3500   38.1360 O   0  0  0  0  0  0  0  0  0  0  0  0
   37.3770   31.6250   38.1620 C   0  0  0  0  0  3  0  0  0  0  0  0
   38.8690   31.4980   38.0440 C   0  0  0  0  0  2  0  0  0  0  0  0
   39.6010   31.6670   39.3370 C   0  0  0  0  0  2  0  0  0  0  0  0
   39.2260   32.9140   40.0870 C   0  0  0  0  0  2  0  0  0  0  0  0
   37.8600   33.4460   39.7580 C   0  0  0  0  0  2  0  0  0  0  0  0
   36.9560   32.2880   39.4570 C   0  0  0  0  0  2  0  0  0  0  0  0
  1  2  1  0  0  0  0
  2  9  1  0  0  0  0
  3  2  2  0  0  0  0
  3  8  1  0  0  0  0
  4  3  1  0  0  0  0
  5  6  1  0  0  0  0
  5  4  2  0  0  0  0
  6  1  2  0  0  0  0
  7  1  1  0  0  0  0
  9 10  1  0  0  0  0
  9 12  1  0  0  0  0
 11  9  1  0  0  0  0
 13 14  1  0  0  0  0
 13  5  1  0  0  0  0
 14 19  1  0  0  0  0
 15 14  1  0  0  0  0
 15 16  1  0  0  0  0
 16 17  1  0  0  0  0
 18 17  1  0  0  0  0
 19 18  1  0  0  0  0
M  END
>  <minimizedAffinity>
-4.52468681

$$$$

 OpenBabel03252505503D

 19 20  0  0  0  0  0  0  0  0999 V2000
   36.3550   27.3700   39.8060 C   0  0  0  0  0  0  0  0  0  0  0  0
   36.1980   28.3790   40.7550 C   0  0  0  0  0  0  0  0  0  0  0  0
   36.5710   28.0870   42.0570 C   0  0  0  0  0  0  0  0  0  0  0  0
   37.0620   26.8640   42.3570 N   0  0  0  0  0  0  0  0  0  0  0  0
   37.1960   25.9200   41.4080 C   0  0  0  0  0  0  0  0  0  0  0  0
   36.8490   26.1510   40.1260 N   0  0  0  0  0  0  0  0  0  0  0  0
   36.0870   27.5260   38.7750 H   0  0  0  0  0  0  0  0  0  0  0  0
   36.4400   28.8810   42.7720 H   0  0  0  0  0  0  0  0  0  0  0  0
   35.6400   29.6880   40.2770 C   0  0  0  0  0  0  0  0  0  0  0  0
   36.3640   30.0200   39.1550 F   0  0  0  0  0  0  0  0  0  0  0  0
   35.8400   30.6100   41.2700 F   0  0  0  0  0  0  0  0  0  0  0  0
   34.2930   29.5010   40.0320 F   0  0  0  0  0  0  0  0  0  0  0  0
   37.7030   24.6530   41.7090 O   0  0  0  0  0  0  0  0  0  0  0  0
   39.0930   24.3970   41.7690 C   0  0  0  0  0  3  0  0  0  0  0  0
   39.5790   24.4420   43.1900 C   0  0  0  0  0  2  0  0  0  0  0  0
   40.2980   25.7030   43.5500 C   0  0  0  0  0  2  0  0  0  0  0  0
   41.3990   26.0670   42.5940 C   0  0  0  0  0  2  0  0  0  0  0  0
   41.2320   25.4970   41.2130 C   0  0  0  0  0  2  0  0  0  0  0  0
   39.7680   25.4340   40.8960 C   0  0  0  0  0  2  0  0  0  0  0  0
  1  6  2  0  0  0  0
  1  2  1  0  0  0  0
  2  3  2  0  0  0  0
  3  4  1  0  0  0  0
  3  8  1  0  0  0  0
  5 13  1  0  0  0  0
  5  4  2  0  0  0  0
  6  5  1  0  0  0  0
  7  1  1  0  0  0  0
  9  2  1  0  0  0  0
  9 11  1  0  0  0  0
 10  9  1  0  0  0  0
 12  9  1  0  0  0  0
 13 14  1  0  0  0  0
 14 15  1  0  0  0  0
 15 16  1  0  0  0  0
 17 16  1  0  0  0  0
 18 17  1  0  0  0  0
 19 18  1  0  0  0  0
 19 14  1  0  0  0  0
M  END
>  <minimizedAffinity>
-4.3640914

$$$$
