
 OpenBabel03252502373D

 21 22  0  0  1  0  0  0  0  0999 V2000
   46.5380   35.1330   42.0570 C   0  0  2  0  0  0  0  0  0  0  0  0
   46.0810   36.1470   41.9730 H   0  0  0  0  0  0  0  0  0  0  0  0
   45.1900   35.2790   44.1050 C   0  0  0  0  0  0  0  0  0  0  0  0
   46.2300   34.6310   43.3930 C   0  0  0  0  0  0  0  0  0  0  0  0
   46.8890   33.5740   44.0250 C   0  0  0  0  0  0  0  0  0  0  0  0
   46.4870   33.2380   45.2750 N   0  0  0  0  0  0  0  0  0  0  0  0
   45.5010   33.8730   45.9140 C   0  0  0  0  0  0  0  0  0  0  0  0
   44.8400   34.8940   45.3520 N   0  0  0  0  0  0  0  0  0  0  0  0
   44.6420   36.1050   43.6710 H   0  0  0  0  0  0  0  0  0  0  0  0
   47.6890   33.0640   43.5110 H   0  0  0  0  0  0  0  0  0  0  0  0
   45.1660   33.6180   46.9200 H   0  0  0  0  0  0  0  0  0  0  0  0
   45.9340   34.3320   40.9230 C   0  0  0  0  0  3  0  0  0  0  0  0
   46.8400   33.2240   40.4760 C   0  0  0  0  0  2  0  0  0  0  0  0
   46.1130   32.1020   39.7820 C   0  0  0  0  0  2  0  0  0  0  0  0
   44.8610   32.6220   39.0970 C   0  0  0  0  0  2  0  0  0  0  0  0
   43.9230   32.9960   40.1970 C   0  0  0  0  0  2  0  0  0  0  0  0
   44.5270   33.9080   41.1890 C   0  0  0  0  0  2  0  0  0  0  0  0
   48.0540   35.2370   41.9670 C   0  0  0  0  0  0  0  0  0  0  0  0
   48.5370   35.2670   42.9650 H   0  0  0  0  0  0  0  0  0  0  0  0
   48.4790   34.4660   41.3040 H   0  0  0  0  0  0  0  0  0  0  0  0
   48.2790   36.2050   41.4740 H   0  0  0  0  0  0  0  0  0  0  0  0
  1  2  1  6  0  0  0
  1  4  1  0  0  0  0
  3  8  1  0  0  0  0
  4  5  1  0  0  0  0
  4  3  2  0  0  0  0
  5  6  2  0  0  0  0
  6  7  1  0  0  0  0
  7 11  1  0  0  0  0
  8  7  2  0  0  0  0
  9  3  1  0  0  0  0
 10  5  1  0  0  0  0
 12 17  1  0  0  0  0
 12  1  1  0  0  0  0
 13 12  1  0  0  0  0
 14 13  1  0  0  0  0
 15 14  1  0  0  0  0
 15 16  1  0  0  0  0
 16 17  1  0  0  0  0
 18  1  1  0  0  0  0
 18 19  1  0  0  0  0
 20 18  1  0  0  0  0
 21 18  1  0  0  0  0
M  END
>  <minimizedAffinity>
-3.92640805

>  <minimizedRMSD>
0.294043571

$$$$
