
 OpenBabel03242518543D

 39 41  0  0  1  0  0  0  0  0999 V2000
   45.7830   31.2650   46.6330 C   0  0  2  0  0  0  0  0  0  0  0  0
   46.0220   30.4370   47.8550 C   0  0  0  0  0  0  0  0  0  0  0  0
   45.2100   29.2000   47.7040 C   0  0  0  0  0  0  0  0  0  0  0  0
   44.3540   29.1320   46.4820 C   0  0  0  0  0  0  0  0  0  0  0  0
   45.1790   29.3580   45.2450 C   0  0  0  0  0  0  0  0  0  0  0  0
   46.1340   30.4450   45.4070 C   0  0  2  0  0  0  0  0  0  0  0  0
   44.6940   31.4510   46.5260 H   0  0  0  0  0  0  0  0  0  0  0  0
   47.0960   30.2660   48.0670 H   0  0  0  0  0  0  0  0  0  0  0  0
   45.6810   31.0620   48.7390 H   0  0  0  0  0  0  0  0  0  0  0  0
   44.4750   29.1890   48.5680 H   0  0  0  0  0  0  0  0  0  0  0  0
   45.7640   28.2440   47.8590 H   0  0  0  0  0  0  0  0  0  0  0  0
   43.4750   29.8150   46.5420 H   0  0  0  0  0  0  0  0  0  0  0  0
   43.9120   28.1120   46.4660 H   0  0  0  0  0  0  0  0  0  0  0  0
   44.4270   29.6350   44.4430 H   0  0  0  0  0  0  0  0  0  0  0  0
   45.5410   28.3660   44.9280 H   0  0  0  0  0  0  0  0  0  0  0  0
   46.0750   31.1510   44.5590 H   0  0  0  0  0  0  0  0  0  0  0  0
   47.4680   29.8140   45.5740 C   0  0  0  0  0  0  0  0  0  0  0  0
   47.3710   28.8680   46.1420 H   0  0  0  0  0  0  0  0  0  0  0  0
   48.1010   30.5540   46.1460 H   0  0  0  0  0  0  0  0  0  0  0  0
   48.2350   29.4790   44.3410 C   0  0  0  0  0  3  0  0  0  0  0  0
   48.1370   30.5320   43.2660 C   0  0  0  0  0  2  0  0  0  0  0  0
   49.4990   31.0920   42.8990 C   0  0  0  0  0  2  0  0  0  0  0  0
   50.3750   29.9330   42.4780 C   0  0  0  0  0  2  0  0  0  0  0  0
   50.6380   29.1180   43.7080 C   0  0  0  0  0  2  0  0  0  0  0  0
   49.6850   29.3340   44.8230 C   0  0  0  0  0  2  0  0  0  0  0  0
   46.4740   32.5800   46.6560 C   0  0  0  0  0  0  0  0  0  0  0  0
   47.4070   32.8570   47.4450 O   0  0  0  0  0  0  0  0  0  0  0  0
   44.6090   35.3340   45.1400 C   0  0  0  0  0  0  0  0  0  0  0  0
   45.1450   35.4480   43.8340 C   0  0  0  0  0  0  0  0  0  0  0  0
   46.1560   34.5620   43.5090 C   0  0  0  0  0  0  0  0  0  0  0  0
   46.5010   33.7070   44.4720 N   0  0  0  0  0  0  0  0  0  0  0  0
   46.0100   33.5910   45.6860 C   0  0  0  0  0  0  0  0  0  0  0  0
   45.0280   34.4400   46.0260 N   0  0  0  0  0  0  0  0  0  0  0  0
   43.8010   36.0260   45.4310 H   0  0  0  0  0  0  0  0  0  0  0  0
   44.7680   36.1960   43.1470 H   0  0  0  0  0  0  0  0  0  0  0  0
   46.7090   34.6640   42.1680 C   0  0  0  0  0  0  0  0  0  0  0  0
   47.4200   33.5060   41.8650 F   0  0  0  0  0  0  0  0  0  0  0  0
   47.5660   35.7160   42.1700 F   0  0  0  0  0  0  0  0  0  0  0  0
   45.7220   34.7570   41.1940 F   0  0  0  0  0  0  0  0  0  0  0  0
  1  7  1  6  0  0  0
  1 26  1  0  0  0  0
  1  2  1  0  0  0  0
  2  8  1  0  0  0  0
  2  9  1  0  0  0  0
  3  2  1  0  0  0  0
  3 11  1  0  0  0  0
  3 10  1  0  0  0  0
  4 12  1  0  0  0  0
  4  3  1  0  0  0  0
  5  6  1  0  0  0  0
  5  4  1  0  0  0  0
  6 16  1  6  0  0  0
  6 17  1  0  0  0  0
  6  1  1  0  0  0  0
 13  4  1  0  0  0  0
 14  5  1  0  0  0  0
 15  5  1  0  0  0  0
 17 18  1  0  0  0  0
 17 19  1  0  0  0  0
 20 25  1  0  0  0  0
 20 17  1  0  0  0  0
 21 20  1  0  0  0  0
 22 21  1  0  0  0  0
 23 22  1  0  0  0  0
 23 24  1  0  0  0  0
 24 25  1  0  0  0  0
 26 27  2  0  0  0  0
 28 34  1  0  0  0  0
 28 33  1  0  0  0  0
 29 28  2  0  0  0  0
 30 29  1  0  0  0  0
 30 31  2  0  0  0  0
 31 32  1  0  0  0  0
 32 33  2  0  0  0  0
 32 26  1  0  0  0  0
 35 29  1  0  0  0  0
 36 38  1  0  0  0  0
 36 30  1  0  0  0  0
 37 36  1  0  0  0  0
 39 36  1  0  0  0  0
M  END
>  <minimizedAffinity>
-5.33617163

>  <minimizedRMSD>
1.20818841

$$$$
