
 OpenBabel03252509263D

 27 29  0  0  1  0  0  0  0  0999 V2000
   46.5470   35.0180   41.9310 C   0  0  1  0  0  0  0  0  0  0  0  0
   48.0750   35.3130   41.9400 C   0  0  0  0  0  0  0  0  0  0  0  0
   47.3780   34.0320   41.3790 C   0  0  2  0  0  0  0  0  0  0  0  0
   45.9700   35.7440   41.3180 H   0  0  0  0  0  0  0  0  0  0  0  0
   48.4270   35.9880   41.1350 H   0  0  0  0  0  0  0  0  0  0  0  0
   48.6270   35.2350   42.8710 H   0  0  0  0  0  0  0  0  0  0  0  0
   47.6110   33.1340   42.0310 H   0  0  0  0  0  0  0  0  0  0  0  0
   44.6350   35.4570   45.1310 C   0  0  0  0  0  0  0  0  0  0  0  0
   45.1000   35.7300   43.8120 C   0  0  0  0  0  0  0  0  0  0  0  0
   46.0300   34.8630   43.3410 C   0  0  0  0  0  0  0  0  0  0  0  0
   46.4910   33.8010   44.0890 N   0  0  0  0  0  0  0  0  0  0  0  0
   46.0250   33.5750   45.3430 C   0  0  0  0  0  0  0  0  0  0  0  0
   45.0880   34.4150   45.8610 N   0  0  0  0  0  0  0  0  0  0  0  0
   43.8840   36.1590   45.5080 H   0  0  0  0  0  0  0  0  0  0  0  0
   46.3530   32.7640   45.9590 H   0  0  0  0  0  0  0  0  0  0  0  0
   44.6470   36.8320   43.0480 N   0  0  0  0  0  0  0  0  0  0  0  0
   43.9960   36.8100   42.2150 H   0  0  0  0  0  0  0  0  0  0  0  0
   44.9270   37.8390   43.2430 H   0  0  0  0  0  0  0  0  0  0  0  0
   47.4510   33.7870   39.8860 C   0  0  0  0  0  0  0  0  0  0  0  0
   46.4540   33.9680   39.4280 H   0  0  0  0  0  0  0  0  0  0  0  0
   48.1770   34.5160   39.4390 H   0  0  0  0  0  0  0  0  0  0  0  0
   47.8910   32.3560   39.6420 C   0  0  0  0  0  3  0  0  0  0  0  0
   49.3410   32.2670   39.3250 C   0  0  0  0  0  2  0  0  0  0  0  0
   50.0800   31.0750   39.7910 C   0  0  0  0  0  2  0  0  0  0  0  0
   49.1150   29.9450   40.0830 C   0  0  0  0  0  2  0  0  0  0  0  0
   48.3110   30.4620   41.2620 C   0  0  0  0  0  2  0  0  0  0  0  0
   47.3690   31.4980   40.7210 C   0  0  0  0  0  2  0  0  0  0  0  0
  1  4  1  6  0  0  0
  1  2  1  0  0  0  0
  1 10  1  0  0  0  0
  2  6  1  0  0  0  0
  3  1  1  0  0  0  0
  3  2  1  0  0  0  0
  3  7  1  1  0  0  0
  5  2  1  0  0  0  0
  8 14  1  0  0  0  0
  8 13  1  0  0  0  0
  9  8  2  0  0  0  0
 10  9  1  0  0  0  0
 10 11  2  0  0  0  0
 11 12  1  0  0  0  0
 12 13  2  0  0  0  0
 12 15  1  0  0  0  0
 16 18  1  0  0  0  0
 16  9  1  0  0  0  0
 17 16  1  0  0  0  0
 19  3  1  0  0  0  0
 20 19  1  0  0  0  0
 21 19  1  0  0  0  0
 22 19  1  0  0  0  0
 22 27  1  0  0  0  0
 23 22  1  0  0  0  0
 23 24  1  0  0  0  0
 24 25  1  0  0  0  0
 25 26  1  0  0  0  0
 27 26  1  0  0  0  0
M  END
>  <minimizedAffinity>
-4.47556353

>  <minimizedRMSD>
0.675379097

$$$$
