
 OpenBabel03252508503D

 25 27  0  0  0  0  0  0  0  0999 V2000
   45.9420   34.1660   41.0300 C   0  0  0  0  0  0  0  0  0  0  0  0
   46.5310   34.7980   42.1190 C   0  0  0  0  0  0  0  0  0  0  0  0
   47.8710   35.1800   42.0020 C   0  0  0  0  0  0  0  0  0  0  0  0
   48.5190   34.9130   40.8360 N   0  0  0  0  0  0  0  0  0  0  0  0
   47.9090   34.2970   39.8050 C   0  0  0  0  0  0  0  0  0  0  0  0
   46.6120   33.9220   39.9060 N   0  0  0  0  0  0  0  0  0  0  0  0
   48.3600   35.6810   42.8440 H   0  0  0  0  0  0  0  0  0  0  0  0
   48.4380   34.0910   38.8850 H   0  0  0  0  0  0  0  0  0  0  0  0
   45.7520   35.0440   43.3340 C   0  0  0  0  0  0  0  0  0  0  0  0
   45.0740   36.2170   43.5730 C   0  0  0  0  0  0  0  0  0  0  0  0
   44.4930   36.0200   44.8030 C   0  0  0  0  0  0  0  0  0  0  0  0
   44.8030   34.7880   45.2920 N   0  0  0  0  0  0  0  0  0  0  0  0
   45.5640   34.2270   44.3810 N   0  0  0  0  0  0  0  0  0  0  0  0
   45.0320   37.0580   42.9270 H   0  0  0  0  0  0  0  0  0  0  0  0
   43.8690   36.7230   45.3440 H   0  0  0  0  0  0  0  0  0  0  0  0
   44.4930   34.3920   46.2000 H   0  0  0  0  0  0  0  0  0  0  0  0
   44.6250   33.7890   41.1430 O   0  0  0  0  0  0  0  0  0  0  0  0
   43.5380   34.4570   40.6580 C   0  0  0  0  0  0  0  0  0  0  0  0
   43.3520   35.7180   40.6140 O   0  0  0  0  0  0  0  0  0  0  0  0
   42.2280   34.0390   40.0290 C   0  0  0  0  0  3  0  0  0  0  0  0
   42.4540   33.5760   38.6130 C   0  0  0  0  0  2  0  0  0  0  0  0
   41.1500   32.9320   38.1770 C   0  0  0  0  0  2  0  0  0  0  0  0
   40.1170   34.0180   38.0310 C   0  0  0  0  0  2  0  0  0  0  0  0
   40.4040   35.2650   38.7950 C   0  0  0  0  0  2  0  0  0  0  0  0
   41.1790   35.0850   40.0610 C   0  0  0  0  0  2  0  0  0  0  0  0
  1 17  1  0  0  0  0
  1  2  1  0  0  0  0
  2  9  1  0  0  0  0
  3  2  2  0  0  0  0
  3  7  1  0  0  0  0
  4  3  1  0  0  0  0
  5  6  1  0  0  0  0
  5  4  2  0  0  0  0
  6  1  2  0  0  0  0
  8  5  1  0  0  0  0
  9 10  1  0  0  0  0
  9 13  2  0  0  0  0
 10 11  2  0  0  0  0
 11 12  1  0  0  0  0
 11 15  1  0  0  0  0
 12 16  1  0  0  0  0
 13 12  1  0  0  0  0
 14 10  1  0  0  0  0
 18 17  1  0  0  0  0
 19 18  2  0  0  0  0
 20 25  1  0  0  0  0
 20 18  1  0  0  0  0
 21 20  1  0  0  0  0
 22 21  1  0  0  0  0
 23 22  1  0  0  0  0
 23 24  1  0  0  0  0
 24 25  1  0  0  0  0
M  END
>  <minimizedAffinity>
-5.76972866

>  <minimizedRMSD>
0.766725421

$$$$
