
 OpenBabel03252507043D

 44 47  0  0  0  0  0  0  0  0999 V2000
   41.8800   31.4840   42.0660 C   0  0  0  0  0  0  0  0  0  0  0  0
   41.7930   32.1390   41.1330 H   0  0  0  0  0  0  0  0  0  0  0  0
   41.4130   32.1140   42.8550 H   0  0  0  0  0  0  0  0  0  0  0  0
   41.3060   30.2870   41.9420 N   0  0  0  0  0  0  0  0  0  0  0  0
   41.3860   29.1740   42.8270 C   0  0  0  0  0  0  0  0  0  0  0  0
   39.9880   29.2590   43.4380 C   0  0  0  0  0  0  0  0  0  0  0  0
   38.9100   29.1360   42.4720 C   0  0  0  0  0  0  0  0  0  0  0  0
   39.1610   29.4670   41.0860 C   0  0  0  0  0  0  0  0  0  0  0  0
   40.4680   30.1300   40.7260 C   0  0  0  0  0  0  0  0  0  0  0  0
   42.0960   29.4740   43.6490 H   0  0  0  0  0  0  0  0  0  0  0  0
   41.6500   28.2060   42.4360 H   0  0  0  0  0  0  0  0  0  0  0  0
   39.9580   28.4490   44.2050 H   0  0  0  0  0  0  0  0  0  0  0  0
   39.9790   30.2160   44.0280 H   0  0  0  0  0  0  0  0  0  0  0  0
   38.5160   28.0770   42.4850 H   0  0  0  0  0  0  0  0  0  0  0  0
   38.0280   29.7380   42.8170 H   0  0  0  0  0  0  0  0  0  0  0  0
   38.5080   29.3170   40.2730 H   0  0  0  0  0  0  0  0  0  0  0  0
   40.8550   30.6470   39.1240 S   0  0  0  0  0  0  0  0  0  0  0  0
   40.4400   32.2850   38.6130 C   0  0  0  0  0  3  0  0  0  0  0  0
   41.5780   33.2200   38.3450 C   0  0  0  0  0  2  0  0  0  0  0  0
   41.0140   34.6230   38.2080 C   0  0  0  0  0  2  0  0  0  0  0  0
   39.6040   34.6290   37.6530 C   0  0  0  0  0  2  0  0  0  0  0  0
   38.6400   33.9260   38.5880 C   0  0  0  0  0  2  0  0  0  0  0  0
   39.4510   33.0080   39.5130 C   0  0  0  0  0  2  0  0  0  0  0  0
   43.3430   31.4160   42.3290 C   0  0  0  0  0  0  0  0  0  0  0  0
   43.4920   31.2230   43.4320 H   0  0  0  0  0  0  0  0  0  0  0  0
   43.8220   30.6040   41.7520 H   0  0  0  0  0  0  0  0  0  0  0  0
   43.9310   32.7290   42.0220 C   0  0  0  0  0  0  0  0  0  0  0  0
   43.1390   33.7670   41.5940 C   0  0  0  0  0  0  0  0  0  0  0  0
   43.7380   34.9820   41.3020 C   0  0  0  0  0  0  0  0  0  0  0  0
   45.0950   35.0860   41.4590 N   0  0  0  0  0  0  0  0  0  0  0  0
   45.8290   34.0610   41.8770 C   0  0  0  0  0  0  0  0  0  0  0  0
   45.2270   32.9020   42.1500 N   0  0  0  0  0  0  0  0  0  0  0  0
   42.0810   33.8880   41.4280 H   0  0  0  0  0  0  0  0  0  0  0  0
   43.2790   35.9040   40.9530 H   0  0  0  0  0  0  0  0  0  0  0  0
   47.2660   34.2770   42.0440 C   0  0  0  0  0  0  0  0  0  0  0  0
   48.0600   33.2960   42.6310 C   0  0  0  0  0  0  0  0  0  0  0  0
   49.4110   33.5090   42.7950 C   0  0  0  0  0  0  0  0  0  0  0  0
   49.8550   34.7240   42.3420 C   0  0  0  0  0  0  0  0  0  0  0  0
   49.1070   35.7420   41.7470 C   0  0  0  0  0  0  0  0  0  0  0  0
   47.7870   35.4450   41.6250 N   0  0  0  0  0  0  0  0  0  0  0  0
   47.6420   32.3490   42.9720 H   0  0  0  0  0  0  0  0  0  0  0  0
   50.1060   32.8120   43.2390 H   0  0  0  0  0  0  0  0  0  0  0  0
   50.9250   34.9400   42.4520 H   0  0  0  0  0  0  0  0  0  0  0  0
   49.5490   36.6520   41.4280 H   0  0  0  0  0  0  0  0  0  0  0  0
  1 24  1  0  0  0  0
  1  3  1  0  0  0  0
  2  1  1  0  0  0  0
  4  1  1  0  0  0  0
  4  5  1  0  0  0  0
  5  6  1  0  0  0  0
  5 10  1  0  0  0  0
  6 13  1  0  0  0  0
  6 12  1  0  0  0  0
  7 14  1  0  0  0  0
  7 15  1  0  0  0  0
  7  6  1  0  0  0  0
  8  7  1  0  0  0  0
  9  8  2  0  0  0  0
  9  4  1  0  0  0  0
 11  5  1  0  0  0  0
 16  8  1  0  0  0  0
 17  9  1  0  0  0  0
 18 17  1  0  0  0  0
 18 23  1  0  0  0  0
 19 18  1  0  0  0  0
 20 19  1  0  0  0  0
 21 20  1  0  0  0  0
 21 22  1  0  0  0  0
 22 23  1  0  0  0  0
 24 25  1  0  0  0  0
 26 24  1  0  0  0  0
 27 32  1  0  0  0  0
 27 24  1  0  0  0  0
 28 27  2  0  0  0  0
 29 30  2  0  0  0  0
 29 28  1  0  0  0  0
 30 31  1  0  0  0  0
 31 35  1  0  0  0  0
 31 32  2  0  0  0  0
 33 28  1  0  0  0  0
 34 29  1  0  0  0  0
 35 36  1  0  0  0  0
 36 37  2  0  0  0  0
 36 41  1  0  0  0  0
 37 42  1  0  0  0  0
 38 43  1  0  0  0  0
 38 37  1  0  0  0  0
 39 38  2  0  0  0  0
 40 39  1  0  0  0  0
 40 35  2  0  0  0  0
 44 39  1  0  0  0  0
M  END
>  <minimizedAffinity>
-5.48007774

>  <minimizedRMSD>
3.46251345

$$$$
