
 OpenBabel03242517143D

 20 21  0  0  0  0  0  0  0  0999 V2000
   36.8840   27.5960   42.1920 C   0  0  0  0  0  3  0  0  0  0  0  0
   36.5310   27.9550   40.9820 C   0  0  0  0  0  3  0  0  0  0  0  0
   38.9810   26.9180   43.3530 C   0  0  0  0  0  0  0  0  0  0  0  0
   37.8730   26.6100   42.5740 C   0  0  0  0  0  0  0  0  0  0  0  0
   37.7040   25.3090   42.1390 C   0  0  0  0  0  0  0  0  0  0  0  0
   38.6390   24.3730   42.4960 N   0  0  0  0  0  0  0  0  0  0  0  0
   39.7090   24.6980   43.2540 C   0  0  0  0  0  0  0  0  0  0  0  0
   39.8730   25.9650   43.6770 N   0  0  0  0  0  0  0  0  0  0  0  0
   39.1190   27.9440   43.7000 H   0  0  0  0  0  0  0  0  0  0  0  0
   36.8810   24.9540   41.5280 H   0  0  0  0  0  0  0  0  0  0  0  0
   40.4500   23.9470   43.5340 H   0  0  0  0  0  0  0  0  0  0  0  0
   35.4950   28.9880   40.7050 C   0  0  0  0  0  0  0  0  0  0  0  0
   35.1090   29.4380   41.6390 H   0  0  0  0  0  0  0  0  0  0  0  0
   34.6230   28.5240   40.2070 H   0  0  0  0  0  0  0  0  0  0  0  0
   36.0260   30.1370   39.8810 C   0  0  0  0  0  3  0  0  0  0  0  0
   36.6750   31.1700   40.7610 C   0  0  0  0  0  2  0  0  0  0  0  0
   37.1750   32.3270   39.9620 C   0  0  0  0  0  2  0  0  0  0  0  0
   37.9740   31.9130   38.7520 C   0  0  0  0  0  2  0  0  0  0  0  0
   37.1460   30.9530   37.9100 C   0  0  0  0  0  2  0  0  0  0  0  0
   36.9270   29.7070   38.7530 C   0  0  0  0  0  2  0  0  0  0  0  0
  1  4  1  0  0  0  0
  2  1  2  0  0  0  0
  3  8  1  0  0  0  0
  3  9  1  0  0  0  0
  4  3  2  0  0  0  0
  5  6  2  0  0  0  0
  5  4  1  0  0  0  0
  6  7  1  0  0  0  0
  7 11  1  0  0  0  0
  7  8  2  0  0  0  0
 10  5  1  0  0  0  0
 12  2  1  0  0  0  0
 12 13  1  0  0  0  0
 14 12  1  0  0  0  0
 15 12  1  0  0  0  0
 15 16  1  0  0  0  0
 17 16  1  0  0  0  0
 18 17  1  0  0  0  0
 19 18  1  0  0  0  0
 19 20  1  0  0  0  0
 20 15  1  0  0  0  0
M  END
>  <minimizedAffinity>
-4.7679019

$$$$

 OpenBabel03242517143D

 20 21  0  0  0  0  0  0  0  0999 V2000
   37.3610   29.8150   41.2590 C   0  0  0  0  0  3  0  0  0  0  0  0
   37.3820   29.2670   42.4500 C   0  0  0  0  0  3  0  0  0  0  0  0
   39.0390   31.6550   41.2500 C   0  0  0  0  0  0  0  0  0  0  0  0
   37.8020   31.1410   40.8820 C   0  0  0  0  0  0  0  0  0  0  0  0
   36.9520   31.9250   40.1270 C   0  0  0  0  0  0  0  0  0  0  0  0
   37.3640   33.1830   39.7710 N   0  0  0  0  0  0  0  0  0  0  0  0
   38.5720   33.6610   40.1410 C   0  0  0  0  0  0  0  0  0  0  0  0
   39.4000   32.8960   40.8760 N   0  0  0  0  0  0  0  0  0  0  0  0
   39.7150   31.0400   41.8460 H   0  0  0  0  0  0  0  0  0  0  0  0
   35.9660   31.6310   39.7830 H   0  0  0  0  0  0  0  0  0  0  0  0
   38.8940   34.6630   39.8540 H   0  0  0  0  0  0  0  0  0  0  0  0
   36.9000   27.8860   42.7240 C   0  0  0  0  0  0  0  0  0  0  0  0
   36.0850   27.5950   42.0350 H   0  0  0  0  0  0  0  0  0  0  0  0
   36.4710   27.8300   43.7420 H   0  0  0  0  0  0  0  0  0  0  0  0
   37.9810   26.8470   42.5470 C   0  0  0  0  0  3  0  0  0  0  0  0
   38.9700   26.9040   43.6790 C   0  0  0  0  0  2  0  0  0  0  0  0
   40.0620   25.9040   43.4980 C   0  0  0  0  0  2  0  0  0  0  0  0
   39.5540   24.5260   43.1510 C   0  0  0  0  0  2  0  0  0  0  0  0
   38.6550   24.6180   41.9270 C   0  0  0  0  0  2  0  0  0  0  0  0
   37.4510   25.4540   42.3280 C   0  0  0  0  0  2  0  0  0  0  0  0
  1  2  2  0  0  0  0
  2 12  1  0  0  0  0
  3  9  1  0  0  0  0
  4  3  1  0  0  0  0
  4  1  1  0  0  0  0
  5  4  2  0  0  0  0
  6  5  1  0  0  0  0
  6  7  2  0  0  0  0
  7  8  1  0  0  0  0
  8  3  2  0  0  0  0
 10  5  1  0  0  0  0
 11  7  1  0  0  0  0
 12 14  1  0  0  0  0
 13 12  1  0  0  0  0
 15 12  1  0  0  0  0
 15 16  1  0  0  0  0
 17 16  1  0  0  0  0
 18 17  1  0  0  0  0
 19 20  1  0  0  0  0
 19 18  1  0  0  0  0
 20 15  1  0  0  0  0
M  END
>  <minimizedAffinity>
-4.73941135

$$$$

 OpenBabel03242517143D

 20 21  0  0  0  0  0  0  0  0999 V2000
   37.0460   29.7540   41.4870 C   0  0  0  0  0  3  0  0  0  0  0  0
   37.3250   29.0650   42.5660 C   0  0  0  0  0  3  0  0  0  0  0  0
   36.9490   31.9310   40.2780 C   0  0  0  0  0  0  0  0  0  0  0  0
   37.6350   31.0040   41.0540 C   0  0  0  0  0  0  0  0  0  0  0  0
   38.9360   31.2810   41.4280 C   0  0  0  0  0  0  0  0  0  0  0  0
   39.4990   32.4610   41.0180 N   0  0  0  0  0  0  0  0  0  0  0  0
   38.8110   33.3460   40.2640 C   0  0  0  0  0  0  0  0  0  0  0  0
   37.5440   33.0760   39.9000 N   0  0  0  0  0  0  0  0  0  0  0  0
   35.9210   31.7180   39.9800 H   0  0  0  0  0  0  0  0  0  0  0  0
   39.5670   30.6350   42.0300 H   0  0  0  0  0  0  0  0  0  0  0  0
   39.2660   34.2840   39.9410 H   0  0  0  0  0  0  0  0  0  0  0  0
   36.6530   27.7820   42.9130 C   0  0  0  0  0  0  0  0  0  0  0  0
   35.9600   27.4570   42.1140 H   0  0  0  0  0  0  0  0  0  0  0  0
   36.0320   27.9150   43.8180 H   0  0  0  0  0  0  0  0  0  0  0  0
   37.6300   26.6460   43.1010 C   0  0  0  0  0  3  0  0  0  0  0  0
   37.4750   25.6220   42.0110 C   0  0  0  0  0  2  0  0  0  0  0  0
   38.4130   24.4770   42.2050 C   0  0  0  0  0  2  0  0  0  0  0  0
   39.8290   24.9110   42.4900 C   0  0  0  0  0  2  0  0  0  0  0  0
   39.8320   25.8590   43.6800 C   0  0  0  0  0  2  0  0  0  0  0  0
   39.0590   27.0970   43.2570 C   0  0  0  0  0  2  0  0  0  0  0  0
  1  2  2  0  0  0  0
  2 12  1  0  0  0  0
  3  4  1  0  0  0  0
  4  5  2  0  0  0  0
  4  1  1  0  0  0  0
  5 10  1  0  0  0  0
  6  5  1  0  0  0  0
  7  6  2  0  0  0  0
  8  7  1  0  0  0  0
  8  3  2  0  0  0  0
  9  3  1  0  0  0  0
 11  7  1  0  0  0  0
 12 15  1  0  0  0  0
 12 14  1  0  0  0  0
 13 12  1  0  0  0  0
 15 20  1  0  0  0  0
 16 17  1  0  0  0  0
 16 15  1  0  0  0  0
 17 18  1  0  0  0  0
 18 19  1  0  0  0  0
 20 19  1  0  0  0  0
M  END
>  <minimizedAffinity>
-4.60344648

$$$$

 OpenBabel03242517143D

 20 21  0  0  0  0  0  0  0  0999 V2000
   37.4740   29.0710   41.8200 C   0  0  0  0  0  3  0  0  0  0  0  0
   37.3020   28.6370   43.0440 C   0  0  0  0  0  3  0  0  0  0  0  0
   36.9360   31.2290   40.6970 C   0  0  0  0  0  0  0  0  0  0  0  0
   37.8180   30.4110   41.3920 C   0  0  0  0  0  0  0  0  0  0  0  0
   39.0800   30.8900   41.6870 C   0  0  0  0  0  0  0  0  0  0  0  0
   39.4110   32.1560   41.2820 N   0  0  0  0  0  0  0  0  0  0  0  0
   38.5360   32.9330   40.6070 C   0  0  0  0  0  0  0  0  0  0  0  0
   37.3060   32.4660   40.3200 N   0  0  0  0  0  0  0  0  0  0  0  0
   35.9370   30.8570   40.4620 H   0  0  0  0  0  0  0  0  0  0  0  0
   39.8490   30.3430   42.2220 H   0  0  0  0  0  0  0  0  0  0  0  0
   38.8060   33.9400   40.2870 H   0  0  0  0  0  0  0  0  0  0  0  0
   36.9480   27.2280   43.3700 C   0  0  0  0  0  0  0  0  0  0  0  0
   35.8540   27.0630   43.3280 H   0  0  0  0  0  0  0  0  0  0  0  0
   37.2510   26.9930   44.4080 H   0  0  0  0  0  0  0  0  0  0  0  0
   37.5530   26.2380   42.4040 C   0  0  0  0  0  3  0  0  0  0  0  0
   38.9790   25.9330   42.7730 C   0  0  0  0  0  2  0  0  0  0  0  0
   39.5980   24.9810   41.8050 C   0  0  0  0  0  2  0  0  0  0  0  0
   38.7330   23.7790   41.5180 C   0  0  0  0  0  2  0  0  0  0  0  0
   37.3610   24.2490   41.0570 C   0  0  0  0  0  2  0  0  0  0  0  0
   36.7330   24.9860   42.2290 C   0  0  0  0  0  2  0  0  0  0  0  0
  1  2  2  0  0  0  0
  2 12  1  0  0  0  0
  3  4  1  0  0  0  0
  4  5  2  0  0  0  0
  4  1  1  0  0  0  0
  5 10  1  0  0  0  0
  6  5  1  0  0  0  0
  7  6  2  0  0  0  0
  8  7  1  0  0  0  0
  8  3  2  0  0  0  0
  9  3  1  0  0  0  0
 11  7  1  0  0  0  0
 12 14  1  0  0  0  0
 13 12  1  0  0  0  0
 15 16  1  0  0  0  0
 15 12  1  0  0  0  0
 17 16  1  0  0  0  0
 18 17  1  0  0  0  0
 19 18  1  0  0  0  0
 19 20  1  0  0  0  0
 20 15  1  0  0  0  0
M  END
>  <minimizedAffinity>
-4.53411722

$$$$

 OpenBabel03242517143D

 20 21  0  0  0  0  0  0  0  0999 V2000
   37.8720   25.9720   42.5020 C   0  0  0  0  0  3  0  0  0  0  0  0
   36.9660   26.8770   42.7810 C   0  0  0  0  0  3  0  0  0  0  0  0
   36.5170   24.4100   41.1120 C   0  0  0  0  0  0  0  0  0  0  0  0
   37.7350   24.8120   41.6460 C   0  0  0  0  0  0  0  0  0  0  0  0
   38.8670   24.0760   41.3530 C   0  0  0  0  0  0  0  0  0  0  0  0
   38.7420   22.9760   40.5450 N   0  0  0  0  0  0  0  0  0  0  0  0
   37.5460   22.6050   40.0390 C   0  0  0  0  0  0  0  0  0  0  0  0
   36.4440   23.3230   40.3240 N   0  0  0  0  0  0  0  0  0  0  0  0
   35.6200   24.9890   41.3390 H   0  0  0  0  0  0  0  0  0  0  0  0
   39.8670   24.2940   41.7120 H   0  0  0  0  0  0  0  0  0  0  0  0
   37.4540   21.7280   39.3970 H   0  0  0  0  0  0  0  0  0  0  0  0
   37.2190   28.0370   43.6800 C   0  0  0  0  0  0  0  0  0  0  0  0
   38.0700   27.8460   44.3610 H   0  0  0  0  0  0  0  0  0  0  0  0
   36.3410   28.2080   44.3310 H   0  0  0  0  0  0  0  0  0  0  0  0
   37.5700   29.2950   42.9220 C   0  0  0  0  0  3  0  0  0  0  0  0
   39.0600   29.4990   42.8860 C   0  0  0  0  0  2  0  0  0  0  0  0
   39.4180   30.7570   42.1670 C   0  0  0  0  0  2  0  0  0  0  0  0
   38.7120   30.9060   40.8430 C   0  0  0  0  0  2  0  0  0  0  0  0
   37.2110   30.7800   41.0590 C   0  0  0  0  0  2  0  0  0  0  0  0
   36.9550   29.3640   41.5480 C   0  0  0  0  0  2  0  0  0  0  0  0
  1  2  2  0  0  0  0
  2 12  1  0  0  0  0
  3  9  1  0  0  0  0
  3  4  1  0  0  0  0
  4  1  1  0  0  0  0
  5  4  2  0  0  0  0
  5 10  1  0  0  0  0
  6  5  1  0  0  0  0
  7  8  1  0  0  0  0
  7  6  2  0  0  0  0
  8  3  2  0  0  0  0
 11  7  1  0  0  0  0
 12 14  1  0  0  0  0
 12 13  1  0  0  0  0
 15 12  1  0  0  0  0
 16 15  1  0  0  0  0
 17 16  1  0  0  0  0
 18 19  1  0  0  0  0
 18 17  1  0  0  0  0
 19 20  1  0  0  0  0
 20 15  1  0  0  0  0
M  END
>  <minimizedAffinity>
-4.24728394

$$$$

 OpenBabel03242517143D

 20 21  0  0  0  0  0  0  0  0999 V2000
   34.4860   28.9470   37.5860 C   0  0  0  0  0  3  0  0  0  0  0  0
   33.1760   28.9310   37.6010 C   0  0  0  0  0  3  0  0  0  0  0  0
   36.7330   28.5410   38.5820 C   0  0  0  0  0  0  0  0  0  0  0  0
   35.3890   28.8680   38.7150 C   0  0  0  0  0  0  0  0  0  0  0  0
   34.8870   29.1270   39.9760 C   0  0  0  0  0  0  0  0  0  0  0  0
   35.7380   29.0500   41.0470 N   0  0  0  0  0  0  0  0  0  0  0  0
   37.0410   28.7290   40.8930 C   0  0  0  0  0  0  0  0  0  0  0  0
   37.5290   28.4780   39.6640 N   0  0  0  0  0  0  0  0  0  0  0  0
   37.1350   28.3360   37.5880 H   0  0  0  0  0  0  0  0  0  0  0  0
   33.8590   29.3900   40.1990 H   0  0  0  0  0  0  0  0  0  0  0  0
   37.7120   28.6700   41.7510 H   0  0  0  0  0  0  0  0  0  0  0  0
   32.3420   29.0180   36.3700 C   0  0  0  0  0  0  0  0  0  0  0  0
   31.4800   28.3260   36.4130 H   0  0  0  0  0  0  0  0  0  0  0  0
   32.9360   28.7090   35.4900 H   0  0  0  0  0  0  0  0  0  0  0  0
   31.7580   30.3940   36.1600 C   0  0  0  0  0  3  0  0  0  0  0  0
   31.6150   30.6960   34.6930 C   0  0  0  0  0  2  0  0  0  0  0  0
   31.0680   32.0670   34.4710 C   0  0  0  0  0  2  0  0  0  0  0  0
   29.8540   32.3650   35.3150 C   0  0  0  0  0  2  0  0  0  0  0  0
   30.1870   32.1130   36.7780 C   0  0  0  0  0  2  0  0  0  0  0  0
   30.4740   30.6270   36.9130 C   0  0  0  0  0  2  0  0  0  0  0  0
  1  2  2  0  0  0  0
  1  4  1  0  0  0  0
  3  4  2  0  0  0  0
  3  8  1  0  0  0  0
  4  5  1  0  0  0  0
  5 10  1  0  0  0  0
  5  6  2  0  0  0  0
  7  6  1  0  0  0  0
  7 11  1  0  0  0  0
  8  7  2  0  0  0  0
  9  3  1  0  0  0  0
 12 13  1  0  0  0  0
 12  2  1  0  0  0  0
 14 12  1  0  0  0  0
 15 12  1  0  0  0  0
 15 20  1  0  0  0  0
 16 15  1  0  0  0  0
 17 16  1  0  0  0  0
 17 18  1  0  0  0  0
 18 19  1  0  0  0  0
 19 20  1  0  0  0  0
M  END
>  <minimizedAffinity>
-4.23959684

$$$$

 OpenBabel03242517143D

 20 21  0  0  0  0  0  0  0  0999 V2000
   36.5080   27.7510   40.6310 C   0  0  0  0  0  3  0  0  0  0  0  0
   36.7090   28.9600   41.0940 C   0  0  0  0  0  3  0  0  0  0  0  0
   36.8270   25.2830   40.5070 C   0  0  0  0  0  0  0  0  0  0  0  0
   37.0990   26.5130   41.0940 C   0  0  0  0  0  0  0  0  0  0  0  0
   37.9690   26.5620   42.1660 C   0  0  0  0  0  0  0  0  0  0  0  0
   38.5280   25.3920   42.6100 N   0  0  0  0  0  0  0  0  0  0  0  0
   38.2470   24.2090   42.0230 C   0  0  0  0  0  0  0  0  0  0  0  0
   37.4010   24.1610   40.9770 N   0  0  0  0  0  0  0  0  0  0  0  0
   36.1420   25.2390   39.6590 H   0  0  0  0  0  0  0  0  0  0  0  0
   38.2540   27.4610   42.7020 H   0  0  0  0  0  0  0  0  0  0  0  0
   38.6970   23.2810   42.3810 H   0  0  0  0  0  0  0  0  0  0  0  0
   36.0410   30.1700   40.5380 C   0  0  0  0  0  0  0  0  0  0  0  0
   35.1150   30.4150   41.0920 H   0  0  0  0  0  0  0  0  0  0  0  0
   35.7290   29.9820   39.4930 H   0  0  0  0  0  0  0  0  0  0  0  0
   36.9100   31.4020   40.6180 C   0  0  0  0  0  3  0  0  0  0  0  0
   38.2900   31.0530   41.1050 C   0  0  0  0  0  2  0  0  0  0  0  0
   39.1480   32.2680   41.2200 C   0  0  0  0  0  2  0  0  0  0  0  0
   39.0970   33.1500   39.9970 C   0  0  0  0  0  2  0  0  0  0  0  0
   37.6480   33.5010   39.6940 C   0  0  0  0  0  2  0  0  0  0  0  0
   36.9450   32.2010   39.3410 C   0  0  0  0  0  2  0  0  0  0  0  0
  1  2  2  0  0  0  0
  1  4  1  0  0  0  0
  3  8  2  0  0  0  0
  3  4  1  0  0  0  0
  4  5  2  0  0  0  0
  5  6  1  0  0  0  0
  5 10  1  0  0  0  0
  7 11  1  0  0  0  0
  7  6  2  0  0  0  0
  8  7  1  0  0  0  0
  9  3  1  0  0  0  0
 12 15  1  0  0  0  0
 12 13  1  0  0  0  0
 12  2  1  0  0  0  0
 14 12  1  0  0  0  0
 15 16  1  0  0  0  0
 16 17  1  0  0  0  0
 18 17  1  0  0  0  0
 19 18  1  0  0  0  0
 20 19  1  0  0  0  0
 20 15  1  0  0  0  0
M  END
>  <minimizedAffinity>
-4.21330404

$$$$

 OpenBabel03242517143D

 20 21  0  0  0  0  0  0  0  0999 V2000
   37.7610   30.6220   39.3590 C   0  0  0  0  0  3  0  0  0  0  0  0
   36.5430   30.3470   39.7560 C   0  0  0  0  0  3  0  0  0  0  0  0
   38.1800   32.7670   40.5540 C   0  0  0  0  0  0  0  0  0  0  0  0
   38.5120   31.8410   39.5730 C   0  0  0  0  0  0  0  0  0  0  0  0
   39.6020   32.0910   38.7620 C   0  0  0  0  0  0  0  0  0  0  0  0
   40.3140   33.2450   38.9580 N   0  0  0  0  0  0  0  0  0  0  0  0
   39.9710   34.1310   39.9190 C   0  0  0  0  0  0  0  0  0  0  0  0
   38.9090   33.8870   40.7100 N   0  0  0  0  0  0  0  0  0  0  0  0
   37.3210   32.5740   41.1980 H   0  0  0  0  0  0  0  0  0  0  0  0
   39.9530   31.4430   37.9660 H   0  0  0  0  0  0  0  0  0  0  0  0
   40.5420   35.0480   40.0700 H   0  0  0  0  0  0  0  0  0  0  0  0
   35.8660   29.0500   39.4790 C   0  0  0  0  0  0  0  0  0  0  0  0
   36.2520   28.5780   38.5560 H   0  0  0  0  0  0  0  0  0  0  0  0
   34.7860   29.2180   39.3060 H   0  0  0  0  0  0  0  0  0  0  0  0
   36.0750   28.0380   40.5800 C   0  0  0  0  0  3  0  0  0  0  0  0
   36.9260   26.8940   40.0990 C   0  0  0  0  0  2  0  0  0  0  0  0
   37.1130   25.8700   41.1690 C   0  0  0  0  0  2  0  0  0  0  0  0
   37.5160   26.4640   42.4950 C   0  0  0  0  0  2  0  0  0  0  0  0
   36.5050   27.5280   42.8950 C   0  0  0  0  0  2  0  0  0  0  0  0
   36.6000   28.6360   41.8590 C   0  0  0  0  0  2  0  0  0  0  0  0
  1  4  1  0  0  0  0
  1  2  2  0  0  0  0
  3  8  1  0  0  0  0
  3  9  1  0  0  0  0
  4  3  2  0  0  0  0
  5  6  2  0  0  0  0
  5  4  1  0  0  0  0
  6  7  1  0  0  0  0
  7 11  1  0  0  0  0
  7  8  2  0  0  0  0
 10  5  1  0  0  0  0
 12  2  1  0  0  0  0
 12 15  1  0  0  0  0
 13 12  1  0  0  0  0
 14 12  1  0  0  0  0
 15 20  1  0  0  0  0
 16 15  1  0  0  0  0
 16 17  1  0  0  0  0
 17 18  1  0  0  0  0
 18 19  1  0  0  0  0
 20 19  1  0  0  0  0
M  END
>  <minimizedAffinity>
-4.21219921

$$$$

 OpenBabel03242517143D

 20 21  0  0  0  0  0  0  0  0999 V2000
   32.0930   29.4420   36.6890 C   0  0  0  0  0  3  0  0  0  0  0  0
   33.3670   29.1310   36.6830 C   0  0  0  0  0  3  0  0  0  0  0  0
   30.6850   31.4790   36.4220 C   0  0  0  0  0  0  0  0  0  0  0  0
   31.4160   30.4300   35.8770 C   0  0  0  0  0  0  0  0  0  0  0  0
   31.5000   30.3200   34.5020 C   0  0  0  0  0  0  0  0  0  0  0  0
   30.8580   31.2510   33.7300 N   0  0  0  0  0  0  0  0  0  0  0  0
   30.1530   32.2610   34.2830 C   0  0  0  0  0  0  0  0  0  0  0  0
   30.0710   32.3690   35.6220 N   0  0  0  0  0  0  0  0  0  0  0  0
   30.6150   31.5710   37.5070 H   0  0  0  0  0  0  0  0  0  0  0  0
   32.0400   29.5460   33.9670 H   0  0  0  0  0  0  0  0  0  0  0  0
   29.6440   33.0000   33.6610 H   0  0  0  0  0  0  0  0  0  0  0  0
   33.9590   28.0900   37.5670 C   0  0  0  0  0  0  0  0  0  0  0  0
   34.4710   27.3020   36.9820 H   0  0  0  0  0  0  0  0  0  0  0  0
   33.1590   27.5770   38.1330 H   0  0  0  0  0  0  0  0  0  0  0  0
   35.0000   28.6480   38.5070 C   0  0  0  0  0  3  0  0  0  0  0  0
   35.8340   29.6960   37.8210 C   0  0  0  0  0  2  0  0  0  0  0  0
   36.8890   30.2320   38.7300 C   0  0  0  0  0  2  0  0  0  0  0  0
   36.3620   30.6140   40.0910 C   0  0  0  0  0  2  0  0  0  0  0  0
   35.6360   29.4230   40.6990 C   0  0  0  0  0  2  0  0  0  0  0  0
   34.4330   29.1420   39.8130 C   0  0  0  0  0  2  0  0  0  0  0  0
  2  1  2  0  0  0  0
  2 12  1  0  0  0  0
  3  9  1  0  0  0  0
  4  3  1  0  0  0  0
  4  1  1  0  0  0  0
  5  4  2  0  0  0  0
  6  7  2  0  0  0  0
  6  5  1  0  0  0  0
  7  8  1  0  0  0  0
  8  3  2  0  0  0  0
 10  5  1  0  0  0  0
 11  7  1  0  0  0  0
 12 14  1  0  0  0  0
 12 15  1  0  0  0  0
 13 12  1  0  0  0  0
 15 20  1  0  0  0  0
 16 15  1  0  0  0  0
 16 17  1  0  0  0  0
 17 18  1  0  0  0  0
 18 19  1  0  0  0  0
 20 19  1  0  0  0  0
M  END
>  <minimizedAffinity>
-4.18910742

$$$$
