
 OpenBabel03252508503D

 25 27  0  0  0  0  0  0  0  0999 V2000
   45.8220   34.2020   41.0180 C   0  0  0  0  0  0  0  0  0  0  0  0
   46.4510   34.7990   42.1050 C   0  0  0  0  0  0  0  0  0  0  0  0
   47.8070   35.1150   41.9780 C   0  0  0  0  0  0  0  0  0  0  0  0
   48.4300   34.8240   40.8050 N   0  0  0  0  0  0  0  0  0  0  0  0
   47.7830   34.2440   39.7760 C   0  0  0  0  0  0  0  0  0  0  0  0
   46.4700   33.9320   39.8870 N   0  0  0  0  0  0  0  0  0  0  0  0
   48.3270   35.5870   42.8180 H   0  0  0  0  0  0  0  0  0  0  0  0
   48.2930   34.0170   38.8510 H   0  0  0  0  0  0  0  0  0  0  0  0
   45.6950   35.0760   43.3280 C   0  0  0  0  0  0  0  0  0  0  0  0
   45.0880   36.2830   43.5850 C   0  0  0  0  0  0  0  0  0  0  0  0
   44.5050   36.1070   44.8160 C   0  0  0  0  0  0  0  0  0  0  0  0
   44.7460   34.8540   45.2900 N   0  0  0  0  0  0  0  0  0  0  0  0
   45.4670   34.2590   44.3680 N   0  0  0  0  0  0  0  0  0  0  0  0
   45.0900   37.1330   42.9480 H   0  0  0  0  0  0  0  0  0  0  0  0
   43.9260   36.8390   45.3690 H   0  0  0  0  0  0  0  0  0  0  0  0
   44.4200   34.4670   46.1960 H   0  0  0  0  0  0  0  0  0  0  0  0
   44.4890   33.8890   41.1420 O   0  0  0  0  0  0  0  0  0  0  0  0
   43.4340   34.5880   40.6300 C   0  0  0  0  0  0  0  0  0  0  0  0
   42.8520   35.6040   41.1350 O   0  0  0  0  0  0  0  0  0  0  0  0
   42.5910   34.4760   39.3800 C   0  0  0  0  0  3  0  0  0  0  0  0
   41.5390   35.5550   39.3620 C   0  0  0  0  0  2  0  0  0  0  0  0
   40.9400   35.5260   37.9680 C   0  0  0  0  0  2  0  0  0  0  0  0
   40.1430   34.2550   37.8290 C   0  0  0  0  0  2  0  0  0  0  0  0
   40.5240   33.1670   38.7720 C   0  0  0  0  0  2  0  0  0  0  0  0
   41.9600   33.1490   39.1920 C   0  0  0  0  0  2  0  0  0  0  0  0
  1 17  1  0  0  0  0
  1  2  1  0  0  0  0
  2  9  1  0  0  0  0
  3  2  2  0  0  0  0
  3  7  1  0  0  0  0
  4  3  1  0  0  0  0
  5  6  1  0  0  0  0
  5  4  2  0  0  0  0
  6  1  2  0  0  0  0
  8  5  1  0  0  0  0
  9 10  1  0  0  0  0
  9 13  2  0  0  0  0
 10 11  2  0  0  0  0
 11 12  1  0  0  0  0
 11 15  1  0  0  0  0
 12 16  1  0  0  0  0
 13 12  1  0  0  0  0
 14 10  1  0  0  0  0
 18 19  2  0  0  0  0
 18 17  1  0  0  0  0
 20 18  1  0  0  0  0
 21 20  1  0  0  0  0
 22 21  1  0  0  0  0
 23 22  1  0  0  0  0
 23 24  1  0  0  0  0
 24 25  1  0  0  0  0
 25 20  1  0  0  0  0
M  END
>  <minimizedAffinity>
-5.80219698

>  <minimizedRMSD>
0.806530178

$$$$
