
 OpenBabel03252509243D

 24 26  0  0  1  0  0  0  0  0999 V2000
   46.7310   34.8340   41.9860 C   0  0  1  0  0  0  0  0  0  0  0  0
   48.1650   35.4170   42.0610 C   0  0  0  0  0  0  0  0  0  0  0  0
   47.7930   33.9490   41.6710 C   0  0  2  0  0  0  0  0  0  0  0  0
   46.0860   35.3500   41.2550 H   0  0  0  0  0  0  0  0  0  0  0  0
   48.6280   35.5890   43.0300 H   0  0  0  0  0  0  0  0  0  0  0  0
   48.3960   36.0880   41.2370 H   0  0  0  0  0  0  0  0  0  0  0  0
   48.1130   33.2250   42.4780 H   0  0  0  0  0  0  0  0  0  0  0  0
   44.5750   35.5200   44.9840 C   0  0  0  0  0  0  0  0  0  0  0  0
   45.1460   35.6910   43.6840 C   0  0  0  0  0  0  0  0  0  0  0  0
   46.1200   34.7800   43.3770 C   0  0  0  0  0  0  0  0  0  0  0  0
   46.5020   33.7910   44.2640 N   0  0  0  0  0  0  0  0  0  0  0  0
   45.9310   33.6800   45.4690 C   0  0  0  0  0  0  0  0  0  0  0  0
   44.9560   34.5560   45.8320 N   0  0  0  0  0  0  0  0  0  0  0  0
   43.8010   36.2150   45.2740 H   0  0  0  0  0  0  0  0  0  0  0  0
   46.3510   32.8540   46.0270 H   0  0  0  0  0  0  0  0  0  0  0  0
   44.7620   36.7320   42.7950 N   0  0  0  0  0  0  0  0  0  0  0  0
   45.2410   37.6440   42.5960 H   0  0  0  0  0  0  0  0  0  0  0  0
   43.8570   36.4230   42.3320 H   0  0  0  0  0  0  0  0  0  0  0  0
   48.1440   33.5090   40.2820 C   0  0  0  0  0  3  0  0  0  0  0  0
   47.1430   32.5200   39.7230 C   0  0  0  0  0  2  0  0  0  0  0  0
   47.5790   31.9330   38.4210 C   0  0  0  0  0  2  0  0  0  0  0  0
   48.5800   32.7870   37.6920 C   0  0  0  0  0  2  0  0  0  0  0  0
   48.2160   34.2380   37.8950 C   0  0  0  0  0  2  0  0  0  0  0  0
   48.2340   34.6680   39.3400 C   0  0  0  0  0  2  0  0  0  0  0  0
  1  4  1  6  0  0  0
  1  2  1  0  0  0  0
  1 10  1  0  0  0  0
  2  5  1  0  0  0  0
  3  1  1  0  0  0  0
  3  2  1  0  0  0  0
  3  7  1  1  0  0  0
  6  2  1  0  0  0  0
  8 14  1  0  0  0  0
  8 13  1  0  0  0  0
  9  8  2  0  0  0  0
 10  9  1  0  0  0  0
 10 11  2  0  0  0  0
 11 12  1  0  0  0  0
 12 13  2  0  0  0  0
 12 15  1  0  0  0  0
 16  9  1  0  0  0  0
 17 16  1  0  0  0  0
 18 16  1  0  0  0  0
 19  3  1  0  0  0  0
 20 19  1  0  0  0  0
 21 20  1  0  0  0  0
 22 23  1  0  0  0  0
 22 21  1  0  0  0  0
 23 24  1  0  0  0  0
 24 19  1  0  0  0  0
M  END
>  <minimizedAffinity>
-4.99617195

>  <minimizedRMSD>
0.603515565

$$$$
