
 OpenBabel03252503003D

 19 20  0  0  0  0  0  0  0  0999 V2000
   39.8580   30.3060   41.1710 S   0  0  0  0  0  0  0  0  0  0  0  0
   39.1590   32.9850   40.8660 C   0  0  0  0  0  0  0  0  0  0  0  0
   38.8510   31.6620   40.5190 C   0  0  0  0  0  0  0  0  0  0  0  0
   37.7780   31.3610   39.6730 C   0  0  0  0  0  0  0  0  0  0  0  0
   37.0490   32.4290   39.2090 N   0  0  0  0  0  0  0  0  0  0  0  0
   37.3730   33.6800   39.5630 C   0  0  0  0  0  0  0  0  0  0  0  0
   38.3950   33.9840   40.3680 N   0  0  0  0  0  0  0  0  0  0  0  0
   39.9920   33.1270   41.5130 H   0  0  0  0  0  0  0  0  0  0  0  0
   37.5970   30.3200   39.4470 H   0  0  0  0  0  0  0  0  0  0  0  0
   36.7840   34.5060   39.1840 H   0  0  0  0  0  0  0  0  0  0  0  0
   39.2610   29.8420   42.8100 C   0  0  0  0  0  0  0  0  0  0  0  0
   40.1180   29.7070   43.5000 H   0  0  0  0  0  0  0  0  0  0  0  0
   38.6480   30.6710   43.2220 H   0  0  0  0  0  0  0  0  0  0  0  0
   38.5010   28.5380   42.7950 C   0  0  0  0  0  3  0  0  0  0  0  0
   37.2880   28.5710   43.6780 C   0  0  0  0  0  2  0  0  0  0  0  0
   36.5180   27.2960   43.4970 C   0  0  0  0  0  2  0  0  0  0  0  0
   37.1280   26.3350   42.5270 C   0  0  0  0  0  2  0  0  0  0  0  0
   38.5990   26.1080   42.7120 C   0  0  0  0  0  2  0  0  0  0  0  0
   39.3400   27.3560   43.1800 C   0  0  0  0  0  2  0  0  0  0  0  0
  1 11  1  0  0  0  0
  2  8  1  0  0  0  0
  3  2  1  0  0  0  0
  3  1  1  0  0  0  0
  4  3  2  0  0  0  0
  5  6  2  0  0  0  0
  5  4  1  0  0  0  0
  6  7  1  0  0  0  0
  7  2  2  0  0  0  0
  9  4  1  0  0  0  0
 10  6  1  0  0  0  0
 11 13  1  0  0  0  0
 11 12  1  0  0  0  0
 14 11  1  0  0  0  0
 14 19  1  0  0  0  0
 14 15  1  0  0  0  0
 16 15  1  0  0  0  0
 17 18  1  0  0  0  0
 17 16  1  0  0  0  0
 18 19  1  0  0  0  0
M  END
>  <minimizedAffinity>
-4.37754631

$$$$

 OpenBabel03252503003D

 19 20  0  0  0  0  0  0  0  0999 V2000
   39.9770   30.3810   41.3350 S   0  0  0  0  0  0  0  0  0  0  0  0
   37.7180   31.4020   40.0630 C   0  0  0  0  0  0  0  0  0  0  0  0
   38.9530   31.7090   40.6510 C   0  0  0  0  0  0  0  0  0  0  0  0
   39.4180   33.0270   40.7250 C   0  0  0  0  0  0  0  0  0  0  0  0
   38.6010   33.9930   40.1900 N   0  0  0  0  0  0  0  0  0  0  0  0
   37.4270   33.6610   39.6360 C   0  0  0  0  0  0  0  0  0  0  0  0
   36.9680   32.4080   39.5590 N   0  0  0  0  0  0  0  0  0  0  0  0
   37.4390   30.3750   40.0480 H   0  0  0  0  0  0  0  0  0  0  0  0
   40.3790   33.1920   41.1910 H   0  0  0  0  0  0  0  0  0  0  0  0
   36.7990   34.4400   39.2210 H   0  0  0  0  0  0  0  0  0  0  0  0
   39.3140   29.8690   42.9340 C   0  0  0  0  0  0  0  0  0  0  0  0
   40.1430   29.7130   43.6540 H   0  0  0  0  0  0  0  0  0  0  0  0
   38.6840   30.6850   43.3450 H   0  0  0  0  0  0  0  0  0  0  0  0
   38.5570   28.5650   42.8490 C   0  0  0  0  0  3  0  0  0  0  0  0
   37.3060   28.5740   43.6790 C   0  0  0  0  0  2  0  0  0  0  0  0
   36.5470   27.3050   43.4280 C   0  0  0  0  0  2  0  0  0  0  0  0
   37.2000   26.3710   42.4600 C   0  0  0  0  0  2  0  0  0  0  0  0
   38.6610   26.1390   42.7040 C   0  0  0  0  0  2  0  0  0  0  0  0
   39.3790   27.3730   43.2390 C   0  0  0  0  0  2  0  0  0  0  0  0
  1 11  1  0  0  0  0
  2  3  1  0  0  0  0
  3  4  2  0  0  0  0
  3  1  1  0  0  0  0
  4  9  1  0  0  0  0
  5  4  1  0  0  0  0
  6  5  2  0  0  0  0
  7  6  1  0  0  0  0
  7  2  2  0  0  0  0
  8  2  1  0  0  0  0
 10  6  1  0  0  0  0
 11 13  1  0  0  0  0
 11 12  1  0  0  0  0
 14 11  1  0  0  0  0
 14 19  1  0  0  0  0
 14 15  1  0  0  0  0
 16 15  1  0  0  0  0
 17 18  1  0  0  0  0
 17 16  1  0  0  0  0
 18 19  1  0  0  0  0
M  END
>  <minimizedAffinity>
-4.3068614

$$$$

 OpenBabel03252503003D

 19 20  0  0  0  0  0  0  0  0999 V2000
   37.2780   30.8390   39.4150 S   0  0  0  0  0  0  0  0  0  0  0  0
   38.3970   33.1970   40.3880 C   0  0  0  0  0  0  0  0  0  0  0  0
   38.5360   32.1400   39.4780 C   0  0  0  0  0  0  0  0  0  0  0  0
   39.6330   32.0620   38.6120 C   0  0  0  0  0  0  0  0  0  0  0  0
   40.5550   33.0750   38.7030 N   0  0  0  0  0  0  0  0  0  0  0  0
   40.3890   34.0710   39.5850 C   0  0  0  0  0  0  0  0  0  0  0  0
   39.3480   34.1590   40.4200 N   0  0  0  0  0  0  0  0  0  0  0  0
   37.5350   33.1810   41.0110 H   0  0  0  0  0  0  0  0  0  0  0  0
   39.6770   31.2200   37.9360 H   0  0  0  0  0  0  0  0  0  0  0  0
   41.1300   34.8580   39.6390 H   0  0  0  0  0  0  0  0  0  0  0  0
   36.3460   30.8230   40.9610 C   0  0  0  0  0  0  0  0  0  0  0  0
   36.4950   31.7800   41.5010 H   0  0  0  0  0  0  0  0  0  0  0  0
   35.2630   30.7520   40.7320 H   0  0  0  0  0  0  0  0  0  0  0  0
   36.7960   29.7210   41.8900 C   0  0  0  0  0  3  0  0  0  0  0  0
   38.2660   29.7880   42.1880 C   0  0  0  0  0  2  0  0  0  0  0  0
   38.6010   28.7530   43.2210 C   0  0  0  0  0  2  0  0  0  0  0  0
   37.4370   27.9310   43.6770 C   0  0  0  0  0  2  0  0  0  0  0  0
   36.5780   27.3960   42.5700 C   0  0  0  0  0  2  0  0  0  0  0  0
   36.4740   28.3470   41.3840 C   0  0  0  0  0  2  0  0  0  0  0  0
  1  3  1  0  0  0  0
  1 11  1  0  0  0  0
  2  7  1  0  0  0  0
  2  8  1  0  0  0  0
  3  2  2  0  0  0  0
  4  5  2  0  0  0  0
  4  3  1  0  0  0  0
  5  6  1  0  0  0  0
  6 10  1  0  0  0  0
  6  7  2  0  0  0  0
  9  4  1  0  0  0  0
 11 12  1  0  0  0  0
 11 14  1  0  0  0  0
 13 11  1  0  0  0  0
 14 15  1  0  0  0  0
 15 16  1  0  0  0  0
 16 17  1  0  0  0  0
 18 17  1  0  0  0  0
 19 14  1  0  0  0  0
 19 18  1  0  0  0  0
M  END
>  <minimizedAffinity>
-4.27987766

$$$$

 OpenBabel03252503003D

 19 20  0  0  0  0  0  0  0  0999 V2000
   35.4450   28.8750   40.0470 S   0  0  0  0  0  0  0  0  0  0  0  0
   36.7190   30.7310   38.4070 C   0  0  0  0  0  0  0  0  0  0  0  0
   36.3670   30.4000   39.7220 C   0  0  0  0  0  0  0  0  0  0  0  0
   36.7110   31.2240   40.8000 C   0  0  0  0  0  0  0  0  0  0  0  0
   37.4100   32.3660   40.4950 N   0  0  0  0  0  0  0  0  0  0  0  0
   37.7290   32.6500   39.2240 C   0  0  0  0  0  0  0  0  0  0  0  0
   37.4070   31.8750   38.1850 N   0  0  0  0  0  0  0  0  0  0  0  0
   36.4180   30.0510   37.6460 H   0  0  0  0  0  0  0  0  0  0  0  0
   36.4080   30.9080   41.7870 H   0  0  0  0  0  0  0  0  0  0  0  0
   38.2810   33.5570   39.0090 H   0  0  0  0  0  0  0  0  0  0  0  0
   36.5830   27.4740   40.0740 C   0  0  0  0  0  0  0  0  0  0  0  0
   36.0160   26.5250   39.9830 H   0  0  0  0  0  0  0  0  0  0  0  0
   37.2510   27.5320   39.1900 H   0  0  0  0  0  0  0  0  0  0  0  0
   37.3630   27.3950   41.3640 C   0  0  0  0  0  3  0  0  0  0  0  0
   37.9050   26.0190   41.6220 C   0  0  0  0  0  2  0  0  0  0  0  0
   38.7800   26.0600   42.8400 C   0  0  0  0  0  2  0  0  0  0  0  0
   38.8860   27.4070   43.4830 C   0  0  0  0  0  2  0  0  0  0  0  0
   37.5760   28.1110   43.6790 C   0  0  0  0  0  2  0  0  0  0  0  0
   36.5760   27.8300   42.5640 C   0  0  0  0  0  2  0  0  0  0  0  0
  1 11  1  0  0  0  0
  2  3  1  0  0  0  0
  3  1  1  0  0  0  0
  3  4  2  0  0  0  0
  4  9  1  0  0  0  0
  5  4  1  0  0  0  0
  6  5  2  0  0  0  0
  7  2  2  0  0  0  0
  7  6  1  0  0  0  0
  8  2  1  0  0  0  0
 10  6  1  0  0  0  0
 11 14  1  0  0  0  0
 12 11  1  0  0  0  0
 13 11  1  0  0  0  0
 14 15  1  0  0  0  0
 14 19  1  0  0  0  0
 15 16  1  0  0  0  0
 16 17  1  0  0  0  0
 17 18  1  0  0  0  0
 19 18  1  0  0  0  0
M  END
>  <minimizedAffinity>
-4.21311665

$$$$

 OpenBabel03252503003D

 19 20  0  0  0  0  0  0  0  0999 V2000
   36.3350   28.4630   41.4280 S   0  0  0  0  0  0  0  0  0  0  0  0
   38.5090   30.1940   41.6290 C   0  0  0  0  0  0  0  0  0  0  0  0
   37.1940   30.0370   41.1700 C   0  0  0  0  0  0  0  0  0  0  0  0
   36.5220   31.0730   40.5110 C   0  0  0  0  0  0  0  0  0  0  0  0
   37.2210   32.2430   40.3440 N   0  0  0  0  0  0  0  0  0  0  0  0
   38.4780   32.3560   40.7960 C   0  0  0  0  0  0  0  0  0  0  0  0
   39.1330   31.3760   41.4260 N   0  0  0  0  0  0  0  0  0  0  0  0
   38.9460   29.3570   42.1190 H   0  0  0  0  0  0  0  0  0  0  0  0
   35.5100   30.8840   40.1840 H   0  0  0  0  0  0  0  0  0  0  0  0
   39.0090   33.2890   40.6520 H   0  0  0  0  0  0  0  0  0  0  0  0
   36.7870   27.7840   43.0390 C   0  0  0  0  0  0  0  0  0  0  0  0
   37.2170   28.5820   43.6770 H   0  0  0  0  0  0  0  0  0  0  0  0
   35.8700   27.4260   43.5520 H   0  0  0  0  0  0  0  0  0  0  0  0
   37.8310   26.6990   42.9310 C   0  0  0  0  0  3  0  0  0  0  0  0
   39.0870   27.0360   43.6800 C   0  0  0  0  0  2  0  0  0  0  0  0
   40.0100   25.8540   43.6390 C   0  0  0  0  0  2  0  0  0  0  0  0
   39.4790   24.6770   42.8840 C   0  0  0  0  0  2  0  0  0  0  0  0
   38.8940   25.0080   41.5430 C   0  0  0  0  0  2  0  0  0  0  0  0
   38.1940   26.3610   41.5150 C   0  0  0  0  0  2  0  0  0  0  0  0
  1 11  1  0  0  0  0
  2  8  1  0  0  0  0
  3  1  1  0  0  0  0
  3  2  2  0  0  0  0
  4  3  1  0  0  0  0
  5  4  2  0  0  0  0
  5  6  1  0  0  0  0
  6  7  2  0  0  0  0
  7  2  1  0  0  0  0
  9  4  1  0  0  0  0
 10  6  1  0  0  0  0
 11 13  1  0  0  0  0
 11 12  1  0  0  0  0
 14 11  1  0  0  0  0
 14 15  1  0  0  0  0
 16 15  1  0  0  0  0
 17 16  1  0  0  0  0
 18 17  1  0  0  0  0
 19 18  1  0  0  0  0
 19 14  1  0  0  0  0
M  END
>  <minimizedAffinity>
-4.16576385

$$$$

 OpenBabel03252503003D

 19 20  0  0  0  0  0  0  0  0999 V2000
   38.3100   28.6850   43.0660 S   0  0  0  0  0  0  0  0  0  0  0  0
   38.9380   30.9750   41.6090 C   0  0  0  0  0  0  0  0  0  0  0  0
   37.9350   30.0520   41.9390 C   0  0  0  0  0  0  0  0  0  0  0  0
   36.6420   30.1620   41.4160 C   0  0  0  0  0  0  0  0  0  0  0  0
   36.4150   31.2180   40.5680 N   0  0  0  0  0  0  0  0  0  0  0  0
   37.3990   32.0800   40.2740 C   0  0  0  0  0  0  0  0  0  0  0  0
   38.6380   31.9890   40.7650 N   0  0  0  0  0  0  0  0  0  0  0  0
   39.8940   30.8190   42.0490 H   0  0  0  0  0  0  0  0  0  0  0  0
   35.9190   29.4170   41.7130 H   0  0  0  0  0  0  0  0  0  0  0  0
   37.1950   32.9050   39.6030 H   0  0  0  0  0  0  0  0  0  0  0  0
   36.9000   27.5600   43.1420 C   0  0  0  0  0  0  0  0  0  0  0  0
   36.6760   27.3060   44.1980 H   0  0  0  0  0  0  0  0  0  0  0  0
   36.0020   28.0750   42.7420 H   0  0  0  0  0  0  0  0  0  0  0  0
   37.1650   26.2580   42.4260 C   0  0  0  0  0  3  0  0  0  0  0  0
   38.5540   25.7440   42.6690 C   0  0  0  0  0  2  0  0  0  0  0  0
   38.6880   24.3870   42.0430 C   0  0  0  0  0  2  0  0  0  0  0  0
   37.4570   23.9010   41.3450 C   0  0  0  0  0  2  0  0  0  0  0  0
   36.8160   24.9060   40.4340 C   0  0  0  0  0  2  0  0  0  0  0  0
   36.9380   26.3360   40.9450 C   0  0  0  0  0  2  0  0  0  0  0  0
  1 11  1  0  0  0  0
  2  3  1  0  0  0  0
  2  8  1  0  0  0  0
  3  1  1  0  0  0  0
  4  9  1  0  0  0  0
  4  3  2  0  0  0  0
  5  4  1  0  0  0  0
  6  5  2  0  0  0  0
  6  7  1  0  0  0  0
  7  2  2  0  0  0  0
 10  6  1  0  0  0  0
 11 12  1  0  0  0  0
 13 11  1  0  0  0  0
 14 15  1  0  0  0  0
 14 11  1  0  0  0  0
 16 15  1  0  0  0  0
 17 16  1  0  0  0  0
 18 19  1  0  0  0  0
 18 17  1  0  0  0  0
 19 14  1  0  0  0  0
M  END
>  <minimizedAffinity>
-4.16209269

$$$$

 OpenBabel03252503003D

 19 20  0  0  0  0  0  0  0  0999 V2000
   36.9400   30.5230   39.6030 S   0  0  0  0  0  0  0  0  0  0  0  0
   37.7210   33.1770   39.9310 C   0  0  0  0  0  0  0  0  0  0  0  0
   38.1560   31.8590   39.7300 C   0  0  0  0  0  0  0  0  0  0  0  0
   39.5160   31.5480   39.6260 C   0  0  0  0  0  0  0  0  0  0  0  0
   40.3920   32.6000   39.7300 N   0  0  0  0  0  0  0  0  0  0  0  0
   39.9400   33.8470   39.9220 C   0  0  0  0  0  0  0  0  0  0  0  0
   38.6450   34.1610   40.0250 N   0  0  0  0  0  0  0  0  0  0  0  0
   36.6700   33.3270   40.0000 H   0  0  0  0  0  0  0  0  0  0  0  0
   39.7810   30.5120   39.4710 H   0  0  0  0  0  0  0  0  0  0  0  0
   40.6500   34.6600   40.0010 H   0  0  0  0  0  0  0  0  0  0  0  0
   36.4150   30.0230   41.2560 C   0  0  0  0  0  0  0  0  0  0  0  0
   36.4740   30.8870   41.9490 H   0  0  0  0  0  0  0  0  0  0  0  0
   35.3500   29.7150   41.2220 H   0  0  0  0  0  0  0  0  0  0  0  0
   37.2940   28.9390   41.8330 C   0  0  0  0  0  3  0  0  0  0  0  0
   36.5000   27.8060   42.4150 C   0  0  0  0  0  2  0  0  0  0  0  0
   37.4410   26.7170   42.8340 C   0  0  0  0  0  2  0  0  0  0  0  0
   38.8860   27.0160   42.5920 C   0  0  0  0  0  2  0  0  0  0  0  0
   39.3280   28.3760   43.0440 C   0  0  0  0  0  2  0  0  0  0  0  0
   38.2480   29.4390   42.8770 C   0  0  0  0  0  2  0  0  0  0  0  0
  1  3  1  0  0  0  0
  1 11  1  0  0  0  0
  2  8  1  0  0  0  0
  2  7  1  0  0  0  0
  3  2  2  0  0  0  0
  4  3  1  0  0  0  0
  4  5  2  0  0  0  0
  5  6  1  0  0  0  0
  6 10  1  0  0  0  0
  6  7  2  0  0  0  0
  9  4  1  0  0  0  0
 11 14  1  0  0  0  0
 11 12  1  0  0  0  0
 13 11  1  0  0  0  0
 14 15  1  0  0  0  0
 14 19  1  0  0  0  0
 15 16  1  0  0  0  0
 17 16  1  0  0  0  0
 17 18  1  0  0  0  0
 19 18  1  0  0  0  0
M  END
>  <minimizedAffinity>
-4.02156067

$$$$

 OpenBabel03252503003D

 19 20  0  0  0  0  0  0  0  0999 V2000
   38.1200   29.1210   42.5960 S   0  0  0  0  0  0  0  0  0  0  0  0
   39.4070   26.6620   42.8410 C   0  0  0  0  0  0  0  0  0  0  0  0
   38.2070   27.3140   42.5230 C   0  0  0  0  0  0  0  0  0  0  0  0
   37.0640   26.5970   42.1500 C   0  0  0  0  0  0  0  0  0  0  0  0
   37.1880   25.2300   42.1110 N   0  0  0  0  0  0  0  0  0  0  0  0
   38.3520   24.6420   42.4210 C   0  0  0  0  0  0  0  0  0  0  0  0
   39.4510   25.3120   42.7810 N   0  0  0  0  0  0  0  0  0  0  0  0
   40.2270   27.2810   43.1160 H   0  0  0  0  0  0  0  0  0  0  0  0
   36.1730   27.1620   41.9180 H   0  0  0  0  0  0  0  0  0  0  0  0
   38.4250   23.5620   42.3840 H   0  0  0  0  0  0  0  0  0  0  0  0
   36.7860   29.7060   41.5300 C   0  0  0  0  0  0  0  0  0  0  0  0
   36.5790   28.9570   40.7390 H   0  0  0  0  0  0  0  0  0  0  0  0
   35.8570   29.8020   42.1290 H   0  0  0  0  0  0  0  0  0  0  0  0
   37.1380   30.9970   40.8290 C   0  0  0  0  0  3  0  0  0  0  0  0
   36.9540   30.9090   39.3420 C   0  0  0  0  0  2  0  0  0  0  0  0
   37.1860   32.2640   38.7420 C   0  0  0  0  0  2  0  0  0  0  0  0
   37.5410   33.3290   39.7310 C   0  0  0  0  0  2  0  0  0  0  0  0
   38.6000   32.9370   40.7180 C   0  0  0  0  0  2  0  0  0  0  0  0
   38.5340   31.4660   41.1110 C   0  0  0  0  0  2  0  0  0  0  0  0
  2  8  1  0  0  0  0
  3  1  1  0  0  0  0
  3  2  2  0  0  0  0
  4  3  1  0  0  0  0
  5  4  2  0  0  0  0
  5  6  1  0  0  0  0
  6  7  2  0  0  0  0
  7  2  1  0  0  0  0
  9  4  1  0  0  0  0
 10  6  1  0  0  0  0
 11 13  1  0  0  0  0
 11  1  1  0  0  0  0
 12 11  1  0  0  0  0
 14 19  1  0  0  0  0
 14 11  1  0  0  0  0
 15 14  1  0  0  0  0
 16 15  1  0  0  0  0
 16 17  1  0  0  0  0
 17 18  1  0  0  0  0
 18 19  1  0  0  0  0
M  END
>  <minimizedAffinity>
-3.93064332

$$$$

 OpenBabel03252503003D

 19 20  0  0  0  0  0  0  0  0999 V2000
   38.6490   29.3420   42.7760 S   0  0  0  0  0  0  0  0  0  0  0  0
   40.0620   27.0960   43.6260 C   0  0  0  0  0  0  0  0  0  0  0  0
   38.9810   27.5640   42.8650 C   0  0  0  0  0  0  0  0  0  0  0  0
   38.1450   26.6840   42.1680 C   0  0  0  0  0  0  0  0  0  0  0  0
   38.4440   25.3480   42.2710 N   0  0  0  0  0  0  0  0  0  0  0  0
   39.4860   24.9380   43.0080 C   0  0  0  0  0  0  0  0  0  0  0  0
   40.2930   25.7640   43.6800 N   0  0  0  0  0  0  0  0  0  0  0  0
   40.6480   27.8310   44.1250 H   0  0  0  0  0  0  0  0  0  0  0  0
   37.3310   27.1130   41.6020 H   0  0  0  0  0  0  0  0  0  0  0  0
   39.7020   23.8790   43.0740 H   0  0  0  0  0  0  0  0  0  0  0  0
   36.9750   29.6140   42.1590 C   0  0  0  0  0  0  0  0  0  0  0  0
   36.4040   28.6630   42.1830 H   0  0  0  0  0  0  0  0  0  0  0  0
   36.4480   30.3180   42.8360 H   0  0  0  0  0  0  0  0  0  0  0  0
   36.9630   30.0970   40.7290 C   0  0  0  0  0  3  0  0  0  0  0  0
   36.9340   31.5940   40.6290 C   0  0  0  0  0  2  0  0  0  0  0  0
   37.0660   31.9890   39.1880 C   0  0  0  0  0  2  0  0  0  0  0  0
   37.1790   30.8400   38.2370 C   0  0  0  0  0  2  0  0  0  0  0  0
   36.1740   29.7480   38.4540 C   0  0  0  0  0  2  0  0  0  0  0  0
   35.8250   29.5430   39.9230 C   0  0  0  0  0  2  0  0  0  0  0  0
  1  3  1  0  0  0  0
  2  7  1  0  0  0  0
  2  8  1  0  0  0  0
  3  2  2  0  0  0  0
  4  5  2  0  0  0  0
  4  3  1  0  0  0  0
  5  6  1  0  0  0  0
  6 10  1  0  0  0  0
  6  7  2  0  0  0  0
  9  4  1  0  0  0  0
 11 12  1  0  0  0  0
 11  1  1  0  0  0  0
 11 13  1  0  0  0  0
 14 11  1  0  0  0  0
 15 14  1  0  0  0  0
 16 15  1  0  0  0  0
 17 18  1  0  0  0  0
 17 16  1  0  0  0  0
 18 19  1  0  0  0  0
 19 14  1  0  0  0  0
M  END
>  <minimizedAffinity>
-3.91603088

$$$$
