
 OpenBabel03252506253D

 42 46  0  0  0  0  0  0  0  0999 V2000
   46.2500   30.1100   48.3850 C   0  0  0  0  0  0  0  0  0  0  0  0
   45.5440   30.9290   48.6270 H   0  0  0  0  0  0  0  0  0  0  0  0
   46.4770   29.6400   49.3880 H   0  0  0  0  0  0  0  0  0  0  0  0
   45.9070   27.7130   47.4690 C   0  0  0  0  0  0  0  0  0  0  0  0
   45.5940   29.0570   47.6020 C   0  0  0  0  0  0  0  0  0  0  0  0
   44.4830   29.5130   46.8930 C   0  0  0  0  0  0  0  0  0  0  0  0
   43.7280   28.6840   46.0970 C   0  0  0  0  0  0  0  0  0  0  0  0
   42.6440   28.8370   45.3310 N   0  0  0  0  0  0  0  0  0  0  0  0
   42.2960   27.6690   44.7520 C   0  0  0  0  0  0  0  0  0  0  0  0
   43.1840   26.6800   45.1450 C   0  0  0  0  0  0  0  0  0  0  0  0
   44.0530   27.3540   45.9770 C   0  0  0  0  0  0  0  0  0  0  0  0
   45.1510   26.9030   46.6780 C   0  0  0  0  0  0  0  0  0  0  0  0
   46.7790   27.4400   48.0480 H   0  0  0  0  0  0  0  0  0  0  0  0
   44.1300   30.5360   46.9080 H   0  0  0  0  0  0  0  0  0  0  0  0
   42.1280   29.7500   45.1940 H   0  0  0  0  0  0  0  0  0  0  0  0
   41.4500   27.5010   44.0750 H   0  0  0  0  0  0  0  0  0  0  0  0
   43.2230   25.6290   44.8870 H   0  0  0  0  0  0  0  0  0  0  0  0
   45.5280   25.4900   46.5710 C   0  0  0  0  0  3  0  0  0  0  0  0
   46.9680   25.1880   46.4100 C   0  0  0  0  0  2  0  0  0  0  0  0
   47.5780   24.3300   47.4810 C   0  0  0  0  0  2  0  0  0  0  0  0
   46.8740   23.0270   47.6800 C   0  0  0  0  0  2  0  0  0  0  0  0
   45.3950   23.2190   47.6140 C   0  0  0  0  0  2  0  0  0  0  0  0
   45.0750   24.7040   47.8090 C   0  0  0  0  0  2  0  0  0  0  0  0
   47.5180   30.6460   47.8520 C   0  0  0  0  0  0  0  0  0  0  0  0
   48.2810   29.8750   47.7530 H   0  0  0  0  0  0  0  0  0  0  0  0
   47.9040   31.3910   48.5950 H   0  0  0  0  0  0  0  0  0  0  0  0
   46.6040   32.8550   45.2030 C   0  0  0  0  0  0  0  0  0  0  0  0
   47.2430   31.7980   44.5070 C   0  0  0  0  0  0  0  0  0  0  0  0
   47.6520   30.8650   45.4010 C   0  0  0  0  0  0  0  0  0  0  0  0
   47.2830   31.3220   46.6020 N   0  0  0  0  0  0  0  0  0  0  0  0
   46.6610   32.5010   46.4850 N   0  0  0  0  0  0  0  0  0  0  0  0
   47.3880   31.7360   43.4360 H   0  0  0  0  0  0  0  0  0  0  0  0
   48.1710   29.9500   45.1420 H   0  0  0  0  0  0  0  0  0  0  0  0
   44.5350   35.7920   44.6290 C   0  0  0  0  0  0  0  0  0  0  0  0
   44.9370   36.2320   43.3700 C   0  0  0  0  0  0  0  0  0  0  0  0
   45.9270   35.5070   42.7180 C   0  0  0  0  0  0  0  0  0  0  0  0
   46.4480   34.4170   43.3400 N   0  0  0  0  0  0  0  0  0  0  0  0
   46.0490   34.0130   44.5460 C   0  0  0  0  0  0  0  0  0  0  0  0
   45.0860   34.7090   45.1910 N   0  0  0  0  0  0  0  0  0  0  0  0
   43.7700   36.3050   45.1940 H   0  0  0  0  0  0  0  0  0  0  0  0
   44.4870   37.0930   42.9410 H   0  0  0  0  0  0  0  0  0  0  0  0
   46.2730   35.8140   41.7310 H   0  0  0  0  0  0  0  0  0  0  0  0
  1  2  1  0  0  0  0
  1  3  1  0  0  0  0
  4  5  1  0  0  0  0
  4 13  1  0  0  0  0
  5  1  1  0  0  0  0
  6 14  1  0  0  0  0
  6  5  2  0  0  0  0
  7  6  1  0  0  0  0
  8  7  1  0  0  0  0
  9 10  2  0  0  0  0
  9  8  1  0  0  0  0
 10 11  1  0  0  0  0
 11  7  2  0  0  0  0
 11 12  1  0  0  0  0
 12  4  2  0  0  0  0
 15  8  1  0  0  0  0
 16  9  1  0  0  0  0
 17 10  1  0  0  0  0
 18 12  1  0  0  0  0
 18 23  1  0  0  0  0
 19 18  1  0  0  0  0
 19 20  1  0  0  0  0
 20 21  1  0  0  0  0
 22 21  1  0  0  0  0
 22 23  1  0  0  0  0
 24  1  1  0  0  0  0
 24 26  1  0  0  0  0
 25 24  1  0  0  0  0
 27 31  2  0  0  0  0
 28 27  1  0  0  0  0
 28 29  2  0  0  0  0
 29 30  1  0  0  0  0
 30 24  1  0  0  0  0
 31 30  1  0  0  0  0
 32 28  1  0  0  0  0
 33 29  1  0  0  0  0
 34 39  1  0  0  0  0
 34 40  1  0  0  0  0
 35 34  2  0  0  0  0
 36 37  2  0  0  0  0
 36 35  1  0  0  0  0
 37 38  1  0  0  0  0
 38 39  2  0  0  0  0
 38 27  1  0  0  0  0
 41 35  1  0  0  0  0
 42 36  1  0  0  0  0
M  END
>  <minimizedAffinity>
-5.32601452

>  <minimizedRMSD>
1.31453538

$$$$
