
 OpenBabel03252503573D

 17 18  0  0  0  0  0  0  0  0999 V2000
   46.1830   34.2710   43.8460 C   0  0  0  0  0  0  0  0  0  0  0  0
   45.1360   35.1250   44.1910 C   0  0  0  0  0  0  0  0  0  0  0  0
   44.6510   35.0500   45.5110 C   0  0  0  0  0  0  0  0  0  0  0  0
   45.2310   34.1540   46.3640 N   0  0  0  0  0  0  0  0  0  0  0  0
   46.2400   33.3600   45.9640 C   0  0  0  0  0  0  0  0  0  0  0  0
   46.7160   33.4140   44.7170 N   0  0  0  0  0  0  0  0  0  0  0  0
   44.6510   35.8440   43.5470 H   0  0  0  0  0  0  0  0  0  0  0  0
   43.8540   35.6590   45.8710 H   0  0  0  0  0  0  0  0  0  0  0  0
   46.8420   32.4040   46.9160 C   0  0  0  0  0  0  0  0  0  0  0  0
   46.9660   31.0530   46.2990 C   0  0  0  0  0  0  0  0  0  0  0  0
   45.7120   30.2440   46.3360 C   0  0  0  0  0  0  0  0  0  0  0  0
   44.9880   30.2450   47.6380 C   0  0  0  0  0  0  0  0  0  0  0  0
   44.9130   31.5810   48.3220 C   0  0  0  0  0  0  0  0  0  0  0  0
   46.1580   32.3940   48.2460 C   0  0  0  0  0  0  0  0  0  0  0  0
   46.6200   34.4060   42.4900 C   0  0  0  0  0  0  0  0  0  0  0  0
   47.4740   35.2480   42.0570 O   0  0  0  0  0  0  0  0  0  0  0  0
   46.3760   33.8960   41.5710 H   0  0  0  0  0  0  0  0  0  0  0  0
  1  2  2  0  0  0  0
  1  6  1  0  0  0  0
  2  3  1  0  0  0  0
  3  8  1  0  0  0  0
  3  4  2  0  0  0  0
  5  4  1  0  0  0  0
  5  9  1  0  0  0  0
  6  5  2  0  0  0  0
  7  2  1  0  0  0  0
  9 14  1  0  0  0  0
 10 11  1  0  0  0  0
 10  9  1  0  0  0  0
 11 12  1  0  0  0  0
 12 13  1  0  0  0  0
 14 13  1  0  0  0  0
 15  1  1  0  0  0  0
 16 15  2  0  0  0  0
 17 15  1  0  0  0  0
M  END
>  <minimizedAffinity>
-4.44647217

>  <minimizedRMSD>
1.50737226

$$$$
