
 OpenBabel03252502513D

 31 33  0  0  1  0  0  0  0  0999 V2000
   32.9000   26.8360   36.2840 C   0  0  0  0  0  0  0  0  0  0  0  0
   33.9860   26.9550   37.1530 C   0  0  0  0  0  0  0  0  0  0  0  0
   34.2530   28.2120   37.6920 C   0  0  0  0  0  0  0  0  0  0  0  0
   33.4550   29.2450   37.3520 N   0  0  0  0  0  0  0  0  0  0  0  0
   32.4010   29.0990   36.4990 C   0  0  0  0  0  0  0  0  0  0  0  0
   32.1250   27.9000   35.9690 N   0  0  0  0  0  0  0  0  0  0  0  0
   32.6570   25.8790   35.8430 H   0  0  0  0  0  0  0  0  0  0  0  0
   34.5690   26.0620   37.3660 H   0  0  0  0  0  0  0  0  0  0  0  0
   30.5920   30.0220   38.6890 Cl  0  0  0  0  0  0  0  0  0  0  0  0
   30.7190   30.7760   37.1050 C   0  0  0  0  0  0  0  0  0  0  0  0
   31.5770   30.2760   36.1750 C   0  0  0  0  0  0  0  0  0  0  0  0
   31.7030   30.8490   34.9110 C   0  0  0  0  0  0  0  0  0  0  0  0
   30.9050   31.9510   34.6650 C   0  0  0  0  0  0  0  0  0  0  0  0
   30.0430   32.4450   35.6120 C   0  0  0  0  0  0  0  0  0  0  0  0
   29.9410   31.8680   36.8340 C   0  0  0  0  0  0  0  0  0  0  0  0
   32.4000   30.4110   34.2110 H   0  0  0  0  0  0  0  0  0  0  0  0
   31.0130   32.3880   33.6760 H   0  0  0  0  0  0  0  0  0  0  0  0
   29.4750   33.3130   35.2940 H   0  0  0  0  0  0  0  0  0  0  0  0
   29.2360   32.3130   37.5380 H   0  0  0  0  0  0  0  0  0  0  0  0
   35.4080   28.3500   38.6200 C   0  0  0  0  0  0  0  0  0  0  0  0
   36.1650   28.9390   38.0610 H   0  0  0  0  0  0  0  0  0  0  0  0
   35.7840   27.3400   38.8880 H   0  0  0  0  0  0  0  0  0  0  0  0
   35.0680   29.1100   39.8690 C   0  0  0  0  0  0  0  0  0  0  0  0
   35.3610   30.1570   39.7070 H   0  0  0  0  0  0  0  0  0  0  0  0
   33.9770   29.0620   40.0470 H   0  0  0  0  0  0  0  0  0  0  0  0
   35.8350   28.6120   41.0650 C   0  0  2  0  0  3  0  0  0  0  0  0
   36.8500   29.6190   41.5100 C   0  0  0  0  0  2  0  0  0  0  0  0
   37.5280   29.2230   42.7820 C   0  0  0  0  0  2  0  0  0  0  0  0
   37.4720   27.7840   43.1280 C   0  0  0  0  0  3  0  0  0  0  0  0
   37.0870   26.8140   42.0830 C   0  0  0  0  0  3  0  0  0  0  0  0
   36.6510   27.3690   40.7680 C   0  0  0  0  0  2  0  0  0  0  0  0
  1  2  1  0  0  0  0
  2  8  1  0  0  0  0
  2  3  2  0  0  0  0
  3 20  1  0  0  0  0
  4  3  1  0  0  0  0
  5  4  2  0  0  0  0
  6  1  2  0  0  0  0
  6  5  1  0  0  0  0
  7  1  1  0  0  0  0
 10  9  1  0  0  0  0
 11  5  1  0  0  0  0
 11 10  2  0  0  0  0
 12 11  1  0  0  0  0
 13 12  2  0  0  0  0
 13 14  1  0  0  0  0
 14 15  2  0  0  0  0
 15 10  1  0  0  0  0
 15 19  1  0  0  0  0
 16 12  1  0  0  0  0
 17 13  1  0  0  0  0
 18 14  1  0  0  0  0
 20 22  1  0  0  0  0
 20 23  1  0  0  0  0
 21 20  1  0  0  0  0
 23 25  1  0  0  0  0
 24 23  1  0  0  0  0
 26 23  1  6  0  0  0
 26 27  1  0  0  0  0
 27 28  1  0  0  0  0
 28 29  1  0  0  0  0
 30 29  2  0  0  0  0
 31 26  1  0  0  0  0
 31 30  1  0  0  0  0
M  END
>  <minimizedAffinity>
-5.76534605

$$$$

 OpenBabel03252502513D

 31 33  0  0  1  0  0  0  0  0999 V2000
   37.9240   33.1290   40.0620 C   0  0  0  0  0  0  0  0  0  0  0  0
   38.8660   32.5240   40.8960 C   0  0  0  0  0  0  0  0  0  0  0  0
   39.0600   31.1500   40.7700 C   0  0  0  0  0  0  0  0  0  0  0  0
   38.3350   30.4750   39.8550 N   0  0  0  0  0  0  0  0  0  0  0  0
   37.4210   31.0920   39.0530 C   0  0  0  0  0  0  0  0  0  0  0  0
   37.2180   32.4120   39.1560 N   0  0  0  0  0  0  0  0  0  0  0  0
   37.7420   34.1920   40.1270 H   0  0  0  0  0  0  0  0  0  0  0  0
   39.4010   33.1550   41.6020 H   0  0  0  0  0  0  0  0  0  0  0  0
   35.1890   29.4740   40.2030 Cl  0  0  0  0  0  0  0  0  0  0  0  0
   35.6300   29.5130   38.5010 C   0  0  0  0  0  0  0  0  0  0  0  0
   36.6670   30.2850   38.0780 C   0  0  0  0  0  0  0  0  0  0  0  0
   37.0420   30.3390   36.7380 C   0  0  0  0  0  0  0  0  0  0  0  0
   36.2980   29.5620   35.8710 C   0  0  0  0  0  0  0  0  0  0  0  0
   35.2540   28.7850   36.3090 C   0  0  0  0  0  0  0  0  0  0  0  0
   34.9100   28.7530   37.6200 C   0  0  0  0  0  0  0  0  0  0  0  0
   37.8740   30.9690   36.4570 H   0  0  0  0  0  0  0  0  0  0  0  0
   36.6010   29.6120   34.8280 H   0  0  0  0  0  0  0  0  0  0  0  0
   34.7510   28.2250   35.5290 H   0  0  0  0  0  0  0  0  0  0  0  0
   34.0700   28.1150   37.8990 H   0  0  0  0  0  0  0  0  0  0  0  0
   40.0630   30.4960   41.6550 C   0  0  0  0  0  0  0  0  0  0  0  0
   40.7800   31.2980   41.9280 H   0  0  0  0  0  0  0  0  0  0  0  0
   40.5560   29.6710   41.0990 H   0  0  0  0  0  0  0  0  0  0  0  0
   39.4640   29.9630   42.9240 C   0  0  0  0  0  0  0  0  0  0  0  0
   40.2920   29.7510   43.6150 H   0  0  0  0  0  0  0  0  0  0  0  0
   38.8040   30.7280   43.3730 H   0  0  0  0  0  0  0  0  0  0  0  0
   38.7250   28.6690   42.7060 C   0  0  2  0  0  3  0  0  0  0  0  0
   37.4090   28.6760   43.4210 C   0  0  0  0  0  2  0  0  0  0  0  0
   36.5840   27.4690   43.1070 C   0  0  0  0  0  2  0  0  0  0  0  0
   37.3200   26.2970   42.5800 C   0  0  0  0  0  3  0  0  0  0  0  0
   38.7880   26.2550   42.7220 C   0  0  0  0  0  3  0  0  0  0  0  0
   39.4530   27.4690   43.2790 C   0  0  0  0  0  2  0  0  0  0  0  0
  1  7  1  0  0  0  0
  1  2  1  0  0  0  0
  2  8  1  0  0  0  0
  3  2  2  0  0  0  0
  3 20  1  0  0  0  0
  4  3  1  0  0  0  0
  5  6  1  0  0  0  0
  5  4  2  0  0  0  0
  6  1  2  0  0  0  0
 10  9  1  0  0  0  0
 11 10  1  0  0  0  0
 11  5  1  0  0  0  0
 12 11  2  0  0  0  0
 13 14  2  0  0  0  0
 13 12  1  0  0  0  0
 14 15  1  0  0  0  0
 15 19  1  0  0  0  0
 15 10  2  0  0  0  0
 16 12  1  0  0  0  0
 17 13  1  0  0  0  0
 18 14  1  0  0  0  0
 20 21  1  0  0  0  0
 20 23  1  0  0  0  0
 22 20  1  0  0  0  0
 23 25  1  0  0  0  0
 23 24  1  0  0  0  0
 26 23  1  1  0  0  0
 26 31  1  0  0  0  0
 26 27  1  0  0  0  0
 28 27  1  0  0  0  0
 29 30  2  0  0  0  0
 29 28  1  0  0  0  0
 30 31  1  0  0  0  0
M  END
>  <minimizedAffinity>
-5.76260233

$$$$

 OpenBabel03252502513D

 31 33  0  0  1  0  0  0  0  0999 V2000
   36.1720   30.5440   40.1370 C   0  0  0  0  0  0  0  0  0  0  0  0
   36.4530   29.9130   41.3500 C   0  0  0  0  0  0  0  0  0  0  0  0
   37.7630   29.9600   41.8210 C   0  0  0  0  0  0  0  0  0  0  0  0
   38.6910   30.6090   41.0890 N   0  0  0  0  0  0  0  0  0  0  0  0
   38.3890   31.2170   39.9060 C   0  0  0  0  0  0  0  0  0  0  0  0
   37.1350   31.1850   39.4340 N   0  0  0  0  0  0  0  0  0  0  0  0
   35.1690   30.5310   39.7350 H   0  0  0  0  0  0  0  0  0  0  0  0
   35.6350   29.4160   41.8670 H   0  0  0  0  0  0  0  0  0  0  0  0
   39.0490   33.9600   40.8830 Cl  0  0  0  0  0  0  0  0  0  0  0  0
   39.8340   33.1600   39.5300 C   0  0  0  0  0  0  0  0  0  0  0  0
   39.4590   31.9050   39.1630 C   0  0  0  0  0  0  0  0  0  0  0  0
   40.0600   31.2420   38.0950 C   0  0  0  0  0  0  0  0  0  0  0  0
   41.0570   31.9370   37.4370 C   0  0  0  0  0  0  0  0  0  0  0  0
   41.4270   33.2030   37.8160 C   0  0  0  0  0  0  0  0  0  0  0  0
   40.8250   33.8250   38.8590 C   0  0  0  0  0  0  0  0  0  0  0  0
   39.7220   30.2460   37.8470 H   0  0  0  0  0  0  0  0  0  0  0  0
   41.5170   31.4090   36.6070 H   0  0  0  0  0  0  0  0  0  0  0  0
   42.2220   33.6370   37.2190 H   0  0  0  0  0  0  0  0  0  0  0  0
   41.1690   34.8300   39.1060 H   0  0  0  0  0  0  0  0  0  0  0  0
   38.0720   29.2900   43.1140 C   0  0  0  0  0  0  0  0  0  0  0  0
   37.8550   30.0480   43.8960 H   0  0  0  0  0  0  0  0  0  0  0  0
   39.1390   28.9830   43.1190 H   0  0  0  0  0  0  0  0  0  0  0  0
   37.2020   28.0970   43.3770 C   0  0  0  0  0  0  0  0  0  0  0  0
   36.7970   28.2020   44.3940 H   0  0  0  0  0  0  0  0  0  0  0  0
   36.3640   28.0810   42.6550 H   0  0  0  0  0  0  0  0  0  0  0  0
   37.9770   26.8060   43.3380 C   0  0  2  0  0  3  0  0  0  0  0  0
   39.4370   27.0490   43.5650 C   0  0  0  0  0  2  0  0  0  0  0  0
   40.2150   25.7780   43.6790 C   0  0  0  0  0  2  0  0  0  0  0  0
   39.5800   24.5720   43.1010 C   0  0  0  0  0  3  0  0  0  0  0  0
   38.4420   24.7400   42.1760 C   0  0  0  0  0  3  0  0  0  0  0  0
   37.9200   26.1250   41.9840 C   0  0  0  0  0  2  0  0  0  0  0  0
  1  2  1  0  0  0  0
  2  3  2  0  0  0  0
  2  8  1  0  0  0  0
  3 20  1  0  0  0  0
  4  3  1  0  0  0  0
  5  4  2  0  0  0  0
  6  5  1  0  0  0  0
  6  1  2  0  0  0  0
  7  1  1  0  0  0  0
 10  9  1  0  0  0  0
 11 10  1  0  0  0  0
 11  5  1  0  0  0  0
 12 11  2  0  0  0  0
 13 14  2  0  0  0  0
 13 12  1  0  0  0  0
 14 15  1  0  0  0  0
 15 19  1  0  0  0  0
 15 10  2  0  0  0  0
 16 12  1  0  0  0  0
 17 13  1  0  0  0  0
 18 14  1  0  0  0  0
 20 22  1  0  0  0  0
 20 23  1  0  0  0  0
 20 21  1  0  0  0  0
 23 24  1  0  0  0  0
 25 23  1  0  0  0  0
 26 23  1  6  0  0  0
 26 27  1  0  0  0  0
 27 28  1  0  0  0  0
 29 28  1  0  0  0  0
 30 29  2  0  0  0  0
 31 30  1  0  0  0  0
 31 26  1  0  0  0  0
M  END
>  <minimizedAffinity>
-5.63896275

$$$$

 OpenBabel03252502513D

 31 33  0  0  1  0  0  0  0  0999 V2000
   36.3850   31.0980   40.5570 C   0  0  0  0  0  0  0  0  0  0  0  0
   36.7420   30.2250   41.5870 C   0  0  0  0  0  0  0  0  0  0  0  0
   38.0980   30.0580   41.8580 C   0  0  0  0  0  0  0  0  0  0  0  0
   38.9950   30.7430   41.1210 N   0  0  0  0  0  0  0  0  0  0  0  0
   38.6180   31.5900   40.1210 C   0  0  0  0  0  0  0  0  0  0  0  0
   37.3200   31.7660   39.8420 N   0  0  0  0  0  0  0  0  0  0  0  0
   35.3450   31.2570   40.3130 H   0  0  0  0  0  0  0  0  0  0  0  0
   35.9440   29.7190   42.1250 H   0  0  0  0  0  0  0  0  0  0  0  0
   39.5870   30.1780   37.6740 Cl  0  0  0  0  0  0  0  0  0  0  0  0
   40.1670   31.7430   38.2270 C   0  0  0  0  0  0  0  0  0  0  0  0
   39.6590   32.3020   39.3580 C   0  0  0  0  0  0  0  0  0  0  0  0
   40.0950   33.5400   39.8250 C   0  0  0  0  0  0  0  0  0  0  0  0
   41.0710   34.1600   39.0680 C   0  0  0  0  0  0  0  0  0  0  0  0
   41.5770   33.5860   37.9280 C   0  0  0  0  0  0  0  0  0  0  0  0
   41.1330   32.3800   37.4970 C   0  0  0  0  0  0  0  0  0  0  0  0
   39.6580   33.9370   40.7290 H   0  0  0  0  0  0  0  0  0  0  0  0
   41.4030   35.1250   39.4430 H   0  0  0  0  0  0  0  0  0  0  0  0
   42.3370   34.1750   37.4270 H   0  0  0  0  0  0  0  0  0  0  0  0
   41.5780   31.9830   36.5830 H   0  0  0  0  0  0  0  0  0  0  0  0
   38.4880   29.1290   42.9540 C   0  0  0  0  0  0  0  0  0  0  0  0
   38.7790   29.7830   43.8030 H   0  0  0  0  0  0  0  0  0  0  0  0
   39.3320   28.4950   42.6110 H   0  0  0  0  0  0  0  0  0  0  0  0
   37.3560   28.2580   43.4140 C   0  0  0  0  0  0  0  0  0  0  0  0
   37.2990   28.3410   44.5090 H   0  0  0  0  0  0  0  0  0  0  0  0
   36.4070   28.6180   42.9730 H   0  0  0  0  0  0  0  0  0  0  0  0
   37.5870   26.8050   43.0900 C   0  0  2  0  0  3  0  0  0  0  0  0
   39.0500   26.5010   43.0010 C   0  0  0  0  0  2  0  0  0  0  0  0
   39.3190   25.0410   42.8270 C   0  0  0  0  0  2  0  0  0  0  0  0
   38.1950   24.2300   42.3060 C   0  0  0  0  0  3  0  0  0  0  0  0
   37.0500   24.9190   41.6800 C   0  0  0  0  0  3  0  0  0  0  0  0
   37.0430   26.4100   41.7310 C   0  0  0  0  0  2  0  0  0  0  0  0
  1  2  1  0  0  0  0
  2  3  2  0  0  0  0
  2  8  1  0  0  0  0
  3 20  1  0  0  0  0
  4  3  1  0  0  0  0
  5  4  2  0  0  0  0
  6  5  1  0  0  0  0
  6  1  2  0  0  0  0
  7  1  1  0  0  0  0
  9 10  1  0  0  0  0
 10 11  1  0  0  0  0
 11 12  2  0  0  0  0
 11  5  1  0  0  0  0
 12 16  1  0  0  0  0
 13 17  1  0  0  0  0
 13 12  1  0  0  0  0
 14 13  2  0  0  0  0
 15 14  1  0  0  0  0
 15 10  2  0  0  0  0
 18 14  1  0  0  0  0
 19 15  1  0  0  0  0
 20 23  1  0  0  0  0
 20 21  1  0  0  0  0
 22 20  1  0  0  0  0
 23 24  1  0  0  0  0
 25 23  1  0  0  0  0
 26 23  1  6  0  0  0
 27 26  1  0  0  0  0
 28 27  1  0  0  0  0
 29 28  1  0  0  0  0
 30 31  1  0  0  0  0
 30 29  2  0  0  0  0
 31 26  1  0  0  0  0
M  END
>  <minimizedAffinity>
-5.62434435

$$$$

 OpenBabel03252502513D

 31 33  0  0  1  0  0  0  0  0999 V2000
   36.8870   30.9020   40.9120 C   0  0  0  0  0  0  0  0  0  0  0  0
   37.0830   29.8780   41.8420 C   0  0  0  0  0  0  0  0  0  0  0  0
   36.6050   28.6100   41.5230 C   0  0  0  0  0  0  0  0  0  0  0  0
   35.9820   28.4300   40.3410 N   0  0  0  0  0  0  0  0  0  0  0  0
   35.8030   29.4480   39.4520 C   0  0  0  0  0  0  0  0  0  0  0  0
   36.2550   30.6770   39.7360 N   0  0  0  0  0  0  0  0  0  0  0  0
   37.2410   31.9010   41.1190 H   0  0  0  0  0  0  0  0  0  0  0  0
   37.5990   30.1230   42.7670 H   0  0  0  0  0  0  0  0  0  0  0  0
   37.5770   29.2550   37.0570 Cl  0  0  0  0  0  0  0  0  0  0  0  0
   35.8290   29.0660   37.0310 C   0  0  0  0  0  0  0  0  0  0  0  0
   35.1110   29.1740   38.1810 C   0  0  0  0  0  0  0  0  0  0  0  0
   33.7250   29.0300   38.1960 C   0  0  0  0  0  0  0  0  0  0  0  0
   33.1310   28.7730   36.9750 C   0  0  0  0  0  0  0  0  0  0  0  0
   33.8660   28.6680   35.8210 C   0  0  0  0  0  0  0  0  0  0  0  0
   35.2140   28.8110   35.8350 C   0  0  0  0  0  0  0  0  0  0  0  0
   33.2040   29.1250   39.1380 H   0  0  0  0  0  0  0  0  0  0  0  0
   32.0500   28.6630   37.0000 H   0  0  0  0  0  0  0  0  0  0  0  0
   33.2810   28.4630   34.9310 H   0  0  0  0  0  0  0  0  0  0  0  0
   35.7360   28.7150   34.8820 H   0  0  0  0  0  0  0  0  0  0  0  0
   36.8100   27.5110   42.5080 C   0  0  0  0  0  0  0  0  0  0  0  0
   37.3090   26.6990   41.9400 H   0  0  0  0  0  0  0  0  0  0  0  0
   35.8240   27.1930   42.9080 H   0  0  0  0  0  0  0  0  0  0  0  0
   37.7130   27.9020   43.6400 C   0  0  0  0  0  0  0  0  0  0  0  0
   38.0160   28.9460   43.4740 H   0  0  0  0  0  0  0  0  0  0  0  0
   37.1610   27.8330   44.5960 H   0  0  0  0  0  0  0  0  0  0  0  0
   38.9700   27.0740   43.6790 C   0  0  2  0  0  3  0  0  0  0  0  0
   40.1550   27.8750   43.2370 C   0  0  0  0  0  2  0  0  0  0  0  0
   41.4410   27.1300   43.4020 C   0  0  0  0  0  2  0  0  0  0  0  0
   41.3310   25.6560   43.4960 C   0  0  0  0  0  3  0  0  0  0  0  0
   40.0710   25.0080   43.0840 C   0  0  0  0  0  3  0  0  0  0  0  0
   38.9340   25.9020   42.7170 C   0  0  0  0  0  2  0  0  0  0  0  0
  1  7  1  0  0  0  0
  1  2  1  0  0  0  0
  2  8  1  0  0  0  0
  3  2  2  0  0  0  0
  3 20  1  0  0  0  0
  4  3  1  0  0  0  0
  5  6  1  0  0  0  0
  5  4  2  0  0  0  0
  6  1  2  0  0  0  0
 10  9  1  0  0  0  0
 10 11  1  0  0  0  0
 11 12  2  0  0  0  0
 11  5  1  0  0  0  0
 12 16  1  0  0  0  0
 13 17  1  0  0  0  0
 13 12  1  0  0  0  0
 14 15  1  0  0  0  0
 14 13  2  0  0  0  0
 15 10  2  0  0  0  0
 18 14  1  0  0  0  0
 19 15  1  0  0  0  0
 20 22  1  0  0  0  0
 20 23  1  0  0  0  0
 21 20  1  0  0  0  0
 23 25  1  0  0  0  0
 24 23  1  0  0  0  0
 26 23  1  6  0  0  0
 27 28  1  0  0  0  0
 27 26  1  0  0  0  0
 28 29  1  0  0  0  0
 30 29  2  0  0  0  0
 31 30  1  0  0  0  0
 31 26  1  0  0  0  0
M  END
>  <minimizedAffinity>
-5.55383253

$$$$

 OpenBabel03252502513D

 31 33  0  0  1  0  0  0  0  0999 V2000
   36.8530   29.0250   37.2240 C   0  0  0  0  0  0  0  0  0  0  0  0
   35.4980   29.0910   36.8920 C   0  0  0  0  0  0  0  0  0  0  0  0
   34.5690   28.8430   37.9000 C   0  0  0  0  0  0  0  0  0  0  0  0
   35.0170   28.5560   39.1380 N   0  0  0  0  0  0  0  0  0  0  0  0
   36.3470   28.4980   39.4350 C   0  0  0  0  0  0  0  0  0  0  0  0
   37.2590   28.7330   38.4820 N   0  0  0  0  0  0  0  0  0  0  0  0
   37.6070   29.2090   36.4730 H   0  0  0  0  0  0  0  0  0  0  0  0
   35.2360   29.3310   35.8650 H   0  0  0  0  0  0  0  0  0  0  0  0
   36.6920   30.8530   41.2380 Cl  0  0  0  0  0  0  0  0  0  0  0  0
   36.9430   29.1790   41.7120 C   0  0  0  0  0  0  0  0  0  0  0  0
   36.7590   28.1760   40.8120 C   0  0  0  0  0  0  0  0  0  0  0  0
   36.9490   26.8390   41.1550 C   0  0  0  0  0  0  0  0  0  0  0  0
   37.3330   26.5990   42.4600 C   0  0  0  0  0  0  0  0  0  0  0  0
   37.5170   27.6190   43.3600 C   0  0  0  0  0  0  0  0  0  0  0  0
   37.3250   28.9120   42.9990 C   0  0  0  0  0  0  0  0  0  0  0  0
   36.7880   26.0830   40.4000 H   0  0  0  0  0  0  0  0  0  0  0  0
   37.4780   25.5520   42.7140 H   0  0  0  0  0  0  0  0  0  0  0  0
   37.8180   27.2970   44.3500 H   0  0  0  0  0  0  0  0  0  0  0  0
   37.4880   29.6720   43.7640 H   0  0  0  0  0  0  0  0  0  0  0  0
   33.1220   28.9110   37.5560 C   0  0  0  0  0  0  0  0  0  0  0  0
   32.7280   29.7860   38.1150 H   0  0  0  0  0  0  0  0  0  0  0  0
   32.6290   27.9660   37.8660 H   0  0  0  0  0  0  0  0  0  0  0  0
   32.8780   29.1530   36.0950 C   0  0  0  0  0  0  0  0  0  0  0  0
   33.8580   29.2980   35.6180 H   0  0  0  0  0  0  0  0  0  0  0  0
   32.3850   28.2690   35.6490 H   0  0  0  0  0  0  0  0  0  0  0  0
   32.0740   30.4030   35.8510 C   0  0  2  0  0  3  0  0  0  0  0  0
   30.9300   30.5030   36.8120 C   0  0  0  0  0  2  0  0  0  0  0  0
   30.1990   31.8010   36.6960 C   0  0  0  0  0  2  0  0  0  0  0  0
   30.3740   32.5340   35.4210 C   0  0  0  0  0  3  0  0  0  0  0  0
   30.9350   31.8180   34.2590 C   0  0  0  0  0  3  0  0  0  0  0  0
   31.4140   30.4230   34.4860 C   0  0  0  0  0  2  0  0  0  0  0  0
  1  6  1  0  0  0  0
  2  1  2  0  0  0  0
  2  3  1  0  0  0  0
  3  4  2  0  0  0  0
  4  5  1  0  0  0  0
  5 11  1  0  0  0  0
  6  5  2  0  0  0  0
  7  1  1  0  0  0  0
  8  2  1  0  0  0  0
  9 10  1  0  0  0  0
 10 15  1  0  0  0  0
 11 12  1  0  0  0  0
 11 10  2  0  0  0  0
 12 13  2  0  0  0  0
 13 17  1  0  0  0  0
 13 14  1  0  0  0  0
 14 18  1  0  0  0  0
 15 14  2  0  0  0  0
 15 19  1  0  0  0  0
 16 12  1  0  0  0  0
 20 22  1  0  0  0  0
 20  3  1  0  0  0  0
 20 21  1  0  0  0  0
 23 20  1  0  0  0  0
 24 23  1  0  0  0  0
 25 23  1  0  0  0  0
 26 23  1  1  0  0  0
 26 27  1  0  0  0  0
 28 27  1  0  0  0  0
 29 28  1  0  0  0  0
 30 31  1  0  0  0  0
 30 29  2  0  0  0  0
 31 26  1  0  0  0  0
M  END
>  <minimizedAffinity>
-5.53513002

$$$$

 OpenBabel03252502513D

 31 33  0  0  1  0  0  0  0  0999 V2000
   36.9260   29.2260   37.5830 C   0  0  0  0  0  0  0  0  0  0  0  0
   35.5630   29.2410   37.2810 C   0  0  0  0  0  0  0  0  0  0  0  0
   34.6680   28.9270   38.3010 C   0  0  0  0  0  0  0  0  0  0  0  0
   35.1550   28.6270   39.5210 N   0  0  0  0  0  0  0  0  0  0  0  0
   36.4930   28.6200   39.7880 C   0  0  0  0  0  0  0  0  0  0  0  0
   37.3730   28.9190   38.8230 N   0  0  0  0  0  0  0  0  0  0  0  0
   37.6550   29.4620   36.8210 H   0  0  0  0  0  0  0  0  0  0  0  0
   35.2680   29.4960   36.2660 H   0  0  0  0  0  0  0  0  0  0  0  0
   36.7710   25.6980   40.3390 Cl  0  0  0  0  0  0  0  0  0  0  0  0
   37.1070   26.9760   41.4990 C   0  0  0  0  0  0  0  0  0  0  0  0
   36.9480   28.2810   41.1470 C   0  0  0  0  0  0  0  0  0  0  0  0
   37.2060   29.3180   42.0410 C   0  0  0  0  0  0  0  0  0  0  0  0
   37.6300   28.9380   43.3000 C   0  0  0  0  0  0  0  0  0  0  0  0
   37.7870   27.6190   43.6440 C   0  0  0  0  0  0  0  0  0  0  0  0
   37.5290   26.6290   42.7540 C   0  0  0  0  0  0  0  0  0  0  0  0
   37.0620   30.3360   41.7090 H   0  0  0  0  0  0  0  0  0  0  0  0
   37.8270   29.7560   43.9880 H   0  0  0  0  0  0  0  0  0  0  0  0
   38.1260   27.4550   44.6610 H   0  0  0  0  0  0  0  0  0  0  0  0
   37.6750   25.6030   43.0930 H   0  0  0  0  0  0  0  0  0  0  0  0
   33.2120   28.9400   37.9890 C   0  0  0  0  0  0  0  0  0  0  0  0
   32.8330   29.9000   38.3990 H   0  0  0  0  0  0  0  0  0  0  0  0
   32.7280   28.0650   38.4710 H   0  0  0  0  0  0  0  0  0  0  0  0
   32.9290   28.9270   36.5160 C   0  0  0  0  0  0  0  0  0  0  0  0
   33.8960   28.9000   35.9950 H   0  0  0  0  0  0  0  0  0  0  0  0
   32.3530   28.0190   36.2560 H   0  0  0  0  0  0  0  0  0  0  0  0
   32.2120   30.1710   36.0620 C   0  0  2  0  0  3  0  0  0  0  0  0
   30.9470   30.3760   36.8370 C   0  0  0  0  0  2  0  0  0  0  0  0
   30.2860   31.6770   36.5160 C   0  0  0  0  0  2  0  0  0  0  0  0
   30.6660   32.2990   35.2270 C   0  0  0  0  0  3  0  0  0  0  0  0
   31.3610   31.4770   34.2170 C   0  0  0  0  0  3  0  0  0  0  0  0
   31.7540   30.0950   34.6180 C   0  0  0  0  0  2  0  0  0  0  0  0
  1  6  1  0  0  0  0
  2  1  2  0  0  0  0
  2  3  1  0  0  0  0
  3  4  2  0  0  0  0
  4  5  1  0  0  0  0
  5 11  1  0  0  0  0
  6  5  2  0  0  0  0
  7  1  1  0  0  0  0
  8  2  1  0  0  0  0
  9 10  1  0  0  0  0
 10 15  1  0  0  0  0
 11 10  2  0  0  0  0
 11 12  1  0  0  0  0
 12 13  2  0  0  0  0
 13 14  1  0  0  0  0
 13 17  1  0  0  0  0
 14 18  1  0  0  0  0
 15 19  1  0  0  0  0
 15 14  2  0  0  0  0
 16 12  1  0  0  0  0
 20  3  1  0  0  0  0
 20 21  1  0  0  0  0
 20 22  1  0  0  0  0
 23 20  1  0  0  0  0
 24 23  1  0  0  0  0
 25 23  1  0  0  0  0
 26 23  1  1  0  0  0
 26 27  1  0  0  0  0
 28 27  1  0  0  0  0
 29 28  1  0  0  0  0
 30 31  1  0  0  0  0
 30 29  2  0  0  0  0
 31 26  1  0  0  0  0
M  END
>  <minimizedAffinity>
-5.52927923

$$$$

 OpenBabel03252502513D

 31 33  0  0  1  0  0  0  0  0999 V2000
   35.7590   29.3720   38.9310 C   0  0  0  0  0  0  0  0  0  0  0  0
   35.7340   28.4750   40.0010 C   0  0  0  0  0  0  0  0  0  0  0  0
   36.5770   28.7250   41.0800 C   0  0  0  0  0  0  0  0  0  0  0  0
   37.3720   29.8140   41.0430 N   0  0  0  0  0  0  0  0  0  0  0  0
   37.3770   30.6740   39.9850 C   0  0  0  0  0  0  0  0  0  0  0  0
   36.5740   30.4540   38.9350 N   0  0  0  0  0  0  0  0  0  0  0  0
   35.1210   29.2150   38.0730 H   0  0  0  0  0  0  0  0  0  0  0  0
   35.0570   27.6260   39.9380 H   0  0  0  0  0  0  0  0  0  0  0  0
   40.2790   30.0500   39.6570 Cl  0  0  0  0  0  0  0  0  0  0  0  0
   39.6160   31.6640   39.8760 C   0  0  0  0  0  0  0  0  0  0  0  0
   38.2750   31.8410   40.0170 C   0  0  0  0  0  0  0  0  0  0  0  0
   37.7160   33.1060   40.1920 C   0  0  0  0  0  0  0  0  0  0  0  0
   38.6080   34.1610   40.2140 C   0  0  0  0  0  0  0  0  0  0  0  0
   39.9600   33.9700   40.0710 C   0  0  0  0  0  0  0  0  0  0  0  0
   40.4760   32.7280   39.9010 C   0  0  0  0  0  0  0  0  0  0  0  0
   36.6450   33.1880   40.2990 H   0  0  0  0  0  0  0  0  0  0  0  0
   38.1600   35.1420   40.3510 H   0  0  0  0  0  0  0  0  0  0  0  0
   40.5490   34.8800   40.1050 H   0  0  0  0  0  0  0  0  0  0  0  0
   41.5580   32.6490   39.7940 H   0  0  0  0  0  0  0  0  0  0  0  0
   36.5570   27.7740   42.2260 C   0  0  0  0  0  0  0  0  0  0  0  0
   37.0190   26.8410   41.8410 H   0  0  0  0  0  0  0  0  0  0  0  0
   35.5070   27.6140   42.5490 H   0  0  0  0  0  0  0  0  0  0  0  0
   37.3780   28.2450   43.3910 C   0  0  0  0  0  0  0  0  0  0  0  0
   37.7010   29.2730   43.1720 H   0  0  0  0  0  0  0  0  0  0  0  0
   36.7560   28.2480   44.3060 H   0  0  0  0  0  0  0  0  0  0  0  0
   38.6210   27.4180   43.5830 C   0  0  2  0  0  3  0  0  0  0  0  0
   39.8290   28.1340   43.0610 C   0  0  0  0  0  2  0  0  0  0  0  0
   41.0990   27.4080   43.3670 C   0  0  0  0  0  2  0  0  0  0  0  0
   40.9660   25.9640   43.6720 C   0  0  0  0  0  3  0  0  0  0  0  0
   39.7070   25.2760   43.3250 C   0  0  0  0  0  3  0  0  0  0  0  0
   38.5930   26.1190   42.8020 C   0  0  0  0  0  2  0  0  0  0  0  0
  1  6  2  0  0  0  0
  1  2  1  0  0  0  0
  2  3  2  0  0  0  0
  3 20  1  0  0  0  0
  4  3  1  0  0  0  0
  5 11  1  0  0  0  0
  5  4  2  0  0  0  0
  6  5  1  0  0  0  0
  7  1  1  0  0  0  0
  8  2  1  0  0  0  0
  9 10  1  0  0  0  0
 10 15  2  0  0  0  0
 10 11  1  0  0  0  0
 11 12  2  0  0  0  0
 12 13  1  0  0  0  0
 12 16  1  0  0  0  0
 13 17  1  0  0  0  0
 14 18  1  0  0  0  0
 14 13  2  0  0  0  0
 15 14  1  0  0  0  0
 19 15  1  0  0  0  0
 20 22  1  0  0  0  0
 20 23  1  0  0  0  0
 21 20  1  0  0  0  0
 23 25  1  0  0  0  0
 24 23  1  0  0  0  0
 26 23  1  6  0  0  0
 27 28  1  0  0  0  0
 27 26  1  0  0  0  0
 28 29  1  0  0  0  0
 30 29  2  0  0  0  0
 31 30  1  0  0  0  0
 31 26  1  0  0  0  0
M  END
>  <minimizedAffinity>
-5.47430706

$$$$

 OpenBabel03252502513D

 31 33  0  0  1  0  0  0  0  0999 V2000
   37.1200   30.3780   36.8360 C   0  0  0  0  0  0  0  0  0  0  0  0
   36.3610   29.5140   37.6280 C   0  0  0  0  0  0  0  0  0  0  0  0
   36.5880   29.5220   39.0020 C   0  0  0  0  0  0  0  0  0  0  0  0
   37.5230   30.3570   39.4990 N   0  0  0  0  0  0  0  0  0  0  0  0
   38.2510   31.1910   38.7020 C   0  0  0  0  0  0  0  0  0  0  0  0
   38.0490   31.2010   37.3770 N   0  0  0  0  0  0  0  0  0  0  0  0
   36.9760   30.4040   35.7660 H   0  0  0  0  0  0  0  0  0  0  0  0
   35.6300   28.8790   37.1330 H   0  0  0  0  0  0  0  0  0  0  0  0
   37.2360   33.8690   39.5460 Cl  0  0  0  0  0  0  0  0  0  0  0  0
   38.8940   33.3160   39.7390 C   0  0  0  0  0  0  0  0  0  0  0  0
   39.2550   32.0740   39.3200 C   0  0  0  0  0  0  0  0  0  0  0  0
   40.5600   31.6030   39.4580 C   0  0  0  0  0  0  0  0  0  0  0  0
   41.4570   32.4760   40.0450 C   0  0  0  0  0  0  0  0  0  0  0  0
   41.0810   33.7270   40.4630 C   0  0  0  0  0  0  0  0  0  0  0  0
   39.8040   34.1590   40.3170 C   0  0  0  0  0  0  0  0  0  0  0  0
   40.7910   30.6080   39.1070 H   0  0  0  0  0  0  0  0  0  0  0  0
   42.4700   32.0970   40.1460 H   0  0  0  0  0  0  0  0  0  0  0  0
   41.8790   34.3120   40.9080 H   0  0  0  0  0  0  0  0  0  0  0  0
   39.5740   35.1640   40.6730 H   0  0  0  0  0  0  0  0  0  0  0  0
   35.7830   28.6050   39.8550 C   0  0  0  0  0  0  0  0  0  0  0  0
   34.8570   28.4040   39.2770 H   0  0  0  0  0  0  0  0  0  0  0  0
   35.5680   29.1040   40.8240 H   0  0  0  0  0  0  0  0  0  0  0  0
   36.4630   27.2900   40.1040 C   0  0  0  0  0  0  0  0  0  0  0  0
   35.6780   26.5420   40.2840 H   0  0  0  0  0  0  0  0  0  0  0  0
   37.0450   26.9980   39.2100 H   0  0  0  0  0  0  0  0  0  0  0  0
   37.3350   27.3230   41.3310 C   0  0  2  0  0  3  0  0  0  0  0  0
   37.8230   25.9510   41.6810 C   0  0  0  0  0  2  0  0  0  0  0  0
   38.8080   25.9650   42.8040 C   0  0  0  0  0  2  0  0  0  0  0  0
   38.7880   27.1650   43.6730 C   0  0  0  0  0  3  0  0  0  0  0  0
   37.6240   28.0700   43.6100 C   0  0  0  0  0  3  0  0  0  0  0  0
   36.5920   27.7800   42.5720 C   0  0  0  0  0  2  0  0  0  0  0  0
  1  6  2  0  0  0  0
  1  2  1  0  0  0  0
  2  3  2  0  0  0  0
  3  4  1  0  0  0  0
  3 20  1  0  0  0  0
  5 11  1  0  0  0  0
  5  4  2  0  0  0  0
  6  5  1  0  0  0  0
  7  1  1  0  0  0  0
  8  2  1  0  0  0  0
  9 10  1  0  0  0  0
 10 15  1  0  0  0  0
 11 12  1  0  0  0  0
 11 10  2  0  0  0  0
 12 13  2  0  0  0  0
 13 17  1  0  0  0  0
 13 14  1  0  0  0  0
 14 18  1  0  0  0  0
 15 14  2  0  0  0  0
 15 19  1  0  0  0  0
 16 12  1  0  0  0  0
 20 23  1  0  0  0  0
 20 22  1  0  0  0  0
 21 20  1  0  0  0  0
 23 24  1  0  0  0  0
 25 23  1  0  0  0  0
 26 23  1  6  0  0  0
 26 27  1  0  0  0  0
 26 31  1  0  0  0  0
 27 28  1  0  0  0  0
 28 29  1  0  0  0  0
 30 29  2  0  0  0  0
 31 30  1  0  0  0  0
M  END
>  <minimizedAffinity>
-5.45642328

$$$$
