
 OpenBabel03252508333D

 29 31  0  0  1  0  0  0  0  0999 V2000
   44.6830   34.4770   41.9760 N   0  0  0  0  0  0  0  0  0  0  0  0
   45.4730   33.6830   41.1380 C   0  0  1  0  0  0  0  0  0  0  0  0
   44.9140   33.3880   39.7720 C   0  0  0  0  0  0  0  0  0  0  0  0
   43.5730   33.6390   39.5100 N   0  0  0  0  0  0  0  0  0  0  0  0
   42.9240   34.6120   40.2620 C   0  0  0  0  0  0  0  0  0  0  0  0
   43.7740   35.3190   41.2450 C   0  0  0  0  0  0  0  0  0  0  0  0
   45.6900   32.7070   41.6260 H   0  0  0  0  0  0  0  0  0  0  0  0
   45.1360   32.2890   39.5580 H   0  0  0  0  0  0  0  0  0  0  0  0
   45.5200   33.9010   39.0000 H   0  0  0  0  0  0  0  0  0  0  0  0
   43.4160   33.6510   38.4820 H   0  0  0  0  0  0  0  0  0  0  0  0
   42.0260   34.1720   40.7840 H   0  0  0  0  0  0  0  0  0  0  0  0
   42.4850   35.3980   39.5830 H   0  0  0  0  0  0  0  0  0  0  0  0
   44.2610   36.2430   40.8300 H   0  0  0  0  0  0  0  0  0  0  0  0
   43.0520   35.7550   42.0060 H   0  0  0  0  0  0  0  0  0  0  0  0
   44.4210   35.5700   44.0880 C   0  0  0  0  0  0  0  0  0  0  0  0
   44.8080   34.4310   43.3910 C   0  0  0  0  0  0  0  0  0  0  0  0
   45.2910   33.3490   44.0960 C   0  0  0  0  0  0  0  0  0  0  0  0
   45.3920   33.3900   45.4510 N   0  0  0  0  0  0  0  0  0  0  0  0
   45.0050   34.5250   46.1170 C   0  0  0  0  0  0  0  0  0  0  0  0
   44.5290   35.5900   45.4340 N   0  0  0  0  0  0  0  0  0  0  0  0
   44.0290   36.5100   43.7390 H   0  0  0  0  0  0  0  0  0  0  0  0
   45.5910   32.4500   43.6120 H   0  0  0  0  0  0  0  0  0  0  0  0
   45.0920   34.5430   47.2050 H   0  0  0  0  0  0  0  0  0  0  0  0
   46.8690   34.2760   40.8780 C   0  0  0  0  0  3  0  0  0  0  0  0
   47.8900   33.9150   41.8900 C   0  0  0  0  0  2  0  0  0  0  0  0
   49.0120   34.9370   41.7760 C   0  0  0  0  0  2  0  0  0  0  0  0
   48.9520   35.7070   40.4960 C   0  0  0  0  0  2  0  0  0  0  0  0
   48.6540   34.8600   39.2990 C   0  0  0  0  0  2  0  0  0  0  0  0
   47.3910   34.0480   39.5080 C   0  0  0  0  0  2  0  0  0  0  0  0
  1 16  1  0  0  0  0
  2  7  1  1  0  0  0
  2  1  1  0  0  0  0
  3  2  1  0  0  0  0
  4  3  1  0  0  0  0
  4  5  1  0  0  0  0
  5 11  1  0  0  0  0
  5  6  1  0  0  0  0
  6  1  1  0  0  0  0
  6 14  1  0  0  0  0
  8  3  1  0  0  0  0
  9  3  1  0  0  0  0
 10  4  1  0  0  0  0
 12  5  1  0  0  0  0
 13  6  1  0  0  0  0
 15 20  1  0  0  0  0
 16 15  2  0  0  0  0
 16 17  1  0  0  0  0
 17 18  2  0  0  0  0
 18 19  1  0  0  0  0
 19 23  1  0  0  0  0
 20 19  2  0  0  0  0
 21 15  1  0  0  0  0
 22 17  1  0  0  0  0
 24  2  1  0  0  0  0
 24 25  1  0  0  0  0
 26 25  1  0  0  0  0
 27 26  1  0  0  0  0
 28 29  1  0  0  0  0
 28 27  1  0  0  0  0
 29 24  1  0  0  0  0
M  END
>  <minimizedAffinity>
-4.87370634

>  <minimizedRMSD>
1.07612467

$$$$
