
 OpenBabel03252508333D

 29 31  0  0  1  0  0  0  0  0999 V2000
   44.6830   34.4770   41.9760 N   0  0  0  0  0  0  0  0  0  0  0  0
   45.4730   33.6830   41.1380 C   0  0  1  0  0  0  0  0  0  0  0  0
   44.9150   33.3880   39.7720 C   0  0  0  0  0  0  0  0  0  0  0  0
   43.5740   33.6380   39.5100 N   0  0  0  0  0  0  0  0  0  0  0  0
   42.9240   34.6110   40.2610 C   0  0  0  0  0  0  0  0  0  0  0  0
   43.7740   35.3180   41.2450 C   0  0  0  0  0  0  0  0  0  0  0  0
   45.6910   32.7070   41.6270 H   0  0  0  0  0  0  0  0  0  0  0  0
   45.1380   32.2880   39.5590 H   0  0  0  0  0  0  0  0  0  0  0  0
   45.5210   33.9010   39.0010 H   0  0  0  0  0  0  0  0  0  0  0  0
   43.4170   33.6500   38.4820 H   0  0  0  0  0  0  0  0  0  0  0  0
   42.0260   34.1710   40.7840 H   0  0  0  0  0  0  0  0  0  0  0  0
   42.4860   35.3970   39.5820 H   0  0  0  0  0  0  0  0  0  0  0  0
   44.2610   36.2420   40.8300 H   0  0  0  0  0  0  0  0  0  0  0  0
   43.0530   35.7550   42.0060 H   0  0  0  0  0  0  0  0  0  0  0  0
   44.4210   35.5700   44.0880 C   0  0  0  0  0  0  0  0  0  0  0  0
   44.8080   34.4310   43.3920 C   0  0  0  0  0  0  0  0  0  0  0  0
   45.2910   33.3490   44.0970 C   0  0  0  0  0  0  0  0  0  0  0  0
   45.3930   33.3900   45.4520 N   0  0  0  0  0  0  0  0  0  0  0  0
   45.0050   34.5260   46.1170 C   0  0  0  0  0  0  0  0  0  0  0  0
   44.5290   35.5900   45.4340 N   0  0  0  0  0  0  0  0  0  0  0  0
   44.0290   36.5100   43.7390 H   0  0  0  0  0  0  0  0  0  0  0  0
   45.5910   32.4510   43.6120 H   0  0  0  0  0  0  0  0  0  0  0  0
   45.0910   34.5430   47.2050 H   0  0  0  0  0  0  0  0  0  0  0  0
   46.8700   34.2760   40.8780 C   0  0  0  0  0  3  0  0  0  0  0  0
   47.8910   33.9150   41.8910 C   0  0  0  0  0  2  0  0  0  0  0  0
   49.0130   34.9370   41.7760 C   0  0  0  0  0  2  0  0  0  0  0  0
   48.9520   35.7070   40.4960 C   0  0  0  0  0  2  0  0  0  0  0  0
   48.6540   34.8610   39.3000 C   0  0  0  0  0  2  0  0  0  0  0  0
   47.3910   34.0490   39.5070 C   0  0  0  0  0  2  0  0  0  0  0  0
  1 16  1  0  0  0  0
  2  7  1  1  0  0  0
  2  1  1  0  0  0  0
  3  2  1  0  0  0  0
  4  3  1  0  0  0  0
  4  5  1  0  0  0  0
  5 11  1  0  0  0  0
  5  6  1  0  0  0  0
  6  1  1  0  0  0  0
  6 14  1  0  0  0  0
  8  3  1  0  0  0  0
  9  3  1  0  0  0  0
 10  4  1  0  0  0  0
 12  5  1  0  0  0  0
 13  6  1  0  0  0  0
 15 20  1  0  0  0  0
 16 15  2  0  0  0  0
 16 17  1  0  0  0  0
 17 18  2  0  0  0  0
 18 19  1  0  0  0  0
 19 23  1  0  0  0  0
 20 19  2  0  0  0  0
 21 15  1  0  0  0  0
 22 17  1  0  0  0  0
 24  2  1  0  0  0  0
 24 25  1  0  0  0  0
 26 25  1  0  0  0  0
 27 26  1  0  0  0  0
 28 29  1  0  0  0  0
 28 27  1  0  0  0  0
 29 24  1  0  0  0  0
M  END
>  <minimizedAffinity>
-4.87344122

>  <minimizedRMSD>
1.10695601

$$$$
