
 OpenBabel03252507263D

 24 26  0  0  0  0  0  0  0  0999 V2000
   45.5280   33.8090   45.5760 C   0  0  0  0  0  0  0  0  0  0  0  0
   44.6770   34.8850   45.8730 C   0  0  0  0  0  0  0  0  0  0  0  0
   44.5440   35.8920   44.8950 C   0  0  0  0  0  0  0  0  0  0  0  0
   45.2460   35.7650   43.7200 N   0  0  0  0  0  0  0  0  0  0  0  0
   46.0440   34.7060   43.5010 C   0  0  0  0  0  0  0  0  0  0  0  0
   46.1910   33.7370   44.4050 N   0  0  0  0  0  0  0  0  0  0  0  0
   44.1660   34.9110   46.8100 H   0  0  0  0  0  0  0  0  0  0  0  0
   43.9050   36.7220   45.0920 H   0  0  0  0  0  0  0  0  0  0  0  0
   46.7660   34.6320   42.2240 C   0  0  0  0  0  0  0  0  0  0  0  0
   47.9340   35.3230   42.0360 C   0  0  0  0  0  0  0  0  0  0  0  0
   48.6810   35.3170   40.8770 C   0  0  0  0  0  0  0  0  0  0  0  0
   48.1480   34.5270   39.8650 C   0  0  0  0  0  0  0  0  0  0  0  0
   46.9680   33.8170   40.0280 C   0  0  0  0  0  0  0  0  0  0  0  0
   46.2820   33.8740   41.2100 N   0  0  0  0  0  0  0  0  0  0  0  0
   48.3390   35.9440   42.8520 H   0  0  0  0  0  0  0  0  0  0  0  0
   49.6010   35.8750   40.7610 H   0  0  0  0  0  0  0  0  0  0  0  0
   48.6500   34.4480   38.9150 H   0  0  0  0  0  0  0  0  0  0  0  0
   46.5630   33.2020   39.2260 H   0  0  0  0  0  0  0  0  0  0  0  0
   45.7350   32.6970   46.5410 C   0  0  0  0  0  3  0  0  0  0  0  0
   45.0410   32.8980   47.8500 C   0  0  0  0  0  2  0  0  0  0  0  0
   45.2560   31.6200   48.6500 C   0  0  0  0  0  2  0  0  0  0  0  0
   46.6970   31.2430   48.7940 C   0  0  0  0  0  2  0  0  0  0  0  0
   47.4460   31.2710   47.4850 C   0  0  0  0  0  2  0  0  0  0  0  0
   47.2340   32.6330   46.8620 C   0  0  0  0  0  2  0  0  0  0  0  0
  1  2  1  0  0  0  0
  1 19  1  0  0  0  0
  2  7  1  0  0  0  0
  3  8  1  0  0  0  0
  3  2  2  0  0  0  0
  4  3  1  0  0  0  0
  5  4  2  0  0  0  0
  5  6  1  0  0  0  0
  6  1  2  0  0  0  0
  9  5  1  0  0  0  0
 10  9  1  0  0  0  0
 10 15  1  0  0  0  0
 11 10  2  0  0  0  0
 12 13  2  0  0  0  0
 12 11  1  0  0  0  0
 13 14  1  0  0  0  0
 14  9  2  0  0  0  0
 16 11  1  0  0  0  0
 17 12  1  0  0  0  0
 18 13  1  0  0  0  0
 19 24  1  0  0  0  0
 19 20  1  0  0  0  0
 20 21  1  0  0  0  0
 21 22  1  0  0  0  0
 23 22  1  0  0  0  0
 24 23  1  0  0  0  0
M  END
>  <minimizedAffinity>
-6.12370396

>  <minimizedRMSD>
0.558777094

$$$$
