
 OpenBabel03252507263D

 24 26  0  0  0  0  0  0  0  0999 V2000
   45.5280   33.8080   45.5770 C   0  0  0  0  0  0  0  0  0  0  0  0
   44.6770   34.8840   45.8740 C   0  0  0  0  0  0  0  0  0  0  0  0
   44.5440   35.8920   44.8950 C   0  0  0  0  0  0  0  0  0  0  0  0
   45.2460   35.7640   43.7210 N   0  0  0  0  0  0  0  0  0  0  0  0
   46.0440   34.7060   43.5020 C   0  0  0  0  0  0  0  0  0  0  0  0
   46.1910   33.7370   44.4060 N   0  0  0  0  0  0  0  0  0  0  0  0
   44.1650   34.9110   46.8110 H   0  0  0  0  0  0  0  0  0  0  0  0
   43.9040   36.7210   45.0930 H   0  0  0  0  0  0  0  0  0  0  0  0
   46.7660   34.6320   42.2250 C   0  0  0  0  0  0  0  0  0  0  0  0
   47.9340   35.3230   42.0370 C   0  0  0  0  0  0  0  0  0  0  0  0
   48.6810   35.3160   40.8780 C   0  0  0  0  0  0  0  0  0  0  0  0
   48.1480   34.5270   39.8660 C   0  0  0  0  0  0  0  0  0  0  0  0
   46.9680   33.8170   40.0290 C   0  0  0  0  0  0  0  0  0  0  0  0
   46.2820   33.8740   41.2110 N   0  0  0  0  0  0  0  0  0  0  0  0
   48.3390   35.9430   42.8530 H   0  0  0  0  0  0  0  0  0  0  0  0
   49.6010   35.8750   40.7620 H   0  0  0  0  0  0  0  0  0  0  0  0
   48.6500   34.4480   38.9170 H   0  0  0  0  0  0  0  0  0  0  0  0
   46.5630   33.2020   39.2260 H   0  0  0  0  0  0  0  0  0  0  0  0
   45.7350   32.6970   46.5420 C   0  0  0  0  0  3  0  0  0  0  0  0
   45.0420   32.8970   47.8510 C   0  0  0  0  0  2  0  0  0  0  0  0
   45.2560   31.6190   48.6510 C   0  0  0  0  0  2  0  0  0  0  0  0
   46.6970   31.2430   48.7940 C   0  0  0  0  0  2  0  0  0  0  0  0
   47.4460   31.2700   47.4860 C   0  0  0  0  0  2  0  0  0  0  0  0
   47.2350   32.6330   46.8630 C   0  0  0  0  0  2  0  0  0  0  0  0
  1  2  1  0  0  0  0
  1 19  1  0  0  0  0
  2  7  1  0  0  0  0
  3  8  1  0  0  0  0
  3  2  2  0  0  0  0
  4  3  1  0  0  0  0
  5  4  2  0  0  0  0
  5  6  1  0  0  0  0
  6  1  2  0  0  0  0
  9  5  1  0  0  0  0
 10  9  1  0  0  0  0
 10 15  1  0  0  0  0
 11 10  2  0  0  0  0
 12 13  2  0  0  0  0
 12 11  1  0  0  0  0
 13 14  1  0  0  0  0
 14  9  2  0  0  0  0
 16 11  1  0  0  0  0
 17 12  1  0  0  0  0
 18 13  1  0  0  0  0
 19 24  1  0  0  0  0
 19 20  1  0  0  0  0
 20 21  1  0  0  0  0
 21 22  1  0  0  0  0
 23 22  1  0  0  0  0
 24 23  1  0  0  0  0
M  END
>  <minimizedAffinity>
-6.12361717

>  <minimizedRMSD>
0.4206855

$$$$
