
 OpenBabel03242511103D

 40 44  0  0  1  0  0  0  0  0999 V2000
   37.0330   29.1400   41.5490 C   0  0  0  0  0  0  0  0  0  0  0  0
   37.5030   29.2660   42.8490 C   0  0  0  0  0  0  0  0  0  0  0  0
   37.8530   28.1860   43.6440 C   0  0  0  0  0  0  0  0  0  0  0  0
   37.7390   26.9000   43.1470 C   0  0  0  0  0  0  0  0  0  0  0  0
   37.2830   26.7360   41.8840 C   0  0  0  0  0  0  0  0  0  0  0  0
   37.1700   25.4630   41.3770 C   0  0  0  0  0  0  0  0  0  0  0  0
   36.7170   25.2240   40.0890 C   0  0  0  0  0  0  0  0  0  0  0  0
   36.3820   26.3450   39.3340 C   0  0  0  0  0  0  0  0  0  0  0  0
   36.4990   27.6070   39.8510 C   0  0  0  0  0  0  0  0  0  0  0  0
   36.9450   27.8360   41.1180 C   0  0  0  0  0  0  0  0  0  0  0  0
   37.6080   30.2530   43.2740 H   0  0  0  0  0  0  0  0  0  0  0  0
   38.2130   28.3620   44.6490 H   0  0  0  0  0  0  0  0  0  0  0  0
   38.0290   26.1060   43.8230 H   0  0  0  0  0  0  0  0  0  0  0  0
   37.4560   24.6430   42.0390 H   0  0  0  0  0  0  0  0  0  0  0  0
   36.6800   24.1590   39.8260 H   0  0  0  0  0  0  0  0  0  0  0  0
   36.0590   25.9450   38.3760 H   0  0  0  0  0  0  0  0  0  0  0  0
   36.0390   28.5250   38.7920 C   0  0  0  0  0  3  0  0  0  0  0  0
   34.7670   27.8740   38.1340 C   0  0  0  0  0  2  0  0  0  0  0  0
   34.1990   28.8840   37.1450 C   0  0  0  0  0  2  0  0  0  0  0  0
   35.1700   29.3570   36.1250 C   0  0  0  0  0  2  0  0  0  0  0  0
   36.5140   29.7040   36.7280 C   0  0  0  0  0  2  0  0  0  0  0  0
   36.9840   28.5520   37.6090 C   0  0  0  0  0  2  0  0  0  0  0  0
   36.7030   30.2810   40.8080 N   0  0  0  0  0  0  0  0  0  0  0  0
   35.6700   30.1810   40.8950 H   0  0  0  0  0  0  0  0  0  0  0  0
   38.1560   32.3910   40.6950 C   0  0  1  0  0  0  0  0  0  0  0  0
   37.2690   32.3420   39.4660 C   0  0  0  0  0  0  0  0  0  0  0  0
   37.7330   31.1040   40.2230 C   0  0  2  0  0  0  0  0  0  0  0  0
   37.6830   33.0050   41.5030 H   0  0  0  0  0  0  0  0  0  0  0  0
   36.1960   32.6010   39.5520 H   0  0  0  0  0  0  0  0  0  0  0  0
   37.6900   32.4810   38.4600 H   0  0  0  0  0  0  0  0  0  0  0  0
   38.5120   30.4770   39.7170 H   0  0  0  0  0  0  0  0  0  0  0  0
   41.1830   34.1590   39.4340 C   0  0  0  0  0  0  0  0  0  0  0  0
   42.2180   33.4800   40.1840 C   0  0  0  0  0  0  0  0  0  0  0  0
   41.8320   32.4570   41.0900 C   0  0  0  0  0  0  0  0  0  0  0  0
   40.5380   32.1490   41.2290 N   0  0  0  0  0  0  0  0  0  0  0  0
   39.5830   32.8050   40.5100 C   0  0  0  0  0  0  0  0  0  0  0  0
   39.9130   33.8020   39.6210 N   0  0  0  0  0  0  0  0  0  0  0  0
   41.4910   34.9350   38.7480 H   0  0  0  0  0  0  0  0  0  0  0  0
   43.2470   33.7680   40.0320 H   0  0  0  0  0  0  0  0  0  0  0  0
   42.6420   31.9780   41.6280 H   0  0  0  0  0  0  0  0  0  0  0  0
  1  2  1  0  0  0  0
  2 11  1  0  0  0  0
  2  3  2  0  0  0  0
  3 12  1  0  0  0  0
  4  3  1  0  0  0  0
  4 13  1  0  0  0  0
  5  4  2  0  0  0  0
  6  5  1  0  0  0  0
  6 14  1  0  0  0  0
  7  6  2  0  0  0  0
  8  9  2  0  0  0  0
  8  7  1  0  0  0  0
  9 10  1  0  0  0  0
 10  1  2  0  0  0  0
 10  5  1  0  0  0  0
 15  7  1  0  0  0  0
 16  8  1  0  0  0  0
 17  9  1  0  0  0  0
 18 17  1  0  0  0  0
 19 18  1  0  0  0  0
 20 21  1  0  0  0  0
 20 19  1  0  0  0  0
 21 22  1  0  0  0  0
 22 17  1  0  0  0  0
 23 24  1  0  0  0  0
 23  1  1  0  0  0  0
 25 28  1  1  0  0  0
 26 29  1  0  0  0  0
 26 27  1  0  0  0  0
 26 25  1  0  0  0  0
 27 31  1  6  0  0  0
 27 25  1  0  0  0  0
 27 23  1  0  0  0  0
 30 26  1  0  0  0  0
 32 37  2  0  0  0  0
 32 33  1  0  0  0  0
 33 34  2  0  0  0  0
 34 35  1  0  0  0  0
 34 40  1  0  0  0  0
 36 25  1  0  0  0  0
 36 35  2  0  0  0  0
 37 36  1  0  0  0  0
 38 32  1  0  0  0  0
 39 33  1  0  0  0  0
M  END
>  <minimizedAffinity>
-6.41755915

$$$$

 OpenBabel03242511103D

 40 44  0  0  1  0  0  0  0  0999 V2000
   37.0970   31.2210   40.3500 C   0  0  0  0  0  0  0  0  0  0  0  0
   36.9990   32.4350   39.6850 C   0  0  0  0  0  0  0  0  0  0  0  0
   37.9680   33.4240   39.7500 C   0  0  0  0  0  0  0  0  0  0  0  0
   39.1060   33.2240   40.5100 C   0  0  0  0  0  0  0  0  0  0  0  0
   39.2380   32.0520   41.1750 C   0  0  0  0  0  0  0  0  0  0  0  0
   40.3680   31.8390   41.9300 C   0  0  0  0  0  0  0  0  0  0  0  0
   40.5700   30.6600   42.6300 C   0  0  0  0  0  0  0  0  0  0  0  0
   39.5660   29.7010   42.5280 C   0  0  0  0  0  0  0  0  0  0  0  0
   38.4470   29.9260   41.7720 C   0  0  0  0  0  0  0  0  0  0  0  0
   38.2530   31.0880   41.0870 C   0  0  0  0  0  0  0  0  0  0  0  0
   36.1270   32.6300   39.0790 H   0  0  0  0  0  0  0  0  0  0  0  0
   37.8220   34.3460   39.2020 H   0  0  0  0  0  0  0  0  0  0  0  0
   39.8190   34.0370   40.5160 H   0  0  0  0  0  0  0  0  0  0  0  0
   41.1030   32.6470   41.9530 H   0  0  0  0  0  0  0  0  0  0  0  0
   41.5150   30.6360   43.1870 H   0  0  0  0  0  0  0  0  0  0  0  0
   39.9150   28.8720   43.1370 H   0  0  0  0  0  0  0  0  0  0  0  0
   37.6090   28.7210   41.9180 C   0  0  0  0  0  3  0  0  0  0  0  0
   37.4520   28.4470   43.4580 C   0  0  0  0  0  2  0  0  0  0  0  0
   36.4670   27.2970   43.6190 C   0  0  0  0  0  2  0  0  0  0  0  0
   36.8340   26.0660   42.8720 C   0  0  0  0  0  2  0  0  0  0  0  0
   37.2800   26.3640   41.4560 C   0  0  0  0  0  2  0  0  0  0  0  0
   38.3340   27.4650   41.4820 C   0  0  0  0  0  2  0  0  0  0  0  0
   36.0760   30.2710   40.2320 N   0  0  0  0  0  0  0  0  0  0  0  0
   35.8850   30.1800   41.2510 H   0  0  0  0  0  0  0  0  0  0  0  0
   34.5570   28.9210   38.6690 C   0  0  1  0  0  0  0  0  0  0  0  0
   35.9370   28.2900   38.6740 C   0  0  0  0  0  0  0  0  0  0  0  0
   35.6820   29.7690   38.9380 C   0  0  2  0  0  0  0  0  0  0  0  0
   33.8890   28.4230   39.4160 H   0  0  0  0  0  0  0  0  0  0  0  0
   36.2600   27.6820   39.5400 H   0  0  0  0  0  0  0  0  0  0  0  0
   36.4500   28.0480   37.7330 H   0  0  0  0  0  0  0  0  0  0  0  0
   35.9800   30.4770   38.1220 H   0  0  0  0  0  0  0  0  0  0  0  0
   33.9270   29.0620   35.0000 C   0  0  0  0  0  0  0  0  0  0  0  0
   32.5020   29.3160   34.9860 C   0  0  0  0  0  0  0  0  0  0  0  0
   31.8230   29.4190   36.2290 C   0  0  0  0  0  0  0  0  0  0  0  0
   32.5070   29.2790   37.3700 N   0  0  0  0  0  0  0  0  0  0  0  0
   33.8500   29.0400   37.3540 C   0  0  0  0  0  0  0  0  0  0  0  0
   34.5460   28.9340   36.1730 N   0  0  0  0  0  0  0  0  0  0  0  0
   34.4300   28.9880   34.0460 H   0  0  0  0  0  0  0  0  0  0  0  0
   32.0000   29.4210   34.0360 H   0  0  0  0  0  0  0  0  0  0  0  0
   30.7580   29.6090   36.1670 H   0  0  0  0  0  0  0  0  0  0  0  0
  1 10  1  0  0  0  0
  2  3  1  0  0  0  0
  2  1  2  0  0  0  0
  3  4  2  0  0  0  0
  4 13  1  0  0  0  0
  4  5  1  0  0  0  0
  5  6  1  0  0  0  0
  6 14  1  0  0  0  0
  6  7  2  0  0  0  0
  7 15  1  0  0  0  0
  8  7  1  0  0  0  0
  8 16  1  0  0  0  0
  9 17  1  0  0  0  0
  9  8  2  0  0  0  0
 10  5  2  0  0  0  0
 10  9  1  0  0  0  0
 11  2  1  0  0  0  0
 12  3  1  0  0  0  0
 17 18  1  0  0  0  0
 18 19  1  0  0  0  0
 20 19  1  0  0  0  0
 21 22  1  0  0  0  0
 21 20  1  0  0  0  0
 22 17  1  0  0  0  0
 23  1  1  0  0  0  0
 23 24  1  0  0  0  0
 25 26  1  0  0  0  0
 25 27  1  0  0  0  0
 25 28  1  1  0  0  0
 26 27  1  0  0  0  0
 26 29  1  0  0  0  0
 27 31  1  6  0  0  0
 27 23  1  0  0  0  0
 30 26  1  0  0  0  0
 32 37  1  0  0  0  0
 33 32  2  0  0  0  0
 33 34  1  0  0  0  0
 34 35  2  0  0  0  0
 36 35  1  0  0  0  0
 36 25  1  0  0  0  0
 37 36  2  0  0  0  0
 38 32  1  0  0  0  0
 39 33  1  0  0  0  0
 40 34  1  0  0  0  0
M  END
>  <minimizedAffinity>
-6.31483078

$$$$

 OpenBabel03242511103D

 40 44  0  0  1  0  0  0  0  0999 V2000
   37.4270   27.5750   39.5490 C   0  0  0  0  0  0  0  0  0  0  0  0
   37.1760   26.2680   39.1580 C   0  0  0  0  0  0  0  0  0  0  0  0
   36.9260   25.2360   40.0500 C   0  0  0  0  0  0  0  0  0  0  0  0
   36.9200   25.4890   41.4100 C   0  0  0  0  0  0  0  0  0  0  0  0
   37.1610   26.7520   41.8310 C   0  0  0  0  0  0  0  0  0  0  0  0
   37.1530   27.0170   43.1810 C   0  0  0  0  0  0  0  0  0  0  0  0
   37.3850   28.2890   43.6790 C   0  0  0  0  0  0  0  0  0  0  0  0
   37.6280   29.2870   42.7390 C   0  0  0  0  0  0  0  0  0  0  0  0
   37.6340   29.0090   41.3990 C   0  0  0  0  0  0  0  0  0  0  0  0
   37.4050   27.7570   40.9140 C   0  0  0  0  0  0  0  0  0  0  0  0
   37.1700   26.0290   38.1050 H   0  0  0  0  0  0  0  0  0  0  0  0
   36.7380   24.2410   39.6700 H   0  0  0  0  0  0  0  0  0  0  0  0
   36.7190   24.6380   42.0470 H   0  0  0  0  0  0  0  0  0  0  0  0
   36.9530   26.1740   43.8460 H   0  0  0  0  0  0  0  0  0  0  0  0
   37.3470   28.3460   44.7750 H   0  0  0  0  0  0  0  0  0  0  0  0
   37.7800   30.1880   43.3280 H   0  0  0  0  0  0  0  0  0  0  0  0
   37.9450   30.2820   40.7210 C   0  0  0  0  0  3  0  0  0  0  0  0
   39.0190   31.0240   41.5970 C   0  0  0  0  0  2  0  0  0  0  0  0
   39.4550   32.2650   40.8290 C   0  0  0  0  0  2  0  0  0  0  0  0
   38.3420   33.1670   40.4370 C   0  0  0  0  0  2  0  0  0  0  0  0
   37.1650   32.4100   39.8590 C   0  0  0  0  0  2  0  0  0  0  0  0
   36.7950   31.2650   40.7960 C   0  0  0  0  0  2  0  0  0  0  0  0
   37.6670   28.5630   38.5860 N   0  0  0  0  0  0  0  0  0  0  0  0
   38.7040   28.5650   38.6800 H   0  0  0  0  0  0  0  0  0  0  0  0
   36.0160   28.7680   36.6350 C   0  0  1  0  0  0  0  0  0  0  0  0
   36.9310   29.9780   36.6310 C   0  0  0  0  0  0  0  0  0  0  0  0
   36.5740   29.1920   37.8870 C   0  0  2  0  0  0  0  0  0  0  0  0
   36.4080   27.9700   35.9550 H   0  0  0  0  0  0  0  0  0  0  0  0
   37.9700   29.8790   36.2650 H   0  0  0  0  0  0  0  0  0  0  0  0
   36.5200   30.9950   36.5630 H   0  0  0  0  0  0  0  0  0  0  0  0
   35.8710   29.6940   38.6020 H   0  0  0  0  0  0  0  0  0  0  0  0
   32.8100   29.3980   34.8450 C   0  0  0  0  0  0  0  0  0  0  0  0
   31.8900   29.4490   35.9610 C   0  0  0  0  0  0  0  0  0  0  0  0
   32.4060   29.2570   37.2700 C   0  0  0  0  0  0  0  0  0  0  0  0
   33.7140   29.0360   37.4400 N   0  0  0  0  0  0  0  0  0  0  0  0
   34.5590   28.9930   36.3700 C   0  0  0  0  0  0  0  0  0  0  0  0
   34.1020   29.1740   35.0860 N   0  0  0  0  0  0  0  0  0  0  0  0
   32.4040   29.5470   33.8550 H   0  0  0  0  0  0  0  0  0  0  0  0
   30.8440   29.6310   35.7670 H   0  0  0  0  0  0  0  0  0  0  0  0
   31.6780   29.3030   38.0710 H   0  0  0  0  0  0  0  0  0  0  0  0
  1 10  1  0  0  0  0
  2  1  2  0  0  0  0
  2  3  1  0  0  0  0
  3  4  2  0  0  0  0
  4  5  1  0  0  0  0
  4 13  1  0  0  0  0
  5  6  1  0  0  0  0
  6  7  2  0  0  0  0
  6 14  1  0  0  0  0
  7 15  1  0  0  0  0
  8 16  1  0  0  0  0
  8  7  1  0  0  0  0
  9  8  2  0  0  0  0
 10  9  1  0  0  0  0
 10  5  2  0  0  0  0
 11  2  1  0  0  0  0
 12  3  1  0  0  0  0
 17 22  1  0  0  0  0
 17  9  1  0  0  0  0
 17 18  1  0  0  0  0
 19 18  1  0  0  0  0
 20 19  1  0  0  0  0
 21 20  1  0  0  0  0
 21 22  1  0  0  0  0
 23 24  1  0  0  0  0
 23  1  1  0  0  0  0
 25 28  1  6  0  0  0
 25 27  1  0  0  0  0
 26 25  1  0  0  0  0
 26 27  1  0  0  0  0
 27 23  1  0  0  0  0
 27 31  1  1  0  0  0
 29 26  1  0  0  0  0
 30 26  1  0  0  0  0
 32 37  2  0  0  0  0
 32 33  1  0  0  0  0
 33 34  2  0  0  0  0
 34 35  1  0  0  0  0
 34 40  1  0  0  0  0
 36 25  1  0  0  0  0
 36 35  2  0  0  0  0
 37 36  1  0  0  0  0
 38 32  1  0  0  0  0
 39 33  1  0  0  0  0
M  END
>  <minimizedAffinity>
-6.20894766

$$$$

 OpenBabel03242511103D

 40 44  0  0  1  0  0  0  0  0999 V2000
   35.7370   28.8510   38.8600 C   0  0  0  0  0  0  0  0  0  0  0  0
   35.1070   29.2660   37.6950 C   0  0  0  0  0  0  0  0  0  0  0  0
   34.7130   28.3990   36.6880 C   0  0  0  0  0  0  0  0  0  0  0  0
   34.9450   27.0420   36.8180 C   0  0  0  0  0  0  0  0  0  0  0  0
   35.5580   26.5980   37.9400 C   0  0  0  0  0  0  0  0  0  0  0  0
   35.7900   25.2500   38.0830 C   0  0  0  0  0  0  0  0  0  0  0  0
   36.4070   24.7280   39.2090 C   0  0  0  0  0  0  0  0  0  0  0  0
   36.7800   25.6430   40.1900 C   0  0  0  0  0  0  0  0  0  0  0  0
   36.5430   26.9830   40.0340 C   0  0  0  0  0  0  0  0  0  0  0  0
   35.9370   27.4900   38.9250 C   0  0  0  0  0  0  0  0  0  0  0  0
   34.9060   30.3180   37.5560 H   0  0  0  0  0  0  0  0  0  0  0  0
   34.2250   28.7970   35.8070 H   0  0  0  0  0  0  0  0  0  0  0  0
   34.6120   26.4260   35.9940 H   0  0  0  0  0  0  0  0  0  0  0  0
   35.4630   24.6060   37.2640 H   0  0  0  0  0  0  0  0  0  0  0  0
   36.5240   23.6370   39.1800 H   0  0  0  0  0  0  0  0  0  0  0  0
   37.2350   25.0390   40.9710 H   0  0  0  0  0  0  0  0  0  0  0  0
   37.0870   27.6340   41.2410 C   0  0  0  0  0  3  0  0  0  0  0  0
   38.6510   27.4810   41.1870 C   0  0  0  0  0  2  0  0  0  0  0  0
   39.2260   28.2810   42.3490 C   0  0  0  0  0  2  0  0  0  0  0  0
   38.6790   27.9110   43.6790 C   0  0  0  0  0  2  0  0  0  0  0  0
   37.1730   27.7620   43.6600 C   0  0  0  0  0  2  0  0  0  0  0  0
   36.7720   26.8560   42.5020 C   0  0  0  0  0  2  0  0  0  0  0  0
   36.1030   29.7890   39.8330 N   0  0  0  0  0  0  0  0  0  0  0  0
   35.5420   29.3760   40.6070 H   0  0  0  0  0  0  0  0  0  0  0  0
   38.2870   31.1100   40.0690 C   0  0  1  0  0  0  0  0  0  0  0  0
   37.1400   31.9700   40.5650 C   0  0  0  0  0  0  0  0  0  0  0  0
   36.9860   30.8820   39.5090 C   0  0  2  0  0  0  0  0  0  0  0  0
   38.7670   30.5580   40.9160 H   0  0  0  0  0  0  0  0  0  0  0  0
   36.6890   31.7660   41.5550 H   0  0  0  0  0  0  0  0  0  0  0  0
   37.0190   33.0050   40.2160 H   0  0  0  0  0  0  0  0  0  0  0  0
   36.8270   31.2320   38.4560 H   0  0  0  0  0  0  0  0  0  0  0  0
   40.6730   31.7830   37.2880 C   0  0  0  0  0  0  0  0  0  0  0  0
   41.3040   32.9940   37.7670 C   0  0  0  0  0  0  0  0  0  0  0  0
   40.8780   33.5280   39.0120 C   0  0  0  0  0  0  0  0  0  0  0  0
   39.9170   32.9080   39.7050 N   0  0  0  0  0  0  0  0  0  0  0  0
   39.3400   31.7670   39.2290 C   0  0  0  0  0  0  0  0  0  0  0  0
   39.7220   31.2160   38.0280 N   0  0  0  0  0  0  0  0  0  0  0  0
   41.0070   31.3880   36.3390 H   0  0  0  0  0  0  0  0  0  0  0  0
   42.0750   33.4540   37.1680 H   0  0  0  0  0  0  0  0  0  0  0  0
   41.3790   34.4360   39.3280 H   0  0  0  0  0  0  0  0  0  0  0  0
  1 10  1  0  0  0  0
  1 23  1  0  0  0  0
  2  1  2  0  0  0  0
  3  4  2  0  0  0  0
  3  2  1  0  0  0  0
  4  5  1  0  0  0  0
  5  6  2  0  0  0  0
  5 10  1  0  0  0  0
  6  7  1  0  0  0  0
  7  8  2  0  0  0  0
  8 16  1  0  0  0  0
  9  8  1  0  0  0  0
  9 17  1  0  0  0  0
 10  9  2  0  0  0  0
 11  2  1  0  0  0  0
 12  3  1  0  0  0  0
 13  4  1  0  0  0  0
 14  6  1  0  0  0  0
 15  7  1  0  0  0  0
 17 22  1  0  0  0  0
 18 17  1  0  0  0  0
 18 19  1  0  0  0  0
 19 20  1  0  0  0  0
 21 20  1  0  0  0  0
 22 21  1  0  0  0  0
 23 24  1  0  0  0  0
 25 26  1  0  0  0  0
 25 28  1  1  0  0  0
 26 29  1  0  0  0  0
 27 31  1  6  0  0  0
 27 23  1  0  0  0  0
 27 25  1  0  0  0  0
 27 26  1  0  0  0  0
 30 26  1  0  0  0  0
 32 33  2  0  0  0  0
 32 37  1  0  0  0  0
 33 34  1  0  0  0  0
 34 40  1  0  0  0  0
 34 35  2  0  0  0  0
 36 35  1  0  0  0  0
 36 25  1  0  0  0  0
 37 36  2  0  0  0  0
 38 32  1  0  0  0  0
 39 33  1  0  0  0  0
M  END
>  <minimizedAffinity>
-6.00510645

$$$$

 OpenBabel03242511103D

 40 44  0  0  1  0  0  0  0  0999 V2000
   37.0990   26.8700   39.8660 C   0  0  0  0  0  0  0  0  0  0  0  0
   36.8810   25.4990   39.8430 C   0  0  0  0  0  0  0  0  0  0  0  0
   36.7920   24.7190   40.9850 C   0  0  0  0  0  0  0  0  0  0  0  0
   36.9220   25.3050   42.2310 C   0  0  0  0  0  0  0  0  0  0  0  0
   37.1360   26.6400   42.2950 C   0  0  0  0  0  0  0  0  0  0  0  0
   37.2620   27.2350   43.5290 C   0  0  0  0  0  0  0  0  0  0  0  0
   37.4760   28.5980   43.6660 C   0  0  0  0  0  0  0  0  0  0  0  0
   37.5550   29.3330   42.4870 C   0  0  0  0  0  0  0  0  0  0  0  0
   37.4280   28.7280   41.2660 C   0  0  0  0  0  0  0  0  0  0  0  0
   37.2190   27.3880   41.1360 C   0  0  0  0  0  0  0  0  0  0  0  0
   36.7730   25.0040   38.8900 H   0  0  0  0  0  0  0  0  0  0  0  0
   36.6200   23.6550   40.8870 H   0  0  0  0  0  0  0  0  0  0  0  0
   36.8430   24.6360   43.0770 H   0  0  0  0  0  0  0  0  0  0  0  0
   37.1860   26.5810   44.4000 H   0  0  0  0  0  0  0  0  0  0  0  0
   37.5560   28.9260   44.7110 H   0  0  0  0  0  0  0  0  0  0  0  0
   37.7200   30.3570   42.8130 H   0  0  0  0  0  0  0  0  0  0  0  0
   37.5880   29.7980   40.2640 C   0  0  0  0  0  3  0  0  0  0  0  0
   39.0770   30.2970   40.3510 C   0  0  0  0  0  2  0  0  0  0  0  0
   39.2900   31.2940   39.2190 C   0  0  0  0  0  2  0  0  0  0  0  0
   38.3260   32.4240   39.2070 C   0  0  0  0  0  2  0  0  0  0  0  0
   36.9000   31.9660   39.4260 C   0  0  0  0  0  2  0  0  0  0  0  0
   36.8460   31.0600   40.6510 C   0  0  0  0  0  2  0  0  0  0  0  0
   37.1740   27.5900   38.6680 N   0  0  0  0  0  0  0  0  0  0  0  0
   36.3300   28.1760   38.8330 H   0  0  0  0  0  0  0  0  0  0  0  0
   39.1140   28.2920   37.1450 C   0  0  1  0  0  0  0  0  0  0  0  0
   37.9720   27.7880   36.2820 C   0  0  0  0  0  0  0  0  0  0  0  0
   38.2200   27.3230   37.7120 C   0  0  2  0  0  0  0  0  0  0  0  0
   39.0670   29.4040   37.2580 H   0  0  0  0  0  0  0  0  0  0  0  0
   37.0840   28.4290   36.1180 H   0  0  0  0  0  0  0  0  0  0  0  0
   38.1470   27.0440   35.4930 H   0  0  0  0  0  0  0  0  0  0  0  0
   38.6220   26.2830   37.8310 H   0  0  0  0  0  0  0  0  0  0  0  0
   42.7390   28.4500   36.3010 C   0  0  0  0  0  0  0  0  0  0  0  0
   43.0130   27.0510   36.0470 C   0  0  0  0  0  0  0  0  0  0  0  0
   41.9490   26.1210   36.1840 C   0  0  0  0  0  0  0  0  0  0  0  0
   40.7340   26.5520   36.5410 N   0  0  0  0  0  0  0  0  0  0  0  0
   40.5040   27.8760   36.7740 C   0  0  0  0  0  0  0  0  0  0  0  0
   41.5050   28.8110   36.6520 N   0  0  0  0  0  0  0  0  0  0  0  0
   43.5570   29.1470   36.1920 H   0  0  0  0  0  0  0  0  0  0  0  0
   44.0110   26.7590   35.7610 H   0  0  0  0  0  0  0  0  0  0  0  0
   42.2030   25.0860   35.9850 H   0  0  0  0  0  0  0  0  0  0  0  0
  1 10  1  0  0  0  0
  2  1  2  0  0  0  0
  2  3  1  0  0  0  0
  3  4  2  0  0  0  0
  4  5  1  0  0  0  0
  4 13  1  0  0  0  0
  5  6  1  0  0  0  0
  6  7  2  0  0  0  0
  6 14  1  0  0  0  0
  7 15  1  0  0  0  0
  8 16  1  0  0  0  0
  8  7  1  0  0  0  0
  9  8  2  0  0  0  0
 10  9  1  0  0  0  0
 10  5  2  0  0  0  0
 11  2  1  0  0  0  0
 12  3  1  0  0  0  0
 17 18  1  0  0  0  0
 17 22  1  0  0  0  0
 17  9  1  0  0  0  0
 19 18  1  0  0  0  0
 20 19  1  0  0  0  0
 20 21  1  0  0  0  0
 21 22  1  0  0  0  0
 23 24  1  0  0  0  0
 23  1  1  0  0  0  0
 25 28  1  1  0  0  0
 25 27  1  0  0  0  0
 26 25  1  0  0  0  0
 26 27  1  0  0  0  0
 27 31  1  1  0  0  0
 27 23  1  0  0  0  0
 29 26  1  0  0  0  0
 30 26  1  0  0  0  0
 32 37  1  0  0  0  0
 33 34  1  0  0  0  0
 33 32  2  0  0  0  0
 34 35  2  0  0  0  0
 35 36  1  0  0  0  0
 36 25  1  0  0  0  0
 37 36  2  0  0  0  0
 38 32  1  0  0  0  0
 39 33  1  0  0  0  0
 40 34  1  0  0  0  0
M  END
>  <minimizedAffinity>
-5.90540552

$$$$

 OpenBabel03242511103D

 40 44  0  0  1  0  0  0  0  0999 V2000
   37.1060   31.3180   40.2620 C   0  0  0  0  0  0  0  0  0  0  0  0
   36.9990   32.5370   39.6070 C   0  0  0  0  0  0  0  0  0  0  0  0
   37.9470   33.5430   39.7030 C   0  0  0  0  0  0  0  0  0  0  0  0
   39.0720   33.3560   40.4860 C   0  0  0  0  0  0  0  0  0  0  0  0
   39.2130   32.1800   41.1410 C   0  0  0  0  0  0  0  0  0  0  0  0
   40.3300   31.9810   41.9180 C   0  0  0  0  0  0  0  0  0  0  0  0
   40.5400   30.7980   42.6100 C   0  0  0  0  0  0  0  0  0  0  0  0
   39.5570   29.8210   42.4760 C   0  0  0  0  0  0  0  0  0  0  0  0
   38.4500   30.0330   41.6990 C   0  0  0  0  0  0  0  0  0  0  0  0
   38.2490   31.1980   41.0210 C   0  0  0  0  0  0  0  0  0  0  0  0
   36.1360   32.7220   38.9850 H   0  0  0  0  0  0  0  0  0  0  0  0
   37.7950   34.4680   39.1630 H   0  0  0  0  0  0  0  0  0  0  0  0
   39.7690   34.1830   40.5150 H   0  0  0  0  0  0  0  0  0  0  0  0
   41.0490   32.8020   41.9650 H   0  0  0  0  0  0  0  0  0  0  0  0
   41.4740   30.7860   43.1860 H   0  0  0  0  0  0  0  0  0  0  0  0
   39.9100   28.9920   43.0840 H   0  0  0  0  0  0  0  0  0  0  0  0
   37.6330   28.8110   41.8140 C   0  0  0  0  0  3  0  0  0  0  0  0
   37.4930   28.4870   43.3460 C   0  0  0  0  0  2  0  0  0  0  0  0
   36.5280   27.3160   43.4780 C   0  0  0  0  0  2  0  0  0  0  0  0
   36.9080   26.1160   42.6910 C   0  0  0  0  0  2  0  0  0  0  0  0
   37.3380   26.4640   41.2820 C   0  0  0  0  0  2  0  0  0  0  0  0
   38.3740   27.5800   41.3330 C   0  0  0  0  0  2  0  0  0  0  0  0
   36.1070   30.3490   40.1120 N   0  0  0  0  0  0  0  0  0  0  0  0
   35.5040   30.6830   40.8920 H   0  0  0  0  0  0  0  0  0  0  0  0
   37.0150   29.4030   37.9090 C   0  0  1  0  0  0  0  0  0  0  0  0
   35.5200   29.6140   37.7700 C   0  0  0  0  0  0  0  0  0  0  0  0
   36.2140   29.3300   39.0970 C   0  0  2  0  0  0  0  0  0  0  0  0
   37.5800   30.2900   37.5260 H   0  0  0  0  0  0  0  0  0  0  0  0
   35.1200   30.6360   37.6300 H   0  0  0  0  0  0  0  0  0  0  0  0
   34.8710   28.8160   37.3820 H   0  0  0  0  0  0  0  0  0  0  0  0
   36.0560   28.3090   39.5300 H   0  0  0  0  0  0  0  0  0  0  0  0
   39.3840   26.6150   37.2020 C   0  0  0  0  0  0  0  0  0  0  0  0
   38.6230   25.8610   36.2300 C   0  0  0  0  0  0  0  0  0  0  0  0
   37.3340   26.3350   35.8680 C   0  0  0  0  0  0  0  0  0  0  0  0
   36.8590   27.4530   36.4280 N   0  0  0  0  0  0  0  0  0  0  0  0
   37.5980   28.1440   37.3420 C   0  0  0  0  0  0  0  0  0  0  0  0
   38.8510   27.7210   37.7200 N   0  0  0  0  0  0  0  0  0  0  0  0
   40.3640   26.2430   37.4670 H   0  0  0  0  0  0  0  0  0  0  0  0
   39.0540   24.9650   35.8090 H   0  0  0  0  0  0  0  0  0  0  0  0
   36.8020   25.7360   35.1380 H   0  0  0  0  0  0  0  0  0  0  0  0
  1 10  1  0  0  0  0
  2  3  1  0  0  0  0
  2  1  2  0  0  0  0
  3  4  2  0  0  0  0
  4 13  1  0  0  0  0
  4  5  1  0  0  0  0
  5  6  1  0  0  0  0
  6 14  1  0  0  0  0
  6  7  2  0  0  0  0
  7 15  1  0  0  0  0
  8  7  1  0  0  0  0
  8 16  1  0  0  0  0
  9 17  1  0  0  0  0
  9  8  2  0  0  0  0
 10  5  2  0  0  0  0
 10  9  1  0  0  0  0
 11  2  1  0  0  0  0
 12  3  1  0  0  0  0
 17 18  1  0  0  0  0
 18 19  1  0  0  0  0
 20 19  1  0  0  0  0
 21 22  1  0  0  0  0
 21 20  1  0  0  0  0
 22 17  1  0  0  0  0
 23  1  1  0  0  0  0
 23 24  1  0  0  0  0
 25 28  1  6  0  0  0
 25 27  1  0  0  0  0
 26 25  1  0  0  0  0
 26 27  1  0  0  0  0
 27 31  1  1  0  0  0
 27 23  1  0  0  0  0
 29 26  1  0  0  0  0
 30 26  1  0  0  0  0
 32 38  1  0  0  0  0
 32 37  1  0  0  0  0
 33 32  2  0  0  0  0
 34 33  1  0  0  0  0
 34 35  2  0  0  0  0
 35 36  1  0  0  0  0
 36 37  2  0  0  0  0
 36 25  1  0  0  0  0
 39 33  1  0  0  0  0
 40 34  1  0  0  0  0
M  END
>  <minimizedAffinity>
-5.86303425

$$$$

 OpenBabel03242511103D

 40 44  0  0  1  0  0  0  0  0999 V2000
   36.1690   28.3820   40.6400 C   0  0  0  0  0  0  0  0  0  0  0  0
   35.1300   29.1780   40.1800 C   0  0  0  0  0  0  0  0  0  0  0  0
   34.4450   28.9360   38.9990 C   0  0  0  0  0  0  0  0  0  0  0  0
   34.7900   27.8520   38.2130 C   0  0  0  0  0  0  0  0  0  0  0  0
   35.8000   27.0510   38.6280 C   0  0  0  0  0  0  0  0  0  0  0  0
   36.1490   25.9670   37.8580 C   0  0  0  0  0  0  0  0  0  0  0  0
   37.1690   25.1040   38.2270 C   0  0  0  0  0  0  0  0  0  0  0  0
   37.8210   25.3930   39.4220 C   0  0  0  0  0  0  0  0  0  0  0  0
   37.4630   26.4760   40.1790 C   0  0  0  0  0  0  0  0  0  0  0  0
   36.4600   27.3220   39.8110 C   0  0  0  0  0  0  0  0  0  0  0  0
   34.8290   30.0340   40.7650 H   0  0  0  0  0  0  0  0  0  0  0  0
   33.6440   29.6020   38.7050 H   0  0  0  0  0  0  0  0  0  0  0  0
   34.2150   27.7240   37.3060 H   0  0  0  0  0  0  0  0  0  0  0  0
   35.5830   25.8160   36.9360 H   0  0  0  0  0  0  0  0  0  0  0  0
   37.3320   24.2860   37.5130 H   0  0  0  0  0  0  0  0  0  0  0  0
   38.5670   24.6090   39.5250 H   0  0  0  0  0  0  0  0  0  0  0  0
   38.3720   26.4780   41.3400 C   0  0  0  0  0  3  0  0  0  0  0  0
   39.8340   26.6480   40.7860 C   0  0  0  0  0  2  0  0  0  0  0  0
   40.7610   26.8030   41.9840 C   0  0  0  0  0  2  0  0  0  0  0  0
   40.6700   25.7020   42.9770 C   0  0  0  0  0  2  0  0  0  0  0  0
   39.2370   25.3290   43.2920 C   0  0  0  0  0  2  0  0  0  0  0  0
   38.4750   25.1140   41.9890 C   0  0  0  0  0  2  0  0  0  0  0  0
   36.8100   28.6910   41.8460 N   0  0  0  0  0  0  0  0  0  0  0  0
   36.4890   27.8490   42.3660 H   0  0  0  0  0  0  0  0  0  0  0  0
   38.8300   30.1880   41.3410 C   0  0  1  0  0  0  0  0  0  0  0  0
   38.8540   29.8140   42.8110 C   0  0  0  0  0  0  0  0  0  0  0  0
   37.5780   29.9040   41.9820 C   0  0  2  0  0  0  0  0  0  0  0  0
   39.4590   29.4840   40.7400 H   0  0  0  0  0  0  0  0  0  0  0  0
   39.1750   28.8000   43.1140 H   0  0  0  0  0  0  0  0  0  0  0  0
   38.9830   30.5820   43.5870 H   0  0  0  0  0  0  0  0  0  0  0  0
   36.9130   30.7830   42.1900 H   0  0  0  0  0  0  0  0  0  0  0  0
   38.4500   33.7500   40.3160 C   0  0  0  0  0  0  0  0  0  0  0  0
   39.8370   34.1610   40.2700 C   0  0  0  0  0  0  0  0  0  0  0  0
   40.8350   33.2060   40.5990 C   0  0  0  0  0  0  0  0  0  0  0  0
   40.4750   31.9640   40.9410 N   0  0  0  0  0  0  0  0  0  0  0  0
   39.1600   31.6030   40.9760 C   0  0  0  0  0  0  0  0  0  0  0  0
   38.1620   32.4960   40.6640 N   0  0  0  0  0  0  0  0  0  0  0  0
   37.7020   34.4870   40.0620 H   0  0  0  0  0  0  0  0  0  0  0  0
   40.0720   35.1760   39.9870 H   0  0  0  0  0  0  0  0  0  0  0  0
   41.8580   33.5610   40.5510 H   0  0  0  0  0  0  0  0  0  0  0  0
  1 23  1  0  0  0  0
  2  1  1  0  0  0  0
  2 11  1  0  0  0  0
  3  2  2  0  0  0  0
  4  5  2  0  0  0  0
  4  3  1  0  0  0  0
  5 10  1  0  0  0  0
  6  7  2  0  0  0  0
  6  5  1  0  0  0  0
  7  8  1  0  0  0  0
  8 16  1  0  0  0  0
  8  9  2  0  0  0  0
  9 17  1  0  0  0  0
 10  9  1  0  0  0  0
 10  1  2  0  0  0  0
 12  3  1  0  0  0  0
 13  4  1  0  0  0  0
 14  6  1  0  0  0  0
 15  7  1  0  0  0  0
 17 22  1  0  0  0  0
 18 17  1  0  0  0  0
 18 19  1  0  0  0  0
 19 20  1  0  0  0  0
 20 21  1  0  0  0  0
 22 21  1  0  0  0  0
 23 27  1  0  0  0  0
 23 24  1  0  0  0  0
 25 28  1  6  0  0  0
 25 27  1  0  0  0  0
 25 26  1  0  0  0  0
 26 29  1  0  0  0  0
 26 30  1  0  0  0  0
 27 31  1  1  0  0  0
 27 26  1  0  0  0  0
 32 37  1  0  0  0  0
 33 32  2  0  0  0  0
 33 34  1  0  0  0  0
 34 35  2  0  0  0  0
 35 36  1  0  0  0  0
 36 25  1  0  0  0  0
 37 36  2  0  0  0  0
 38 32  1  0  0  0  0
 39 33  1  0  0  0  0
 40 34  1  0  0  0  0
M  END
>  <minimizedAffinity>
-5.80104733

$$$$

 OpenBabel03242511103D

 40 44  0  0  1  0  0  0  0  0999 V2000
   36.1940   26.2810   38.7060 C   0  0  0  0  0  0  0  0  0  0  0  0
   35.8470   25.9130   37.4140 C   0  0  0  0  0  0  0  0  0  0  0  0
   36.1370   24.6720   36.8680 C   0  0  0  0  0  0  0  0  0  0  0  0
   36.8080   23.7270   37.6230 C   0  0  0  0  0  0  0  0  0  0  0  0
   37.1640   24.0490   38.8890 C   0  0  0  0  0  0  0  0  0  0  0  0
   37.8270   23.1160   39.6510 C   0  0  0  0  0  0  0  0  0  0  0  0
   38.2140   23.3780   40.9560 C   0  0  0  0  0  0  0  0  0  0  0  0
   37.8950   24.6380   41.4550 C   0  0  0  0  0  0  0  0  0  0  0  0
   37.2350   25.5570   40.6840 C   0  0  0  0  0  0  0  0  0  0  0  0
   36.8570   25.2950   39.4020 C   0  0  0  0  0  0  0  0  0  0  0  0
   35.3210   26.6210   36.7920 H   0  0  0  0  0  0  0  0  0  0  0  0
   35.8340   24.4560   35.8520 H   0  0  0  0  0  0  0  0  0  0  0  0
   37.0020   22.7830   37.1330 H   0  0  0  0  0  0  0  0  0  0  0  0
   38.0350   22.1540   39.1790 H   0  0  0  0  0  0  0  0  0  0  0  0
   38.7330   22.5390   41.4370 H   0  0  0  0  0  0  0  0  0  0  0  0
   38.2780   24.6360   42.4720 H   0  0  0  0  0  0  0  0  0  0  0  0
   37.0940   26.7630   41.5220 C   0  0  0  0  0  3  0  0  0  0  0  0
   38.4910   27.4850   41.5370 C   0  0  0  0  0  2  0  0  0  0  0  0
   38.3130   28.8060   42.2730 C   0  0  0  0  0  2  0  0  0  0  0  0
   37.7420   28.6760   43.6380 C   0  0  0  0  0  2  0  0  0  0  0  0
   36.5610   27.7310   43.6800 C   0  0  0  0  0  2  0  0  0  0  0  0
   36.9370   26.4250   42.9900 C   0  0  0  0  0  2  0  0  0  0  0  0
   35.8620   27.5530   39.1870 N   0  0  0  0  0  0  0  0  0  0  0  0
   35.0880   27.2430   39.8090 H   0  0  0  0  0  0  0  0  0  0  0  0
   36.3410   30.0720   39.1580 C   0  0  1  0  0  0  0  0  0  0  0  0
   35.8030   29.6610   37.8000 C   0  0  0  0  0  0  0  0  0  0  0  0
   36.5680   28.7230   38.7260 C   0  0  2  0  0  0  0  0  0  0  0  0
   35.5160   30.4420   39.8180 H   0  0  0  0  0  0  0  0  0  0  0  0
   34.7220   29.4590   37.6760 H   0  0  0  0  0  0  0  0  0  0  0  0
   36.3180   29.9570   36.8760 H   0  0  0  0  0  0  0  0  0  0  0  0
   37.6150   28.4680   38.4170 H   0  0  0  0  0  0  0  0  0  0  0  0
   39.4300   31.9160   38.1900 C   0  0  0  0  0  0  0  0  0  0  0  0
   39.5940   32.7800   39.3400 C   0  0  0  0  0  0  0  0  0  0  0  0
   38.6370   32.6970   40.3870 C   0  0  0  0  0  0  0  0  0  0  0  0
   37.6200   31.8350   40.2870 N   0  0  0  0  0  0  0  0  0  0  0  0
   37.4900   31.0330   39.1920 C   0  0  0  0  0  0  0  0  0  0  0  0
   38.3930   31.0800   38.1560 N   0  0  0  0  0  0  0  0  0  0  0  0
   40.1650   31.9890   37.4020 H   0  0  0  0  0  0  0  0  0  0  0  0
   40.4340   33.4570   39.3690 H   0  0  0  0  0  0  0  0  0  0  0  0
   38.8020   33.3630   41.2250 H   0  0  0  0  0  0  0  0  0  0  0  0
  1 23  1  0  0  0  0
  1 10  1  0  0  0  0
  2  1  2  0  0  0  0
  3  2  1  0  0  0  0
  3  4  2  0  0  0  0
  4  5  1  0  0  0  0
  5 10  2  0  0  0  0
  5  6  1  0  0  0  0
  6  7  2  0  0  0  0
  7 15  1  0  0  0  0
  7  8  1  0  0  0  0
  8 16  1  0  0  0  0
  9  8  2  0  0  0  0
  9 17  1  0  0  0  0
 10  9  1  0  0  0  0
 11  2  1  0  0  0  0
 12  3  1  0  0  0  0
 13  4  1  0  0  0  0
 14  6  1  0  0  0  0
 17 18  1  0  0  0  0
 17 22  1  0  0  0  0
 18 19  1  0  0  0  0
 19 20  1  0  0  0  0
 20 21  1  0  0  0  0
 22 21  1  0  0  0  0
 23 24  1  0  0  0  0
 25 36  1  0  0  0  0
 25 28  1  1  0  0  0
 26 27  1  0  0  0  0
 26 25  1  0  0  0  0
 27 31  1  6  0  0  0
 27 25  1  0  0  0  0
 27 23  1  0  0  0  0
 29 26  1  0  0  0  0
 30 26  1  0  0  0  0
 32 33  1  0  0  0  0
 33 39  1  0  0  0  0
 33 34  2  0  0  0  0
 34 40  1  0  0  0  0
 35 34  1  0  0  0  0
 36 35  2  0  0  0  0
 37 32  2  0  0  0  0
 37 36  1  0  0  0  0
 38 32  1  0  0  0  0
M  END
>  <minimizedAffinity>
-5.78244591

$$$$

 OpenBabel03242511103D

 40 44  0  0  1  0  0  0  0  0999 V2000
   37.8710   29.5710   42.1280 C   0  0  0  0  0  0  0  0  0  0  0  0
   36.7910   28.8270   42.5820 C   0  0  0  0  0  0  0  0  0  0  0  0
   36.9220   27.6600   43.3190 C   0  0  0  0  0  0  0  0  0  0  0  0
   38.1810   27.1830   43.6360 C   0  0  0  0  0  0  0  0  0  0  0  0
   39.2590   27.8810   43.2110 C   0  0  0  0  0  0  0  0  0  0  0  0
   40.5160   27.4200   43.5250 C   0  0  0  0  0  0  0  0  0  0  0  0
   41.6630   28.0900   43.1270 C   0  0  0  0  0  0  0  0  0  0  0  0
   41.4740   29.2560   42.3910 C   0  0  0  0  0  0  0  0  0  0  0  0
   40.2170   29.7040   42.0860 C   0  0  0  0  0  0  0  0  0  0  0  0
   39.0930   29.0410   42.4790 C   0  0  0  0  0  0  0  0  0  0  0  0
   35.7910   29.1650   42.3560 H   0  0  0  0  0  0  0  0  0  0  0  0
   36.0320   27.1330   43.6390 H   0  0  0  0  0  0  0  0  0  0  0  0
   38.2070   26.2680   44.2120 H   0  0  0  0  0  0  0  0  0  0  0  0
   40.5710   26.4970   44.1060 H   0  0  0  0  0  0  0  0  0  0  0  0
   42.5910   27.6020   43.4500 H   0  0  0  0  0  0  0  0  0  0  0  0
   42.4780   29.6180   42.1860 H   0  0  0  0  0  0  0  0  0  0  0  0
   40.4040   30.9310   41.2900 C   0  0  0  0  0  3  0  0  0  0  0  0
   40.8070   30.4870   39.8370 C   0  0  0  0  0  2  0  0  0  0  0  0
   40.8550   31.7400   38.9730 C   0  0  0  0  0  2  0  0  0  0  0  0
   41.7460   32.8090   39.4920 C   0  0  0  0  0  2  0  0  0  0  0  0
   41.5680   33.0350   40.9780 C   0  0  0  0  0  2  0  0  0  0  0  0
   41.6440   31.6960   41.7030 C   0  0  0  0  0  2  0  0  0  0  0  0
   37.6570   30.7420   41.3910 N   0  0  0  0  0  0  0  0  0  0  0  0
   38.2650   31.3560   41.9710 H   0  0  0  0  0  0  0  0  0  0  0  0
   37.0880   30.2290   38.9440 C   0  0  1  0  0  0  0  0  0  0  0  0
   37.1050   31.7340   39.1370 C   0  0  0  0  0  0  0  0  0  0  0  0
   36.7780   30.7420   40.2470 C   0  0  2  0  0  0  0  0  0  0  0  0
   38.0810   29.8630   38.5780 H   0  0  0  0  0  0  0  0  0  0  0  0
   38.0720   32.2660   39.2190 H   0  0  0  0  0  0  0  0  0  0  0  0
   36.2730   32.3570   38.7830 H   0  0  0  0  0  0  0  0  0  0  0  0
   35.7040   30.6880   40.5620 H   0  0  0  0  0  0  0  0  0  0  0  0
   33.8760   28.6190   37.9590 C   0  0  0  0  0  0  0  0  0  0  0  0
   34.0450   28.5470   36.5240 C   0  0  0  0  0  0  0  0  0  0  0  0
   35.2430   29.0600   35.9590 C   0  0  0  0  0  0  0  0  0  0  0  0
   36.1760   29.5910   36.7580 N   0  0  0  0  0  0  0  0  0  0  0  0
   35.9910   29.6450   38.1080 C   0  0  0  0  0  0  0  0  0  0  0  0
   34.8460   29.1600   38.6950 N   0  0  0  0  0  0  0  0  0  0  0  0
   32.9600   28.2240   38.3750 H   0  0  0  0  0  0  0  0  0  0  0  0
   33.2600   28.1080   35.9270 H   0  0  0  0  0  0  0  0  0  0  0  0
   35.3230   28.9850   34.8820 H   0  0  0  0  0  0  0  0  0  0  0  0
  1 10  2  0  0  0  0
  1  2  1  0  0  0  0
  2  3  2  0  0  0  0
  3  4  1  0  0  0  0
  3 12  1  0  0  0  0
  4 13  1  0  0  0  0
  5  6  1  0  0  0  0
  5  4  2  0  0  0  0
  6 14  1  0  0  0  0
  7 15  1  0  0  0  0
  7  6  2  0  0  0  0
  8  7  1  0  0  0  0
  9  8  2  0  0  0  0
  9 10  1  0  0  0  0
 10  5  1  0  0  0  0
 11  2  1  0  0  0  0
 16  8  1  0  0  0  0
 17 22  1  0  0  0  0
 17  9  1  0  0  0  0
 18 17  1  0  0  0  0
 19 20  1  0  0  0  0
 19 18  1  0  0  0  0
 20 21  1  0  0  0  0
 21 22  1  0  0  0  0
 23 24  1  0  0  0  0
 23  1  1  0  0  0  0
 25 28  1  6  0  0  0
 25 26  1  0  0  0  0
 25 27  1  0  0  0  0
 26 29  1  0  0  0  0
 26 27  1  0  0  0  0
 27 31  1  1  0  0  0
 27 23  1  0  0  0  0
 30 26  1  0  0  0  0
 32 38  1  0  0  0  0
 32 37  1  0  0  0  0
 33 32  2  0  0  0  0
 34 33  1  0  0  0  0
 34 35  2  0  0  0  0
 35 36  1  0  0  0  0
 36 37  2  0  0  0  0
 36 25  1  0  0  0  0
 39 33  1  0  0  0  0
 40 34  1  0  0  0  0
M  END
>  <minimizedAffinity>
-5.76369476

$$$$
