
 OpenBabel03242514123D

 43 46  0  0  1  0  0  0  0  0999 V2000
   39.2260   32.5430   40.7670 C   0  0  0  0  0  0  0  0  0  0  0  0
   38.4370   33.6390   40.5130 C   0  0  0  0  0  0  0  0  0  0  0  0
   38.9290   34.8670   40.1080 C   0  0  0  0  0  0  0  0  0  0  0  0
   40.3260   34.9110   39.9760 C   0  0  0  0  0  0  0  0  0  0  0  0
   41.1310   33.7920   40.2360 C   0  0  0  0  0  0  0  0  0  0  0  0
   40.5820   32.6270   40.6260 N   0  0  0  0  0  0  0  0  0  0  0  0
   37.3670   33.5060   40.6430 H   0  0  0  0  0  0  0  0  0  0  0  0
   38.2820   35.6870   39.9230 H   0  0  0  0  0  0  0  0  0  0  0  0
   40.6560   35.8910   39.6610 H   0  0  0  0  0  0  0  0  0  0  0  0
   42.5730   33.9030   40.0590 C   0  0  1  0  0  0  0  0  0  0  0  0
   43.3050   33.9330   41.4640 C   0  0  0  0  0  0  0  0  0  0  0  0
   44.7010   34.5040   41.0750 C   0  0  0  0  0  0  0  0  0  0  0  0
   45.3830   33.3110   40.4050 C   0  0  0  0  0  0  0  0  0  0  0  0
   44.6840   32.9460   39.1450 C   0  0  0  0  0  0  0  0  0  0  0  0
   43.2030   32.9710   39.1710 C   0  0  2  0  0  0  0  0  0  0  0  0
   42.7580   34.9690   39.7340 H   0  0  0  0  0  0  0  0  0  0  0  0
   43.3880   32.9030   41.8320 H   0  0  0  0  0  0  0  0  0  0  0  0
   42.7740   34.6410   42.0970 H   0  0  0  0  0  0  0  0  0  0  0  0
   45.2570   34.7700   41.9840 H   0  0  0  0  0  0  0  0  0  0  0  0
   44.5250   35.3300   40.3810 H   0  0  0  0  0  0  0  0  0  0  0  0
   46.4240   33.5990   40.2090 H   0  0  0  0  0  0  0  0  0  0  0  0
   45.3910   32.5000   41.1640 H   0  0  0  0  0  0  0  0  0  0  0  0
   45.0550   31.9480   38.8250 H   0  0  0  0  0  0  0  0  0  0  0  0
   45.0920   33.6540   38.3680 H   0  0  0  0  0  0  0  0  0  0  0  0
   42.8860   31.9160   39.4330 H   0  0  0  0  0  0  0  0  0  0  0  0
   42.6790   33.4240   37.4830 S   0  0  0  0  0  0  0  0  0  0  0  0
   43.5190   34.5030   37.0880 H   0  0  0  0  0  0  0  0  0  0  0  0
   38.6680   29.2040   42.1440 C   0  0  0  0  0  0  0  0  0  0  0  0
   37.3170   28.9580   41.8820 C   0  0  0  0  0  0  0  0  0  0  0  0
   36.6340   29.9540   41.2400 C   0  0  0  0  0  0  0  0  0  0  0  0
   37.2930   31.0970   40.9000 N   0  0  0  0  0  0  0  0  0  0  0  0
   38.6280   31.2880   41.1820 C   0  0  0  0  0  0  0  0  0  0  0  0
   39.2800   30.3580   41.7870 N   0  0  0  0  0  0  0  0  0  0  0  0
   35.2880   29.8850   40.9130 N   0  0  0  0  0  0  0  0  0  0  0  0
   39.2650   28.4570   42.6500 H   0  0  0  0  0  0  0  0  0  0  0  0
   34.6440   29.3730   40.3020 H   0  0  0  0  0  0  0  0  0  0  0  0
   34.6550   30.5620   41.4280 H   0  0  0  0  0  0  0  0  0  0  0  0
   36.7830   27.6490   42.3170 C   0  0  0  0  0  3  0  0  0  0  0  0
   37.3950   27.2280   43.6310 C   0  0  0  0  0  2  0  0  0  0  0  0
   38.7350   26.5570   43.5030 C   0  0  0  0  0  2  0  0  0  0  0  0
   38.6740   25.3560   42.5900 C   0  0  0  0  0  2  0  0  0  0  0  0
   37.2970   25.2290   41.9660 C   0  0  0  0  0  2  0  0  0  0  0  0
   36.8580   26.5350   41.3560 C   0  0  0  0  0  2  0  0  0  0  0  0
  1 32  1  0  0  0  0
  2  7  1  0  0  0  0
  2  1  2  0  0  0  0
  3  2  1  0  0  0  0
  4  3  2  0  0  0  0
  4  5  1  0  0  0  0
  5  6  2  0  0  0  0
  6  1  1  0  0  0  0
  8  3  1  0  0  0  0
  9  4  1  0  0  0  0
 10 16  1  6  0  0  0
 10  5  1  0  0  0  0
 10 11  1  0  0  0  0
 11 17  1  0  0  0  0
 11 18  1  0  0  0  0
 12 11  1  0  0  0  0
 12 19  1  0  0  0  0
 13 12  1  0  0  0  0
 13 22  1  0  0  0  0
 14 15  1  0  0  0  0
 14 13  1  0  0  0  0
 15 25  1  1  0  0  0
 15 10  1  0  0  0  0
 20 12  1  0  0  0  0
 21 13  1  0  0  0  0
 23 14  1  0  0  0  0
 24 14  1  0  0  0  0
 26 15  1  0  0  0  0
 27 26  1  0  0  0  0
 28 35  1  0  0  0  0
 29 28  1  0  0  0  0
 29 38  1  0  0  0  0
 30 29  2  0  0  0  0
 31 32  2  0  0  0  0
 31 30  1  0  0  0  0
 32 33  1  0  0  0  0
 33 28  2  0  0  0  0
 34 30  1  0  0  0  0
 34 37  1  0  0  0  0
 36 34  1  0  0  0  0
 38 39  1  0  0  0  0
 40 39  1  0  0  0  0
 41 40  1  0  0  0  0
 42 41  1  0  0  0  0
 43 42  1  0  0  0  0
 43 38  1  0  0  0  0
M  END
>  <minimizedAffinity>
-7.02966022

$$$$

 OpenBabel03242514123D

 43 46  0  0  1  0  0  0  0  0999 V2000
   37.6170   30.2330   40.4270 C   0  0  0  0  0  0  0  0  0  0  0  0
   36.3360   30.5730   40.0660 C   0  0  0  0  0  0  0  0  0  0  0  0
   35.2600   29.7050   40.1260 C   0  0  0  0  0  0  0  0  0  0  0  0
   35.5840   28.4210   40.5940 C   0  0  0  0  0  0  0  0  0  0  0  0
   36.8920   28.0740   40.9620 C   0  0  0  0  0  0  0  0  0  0  0  0
   37.8910   28.9720   40.8770 N   0  0  0  0  0  0  0  0  0  0  0  0
   36.1850   31.5910   39.7170 H   0  0  0  0  0  0  0  0  0  0  0  0
   34.2870   30.0110   39.8370 H   0  0  0  0  0  0  0  0  0  0  0  0
   34.7110   27.7840   40.6180 H   0  0  0  0  0  0  0  0  0  0  0  0
   37.1540   26.7290   41.4570 C   0  0  1  0  0  0  0  0  0  0  0  0
   36.8760   25.6560   40.3250 C   0  0  0  0  0  0  0  0  0  0  0  0
   36.7600   24.3460   41.1600 C   0  0  0  0  0  0  0  0  0  0  0  0
   38.2150   24.0390   41.5160 C   0  0  0  0  0  0  0  0  0  0  0  0
   38.7700   25.0890   42.4100 C   0  0  0  0  0  0  0  0  0  0  0  0
   38.4170   26.4920   42.0900 C   0  0  2  0  0  0  0  0  0  0  0  0
   36.2950   26.4890   42.1510 H   0  0  0  0  0  0  0  0  0  0  0  0
   37.7470   25.6230   39.6590 H   0  0  0  0  0  0  0  0  0  0  0  0
   35.9170   25.8970   39.8700 H   0  0  0  0  0  0  0  0  0  0  0  0
   36.3680   23.5380   40.5270 H   0  0  0  0  0  0  0  0  0  0  0  0
   36.1540   24.5810   42.0380 H   0  0  0  0  0  0  0  0  0  0  0  0
   38.2290   23.0570   42.0060 H   0  0  0  0  0  0  0  0  0  0  0  0
   38.7510   23.9440   40.5480 H   0  0  0  0  0  0  0  0  0  0  0  0
   39.8730   24.9590   42.4450 H   0  0  0  0  0  0  0  0  0  0  0  0
   38.4250   24.8060   43.4440 H   0  0  0  0  0  0  0  0  0  0  0  0
   39.2550   26.8740   41.4310 H   0  0  0  0  0  0  0  0  0  0  0  0
   38.3720   27.3740   43.6870 S   0  0  0  0  0  0  0  0  0  0  0  0
   37.6640   26.5260   44.5840 H   0  0  0  0  0  0  0  0  0  0  0  0
   40.8190   31.8880   39.8230 C   0  0  0  0  0  0  0  0  0  0  0  0
   40.6060   33.1970   40.2650 C   0  0  0  0  0  0  0  0  0  0  0  0
   39.3590   33.4730   40.7560 C   0  0  0  0  0  0  0  0  0  0  0  0
   38.4240   32.4830   40.7870 N   0  0  0  0  0  0  0  0  0  0  0  0
   38.6890   31.2080   40.3390 C   0  0  0  0  0  0  0  0  0  0  0  0
   39.8570   30.9360   39.8740 N   0  0  0  0  0  0  0  0  0  0  0  0
   38.9690   34.7190   41.2230 N   0  0  0  0  0  0  0  0  0  0  0  0
   41.7830   31.6040   39.4220 H   0  0  0  0  0  0  0  0  0  0  0  0
   39.1580   35.3760   41.9880 H   0  0  0  0  0  0  0  0  0  0  0  0
   38.2300   35.2160   40.6480 H   0  0  0  0  0  0  0  0  0  0  0  0
   41.7500   34.1290   40.1620 C   0  0  0  0  0  3  0  0  0  0  0  0
   41.6950   34.9060   38.8700 C   0  0  0  0  0  2  0  0  0  0  0  0
   42.2730   34.1800   37.6860 C   0  0  0  0  0  2  0  0  0  0  0  0
   43.7000   33.7520   37.9350 C   0  0  0  0  0  2  0  0  0  0  0  0
   44.1150   34.0760   39.3570 C   0  0  0  0  0  2  0  0  0  0  0  0
   43.0990   33.5660   40.3460 C   0  0  0  0  0  2  0  0  0  0  0  0
  1  6  1  0  0  0  0
  2  3  1  0  0  0  0
  2  1  2  0  0  0  0
  3  4  2  0  0  0  0
  4  9  1  0  0  0  0
  4  5  1  0  0  0  0
  5 10  1  0  0  0  0
  6  5  2  0  0  0  0
  7  2  1  0  0  0  0
  8  3  1  0  0  0  0
 10 15  1  0  0  0  0
 10 16  1  1  0  0  0
 11 12  1  0  0  0  0
 11 10  1  0  0  0  0
 12 13  1  0  0  0  0
 12 20  1  0  0  0  0
 13 21  1  0  0  0  0
 13 14  1  0  0  0  0
 14 23  1  0  0  0  0
 14 24  1  0  0  0  0
 15 25  1  6  0  0  0
 15 14  1  0  0  0  0
 15 26  1  0  0  0  0
 17 11  1  0  0  0  0
 18 11  1  0  0  0  0
 19 12  1  0  0  0  0
 22 13  1  0  0  0  0
 26 27  1  0  0  0  0
 28 33  2  0  0  0  0
 28 29  1  0  0  0  0
 29 30  2  0  0  0  0
 30 31  1  0  0  0  0
 30 34  1  0  0  0  0
 32  1  1  0  0  0  0
 32 31  2  0  0  0  0
 33 32  1  0  0  0  0
 34 36  1  0  0  0  0
 35 28  1  0  0  0  0
 37 34  1  0  0  0  0
 38 29  1  0  0  0  0
 38 43  1  0  0  0  0
 39 38  1  0  0  0  0
 40 41  1  0  0  0  0
 40 39  1  0  0  0  0
 41 42  1  0  0  0  0
 42 43  1  0  0  0  0
M  END
>  <minimizedAffinity>
-6.91064119

$$$$

 OpenBabel03242514123D

 43 46  0  0  1  0  0  0  0  0999 V2000
   39.7740   32.4910   40.3360 C   0  0  0  0  0  0  0  0  0  0  0  0
   39.1380   33.7090   40.2990 C   0  0  0  0  0  0  0  0  0  0  0  0
   39.7860   34.9110   40.0780 C   0  0  0  0  0  0  0  0  0  0  0  0
   41.1720   34.7910   39.8920 C   0  0  0  0  0  0  0  0  0  0  0  0
   41.8210   33.5480   39.9300 C   0  0  0  0  0  0  0  0  0  0  0  0
   41.1250   32.4170   40.1500 N   0  0  0  0  0  0  0  0  0  0  0  0
   38.0630   33.6990   40.4530 H   0  0  0  0  0  0  0  0  0  0  0  0
   39.2540   35.8290   40.0580 H   0  0  0  0  0  0  0  0  0  0  0  0
   41.6280   35.7580   39.7270 H   0  0  0  0  0  0  0  0  0  0  0  0
   43.2600   33.4950   39.7100 C   0  0  1  0  0  0  0  0  0  0  0  0
   43.6050   33.8490   38.2050 C   0  0  0  0  0  0  0  0  0  0  0  0
   45.0560   33.2960   38.0800 C   0  0  0  0  0  0  0  0  0  0  0  0
   45.8840   34.3370   38.8330 C   0  0  0  0  0  0  0  0  0  0  0  0
   45.5330   34.3440   40.2770 C   0  0  0  0  0  0  0  0  0  0  0  0
   44.0950   34.2270   40.6150 C   0  0  2  0  0  0  0  0  0  0  0  0
   43.5250   32.3960   39.7040 H   0  0  0  0  0  0  0  0  0  0  0  0
   43.5890   34.9410   38.0940 H   0  0  0  0  0  0  0  0  0  0  0  0
   42.9310   33.2790   37.5680 H   0  0  0  0  0  0  0  0  0  0  0  0
   45.3610   33.2920   37.0240 H   0  0  0  0  0  0  0  0  0  0  0  0
   45.0670   32.3190   38.5690 H   0  0  0  0  0  0  0  0  0  0  0  0
   46.9410   34.0810   38.6860 H   0  0  0  0  0  0  0  0  0  0  0  0
   45.6950   35.3040   38.3210 H   0  0  0  0  0  0  0  0  0  0  0  0
   45.9700   35.2600   40.7310 H   0  0  0  0  0  0  0  0  0  0  0  0
   46.1290   33.5000   40.7280 H   0  0  0  0  0  0  0  0  0  0  0  0
   43.7180   35.2910   40.7100 H   0  0  0  0  0  0  0  0  0  0  0  0
   44.0240   33.3510   42.2140 S   0  0  0  0  0  0  0  0  0  0  0  0
   44.9400   32.2670   42.1080 H   0  0  0  0  0  0  0  0  0  0  0  0
   38.7890   29.0020   40.8000 C   0  0  0  0  0  0  0  0  0  0  0  0
   37.4090   29.0710   41.0100 C   0  0  0  0  0  0  0  0  0  0  0  0
   36.8560   30.3220   40.9900 C   0  0  0  0  0  0  0  0  0  0  0  0
   37.6610   31.4000   40.7700 N   0  0  0  0  0  0  0  0  0  0  0  0
   39.0170   31.2740   40.5670 C   0  0  0  0  0  0  0  0  0  0  0  0
   39.5490   30.1030   40.5850 N   0  0  0  0  0  0  0  0  0  0  0  0
   35.5090   30.5770   41.1930 N   0  0  0  0  0  0  0  0  0  0  0  0
   39.2890   28.0430   40.8050 H   0  0  0  0  0  0  0  0  0  0  0  0
   34.5950   30.4240   40.7520 H   0  0  0  0  0  0  0  0  0  0  0  0
   35.2690   31.1060   42.0800 H   0  0  0  0  0  0  0  0  0  0  0  0
   36.7030   27.7880   41.2200 C   0  0  0  0  0  3  0  0  0  0  0  0
   36.6780   27.4210   42.6830 C   0  0  0  0  0  2  0  0  0  0  0  0
   37.9230   26.7320   43.1690 C   0  0  0  0  0  2  0  0  0  0  0  0
   38.2280   25.4920   42.3630 C   0  0  0  0  0  2  0  0  0  0  0  0
   37.2510   25.3500   41.2110 C   0  0  0  0  0  2  0  0  0  0  0  0
   37.1530   26.6320   40.4250 C   0  0  0  0  0  2  0  0  0  0  0  0
  1 32  1  0  0  0  0
  2  1  1  0  0  0  0
  2  7  1  0  0  0  0
  3  2  2  0  0  0  0
  4  5  2  0  0  0  0
  4  3  1  0  0  0  0
  5  6  1  0  0  0  0
  6  1  2  0  0  0  0
  8  3  1  0  0  0  0
  9  4  1  0  0  0  0
 10 16  1  1  0  0  0
 10  5  1  0  0  0  0
 10 15  1  0  0  0  0
 11 10  1  0  0  0  0
 12 11  1  0  0  0  0
 12 20  1  0  0  0  0
 12 13  1  0  0  0  0
 13 14  1  0  0  0  0
 14 15  1  0  0  0  0
 14 24  1  0  0  0  0
 14 23  1  0  0  0  0
 15 25  1  1  0  0  0
 15 26  1  0  0  0  0
 17 11  1  0  0  0  0
 18 11  1  0  0  0  0
 19 12  1  0  0  0  0
 21 13  1  0  0  0  0
 22 13  1  0  0  0  0
 27 26  1  0  0  0  0
 28 35  1  0  0  0  0
 28 29  1  0  0  0  0
 29 38  1  0  0  0  0
 30 29  2  0  0  0  0
 30 34  1  0  0  0  0
 31 30  1  0  0  0  0
 32 33  1  0  0  0  0
 32 31  2  0  0  0  0
 33 28  2  0  0  0  0
 34 37  1  0  0  0  0
 36 34  1  0  0  0  0
 38 39  1  0  0  0  0
 39 40  1  0  0  0  0
 41 40  1  0  0  0  0
 42 41  1  0  0  0  0
 43 42  1  0  0  0  0
 43 38  1  0  0  0  0
M  END
>  <minimizedAffinity>
-6.87488937

$$$$

 OpenBabel03242514123D

 43 46  0  0  1  0  0  0  0  0999 V2000
   38.2550   30.6210   40.2780 C   0  0  0  0  0  0  0  0  0  0  0  0
   37.3210   31.6220   40.3970 C   0  0  0  0  0  0  0  0  0  0  0  0
   37.5800   32.9550   40.1330 C   0  0  0  0  0  0  0  0  0  0  0  0
   38.8990   33.2140   39.7260 C   0  0  0  0  0  0  0  0  0  0  0  0
   39.8510   32.1930   39.6040 C   0  0  0  0  0  0  0  0  0  0  0  0
   39.5280   30.9150   39.8780 N   0  0  0  0  0  0  0  0  0  0  0  0
   36.3280   31.3220   40.7190 H   0  0  0  0  0  0  0  0  0  0  0  0
   36.8270   33.6950   40.2390 H   0  0  0  0  0  0  0  0  0  0  0  0
   39.0470   34.2680   39.5360 H   0  0  0  0  0  0  0  0  0  0  0  0
   41.1970   32.5300   39.1580 C   0  0  1  0  0  0  0  0  0  0  0  0
   41.1880   32.9450   37.6290 C   0  0  0  0  0  0  0  0  0  0  0  0
   42.6940   32.8060   37.2600 C   0  0  0  0  0  0  0  0  0  0  0  0
   43.3190   34.0440   37.9040 C   0  0  0  0  0  0  0  0  0  0  0  0
   43.2150   33.9740   39.3860 C   0  0  0  0  0  0  0  0  0  0  0  0
   41.9350   33.4740   39.9420 C   0  0  2  0  0  0  0  0  0  0  0  0
   41.7450   31.5460   39.0770 H   0  0  0  0  0  0  0  0  0  0  0  0
   40.8580   33.9890   37.5560 H   0  0  0  0  0  0  0  0  0  0  0  0
   40.6000   32.2050   37.0900 H   0  0  0  0  0  0  0  0  0  0  0  0
   42.8150   32.8710   36.1700 H   0  0  0  0  0  0  0  0  0  0  0  0
   43.0480   31.8760   37.7100 H   0  0  0  0  0  0  0  0  0  0  0  0
   44.3680   34.0830   37.5850 H   0  0  0  0  0  0  0  0  0  0  0  0
   42.7950   34.9160   37.4590 H   0  0  0  0  0  0  0  0  0  0  0  0
   43.4550   34.9800   39.7930 H   0  0  0  0  0  0  0  0  0  0  0  0
   44.0810   33.3300   39.7100 H   0  0  0  0  0  0  0  0  0  0  0  0
   41.3050   34.3970   40.1290 H   0  0  0  0  0  0  0  0  0  0  0  0
   42.3620   32.6330   41.5040 S   0  0  0  0  0  0  0  0  0  0  0  0
   43.5090   31.8390   41.2220 H   0  0  0  0  0  0  0  0  0  0  0  0
   37.7710   27.0040   40.0900 C   0  0  0  0  0  0  0  0  0  0  0  0
   37.1310   26.6910   41.2930 C   0  0  0  0  0  0  0  0  0  0  0  0
   36.8870   27.7380   42.1380 C   0  0  0  0  0  0  0  0  0  0  0  0
   37.2700   28.9930   41.7680 N   0  0  0  0  0  0  0  0  0  0  0  0
   37.8980   29.2450   40.5690 C   0  0  0  0  0  0  0  0  0  0  0  0
   38.1340   28.2670   39.7660 N   0  0  0  0  0  0  0  0  0  0  0  0
   36.2750   27.6090   43.3760 N   0  0  0  0  0  0  0  0  0  0  0  0
   37.9940   26.2210   39.3780 H   0  0  0  0  0  0  0  0  0  0  0  0
   35.3700   27.3690   43.7940 H   0  0  0  0  0  0  0  0  0  0  0  0
   36.8880   27.8150   44.2160 H   0  0  0  0  0  0  0  0  0  0  0  0
   36.7820   25.2700   41.5100 C   0  0  0  0  0  3  0  0  0  0  0  0
   37.8370   24.5770   42.3370 C   0  0  0  0  0  2  0  0  0  0  0  0
   39.0200   24.0890   41.5470 C   0  0  0  0  0  2  0  0  0  0  0  0
   38.6020   23.1710   40.4230 C   0  0  0  0  0  2  0  0  0  0  0  0
   37.0910   23.0860   40.3360 C   0  0  0  0  0  2  0  0  0  0  0  0
   36.4730   24.4600   40.3190 C   0  0  0  0  0  2  0  0  0  0  0  0
  1  2  1  0  0  0  0
  1 32  1  0  0  0  0
  2  7  1  0  0  0  0
  3  8  1  0  0  0  0
  3  2  2  0  0  0  0
  4  3  1  0  0  0  0
  5  4  2  0  0  0  0
  5  6  1  0  0  0  0
  6  1  2  0  0  0  0
  9  4  1  0  0  0  0
 10 16  1  1  0  0  0
 10  5  1  0  0  0  0
 10 15  1  0  0  0  0
 11 10  1  0  0  0  0
 12 11  1  0  0  0  0
 12 20  1  0  0  0  0
 12 13  1  0  0  0  0
 13 14  1  0  0  0  0
 14 24  1  0  0  0  0
 14 23  1  0  0  0  0
 14 15  1  0  0  0  0
 15 25  1  1  0  0  0
 15 26  1  0  0  0  0
 17 11  1  0  0  0  0
 18 11  1  0  0  0  0
 19 12  1  0  0  0  0
 21 13  1  0  0  0  0
 22 13  1  0  0  0  0
 27 26  1  0  0  0  0
 28 29  1  0  0  0  0
 29 38  1  0  0  0  0
 29 30  2  0  0  0  0
 30 34  1  0  0  0  0
 31 30  1  0  0  0  0
 32 31  2  0  0  0  0
 33 28  2  0  0  0  0
 33 32  1  0  0  0  0
 34 36  1  0  0  0  0
 34 37  1  0  0  0  0
 35 28  1  0  0  0  0
 38 39  1  0  0  0  0
 40 39  1  0  0  0  0
 41 40  1  0  0  0  0
 42 41  1  0  0  0  0
 43 42  1  0  0  0  0
 43 38  1  0  0  0  0
M  END
>  <minimizedAffinity>
-6.44086599

$$$$

 OpenBabel03242514123D

 43 46  0  0  1  0  0  0  0  0999 V2000
   34.9190   28.8950   37.4090 C   0  0  0  0  0  0  0  0  0  0  0  0
   35.7250   28.8780   36.2970 C   0  0  0  0  0  0  0  0  0  0  0  0
   35.2580   29.0080   35.0020 C   0  0  0  0  0  0  0  0  0  0  0  0
   33.8650   29.1610   34.9070 C   0  0  0  0  0  0  0  0  0  0  0  0
   33.0420   29.1790   36.0420 C   0  0  0  0  0  0  0  0  0  0  0  0
   33.5680   29.0470   37.2740 N   0  0  0  0  0  0  0  0  0  0  0  0
   36.7900   28.7550   36.4730 H   0  0  0  0  0  0  0  0  0  0  0  0
   35.9180   28.9880   34.1720 H   0  0  0  0  0  0  0  0  0  0  0  0
   33.5540   29.2550   33.8760 H   0  0  0  0  0  0  0  0  0  0  0  0
   31.6070   29.3610   35.8710 C   0  0  1  0  0  0  0  0  0  0  0  0
   31.2640   30.8910   35.6420 C   0  0  0  0  0  0  0  0  0  0  0  0
   29.7360   30.9170   35.9470 C   0  0  0  0  0  0  0  0  0  0  0  0
   29.1280   30.2810   34.6970 C   0  0  0  0  0  0  0  0  0  0  0  0
   29.5360   28.8560   34.5800 C   0  0  0  0  0  0  0  0  0  0  0  0
   30.9460   28.5370   34.9040 C   0  0  2  0  0  0  0  0  0  0  0  0
   31.1590   29.2260   36.9000 H   0  0  0  0  0  0  0  0  0  0  0  0
   31.4600   31.1360   34.5910 H   0  0  0  0  0  0  0  0  0  0  0  0
   31.8050   31.4660   36.3910 H   0  0  0  0  0  0  0  0  0  0  0  0
   29.3920   31.9570   36.0230 H   0  0  0  0  0  0  0  0  0  0  0  0
   29.5800   30.3110   36.8430 H   0  0  0  0  0  0  0  0  0  0  0  0
   28.0380   30.3730   34.7820 H   0  0  0  0  0  0  0  0  0  0  0  0
   29.4570   30.9120   33.8440 H   0  0  0  0  0  0  0  0  0  0  0  0
   29.2790   28.5090   33.5560 H   0  0  0  0  0  0  0  0  0  0  0  0
   28.8250   28.2920   35.2490 H   0  0  0  0  0  0  0  0  0  0  0  0
   31.5010   28.5810   33.9170 H   0  0  0  0  0  0  0  0  0  0  0  0
   30.9340   26.8430   35.5840 S   0  0  0  0  0  0  0  0  0  0  0  0
   29.8440   26.7950   36.4980 H   0  0  0  0  0  0  0  0  0  0  0  0
   36.5800   27.6170   40.4030 C   0  0  0  0  0  0  0  0  0  0  0  0
   36.5140   28.6860   41.3020 C   0  0  0  0  0  0  0  0  0  0  0  0
   35.9010   29.8210   40.8470 C   0  0  0  0  0  0  0  0  0  0  0  0
   35.4010   29.8430   39.5800 N   0  0  0  0  0  0  0  0  0  0  0  0
   35.4920   28.7590   38.7350 C   0  0  0  0  0  0  0  0  0  0  0  0
   36.0690   27.6860   39.1510 N   0  0  0  0  0  0  0  0  0  0  0  0
   35.7590   30.9780   41.5980 N   0  0  0  0  0  0  0  0  0  0  0  0
   37.0530   26.6900   40.6990 H   0  0  0  0  0  0  0  0  0  0  0  0
   35.2740   31.3320   42.4290 H   0  0  0  0  0  0  0  0  0  0  0  0
   36.3060   31.8200   41.2540 H   0  0  0  0  0  0  0  0  0  0  0  0
   37.1040   28.4660   42.6410 C   0  0  0  0  0  3  0  0  0  0  0  0
   38.2650   29.4000   42.8770 C   0  0  0  0  0  2  0  0  0  0  0  0
   39.5700   28.9210   42.3040 C   0  0  0  0  0  2  0  0  0  0  0  0
   39.9380   27.5500   42.8190 C   0  0  0  0  0  2  0  0  0  0  0  0
   38.8270   26.9890   43.6860 C   0  0  0  0  0  2  0  0  0  0  0  0
   37.4950   27.0890   42.9890 C   0  0  0  0  0  2  0  0  0  0  0  0
  1 32  1  0  0  0  0
  2  7  1  0  0  0  0
  2  1  2  0  0  0  0
  3  2  1  0  0  0  0
  4  3  2  0  0  0  0
  4  5  1  0  0  0  0
  5  6  2  0  0  0  0
  6  1  1  0  0  0  0
  8  3  1  0  0  0  0
  9  4  1  0  0  0  0
 10  5  1  0  0  0  0
 10 16  1  1  0  0  0
 11 10  1  0  0  0  0
 11 12  1  0  0  0  0
 11 18  1  0  0  0  0
 12 19  1  0  0  0  0
 12 20  1  0  0  0  0
 13 21  1  0  0  0  0
 13 12  1  0  0  0  0
 14 13  1  0  0  0  0
 14 15  1  0  0  0  0
 14 24  1  0  0  0  0
 15 25  1  6  0  0  0
 15 26  1  0  0  0  0
 15 10  1  0  0  0  0
 17 11  1  0  0  0  0
 22 13  1  0  0  0  0
 23 14  1  0  0  0  0
 26 27  1  0  0  0  0
 28 35  1  0  0  0  0
 28 29  1  0  0  0  0
 29 38  1  0  0  0  0
 30 29  2  0  0  0  0
 30 34  1  0  0  0  0
 31 30  1  0  0  0  0
 32 33  1  0  0  0  0
 32 31  2  0  0  0  0
 33 28  2  0  0  0  0
 34 36  1  0  0  0  0
 37 34  1  0  0  0  0
 38 39  1  0  0  0  0
 38 43  1  0  0  0  0
 40 41  1  0  0  0  0
 40 39  1  0  0  0  0
 41 42  1  0  0  0  0
 43 42  1  0  0  0  0
M  END
>  <minimizedAffinity>
-6.39401865

$$$$

 OpenBabel03242514123D

 43 46  0  0  1  0  0  0  0  0999 V2000
   38.5130   28.9110   42.1900 C   0  0  0  0  0  0  0  0  0  0  0  0
   37.8280   29.1690   43.3530 C   0  0  0  0  0  0  0  0  0  0  0  0
   37.0480   28.2360   44.0130 C   0  0  0  0  0  0  0  0  0  0  0  0
   37.0070   26.9780   43.3910 C   0  0  0  0  0  0  0  0  0  0  0  0
   37.7060   26.7150   42.2040 C   0  0  0  0  0  0  0  0  0  0  0  0
   38.4470   27.6720   41.6160 N   0  0  0  0  0  0  0  0  0  0  0  0
   37.9220   30.1730   43.7570 H   0  0  0  0  0  0  0  0  0  0  0  0
   36.5360   28.4810   44.9090 H   0  0  0  0  0  0  0  0  0  0  0  0
   36.3830   26.2900   43.9450 H   0  0  0  0  0  0  0  0  0  0  0  0
   37.6350   25.3800   41.6230 C   0  0  1  0  0  0  0  0  0  0  0  0
   36.6490   25.3660   40.3830 C   0  0  0  0  0  0  0  0  0  0  0  0
   36.3690   23.8410   40.2260 C   0  0  0  0  0  0  0  0  0  0  0  0
   37.6600   23.3210   39.5920 C   0  0  0  0  0  0  0  0  0  0  0  0
   38.8030   23.4700   40.5300 C   0  0  0  0  0  0  0  0  0  0  0  0
   38.8720   24.7320   41.3040 C   0  0  2  0  0  0  0  0  0  0  0  0
   37.0240   24.7660   42.3490 H   0  0  0  0  0  0  0  0  0  0  0  0
   37.1850   25.7600   39.5110 H   0  0  0  0  0  0  0  0  0  0  0  0
   35.7390   25.8850   40.6780 H   0  0  0  0  0  0  0  0  0  0  0  0
   35.5390   23.6890   39.5230 H   0  0  0  0  0  0  0  0  0  0  0  0
   36.2060   23.4430   41.2300 H   0  0  0  0  0  0  0  0  0  0  0  0
   37.4950   22.2670   39.3360 H   0  0  0  0  0  0  0  0  0  0  0  0
   37.7810   23.8870   38.6440 H   0  0  0  0  0  0  0  0  0  0  0  0
   39.7410   23.3110   39.9540 H   0  0  0  0  0  0  0  0  0  0  0  0
   38.7420   22.5750   41.2120 H   0  0  0  0  0  0  0  0  0  0  0  0
   39.5250   25.4280   40.6940 H   0  0  0  0  0  0  0  0  0  0  0  0
   39.6600   24.3040   42.8930 S   0  0  0  0  0  0  0  0  0  0  0  0
   39.0400   23.0980   43.3270 H   0  0  0  0  0  0  0  0  0  0  0  0
   41.1240   30.7170   40.3810 C   0  0  0  0  0  0  0  0  0  0  0  0
   40.7120   32.0520   40.4480 C   0  0  0  0  0  0  0  0  0  0  0  0
   39.5410   32.2910   41.1130 C   0  0  0  0  0  0  0  0  0  0  0  0
   38.8630   31.2420   41.6590 N   0  0  0  0  0  0  0  0  0  0  0  0
   39.3150   29.9450   41.5640 C   0  0  0  0  0  0  0  0  0  0  0  0
   40.4150   29.7080   40.9390 N   0  0  0  0  0  0  0  0  0  0  0  0
   38.9790   33.5490   41.2640 N   0  0  0  0  0  0  0  0  0  0  0  0
   42.0410   30.4600   39.8680 H   0  0  0  0  0  0  0  0  0  0  0  0
   39.1510   34.4460   41.7300 H   0  0  0  0  0  0  0  0  0  0  0  0
   38.0600   33.7060   40.7580 H   0  0  0  0  0  0  0  0  0  0  0  0
   41.5910   33.0520   39.8030 C   0  0  0  0  0  3  0  0  0  0  0  0
   41.0710   33.4240   38.4370 C   0  0  0  0  0  2  0  0  0  0  0  0
   41.4710   32.4740   37.3420 C   0  0  0  0  0  2  0  0  0  0  0  0
   42.9700   32.3120   37.2630 C   0  0  0  0  0  2  0  0  0  0  0  0
   43.6500   33.0700   38.3870 C   0  0  0  0  0  2  0  0  0  0  0  0
   43.0270   32.7340   39.7170 C   0  0  0  0  0  2  0  0  0  0  0  0
  1  2  1  0  0  0  0
  2  7  1  0  0  0  0
  2  3  2  0  0  0  0
  3  8  1  0  0  0  0
  4  9  1  0  0  0  0
  4  3  1  0  0  0  0
  5  4  2  0  0  0  0
  6  1  2  0  0  0  0
  6  5  1  0  0  0  0
 10  5  1  0  0  0  0
 10 16  1  1  0  0  0
 11 18  1  0  0  0  0
 11 10  1  0  0  0  0
 12 11  1  0  0  0  0
 12 20  1  0  0  0  0
 13 12  1  0  0  0  0
 13 14  1  0  0  0  0
 14 24  1  0  0  0  0
 14 15  1  0  0  0  0
 15 25  1  6  0  0  0
 15 10  1  0  0  0  0
 15 26  1  0  0  0  0
 17 11  1  0  0  0  0
 19 12  1  0  0  0  0
 21 13  1  0  0  0  0
 22 13  1  0  0  0  0
 23 14  1  0  0  0  0
 26 27  1  0  0  0  0
 28 29  2  0  0  0  0
 28 33  1  0  0  0  0
 29 30  1  0  0  0  0
 30 34  1  0  0  0  0
 30 31  2  0  0  0  0
 32 31  1  0  0  0  0
 32  1  1  0  0  0  0
 33 32  2  0  0  0  0
 34 36  1  0  0  0  0
 35 28  1  0  0  0  0
 37 34  1  0  0  0  0
 38 29  1  0  0  0  0
 39 38  1  0  0  0  0
 40 39  1  0  0  0  0
 41 40  1  0  0  0  0
 41 42  1  0  0  0  0
 42 43  1  0  0  0  0
 43 38  1  0  0  0  0
M  END
>  <minimizedAffinity>
-6.36667728

$$$$

 OpenBabel03242514123D

 43 46  0  0  1  0  0  0  0  0999 V2000
   37.6600   29.9940   39.4950 C   0  0  0  0  0  0  0  0  0  0  0  0
   36.5540   30.2410   38.7190 C   0  0  0  0  0  0  0  0  0  0  0  0
   35.4930   29.3620   38.5860 C   0  0  0  0  0  0  0  0  0  0  0  0
   35.6360   28.1740   39.3200 C   0  0  0  0  0  0  0  0  0  0  0  0
   36.7650   27.9230   40.1120 C   0  0  0  0  0  0  0  0  0  0  0  0
   37.7610   28.8250   40.1950 N   0  0  0  0  0  0  0  0  0  0  0  0
   36.5350   31.1890   38.1890 H   0  0  0  0  0  0  0  0  0  0  0  0
   34.6580   29.5940   37.9750 H   0  0  0  0  0  0  0  0  0  0  0  0
   34.7830   27.5240   39.1790 H   0  0  0  0  0  0  0  0  0  0  0  0
   36.8390   26.6760   40.8630 C   0  0  1  0  0  0  0  0  0  0  0  0
   37.0810   25.4520   39.8860 C   0  0  0  0  0  0  0  0  0  0  0  0
   36.6700   24.2500   40.7870 C   0  0  0  0  0  0  0  0  0  0  0  0
   37.8590   24.1150   41.7390 C   0  0  0  0  0  0  0  0  0  0  0  0
   37.9680   25.3120   42.6150 C   0  0  0  0  0  0  0  0  0  0  0  0
   37.7370   26.6290   41.9780 C   0  0  2  0  0  0  0  0  0  0  0  0
   35.7780   26.4500   41.1800 H   0  0  0  0  0  0  0  0  0  0  0  0
   38.1490   25.4140   39.6390 H   0  0  0  0  0  0  0  0  0  0  0  0
   36.3860   25.5520   39.0550 H   0  0  0  0  0  0  0  0  0  0  0  0
   36.5960   23.3390   40.1770 H   0  0  0  0  0  0  0  0  0  0  0  0
   35.7510   24.5380   41.3030 H   0  0  0  0  0  0  0  0  0  0  0  0
   37.7000   23.2060   42.3330 H   0  0  0  0  0  0  0  0  0  0  0  0
   38.7480   23.9500   41.0940 H   0  0  0  0  0  0  0  0  0  0  0  0
   38.9630   25.2830   43.1100 H   0  0  0  0  0  0  0  0  0  0  0  0
   37.2370   25.1280   43.4540 H   0  0  0  0  0  0  0  0  0  0  0  0
   38.7610   26.9980   41.6640 H   0  0  0  0  0  0  0  0  0  0  0  0
   37.0160   27.6930   43.2730 S   0  0  0  0  0  0  0  0  0  0  0  0
   36.0270   26.9030   43.9240 H   0  0  0  0  0  0  0  0  0  0  0  0
   40.1790   32.3410   40.7210 C   0  0  0  0  0  0  0  0  0  0  0  0
   40.7570   32.8490   39.5540 C   0  0  0  0  0  0  0  0  0  0  0  0
   40.2630   32.3630   38.3740 C   0  0  0  0  0  0  0  0  0  0  0  0
   39.2620   31.4390   38.4050 N   0  0  0  0  0  0  0  0  0  0  0  0
   38.7270   30.9740   39.5850 C   0  0  0  0  0  0  0  0  0  0  0  0
   39.1850   31.4220   40.7010 N   0  0  0  0  0  0  0  0  0  0  0  0
   40.7270   32.7440   37.1240 N   0  0  0  0  0  0  0  0  0  0  0  0
   40.5250   32.6830   41.6870 H   0  0  0  0  0  0  0  0  0  0  0  0
   40.7580   33.5590   36.5030 H   0  0  0  0  0  0  0  0  0  0  0  0
   41.2240   31.9900   36.5680 H   0  0  0  0  0  0  0  0  0  0  0  0
   41.8260   33.8570   39.7250 C   0  0  0  0  0  3  0  0  0  0  0  0
   43.1890   33.2180   39.6250 C   0  0  0  0  0  2  0  0  0  0  0  0
   43.6750   32.5930   40.9040 C   0  0  0  0  0  2  0  0  0  0  0  0
   43.6850   33.5860   42.0420 C   0  0  0  0  0  2  0  0  0  0  0  0
   43.0950   34.9110   41.6010 C   0  0  0  0  0  2  0  0  0  0  0  0
   41.7640   34.7110   40.9240 C   0  0  0  0  0  2  0  0  0  0  0  0
  1 32  1  0  0  0  0
  1  6  1  0  0  0  0
  2  1  2  0  0  0  0
  3  2  1  0  0  0  0
  3  4  2  0  0  0  0
  4  5  1  0  0  0  0
  5  6  2  0  0  0  0
  5 10  1  0  0  0  0
  7  2  1  0  0  0  0
  8  3  1  0  0  0  0
  9  4  1  0  0  0  0
 10 16  1  1  0  0  0
 10 15  1  0  0  0  0
 11 12  1  0  0  0  0
 11 10  1  0  0  0  0
 12 20  1  0  0  0  0
 12 13  1  0  0  0  0
 13 21  1  0  0  0  0
 13 14  1  0  0  0  0
 14 23  1  0  0  0  0
 14 24  1  0  0  0  0
 15 25  1  6  0  0  0
 15 14  1  0  0  0  0
 15 26  1  0  0  0  0
 17 11  1  0  0  0  0
 18 11  1  0  0  0  0
 19 12  1  0  0  0  0
 22 13  1  0  0  0  0
 26 27  1  0  0  0  0
 28 35  1  0  0  0  0
 29 38  1  0  0  0  0
 29 28  2  0  0  0  0
 30 31  2  0  0  0  0
 30 29  1  0  0  0  0
 31 32  1  0  0  0  0
 32 33  2  0  0  0  0
 33 28  1  0  0  0  0
 34 30  1  0  0  0  0
 36 34  1  0  0  0  0
 37 34  1  0  0  0  0
 38 43  1  0  0  0  0
 39 38  1  0  0  0  0
 39 40  1  0  0  0  0
 40 41  1  0  0  0  0
 42 41  1  0  0  0  0
 43 42  1  0  0  0  0
M  END
>  <minimizedAffinity>
-6.32369852

$$$$

 OpenBabel03242514123D

 43 46  0  0  1  0  0  0  0  0999 V2000
   34.8350   28.7680   37.3920 C   0  0  0  0  0  0  0  0  0  0  0  0
   35.6220   29.0310   36.2970 C   0  0  0  0  0  0  0  0  0  0  0  0
   35.1380   29.1420   35.0060 C   0  0  0  0  0  0  0  0  0  0  0  0
   33.7500   28.9610   34.8960 C   0  0  0  0  0  0  0  0  0  0  0  0
   32.9460   28.6930   36.0140 C   0  0  0  0  0  0  0  0  0  0  0  0
   33.4880   28.5990   37.2430 N   0  0  0  0  0  0  0  0  0  0  0  0
   36.6850   29.1560   36.4830 H   0  0  0  0  0  0  0  0  0  0  0  0
   35.7830   29.3460   34.1890 H   0  0  0  0  0  0  0  0  0  0  0  0
   33.4250   29.0550   33.8690 H   0  0  0  0  0  0  0  0  0  0  0  0
   31.5090   28.5360   35.8300 C   0  0  1  0  0  0  0  0  0  0  0  0
   31.1230   27.0010   35.7560 C   0  0  0  0  0  0  0  0  0  0  0  0
   29.7040   27.0680   35.1160 C   0  0  0  0  0  0  0  0  0  0  0  0
   28.8290   27.5440   36.2750 C   0  0  0  0  0  0  0  0  0  0  0  0
   29.2000   28.9250   36.6820 C   0  0  0  0  0  0  0  0  0  0  0  0
   30.6470   29.2400   36.7320 C   0  0  2  0  0  0  0  0  0  0  0  0
   31.3070   28.8270   34.7570 H   0  0  0  0  0  0  0  0  0  0  0  0
   31.0760   26.6070   36.7790 H   0  0  0  0  0  0  0  0  0  0  0  0
   31.8190   26.5180   35.0730 H   0  0  0  0  0  0  0  0  0  0  0  0
   29.3860   26.0600   34.8170 H   0  0  0  0  0  0  0  0  0  0  0  0
   29.7560   27.7970   34.3030 H   0  0  0  0  0  0  0  0  0  0  0  0
   27.7860   27.5000   35.9350 H   0  0  0  0  0  0  0  0  0  0  0  0
   28.9560   26.7900   37.0810 H   0  0  0  0  0  0  0  0  0  0  0  0
   28.7170   29.1340   37.6610 H   0  0  0  0  0  0  0  0  0  0  0  0
   28.6600   29.5980   35.9580 H   0  0  0  0  0  0  0  0  0  0  0  0
   30.9640   29.0410   37.8020 H   0  0  0  0  0  0  0  0  0  0  0  0
   30.7900   31.0100   36.3150 S   0  0  0  0  0  0  0  0  0  0  0  0
   29.9360   31.2200   35.1960 H   0  0  0  0  0  0  0  0  0  0  0  0
   36.5350   27.5870   40.4040 C   0  0  0  0  0  0  0  0  0  0  0  0
   36.4750   28.6830   41.2700 C   0  0  0  0  0  0  0  0  0  0  0  0
   35.8530   29.8020   40.7880 C   0  0  0  0  0  0  0  0  0  0  0  0
   35.3390   29.7830   39.5270 N   0  0  0  0  0  0  0  0  0  0  0  0
   35.4240   28.6750   38.7150 C   0  0  0  0  0  0  0  0  0  0  0  0
   36.0090   27.6170   39.1560 N   0  0  0  0  0  0  0  0  0  0  0  0
   35.7160   30.9810   41.5050 N   0  0  0  0  0  0  0  0  0  0  0  0
   37.0150   26.6720   40.7230 H   0  0  0  0  0  0  0  0  0  0  0  0
   35.2380   31.3590   42.3300 H   0  0  0  0  0  0  0  0  0  0  0  0
   36.2550   31.8130   41.1290 H   0  0  0  0  0  0  0  0  0  0  0  0
   37.0810   28.5060   42.6080 C   0  0  0  0  0  3  0  0  0  0  0  0
   38.2790   29.4060   42.7800 C   0  0  0  0  0  2  0  0  0  0  0  0
   39.5560   28.8530   42.2090 C   0  0  0  0  0  2  0  0  0  0  0  0
   39.8830   27.4950   42.7840 C   0  0  0  0  0  2  0  0  0  0  0  0
   38.7680   27.0180   43.6950 C   0  0  0  0  0  2  0  0  0  0  0  0
   37.4290   27.1340   43.0170 C   0  0  0  0  0  2  0  0  0  0  0  0
  1 32  1  0  0  0  0
  2  7  1  0  0  0  0
  2  1  2  0  0  0  0
  3  2  1  0  0  0  0
  4  3  2  0  0  0  0
  4  5  1  0  0  0  0
  5  6  2  0  0  0  0
  6  1  1  0  0  0  0
  8  3  1  0  0  0  0
  9  4  1  0  0  0  0
 10 16  1  6  0  0  0
 10  5  1  0  0  0  0
 10 15  1  0  0  0  0
 11 10  1  0  0  0  0
 11 17  1  0  0  0  0
 12 11  1  0  0  0  0
 12 13  1  0  0  0  0
 13 14  1  0  0  0  0
 13 22  1  0  0  0  0
 14 15  1  0  0  0  0
 14 23  1  0  0  0  0
 15 25  1  1  0  0  0
 18 11  1  0  0  0  0
 19 12  1  0  0  0  0
 20 12  1  0  0  0  0
 21 13  1  0  0  0  0
 24 14  1  0  0  0  0
 26 15  1  0  0  0  0
 27 26  1  0  0  0  0
 28 35  1  0  0  0  0
 28 29  1  0  0  0  0
 29 38  1  0  0  0  0
 30 29  2  0  0  0  0
 30 34  1  0  0  0  0
 31 30  1  0  0  0  0
 32 33  1  0  0  0  0
 32 31  2  0  0  0  0
 33 28  2  0  0  0  0
 34 36  1  0  0  0  0
 37 34  1  0  0  0  0
 38 39  1  0  0  0  0
 38 43  1  0  0  0  0
 40 39  1  0  0  0  0
 40 41  1  0  0  0  0
 41 42  1  0  0  0  0
 43 42  1  0  0  0  0
M  END
>  <minimizedAffinity>
-6.2538538

$$$$

 OpenBabel03242514123D

 43 46  0  0  1  0  0  0  0  0999 V2000
   38.9430   28.9560   42.0560 C   0  0  0  0  0  0  0  0  0  0  0  0
   38.1410   29.1420   43.1560 C   0  0  0  0  0  0  0  0  0  0  0  0
   37.2030   28.2240   43.5910 C   0  0  0  0  0  0  0  0  0  0  0  0
   37.1300   27.0610   42.8070 C   0  0  0  0  0  0  0  0  0  0  0  0
   37.9490   26.8720   41.6850 C   0  0  0  0  0  0  0  0  0  0  0  0
   38.8420   27.8100   41.3190 N   0  0  0  0  0  0  0  0  0  0  0  0
   38.2720   30.0740   43.6990 H   0  0  0  0  0  0  0  0  0  0  0  0
   36.6040   28.4100   44.4470 H   0  0  0  0  0  0  0  0  0  0  0  0
   36.3810   26.3810   43.1880 H   0  0  0  0  0  0  0  0  0  0  0  0
   37.8340   25.6320   40.9270 C   0  0  1  0  0  0  0  0  0  0  0  0
   38.2200   24.3900   41.8320 C   0  0  0  0  0  0  0  0  0  0  0  0
   38.4780   23.2910   40.7580 C   0  0  0  0  0  0  0  0  0  0  0  0
   37.0660   22.9130   40.3110 C   0  0  0  0  0  0  0  0  0  0  0  0
   36.4060   24.0570   39.6280 C   0  0  0  0  0  0  0  0  0  0  0  0
   36.6060   25.3970   40.2280 C   0  0  2  0  0  0  0  0  0  0  0  0
   38.7170   25.6260   40.2220 H   0  0  0  0  0  0  0  0  0  0  0  0
   37.3540   24.1350   42.4560 H   0  0  0  0  0  0  0  0  0  0  0  0
   39.1460   24.6330   42.3490 H   0  0  0  0  0  0  0  0  0  0  0  0
   38.9500   22.4180   41.2280 H   0  0  0  0  0  0  0  0  0  0  0  0
   39.0590   23.7580   39.9590 H   0  0  0  0  0  0  0  0  0  0  0  0
   37.1580   22.0520   39.6360 H   0  0  0  0  0  0  0  0  0  0  0  0
   36.5380   22.5720   41.2270 H   0  0  0  0  0  0  0  0  0  0  0  0
   35.3230   23.8230   39.5400 H   0  0  0  0  0  0  0  0  0  0  0  0
   36.7840   24.0220   38.5670 H   0  0  0  0  0  0  0  0  0  0  0  0
   35.7290   25.5510   40.9270 H   0  0  0  0  0  0  0  0  0  0  0  0
   36.5640   26.5790   38.8380 S   0  0  0  0  0  0  0  0  0  0  0  0
   37.3620   26.0040   37.8090 H   0  0  0  0  0  0  0  0  0  0  0  0
   40.9410   31.3680   40.1730 C   0  0  0  0  0  0  0  0  0  0  0  0
   41.8190   31.8900   41.1270 C   0  0  0  0  0  0  0  0  0  0  0  0
   41.6950   31.3970   42.3970 C   0  0  0  0  0  0  0  0  0  0  0  0
   40.7490   30.4500   42.6510 N   0  0  0  0  0  0  0  0  0  0  0  0
   39.9090   29.9690   41.6710 C   0  0  0  0  0  0  0  0  0  0  0  0
   40.0150   30.4270   40.4730 N   0  0  0  0  0  0  0  0  0  0  0  0
   42.4720   31.8100   43.4680 N   0  0  0  0  0  0  0  0  0  0  0  0
   40.9860   31.7170   39.1500 H   0  0  0  0  0  0  0  0  0  0  0  0
   43.4400   31.7810   43.8060 H   0  0  0  0  0  0  0  0  0  0  0  0
   41.9590   32.3350   44.2340 H   0  0  0  0  0  0  0  0  0  0  0  0
   42.7870   32.9050   40.6560 C   0  0  0  0  0  3  0  0  0  0  0  0
   42.2550   34.2990   40.8790 C   0  0  0  0  0  2  0  0  0  0  0  0
   41.3280   34.7880   39.8000 C   0  0  0  0  0  2  0  0  0  0  0  0
   41.9760   34.7280   38.4370 C   0  0  0  0  0  2  0  0  0  0  0  0
   43.3450   34.0830   38.5240 C   0  0  0  0  0  2  0  0  0  0  0  0
   43.2810   32.7780   39.2740 C   0  0  0  0  0  2  0  0  0  0  0  0
  1  2  1  0  0  0  0
  2  3  2  0  0  0  0
  2  7  1  0  0  0  0
  3  8  1  0  0  0  0
  4  9  1  0  0  0  0
  4  3  1  0  0  0  0
  5  4  2  0  0  0  0
  6  5  1  0  0  0  0
  6  1  2  0  0  0  0
 10 16  1  6  0  0  0
 10  5  1  0  0  0  0
 10 11  1  0  0  0  0
 11 18  1  0  0  0  0
 11 17  1  0  0  0  0
 12 19  1  0  0  0  0
 12 11  1  0  0  0  0
 13 12  1  0  0  0  0
 13 22  1  0  0  0  0
 14 15  1  0  0  0  0
 14 13  1  0  0  0  0
 15 10  1  0  0  0  0
 15 25  1  1  0  0  0
 20 12  1  0  0  0  0
 21 13  1  0  0  0  0
 23 14  1  0  0  0  0
 24 14  1  0  0  0  0
 26 15  1  0  0  0  0
 27 26  1  0  0  0  0
 28 33  2  0  0  0  0
 28 29  1  0  0  0  0
 29 30  2  0  0  0  0
 30 31  1  0  0  0  0
 30 34  1  0  0  0  0
 32  1  1  0  0  0  0
 32 31  2  0  0  0  0
 33 32  1  0  0  0  0
 34 36  1  0  0  0  0
 34 37  1  0  0  0  0
 35 28  1  0  0  0  0
 38 39  1  0  0  0  0
 38 29  1  0  0  0  0
 40 39  1  0  0  0  0
 41 42  1  0  0  0  0
 41 40  1  0  0  0  0
 42 43  1  0  0  0  0
 43 38  1  0  0  0  0
M  END
>  <minimizedAffinity>
-6.18342447

$$$$
