
 OpenBabel03242515513D

 17 18  0  0  0  0  0  0  0  0999 V2000
   38.5670   31.4020   40.6600 C   0  0  0  0  0  0  0  0  0  0  0  0
   37.2040   31.7500   40.6190 C   0  0  0  0  0  0  0  0  0  0  0  0
   36.2830   30.7810   40.9780 C   0  0  0  0  0  0  0  0  0  0  0  0
   36.7440   29.5590   41.3460 N   0  0  0  0  0  0  0  0  0  0  0  0
   38.0530   29.2560   41.3750 C   0  0  0  0  0  0  0  0  0  0  0  0
   38.9800   30.1910   41.0280 N   0  0  0  0  0  0  0  0  0  0  0  0
   39.4060   32.0630   40.4040 H   0  0  0  0  0  0  0  0  0  0  0  0
   35.2500   31.0760   40.9370 H   0  0  0  0  0  0  0  0  0  0  0  0
   38.4360   27.8950   41.7920 C   0  0  0  0  0  3  0  0  0  0  0  0
   39.5480   27.8730   42.8080 C   0  0  0  0  0  2  0  0  0  0  0  0
   39.4940   26.6350   43.6660 C   0  0  0  0  0  2  0  0  0  0  0  0
   38.9630   25.4340   42.9340 C   0  0  0  0  0  2  0  0  0  0  0  0
   37.6450   25.6710   42.2360 C   0  0  0  0  0  2  0  0  0  0  0  0
   37.2680   27.1420   42.4460 C   0  0  0  0  0  2  0  0  0  0  0  0
   36.9060   33.0860   40.2070 N   0  0  0  0  0  0  0  0  0  0  0  0
   36.2810   33.0150   39.3490 H   0  0  0  0  0  0  0  0  0  0  0  0
   37.2850   33.9290   40.7230 H   0  0  0  0  0  0  0  0  0  0  0  0
  1  6  1  0  0  0  0
  2  1  2  0  0  0  0
  2  3  1  0  0  0  0
  3  4  2  0  0  0  0
  4  5  1  0  0  0  0
  5  9  1  0  0  0  0
  6  5  2  0  0  0  0
  7  1  1  0  0  0  0
  8  3  1  0  0  0  0
  9 14  1  0  0  0  0
  9 10  1  0  0  0  0
 10 11  1  0  0  0  0
 12 11  1  0  0  0  0
 13 14  1  0  0  0  0
 13 12  1  0  0  0  0
 15  2  1  0  0  0  0
 15 17  1  0  0  0  0
 16 15  1  0  0  0  0
M  END
>  <minimizedAffinity>
-4.64472961

$$$$

 OpenBabel03242515513D

 17 18  0  0  0  0  0  0  0  0999 V2000
   36.7700   31.6210   40.2780 C   0  0  0  0  0  0  0  0  0  0  0  0
   37.6010   32.7420   40.0920 C   0  0  0  0  0  0  0  0  0  0  0  0
   38.8480   32.7230   40.6940 C   0  0  0  0  0  0  0  0  0  0  0  0
   39.1940   31.6330   41.4230 N   0  0  0  0  0  0  0  0  0  0  0  0
   38.3780   30.5770   41.5830 C   0  0  0  0  0  0  0  0  0  0  0  0
   37.1470   30.5690   41.0020 N   0  0  0  0  0  0  0  0  0  0  0  0
   35.7600   31.4960   39.8640 H   0  0  0  0  0  0  0  0  0  0  0  0
   39.4600   33.5920   40.5340 H   0  0  0  0  0  0  0  0  0  0  0  0
   38.8640   29.4490   42.3980 C   0  0  0  0  0  3  0  0  0  0  0  0
   37.8130   28.8810   43.3170 C   0  0  0  0  0  2  0  0  0  0  0  0
   38.0750   27.4320   43.6360 C   0  0  0  0  0  2  0  0  0  0  0  0
   39.5400   27.0950   43.6790 C   0  0  0  0  0  2  0  0  0  0  0  0
   40.3090   27.5320   42.4550 C   0  0  0  0  0  2  0  0  0  0  0  0
   39.3310   28.2700   41.5330 C   0  0  0  0  0  2  0  0  0  0  0  0
   37.0670   33.7970   39.2900 N   0  0  0  0  0  0  0  0  0  0  0  0
   37.0580   34.6730   39.8930 H   0  0  0  0  0  0  0  0  0  0  0  0
   36.7600   33.6400   38.2890 H   0  0  0  0  0  0  0  0  0  0  0  0
  1  6  1  0  0  0  0
  2  1  2  0  0  0  0
  2  3  1  0  0  0  0
  3  4  2  0  0  0  0
  4  5  1  0  0  0  0
  5  9  1  0  0  0  0
  6  5  2  0  0  0  0
  7  1  1  0  0  0  0
  8  3  1  0  0  0  0
  9 10  1  0  0  0  0
 10 11  1  0  0  0  0
 11 12  1  0  0  0  0
 13 12  1  0  0  0  0
 14  9  1  0  0  0  0
 14 13  1  0  0  0  0
 15 16  1  0  0  0  0
 15  2  1  0  0  0  0
 17 15  1  0  0  0  0
M  END
>  <minimizedAffinity>
-4.63701534

$$$$

 OpenBabel03242515513D

 17 18  0  0  0  0  0  0  0  0999 V2000
   36.9430   32.0010   39.7280 C   0  0  0  0  0  0  0  0  0  0  0  0
   37.9920   32.8510   40.1250 C   0  0  0  0  0  0  0  0  0  0  0  0
   38.9170   32.3520   41.0260 C   0  0  0  0  0  0  0  0  0  0  0  0
   38.7600   31.0800   41.4710 N   0  0  0  0  0  0  0  0  0  0  0  0
   37.7460   30.2920   41.0740 C   0  0  0  0  0  0  0  0  0  0  0  0
   36.8230   30.7580   40.1880 N   0  0  0  0  0  0  0  0  0  0  0  0
   36.1410   32.2600   39.0240 H   0  0  0  0  0  0  0  0  0  0  0  0
   39.7070   33.0230   41.3100 H   0  0  0  0  0  0  0  0  0  0  0  0
   37.6780   28.9270   41.6260 C   0  0  0  0  0  3  0  0  0  0  0  0
   37.5420   28.8970   43.1270 C   0  0  0  0  0  2  0  0  0  0  0  0
   36.8560   27.6420   43.5990 C   0  0  0  0  0  2  0  0  0  0  0  0
   37.1470   26.4500   42.7300 C   0  0  0  0  0  2  0  0  0  0  0  0
   36.9000   26.6850   41.2590 C   0  0  0  0  0  2  0  0  0  0  0  0
   36.4690   28.1470   41.0900 C   0  0  0  0  0  2  0  0  0  0  0  0
   37.9970   34.1600   39.5490 N   0  0  0  0  0  0  0  0  0  0  0  0
   37.9530   34.8540   40.3530 H   0  0  0  0  0  0  0  0  0  0  0  0
   38.0380   34.3110   38.5020 H   0  0  0  0  0  0  0  0  0  0  0  0
  1  2  2  0  0  0  0
  1  6  1  0  0  0  0
  2  3  1  0  0  0  0
  3  8  1  0  0  0  0
  3  4  2  0  0  0  0
  5  4  1  0  0  0  0
  5  9  1  0  0  0  0
  6  5  2  0  0  0  0
  7  1  1  0  0  0  0
  9 10  1  0  0  0  0
 10 11  1  0  0  0  0
 12 11  1  0  0  0  0
 13 12  1  0  0  0  0
 14 13  1  0  0  0  0
 14  9  1  0  0  0  0
 15  2  1  0  0  0  0
 15 16  1  0  0  0  0
 17 15  1  0  0  0  0
M  END
>  <minimizedAffinity>
-4.59585381

$$$$

 OpenBabel03242515513D

 17 18  0  0  0  0  0  0  0  0999 V2000
   37.5260   31.4950   38.3080 C   0  0  0  0  0  0  0  0  0  0  0  0
   38.9000   31.4850   38.0030 C   0  0  0  0  0  0  0  0  0  0  0  0
   39.7310   30.7250   38.8090 C   0  0  0  0  0  0  0  0  0  0  0  0
   39.1760   30.0400   39.8410 N   0  0  0  0  0  0  0  0  0  0  0  0
   37.8590   30.0700   40.1080 C   0  0  0  0  0  0  0  0  0  0  0  0
   37.0200   30.8080   39.3300 N   0  0  0  0  0  0  0  0  0  0  0  0
   36.7520   32.0480   37.7590 H   0  0  0  0  0  0  0  0  0  0  0  0
   40.7750   30.7360   38.5520 H   0  0  0  0  0  0  0  0  0  0  0  0
   37.3720   29.2850   41.2550 C   0  0  0  0  0  3  0  0  0  0  0  0
   36.8060   27.9440   40.8640 C   0  0  0  0  0  2  0  0  0  0  0  0
   36.9140   26.9440   41.9860 C   0  0  0  0  0  2  0  0  0  0  0  0
   36.7930   27.5730   43.3470 C   0  0  0  0  0  2  0  0  0  0  0  0
   37.7220   28.7440   43.5690 C   0  0  0  0  0  2  0  0  0  0  0  0
   38.4890   28.9790   42.2630 C   0  0  0  0  0  2  0  0  0  0  0  0
   39.3030   32.2670   36.8770 N   0  0  0  0  0  0  0  0  0  0  0  0
   40.0140   32.9760   37.2280 H   0  0  0  0  0  0  0  0  0  0  0  0
   38.9080   32.1000   35.9090 H   0  0  0  0  0  0  0  0  0  0  0  0
  1  6  1  0  0  0  0
  2  1  2  0  0  0  0
  2  3  1  0  0  0  0
  3  4  2  0  0  0  0
  4  5  1  0  0  0  0
  5  9  1  0  0  0  0
  6  5  2  0  0  0  0
  7  1  1  0  0  0  0
  8  3  1  0  0  0  0
  9 14  1  0  0  0  0
 10  9  1  0  0  0  0
 10 11  1  0  0  0  0
 11 12  1  0  0  0  0
 12 13  1  0  0  0  0
 14 13  1  0  0  0  0
 15 16  1  0  0  0  0
 15  2  1  0  0  0  0
 17 15  1  0  0  0  0
M  END
>  <minimizedAffinity>
-4.44992924

$$$$

 OpenBabel03242515513D

 17 18  0  0  0  0  0  0  0  0999 V2000
   41.2060   32.3330   37.2710 C   0  0  0  0  0  0  0  0  0  0  0  0
   41.7490   33.5750   37.6490 C   0  0  0  0  0  0  0  0  0  0  0  0
   41.3380   34.1140   38.8570 C   0  0  0  0  0  0  0  0  0  0  0  0
   40.4420   33.4180   39.6010 N   0  0  0  0  0  0  0  0  0  0  0  0
   39.9410   32.2330   39.2120 C   0  0  0  0  0  0  0  0  0  0  0  0
   40.3280   31.6800   38.0300 N   0  0  0  0  0  0  0  0  0  0  0  0
   41.4380   31.7870   36.3470 H   0  0  0  0  0  0  0  0  0  0  0  0
   41.7690   35.0630   39.1200 H   0  0  0  0  0  0  0  0  0  0  0  0
   38.9730   31.5690   40.1040 C   0  0  0  0  0  3  0  0  0  0  0  0
   37.6490   32.2840   40.1860 C   0  0  0  0  0  2  0  0  0  0  0  0
   36.5260   31.3400   40.5320 C   0  0  0  0  0  2  0  0  0  0  0  0
   36.9610   30.2130   41.4270 C   0  0  0  0  0  2  0  0  0  0  0  0
   38.1710   29.4600   40.9270 C   0  0  0  0  0  2  0  0  0  0  0  0
   38.6410   30.1440   39.6380 C   0  0  0  0  0  2  0  0  0  0  0  0
   42.6810   34.1610   36.7380 N   0  0  0  0  0  0  0  0  0  0  0  0
   42.2910   35.1100   36.4600 H   0  0  0  0  0  0  0  0  0  0  0  0
   43.5700   33.6640   36.4500 H   0  0  0  0  0  0  0  0  0  0  0  0
  1  2  2  0  0  0  0
  1  6  1  0  0  0  0
  2  3  1  0  0  0  0
  3  8  1  0  0  0  0
  3  4  2  0  0  0  0
  5  4  1  0  0  0  0
  5  9  1  0  0  0  0
  6  5  2  0  0  0  0
  7  1  1  0  0  0  0
  9 10  1  0  0  0  0
 10 11  1  0  0  0  0
 11 12  1  0  0  0  0
 13 12  1  0  0  0  0
 14  9  1  0  0  0  0
 14 13  1  0  0  0  0
 15  2  1  0  0  0  0
 16 15  1  0  0  0  0
 17 15  1  0  0  0  0
M  END
>  <minimizedAffinity>
-4.30616093

$$$$

 OpenBabel03242515513D

 17 18  0  0  0  0  0  0  0  0999 V2000
   40.2280   31.1030   38.8930 C   0  0  0  0  0  0  0  0  0  0  0  0
   39.2540   31.4000   37.9220 C   0  0  0  0  0  0  0  0  0  0  0  0
   38.0050   30.8180   38.0660 C   0  0  0  0  0  0  0  0  0  0  0  0
   37.7950   30.0010   39.1290 N   0  0  0  0  0  0  0  0  0  0  0  0
   38.7460   29.7360   40.0410 C   0  0  0  0  0  0  0  0  0  0  0  0
   39.9820   30.2950   39.9230 N   0  0  0  0  0  0  0  0  0  0  0  0
   41.2560   31.4890   38.9090 H   0  0  0  0  0  0  0  0  0  0  0  0
   37.2820   31.0630   37.3100 H   0  0  0  0  0  0  0  0  0  0  0  0
   38.4010   28.8330   41.1530 C   0  0  0  0  0  3  0  0  0  0  0  0
   38.5690   29.4660   42.5100 C   0  0  0  0  0  2  0  0  0  0  0  0
   37.6610   28.8360   43.5340 C   0  0  0  0  0  2  0  0  0  0  0  0
   37.4140   27.3740   43.2830 C   0  0  0  0  0  2  0  0  0  0  0  0
   36.9530   27.0590   41.8790 C   0  0  0  0  0  2  0  0  0  0  0  0
   36.9370   28.3750   41.0920 C   0  0  0  0  0  2  0  0  0  0  0  0
   39.6560   32.2830   36.8730 N   0  0  0  0  0  0  0  0  0  0  0  0
   39.5250   31.7590   35.9570 H   0  0  0  0  0  0  0  0  0  0  0  0
   40.0090   33.2620   37.0690 H   0  0  0  0  0  0  0  0  0  0  0  0
  1  7  1  0  0  0  0
  1  6  1  0  0  0  0
  2  3  1  0  0  0  0
  2  1  2  0  0  0  0
  3  4  2  0  0  0  0
  4  5  1  0  0  0  0
  5  9  1  0  0  0  0
  6  5  2  0  0  0  0
  8  3  1  0  0  0  0
  9 10  1  0  0  0  0
 10 11  1  0  0  0  0
 12 11  1  0  0  0  0
 13 12  1  0  0  0  0
 14  9  1  0  0  0  0
 14 13  1  0  0  0  0
 15 17  1  0  0  0  0
 15  2  1  0  0  0  0
 16 15  1  0  0  0  0
M  END
>  <minimizedAffinity>
-4.28401947

$$$$

 OpenBabel03242515513D

 17 18  0  0  0  0  0  0  0  0999 V2000
   37.8980   24.8210   42.1230 C   0  0  0  0  0  0  0  0  0  0  0  0
   39.0720   24.8580   42.9000 C   0  0  0  0  0  0  0  0  0  0  0  0
   39.5360   26.0980   43.3030 C   0  0  0  0  0  0  0  0  0  0  0  0
   38.8370   27.2000   42.9280 N   0  0  0  0  0  0  0  0  0  0  0  0
   37.7190   27.1320   42.1860 C   0  0  0  0  0  0  0  0  0  0  0  0
   37.2410   25.9250   41.7760 N   0  0  0  0  0  0  0  0  0  0  0  0
   37.4160   23.9140   41.7340 H   0  0  0  0  0  0  0  0  0  0  0  0
   40.4330   26.0950   43.8950 H   0  0  0  0  0  0  0  0  0  0  0  0
   37.0450   28.3970   41.8400 C   0  0  0  0  0  3  0  0  0  0  0  0
   37.9330   29.6060   41.9880 C   0  0  0  0  0  2  0  0  0  0  0  0
   37.5040   30.7270   41.0770 C   0  0  0  0  0  2  0  0  0  0  0  0
   36.0180   30.7630   40.8490 C   0  0  0  0  0  2  0  0  0  0  0  0
   35.4300   29.4450   40.4050 C   0  0  0  0  0  2  0  0  0  0  0  0
   36.5660   28.4160   40.3820 C   0  0  0  0  0  2  0  0  0  0  0  0
   39.6720   23.5950   43.1980 N   0  0  0  0  0  0  0  0  0  0  0  0
   40.6620   23.6210   42.8110 H   0  0  0  0  0  0  0  0  0  0  0  0
   39.1470   22.8330   43.7120 H   0  0  0  0  0  0  0  0  0  0  0  0
  1  2  1  0  0  0  0
  2 15  1  0  0  0  0
  2  3  2  0  0  0  0
  3  8  1  0  0  0  0
  4  3  1  0  0  0  0
  5  4  2  0  0  0  0
  6  1  2  0  0  0  0
  6  5  1  0  0  0  0
  7  1  1  0  0  0  0
  9 10  1  0  0  0  0
  9  5  1  0  0  0  0
 11 10  1  0  0  0  0
 12 11  1  0  0  0  0
 13 12  1  0  0  0  0
 14 13  1  0  0  0  0
 14  9  1  0  0  0  0
 15 17  1  0  0  0  0
 16 15  1  0  0  0  0
M  END
>  <minimizedAffinity>
-4.2157445

$$$$

 OpenBabel03242515513D

 17 18  0  0  0  0  0  0  0  0999 V2000
   37.4530   29.7430   41.5820 C   0  0  0  0  0  0  0  0  0  0  0  0
   36.3480   30.2670   40.8850 C   0  0  0  0  0  0  0  0  0  0  0  0
   35.5520   29.3780   40.1830 C   0  0  0  0  0  0  0  0  0  0  0  0
   35.8810   28.0620   40.2060 N   0  0  0  0  0  0  0  0  0  0  0  0
   36.9440   27.5910   40.8810 C   0  0  0  0  0  0  0  0  0  0  0  0
   37.7430   28.4430   41.5800 N   0  0  0  0  0  0  0  0  0  0  0  0
   38.1690   30.3240   42.1780 H   0  0  0  0  0  0  0  0  0  0  0  0
   34.7150   29.8070   39.6610 H   0  0  0  0  0  0  0  0  0  0  0  0
   37.2020   26.1410   40.8330 C   0  0  0  0  0  3  0  0  0  0  0  0
   38.3500   25.7690   39.9300 C   0  0  0  0  0  2  0  0  0  0  0  0
   38.9970   24.4770   40.3550 C   0  0  0  0  0  2  0  0  0  0  0  0
   38.0260   23.5070   40.9690 C   0  0  0  0  0  2  0  0  0  0  0  0
   37.1940   24.0920   42.0850 C   0  0  0  0  0  2  0  0  0  0  0  0
   37.5660   25.5730   42.2120 C   0  0  0  0  0  2  0  0  0  0  0  0
   36.1570   31.6800   40.9760 N   0  0  0  0  0  0  0  0  0  0  0  0
   36.1830   32.0630   39.9840 H   0  0  0  0  0  0  0  0  0  0  0  0
   36.0240   32.1690   41.9060 H   0  0  0  0  0  0  0  0  0  0  0  0
  1  7  1  0  0  0  0
  2 15  1  0  0  0  0
  2  1  2  0  0  0  0
  3  4  2  0  0  0  0
  3  2  1  0  0  0  0
  4  5  1  0  0  0  0
  5  6  2  0  0  0  0
  6  1  1  0  0  0  0
  8  3  1  0  0  0  0
  9  5  1  0  0  0  0
  9 14  1  0  0  0  0
 10 11  1  0  0  0  0
 10  9  1  0  0  0  0
 11 12  1  0  0  0  0
 12 13  1  0  0  0  0
 13 14  1  0  0  0  0
 15 17  1  0  0  0  0
 16 15  1  0  0  0  0
M  END
>  <minimizedAffinity>
-4.1416235

$$$$

 OpenBabel03242515513D

 17 18  0  0  0  0  0  0  0  0999 V2000
   39.7290   25.9900   42.6680 C   0  0  0  0  0  0  0  0  0  0  0  0
   38.9970   24.7880   42.6480 C   0  0  0  0  0  0  0  0  0  0  0  0
   37.7450   24.8090   42.0580 C   0  0  0  0  0  0  0  0  0  0  0  0
   37.2980   25.9800   41.5380 N   0  0  0  0  0  0  0  0  0  0  0  0
   38.0210   27.1130   41.5730 C   0  0  0  0  0  0  0  0  0  0  0  0
   39.2560   27.1190   42.1460 N   0  0  0  0  0  0  0  0  0  0  0  0
   40.7310   26.1230   43.0990 H   0  0  0  0  0  0  0  0  0  0  0  0
   37.2090   23.8770   42.0570 H   0  0  0  0  0  0  0  0  0  0  0  0
   37.4320   28.3240   40.9750 C   0  0  0  0  0  3  0  0  0  0  0  0
   36.1030   28.0750   40.3090 C   0  0  0  0  0  2  0  0  0  0  0  0
   35.2500   29.3170   40.2860 C   0  0  0  0  0  2  0  0  0  0  0  0
   36.0560   30.5820   40.1700 C   0  0  0  0  0  2  0  0  0  0  0  0
   37.1650   30.7010   41.1890 C   0  0  0  0  0  2  0  0  0  0  0  0
   37.1670   29.4150   42.0220 C   0  0  0  0  0  2  0  0  0  0  0  0
   39.6290   23.6530   43.2440 N   0  0  0  0  0  0  0  0  0  0  0  0
   38.9890   23.3120   44.0220 H   0  0  0  0  0  0  0  0  0  0  0  0
   40.5660   23.2920   42.9060 H   0  0  0  0  0  0  0  0  0  0  0  0
  1  7  1  0  0  0  0
  2  1  1  0  0  0  0
  2 15  1  0  0  0  0
  3  2  2  0  0  0  0
  4  5  2  0  0  0  0
  4  3  1  0  0  0  0
  5  6  1  0  0  0  0
  6  1  2  0  0  0  0
  8  3  1  0  0  0  0
  9  5  1  0  0  0  0
  9 14  1  0  0  0  0
 10  9  1  0  0  0  0
 11 10  1  0  0  0  0
 12 11  1  0  0  0  0
 12 13  1  0  0  0  0
 13 14  1  0  0  0  0
 15 16  1  0  0  0  0
 17 15  1  0  0  0  0
M  END
>  <minimizedAffinity>
-4.06677389

$$$$
