
 OpenBabel03242510063D

 15 16  0  0  1  0  0  0  0  0999 V2000
   44.5620   35.5560   44.8380 C   0  0  0  0  0  0  0  0  0  0  0  0
   45.1770   35.5150   43.5740 C   0  0  0  0  0  0  0  0  0  0  0  0
   46.1820   34.5650   43.3680 C   0  0  0  0  0  0  0  0  0  0  0  0
   46.5070   33.7360   44.3970 N   0  0  0  0  0  0  0  0  0  0  0  0
   45.8980   33.7980   45.6030 C   0  0  0  0  0  0  0  0  0  0  0  0
   44.9220   34.7100   45.8280 N   0  0  0  0  0  0  0  0  0  0  0  0
   43.7730   36.2940   45.0170 H   0  0  0  0  0  0  0  0  0  0  0  0
   44.9030   36.1770   42.7880 H   0  0  0  0  0  0  0  0  0  0  0  0
   46.7110   34.4580   42.4310 H   0  0  0  0  0  0  0  0  0  0  0  0
   46.3140   32.8520   46.6780 C   0  0  2  0  0  3  0  0  0  0  0  0
   46.6930   31.5840   46.0120 C   0  0  0  0  0  2  0  0  0  0  0  0
   45.6820   30.4790   46.1510 C   0  0  0  0  0  2  0  0  0  0  0  0
   45.4800   30.2760   47.6290 C   0  0  0  0  0  2  0  0  0  0  0  0
   44.9320   31.4770   48.3080 C   0  0  0  0  0  3  0  0  0  0  0  0
   45.2440   32.7910   47.7020 C   0  0  0  0  0  3  0  0  0  0  0  0
  1  7  1  0  0  0  0
  1  6  1  0  0  0  0
  2  1  2  0  0  0  0
  3  2  1  0  0  0  0
  3  4  2  0  0  0  0
  4  5  1  0  0  0  0
  5  6  2  0  0  0  0
  8  2  1  0  0  0  0
  9  3  1  0  0  0  0
 10  5  1  6  0  0  0
 10 15  1  0  0  0  0
 11 12  1  0  0  0  0
 11 10  1  0  0  0  0
 12 13  1  0  0  0  0
 13 14  1  0  0  0  0
 15 14  2  0  0  0  0
M  END
>  <minimizedAffinity>
-4.39254093

>  <minimizedRMSD>
0.793491006

$$$$
