
 OpenBabel03252506573D

 35 39  0  0  0  0  0  0  0  0999 V2000
   47.4830   31.4240   45.2300 C   0  0  0  0  0  0  0  0  0  0  0  0
   46.9380   32.6870   45.1030 C   0  0  0  0  0  0  0  0  0  0  0  0
   46.1920   33.2980   46.0970 C   0  0  0  0  0  0  0  0  0  0  0  0
   45.9680   32.6270   47.2940 C   0  0  0  0  0  0  0  0  0  0  0  0
   45.3090   32.8980   48.4560 N   0  0  0  0  0  0  0  0  0  0  0  0
   45.4470   31.8290   49.2760 C   0  0  0  0  0  0  0  0  0  0  0  0
   46.1880   30.9110   48.6150 N   0  0  0  0  0  0  0  0  0  0  0  0
   46.5170   31.3750   47.4060 C   0  0  0  0  0  0  0  0  0  0  0  0
   47.2560   30.7520   46.4370 C   0  0  0  0  0  0  0  0  0  0  0  0
   48.0560   30.9780   44.4430 H   0  0  0  0  0  0  0  0  0  0  0  0
   45.7740   34.2790   45.9860 H   0  0  0  0  0  0  0  0  0  0  0  0
   44.7990   33.8110   48.6190 H   0  0  0  0  0  0  0  0  0  0  0  0
   45.0160   31.7870   50.2680 H   0  0  0  0  0  0  0  0  0  0  0  0
   46.5490   35.1440   42.3830 C   0  0  0  0  0  0  0  0  0  0  0  0
   47.5640   34.7940   41.5080 C   0  0  0  0  0  0  0  0  0  0  0  0
   48.3880   33.7140   41.8440 C   0  0  0  0  0  0  0  0  0  0  0  0
   48.1500   33.0570   43.0220 N   0  0  0  0  0  0  0  0  0  0  0  0
   47.1580   33.4190   43.8500 C   0  0  0  0  0  0  0  0  0  0  0  0
   46.3530   34.4590   43.5420 N   0  0  0  0  0  0  0  0  0  0  0  0
   45.8800   35.9840   42.1610 H   0  0  0  0  0  0  0  0  0  0  0  0
   47.7240   35.3280   40.5940 H   0  0  0  0  0  0  0  0  0  0  0  0
   49.1990   33.3970   41.1920 H   0  0  0  0  0  0  0  0  0  0  0  0
   47.8040   29.4020   46.6510 C   0  0  0  0  0  0  0  0  0  0  0  0
   49.1560   29.1350   46.8470 C   0  0  0  0  0  0  0  0  0  0  0  0
   49.1820   27.7350   47.0020 C   0  0  0  0  0  0  0  0  0  0  0  0
   47.8870   27.2610   46.8930 C   0  0  0  0  0  0  0  0  0  0  0  0
   47.1050   28.3070   46.6830 O   0  0  0  0  0  0  0  0  0  0  0  0
   49.9950   29.8210   46.8780 H   0  0  0  0  0  0  0  0  0  0  0  0
   50.0650   27.1380   47.1770 H   0  0  0  0  0  0  0  0  0  0  0  0
   47.4010   25.8460   46.9860 C   0  0  0  0  0  3  0  0  0  0  0  0
   46.2340   25.5990   46.0760 C   0  0  0  0  0  2  0  0  0  0  0  0
   44.9070   25.6890   46.7910 C   0  0  0  0  0  2  0  0  0  0  0  0
   44.8000   24.6330   47.8640 C   0  0  0  0  0  2  0  0  0  0  0  0
   46.1370   24.3510   48.4840 C   0  0  0  0  0  2  0  0  0  0  0  0
   47.1000   25.5060   48.4170 C   0  0  0  0  0  2  0  0  0  0  0  0
  1  9  1  0  0  0  0
  2  1  2  0  0  0  0
  2  3  1  0  0  0  0
  3  4  2  0  0  0  0
  4  8  1  0  0  0  0
  4  5  1  0  0  0  0
  5 12  1  0  0  0  0
  5  6  1  0  0  0  0
  6 13  1  0  0  0  0
  7  6  2  0  0  0  0
  8  7  1  0  0  0  0
  9 23  1  0  0  0  0
  9  8  2  0  0  0  0
 10  1  1  0  0  0  0
 11  3  1  0  0  0  0
 14 19  1  0  0  0  0
 15 16  1  0  0  0  0
 15 14  2  0  0  0  0
 16 17  2  0  0  0  0
 17 18  1  0  0  0  0
 18  2  1  0  0  0  0
 19 18  2  0  0  0  0
 20 14  1  0  0  0  0
 21 15  1  0  0  0  0
 22 16  1  0  0  0  0
 23 27  1  0  0  0  0
 23 24  2  0  0  0  0
 24 28  1  0  0  0  0
 24 25  1  0  0  0  0
 25 29  1  0  0  0  0
 26 30  1  0  0  0  0
 26 25  2  0  0  0  0
 27 26  1  0  0  0  0
 30 35  1  0  0  0  0
 31 32  1  0  0  0  0
 31 30  1  0  0  0  0
 32 33  1  0  0  0  0
 33 34  1  0  0  0  0
 35 34  1  0  0  0  0
M  END
>  <minimizedAffinity>
-5.58916521

>  <minimizedRMSD>
0.573150098

$$$$
