
 OpenBabel03252505353D

 27 29  0  0  0  0  0  0  0  0999 V2000
   37.7450   29.4230   41.5740 C   0  0  0  0  0  0  0  0  0  0  0  0
   38.1130   29.2910   42.8970 C   0  0  0  0  0  0  0  0  0  0  0  0
   37.6780   28.2160   43.6800 C   0  0  0  0  0  0  0  0  0  0  0  0
   36.8560   27.2580   43.1150 C   0  0  0  0  0  0  0  0  0  0  0  0
   36.5090   27.4170   41.8020 C   0  0  0  0  0  0  0  0  0  0  0  0
   36.9210   28.4660   41.0010 C   0  0  0  0  0  0  0  0  0  0  0  0
   38.7610   30.0370   43.3580 H   0  0  0  0  0  0  0  0  0  0  0  0
   38.0130   28.1920   44.7000 H   0  0  0  0  0  0  0  0  0  0  0  0
   36.5160   26.4240   43.7160 H   0  0  0  0  0  0  0  0  0  0  0  0
   35.8610   26.6430   41.4150 H   0  0  0  0  0  0  0  0  0  0  0  0
   39.9480   31.8190   39.6750 C   0  0  0  0  0  0  0  0  0  0  0  0
   39.5620   30.6510   40.3600 C   0  0  0  0  0  0  0  0  0  0  0  0
   38.2550   30.5700   40.8550 C   0  0  0  0  0  0  0  0  0  0  0  0
   37.4250   31.6120   40.6560 N   0  0  0  0  0  0  0  0  0  0  0  0
   37.8430   32.7290   39.9850 C   0  0  0  0  0  0  0  0  0  0  0  0
   39.1030   32.8200   39.5010 N   0  0  0  0  0  0  0  0  0  0  0  0
   36.9690   33.8300   39.7750 N   0  0  0  0  0  0  0  0  0  0  0  0
   40.9740   31.8430   39.3060 H   0  0  0  0  0  0  0  0  0  0  0  0
   40.1790   29.8000   40.5450 H   0  0  0  0  0  0  0  0  0  0  0  0
   36.4310   34.0830   40.6110 H   0  0  0  0  0  0  0  0  0  0  0  0
   36.9400   34.2750   38.8330 H   0  0  0  0  0  0  0  0  0  0  0  0
   36.5250   28.6260   39.5780 C   0  0  0  0  0  3  0  0  0  0  0  0
   35.0680   29.0170   39.5870 C   0  0  0  0  0  2  0  0  0  0  0  0
   34.3910   28.9090   38.2560 C   0  0  0  0  0  2  0  0  0  0  0  0
   34.5870   27.5130   37.7070 C   0  0  0  0  0  2  0  0  0  0  0  0
   36.0180   27.1230   37.6090 C   0  0  0  0  0  2  0  0  0  0  0  0
   36.8420   27.3760   38.8440 C   0  0  0  0  0  2  0  0  0  0  0  0
  1  2  1  0  0  0  0
  2  7  1  0  0  0  0
  2  3  2  0  0  0  0
  3  8  1  0  0  0  0
  4  3  1  0  0  0  0
  4  9  1  0  0  0  0
  5  4  2  0  0  0  0
  6  1  2  0  0  0  0
  6  5  1  0  0  0  0
 10  5  1  0  0  0  0
 11 12  1  0  0  0  0
 12 19  1  0  0  0  0
 12 13  2  0  0  0  0
 13  1  1  0  0  0  0
 14 13  1  0  0  0  0
 15 14  2  0  0  0  0
 16 11  2  0  0  0  0
 16 15  1  0  0  0  0
 17 15  1  0  0  0  0
 17 20  1  0  0  0  0
 18 11  1  0  0  0  0
 21 17  1  0  0  0  0
 22 23  1  0  0  0  0
 22  6  1  0  0  0  0
 24 23  1  0  0  0  0
 25 24  1  0  0  0  0
 26 25  1  0  0  0  0
 26 27  1  0  0  0  0
 27 22  1  0  0  0  0
M  END
>  <minimizedAffinity>
-5.83948469

$$$$

 OpenBabel03252505353D

 27 29  0  0  0  0  0  0  0  0999 V2000
   36.7630   28.5680   38.8490 C   0  0  0  0  0  0  0  0  0  0  0  0
   36.1790   28.0820   37.6980 C   0  0  0  0  0  0  0  0  0  0  0  0
   35.7860   26.7450   37.5790 C   0  0  0  0  0  0  0  0  0  0  0  0
   35.9880   25.8830   38.6420 C   0  0  0  0  0  0  0  0  0  0  0  0
   36.5700   26.3950   39.7690 C   0  0  0  0  0  0  0  0  0  0  0  0
   36.9690   27.7100   39.9200 C   0  0  0  0  0  0  0  0  0  0  0  0
   36.0130   28.7470   36.8500 H   0  0  0  0  0  0  0  0  0  0  0  0
   35.3400   26.4520   36.6470 H   0  0  0  0  0  0  0  0  0  0  0  0
   35.6860   24.8470   38.5550 H   0  0  0  0  0  0  0  0  0  0  0  0
   36.7080   25.6770   40.5650 H   0  0  0  0  0  0  0  0  0  0  0  0
   37.0360   32.2270   39.7110 C   0  0  0  0  0  0  0  0  0  0  0  0
   36.6090   30.8860   39.7880 C   0  0  0  0  0  0  0  0  0  0  0  0
   37.1290   29.9680   38.8680 C   0  0  0  0  0  0  0  0  0  0  0  0
   38.0120   30.4040   37.9510 N   0  0  0  0  0  0  0  0  0  0  0  0
   38.4000   31.7160   37.9130 C   0  0  0  0  0  0  0  0  0  0  0  0
   37.9060   32.6140   38.7960 N   0  0  0  0  0  0  0  0  0  0  0  0
   39.3320   32.1790   36.9440 N   0  0  0  0  0  0  0  0  0  0  0  0
   36.6080   32.9110   40.4450 H   0  0  0  0  0  0  0  0  0  0  0  0
   35.9120   30.4910   40.4930 H   0  0  0  0  0  0  0  0  0  0  0  0
   39.1440   31.8230   36.0010 H   0  0  0  0  0  0  0  0  0  0  0  0
   40.1000   32.8130   37.2500 H   0  0  0  0  0  0  0  0  0  0  0  0
   37.6080   28.2450   41.1490 C   0  0  0  0  0  3  0  0  0  0  0  0
   38.9480   27.5600   41.2610 C   0  0  0  0  0  2  0  0  0  0  0  0
   39.6090   27.7110   42.5950 C   0  0  0  0  0  2  0  0  0  0  0  0
   38.6590   27.2510   43.6800 C   0  0  0  0  0  2  0  0  0  0  0  0
   37.3550   27.9640   43.6500 C   0  0  0  0  0  2  0  0  0  0  0  0
   36.6920   28.0390   42.2990 C   0  0  0  0  0  2  0  0  0  0  0  0
  1 13  1  0  0  0  0
  1  6  1  0  0  0  0
  2  1  2  0  0  0  0
  3  2  1  0  0  0  0
  3  4  2  0  0  0  0
  4  5  1  0  0  0  0
  5  6  2  0  0  0  0
  5 10  1  0  0  0  0
  6 22  1  0  0  0  0
  7  2  1  0  0  0  0
  8  3  1  0  0  0  0
  9  4  1  0  0  0  0
 11 12  1  0  0  0  0
 11 18  1  0  0  0  0
 12 19  1  0  0  0  0
 13 12  2  0  0  0  0
 14 13  1  0  0  0  0
 15 14  2  0  0  0  0
 15 16  1  0  0  0  0
 16 11  2  0  0  0  0
 17 21  1  0  0  0  0
 17 15  1  0  0  0  0
 20 17  1  0  0  0  0
 22 23  1  0  0  0  0
 22 27  1  0  0  0  0
 23 24  1  0  0  0  0
 24 25  1  0  0  0  0
 26 25  1  0  0  0  0
 27 26  1  0  0  0  0
M  END
>  <minimizedAffinity>
-5.5395155

$$$$

 OpenBabel03252505353D

 27 29  0  0  0  0  0  0  0  0999 V2000
   37.6710   29.1620   41.4970 C   0  0  0  0  0  0  0  0  0  0  0  0
   36.5330   28.4720   41.8590 C   0  0  0  0  0  0  0  0  0  0  0  0
   36.5200   27.5910   42.9450 C   0  0  0  0  0  0  0  0  0  0  0  0
   37.6770   27.4030   43.6790 C   0  0  0  0  0  0  0  0  0  0  0  0
   38.7890   28.1010   43.2940 C   0  0  0  0  0  0  0  0  0  0  0  0
   38.8370   28.9790   42.2270 C   0  0  0  0  0  0  0  0  0  0  0  0
   35.6120   28.6080   41.2920 H   0  0  0  0  0  0  0  0  0  0  0  0
   35.5900   27.0950   43.1560 H   0  0  0  0  0  0  0  0  0  0  0  0
   37.6720   26.7230   44.5210 H   0  0  0  0  0  0  0  0  0  0  0  0
   39.6650   27.9130   43.8990 H   0  0  0  0  0  0  0  0  0  0  0  0
   37.6360   30.5840   38.0070 C   0  0  0  0  0  0  0  0  0  0  0  0
   37.7520   29.6290   39.0360 C   0  0  0  0  0  0  0  0  0  0  0  0
   37.5750   30.0510   40.3590 C   0  0  0  0  0  0  0  0  0  0  0  0
   37.3040   31.3490   40.5910 N   0  0  0  0  0  0  0  0  0  0  0  0
   37.2010   32.2440   39.5600 C   0  0  0  0  0  0  0  0  0  0  0  0
   37.3680   31.8490   38.2770 N   0  0  0  0  0  0  0  0  0  0  0  0
   36.9160   33.6140   39.8040 N   0  0  0  0  0  0  0  0  0  0  0  0
   37.7810   30.2160   36.9910 H   0  0  0  0  0  0  0  0  0  0  0  0
   37.9650   28.5920   38.9060 H   0  0  0  0  0  0  0  0  0  0  0  0
   37.4600   34.0080   40.5790 H   0  0  0  0  0  0  0  0  0  0  0  0
   36.2100   34.0940   39.2060 H   0  0  0  0  0  0  0  0  0  0  0  0
   40.0570   29.7220   41.8200 C   0  0  0  0  0  3  0  0  0  0  0  0
   41.1670   28.7020   41.7510 C   0  0  0  0  0  2  0  0  0  0  0  0
   42.5420   29.2900   41.6790 C   0  0  0  0  0  2  0  0  0  0  0  0
   42.7390   30.2470   42.8340 C   0  0  0  0  0  2  0  0  0  0  0  0
   41.7060   31.3150   42.8860 C   0  0  0  0  0  2  0  0  0  0  0  0
   40.2810   30.8410   42.7690 C   0  0  0  0  0  2  0  0  0  0  0  0
  1  2  2  0  0  0  0
  1  6  1  0  0  0  0
  2  3  1  0  0  0  0
  3  8  1  0  0  0  0
  3  4  2  0  0  0  0
  4  9  1  0  0  0  0
  5  4  1  0  0  0  0
  5 10  1  0  0  0  0
  6  5  2  0  0  0  0
  7  2  1  0  0  0  0
 11 16  2  0  0  0  0
 11 12  1  0  0  0  0
 12 13  2  0  0  0  0
 13 14  1  0  0  0  0
 13  1  1  0  0  0  0
 15 17  1  0  0  0  0
 15 14  2  0  0  0  0
 16 15  1  0  0  0  0
 17 20  1  0  0  0  0
 18 11  1  0  0  0  0
 19 12  1  0  0  0  0
 21 17  1  0  0  0  0
 22  6  1  0  0  0  0
 22 27  1  0  0  0  0
 23 22  1  0  0  0  0
 24 23  1  0  0  0  0
 24 25  1  0  0  0  0
 25 26  1  0  0  0  0
 27 26  1  0  0  0  0
M  END
>  <minimizedAffinity>
-5.49941444

$$$$

 OpenBabel03252505353D

 27 29  0  0  0  0  0  0  0  0999 V2000
   37.3610   30.2000   39.0950 C   0  0  0  0  0  0  0  0  0  0  0  0
   36.5960   30.2650   37.9490 C   0  0  0  0  0  0  0  0  0  0  0  0
   35.5950   29.3260   37.6770 C   0  0  0  0  0  0  0  0  0  0  0  0
   35.3630   28.3030   38.5790 C   0  0  0  0  0  0  0  0  0  0  0  0
   36.1390   28.2670   39.7060 C   0  0  0  0  0  0  0  0  0  0  0  0
   37.1350   29.1780   40.0050 C   0  0  0  0  0  0  0  0  0  0  0  0
   36.7650   31.0640   37.2270 H   0  0  0  0  0  0  0  0  0  0  0  0
   35.0480   29.4520   36.7610 H   0  0  0  0  0  0  0  0  0  0  0  0
   34.5900   27.5740   38.3740 H   0  0  0  0  0  0  0  0  0  0  0  0
   35.9190   27.4450   40.3720 H   0  0  0  0  0  0  0  0  0  0  0  0
   40.4630   32.3210   38.8080 C   0  0  0  0  0  0  0  0  0  0  0  0
   39.5540   31.2780   38.5410 C   0  0  0  0  0  0  0  0  0  0  0  0
   38.3670   31.2240   39.2800 C   0  0  0  0  0  0  0  0  0  0  0  0
   38.1450   32.1680   40.2140 N   0  0  0  0  0  0  0  0  0  0  0  0
   39.0560   33.1640   40.4410 C   0  0  0  0  0  0  0  0  0  0  0  0
   40.2070   33.2290   39.7330 N   0  0  0  0  0  0  0  0  0  0  0  0
   38.8240   34.1610   41.4270 N   0  0  0  0  0  0  0  0  0  0  0  0
   41.3760   32.3280   38.2110 H   0  0  0  0  0  0  0  0  0  0  0  0
   39.6820   30.5070   37.8150 H   0  0  0  0  0  0  0  0  0  0  0  0
   38.4680   33.7800   42.3100 H   0  0  0  0  0  0  0  0  0  0  0  0
   39.0220   35.1560   41.1900 H   0  0  0  0  0  0  0  0  0  0  0  0
   37.9720   29.1160   41.2300 C   0  0  0  0  0  3  0  0  0  0  0  0
   38.9060   27.9450   41.0430 C   0  0  0  0  0  2  0  0  0  0  0  0
   39.6070   27.5090   42.2920 C   0  0  0  0  0  2  0  0  0  0  0  0
   38.5820   27.2340   43.3710 C   0  0  0  0  0  2  0  0  0  0  0  0
   37.6950   28.3960   43.6380 C   0  0  0  0  0  2  0  0  0  0  0  0
   37.0870   29.0380   42.4180 C   0  0  0  0  0  2  0  0  0  0  0  0
  1 13  1  0  0  0  0
  1  6  1  0  0  0  0
  2  1  2  0  0  0  0
  3  2  1  0  0  0  0
  3  4  2  0  0  0  0
  4  5  1  0  0  0  0
  5  6  2  0  0  0  0
  5 10  1  0  0  0  0
  6 22  1  0  0  0  0
  7  2  1  0  0  0  0
  8  3  1  0  0  0  0
  9  4  1  0  0  0  0
 11 16  1  0  0  0  0
 12 11  2  0  0  0  0
 12 13  1  0  0  0  0
 13 14  2  0  0  0  0
 14 15  1  0  0  0  0
 15 17  1  0  0  0  0
 16 15  2  0  0  0  0
 17 20  1  0  0  0  0
 18 11  1  0  0  0  0
 19 12  1  0  0  0  0
 21 17  1  0  0  0  0
 22 27  1  0  0  0  0
 23 22  1  0  0  0  0
 23 24  1  0  0  0  0
 24 25  1  0  0  0  0
 25 26  1  0  0  0  0
 27 26  1  0  0  0  0
M  END
>  <minimizedAffinity>
-5.46321774

$$$$

 OpenBabel03252505353D

 27 29  0  0  0  0  0  0  0  0999 V2000
   36.5840   28.6100   41.1690 C   0  0  0  0  0  0  0  0  0  0  0  0
   36.3950   27.7220   42.2080 C   0  0  0  0  0  0  0  0  0  0  0  0
   37.1060   27.8280   43.4070 C   0  0  0  0  0  0  0  0  0  0  0  0
   38.0270   28.8500   43.5600 C   0  0  0  0  0  0  0  0  0  0  0  0
   38.1920   29.7130   42.5120 C   0  0  0  0  0  0  0  0  0  0  0  0
   37.5050   29.6370   41.3140 C   0  0  0  0  0  0  0  0  0  0  0  0
   35.6730   26.9110   42.1050 H   0  0  0  0  0  0  0  0  0  0  0  0
   36.8960   27.0940   44.1620 H   0  0  0  0  0  0  0  0  0  0  0  0
   38.5800   28.9370   44.4860 H   0  0  0  0  0  0  0  0  0  0  0  0
   38.9260   30.4870   42.6830 H   0  0  0  0  0  0  0  0  0  0  0  0
   33.9350   28.8510   38.5000 C   0  0  0  0  0  0  0  0  0  0  0  0
   34.6250   29.1300   39.6960 C   0  0  0  0  0  0  0  0  0  0  0  0
   35.7930   28.4120   39.9740 C   0  0  0  0  0  0  0  0  0  0  0  0
   36.2070   27.4860   39.0870 N   0  0  0  0  0  0  0  0  0  0  0  0
   35.5050   27.2470   37.9370 C   0  0  0  0  0  0  0  0  0  0  0  0
   34.3740   27.9350   37.6560 N   0  0  0  0  0  0  0  0  0  0  0  0
   35.9400   26.2700   37.0010 N   0  0  0  0  0  0  0  0  0  0  0  0
   33.0290   29.4320   38.3200 H   0  0  0  0  0  0  0  0  0  0  0  0
   34.3400   29.8510   40.4290 H   0  0  0  0  0  0  0  0  0  0  0  0
   36.2330   25.3920   37.4420 H   0  0  0  0  0  0  0  0  0  0  0  0
   35.9300   26.5070   35.9860 H   0  0  0  0  0  0  0  0  0  0  0  0
   37.7050   30.5800   40.1840 C   0  0  0  0  0  3  0  0  0  0  0  0
   39.1970   30.6930   39.9880 C   0  0  0  0  0  2  0  0  0  0  0  0
   39.6220   31.8360   39.1210 C   0  0  0  0  0  2  0  0  0  0  0  0
   39.0350   33.1210   39.6640 C   0  0  0  0  0  2  0  0  0  0  0  0
   37.5550   33.0740   39.7940 C   0  0  0  0  0  2  0  0  0  0  0  0
   37.0070   31.8540   40.4870 C   0  0  0  0  0  2  0  0  0  0  0  0
  1  6  2  0  0  0  0
  1  2  1  0  0  0  0
  2  3  2  0  0  0  0
  3  4  1  0  0  0  0
  3  8  1  0  0  0  0
  4  9  1  0  0  0  0
  5 10  1  0  0  0  0
  5  4  2  0  0  0  0
  6  5  1  0  0  0  0
  7  2  1  0  0  0  0
 11 12  1  0  0  0  0
 12 13  2  0  0  0  0
 12 19  1  0  0  0  0
 13  1  1  0  0  0  0
 14 13  1  0  0  0  0
 15 14  2  0  0  0  0
 16 15  1  0  0  0  0
 16 11  2  0  0  0  0
 17 20  1  0  0  0  0
 17 15  1  0  0  0  0
 18 11  1  0  0  0  0
 21 17  1  0  0  0  0
 22 27  1  0  0  0  0
 22  6  1  0  0  0  0
 23 22  1  0  0  0  0
 24 25  1  0  0  0  0
 24 23  1  0  0  0  0
 25 26  1  0  0  0  0
 26 27  1  0  0  0  0
M  END
>  <minimizedAffinity>
-5.35222578

$$$$

 OpenBabel03252505353D

 27 29  0  0  0  0  0  0  0  0999 V2000
   37.7970   30.6240   40.4300 C   0  0  0  0  0  0  0  0  0  0  0  0
   38.4260   31.7200   40.9830 C   0  0  0  0  0  0  0  0  0  0  0  0
   38.3360   32.9900   40.4050 C   0  0  0  0  0  0  0  0  0  0  0  0
   37.5990   33.1570   39.2460 C   0  0  0  0  0  0  0  0  0  0  0  0
   36.9880   32.0500   38.7220 C   0  0  0  0  0  0  0  0  0  0  0  0
   37.0560   30.7810   39.2680 C   0  0  0  0  0  0  0  0  0  0  0  0
   39.0110   31.6070   41.8960 H   0  0  0  0  0  0  0  0  0  0  0  0
   38.8570   33.7870   40.9020 H   0  0  0  0  0  0  0  0  0  0  0  0
   37.5260   34.1370   38.7950 H   0  0  0  0  0  0  0  0  0  0  0  0
   36.4310   32.2360   37.8150 H   0  0  0  0  0  0  0  0  0  0  0  0
   39.0560   27.2630   41.5810 C   0  0  0  0  0  0  0  0  0  0  0  0
   39.0070   28.4710   40.8580 C   0  0  0  0  0  0  0  0  0  0  0  0
   37.9520   29.3560   41.1100 C   0  0  0  0  0  0  0  0  0  0  0  0
   37.0300   29.0140   42.0300 N   0  0  0  0  0  0  0  0  0  0  0  0
   37.1160   27.8300   42.7100 C   0  0  0  0  0  0  0  0  0  0  0  0
   38.1300   26.9650   42.4760 N   0  0  0  0  0  0  0  0  0  0  0  0
   36.1430   27.4670   43.6800 N   0  0  0  0  0  0  0  0  0  0  0  0
   39.8930   26.6010   41.3560 H   0  0  0  0  0  0  0  0  0  0  0  0
   39.7100   28.7880   40.1210 H   0  0  0  0  0  0  0  0  0  0  0  0
   35.1800   27.6460   43.3730 H   0  0  0  0  0  0  0  0  0  0  0  0
   36.4630   27.0670   44.5870 H   0  0  0  0  0  0  0  0  0  0  0  0
   36.3930   29.5910   38.6780 C   0  0  0  0  0  3  0  0  0  0  0  0
   36.5620   29.7100   37.1840 C   0  0  0  0  0  2  0  0  0  0  0  0
   35.6900   28.7900   36.3870 C   0  0  0  0  0  2  0  0  0  0  0  0
   34.2470   28.9870   36.8000 C   0  0  0  0  0  2  0  0  0  0  0  0
   34.0290   28.7960   38.2570 C   0  0  0  0  0  2  0  0  0  0  0  0
   34.9890   29.5330   39.1550 C   0  0  0  0  0  2  0  0  0  0  0  0
  1  2  1  0  0  0  0
  1 13  1  0  0  0  0
  2  7  1  0  0  0  0
  3  8  1  0  0  0  0
  3  2  2  0  0  0  0
  4  3  1  0  0  0  0
  5  4  2  0  0  0  0
  5  6  1  0  0  0  0
  6  1  2  0  0  0  0
  9  4  1  0  0  0  0
 10  5  1  0  0  0  0
 11 16  1  0  0  0  0
 12 13  1  0  0  0  0
 12 11  2  0  0  0  0
 13 14  2  0  0  0  0
 14 15  1  0  0  0  0
 15 17  1  0  0  0  0
 16 15  2  0  0  0  0
 17 21  1  0  0  0  0
 18 11  1  0  0  0  0
 19 12  1  0  0  0  0
 20 17  1  0  0  0  0
 22 27  1  0  0  0  0
 22  6  1  0  0  0  0
 23 22  1  0  0  0  0
 24 25  1  0  0  0  0
 24 23  1  0  0  0  0
 25 26  1  0  0  0  0
 26 27  1  0  0  0  0
M  END
>  <minimizedAffinity>
-5.29288292

$$$$

 OpenBabel03252505353D

 27 29  0  0  0  0  0  0  0  0999 V2000
   39.3550   27.6460   41.9540 C   0  0  0  0  0  0  0  0  0  0  0  0
   40.3060   28.1370   42.8230 C   0  0  0  0  0  0  0  0  0  0  0  0
   41.0270   27.2970   43.6780 C   0  0  0  0  0  0  0  0  0  0  0  0
   40.7810   25.9350   43.6550 C   0  0  0  0  0  0  0  0  0  0  0  0
   39.8320   25.4800   42.7820 C   0  0  0  0  0  0  0  0  0  0  0  0
   39.1020   26.2820   41.9240 C   0  0  0  0  0  0  0  0  0  0  0  0
   40.5130   29.2070   42.8550 H   0  0  0  0  0  0  0  0  0  0  0  0
   41.7490   27.7630   44.3230 H   0  0  0  0  0  0  0  0  0  0  0  0
   41.3360   25.2800   44.3140 H   0  0  0  0  0  0  0  0  0  0  0  0
   39.6770   24.4110   42.8090 H   0  0  0  0  0  0  0  0  0  0  0  0
   38.3470   29.8750   39.0870 C   0  0  0  0  0  0  0  0  0  0  0  0
   39.0920   28.9280   39.8170 C   0  0  0  0  0  0  0  0  0  0  0  0
   38.6690   28.6020   41.1110 C   0  0  0  0  0  0  0  0  0  0  0  0
   37.5710   29.2060   41.6020 N   0  0  0  0  0  0  0  0  0  0  0  0
   36.8760   30.1210   40.8580 C   0  0  0  0  0  0  0  0  0  0  0  0
   37.2730   30.4450   39.6060 N   0  0  0  0  0  0  0  0  0  0  0  0
   35.7170   30.7600   41.3750 N   0  0  0  0  0  0  0  0  0  0  0  0
   38.7090   30.1020   38.0840 H   0  0  0  0  0  0  0  0  0  0  0  0
   39.9670   28.4230   39.4750 H   0  0  0  0  0  0  0  0  0  0  0  0
   35.8320   31.0830   42.3420 H   0  0  0  0  0  0  0  0  0  0  0  0
   34.8780   30.8480   40.7640 H   0  0  0  0  0  0  0  0  0  0  0  0
   38.0680   25.7690   40.9890 C   0  0  0  0  0  3  0  0  0  0  0  0
   37.1730   24.8690   41.8050 C   0  0  0  0  0  2  0  0  0  0  0  0
   36.2670   23.9970   40.9910 C   0  0  0  0  0  2  0  0  0  0  0  0
   37.0930   23.2070   39.9980 C   0  0  0  0  0  2  0  0  0  0  0  0
   37.9280   24.0690   39.1220 C   0  0  0  0  0  2  0  0  0  0  0  0
   38.7390   25.1200   39.8350 C   0  0  0  0  0  2  0  0  0  0  0  0
  1  2  1  0  0  0  0
  2  7  1  0  0  0  0
  2  3  2  0  0  0  0
  3  8  1  0  0  0  0
  4  3  1  0  0  0  0
  4  9  1  0  0  0  0
  5 10  1  0  0  0  0
  5  4  2  0  0  0  0
  6  1  2  0  0  0  0
  6  5  1  0  0  0  0
 11 16  2  0  0  0  0
 11 12  1  0  0  0  0
 12 13  2  0  0  0  0
 13 14  1  0  0  0  0
 13  1  1  0  0  0  0
 15 17  1  0  0  0  0
 15 14  2  0  0  0  0
 16 15  1  0  0  0  0
 17 20  1  0  0  0  0
 18 11  1  0  0  0  0
 19 12  1  0  0  0  0
 21 17  1  0  0  0  0
 22 23  1  0  0  0  0
 22  6  1  0  0  0  0
 24 23  1  0  0  0  0
 25 24  1  0  0  0  0
 26 27  1  0  0  0  0
 26 25  1  0  0  0  0
 27 22  1  0  0  0  0
M  END
>  <minimizedAffinity>
-5.28870249

$$$$

 OpenBabel03252505353D

 27 29  0  0  0  0  0  0  0  0999 V2000
   37.2710   31.0600   39.1190 C   0  0  0  0  0  0  0  0  0  0  0  0
   37.2310   32.3980   38.7870 C   0  0  0  0  0  0  0  0  0  0  0  0
   37.8010   33.3780   39.6060 C   0  0  0  0  0  0  0  0  0  0  0  0
   38.4230   32.9990   40.7830 C   0  0  0  0  0  0  0  0  0  0  0  0
   38.4460   31.6640   41.0830 C   0  0  0  0  0  0  0  0  0  0  0  0
   37.8920   30.6710   40.2970 C   0  0  0  0  0  0  0  0  0  0  0  0
   36.7450   32.7140   37.8640 H   0  0  0  0  0  0  0  0  0  0  0  0
   37.7240   34.3950   39.2710 H   0  0  0  0  0  0  0  0  0  0  0  0
   38.8660   33.7530   41.4200 H   0  0  0  0  0  0  0  0  0  0  0  0
   38.9390   31.4260   42.0150 H   0  0  0  0  0  0  0  0  0  0  0  0
   34.8940   28.6560   37.4520 C   0  0  0  0  0  0  0  0  0  0  0  0
   35.3970   29.5510   38.4170 C   0  0  0  0  0  0  0  0  0  0  0  0
   36.6530   30.1290   38.1990 C   0  0  0  0  0  0  0  0  0  0  0  0
   37.3270   29.8030   37.0800 N   0  0  0  0  0  0  0  0  0  0  0  0
   36.8010   28.9280   36.1690 C   0  0  0  0  0  0  0  0  0  0  0  0
   35.5880   28.3630   36.3660 N   0  0  0  0  0  0  0  0  0  0  0  0
   37.5120   28.5830   34.9870 N   0  0  0  0  0  0  0  0  0  0  0  0
   33.9130   28.2280   37.6590 H   0  0  0  0  0  0  0  0  0  0  0  0
   34.9050   29.8410   39.3180 H   0  0  0  0  0  0  0  0  0  0  0  0
   38.5040   28.3850   35.1570 H   0  0  0  0  0  0  0  0  0  0  0  0
   36.9970   28.5570   34.0820 H   0  0  0  0  0  0  0  0  0  0  0  0
   37.9200   29.2280   40.6460 C   0  0  0  0  0  3  0  0  0  0  0  0
   36.9230   29.0450   41.7640 C   0  0  0  0  0  2  0  0  0  0  0  0
   37.0320   27.7360   42.4810 C   0  0  0  0  0  2  0  0  0  0  0  0
   38.4530   27.5480   42.9670 C   0  0  0  0  0  2  0  0  0  0  0  0
   39.4570   27.6410   41.8760 C   0  0  0  0  0  2  0  0  0  0  0  0
   39.3140   28.8340   40.9680 C   0  0  0  0  0  2  0  0  0  0  0  0
  1  6  1  0  0  0  0
  2  1  2  0  0  0  0
  2  3  1  0  0  0  0
  3  4  2  0  0  0  0
  4  5  1  0  0  0  0
  4  9  1  0  0  0  0
  5 10  1  0  0  0  0
  6 22  1  0  0  0  0
  6  5  2  0  0  0  0
  7  2  1  0  0  0  0
  8  3  1  0  0  0  0
 11 18  1  0  0  0  0
 11 12  1  0  0  0  0
 12 19  1  0  0  0  0
 13 12  2  0  0  0  0
 13  1  1  0  0  0  0
 14 13  1  0  0  0  0
 15 16  1  0  0  0  0
 15 14  2  0  0  0  0
 16 11  2  0  0  0  0
 17 20  1  0  0  0  0
 17 15  1  0  0  0  0
 21 17  1  0  0  0  0
 22 27  1  0  0  0  0
 22 23  1  0  0  0  0
 23 24  1  0  0  0  0
 24 25  1  0  0  0  0
 26 25  1  0  0  0  0
 27 26  1  0  0  0  0
M  END
>  <minimizedAffinity>
-5.26867533

$$$$

 OpenBabel03252505353D

 27 29  0  0  0  0  0  0  0  0999 V2000
   38.5110   31.2990   40.7980 C   0  0  0  0  0  0  0  0  0  0  0  0
   39.1390   32.4790   41.1380 C   0  0  0  0  0  0  0  0  0  0  0  0
   38.7330   33.7090   40.6110 C   0  0  0  0  0  0  0  0  0  0  0  0
   37.6730   33.7480   39.7230 C   0  0  0  0  0  0  0  0  0  0  0  0
   37.0710   32.5610   39.4050 C   0  0  0  0  0  0  0  0  0  0  0  0
   37.4470   31.3290   39.9080 C   0  0  0  0  0  0  0  0  0  0  0  0
   39.9760   32.4660   41.8360 H   0  0  0  0  0  0  0  0  0  0  0  0
   39.2780   34.5770   40.9300 H   0  0  0  0  0  0  0  0  0  0  0  0
   37.3540   34.6970   39.3120 H   0  0  0  0  0  0  0  0  0  0  0  0
   36.2530   32.6490   38.7050 H   0  0  0  0  0  0  0  0  0  0  0  0
   39.0990   28.3890   43.1190 C   0  0  0  0  0  0  0  0  0  0  0  0
   38.5390   29.5830   42.6240 C   0  0  0  0  0  0  0  0  0  0  0  0
   39.0090   30.0830   41.4030 C   0  0  0  0  0  0  0  0  0  0  0  0
   39.9730   29.4020   40.7570 N   0  0  0  0  0  0  0  0  0  0  0  0
   40.4890   28.2450   41.2740 C   0  0  0  0  0  0  0  0  0  0  0  0
   40.0450   27.7500   42.4530 N   0  0  0  0  0  0  0  0  0  0  0  0
   41.5080   27.5260   40.5930 N   0  0  0  0  0  0  0  0  0  0  0  0
   38.7070   28.0330   44.0730 H   0  0  0  0  0  0  0  0  0  0  0  0
   37.7760   30.1590   43.0970 H   0  0  0  0  0  0  0  0  0  0  0  0
   42.2530   28.1300   40.2280 H   0  0  0  0  0  0  0  0  0  0  0  0
   41.4270   26.4900   40.5180 H   0  0  0  0  0  0  0  0  0  0  0  0
   36.7860   30.0500   39.5430 C   0  0  0  0  0  3  0  0  0  0  0  0
   36.5840   30.0910   38.0490 C   0  0  0  0  0  2  0  0  0  0  0  0
   35.6450   29.0500   37.5240 C   0  0  0  0  0  2  0  0  0  0  0  0
   34.3280   29.1440   38.2650 C   0  0  0  0  0  2  0  0  0  0  0  0
   34.4820   29.0260   39.7380 C   0  0  0  0  0  2  0  0  0  0  0  0
   35.5480   29.8990   40.3480 C   0  0  0  0  0  2  0  0  0  0  0  0
  1  2  1  0  0  0  0
  1 13  1  0  0  0  0
  2  7  1  0  0  0  0
  3  8  1  0  0  0  0
  3  2  2  0  0  0  0
  4  3  1  0  0  0  0
  5  4  2  0  0  0  0
  5  6  1  0  0  0  0
  6  1  2  0  0  0  0
  9  4  1  0  0  0  0
 10  5  1  0  0  0  0
 11 18  1  0  0  0  0
 12 19  1  0  0  0  0
 12 11  1  0  0  0  0
 13 12  2  0  0  0  0
 14 15  2  0  0  0  0
 14 13  1  0  0  0  0
 15 16  1  0  0  0  0
 16 11  2  0  0  0  0
 17 15  1  0  0  0  0
 20 17  1  0  0  0  0
 21 17  1  0  0  0  0
 22  6  1  0  0  0  0
 22 27  1  0  0  0  0
 23 22  1  0  0  0  0
 24 23  1  0  0  0  0
 24 25  1  0  0  0  0
 25 26  1  0  0  0  0
 26 27  1  0  0  0  0
M  END
>  <minimizedAffinity>
-5.25375414

$$$$
