
 OpenBabel03242515543D

 33 36  0  0  0  0  0  0  0  0999 V2000
   37.5580   29.2790   41.1060 C   0  0  0  0  0  0  0  0  0  0  0  0
   37.8230   29.5710   42.4530 C   0  0  0  0  0  0  0  0  0  0  0  0
   37.8090   28.6180   43.4600 C   0  0  0  0  0  0  0  0  0  0  0  0
   37.5330   27.3270   43.1800 C   0  0  0  0  0  0  0  0  0  0  0  0
   37.2570   26.9860   41.8630 C   0  0  0  0  0  0  0  0  0  0  0  0
   36.9860   25.6690   41.6170 C   0  0  0  0  0  0  0  0  0  0  0  0
   36.6950   25.2920   40.3120 C   0  0  0  0  0  0  0  0  0  0  0  0
   36.6830   26.2500   39.3480 C   0  0  0  0  0  0  0  0  0  0  0  0
   36.9610   27.5470   39.6610 C   0  0  0  0  0  0  0  0  0  0  0  0
   37.2700   27.9630   40.8910 C   0  0  0  0  0  0  0  0  0  0  0  0
   38.0530   30.5960   42.7320 H   0  0  0  0  0  0  0  0  0  0  0  0
   38.0230   28.9210   44.4750 H   0  0  0  0  0  0  0  0  0  0  0  0
   37.5330   26.6060   43.9690 H   0  0  0  0  0  0  0  0  0  0  0  0
   37.0080   24.9500   42.4570 H   0  0  0  0  0  0  0  0  0  0  0  0
   36.5080   24.2170   40.2530 H   0  0  0  0  0  0  0  0  0  0  0  0
   36.4410   25.6750   38.4410 H   0  0  0  0  0  0  0  0  0  0  0  0
   39.6360   30.6400   38.5220 C   0  0  0  0  0  0  0  0  0  0  0  0
   38.8000   31.6140   37.8870 C   0  0  0  0  0  0  0  0  0  0  0  0
   37.4840   31.8450   38.3800 C   0  0  0  0  0  0  0  0  0  0  0  0
   37.1260   31.1070   39.4370 N   0  0  0  0  0  0  0  0  0  0  0  0
   37.8810   30.2120   40.0350 C   0  0  0  0  0  0  0  0  0  0  0  0
   39.1500   29.9670   39.5810 N   0  0  0  0  0  0  0  0  0  0  0  0
   40.6240   30.5010   38.1090 H   0  0  0  0  0  0  0  0  0  0  0  0
   36.8800   32.5600   37.9050 H   0  0  0  0  0  0  0  0  0  0  0  0
   39.3480   32.3260   36.7930 N   0  0  0  0  0  0  0  0  0  0  0  0
   39.4420   33.3660   36.7910 H   0  0  0  0  0  0  0  0  0  0  0  0
   39.6890   31.8410   35.9250 H   0  0  0  0  0  0  0  0  0  0  0  0
   36.5900   28.3710   38.4460 C   0  0  0  0  0  3  0  0  0  0  0  0
   36.9240   27.7330   37.1500 C   0  0  0  0  0  2  0  0  0  0  0  0
   36.4900   28.6390   36.0240 C   0  0  0  0  0  2  0  0  0  0  0  0
   34.9720   28.6380   35.9800 C   0  0  0  0  0  2  0  0  0  0  0  0
   34.4040   29.0040   37.3400 C   0  0  0  0  0  2  0  0  0  0  0  0
   35.0100   28.1470   38.4250 C   0  0  0  0  0  2  0  0  0  0  0  0
  1  2  1  0  0  0  0
  2 11  1  0  0  0  0
  2  3  2  0  0  0  0
  3 12  1  0  0  0  0
  4  3  1  0  0  0  0
  4 13  1  0  0  0  0
  5  4  2  0  0  0  0
  6  5  1  0  0  0  0
  6 14  1  0  0  0  0
  7  6  2  0  0  0  0
  8  9  2  0  0  0  0
  8  7  1  0  0  0  0
  9 10  1  0  0  0  0
 10  1  2  0  0  0  0
 10  5  1  0  0  0  0
 15  7  1  0  0  0  0
 16  8  1  0  0  0  0
 17 22  1  0  0  0  0
 18 19  1  0  0  0  0
 18 17  2  0  0  0  0
 19 20  2  0  0  0  0
 20 21  1  0  0  0  0
 21  1  1  0  0  0  0
 22 21  2  0  0  0  0
 23 17  1  0  0  0  0
 24 19  1  0  0  0  0
 25 18  1  0  0  0  0
 26 25  1  0  0  0  0
 27 25  1  0  0  0  0
 28  9  1  0  0  0  0
 29 28  1  0  0  0  0
 30 29  1  0  0  0  0
 31 30  1  0  0  0  0
 31 32  1  0  0  0  0
 32 33  1  0  0  0  0
 33 28  1  0  0  0  0
M  END
>  <minimizedAffinity>
-6.42806578

$$$$

 OpenBabel03242515543D

 33 36  0  0  0  0  0  0  0  0999 V2000
   37.0850   27.0740   39.7810 C   0  0  0  0  0  0  0  0  0  0  0  0
   37.0120   25.6770   39.6650 C   0  0  0  0  0  0  0  0  0  0  0  0
   36.9860   24.8180   40.7530 C   0  0  0  0  0  0  0  0  0  0  0  0
   37.0290   25.3040   42.0120 C   0  0  0  0  0  0  0  0  0  0  0  0
   37.1090   26.6790   42.1810 C   0  0  0  0  0  0  0  0  0  0  0  0
   37.1460   27.1330   43.4700 C   0  0  0  0  0  0  0  0  0  0  0  0
   37.2370   28.5030   43.6800 C   0  0  0  0  0  0  0  0  0  0  0  0
   37.2930   29.3230   42.5970 C   0  0  0  0  0  0  0  0  0  0  0  0
   37.2520   28.8040   41.3370 C   0  0  0  0  0  0  0  0  0  0  0  0
   37.1420   27.5000   41.0760 C   0  0  0  0  0  0  0  0  0  0  0  0
   36.9730   25.2340   38.6720 H   0  0  0  0  0  0  0  0  0  0  0  0
   36.9300   23.7520   40.5820 H   0  0  0  0  0  0  0  0  0  0  0  0
   37.0020   24.6260   42.8370 H   0  0  0  0  0  0  0  0  0  0  0  0
   37.1030   26.4030   44.2990 H   0  0  0  0  0  0  0  0  0  0  0  0
   37.2490   28.7310   44.7490 H   0  0  0  0  0  0  0  0  0  0  0  0
   37.3470   30.3230   43.0540 H   0  0  0  0  0  0  0  0  0  0  0  0
   37.8800   28.8210   36.7540 C   0  0  0  0  0  0  0  0  0  0  0  0
   36.6290   29.3870   36.3470 C   0  0  0  0  0  0  0  0  0  0  0  0
   35.4720   29.1980   37.1530 C   0  0  0  0  0  0  0  0  0  0  0  0
   35.6560   28.4830   38.2680 N   0  0  0  0  0  0  0  0  0  0  0  0
   36.7970   27.9590   38.6600 C   0  0  0  0  0  0  0  0  0  0  0  0
   37.9260   28.1220   37.9020 N   0  0  0  0  0  0  0  0  0  0  0  0
   38.7270   28.9900   36.1060 H   0  0  0  0  0  0  0  0  0  0  0  0
   34.5600   29.6170   36.8430 H   0  0  0  0  0  0  0  0  0  0  0  0
   36.6180   30.1390   35.1470 N   0  0  0  0  0  0  0  0  0  0  0  0
   36.3340   31.1450   35.1190 H   0  0  0  0  0  0  0  0  0  0  0  0
   36.8950   29.7240   34.2230 H   0  0  0  0  0  0  0  0  0  0  0  0
   37.6140   29.9330   40.3960 C   0  0  0  0  0  3  0  0  0  0  0  0
   36.7510   31.1320   40.5180 C   0  0  0  0  0  2  0  0  0  0  0  0
   37.2230   32.1860   39.5480 C   0  0  0  0  0  2  0  0  0  0  0  0
   38.5530   32.7200   40.0460 C   0  0  0  0  0  2  0  0  0  0  0  0
   39.5320   31.5800   40.2650 C   0  0  0  0  0  2  0  0  0  0  0  0
   38.9170   30.5000   41.1230 C   0  0  0  0  0  2  0  0  0  0  0  0
  1 10  1  0  0  0  0
  2  1  2  0  0  0  0
  2  3  1  0  0  0  0
  3  4  2  0  0  0  0
  4  5  1  0  0  0  0
  4 13  1  0  0  0  0
  5  6  1  0  0  0  0
  6  7  2  0  0  0  0
  6 14  1  0  0  0  0
  7 15  1  0  0  0  0
  8 16  1  0  0  0  0
  8  7  1  0  0  0  0
  9  8  2  0  0  0  0
 10  9  1  0  0  0  0
 10  5  2  0  0  0  0
 11  2  1  0  0  0  0
 12  3  1  0  0  0  0
 17 22  1  0  0  0  0
 18 17  2  0  0  0  0
 18 19  1  0  0  0  0
 19 20  2  0  0  0  0
 20 21  1  0  0  0  0
 21  1  1  0  0  0  0
 22 21  2  0  0  0  0
 23 17  1  0  0  0  0
 24 19  1  0  0  0  0
 25 18  1  0  0  0  0
 26 25  1  0  0  0  0
 27 25  1  0  0  0  0
 28 29  1  0  0  0  0
 28 33  1  0  0  0  0
 28  9  1  0  0  0  0
 30 31  1  0  0  0  0
 30 29  1  0  0  0  0
 31 32  1  0  0  0  0
 32 33  1  0  0  0  0
M  END
>  <minimizedAffinity>
-6.26454639

$$$$

 OpenBabel03242515543D

 33 36  0  0  0  0  0  0  0  0999 V2000
   37.4900   31.7430   40.2680 C   0  0  0  0  0  0  0  0  0  0  0  0
   37.4410   33.0940   39.8920 C   0  0  0  0  0  0  0  0  0  0  0  0
   38.4820   33.9860   40.1030 C   0  0  0  0  0  0  0  0  0  0  0  0
   39.6250   33.5790   40.6950 C   0  0  0  0  0  0  0  0  0  0  0  0
   39.7210   32.2530   41.0920 C   0  0  0  0  0  0  0  0  0  0  0  0
   40.8950   31.8780   41.6840 C   0  0  0  0  0  0  0  0  0  0  0  0
   41.0250   30.5600   42.1050 C   0  0  0  0  0  0  0  0  0  0  0  0
   39.9790   29.7130   41.9170 C   0  0  0  0  0  0  0  0  0  0  0  0
   38.8350   30.1520   41.3200 C   0  0  0  0  0  0  0  0  0  0  0  0
   38.6620   31.3990   40.8750 C   0  0  0  0  0  0  0  0  0  0  0  0
   36.5430   33.4720   39.4080 H   0  0  0  0  0  0  0  0  0  0  0  0
   38.3680   35.0130   39.7850 H   0  0  0  0  0  0  0  0  0  0  0  0
   40.4170   34.2800   40.8430 H   0  0  0  0  0  0  0  0  0  0  0  0
   41.6980   32.6280   41.8090 H   0  0  0  0  0  0  0  0  0  0  0  0
   42.0080   30.3920   42.5510 H   0  0  0  0  0  0  0  0  0  0  0  0
   40.3610   28.7640   42.3240 H   0  0  0  0  0  0  0  0  0  0  0  0
   36.2400   29.3720   37.8870 C   0  0  0  0  0  0  0  0  0  0  0  0
   35.1170   28.7810   38.5500 C   0  0  0  0  0  0  0  0  0  0  0  0
   34.7460   29.2300   39.8480 C   0  0  0  0  0  0  0  0  0  0  0  0
   35.5030   30.2080   40.3600 N   0  0  0  0  0  0  0  0  0  0  0  0
   36.5340   30.7650   39.7640 C   0  0  0  0  0  0  0  0  0  0  0  0
   36.9160   30.3500   38.5160 N   0  0  0  0  0  0  0  0  0  0  0  0
   36.4820   28.9940   36.9050 H   0  0  0  0  0  0  0  0  0  0  0  0
   33.9210   28.7880   40.3250 H   0  0  0  0  0  0  0  0  0  0  0  0
   34.4090   27.7720   37.8520 N   0  0  0  0  0  0  0  0  0  0  0  0
   33.3940   27.8580   37.6210 H   0  0  0  0  0  0  0  0  0  0  0  0
   34.8710   26.8850   37.5310 H   0  0  0  0  0  0  0  0  0  0  0  0
   37.8000   29.0650   41.5210 C   0  0  0  0  0  3  0  0  0  0  0  0
   38.2010   27.7370   41.0000 C   0  0  0  0  0  2  0  0  0  0  0  0
   37.1010   26.7420   41.2770 C   0  0  0  0  0  2  0  0  0  0  0  0
   37.0690   26.4830   42.7720 C   0  0  0  0  0  2  0  0  0  0  0  0
   36.9430   27.7910   43.5320 C   0  0  0  0  0  2  0  0  0  0  0  0
   37.9910   28.7800   43.0790 C   0  0  0  0  0  2  0  0  0  0  0  0
  1 10  1  0  0  0  0
  2  3  1  0  0  0  0
  2  1  2  0  0  0  0
  3  4  2  0  0  0  0
  4 13  1  0  0  0  0
  4  5  1  0  0  0  0
  5  6  1  0  0  0  0
  6 14  1  0  0  0  0
  6  7  2  0  0  0  0
  7 15  1  0  0  0  0
  8  7  1  0  0  0  0
  8 16  1  0  0  0  0
  9 28  1  0  0  0  0
  9  8  2  0  0  0  0
 10  5  2  0  0  0  0
 10  9  1  0  0  0  0
 11  2  1  0  0  0  0
 12  3  1  0  0  0  0
 17 22  2  0  0  0  0
 17 18  1  0  0  0  0
 18 19  2  0  0  0  0
 19 24  1  0  0  0  0
 19 20  1  0  0  0  0
 21  1  1  0  0  0  0
 21 20  2  0  0  0  0
 22 21  1  0  0  0  0
 23 17  1  0  0  0  0
 25 18  1  0  0  0  0
 26 25  1  0  0  0  0
 27 25  1  0  0  0  0
 28 33  1  0  0  0  0
 29 30  1  0  0  0  0
 29 28  1  0  0  0  0
 30 31  1  0  0  0  0
 31 32  1  0  0  0  0
 33 32  1  0  0  0  0
M  END
>  <minimizedAffinity>
-6.25121546

$$$$

 OpenBabel03242515543D

 33 36  0  0  0  0  0  0  0  0999 V2000
   36.2170   27.2070   39.0240 C   0  0  0  0  0  0  0  0  0  0  0  0
   35.4750   26.9250   37.8660 C   0  0  0  0  0  0  0  0  0  0  0  0
   35.0940   25.6450   37.4940 C   0  0  0  0  0  0  0  0  0  0  0  0
   35.4270   24.5810   38.2540 C   0  0  0  0  0  0  0  0  0  0  0  0
   36.1670   24.8050   39.4070 C   0  0  0  0  0  0  0  0  0  0  0  0
   36.4820   23.7040   40.1530 C   0  0  0  0  0  0  0  0  0  0  0  0
   37.2300   23.8880   41.3090 C   0  0  0  0  0  0  0  0  0  0  0  0
   37.6200   25.1480   41.6350 C   0  0  0  0  0  0  0  0  0  0  0  0
   37.2720   26.2030   40.8470 C   0  0  0  0  0  0  0  0  0  0  0  0
   36.5360   26.0900   39.7390 C   0  0  0  0  0  0  0  0  0  0  0  0
   35.1790   27.7480   37.2200 H   0  0  0  0  0  0  0  0  0  0  0  0
   34.5230   25.5090   36.5860 H   0  0  0  0  0  0  0  0  0  0  0  0
   35.1180   23.6030   37.9540 H   0  0  0  0  0  0  0  0  0  0  0  0
   36.1340   22.7090   39.8170 H   0  0  0  0  0  0  0  0  0  0  0  0
   37.4040   22.9330   41.8130 H   0  0  0  0  0  0  0  0  0  0  0  0
   38.1700   24.9930   42.5760 H   0  0  0  0  0  0  0  0  0  0  0  0
   37.4480   30.5730   39.0560 C   0  0  0  0  0  0  0  0  0  0  0  0
   36.6990   31.2020   40.1030 C   0  0  0  0  0  0  0  0  0  0  0  0
   35.7600   30.4410   40.8550 C   0  0  0  0  0  0  0  0  0  0  0  0
   35.6530   29.1530   40.5110 N   0  0  0  0  0  0  0  0  0  0  0  0
   36.3340   28.5580   39.5570 C   0  0  0  0  0  0  0  0  0  0  0  0
   37.2430   29.2660   38.8150 N   0  0  0  0  0  0  0  0  0  0  0  0
   38.1450   31.1940   38.5140 H   0  0  0  0  0  0  0  0  0  0  0  0
   35.2160   30.9140   41.6180 H   0  0  0  0  0  0  0  0  0  0  0  0
   36.9560   32.5720   40.3510 N   0  0  0  0  0  0  0  0  0  0  0  0
   37.2920   32.9200   41.2770 H   0  0  0  0  0  0  0  0  0  0  0  0
   36.8210   33.3090   39.6150 H   0  0  0  0  0  0  0  0  0  0  0  0
   38.0850   27.3860   41.3280 C   0  0  0  0  0  3  0  0  0  0  0  0
   38.0820   27.5720   42.7990 C   0  0  0  0  0  2  0  0  0  0  0  0
   38.9380   28.7630   43.1520 C   0  0  0  0  0  2  0  0  0  0  0  0
   40.3870   28.3900   42.8980 C   0  0  0  0  0  2  0  0  0  0  0  0
   40.5620   27.8850   41.4770 C   0  0  0  0  0  2  0  0  0  0  0  0
   39.5610   26.7990   41.1640 C   0  0  0  0  0  2  0  0  0  0  0  0
  1 21  1  0  0  0  0
  1 10  1  0  0  0  0
  2  1  2  0  0  0  0
  3  2  1  0  0  0  0
  3  4  2  0  0  0  0
  4  5  1  0  0  0  0
  5 10  2  0  0  0  0
  5  6  1  0  0  0  0
  6  7  2  0  0  0  0
  7  8  1  0  0  0  0
  7 15  1  0  0  0  0
  8 16  1  0  0  0  0
  9 28  1  0  0  0  0
  9  8  2  0  0  0  0
 10  9  1  0  0  0  0
 11  2  1  0  0  0  0
 12  3  1  0  0  0  0
 13  4  1  0  0  0  0
 14  6  1  0  0  0  0
 17 18  1  0  0  0  0
 18 25  1  0  0  0  0
 18 19  2  0  0  0  0
 19 24  1  0  0  0  0
 20 19  1  0  0  0  0
 21 20  2  0  0  0  0
 22 17  2  0  0  0  0
 22 21  1  0  0  0  0
 23 17  1  0  0  0  0
 25 26  1  0  0  0  0
 27 25  1  0  0  0  0
 28 29  1  0  0  0  0
 29 30  1  0  0  0  0
 31 30  1  0  0  0  0
 32 31  1  0  0  0  0
 33 28  1  0  0  0  0
 33 32  1  0  0  0  0
M  END
>  <minimizedAffinity>
-6.21116114

$$$$

 OpenBabel03242515543D

 33 36  0  0  0  0  0  0  0  0999 V2000
   39.4990   29.2500   41.2430 C   0  0  0  0  0  0  0  0  0  0  0  0
   40.2380   30.4310   41.0660 C   0  0  0  0  0  0  0  0  0  0  0  0
   39.6660   31.6480   40.7300 C   0  0  0  0  0  0  0  0  0  0  0  0
   38.3320   31.7550   40.5560 C   0  0  0  0  0  0  0  0  0  0  0  0
   37.5570   30.6150   40.7120 C   0  0  0  0  0  0  0  0  0  0  0  0
   36.2100   30.7630   40.5320 C   0  0  0  0  0  0  0  0  0  0  0  0
   35.4020   29.6410   40.6700 C   0  0  0  0  0  0  0  0  0  0  0  0
   35.9900   28.4520   40.9670 C   0  0  0  0  0  0  0  0  0  0  0  0
   37.3400   28.3730   41.1340 C   0  0  0  0  0  0  0  0  0  0  0  0
   38.1620   29.4210   41.0360 C   0  0  0  0  0  0  0  0  0  0  0  0
   41.3170   30.3990   41.1980 H   0  0  0  0  0  0  0  0  0  0  0  0
   40.3020   32.5140   40.6100 H   0  0  0  0  0  0  0  0  0  0  0  0
   37.9090   32.7040   40.3030 H   0  0  0  0  0  0  0  0  0  0  0  0
   35.8070   31.7630   40.2840 H   0  0  0  0  0  0  0  0  0  0  0  0
   34.3520   29.8980   40.5090 H   0  0  0  0  0  0  0  0  0  0  0  0
   35.1300   27.7670   41.0260 H   0  0  0  0  0  0  0  0  0  0  0  0
   41.4640   26.2550   41.3650 C   0  0  0  0  0  0  0  0  0  0  0  0
   41.4520   25.8930   42.7500 C   0  0  0  0  0  0  0  0  0  0  0  0
   40.7160   26.6810   43.6800 C   0  0  0  0  0  0  0  0  0  0  0  0
   40.0690   27.7310   43.1620 N   0  0  0  0  0  0  0  0  0  0  0  0
   40.0650   28.0750   41.8930 C   0  0  0  0  0  0  0  0  0  0  0  0
   40.7670   27.3380   40.9770 N   0  0  0  0  0  0  0  0  0  0  0  0
   42.0400   25.6270   40.7010 H   0  0  0  0  0  0  0  0  0  0  0  0
   40.7170   26.4060   44.6930 H   0  0  0  0  0  0  0  0  0  0  0  0
   42.1730   24.7330   43.1240 N   0  0  0  0  0  0  0  0  0  0  0  0
   41.7160   23.9130   43.5820 H   0  0  0  0  0  0  0  0  0  0  0  0
   43.2070   24.6400   42.9590 H   0  0  0  0  0  0  0  0  0  0  0  0
   37.6830   26.8990   41.1710 C   0  0  0  0  0  3  0  0  0  0  0  0
   37.0390   26.1490   42.2760 C   0  0  0  0  0  2  0  0  0  0  0  0
   37.4410   24.6970   42.1920 C   0  0  0  0  0  2  0  0  0  0  0  0
   36.7600   24.0910   40.9790 C   0  0  0  0  0  2  0  0  0  0  0  0
   37.0730   24.9060   39.7360 C   0  0  0  0  0  2  0  0  0  0  0  0
   36.7820   26.3700   39.9640 C   0  0  0  0  0  2  0  0  0  0  0  0
  1 21  1  0  0  0  0
  2 11  1  0  0  0  0
  2  1  1  0  0  0  0
  3  2  2  0  0  0  0
  4  5  2  0  0  0  0
  4  3  1  0  0  0  0
  5 10  1  0  0  0  0
  6  7  2  0  0  0  0
  6  5  1  0  0  0  0
  7  8  1  0  0  0  0
  8 16  1  0  0  0  0
  8  9  2  0  0  0  0
  9 28  1  0  0  0  0
 10  9  1  0  0  0  0
 10  1  2  0  0  0  0
 12  3  1  0  0  0  0
 13  4  1  0  0  0  0
 14  6  1  0  0  0  0
 15  7  1  0  0  0  0
 17 18  1  0  0  0  0
 18 25  1  0  0  0  0
 18 19  2  0  0  0  0
 19 24  1  0  0  0  0
 20 19  1  0  0  0  0
 21 20  2  0  0  0  0
 22 17  2  0  0  0  0
 22 21  1  0  0  0  0
 23 17  1  0  0  0  0
 25 26  1  0  0  0  0
 27 25  1  0  0  0  0
 28 29  1  0  0  0  0
 30 29  1  0  0  0  0
 31 30  1  0  0  0  0
 32 33  1  0  0  0  0
 32 31  1  0  0  0  0
 33 28  1  0  0  0  0
M  END
>  <minimizedAffinity>
-6.15709591

$$$$

 OpenBabel03242515543D

 33 36  0  0  0  0  0  0  0  0999 V2000
   36.7890   27.0970   40.9480 C   0  0  0  0  0  0  0  0  0  0  0  0
   37.0200   26.5970   42.2380 C   0  0  0  0  0  0  0  0  0  0  0  0
   37.1320   25.2460   42.5270 C   0  0  0  0  0  0  0  0  0  0  0  0
   37.0220   24.3230   41.5480 C   0  0  0  0  0  0  0  0  0  0  0  0
   36.7860   24.7660   40.2540 C   0  0  0  0  0  0  0  0  0  0  0  0
   36.6850   23.8030   39.2890 C   0  0  0  0  0  0  0  0  0  0  0  0
   36.4390   24.2070   37.9830 C   0  0  0  0  0  0  0  0  0  0  0  0
   36.3000   25.5350   37.7300 C   0  0  0  0  0  0  0  0  0  0  0  0
   36.4120   26.4440   38.7400 C   0  0  0  0  0  0  0  0  0  0  0  0
   36.6710   26.1160   40.0070 C   0  0  0  0  0  0  0  0  0  0  0  0
   37.1190   27.2990   43.0630 H   0  0  0  0  0  0  0  0  0  0  0  0
   37.3100   24.9380   43.5480 H   0  0  0  0  0  0  0  0  0  0  0  0
   37.1180   23.2870   41.7900 H   0  0  0  0  0  0  0  0  0  0  0  0
   36.8020   22.7410   39.5750 H   0  0  0  0  0  0  0  0  0  0  0  0
   36.3900   23.3440   37.3140 H   0  0  0  0  0  0  0  0  0  0  0  0
   36.1300   25.5560   36.6430 H   0  0  0  0  0  0  0  0  0  0  0  0
   35.8760   30.5630   40.8850 C   0  0  0  0  0  0  0  0  0  0  0  0
   37.0370   31.2130   40.3560 C   0  0  0  0  0  0  0  0  0  0  0  0
   38.1670   30.4380   39.9690 C   0  0  0  0  0  0  0  0  0  0  0  0
   38.0450   29.1170   40.1360 N   0  0  0  0  0  0  0  0  0  0  0  0
   36.9860   28.5020   40.6160 C   0  0  0  0  0  0  0  0  0  0  0  0
   35.8860   29.2230   40.9990 N   0  0  0  0  0  0  0  0  0  0  0  0
   35.0470   31.1960   41.1660 H   0  0  0  0  0  0  0  0  0  0  0  0
   39.0120   30.9270   39.5830 H   0  0  0  0  0  0  0  0  0  0  0  0
   36.9870   32.6230   40.2220 N   0  0  0  0  0  0  0  0  0  0  0  0
   37.1040   33.1030   39.3020 H   0  0  0  0  0  0  0  0  0  0  0  0
   36.8290   33.2570   41.0450 H   0  0  0  0  0  0  0  0  0  0  0  0
   35.9340   27.7670   38.1810 C   0  0  0  0  0  3  0  0  0  0  0  0
   36.5610   28.1490   36.8930 C   0  0  0  0  0  2  0  0  0  0  0  0
   35.9900   29.4680   36.4340 C   0  0  0  0  0  2  0  0  0  0  0  0
   34.5510   29.2350   36.0120 C   0  0  0  0  0  2  0  0  0  0  0  0
   33.7740   28.5660   37.1320 C   0  0  0  0  0  2  0  0  0  0  0  0
   34.4980   27.3390   37.6320 C   0  0  0  0  0  2  0  0  0  0  0  0
  1  2  1  0  0  0  0
  2  3  2  0  0  0  0
  2 11  1  0  0  0  0
  3 12  1  0  0  0  0
  4 13  1  0  0  0  0
  4  3  1  0  0  0  0
  5  4  2  0  0  0  0
  6 14  1  0  0  0  0
  6  5  1  0  0  0  0
  7  6  2  0  0  0  0
  8  7  1  0  0  0  0
  8  9  2  0  0  0  0
  9 10  1  0  0  0  0
 10  5  1  0  0  0  0
 10  1  2  0  0  0  0
 15  7  1  0  0  0  0
 16  8  1  0  0  0  0
 17 22  1  0  0  0  0
 17 23  1  0  0  0  0
 18 17  2  0  0  0  0
 19 20  2  0  0  0  0
 19 18  1  0  0  0  0
 20 21  1  0  0  0  0
 21  1  1  0  0  0  0
 21 22  2  0  0  0  0
 24 19  1  0  0  0  0
 25 18  1  0  0  0  0
 25 27  1  0  0  0  0
 26 25  1  0  0  0  0
 28  9  1  0  0  0  0
 29 28  1  0  0  0  0
 30 29  1  0  0  0  0
 31 30  1  0  0  0  0
 31 32  1  0  0  0  0
 32 33  1  0  0  0  0
 33 28  1  0  0  0  0
M  END
>  <minimizedAffinity>
-6.11694956

$$$$

 OpenBabel03242515543D

 33 36  0  0  0  0  0  0  0  0999 V2000
   37.2890   27.4860   39.8510 C   0  0  0  0  0  0  0  0  0  0  0  0
   36.4990   26.6960   39.0020 C   0  0  0  0  0  0  0  0  0  0  0  0
   36.2570   25.3470   39.2160 C   0  0  0  0  0  0  0  0  0  0  0  0
   36.7860   24.7170   40.2860 C   0  0  0  0  0  0  0  0  0  0  0  0
   37.5810   25.4520   41.1540 C   0  0  0  0  0  0  0  0  0  0  0  0
   38.0950   24.7800   42.2280 C   0  0  0  0  0  0  0  0  0  0  0  0
   38.9040   25.4810   43.1130 C   0  0  0  0  0  0  0  0  0  0  0  0
   39.1530   26.7930   42.8640 C   0  0  0  0  0  0  0  0  0  0  0  0
   38.6100   27.4030   41.7730 C   0  0  0  0  0  0  0  0  0  0  0  0
   37.8070   26.7870   40.9030 C   0  0  0  0  0  0  0  0  0  0  0  0
   36.0480   27.1560   38.1260 H   0  0  0  0  0  0  0  0  0  0  0  0
   35.6380   24.8050   38.5150 H   0  0  0  0  0  0  0  0  0  0  0  0
   36.5820   23.6780   40.4370 H   0  0  0  0  0  0  0  0  0  0  0  0
   37.8520   23.7090   42.3580 H   0  0  0  0  0  0  0  0  0  0  0  0
   39.2400   24.8320   43.9260 H   0  0  0  0  0  0  0  0  0  0  0  0
   39.7930   27.0820   43.7120 H   0  0  0  0  0  0  0  0  0  0  0  0
   36.1740   30.7530   40.8170 C   0  0  0  0  0  0  0  0  0  0  0  0
   37.0560   31.6370   40.1160 C   0  0  0  0  0  0  0  0  0  0  0  0
   38.0510   31.1020   39.2500 C   0  0  0  0  0  0  0  0  0  0  0  0
   38.0780   29.7680   39.1560 N   0  0  0  0  0  0  0  0  0  0  0  0
   37.2740   28.9410   39.7880 C   0  0  0  0  0  0  0  0  0  0  0  0
   36.3100   29.4280   40.6300 N   0  0  0  0  0  0  0  0  0  0  0  0
   35.4390   31.2070   41.4640 H   0  0  0  0  0  0  0  0  0  0  0  0
   38.6930   31.7610   38.7430 H   0  0  0  0  0  0  0  0  0  0  0  0
   36.8720   33.0270   40.3120 N   0  0  0  0  0  0  0  0  0  0  0  0
   36.6540   33.6800   39.5260 H   0  0  0  0  0  0  0  0  0  0  0  0
   36.9440   33.4730   41.2610 H   0  0  0  0  0  0  0  0  0  0  0  0
   39.2990   28.7440   41.6430 C   0  0  0  0  0  3  0  0  0  0  0  0
   39.1410   29.6310   42.8200 C   0  0  0  0  0  2  0  0  0  0  0  0
   39.8860   30.9200   42.5760 C   0  0  0  0  0  2  0  0  0  0  0  0
   41.3730   30.6180   42.6230 C   0  0  0  0  0  2  0  0  0  0  0  0
   41.7160   29.4980   41.6560 C   0  0  0  0  0  2  0  0  0  0  0  0
   40.8160   28.3050   41.8740 C   0  0  0  0  0  2  0  0  0  0  0  0
  1 10  1  0  0  0  0
  2  3  1  0  0  0  0
  2  1  2  0  0  0  0
  3  4  2  0  0  0  0
  4 13  1  0  0  0  0
  4  5  1  0  0  0  0
  5  6  1  0  0  0  0
  6 14  1  0  0  0  0
  6  7  2  0  0  0  0
  7 15  1  0  0  0  0
  8  7  1  0  0  0  0
  8 16  1  0  0  0  0
  9  8  2  0  0  0  0
 10  5  2  0  0  0  0
 10  9  1  0  0  0  0
 11  2  1  0  0  0  0
 12  3  1  0  0  0  0
 17 23  1  0  0  0  0
 18 25  1  0  0  0  0
 18 17  2  0  0  0  0
 19 18  1  0  0  0  0
 20 19  2  0  0  0  0
 20 21  1  0  0  0  0
 21  1  1  0  0  0  0
 21 22  2  0  0  0  0
 22 17  1  0  0  0  0
 24 19  1  0  0  0  0
 25 27  1  0  0  0  0
 26 25  1  0  0  0  0
 28  9  1  0  0  0  0
 28 33  1  0  0  0  0
 28 29  1  0  0  0  0
 30 31  1  0  0  0  0
 30 29  1  0  0  0  0
 32 33  1  0  0  0  0
 32 31  1  0  0  0  0
M  END
>  <minimizedAffinity>
-6.10880327

$$$$

 OpenBabel03242515543D

 33 36  0  0  0  0  0  0  0  0999 V2000
   37.6650   30.2740   40.1980 C   0  0  0  0  0  0  0  0  0  0  0  0
   36.5440   30.1630   39.3610 C   0  0  0  0  0  0  0  0  0  0  0  0
   35.4710   29.3260   39.6250 C   0  0  0  0  0  0  0  0  0  0  0  0
   35.4560   28.5590   40.7350 C   0  0  0  0  0  0  0  0  0  0  0  0
   36.5450   28.6260   41.5930 C   0  0  0  0  0  0  0  0  0  0  0  0
   36.4920   27.8380   42.7090 C   0  0  0  0  0  0  0  0  0  0  0  0
   37.5680   27.8710   43.5870 C   0  0  0  0  0  0  0  0  0  0  0  0
   38.6220   28.6750   43.2890 C   0  0  0  0  0  0  0  0  0  0  0  0
   38.6120   29.4360   42.1590 C   0  0  0  0  0  0  0  0  0  0  0  0
   37.5970   29.4620   41.2920 C   0  0  0  0  0  0  0  0  0  0  0  0
   36.5060   30.7620   38.4530 H   0  0  0  0  0  0  0  0  0  0  0  0
   34.6440   29.2950   38.9300 H   0  0  0  0  0  0  0  0  0  0  0  0
   34.6170   27.9250   40.9240 H   0  0  0  0  0  0  0  0  0  0  0  0
   35.6010   27.2040   42.8780 H   0  0  0  0  0  0  0  0  0  0  0  0
   37.3950   27.2050   44.4360 H   0  0  0  0  0  0  0  0  0  0  0  0
   39.2990   28.5100   44.1420 H   0  0  0  0  0  0  0  0  0  0  0  0
   40.4940   31.9510   38.7720 C   0  0  0  0  0  0  0  0  0  0  0  0
   40.4750   33.2420   39.3910 C   0  0  0  0  0  0  0  0  0  0  0  0
   39.4790   33.5450   40.3620 C   0  0  0  0  0  0  0  0  0  0  0  0
   38.6130   32.5610   40.6280 N   0  0  0  0  0  0  0  0  0  0  0  0
   38.6180   31.3690   40.0730 C   0  0  0  0  0  0  0  0  0  0  0  0
   39.5620   31.0510   39.1330 N   0  0  0  0  0  0  0  0  0  0  0  0
   41.2670   31.7720   38.0400 H   0  0  0  0  0  0  0  0  0  0  0  0
   39.4750   34.4960   40.8080 H   0  0  0  0  0  0  0  0  0  0  0  0
   41.4840   34.1600   39.0100 N   0  0  0  0  0  0  0  0  0  0  0  0
   42.1600   34.5650   39.6950 H   0  0  0  0  0  0  0  0  0  0  0  0
   41.6040   34.4780   38.0160 H   0  0  0  0  0  0  0  0  0  0  0  0
   40.0170   29.9760   41.9910 C   0  0  0  0  0  3  0  0  0  0  0  0
   40.4620   30.8710   43.0850 C   0  0  0  0  0  2  0  0  0  0  0  0
   41.8750   31.3240   42.8130 C   0  0  0  0  0  2  0  0  0  0  0  0
   42.7950   30.1310   43.0060 C   0  0  0  0  0  2  0  0  0  0  0  0
   42.3300   28.9630   42.1540 C   0  0  0  0  0  2  0  0  0  0  0  0
   40.8640   28.6810   42.3800 C   0  0  0  0  0  2  0  0  0  0  0  0
  1 10  1  0  0  0  0
  2  3  1  0  0  0  0
  2  1  2  0  0  0  0
  3  4  2  0  0  0  0
  4 13  1  0  0  0  0
  4  5  1  0  0  0  0
  5  6  1  0  0  0  0
  6 14  1  0  0  0  0
  6  7  2  0  0  0  0
  7 15  1  0  0  0  0
  8  7  1  0  0  0  0
  8 16  1  0  0  0  0
  9  8  2  0  0  0  0
 10  5  2  0  0  0  0
 10  9  1  0  0  0  0
 11  2  1  0  0  0  0
 12  3  1  0  0  0  0
 17 22  2  0  0  0  0
 17 18  1  0  0  0  0
 18 19  2  0  0  0  0
 19 20  1  0  0  0  0
 19 24  1  0  0  0  0
 21  1  1  0  0  0  0
 21 20  2  0  0  0  0
 22 21  1  0  0  0  0
 23 17  1  0  0  0  0
 25 18  1  0  0  0  0
 25 26  1  0  0  0  0
 27 25  1  0  0  0  0
 28  9  1  0  0  0  0
 28 33  1  0  0  0  0
 28 29  1  0  0  0  0
 30 31  1  0  0  0  0
 30 29  1  0  0  0  0
 32 33  1  0  0  0  0
 32 31  1  0  0  0  0
M  END
>  <minimizedAffinity>
-5.95191574

$$$$

 OpenBabel03242515543D

 33 36  0  0  0  0  0  0  0  0999 V2000
   39.3720   28.2980   41.2080 C   0  0  0  0  0  0  0  0  0  0  0  0
   40.3860   28.4580   42.1650 C   0  0  0  0  0  0  0  0  0  0  0  0
   40.6550   27.5290   43.1590 C   0  0  0  0  0  0  0  0  0  0  0  0
   39.9310   26.3940   43.2510 C   0  0  0  0  0  0  0  0  0  0  0  0
   38.9100   26.1910   42.3320 C   0  0  0  0  0  0  0  0  0  0  0  0
   38.2020   25.0280   42.4550 C   0  0  0  0  0  0  0  0  0  0  0  0
   37.1660   24.7940   41.5590 C   0  0  0  0  0  0  0  0  0  0  0  0
   36.9010   25.7350   40.6150 C   0  0  0  0  0  0  0  0  0  0  0  0
   37.6460   26.8740   40.5480 C   0  0  0  0  0  0  0  0  0  0  0  0
   38.6670   27.1410   41.3650 C   0  0  0  0  0  0  0  0  0  0  0  0
   41.0010   29.3550   42.1330 H   0  0  0  0  0  0  0  0  0  0  0  0
   41.4540   27.7250   43.8600 H   0  0  0  0  0  0  0  0  0  0  0  0
   40.1580   25.6880   44.0200 H   0  0  0  0  0  0  0  0  0  0  0  0
   38.4740   24.3150   43.2550 H   0  0  0  0  0  0  0  0  0  0  0  0
   36.6900   23.8310   41.7610 H   0  0  0  0  0  0  0  0  0  0  0  0
   36.0640   25.2870   40.0580 H   0  0  0  0  0  0  0  0  0  0  0  0
   38.7100   31.3030   39.3690 C   0  0  0  0  0  0  0  0  0  0  0  0
   39.2080   31.0180   38.0570 C   0  0  0  0  0  0  0  0  0  0  0  0
   39.7610   29.7380   37.7740 C   0  0  0  0  0  0  0  0  0  0  0  0
   39.7670   28.8720   38.7940 N   0  0  0  0  0  0  0  0  0  0  0  0
   39.3100   29.1150   40.0030 C   0  0  0  0  0  0  0  0  0  0  0  0
   38.7760   30.3390   40.3050 N   0  0  0  0  0  0  0  0  0  0  0  0
   38.3040   32.2900   39.5340 H   0  0  0  0  0  0  0  0  0  0  0  0
   40.1240   29.5420   36.8080 H   0  0  0  0  0  0  0  0  0  0  0  0
   39.1010   32.0430   37.0860 N   0  0  0  0  0  0  0  0  0  0  0  0
   38.5670   31.9190   36.1960 H   0  0  0  0  0  0  0  0  0  0  0  0
   39.5550   32.9820   37.2110 H   0  0  0  0  0  0  0  0  0  0  0  0
   36.9240   27.8050   39.5970 C   0  0  0  0  0  3  0  0  0  0  0  0
   36.0830   27.1160   38.5890 C   0  0  0  0  0  2  0  0  0  0  0  0
   35.4050   28.1460   37.7200 C   0  0  0  0  0  2  0  0  0  0  0  0
   34.3540   28.8500   38.5590 C   0  0  0  0  0  2  0  0  0  0  0  0
   34.9770   29.4060   39.8280 C   0  0  0  0  0  2  0  0  0  0  0  0
   35.7630   28.3390   40.5530 C   0  0  0  0  0  2  0  0  0  0  0  0
  1 10  2  0  0  0  0
  1  2  1  0  0  0  0
  2  3  2  0  0  0  0
  3  4  1  0  0  0  0
  3 12  1  0  0  0  0
  4 13  1  0  0  0  0
  5  6  1  0  0  0  0
  5  4  2  0  0  0  0
  6 14  1  0  0  0  0
  7 15  1  0  0  0  0
  7  6  2  0  0  0  0
  8  7  1  0  0  0  0
  9  8  2  0  0  0  0
  9 10  1  0  0  0  0
 10  5  1  0  0  0  0
 11  2  1  0  0  0  0
 16  8  1  0  0  0  0
 17 23  1  0  0  0  0
 17 22  1  0  0  0  0
 18 17  2  0  0  0  0
 19 18  1  0  0  0  0
 19 20  2  0  0  0  0
 20 21  1  0  0  0  0
 21 22  2  0  0  0  0
 21  1  1  0  0  0  0
 24 19  1  0  0  0  0
 25 27  1  0  0  0  0
 25 18  1  0  0  0  0
 26 25  1  0  0  0  0
 28  9  1  0  0  0  0
 28 33  1  0  0  0  0
 29 28  1  0  0  0  0
 30 31  1  0  0  0  0
 30 29  1  0  0  0  0
 31 32  1  0  0  0  0
 32 33  1  0  0  0  0
M  END
>  <minimizedAffinity>
-5.8740201

$$$$
