
 OpenBabel03252506423D

 37 40  0  0  1  0  0  0  0  0999 V2000
   49.2500   33.4370   41.0640 N   0  0  1  0  0  0  0  0  0  0  0  0
   50.3540   32.7410   41.7210 C   0  0  0  0  0  0  0  0  0  0  0  0
   50.7160   31.4400   41.1000 C   0  0  0  0  0  0  0  0  0  0  0  0
   49.5820   30.4710   41.2350 C   0  0  0  0  0  0  0  0  0  0  0  0
   48.2660   31.1610   41.1780 C   0  0  0  0  0  0  0  0  0  0  0  0
   48.3950   32.4700   40.4470 C   0  0  2  0  0  0  0  0  0  0  0  0
   51.2680   33.3670   41.7860 H   0  0  0  0  0  0  0  0  0  0  0  0
   50.0670   32.5290   42.7730 H   0  0  0  0  0  0  0  0  0  0  0  0
   51.5310   31.0280   41.7420 H   0  0  0  0  0  0  0  0  0  0  0  0
   51.1790   31.4920   40.0990 H   0  0  0  0  0  0  0  0  0  0  0  0
   49.6390   29.6480   40.4670 H   0  0  0  0  0  0  0  0  0  0  0  0
   49.6200   29.9260   42.2030 H   0  0  0  0  0  0  0  0  0  0  0  0
   47.4620   30.5890   40.7180 H   0  0  0  0  0  0  0  0  0  0  0  0
   47.9040   31.4180   42.2160 H   0  0  0  0  0  0  0  0  0  0  0  0
   47.3580   32.8940   40.6010 H   0  0  0  0  0  0  0  0  0  0  0  0
   47.2550   34.8320   41.9060 C   0  0  1  0  0  0  0  0  0  0  0  0
   48.4720   35.6600   41.8290 C   0  0  0  0  0  0  0  0  0  0  0  0
   48.5970   34.2000   42.0750 C   0  0  2  0  0  0  0  0  0  0  0  0
   46.6870   34.7570   40.9640 H   0  0  0  0  0  0  0  0  0  0  0  0
   48.7250   36.3030   42.7070 H   0  0  0  0  0  0  0  0  0  0  0  0
   48.8400   36.1090   40.8830 H   0  0  0  0  0  0  0  0  0  0  0  0
   48.8070   33.8320   43.1130 H   0  0  0  0  0  0  0  0  0  0  0  0
   45.4780   36.0430   43.1910 C   0  0  0  0  0  0  0  0  0  0  0  0
   46.3570   34.9430   43.0940 C   0  0  0  0  0  0  0  0  0  0  0  0
   46.3590   33.9720   44.1090 C   0  0  0  0  0  0  0  0  0  0  0  0
   45.5010   34.1420   45.1520 N   0  0  0  0  0  0  0  0  0  0  0  0
   44.6610   35.2170   45.2190 C   0  0  0  0  0  0  0  0  0  0  0  0
   44.6410   36.1610   44.2560 N   0  0  0  0  0  0  0  0  0  0  0  0
   45.5250   36.7490   42.3820 H   0  0  0  0  0  0  0  0  0  0  0  0
   47.0220   33.1450   44.0360 H   0  0  0  0  0  0  0  0  0  0  0  0
   44.0180   35.2550   46.0940 H   0  0  0  0  0  0  0  0  0  0  0  0
   48.4900   32.3600   38.9700 C   0  0  0  0  0  0  0  0  0  0  0  0
   48.3390   33.7840   38.4150 C   0  0  0  0  0  0  0  0  0  0  0  0
   48.2810   33.7770   36.9100 C   0  0  0  0  0  0  0  0  0  0  0  0
   47.2260   32.8300   36.3870 C   0  0  0  0  0  0  0  0  0  0  0  0
   47.3110   31.4490   36.9560 C   0  0  0  0  0  0  0  0  0  0  0  0
   47.4160   31.4570   38.4630 C   0  0  0  0  0  0  0  0  0  0  0  0
  1  2  1  1  0  0  0
  1 18  1  0  0  0  0
  2  7  1  0  0  0  0
  2  8  1  0  0  0  0
  3  4  1  0  0  0  0
  3  2  1  0  0  0  0
  3  9  1  0  0  0  0
  4 12  1  0  0  0  0
  5  4  1  0  0  0  0
  5 14  1  0  0  0  0
  6 15  1  1  0  0  0
  6  1  1  0  0  0  0
  6  5  1  0  0  0  0
 10  3  1  0  0  0  0
 11  4  1  0  0  0  0
 13  5  1  0  0  0  0
 16 19  1  6  0  0  0
 16 18  1  0  0  0  0
 16 24  1  0  0  0  0
 17 16  1  0  0  0  0
 17 18  1  0  0  0  0
 17 20  1  0  0  0  0
 18 22  1  1  0  0  0
 21 17  1  0  0  0  0
 23 28  1  0  0  0  0
 24 23  2  0  0  0  0
 24 25  1  0  0  0  0
 25 26  2  0  0  0  0
 26 27  1  0  0  0  0
 27 31  1  0  0  0  0
 28 27  2  0  0  0  0
 29 23  1  0  0  0  0
 30 25  1  0  0  0  0
 32  6  1  0  0  0  0
 33 32  1  0  0  0  0
 34 33  1  0  0  0  0
 35 34  1  0  0  0  0
 35 36  1  0  0  0  0
 36 37  1  0  0  0  0
 37 32  1  0  0  0  0
M  END
>  <minimizedAffinity>
-5.16296434

>  <minimizedRMSD>
2.12065005

$$$$
