
 OpenBabel03252504543D

 18 19  0  0  0  0  0  0  0  0999 V2000
   45.0680   34.2490   42.5240 C   0  0  0  0  0  0  0  0  0  0  0  0
   45.9550   34.5710   41.4670 C   0  0  0  0  0  0  0  0  0  0  0  0
   47.3180   34.5440   41.7470 C   0  0  0  0  0  0  0  0  0  0  0  0
   47.7400   34.2160   43.0000 N   0  0  0  0  0  0  0  0  0  0  0  0
   46.8450   33.9130   43.9870 C   0  0  0  0  0  0  0  0  0  0  0  0
   45.5220   33.9300   43.7460 N   0  0  0  0  0  0  0  0  0  0  0  0
   44.0080   34.2650   42.3260 H   0  0  0  0  0  0  0  0  0  0  0  0
   45.5430   34.8180   40.5110 H   0  0  0  0  0  0  0  0  0  0  0  0
   47.1770   33.6560   44.9710 H   0  0  0  0  0  0  0  0  0  0  0  0
   48.2270   34.8770   40.6520 C   0  0  0  0  0  0  0  0  0  0  0  0
   48.0060   35.9210   40.3450 H   0  0  0  0  0  0  0  0  0  0  0  0
   49.2880   34.8380   40.9270 H   0  0  0  0  0  0  0  0  0  0  0  0
   48.0210   34.0360   39.4220 C   0  0  0  0  0  3  0  0  0  0  0  0
   48.5230   34.6530   38.1510 C   0  0  0  0  0  2  0  0  0  0  0  0
   47.8530   33.8680   37.0210 C   0  0  0  0  0  2  0  0  0  0  0  0
   48.3700   32.4570   37.1020 C   0  0  0  0  0  2  0  0  0  0  0  0
   48.0110   31.8320   38.4300 C   0  0  0  0  0  2  0  0  0  0  0  0
   48.6570   32.6640   39.5450 C   0  0  0  0  0  2  0  0  0  0  0  0
  1  6  1  0  0  0  0
  2  3  1  0  0  0  0
  2  1  2  0  0  0  0
  3  4  2  0  0  0  0
  4  5  1  0  0  0  0
  5  9  1  0  0  0  0
  6  5  2  0  0  0  0
  7  1  1  0  0  0  0
  8  2  1  0  0  0  0
 10 12  1  0  0  0  0
 10  3  1  0  0  0  0
 11 10  1  0  0  0  0
 13 18  1  0  0  0  0
 13 10  1  0  0  0  0
 14 13  1  0  0  0  0
 15 16  1  0  0  0  0
 15 14  1  0  0  0  0
 16 17  1  0  0  0  0
 17 18  1  0  0  0  0
M  END
>  <minimizedAffinity>
-3.55310798

>  <minimizedRMSD>
4.0338583

$$$$
