
 OpenBabel03242510063D

 15 16  0  0  1  0  0  0  0  0999 V2000
   44.5620   35.5550   44.8400 C   0  0  0  0  0  0  0  0  0  0  0  0
   45.1770   35.5150   43.5750 C   0  0  0  0  0  0  0  0  0  0  0  0
   46.1820   34.5650   43.3690 C   0  0  0  0  0  0  0  0  0  0  0  0
   46.5080   33.7360   44.3970 N   0  0  0  0  0  0  0  0  0  0  0  0
   45.8990   33.7970   45.6030 C   0  0  0  0  0  0  0  0  0  0  0  0
   44.9220   34.7090   45.8290 N   0  0  0  0  0  0  0  0  0  0  0  0
   43.7730   36.2930   45.0190 H   0  0  0  0  0  0  0  0  0  0  0  0
   44.9020   36.1770   42.7890 H   0  0  0  0  0  0  0  0  0  0  0  0
   46.7100   34.4580   42.4310 H   0  0  0  0  0  0  0  0  0  0  0  0
   46.3150   32.8510   46.6780 C   0  0  2  0  0  3  0  0  0  0  0  0
   46.6930   31.5820   46.0130 C   0  0  0  0  0  2  0  0  0  0  0  0
   45.6820   30.4780   46.1530 C   0  0  0  0  0  2  0  0  0  0  0  0
   45.4790   30.2760   47.6310 C   0  0  0  0  0  2  0  0  0  0  0  0
   44.9310   31.4770   48.3090 C   0  0  0  0  0  3  0  0  0  0  0  0
   45.2450   32.7910   47.7020 C   0  0  0  0  0  3  0  0  0  0  0  0
  1  7  1  0  0  0  0
  1  6  1  0  0  0  0
  2  1  2  0  0  0  0
  3  2  1  0  0  0  0
  3  4  2  0  0  0  0
  4  5  1  0  0  0  0
  5  6  2  0  0  0  0
  8  2  1  0  0  0  0
  9  3  1  0  0  0  0
 10  5  1  6  0  0  0
 10 15  1  0  0  0  0
 11 12  1  0  0  0  0
 11 10  1  0  0  0  0
 12 13  1  0  0  0  0
 13 14  1  0  0  0  0
 15 14  2  0  0  0  0
M  END
>  <minimizedAffinity>
-4.3934269

>  <minimizedRMSD>
2.36331844

$$$$
