
 OpenBabel03252500583D

 35 37  0  0  0  0  0  0  0  0999 V2000
   43.7510   35.0120   40.2310 O   0  0  0  0  0  0  0  0  0  0  0  0
   43.3000   34.8020   41.6740 P   0  0  1  0  0  0  0  0  0  0  0  0
   43.2250   33.1330   41.9750 O   0  0  0  0  0  0  0  0  0  0  0  0
   43.9250   32.6850   41.4250 H   0  0  0  0  0  0  0  0  0  0  0  0
   44.4580   35.4530   42.7310 O   0  0  0  0  0  0  0  0  0  0  0  0
   46.4810   34.3200   43.1170 C   0  0  0  0  0  0  0  0  0  0  0  0
   45.2660   34.7490   43.6100 C   0  0  0  0  0  0  0  0  0  0  0  0
   44.9590   34.4380   44.9430 C   0  0  0  0  0  0  0  0  0  0  0  0
   45.8700   33.7410   45.6570 N   0  0  0  0  0  0  0  0  0  0  0  0
   47.0320   33.3400   45.1540 C   0  0  0  0  0  0  0  0  0  0  0  0
   47.3330   33.6320   43.8870 N   0  0  0  0  0  0  0  0  0  0  0  0
   44.0160   34.7870   45.2780 H   0  0  0  0  0  0  0  0  0  0  0  0
   47.7110   32.7820   45.8010 H   0  0  0  0  0  0  0  0  0  0  0  0
   46.8720   34.6040   41.7370 C   0  0  0  0  0  0  0  0  0  0  0  0
   46.1500   35.2540   41.1980 H   0  0  0  0  0  0  0  0  0  0  0  0
   47.0090   33.6350   41.2020 H   0  0  0  0  0  0  0  0  0  0  0  0
   48.2000   35.3040   41.7340 C   0  0  0  0  0  0  0  0  0  0  0  0
   48.1830   36.1570   42.4630 H   0  0  0  0  0  0  0  0  0  0  0  0
   48.9620   34.5810   42.1370 H   0  0  0  0  0  0  0  0  0  0  0  0
   48.4990   35.7110   40.7620 H   0  0  0  0  0  0  0  0  0  0  0  0
   41.7520   35.4430   41.9160 O   0  0  0  0  0  0  0  0  0  0  0  0
   40.6780   34.7850   41.3280 C   0  0  0  0  0  0  0  0  0  0  0  0
   40.0030   35.4560   40.3020 C   0  0  0  0  0  0  0  0  0  0  0  0
   38.9170   34.8740   39.6580 C   0  0  0  0  0  0  0  0  0  0  0  0
   38.5190   33.6290   40.0440 N   0  0  0  0  0  0  0  0  0  0  0  0
   39.1740   33.0040   41.0260 C   0  0  0  0  0  0  0  0  0  0  0  0
   40.2120   33.5720   41.6330 N   0  0  0  0  0  0  0  0  0  0  0  0
   40.2710   36.4420   39.9520 H   0  0  0  0  0  0  0  0  0  0  0  0
   38.3950   35.4000   38.8600 H   0  0  0  0  0  0  0  0  0  0  0  0
   38.7810   31.6520   41.4820 C   0  0  0  0  0  0  0  0  0  0  0  0
   39.9560   30.7210   41.6950 C   0  0  0  0  0  0  0  0  0  0  0  0
   39.4340   29.5720   42.5170 C   0  0  0  0  0  0  0  0  0  0  0  0
   38.1840   28.9500   42.0290 C   0  0  0  0  0  0  0  0  0  0  0  0
   37.2540   29.7880   41.2360 C   0  0  0  0  0  0  0  0  0  0  0  0
   37.8920   30.9340   40.4920 C   0  0  0  0  0  0  0  0  0  0  0  0
  2  1  2  6  0  0  0
  2 21  1  0  0  0  0
  2  3  1  0  0  0  0
  2  5  1  0  0  0  0
  4  3  1  0  0  0  0
  5  7  1  0  0  0  0
  6  7  2  0  0  0  0
  6 11  1  0  0  0  0
  7  8  1  0  0  0  0
  8 12  1  0  0  0  0
  8  9  2  0  0  0  0
 10  9  1  0  0  0  0
 10 13  1  0  0  0  0
 11 10  2  0  0  0  0
 14  6  1  0  0  0  0
 15 14  1  0  0  0  0
 16 14  1  0  0  0  0
 17 14  1  0  0  0  0
 17 19  1  0  0  0  0
 17 18  1  0  0  0  0
 20 17  1  0  0  0  0
 22 27  1  0  0  0  0
 22 21  1  0  0  0  0
 23 22  2  0  0  0  0
 24 25  2  0  0  0  0
 24 23  1  0  0  0  0
 25 26  1  0  0  0  0
 26 30  1  0  0  0  0
 26 27  2  0  0  0  0
 28 23  1  0  0  0  0
 29 24  1  0  0  0  0
 30 31  1  0  0  0  0
 31 32  1  0  0  0  0
 33 32  1  0  0  0  0
 34 33  1  0  0  0  0
 35 34  1  0  0  0  0
 35 30  1  0  0  0  0
M  END
>  <minimizedAffinity>
-6.00806904

>  <minimizedRMSD>
0.989385068

$$$$
