
 OpenBabel03242517593D

 21 22  0  0  1  0  0  0  0  0999 V2000
   36.9180   28.5610   42.1520 C   0  0  0  0  0  0  0  0  0  0  0  0
   35.8110   28.5600   42.2440 H   0  0  0  0  0  0  0  0  0  0  0  0
   37.3000   27.7760   41.5030 H   0  0  0  0  0  0  0  0  0  0  0  0
   38.6220   30.3140   41.7470 C   0  0  0  0  0  0  0  0  0  0  0  0
   37.2910   29.8700   41.6180 C   0  0  0  0  0  0  0  0  0  0  0  0
   36.4040   30.7370   40.9730 C   0  0  0  0  0  0  0  0  0  0  0  0
   36.8670   31.9270   40.5200 N   0  0  0  0  0  0  0  0  0  0  0  0
   38.1460   32.3050   40.6680 C   0  0  0  0  0  0  0  0  0  0  0  0
   39.0270   31.4930   41.2840 N   0  0  0  0  0  0  0  0  0  0  0  0
   39.3420   29.6570   42.2480 H   0  0  0  0  0  0  0  0  0  0  0  0
   35.3760   30.4270   40.8570 H   0  0  0  0  0  0  0  0  0  0  0  0
   38.5570   33.2450   40.3220 H   0  0  0  0  0  0  0  0  0  0  0  0
   37.6050   28.3900   43.4880 C   0  0  0  0  0  0  0  0  0  0  0  0
   36.8180   28.3290   44.2890 H   0  0  0  0  0  0  0  0  0  0  0  0
   38.2670   29.2520   43.6460 H   0  0  0  0  0  0  0  0  0  0  0  0
   38.3120   27.0750   43.4910 C   0  0  2  0  0  3  0  0  0  0  0  0
   39.8030   27.1920   43.4070 C   0  0  0  0  0  2  0  0  0  0  0  0
   40.4020   25.8400   43.6790 C   0  0  0  0  0  3  0  0  0  0  0  0
   39.6560   24.6820   43.1720 C   0  0  0  0  0  3  0  0  0  0  0  0
   38.4250   24.8790   42.3830 C   0  0  0  0  0  2  0  0  0  0  0  0
   37.9280   26.2920   42.2670 C   0  0  0  0  0  2  0  0  0  0  0  0
  1  2  1  0  0  0  0
  1 13  1  0  0  0  0
  3  1  1  0  0  0  0
  4 10  1  0  0  0  0
  5  4  1  0  0  0  0
  5  1  1  0  0  0  0
  6  5  2  0  0  0  0
  7  8  2  0  0  0  0
  7  6  1  0  0  0  0
  8  9  1  0  0  0  0
  9  4  2  0  0  0  0
 11  6  1  0  0  0  0
 12  8  1  0  0  0  0
 13 15  1  0  0  0  0
 13 14  1  0  0  0  0
 16 13  1  6  0  0  0
 17 16  1  0  0  0  0
 17 18  1  0  0  0  0
 19 18  2  0  0  0  0
 20 19  1  0  0  0  0
 21 20  1  0  0  0  0
 21 16  1  0  0  0  0
M  END
>  <minimizedAffinity>
-4.53454399

$$$$

 OpenBabel03242517593D

 21 22  0  0  1  0  0  0  0  0999 V2000
   36.9530   28.6520   42.2720 C   0  0  0  0  0  0  0  0  0  0  0  0
   35.8580   28.7700   42.4120 H   0  0  0  0  0  0  0  0  0  0  0  0
   37.2190   27.8430   41.5950 H   0  0  0  0  0  0  0  0  0  0  0  0
   36.5730   30.7410   40.9940 C   0  0  0  0  0  0  0  0  0  0  0  0
   37.4450   29.9230   41.7410 C   0  0  0  0  0  0  0  0  0  0  0  0
   38.7460   30.4010   41.9230 C   0  0  0  0  0  0  0  0  0  0  0  0
   39.0850   31.5960   41.3820 N   0  0  0  0  0  0  0  0  0  0  0  0
   38.2170   32.3390   40.6770 C   0  0  0  0  0  0  0  0  0  0  0  0
   36.9550   31.9080   40.4840 N   0  0  0  0  0  0  0  0  0  0  0  0
   35.5460   30.3950   40.8340 H   0  0  0  0  0  0  0  0  0  0  0  0
   39.4390   29.7990   42.4910 H   0  0  0  0  0  0  0  0  0  0  0  0
   38.4460   33.2970   40.2290 H   0  0  0  0  0  0  0  0  0  0  0  0
   37.6720   28.3820   43.5740 C   0  0  0  0  0  0  0  0  0  0  0  0
   36.9090   28.3270   44.3980 H   0  0  0  0  0  0  0  0  0  0  0  0
   38.3860   29.1990   43.7480 H   0  0  0  0  0  0  0  0  0  0  0  0
   38.3040   27.0320   43.4930 C   0  0  2  0  0  3  0  0  0  0  0  0
   39.8010   27.0650   43.5020 C   0  0  0  0  0  2  0  0  0  0  0  0
   40.3080   25.6610   43.6790 C   0  0  0  0  0  3  0  0  0  0  0  0
   39.5310   24.6000   43.0270 C   0  0  0  0  0  3  0  0  0  0  0  0
   38.3610   24.9410   42.1940 C   0  0  0  0  0  2  0  0  0  0  0  0
   37.9510   26.3860   42.1830 C   0  0  0  0  0  2  0  0  0  0  0  0
  1  2  1  0  0  0  0
  1 13  1  0  0  0  0
  3  1  1  0  0  0  0
  4  5  1  0  0  0  0
  5  6  2  0  0  0  0
  5  1  1  0  0  0  0
  6 11  1  0  0  0  0
  7  6  1  0  0  0  0
  8  7  2  0  0  0  0
  9  8  1  0  0  0  0
  9  4  2  0  0  0  0
 10  4  1  0  0  0  0
 12  8  1  0  0  0  0
 13 15  1  0  0  0  0
 13 14  1  0  0  0  0
 16 17  1  0  0  0  0
 16 13  1  6  0  0  0
 17 18  1  0  0  0  0
 19 18  2  0  0  0  0
 20 19  1  0  0  0  0
 21 20  1  0  0  0  0
 21 16  1  0  0  0  0
M  END
>  <minimizedAffinity>
-4.49886703

$$$$

 OpenBabel03242517593D

 21 22  0  0  1  0  0  0  0  0999 V2000
   37.2060   28.3710   42.8480 C   0  0  0  0  0  0  0  0  0  0  0  0
   36.6580   28.4490   43.8110 H   0  0  0  0  0  0  0  0  0  0  0  0
   37.8540   29.2220   42.6480 H   0  0  0  0  0  0  0  0  0  0  0  0
   37.5930   26.0150   42.1860 C   0  0  0  0  0  0  0  0  0  0  0  0
   38.0020   27.1470   42.9200 C   0  0  0  0  0  0  0  0  0  0  0  0
   39.1670   27.0110   43.6790 C   0  0  0  0  0  0  0  0  0  0  0  0
   39.8210   25.8240   43.6670 N   0  0  0  0  0  0  0  0  0  0  0  0
   39.3900   24.7740   42.9510 C   0  0  0  0  0  0  0  0  0  0  0  0
   38.2710   24.8710   42.2080 N   0  0  0  0  0  0  0  0  0  0  0  0
   36.6830   26.0900   41.5810 H   0  0  0  0  0  0  0  0  0  0  0  0
   39.5090   27.8600   44.2530 H   0  0  0  0  0  0  0  0  0  0  0  0
   39.8810   23.8090   42.9120 H   0  0  0  0  0  0  0  0  0  0  0  0
   36.2720   28.2510   41.6660 C   0  0  0  0  0  0  0  0  0  0  0  0
   35.2240   28.4700   42.0130 H   0  0  0  0  0  0  0  0  0  0  0  0
   36.3520   27.2300   41.2670 H   0  0  0  0  0  0  0  0  0  0  0  0
   36.6200   29.3150   40.6780 C   0  0  2  0  0  3  0  0  0  0  0  0
   36.3010   30.7010   41.1470 C   0  0  0  0  0  2  0  0  0  0  0  0
   36.9270   31.6820   40.1950 C   0  0  0  0  0  3  0  0  0  0  0  0
   36.9440   31.2960   38.7790 C   0  0  0  0  0  3  0  0  0  0  0  0
   36.3090   30.0370   38.3440 C   0  0  0  0  0  2  0  0  0  0  0  0
   35.7950   29.1400   39.4350 C   0  0  0  0  0  2  0  0  0  0  0  0
  1  5  1  0  0  0  0
  1  2  1  0  0  0  0
  3  1  1  0  0  0  0
  4  9  2  0  0  0  0
  4  5  1  0  0  0  0
  5  6  2  0  0  0  0
  6 11  1  0  0  0  0
  7  6  1  0  0  0  0
  8  7  2  0  0  0  0
  9  8  1  0  0  0  0
 10  4  1  0  0  0  0
 12  8  1  0  0  0  0
 13 14  1  0  0  0  0
 13  1  1  0  0  0  0
 15 13  1  0  0  0  0
 16 17  1  0  0  0  0
 16 13  1  1  0  0  0
 18 17  1  0  0  0  0
 19 18  2  0  0  0  0
 20 19  1  0  0  0  0
 20 21  1  0  0  0  0
 21 16  1  0  0  0  0
M  END
>  <minimizedAffinity>
-4.42881346

$$$$

 OpenBabel03242517593D

 21 22  0  0  1  0  0  0  0  0999 V2000
   36.8730   30.1120   39.6330 C   0  0  0  0  0  0  0  0  0  0  0  0
   36.4200   30.2160   38.6240 H   0  0  0  0  0  0  0  0  0  0  0  0
   37.6170   29.3200   39.6940 H   0  0  0  0  0  0  0  0  0  0  0  0
   38.5730   31.4420   40.8510 C   0  0  0  0  0  0  0  0  0  0  0  0
   37.4920   31.3990   39.9470 C   0  0  0  0  0  0  0  0  0  0  0  0
   37.0840   32.6200   39.4040 C   0  0  0  0  0  0  0  0  0  0  0  0
   37.7360   33.7500   39.7710 N   0  0  0  0  0  0  0  0  0  0  0  0
   38.7600   33.7390   40.6380 C   0  0  0  0  0  0  0  0  0  0  0  0
   39.1800   32.5780   41.1790 N   0  0  0  0  0  0  0  0  0  0  0  0
   38.9160   30.5010   41.2940 H   0  0  0  0  0  0  0  0  0  0  0  0
   36.2590   32.6220   38.7070 H   0  0  0  0  0  0  0  0  0  0  0  0
   39.3090   34.6150   40.9590 H   0  0  0  0  0  0  0  0  0  0  0  0
   35.8410   29.8200   40.6970 C   0  0  0  0  0  0  0  0  0  0  0  0
   34.8360   29.7180   40.2020 H   0  0  0  0  0  0  0  0  0  0  0  0
   35.8460   30.6490   41.4180 H   0  0  0  0  0  0  0  0  0  0  0  0
   36.1490   28.4900   41.3020 C   0  0  2  0  0  3  0  0  0  0  0  0
   36.9850   28.5700   42.5420 C   0  0  0  0  0  2  0  0  0  0  0  0
   37.0050   27.2130   43.1910 C   0  0  0  0  0  3  0  0  0  0  0  0
   37.0170   26.0580   42.2870 C   0  0  0  0  0  3  0  0  0  0  0  0
   37.0750   26.2580   40.8250 C   0  0  0  0  0  2  0  0  0  0  0  0
   36.9740   27.6780   40.3440 C   0  0  0  0  0  2  0  0  0  0  0  0
  1  3  1  0  0  0  0
  1  5  1  0  0  0  0
  1 13  1  0  0  0  0
  2  1  1  0  0  0  0
  4  9  1  0  0  0  0
  4 10  1  0  0  0  0
  5  4  2  0  0  0  0
  6  7  2  0  0  0  0
  6  5  1  0  0  0  0
  7  8  1  0  0  0  0
  8 12  1  0  0  0  0
  8  9  2  0  0  0  0
 11  6  1  0  0  0  0
 13 15  1  0  0  0  0
 14 13  1  0  0  0  0
 16 13  1  6  0  0  0
 16 17  1  0  0  0  0
 17 18  1  0  0  0  0
 19 18  2  0  0  0  0
 20 19  1  0  0  0  0
 21 20  1  0  0  0  0
 21 16  1  0  0  0  0
M  END
>  <minimizedAffinity>
-4.33276463

$$$$

 OpenBabel03242517593D

 21 22  0  0  1  0  0  0  0  0999 V2000
   40.0690   30.4170   41.3460 C   0  0  0  0  0  0  0  0  0  0  0  0
   39.8290   29.6680   40.5620 H   0  0  0  0  0  0  0  0  0  0  0  0
   41.1370   30.5410   41.5140 H   0  0  0  0  0  0  0  0  0  0  0  0
   40.3310   32.7900   40.6800 C   0  0  0  0  0  0  0  0  0  0  0  0
   39.4870   31.6840   40.9050 C   0  0  0  0  0  0  0  0  0  0  0  0
   38.1210   31.8850   40.6830 C   0  0  0  0  0  0  0  0  0  0  0  0
   37.6990   33.1060   40.2740 N   0  0  0  0  0  0  0  0  0  0  0  0
   38.5440   34.1300   40.0740 C   0  0  0  0  0  0  0  0  0  0  0  0
   39.8660   33.9690   40.2790 N   0  0  0  0  0  0  0  0  0  0  0  0
   41.4060   32.6630   40.8460 H   0  0  0  0  0  0  0  0  0  0  0  0
   37.4470   31.0580   40.8450 H   0  0  0  0  0  0  0  0  0  0  0  0
   38.2500   35.1190   39.7490 H   0  0  0  0  0  0  0  0  0  0  0  0
   39.4590   30.0640   42.6830 C   0  0  0  0  0  0  0  0  0  0  0  0
   38.7050   30.8550   42.9520 H   0  0  0  0  0  0  0  0  0  0  0  0
   40.2650   30.0150   43.4270 H   0  0  0  0  0  0  0  0  0  0  0  0
   38.6970   28.7890   42.5310 C   0  0  2  0  0  3  0  0  0  0  0  0
   37.3250   28.8300   43.1310 C   0  0  0  0  0  2  0  0  0  0  0  0
   36.5760   27.6030   42.6910 C   0  0  0  0  0  3  0  0  0  0  0  0
   37.3610   26.3700   42.5650 C   0  0  0  0  0  3  0  0  0  0  0  0
   38.7920   26.3600   42.9260 C   0  0  0  0  0  2  0  0  0  0  0  0
   39.3990   27.6890   43.2760 C   0  0  0  0  0  2  0  0  0  0  0  0
  1  3  1  0  0  0  0
  1 13  1  0  0  0  0
  2  1  1  0  0  0  0
  4 10  1  0  0  0  0
  4  5  1  0  0  0  0
  5  1  1  0  0  0  0
  6 11  1  0  0  0  0
  6  5  2  0  0  0  0
  7  6  1  0  0  0  0
  8  7  2  0  0  0  0
  8  9  1  0  0  0  0
  9  4  2  0  0  0  0
 12  8  1  0  0  0  0
 13 14  1  0  0  0  0
 13 15  1  0  0  0  0
 16 13  1  1  0  0  0
 16 17  1  0  0  0  0
 16 21  1  0  0  0  0
 18 17  1  0  0  0  0
 19 18  2  0  0  0  0
 19 20  1  0  0  0  0
 20 21  1  0  0  0  0
M  END
>  <minimizedAffinity>
-4.22067213

$$$$

 OpenBabel03242517593D

 21 22  0  0  1  0  0  0  0  0999 V2000
   35.2270   29.3290   39.7070 C   0  0  0  0  0  0  0  0  0  0  0  0
   34.1320   29.5150   39.7370 H   0  0  0  0  0  0  0  0  0  0  0  0
   35.5090   28.3440   40.0720 H   0  0  0  0  0  0  0  0  0  0  0  0
   36.7210   30.3210   37.9960 C   0  0  0  0  0  0  0  0  0  0  0  0
   35.6360   29.4770   38.3110 C   0  0  0  0  0  0  0  0  0  0  0  0
   35.0190   28.8290   37.2370 C   0  0  0  0  0  0  0  0  0  0  0  0
   35.4880   29.0460   35.9850 N   0  0  0  0  0  0  0  0  0  0  0  0
   36.5250   29.8600   35.7370 C   0  0  0  0  0  0  0  0  0  0  0  0
   37.1440   30.5000   36.7490 N   0  0  0  0  0  0  0  0  0  0  0  0
   37.2270   30.8430   38.8160 H   0  0  0  0  0  0  0  0  0  0  0  0
   34.1840   28.1750   37.4440 H   0  0  0  0  0  0  0  0  0  0  0  0
   36.9320   30.0610   34.7540 H   0  0  0  0  0  0  0  0  0  0  0  0
   36.0010   30.3340   40.5290 C   0  0  0  0  0  0  0  0  0  0  0  0
   35.2780   31.0830   40.9530 H   0  0  0  0  0  0  0  0  0  0  0  0
   36.7370   30.8200   39.8730 H   0  0  0  0  0  0  0  0  0  0  0  0
   36.6070   29.6240   41.6950 C   0  0  2  0  0  3  0  0  0  0  0  0
   38.1040   29.6370   41.6980 C   0  0  0  0  0  2  0  0  0  0  0  0
   38.5810   29.1300   43.0310 C   0  0  0  0  0  3  0  0  0  0  0  0
   37.7850   28.0620   43.6460 C   0  0  0  0  0  3  0  0  0  0  0  0
   36.6250   27.4940   42.9310 C   0  0  0  0  0  2  0  0  0  0  0  0
   36.2440   28.1670   41.6430 C   0  0  0  0  0  2  0  0  0  0  0  0
  1  2  1  0  0  0  0
  1  3  1  0  0  0  0
  1 13  1  0  0  0  0
  4  5  1  0  0  0  0
  4 10  1  0  0  0  0
  5  1  1  0  0  0  0
  6 11  1  0  0  0  0
  6  5  2  0  0  0  0
  7  6  1  0  0  0  0
  8  7  2  0  0  0  0
  8  9  1  0  0  0  0
  9  4  2  0  0  0  0
 12  8  1  0  0  0  0
 13 14  1  0  0  0  0
 15 13  1  0  0  0  0
 16 13  1  6  0  0  0
 16 17  1  0  0  0  0
 17 18  1  0  0  0  0
 18 19  2  0  0  0  0
 20 19  1  0  0  0  0
 21 16  1  0  0  0  0
 21 20  1  0  0  0  0
M  END
>  <minimizedAffinity>
-4.1804862

$$$$

 OpenBabel03242517593D

 21 22  0  0  1  0  0  0  0  0999 V2000
   35.6970   28.7450   41.0370 C   0  0  0  0  0  0  0  0  0  0  0  0
   35.5720   28.2800   40.0350 H   0  0  0  0  0  0  0  0  0  0  0  0
   34.7840   28.7510   41.6280 H   0  0  0  0  0  0  0  0  0  0  0  0
   37.3310   28.5090   42.8840 C   0  0  0  0  0  0  0  0  0  0  0  0
   36.7300   27.9740   41.7270 C   0  0  0  0  0  0  0  0  0  0  0  0
   37.1790   26.7160   41.3160 C   0  0  0  0  0  0  0  0  0  0  0  0
   38.1440   26.0980   42.0380 N   0  0  0  0  0  0  0  0  0  0  0  0
   38.6860   26.6500   43.1350 C   0  0  0  0  0  0  0  0  0  0  0  0
   38.2760   27.8610   43.5590 N   0  0  0  0  0  0  0  0  0  0  0  0
   37.0010   29.4940   43.2320 H   0  0  0  0  0  0  0  0  0  0  0  0
   36.7380   26.2770   40.4330 H   0  0  0  0  0  0  0  0  0  0  0  0
   39.4580   26.1920   43.7400 H   0  0  0  0  0  0  0  0  0  0  0  0
   36.1660   30.1790   40.9480 C   0  0  0  0  0  0  0  0  0  0  0  0
   37.0020   30.3280   41.6860 H   0  0  0  0  0  0  0  0  0  0  0  0
   35.3140   30.8340   41.1770 H   0  0  0  0  0  0  0  0  0  0  0  0
   36.7540   30.4010   39.5940 C   0  0  2  0  0  3  0  0  0  0  0  0
   36.8700   31.8460   39.2160 C   0  0  0  0  0  2  0  0  0  0  0  0
   37.7020   31.9450   37.9670 C   0  0  0  0  0  3  0  0  0  0  0  0
   37.5350   30.8680   36.9850 C   0  0  0  0  0  3  0  0  0  0  0  0
   36.5440   29.7980   37.2150 C   0  0  0  0  0  2  0  0  0  0  0  0
   35.8500   29.8110   38.5480 C   0  0  0  0  0  2  0  0  0  0  0  0
  1  3  1  0  0  0  0
  1  5  1  0  0  0  0
  2  1  1  0  0  0  0
  4 10  1  0  0  0  0
  4  9  1  0  0  0  0
  5  4  2  0  0  0  0
  6  5  1  0  0  0  0
  6  7  2  0  0  0  0
  7  8  1  0  0  0  0
  8  9  2  0  0  0  0
  8 12  1  0  0  0  0
 11  6  1  0  0  0  0
 13  1  1  0  0  0  0
 13 15  1  0  0  0  0
 13 14  1  0  0  0  0
 16 13  1  1  0  0  0
 17 16  1  0  0  0  0
 18 17  1  0  0  0  0
 19 20  1  0  0  0  0
 19 18  2  0  0  0  0
 20 21  1  0  0  0  0
 21 16  1  0  0  0  0
M  END
>  <minimizedAffinity>
-4.17569637

$$$$

 OpenBabel03242517593D

 21 22  0  0  1  0  0  0  0  0999 V2000
   35.9110   28.5990   39.3310 C   0  0  0  0  0  0  0  0  0  0  0  0
   35.0810   28.1820   38.7210 H   0  0  0  0  0  0  0  0  0  0  0  0
   36.6860   27.8710   39.5630 H   0  0  0  0  0  0  0  0  0  0  0  0
   36.7260   29.5270   37.1830 C   0  0  0  0  0  0  0  0  0  0  0  0
   36.4810   29.7020   38.5600 C   0  0  0  0  0  0  0  0  0  0  0  0
   36.8100   30.9500   39.0970 C   0  0  0  0  0  0  0  0  0  0  0  0
   37.3340   31.8960   38.2810 N   0  0  0  0  0  0  0  0  0  0  0  0
   37.5490   31.6790   36.9740 C   0  0  0  0  0  0  0  0  0  0  0  0
   37.2430   30.4880   36.4240 N   0  0  0  0  0  0  0  0  0  0  0  0
   36.4790   28.5590   36.7310 H   0  0  0  0  0  0  0  0  0  0  0  0
   36.6350   31.1180   40.1500 H   0  0  0  0  0  0  0  0  0  0  0  0
   37.9650   32.4050   36.2870 H   0  0  0  0  0  0  0  0  0  0  0  0
   35.4280   29.1540   40.6510 C   0  0  0  0  0  0  0  0  0  0  0  0
   34.3570   28.8430   40.8000 H   0  0  0  0  0  0  0  0  0  0  0  0
   35.5230   30.2480   40.6190 H   0  0  0  0  0  0  0  0  0  0  0  0
   36.2110   28.5110   41.7480 C   0  0  2  0  0  3  0  0  0  0  0  0
   37.3500   29.3450   42.2470 C   0  0  0  0  0  2  0  0  0  0  0  0
   37.8870   28.7160   43.5030 C   0  0  0  0  0  3  0  0  0  0  0  0
   37.8840   27.2500   43.5500 C   0  0  0  0  0  3  0  0  0  0  0  0
   37.4340   26.4690   42.3810 C   0  0  0  0  0  2  0  0  0  0  0  0
   36.8600   27.2560   41.2370 C   0  0  0  0  0  2  0  0  0  0  0  0
  1  3  1  0  0  0  0
  1 13  1  0  0  0  0
  2  1  1  0  0  0  0
  4  5  1  0  0  0  0
  5  6  2  0  0  0  0
  5  1  1  0  0  0  0
  6 11  1  0  0  0  0
  7  6  1  0  0  0  0
  8  7  2  0  0  0  0
  9  8  1  0  0  0  0
  9  4  2  0  0  0  0
 10  4  1  0  0  0  0
 12  8  1  0  0  0  0
 13 14  1  0  0  0  0
 15 13  1  0  0  0  0
 16 13  1  6  0  0  0
 16 17  1  0  0  0  0
 17 18  1  0  0  0  0
 18 19  2  0  0  0  0
 20 19  1  0  0  0  0
 21 16  1  0  0  0  0
 21 20  1  0  0  0  0
M  END
>  <minimizedAffinity>
-4.13058949

$$$$

 OpenBabel03242517593D

 21 22  0  0  1  0  0  0  0  0999 V2000
   37.0910   27.3490   42.3250 C   0  0  0  0  0  0  0  0  0  0  0  0
   37.1370   27.5510   41.2340 H   0  0  0  0  0  0  0  0  0  0  0  0
   36.1190   26.9910   42.6580 H   0  0  0  0  0  0  0  0  0  0  0  0
   37.9900   25.0580   42.0390 C   0  0  0  0  0  0  0  0  0  0  0  0
   38.1130   26.3420   42.6060 C   0  0  0  0  0  0  0  0  0  0  0  0
   39.2320   26.5620   43.4150 C   0  0  0  0  0  0  0  0  0  0  0  0
   40.1120   25.5490   43.6020 N   0  0  0  0  0  0  0  0  0  0  0  0
   39.9500   24.3420   43.0400 C   0  0  0  0  0  0  0  0  0  0  0  0
   38.8830   24.0970   42.2540 N   0  0  0  0  0  0  0  0  0  0  0  0
   37.1230   24.8540   41.4000 H   0  0  0  0  0  0  0  0  0  0  0  0
   39.3570   27.5360   43.8650 H   0  0  0  0  0  0  0  0  0  0  0  0
   40.6270   23.5070   43.1620 H   0  0  0  0  0  0  0  0  0  0  0  0
   37.4070   28.5760   43.1490 C   0  0  0  0  0  0  0  0  0  0  0  0
   38.4770   28.5140   43.4880 H   0  0  0  0  0  0  0  0  0  0  0  0
   36.7190   28.6010   44.0050 H   0  0  0  0  0  0  0  0  0  0  0  0
   37.3140   29.7760   42.2640 C   0  0  2  0  0  3  0  0  0  0  0  0
   36.4480   29.5720   41.0600 C   0  0  0  0  0  2  0  0  0  0  0  0
   36.2270   30.9060   40.4010 C   0  0  0  0  0  3  0  0  0  0  0  0
   37.3560   31.8420   40.4310 C   0  0  0  0  0  3  0  0  0  0  0  0
   38.6450   31.4350   41.0230 C   0  0  0  0  0  2  0  0  0  0  0  0
   38.6700   30.0950   41.7020 C   0  0  0  0  0  2  0  0  0  0  0  0
  1  5  1  0  0  0  0
  1  3  1  0  0  0  0
  1 13  1  0  0  0  0
  2  1  1  0  0  0  0
  4  9  2  0  0  0  0
  4  5  1  0  0  0  0
  5  6  2  0  0  0  0
  6  7  1  0  0  0  0
  6 11  1  0  0  0  0
  8 12  1  0  0  0  0
  8  7  2  0  0  0  0
  9  8  1  0  0  0  0
 10  4  1  0  0  0  0
 13 14  1  0  0  0  0
 13 15  1  0  0  0  0
 16 13  1  1  0  0  0
 17 16  1  0  0  0  0
 18 19  2  0  0  0  0
 18 17  1  0  0  0  0
 19 20  1  0  0  0  0
 20 21  1  0  0  0  0
 21 16  1  0  0  0  0
M  END
>  <minimizedAffinity>
-4.12111425

$$$$
