
 OpenBabel03252504433D

 42 45  0  0  0  0  0  0  0  0999 V2000
   37.6150   31.8010   40.3530 C   0  0  0  0  0  0  0  0  0  0  0  0
   37.2900   32.8500   39.5350 C   0  0  0  0  0  0  0  0  0  0  0  0
   38.4500   33.3500   39.0870 N   0  0  0  0  0  0  0  0  0  0  0  0
   39.4860   32.6650   39.5840 C   0  0  0  0  0  0  0  0  0  0  0  0
   38.9520   31.6980   40.3750 N   0  0  0  0  0  0  0  0  0  0  0  0
   40.8890   32.8140   39.4030 N   0  0  0  0  0  0  0  0  0  0  0  0
   41.5220   32.0820   38.2800 C   0  0  0  0  0  0  0  0  0  0  0  0
   41.7800   33.1480   37.2160 C   0  0  0  0  0  0  0  0  0  0  0  0
   42.4450   34.3480   37.8540 C   0  0  0  0  0  0  0  0  0  0  0  0
   43.0060   33.9820   39.2090 C   0  0  0  0  0  0  0  0  0  0  0  0
   41.8760   33.5620   40.1140 C   0  0  0  0  0  0  0  0  0  0  0  0
   36.3180   33.2490   39.2630 H   0  0  0  0  0  0  0  0  0  0  0  0
   38.5600   34.1620   38.4380 H   0  0  0  0  0  0  0  0  0  0  0  0
   42.4610   31.6060   38.5790 H   0  0  0  0  0  0  0  0  0  0  0  0
   40.7900   31.3710   37.8300 H   0  0  0  0  0  0  0  0  0  0  0  0
   40.8110   33.3850   36.7580 H   0  0  0  0  0  0  0  0  0  0  0  0
   42.4580   32.6920   36.4900 H   0  0  0  0  0  0  0  0  0  0  0  0
   43.2400   34.7040   37.1700 H   0  0  0  0  0  0  0  0  0  0  0  0
   41.6960   35.1500   37.9350 H   0  0  0  0  0  0  0  0  0  0  0  0
   43.7480   33.1780   39.0380 H   0  0  0  0  0  0  0  0  0  0  0  0
   43.5140   34.8900   39.6050 H   0  0  0  0  0  0  0  0  0  0  0  0
   42.3600   32.9180   40.9010 H   0  0  0  0  0  0  0  0  0  0  0  0
   41.4970   34.4620   40.6440 H   0  0  0  0  0  0  0  0  0  0  0  0
   36.6550   30.9320   41.0830 C   0  0  0  0  0  0  0  0  0  0  0  0
   35.7840   30.7810   40.3850 H   0  0  0  0  0  0  0  0  0  0  0  0
   36.2580   31.3760   42.0020 H   0  0  0  0  0  0  0  0  0  0  0  0
   37.4470   29.0850   42.5170 C   0  0  0  0  0  3  0  0  0  0  0  0
   37.2370   29.5880   41.3150 C   0  0  0  0  0  3  0  0  0  0  0  0
   38.0280   27.7460   42.6110 C   0  0  0  0  0  0  0  0  0  0  0  0
   38.9990   27.4210   43.5750 C   0  0  0  0  0  0  0  0  0  0  0  0
   39.4880   26.1240   43.5830 C   0  0  0  0  0  0  0  0  0  0  0  0
   39.0340   25.2370   42.6920 N   0  0  0  0  0  0  0  0  0  0  0  0
   38.1020   25.5580   41.7670 C   0  0  0  0  0  0  0  0  0  0  0  0
   37.6180   26.7830   41.7370 N   0  0  0  0  0  0  0  0  0  0  0  0
   39.3260   28.1860   44.2710 H   0  0  0  0  0  0  0  0  0  0  0  0
   40.2350   25.8880   44.3290 H   0  0  0  0  0  0  0  0  0  0  0  0
   37.6580   24.5040   40.8170 C   0  0  0  0  0  3  0  0  0  0  0  0
   36.2050   24.2090   40.8780 C   0  0  0  0  0  2  0  0  0  0  0  0
   35.8620   23.3310   39.6910 C   0  0  0  0  0  2  0  0  0  0  0  0
   37.1110   22.6620   39.1420 C   0  0  0  0  0  2  0  0  0  0  0  0
   37.9970   22.1600   40.2470 C   0  0  0  0  0  2  0  0  0  0  0  0
   38.4770   23.2820   41.1120 C   0  0  0  0  0  2  0  0  0  0  0  0
  1  5  1  0  0  0  0
  1 24  1  0  0  0  0
  2  1  2  0  0  0  0
  3  2  1  0  0  0  0
  3  4  1  0  0  0  0
  4  5  2  0  0  0  0
  6  4  1  0  0  0  0
  6 11  1  0  0  0  0
  7 14  1  0  0  0  0
  7  6  1  0  0  0  0
  8  9  1  0  0  0  0
  8  7  1  0  0  0  0
  9 19  1  0  0  0  0
  9 10  1  0  0  0  0
 10 21  1  0  0  0  0
 10 11  1  0  0  0  0
 11 23  1  0  0  0  0
 11 22  1  0  0  0  0
 12  2  1  0  0  0  0
 13  3  1  0  0  0  0
 15  7  1  0  0  0  0
 16  8  1  0  0  0  0
 17  8  1  0  0  0  0
 18  9  1  0  0  0  0
 20 10  1  0  0  0  0
 24 28  1  0  0  0  0
 24 26  1  0  0  0  0
 25 24  1  0  0  0  0
 27 29  1  0  0  0  0
 28 27  2  0  0  0  0
 29 30  1  0  0  0  0
 30 31  2  0  0  0  0
 30 35  1  0  0  0  0
 31 36  1  0  0  0  0
 32 31  1  0  0  0  0
 33 32  2  0  0  0  0
 34 33  1  0  0  0  0
 34 29  2  0  0  0  0
 37 38  1  0  0  0  0
 37 42  1  0  0  0  0
 37 33  1  0  0  0  0
 39 38  1  0  0  0  0
 40 39  1  0  0  0  0
 40 41  1  0  0  0  0
 41 42  1  0  0  0  0
M  END
>  <minimizedAffinity>
-6.24843645

$$$$

 OpenBabel03252504433D

 42 45  0  0  0  0  0  0  0  0999 V2000
   38.3660   27.9850   42.8230 C   0  0  0  0  0  0  0  0  0  0  0  0
   37.1980   28.5970   43.1920 C   0  0  0  0  0  0  0  0  0  0  0  0
   37.1440   29.7480   42.5060 N   0  0  0  0  0  0  0  0  0  0  0  0
   38.2210   29.8850   41.7250 C   0  0  0  0  0  0  0  0  0  0  0  0
   38.9790   28.7770   41.9320 N   0  0  0  0  0  0  0  0  0  0  0  0
   38.6080   30.9180   40.8260 N   0  0  0  0  0  0  0  0  0  0  0  0
   38.1560   30.8140   39.4190 C   0  0  0  0  0  0  0  0  0  0  0  0
   37.0190   31.8280   39.2980 C   0  0  0  0  0  0  0  0  0  0  0  0
   37.4530   33.1480   39.8940 C   0  0  0  0  0  0  0  0  0  0  0  0
   38.9570   33.1890   40.0470 C   0  0  0  0  0  0  0  0  0  0  0  0
   39.3850   32.1030   41.0010 C   0  0  0  0  0  0  0  0  0  0  0  0
   36.4300   28.2770   43.8890 H   0  0  0  0  0  0  0  0  0  0  0  0
   36.3780   30.4580   42.5550 H   0  0  0  0  0  0  0  0  0  0  0  0
   38.9570   31.0540   38.7120 H   0  0  0  0  0  0  0  0  0  0  0  0
   37.6960   29.8140   39.2400 H   0  0  0  0  0  0  0  0  0  0  0  0
   36.1470   31.3930   39.8040 H   0  0  0  0  0  0  0  0  0  0  0  0
   36.8340   31.9490   38.2280 H   0  0  0  0  0  0  0  0  0  0  0  0
   37.0920   33.9590   39.2330 H   0  0  0  0  0  0  0  0  0  0  0  0
   36.9500   33.2660   40.8660 H   0  0  0  0  0  0  0  0  0  0  0  0
   39.3820   33.0690   39.0320 H   0  0  0  0  0  0  0  0  0  0  0  0
   39.2140   34.1950   40.4500 H   0  0  0  0  0  0  0  0  0  0  0  0
   40.4630   31.9030   40.7450 H   0  0  0  0  0  0  0  0  0  0  0  0
   39.3860   32.5200   42.0320 H   0  0  0  0  0  0  0  0  0  0  0  0
   38.8610   26.6770   43.3230 C   0  0  0  0  0  0  0  0  0  0  0  0
   38.2490   26.4440   44.2390 H   0  0  0  0  0  0  0  0  0  0  0  0
   39.9120   26.6820   43.6320 H   0  0  0  0  0  0  0  0  0  0  0  0
   37.3600   25.1150   42.1380 C   0  0  0  0  0  3  0  0  0  0  0  0
   38.5700   25.5990   42.3460 C   0  0  0  0  0  3  0  0  0  0  0  0
   37.2060   24.0510   41.1470 C   0  0  0  0  0  0  0  0  0  0  0  0
   38.2250   23.1130   40.8950 C   0  0  0  0  0  0  0  0  0  0  0  0
   37.9820   22.1420   39.9360 C   0  0  0  0  0  0  0  0  0  0  0  0
   36.8130   22.1240   39.2900 N   0  0  0  0  0  0  0  0  0  0  0  0
   35.8390   23.0290   39.5370 C   0  0  0  0  0  0  0  0  0  0  0  0
   36.0410   23.9630   40.4440 N   0  0  0  0  0  0  0  0  0  0  0  0
   39.1520   23.1820   41.4540 H   0  0  0  0  0  0  0  0  0  0  0  0
   38.7740   21.4290   39.7530 H   0  0  0  0  0  0  0  0  0  0  0  0
   34.5700   22.9280   38.7670 C   0  0  0  0  0  3  0  0  0  0  0  0
   34.3070   24.0910   37.8840 C   0  0  0  0  0  2  0  0  0  0  0  0
   33.1440   23.7300   36.9820 C   0  0  0  0  0  2  0  0  0  0  0  0
   32.3490   22.5760   37.5680 C   0  0  0  0  0  2  0  0  0  0  0  0
   32.1590   22.7350   39.0500 C   0  0  0  0  0  2  0  0  0  0  0  0
   33.4700   22.7410   39.7690 C   0  0  0  0  0  2  0  0  0  0  0  0
  1  2  2  0  0  0  0
  1 24  1  0  0  0  0
  2 12  1  0  0  0  0
  3 13  1  0  0  0  0
  3  2  1  0  0  0  0
  4  5  2  0  0  0  0
  4  3  1  0  0  0  0
  5  1  1  0  0  0  0
  6 11  1  0  0  0  0
  6  4  1  0  0  0  0
  7  6  1  0  0  0  0
  8  7  1  0  0  0  0
  8 16  1  0  0  0  0
  8  9  1  0  0  0  0
  9 10  1  0  0  0  0
  9 19  1  0  0  0  0
 10 21  1  0  0  0  0
 10 11  1  0  0  0  0
 11 23  1  0  0  0  0
 14  7  1  0  0  0  0
 15  7  1  0  0  0  0
 17  8  1  0  0  0  0
 18  9  1  0  0  0  0
 20 10  1  0  0  0  0
 22 11  1  0  0  0  0
 24 26  1  0  0  0  0
 24 25  1  0  0  0  0
 27 28  2  0  0  0  0
 28 24  1  0  0  0  0
 29 27  1  0  0  0  0
 30 29  1  0  0  0  0
 30 35  1  0  0  0  0
 31 30  2  0  0  0  0
 32 33  2  0  0  0  0
 32 31  1  0  0  0  0
 33 34  1  0  0  0  0
 34 29  2  0  0  0  0
 36 31  1  0  0  0  0
 37 33  1  0  0  0  0
 37 42  1  0  0  0  0
 38 37  1  0  0  0  0
 39 40  1  0  0  0  0
 39 38  1  0  0  0  0
 40 41  1  0  0  0  0
 41 42  1  0  0  0  0
M  END
>  <minimizedAffinity>
-6.14602709

$$$$

 OpenBabel03252504433D

 42 45  0  0  0  0  0  0  0  0999 V2000
   38.2170   32.4590   39.7750 C   0  0  0  0  0  0  0  0  0  0  0  0
   38.3590   33.8150   39.9010 C   0  0  0  0  0  0  0  0  0  0  0  0
   39.6380   34.0890   39.6050 N   0  0  0  0  0  0  0  0  0  0  0  0
   40.3030   32.9690   39.3000 C   0  0  0  0  0  0  0  0  0  0  0  0
   39.4050   31.9560   39.4090 N   0  0  0  0  0  0  0  0  0  0  0  0
   41.6580   32.7510   38.9250 N   0  0  0  0  0  0  0  0  0  0  0  0
   41.9930   32.8090   37.4820 C   0  0  0  0  0  0  0  0  0  0  0  0
   42.6870   34.1580   37.2980 C   0  0  0  0  0  0  0  0  0  0  0  0
   43.7450   34.3320   38.3630 C   0  0  0  0  0  0  0  0  0  0  0  0
   44.0690   33.0040   39.0080 C   0  0  0  0  0  0  0  0  0  0  0  0
   42.8330   32.4700   39.6860 C   0  0  0  0  0  0  0  0  0  0  0  0
   37.6310   34.5720   40.1790 H   0  0  0  0  0  0  0  0  0  0  0  0
   40.0800   35.0360   39.6050 H   0  0  0  0  0  0  0  0  0  0  0  0
   42.6600   31.9940   37.1820 H   0  0  0  0  0  0  0  0  0  0  0  0
   41.0580   32.8600   36.8760 H   0  0  0  0  0  0  0  0  0  0  0  0
   41.9060   34.9280   37.3360 H   0  0  0  0  0  0  0  0  0  0  0  0
   43.1580   34.1230   36.3120 H   0  0  0  0  0  0  0  0  0  0  0  0
   44.6400   34.7800   37.8900 H   0  0  0  0  0  0  0  0  0  0  0  0
   43.3690   35.0540   39.1040 H   0  0  0  0  0  0  0  0  0  0  0  0
   44.4420   32.3430   38.2020 H   0  0  0  0  0  0  0  0  0  0  0  0
   44.8780   33.1920   39.7500 H   0  0  0  0  0  0  0  0  0  0  0  0
   42.9980   31.3580   39.7520 H   0  0  0  0  0  0  0  0  0  0  0  0
   42.8180   32.8420   40.7330 H   0  0  0  0  0  0  0  0  0  0  0  0
   36.9680   31.6870   40.0010 C   0  0  0  0  0  0  0  0  0  0  0  0
   36.5150   31.5270   38.9830 H   0  0  0  0  0  0  0  0  0  0  0  0
   36.2200   32.2100   40.6070 H   0  0  0  0  0  0  0  0  0  0  0  0
   37.2530   30.0400   41.8190 C   0  0  0  0  0  3  0  0  0  0  0  0
   37.2760   30.3370   40.5330 C   0  0  0  0  0  3  0  0  0  0  0  0
   37.5770   28.6710   42.2150 C   0  0  0  0  0  0  0  0  0  0  0  0
   38.3700   28.3880   43.3420 C   0  0  0  0  0  0  0  0  0  0  0  0
   38.6210   27.0570   43.6350 C   0  0  0  0  0  0  0  0  0  0  0  0
   38.1150   26.0980   42.8530 N   0  0  0  0  0  0  0  0  0  0  0  0
   37.3560   26.3770   41.7700 C   0  0  0  0  0  0  0  0  0  0  0  0
   37.0990   27.6340   41.4690 N   0  0  0  0  0  0  0  0  0  0  0  0
   38.7510   29.2120   43.9370 H   0  0  0  0  0  0  0  0  0  0  0  0
   39.2320   26.8540   44.5040 H   0  0  0  0  0  0  0  0  0  0  0  0
   36.8360   25.2430   40.9600 C   0  0  0  0  0  3  0  0  0  0  0  0
   37.7640   24.0880   40.8760 C   0  0  0  0  0  2  0  0  0  0  0  0
   37.0030   22.9300   40.2610 C   0  0  0  0  0  2  0  0  0  0  0  0
   35.7780   23.4310   39.5140 C   0  0  0  0  0  2  0  0  0  0  0  0
   36.0870   24.6660   38.7160 C   0  0  0  0  0  2  0  0  0  0  0  0
   36.5190   25.7920   39.6000 C   0  0  0  0  0  2  0  0  0  0  0  0
  1  2  2  0  0  0  0
  1 24  1  0  0  0  0
  2 12  1  0  0  0  0
  3  2  1  0  0  0  0
  4  5  2  0  0  0  0
  4  3  1  0  0  0  0
  5  1  1  0  0  0  0
  6  4  1  0  0  0  0
  6 11  1  0  0  0  0
  7  6  1  0  0  0  0
  8 16  1  0  0  0  0
  8  7  1  0  0  0  0
  8  9  1  0  0  0  0
  9 10  1  0  0  0  0
  9 19  1  0  0  0  0
 10 11  1  0  0  0  0
 10 21  1  0  0  0  0
 11 22  1  0  0  0  0
 11 23  1  0  0  0  0
 13  3  1  0  0  0  0
 14  7  1  0  0  0  0
 15  7  1  0  0  0  0
 17  8  1  0  0  0  0
 18  9  1  0  0  0  0
 20 10  1  0  0  0  0
 24 28  1  0  0  0  0
 24 26  1  0  0  0  0
 25 24  1  0  0  0  0
 27 29  1  0  0  0  0
 28 27  2  0  0  0  0
 29 30  1  0  0  0  0
 30 31  2  0  0  0  0
 30 35  1  0  0  0  0
 31 36  1  0  0  0  0
 32 31  1  0  0  0  0
 33 32  2  0  0  0  0
 34 33  1  0  0  0  0
 34 29  2  0  0  0  0
 37 33  1  0  0  0  0
 38 37  1  0  0  0  0
 39 38  1  0  0  0  0
 40 39  1  0  0  0  0
 41 40  1  0  0  0  0
 41 42  1  0  0  0  0
 42 37  1  0  0  0  0
M  END
>  <minimizedAffinity>
-6.05207968

$$$$

 OpenBabel03252504433D

 42 45  0  0  0  0  0  0  0  0999 V2000
   38.4940   33.1990   39.7970 C   0  0  0  0  0  0  0  0  0  0  0  0
   38.6430   34.3490   40.5260 C   0  0  0  0  0  0  0  0  0  0  0  0
   39.8700   34.2960   41.0650 N   0  0  0  0  0  0  0  0  0  0  0  0
   40.4960   33.1690   40.7070 C   0  0  0  0  0  0  0  0  0  0  0  0
   39.6260   32.4910   39.9150 N   0  0  0  0  0  0  0  0  0  0  0  0
   41.7920   32.6710   41.0200 N   0  0  0  0  0  0  0  0  0  0  0  0
   42.9110   33.0460   40.1240 C   0  0  0  0  0  0  0  0  0  0  0  0
   43.6860   34.1130   40.8960 C   0  0  0  0  0  0  0  0  0  0  0  0
   43.9310   33.6370   42.3100 C   0  0  0  0  0  0  0  0  0  0  0  0
   43.7090   32.1460   42.4110 C   0  0  0  0  0  0  0  0  0  0  0  0
   42.2710   31.8370   42.0750 C   0  0  0  0  0  0  0  0  0  0  0  0
   37.9540   35.1730   40.6810 H   0  0  0  0  0  0  0  0  0  0  0  0
   40.3020   35.0200   41.6810 H   0  0  0  0  0  0  0  0  0  0  0  0
   43.5590   32.1930   39.8980 H   0  0  0  0  0  0  0  0  0  0  0  0
   42.5150   33.5540   39.2130 H   0  0  0  0  0  0  0  0  0  0  0  0
   43.0950   35.0370   40.8480 H   0  0  0  0  0  0  0  0  0  0  0  0
   44.6410   34.2290   40.3750 H   0  0  0  0  0  0  0  0  0  0  0  0
   44.9660   33.9120   42.5910 H   0  0  0  0  0  0  0  0  0  0  0  0
   43.2510   34.1880   42.9780 H   0  0  0  0  0  0  0  0  0  0  0  0
   44.4290   31.6710   41.7170 H   0  0  0  0  0  0  0  0  0  0  0  0
   43.9420   31.8530   43.4600 H   0  0  0  0  0  0  0  0  0  0  0  0
   42.2770   30.7600   41.7480 H   0  0  0  0  0  0  0  0  0  0  0  0
   41.6760   31.8710   43.0130 H   0  0  0  0  0  0  0  0  0  0  0  0
   37.2920   32.8110   39.0150 C   0  0  0  0  0  0  0  0  0  0  0  0
   37.4770   33.1720   37.9640 H   0  0  0  0  0  0  0  0  0  0  0  0
   36.3630   33.2800   39.3570 H   0  0  0  0  0  0  0  0  0  0  0  0
   36.3630   30.6250   39.6890 C   0  0  0  0  0  3  0  0  0  0  0  0
   37.1770   31.3340   38.9300 C   0  0  0  0  0  3  0  0  0  0  0  0
   36.3440   29.1740   39.5070 C   0  0  0  0  0  0  0  0  0  0  0  0
   35.5980   28.5610   38.4830 C   0  0  0  0  0  0  0  0  0  0  0  0
   35.6460   27.1780   38.3940 C   0  0  0  0  0  0  0  0  0  0  0  0
   36.3820   26.4810   39.2640 N   0  0  0  0  0  0  0  0  0  0  0  0
   37.0940   27.0770   40.2460 C   0  0  0  0  0  0  0  0  0  0  0  0
   37.0690   28.3900   40.3550 N   0  0  0  0  0  0  0  0  0  0  0  0
   35.0210   29.1830   37.8080 H   0  0  0  0  0  0  0  0  0  0  0  0
   35.0670   26.7200   37.6020 H   0  0  0  0  0  0  0  0  0  0  0  0
   37.8830   26.2180   41.1680 C   0  0  0  0  0  3  0  0  0  0  0  0
   37.1220   25.0710   41.7240 C   0  0  0  0  0  2  0  0  0  0  0  0
   38.1110   24.1530   42.4140 C   0  0  0  0  0  2  0  0  0  0  0  0
   39.3980   24.8950   42.7350 C   0  0  0  0  0  2  0  0  0  0  0  0
   39.1200   26.2740   43.2650 C   0  0  0  0  0  2  0  0  0  0  0  0
   38.4020   27.1110   42.2560 C   0  0  0  0  0  2  0  0  0  0  0  0
  1  5  1  0  0  0  0
  1  2  2  0  0  0  0
  2 12  1  0  0  0  0
  2  3  1  0  0  0  0
  3 13  1  0  0  0  0
  4  6  1  0  0  0  0
  4  3  1  0  0  0  0
  5  4  2  0  0  0  0
  6 11  1  0  0  0  0
  7  8  1  0  0  0  0
  7  6  1  0  0  0  0
  8  9  1  0  0  0  0
  9 10  1  0  0  0  0
  9 18  1  0  0  0  0
  9 19  1  0  0  0  0
 10 21  1  0  0  0  0
 11 10  1  0  0  0  0
 11 23  1  0  0  0  0
 14  7  1  0  0  0  0
 15  7  1  0  0  0  0
 16  8  1  0  0  0  0
 17  8  1  0  0  0  0
 20 10  1  0  0  0  0
 22 11  1  0  0  0  0
 24 26  1  0  0  0  0
 24  1  1  0  0  0  0
 25 24  1  0  0  0  0
 28 24  1  0  0  0  0
 28 27  2  0  0  0  0
 29 27  1  0  0  0  0
 29 34  1  0  0  0  0
 30 29  2  0  0  0  0
 31 30  1  0  0  0  0
 31 32  2  0  0  0  0
 32 33  1  0  0  0  0
 33 34  2  0  0  0  0
 33 37  1  0  0  0  0
 35 30  1  0  0  0  0
 36 31  1  0  0  0  0
 37 38  1  0  0  0  0
 37 42  1  0  0  0  0
 38 39  1  0  0  0  0
 39 40  1  0  0  0  0
 40 41  1  0  0  0  0
 42 41  1  0  0  0  0
M  END
>  <minimizedAffinity>
-6.00961304

$$$$

 OpenBabel03252504433D

 42 45  0  0  0  0  0  0  0  0999 V2000
   37.7570   31.8600   40.5600 C   0  0  0  0  0  0  0  0  0  0  0  0
   36.5700   31.3090   40.1580 C   0  0  0  0  0  0  0  0  0  0  0  0
   36.5430   30.0660   40.6620 N   0  0  0  0  0  0  0  0  0  0  0  0
   37.6550   29.8140   41.3610 C   0  0  0  0  0  0  0  0  0  0  0  0
   38.4080   30.9430   41.2900 N   0  0  0  0  0  0  0  0  0  0  0  0
   38.0800   28.6570   42.0720 N   0  0  0  0  0  0  0  0  0  0  0  0
   37.6950   28.5440   43.4980 C   0  0  0  0  0  0  0  0  0  0  0  0
   36.5600   27.5200   43.5160 C   0  0  0  0  0  0  0  0  0  0  0  0
   36.9600   26.3080   42.7050 C   0  0  0  0  0  0  0  0  0  0  0  0
   38.4540   26.2950   42.4770 C   0  0  0  0  0  0  0  0  0  0  0  0
   38.8420   27.5150   41.6810 C   0  0  0  0  0  0  0  0  0  0  0  0
   35.7720   31.7300   39.5550 H   0  0  0  0  0  0  0  0  0  0  0  0
   35.7720   29.3710   40.5420 H   0  0  0  0  0  0  0  0  0  0  0  0
   38.5280   28.2000   44.1210 H   0  0  0  0  0  0  0  0  0  0  0  0
   37.2480   29.5030   43.8500 H   0  0  0  0  0  0  0  0  0  0  0  0
   35.6680   28.0250   43.1250 H   0  0  0  0  0  0  0  0  0  0  0  0
   36.4260   27.2370   44.5630 H   0  0  0  0  0  0  0  0  0  0  0  0
   36.6260   25.4040   43.2510 H   0  0  0  0  0  0  0  0  0  0  0  0
   36.4100   26.3380   41.7520 H   0  0  0  0  0  0  0  0  0  0  0  0
   38.9270   26.2600   43.4770 H   0  0  0  0  0  0  0  0  0  0  0  0
   38.6870   25.3630   41.9130 H   0  0  0  0  0  0  0  0  0  0  0  0
   39.9320   27.6760   41.9130 H   0  0  0  0  0  0  0  0  0  0  0  0
   38.7920   27.2600   40.6000 H   0  0  0  0  0  0  0  0  0  0  0  0
   38.2340   33.2310   40.2440 C   0  0  0  0  0  0  0  0  0  0  0  0
   38.2150   33.7970   41.2170 H   0  0  0  0  0  0  0  0  0  0  0  0
   37.5970   33.7780   39.5410 H   0  0  0  0  0  0  0  0  0  0  0  0
   40.6570   33.5580   40.5900 C   0  0  0  0  0  3  0  0  0  0  0  0
   39.6530   33.2050   39.8100 C   0  0  0  0  0  3  0  0  0  0  0  0
   42.0110   33.4880   40.0410 C   0  0  0  0  0  0  0  0  0  0  0  0
   43.0760   34.2270   40.5880 C   0  0  0  0  0  0  0  0  0  0  0  0
   44.3230   34.0920   39.9970 C   0  0  0  0  0  0  0  0  0  0  0  0
   44.4750   33.2820   38.9460 N   0  0  0  0  0  0  0  0  0  0  0  0
   43.4460   32.5760   38.4240 C   0  0  0  0  0  0  0  0  0  0  0  0
   42.2500   32.6830   38.9670 N   0  0  0  0  0  0  0  0  0  0  0  0
   42.8870   34.8670   41.4440 H   0  0  0  0  0  0  0  0  0  0  0  0
   45.1320   34.6670   40.4280 H   0  0  0  0  0  0  0  0  0  0  0  0
   43.7130   31.7000   37.2530 C   0  0  0  0  0  3  0  0  0  0  0  0
   42.7660   30.5640   37.1210 C   0  0  0  0  0  2  0  0  0  0  0  0
   42.9910   29.9330   35.7620 C   0  0  0  0  0  2  0  0  0  0  0  0
   44.3550   30.3130   35.2130 C   0  0  0  0  0  2  0  0  0  0  0  0
   45.4130   30.2530   36.2790 C   0  0  0  0  0  2  0  0  0  0  0  0
   45.1280   31.2210   37.3830 C   0  0  0  0  0  2  0  0  0  0  0  0
  1  5  1  0  0  0  0
  2  1  2  0  0  0  0
  2  3  1  0  0  0  0
  3  4  1  0  0  0  0
  4  6  1  0  0  0  0
  5  4  2  0  0  0  0
  6  7  1  0  0  0  0
  7  8  1  0  0  0  0
  7 15  1  0  0  0  0
  7 14  1  0  0  0  0
  8 17  1  0  0  0  0
  9 18  1  0  0  0  0
  9  8  1  0  0  0  0
 10  9  1  0  0  0  0
 10 20  1  0  0  0  0
 11 22  1  0  0  0  0
 11  6  1  0  0  0  0
 11 10  1  0  0  0  0
 12  2  1  0  0  0  0
 13  3  1  0  0  0  0
 16  8  1  0  0  0  0
 19  9  1  0  0  0  0
 21 10  1  0  0  0  0
 23 11  1  0  0  0  0
 24  1  1  0  0  0  0
 24 25  1  0  0  0  0
 26 24  1  0  0  0  0
 28 24  1  0  0  0  0
 28 27  2  0  0  0  0
 29 30  1  0  0  0  0
 29 27  1  0  0  0  0
 30 35  1  0  0  0  0
 31 36  1  0  0  0  0
 31 30  2  0  0  0  0
 32 31  1  0  0  0  0
 33 32  2  0  0  0  0
 33 34  1  0  0  0  0
 34 29  2  0  0  0  0
 37 42  1  0  0  0  0
 37 33  1  0  0  0  0
 38 37  1  0  0  0  0
 39 38  1  0  0  0  0
 40 39  1  0  0  0  0
 40 41  1  0  0  0  0
 41 42  1  0  0  0  0
M  END
>  <minimizedAffinity>
-5.90894222

$$$$

 OpenBabel03252504433D

 42 45  0  0  0  0  0  0  0  0999 V2000
   36.3930   28.3300   37.8250 C   0  0  0  0  0  0  0  0  0  0  0  0
   35.4540   27.3340   37.8340 C   0  0  0  0  0  0  0  0  0  0  0  0
   35.9060   26.3990   38.6830 N   0  0  0  0  0  0  0  0  0  0  0  0
   37.0820   26.7630   39.2060 C   0  0  0  0  0  0  0  0  0  0  0  0
   37.3780   27.9720   38.6610 N   0  0  0  0  0  0  0  0  0  0  0  0
   37.9400   26.1150   40.1390 N   0  0  0  0  0  0  0  0  0  0  0  0
   37.7240   26.3880   41.5790 C   0  0  0  0  0  0  0  0  0  0  0  0
   37.0310   25.1350   42.1130 C   0  0  0  0  0  0  0  0  0  0  0  0
   37.7750   23.9060   41.6430 C   0  0  0  0  0  0  0  0  0  0  0  0
   39.1560   24.2790   41.1560 C   0  0  0  0  0  0  0  0  0  0  0  0
   39.0280   25.2060   39.9730 C   0  0  0  0  0  0  0  0  0  0  0  0
   34.5170   27.2510   37.2930 H   0  0  0  0  0  0  0  0  0  0  0  0
   35.4260   25.5020   38.9230 H   0  0  0  0  0  0  0  0  0  0  0  0
   38.6670   26.5570   42.1100 H   0  0  0  0  0  0  0  0  0  0  0  0
   36.9920   27.2200   41.7040 H   0  0  0  0  0  0  0  0  0  0  0  0
   35.9920   25.1700   41.7620 H   0  0  0  0  0  0  0  0  0  0  0  0
   37.0820   25.2040   43.2030 H   0  0  0  0  0  0  0  0  0  0  0  0
   37.8250   23.1900   42.4870 H   0  0  0  0  0  0  0  0  0  0  0  0
   37.1840   23.4330   40.8450 H   0  0  0  0  0  0  0  0  0  0  0  0
   39.6820   24.7400   42.0140 H   0  0  0  0  0  0  0  0  0  0  0  0
   39.6640   23.3320   40.8640 H   0  0  0  0  0  0  0  0  0  0  0  0
   40.0030   25.7670   39.9390 H   0  0  0  0  0  0  0  0  0  0  0  0
   38.9940   24.5910   39.0470 H   0  0  0  0  0  0  0  0  0  0  0  0
   36.3290   29.5830   37.0290 C   0  0  0  0  0  0  0  0  0  0  0  0
   35.2910   29.9920   37.1820 H   0  0  0  0  0  0  0  0  0  0  0  0
   36.4620   29.4380   35.9520 H   0  0  0  0  0  0  0  0  0  0  0  0
   36.9580   31.3870   38.5940 C   0  0  0  0  0  3  0  0  0  0  0  0
   37.2590   30.6000   37.5780 C   0  0  0  0  0  3  0  0  0  0  0  0
   37.9640   32.3500   39.0390 C   0  0  0  0  0  0  0  0  0  0  0  0
   37.6450   33.4150   39.9020 C   0  0  0  0  0  0  0  0  0  0  0  0
   38.6700   34.2750   40.2680 C   0  0  0  0  0  0  0  0  0  0  0  0
   39.9050   34.0730   39.7990 N   0  0  0  0  0  0  0  0  0  0  0  0
   40.2030   33.0490   38.9690 C   0  0  0  0  0  0  0  0  0  0  0  0
   39.2500   32.2150   38.6060 N   0  0  0  0  0  0  0  0  0  0  0  0
   36.6230   33.5240   40.2490 H   0  0  0  0  0  0  0  0  0  0  0  0
   38.4110   35.0890   40.9310 H   0  0  0  0  0  0  0  0  0  0  0  0
   41.6060   32.9060   38.4990 C   0  0  0  0  0  3  0  0  0  0  0  0
   42.1970   34.1610   37.9720 C   0  0  0  0  0  2  0  0  0  0  0  0
   43.6840   33.9290   37.7890 C   0  0  0  0  0  2  0  0  0  0  0  0
   43.9900   32.4420   37.7240 C   0  0  0  0  0  2  0  0  0  0  0  0
   42.9820   31.7090   36.8850 C   0  0  0  0  0  2  0  0  0  0  0  0
   41.6070   31.8220   37.4620 C   0  0  0  0  0  2  0  0  0  0  0  0
  1  2  2  0  0  0  0
  1  5  1  0  0  0  0
  2  3  1  0  0  0  0
  3 13  1  0  0  0  0
  3  4  1  0  0  0  0
  4  6  1  0  0  0  0
  5  4  2  0  0  0  0
  6  7  1  0  0  0  0
  7 15  1  0  0  0  0
  7 14  1  0  0  0  0
  7  8  1  0  0  0  0
  8 17  1  0  0  0  0
  9  8  1  0  0  0  0
  9 18  1  0  0  0  0
 10  9  1  0  0  0  0
 10 20  1  0  0  0  0
 11  6  1  0  0  0  0
 11 10  1  0  0  0  0
 12  2  1  0  0  0  0
 16  8  1  0  0  0  0
 19  9  1  0  0  0  0
 21 10  1  0  0  0  0
 22 11  1  0  0  0  0
 23 11  1  0  0  0  0
 24 25  1  0  0  0  0
 24 28  1  0  0  0  0
 24  1  1  0  0  0  0
 26 24  1  0  0  0  0
 27 29  1  0  0  0  0
 28 27  2  0  0  0  0
 29 30  1  0  0  0  0
 30 35  1  0  0  0  0
 30 31  2  0  0  0  0
 31 36  1  0  0  0  0
 32 31  1  0  0  0  0
 33 32  2  0  0  0  0
 34 33  1  0  0  0  0
 34 29  2  0  0  0  0
 37 33  1  0  0  0  0
 38 37  1  0  0  0  0
 39 38  1  0  0  0  0
 40 39  1  0  0  0  0
 41 42  1  0  0  0  0
 41 40  1  0  0  0  0
 42 37  1  0  0  0  0
M  END
>  <minimizedAffinity>
-5.82272482

$$$$

 OpenBabel03252504433D

 42 45  0  0  0  0  0  0  0  0999 V2000
   36.8080   29.5280   40.5530 C   0  0  0  0  0  0  0  0  0  0  0  0
   37.9230   29.1260   41.2380 C   0  0  0  0  0  0  0  0  0  0  0  0
   38.9250   29.9140   40.8190 N   0  0  0  0  0  0  0  0  0  0  0  0
   38.4900   30.7890   39.9060 C   0  0  0  0  0  0  0  0  0  0  0  0
   37.1640   30.5380   39.7470 N   0  0  0  0  0  0  0  0  0  0  0  0
   39.1650   31.8120   39.1830 N   0  0  0  0  0  0  0  0  0  0  0  0
   39.2280   33.1610   39.7920 C   0  0  0  0  0  0  0  0  0  0  0  0
   40.6570   33.2860   40.3170 C   0  0  0  0  0  0  0  0  0  0  0  0
   41.6300   32.8580   39.2420 C   0  0  0  0  0  0  0  0  0  0  0  0
   40.9480   32.8320   37.8930 C   0  0  0  0  0  0  0  0  0  0  0  0
   39.8350   31.8150   37.9230 C   0  0  0  0  0  0  0  0  0  0  0  0
   38.0450   28.3420   41.9780 H   0  0  0  0  0  0  0  0  0  0  0  0
   39.9170   29.8720   41.1450 H   0  0  0  0  0  0  0  0  0  0  0  0
   39.0200   33.9500   39.0620 H   0  0  0  0  0  0  0  0  0  0  0  0
   38.5670   33.2050   40.6900 H   0  0  0  0  0  0  0  0  0  0  0  0
   40.7200   32.6720   41.2250 H   0  0  0  0  0  0  0  0  0  0  0  0
   40.8030   34.3450   40.5470 H   0  0  0  0  0  0  0  0  0  0  0  0
   42.4840   33.5620   39.2500 H   0  0  0  0  0  0  0  0  0  0  0  0
   42.0210   31.8650   39.5110 H   0  0  0  0  0  0  0  0  0  0  0  0
   40.5920   33.8610   37.6990 H   0  0  0  0  0  0  0  0  0  0  0  0
   41.7230   32.5500   37.1440 H   0  0  0  0  0  0  0  0  0  0  0  0
   39.1290   32.1370   37.1070 H   0  0  0  0  0  0  0  0  0  0  0  0
   40.2470   30.8330   37.6030 H   0  0  0  0  0  0  0  0  0  0  0  0
   35.4470   28.9460   40.6830 C   0  0  0  0  0  0  0  0  0  0  0  0
   34.9140   29.5770   41.4490 H   0  0  0  0  0  0  0  0  0  0  0  0
   35.4320   27.9140   41.0490 H   0  0  0  0  0  0  0  0  0  0  0  0
   34.7480   28.2390   38.4220 C   0  0  0  0  0  3  0  0  0  0  0  0
   34.6870   29.1030   39.4190 C   0  0  0  0  0  3  0  0  0  0  0  0
   33.9500   28.5090   37.2280 C   0  0  0  0  0  0  0  0  0  0  0  0
   34.2950   27.9880   35.9670 C   0  0  0  0  0  0  0  0  0  0  0  0
   33.4730   28.3010   34.8950 C   0  0  0  0  0  0  0  0  0  0  0  0
   32.3990   29.0740   35.0850 N   0  0  0  0  0  0  0  0  0  0  0  0
   32.0750   29.5720   36.2990 C   0  0  0  0  0  0  0  0  0  0  0  0
   32.8370   29.2890   37.3370 N   0  0  0  0  0  0  0  0  0  0  0  0
   35.1800   27.3670   35.8790 H   0  0  0  0  0  0  0  0  0  0  0  0
   33.7510   27.8950   33.9320 H   0  0  0  0  0  0  0  0  0  0  0  0
   30.8600   30.4220   36.4130 C   0  0  0  0  0  3  0  0  0  0  0  0
   30.9710   31.7280   35.7160 C   0  0  0  0  0  2  0  0  0  0  0  0
   29.5910   32.3540   35.6900 C   0  0  0  0  0  2  0  0  0  0  0  0
   28.6990   31.7310   36.7500 C   0  0  0  0  0  2  0  0  0  0  0  0
   29.4370   31.5370   38.0450 C   0  0  0  0  0  2  0  0  0  0  0  0
   30.5930   30.6030   37.8780 C   0  0  0  0  0  2  0  0  0  0  0  0
  1 24  1  0  0  0  0
  1  2  2  0  0  0  0
  2 12  1  0  0  0  0
  3 13  1  0  0  0  0
  3  2  1  0  0  0  0
  4  3  1  0  0  0  0
  5  4  2  0  0  0  0
  5  1  1  0  0  0  0
  6  7  1  0  0  0  0
  6  4  1  0  0  0  0
  7  8  1  0  0  0  0
  7 15  1  0  0  0  0
  8 17  1  0  0  0  0
  8 16  1  0  0  0  0
  9 18  1  0  0  0  0
  9 19  1  0  0  0  0
  9  8  1  0  0  0  0
 10 11  1  0  0  0  0
 10  9  1  0  0  0  0
 11  6  1  0  0  0  0
 14  7  1  0  0  0  0
 20 10  1  0  0  0  0
 21 10  1  0  0  0  0
 22 11  1  0  0  0  0
 23 11  1  0  0  0  0
 24 26  1  0  0  0  0
 24 25  1  0  0  0  0
 27 28  2  0  0  0  0
 28 24  1  0  0  0  0
 29 34  1  0  0  0  0
 29 27  1  0  0  0  0
 30 29  2  0  0  0  0
 31 32  2  0  0  0  0
 31 30  1  0  0  0  0
 32 33  1  0  0  0  0
 33 37  1  0  0  0  0
 33 34  2  0  0  0  0
 35 30  1  0  0  0  0
 36 31  1  0  0  0  0
 37 42  1  0  0  0  0
 38 37  1  0  0  0  0
 39 38  1  0  0  0  0
 39 40  1  0  0  0  0
 40 41  1  0  0  0  0
 42 41  1  0  0  0  0
M  END
>  <minimizedAffinity>
-5.75292206

$$$$

 OpenBabel03252504433D

 42 45  0  0  0  0  0  0  0  0999 V2000
   36.6270   30.1900   39.7600 C   0  0  0  0  0  0  0  0  0  0  0  0
   35.9620   30.0960   40.9530 C   0  0  0  0  0  0  0  0  0  0  0  0
   36.0920   28.8230   41.3570 N   0  0  0  0  0  0  0  0  0  0  0  0
   36.8060   28.1170   40.4740 C   0  0  0  0  0  0  0  0  0  0  0  0
   37.1350   28.9820   39.4790 N   0  0  0  0  0  0  0  0  0  0  0  0
   37.2050   26.7510   40.4610 N   0  0  0  0  0  0  0  0  0  0  0  0
   38.4930   26.4030   41.1050 C   0  0  0  0  0  0  0  0  0  0  0  0
   38.1020   25.7530   42.4320 C   0  0  0  0  0  0  0  0  0  0  0  0
   37.0320   24.7130   42.1900 C   0  0  0  0  0  0  0  0  0  0  0  0
   36.9690   24.3510   40.7230 C   0  0  0  0  0  0  0  0  0  0  0  0
   36.5930   25.5770   39.9290 C   0  0  0  0  0  0  0  0  0  0  0  0
   35.4200   30.8510   41.5140 H   0  0  0  0  0  0  0  0  0  0  0  0
   35.7000   28.4140   42.2350 H   0  0  0  0  0  0  0  0  0  0  0  0
   39.0800   25.7050   40.4980 H   0  0  0  0  0  0  0  0  0  0  0  0
   39.0500   27.3320   41.3710 H   0  0  0  0  0  0  0  0  0  0  0  0
   37.7760   26.5600   43.1000 H   0  0  0  0  0  0  0  0  0  0  0  0
   39.0070   25.2700   42.8100 H   0  0  0  0  0  0  0  0  0  0  0  0
   37.2630   23.8290   42.8140 H   0  0  0  0  0  0  0  0  0  0  0  0
   36.0720   25.1220   42.5410 H   0  0  0  0  0  0  0  0  0  0  0  0
   37.9640   23.9470   40.4540 H   0  0  0  0  0  0  0  0  0  0  0  0
   36.1950   23.5580   40.6180 H   0  0  0  0  0  0  0  0  0  0  0  0
   36.9760   25.3750   38.8890 H   0  0  0  0  0  0  0  0  0  0  0  0
   35.4850   25.6160   39.8460 H   0  0  0  0  0  0  0  0  0  0  0  0
   36.7600   31.4140   38.9290 C   0  0  0  0  0  0  0  0  0  0  0  0
   36.3010   32.2480   39.5320 H   0  0  0  0  0  0  0  0  0  0  0  0
   36.2210   31.3720   37.9770 H   0  0  0  0  0  0  0  0  0  0  0  0
   38.7870   32.7330   39.4300 C   0  0  0  0  0  3  0  0  0  0  0  0
   38.1880   31.7730   38.7500 C   0  0  0  0  0  3  0  0  0  0  0  0
   40.2010   32.9890   39.1580 C   0  0  0  0  0  0  0  0  0  0  0  0
   40.9150   34.0040   39.8210 C   0  0  0  0  0  0  0  0  0  0  0  0
   42.2520   34.1670   39.4940 C   0  0  0  0  0  0  0  0  0  0  0  0
   42.8140   33.3740   38.5770 N   0  0  0  0  0  0  0  0  0  0  0  0
   42.1200   32.4010   37.9430 C   0  0  0  0  0  0  0  0  0  0  0  0
   40.8480   32.2220   38.2350 N   0  0  0  0  0  0  0  0  0  0  0  0
   40.4020   34.6140   40.5560 H   0  0  0  0  0  0  0  0  0  0  0  0
   42.7890   34.9520   40.0100 H   0  0  0  0  0  0  0  0  0  0  0  0
   42.8310   31.5680   36.9370 C   0  0  0  0  0  3  0  0  0  0  0  0
   42.4230   30.1410   36.9390 C   0  0  0  0  0  2  0  0  0  0  0  0
   43.0200   29.4890   35.7080 C   0  0  0  0  0  2  0  0  0  0  0  0
   44.1770   30.3150   35.1730 C   0  0  0  0  0  2  0  0  0  0  0  0
   45.0540   30.8180   36.2840 C   0  0  0  0  0  2  0  0  0  0  0  0
   44.2980   31.7180   37.2090 C   0  0  0  0  0  2  0  0  0  0  0  0
  1  2  2  0  0  0  0
  2  3  1  0  0  0  0
  2 12  1  0  0  0  0
  3 13  1  0  0  0  0
  4  3  1  0  0  0  0
  5  1  1  0  0  0  0
  5  4  2  0  0  0  0
  6  4  1  0  0  0  0
  6  7  1  0  0  0  0
  7 15  1  0  0  0  0
  7  8  1  0  0  0  0
  8 17  1  0  0  0  0
  8 16  1  0  0  0  0
  9  8  1  0  0  0  0
  9 19  1  0  0  0  0
  9 18  1  0  0  0  0
 10  9  1  0  0  0  0
 11  6  1  0  0  0  0
 11 10  1  0  0  0  0
 14  7  1  0  0  0  0
 20 10  1  0  0  0  0
 21 10  1  0  0  0  0
 22 11  1  0  0  0  0
 23 11  1  0  0  0  0
 24 25  1  0  0  0  0
 24  1  1  0  0  0  0
 26 24  1  0  0  0  0
 28 24  1  0  0  0  0
 28 27  2  0  0  0  0
 29 27  1  0  0  0  0
 29 30  1  0  0  0  0
 30 35  1  0  0  0  0
 31 30  2  0  0  0  0
 31 36  1  0  0  0  0
 32 31  1  0  0  0  0
 33 34  1  0  0  0  0
 33 32  2  0  0  0  0
 34 29  2  0  0  0  0
 37 38  1  0  0  0  0
 37 42  1  0  0  0  0
 37 33  1  0  0  0  0
 39 38  1  0  0  0  0
 40 39  1  0  0  0  0
 40 41  1  0  0  0  0
 41 42  1  0  0  0  0
M  END
>  <minimizedAffinity>
-5.74858284

$$$$

 OpenBabel03252504433D

 42 45  0  0  0  0  0  0  0  0999 V2000
   36.5730   30.1410   37.3900 C   0  0  0  0  0  0  0  0  0  0  0  0
   37.2850   30.7550   36.3940 C   0  0  0  0  0  0  0  0  0  0  0  0
   38.0770   31.6520   36.9980 N   0  0  0  0  0  0  0  0  0  0  0  0
   37.8970   31.6290   38.3230 C   0  0  0  0  0  0  0  0  0  0  0  0
   36.9530   30.6800   38.5570 N   0  0  0  0  0  0  0  0  0  0  0  0
   38.4980   32.3820   39.3700 N   0  0  0  0  0  0  0  0  0  0  0  0
   39.7380   31.8460   39.9810 C   0  0  0  0  0  0  0  0  0  0  0  0
   40.8610   32.7050   39.4010 C   0  0  0  0  0  0  0  0  0  0  0  0
   40.4900   34.1660   39.5140 C   0  0  0  0  0  0  0  0  0  0  0  0
   39.3580   34.3490   40.4990 C   0  0  0  0  0  0  0  0  0  0  0  0
   38.1410   33.6150   39.9940 C   0  0  0  0  0  0  0  0  0  0  0  0
   37.2620   30.5990   35.3200 H   0  0  0  0  0  0  0  0  0  0  0  0
   38.7530   32.2940   36.5230 H   0  0  0  0  0  0  0  0  0  0  0  0
   39.7230   31.9240   41.0730 H   0  0  0  0  0  0  0  0  0  0  0  0
   39.9250   30.8090   39.6150 H   0  0  0  0  0  0  0  0  0  0  0  0
   41.0110   32.3780   38.3640 H   0  0  0  0  0  0  0  0  0  0  0  0
   41.7440   32.4990   40.0110 H   0  0  0  0  0  0  0  0  0  0  0  0
   41.3920   34.7270   39.8280 H   0  0  0  0  0  0  0  0  0  0  0  0
   40.2100   34.5270   38.5130 H   0  0  0  0  0  0  0  0  0  0  0  0
   39.7210   33.9690   41.4740 H   0  0  0  0  0  0  0  0  0  0  0  0
   39.1600   35.4420   40.5680 H   0  0  0  0  0  0  0  0  0  0  0  0
   37.5190   33.4210   40.9130 H   0  0  0  0  0  0  0  0  0  0  0  0
   37.5480   34.3110   39.3620 H   0  0  0  0  0  0  0  0  0  0  0  0
   35.5620   29.0670   37.2060 C   0  0  0  0  0  0  0  0  0  0  0  0
   35.7410   28.6490   36.1750 H   0  0  0  0  0  0  0  0  0  0  0  0
   34.5250   29.4170   37.2360 H   0  0  0  0  0  0  0  0  0  0  0  0
   35.9920   26.7020   37.7690 C   0  0  0  0  0  3  0  0  0  0  0  0
   35.8050   27.9510   38.1520 C   0  0  0  0  0  3  0  0  0  0  0  0
   36.2210   25.6930   38.8020 C   0  0  0  0  0  0  0  0  0  0  0  0
   35.5470   24.4580   38.8000 C   0  0  0  0  0  0  0  0  0  0  0  0
   35.8330   23.5670   39.8230 C   0  0  0  0  0  0  0  0  0  0  0  0
   36.7220   23.9000   40.7640 N   0  0  0  0  0  0  0  0  0  0  0  0
   37.3650   25.0890   40.7600 C   0  0  0  0  0  0  0  0  0  0  0  0
   37.1130   25.9550   39.7990 N   0  0  0  0  0  0  0  0  0  0  0  0
   34.8370   24.2470   38.0070 H   0  0  0  0  0  0  0  0  0  0  0  0
   35.3070   22.6220   39.8090 H   0  0  0  0  0  0  0  0  0  0  0  0
   38.3370   25.3700   41.8500 C   0  0  0  0  0  3  0  0  0  0  0  0
   38.2880   26.7640   42.3580 C   0  0  0  0  0  2  0  0  0  0  0  0
   39.1250   26.8240   43.6200 C   0  0  0  0  0  2  0  0  0  0  0  0
   40.0890   25.6510   43.6800 C   0  0  0  0  0  2  0  0  0  0  0  0
   40.7220   25.3910   42.3420 C   0  0  0  0  0  2  0  0  0  0  0  0
   39.6960   25.0300   41.3150 C   0  0  0  0  0  2  0  0  0  0  0  0
  1  5  1  0  0  0  0
  2  3  1  0  0  0  0
  2  1  2  0  0  0  0
  3  4  1  0  0  0  0
  4  5  2  0  0  0  0
  4  6  1  0  0  0  0
  6  7  1  0  0  0  0
  6 11  1  0  0  0  0
  7 14  1  0  0  0  0
  8  9  1  0  0  0  0
  8  7  1  0  0  0  0
  8 17  1  0  0  0  0
  9 18  1  0  0  0  0
  9 10  1  0  0  0  0
 10 21  1  0  0  0  0
 10 20  1  0  0  0  0
 11 10  1  0  0  0  0
 11 22  1  0  0  0  0
 12  2  1  0  0  0  0
 13  3  1  0  0  0  0
 15  7  1  0  0  0  0
 16  8  1  0  0  0  0
 19  9  1  0  0  0  0
 23 11  1  0  0  0  0
 24 26  1  0  0  0  0
 24  1  1  0  0  0  0
 24 28  1  0  0  0  0
 25 24  1  0  0  0  0
 27 28  2  0  0  0  0
 27 29  1  0  0  0  0
 29 34  1  0  0  0  0
 30 29  2  0  0  0  0
 30 31  1  0  0  0  0
 31 32  2  0  0  0  0
 33 32  1  0  0  0  0
 33 37  1  0  0  0  0
 34 33  2  0  0  0  0
 35 30  1  0  0  0  0
 36 31  1  0  0  0  0
 37 38  1  0  0  0  0
 38 39  1  0  0  0  0
 39 40  1  0  0  0  0
 41 40  1  0  0  0  0
 42 37  1  0  0  0  0
 42 41  1  0  0  0  0
M  END
>  <minimizedAffinity>
-5.72926378

$$$$
