
 OpenBabel03252506593D

 21 22  0  0  0  0  0  0  0  0999 V2000
   38.9200   29.0960   42.9490 C   0  0  0  0  0  0  0  0  0  0  0  0
   39.1540   29.5890   43.9380 H   0  0  0  0  0  0  0  0  0  0  0  0
   39.8670   28.7380   42.5670 H   0  0  0  0  0  0  0  0  0  0  0  0
   38.2280   30.0380   42.0670 C   0  0  0  0  0  0  0  0  0  0  0  0
   36.8820   29.8910   41.7610 C   0  0  0  0  0  0  0  0  0  0  0  0
   36.2940   30.8490   40.9010 C   0  0  0  0  0  0  0  0  0  0  0  0
   37.0890   31.8590   40.4270 N   0  0  0  0  0  0  0  0  0  0  0  0
   38.4010   31.9550   40.7600 C   0  0  0  0  0  0  0  0  0  0  0  0
   38.9580   31.0390   41.5800 N   0  0  0  0  0  0  0  0  0  0  0  0
   36.2900   29.0830   42.1530 H   0  0  0  0  0  0  0  0  0  0  0  0
   35.2610   30.7470   40.6580 H   0  0  0  0  0  0  0  0  0  0  0  0
   38.9500   32.7850   40.3380 H   0  0  0  0  0  0  0  0  0  0  0  0
   38.0420   27.8870   43.1510 C   0  0  0  0  0  0  0  0  0  0  0  0
   37.0050   28.2180   42.9100 H   0  0  0  0  0  0  0  0  0  0  0  0
   38.0320   27.5540   44.2010 H   0  0  0  0  0  0  0  0  0  0  0  0
   38.4640   26.7430   42.2190 C   0  0  0  0  0  3  0  0  0  0  0  0
   39.4730   25.8870   42.8500 C   0  0  0  0  0  2  0  0  0  0  0  0
   39.2590   24.4120   42.8060 C   0  0  0  0  0  2  0  0  0  0  0  0
   38.2750   23.9590   41.7670 C   0  0  0  0  0  2  0  0  0  0  0  0
   36.9820   24.7020   42.1190 C   0  0  0  0  0  2  0  0  0  0  0  0
   37.2240   26.1180   41.7070 C   0  0  0  0  0  2  0  0  0  0  0  0
  1 13  1  0  0  0  0
  1  2  1  0  0  0  0
  3  1  1  0  0  0  0
  4  1  1  0  0  0  0
  5  4  1  0  0  0  0
  5 10  1  0  0  0  0
  6  5  2  0  0  0  0
  7  8  2  0  0  0  0
  7  6  1  0  0  0  0
  8  9  1  0  0  0  0
  9  4  2  0  0  0  0
 11  6  1  0  0  0  0
 12  8  1  0  0  0  0
 13 15  1  0  0  0  0
 14 13  1  0  0  0  0
 16 17  1  0  0  0  0
 16 13  1  0  0  0  0
 18 17  1  0  0  0  0
 19 20  1  0  0  0  0
 19 18  1  0  0  0  0
 21 20  1  0  0  0  0
 21 16  1  0  0  0  0
M  END
>  <minimizedAffinity>
-4.46229219

$$$$

 OpenBabel03252506593D

 21 22  0  0  0  0  0  0  0  0999 V2000
   37.1130   29.2520   42.0040 C   0  0  0  0  0  0  0  0  0  0  0  0
   37.2220   28.4050   41.2650 H   0  0  0  0  0  0  0  0  0  0  0  0
   36.0660   29.2740   42.2760 H   0  0  0  0  0  0  0  0  0  0  0  0
   37.6140   30.4990   41.4220 C   0  0  0  0  0  0  0  0  0  0  0  0
   36.8070   31.3080   40.6340 C   0  0  0  0  0  0  0  0  0  0  0  0
   37.3740   32.4960   40.1140 C   0  0  0  0  0  0  0  0  0  0  0  0
   38.6800   32.7720   40.4210 N   0  0  0  0  0  0  0  0  0  0  0  0
   39.4240   31.9440   41.1980 C   0  0  0  0  0  0  0  0  0  0  0  0
   38.8800   30.8110   41.6920 N   0  0  0  0  0  0  0  0  0  0  0  0
   35.7840   31.0570   40.4150 H   0  0  0  0  0  0  0  0  0  0  0  0
   36.7650   33.1260   39.5070 H   0  0  0  0  0  0  0  0  0  0  0  0
   40.4450   32.2420   41.3870 H   0  0  0  0  0  0  0  0  0  0  0  0
   37.8880   28.9620   43.2650 C   0  0  0  0  0  0  0  0  0  0  0  0
   37.3580   29.5060   44.0820 H   0  0  0  0  0  0  0  0  0  0  0  0
   38.9110   29.3690   43.2250 H   0  0  0  0  0  0  0  0  0  0  0  0
   37.9110   27.4550   43.5590 C   0  0  0  0  0  3  0  0  0  0  0  0
   36.8700   26.7500   42.8060 C   0  0  0  0  0  2  0  0  0  0  0  0
   37.2660   25.5220   42.0570 C   0  0  0  0  0  2  0  0  0  0  0  0
   38.5650   24.9170   42.5010 C   0  0  0  0  0  2  0  0  0  0  0  0
   39.5900   26.0400   42.3150 C   0  0  0  0  0  2  0  0  0  0  0  0
   39.3140   27.0060   43.4230 C   0  0  0  0  0  2  0  0  0  0  0  0
  1  3  1  0  0  0  0
  1 13  1  0  0  0  0
  2  1  1  0  0  0  0
  4  9  1  0  0  0  0
  4  1  1  0  0  0  0
  5  4  2  0  0  0  0
  6  7  2  0  0  0  0
  6  5  1  0  0  0  0
  7  8  1  0  0  0  0
  8 12  1  0  0  0  0
  8  9  2  0  0  0  0
 10  5  1  0  0  0  0
 11  6  1  0  0  0  0
 13 16  1  0  0  0  0
 13 14  1  0  0  0  0
 15 13  1  0  0  0  0
 17 16  1  0  0  0  0
 18 19  1  0  0  0  0
 18 17  1  0  0  0  0
 20 19  1  0  0  0  0
 20 21  1  0  0  0  0
 21 16  1  0  0  0  0
M  END
>  <minimizedAffinity>
-4.4543004

$$$$

 OpenBabel03252506593D

 21 22  0  0  0  0  0  0  0  0999 V2000
   36.8710   28.0870   40.5780 C   0  0  0  0  0  0  0  0  0  0  0  0
   37.9110   27.6500   40.6410 H   0  0  0  0  0  0  0  0  0  0  0  0
   36.3070   27.4160   39.9430 H   0  0  0  0  0  0  0  0  0  0  0  0
   36.9320   29.4680   40.0950 C   0  0  0  0  0  0  0  0  0  0  0  0
   36.9440   30.5440   40.9720 C   0  0  0  0  0  0  0  0  0  0  0  0
   37.0050   31.8440   40.4190 C   0  0  0  0  0  0  0  0  0  0  0  0
   37.0510   31.9590   39.0540 N   0  0  0  0  0  0  0  0  0  0  0  0
   37.0380   30.8720   38.2420 C   0  0  0  0  0  0  0  0  0  0  0  0
   36.9780   29.6320   38.7750 N   0  0  0  0  0  0  0  0  0  0  0  0
   36.9060   30.4130   42.0390 H   0  0  0  0  0  0  0  0  0  0  0  0
   37.0140   32.6800   41.0810 H   0  0  0  0  0  0  0  0  0  0  0  0
   37.0760   31.0580   37.1780 H   0  0  0  0  0  0  0  0  0  0  0  0
   36.2060   28.0750   41.9310 C   0  0  0  0  0  0  0  0  0  0  0  0
   35.1850   27.6580   41.7660 H   0  0  0  0  0  0  0  0  0  0  0  0
   36.0700   29.0910   42.3340 H   0  0  0  0  0  0  0  0  0  0  0  0
   36.9860   27.1960   42.9170 C   0  0  0  0  0  3  0  0  0  0  0  0
   37.4440   25.9580   42.2800 C   0  0  0  0  0  2  0  0  0  0  0  0
   38.8720   25.5690   42.4650 C   0  0  0  0  0  2  0  0  0  0  0  0
   39.5550   26.2480   43.6160 C   0  0  0  0  0  2  0  0  0  0  0  0
   39.4180   27.7430   43.3110 C   0  0  0  0  0  2  0  0  0  0  0  0
   37.9830   28.0640   43.5810 C   0  0  0  0  0  2  0  0  0  0  0  0
  1  2  1  0  0  0  0
  1 13  1  0  0  0  0
  3  1  1  0  0  0  0
  4  1  1  0  0  0  0
  4  5  1  0  0  0  0
  5 10  1  0  0  0  0
  6  5  2  0  0  0  0
  6 11  1  0  0  0  0
  7  6  1  0  0  0  0
  8  9  1  0  0  0  0
  8  7  2  0  0  0  0
  9  4  2  0  0  0  0
 12  8  1  0  0  0  0
 13 15  1  0  0  0  0
 13 16  1  0  0  0  0
 14 13  1  0  0  0  0
 16 21  1  0  0  0  0
 17 18  1  0  0  0  0
 17 16  1  0  0  0  0
 18 19  1  0  0  0  0
 20 21  1  0  0  0  0
 20 19  1  0  0  0  0
M  END
>  <minimizedAffinity>
-4.29558563

$$$$

 OpenBabel03252506593D

 21 22  0  0  0  0  0  0  0  0999 V2000
   36.7120   31.2870   39.5770 C   0  0  0  0  0  0  0  0  0  0  0  0
   36.8740   30.4410   38.8450 H   0  0  0  0  0  0  0  0  0  0  0  0
   35.7870   31.7630   39.2770 H   0  0  0  0  0  0  0  0  0  0  0  0
   37.8750   32.1760   39.5880 C   0  0  0  0  0  0  0  0  0  0  0  0
   39.0230   31.8790   38.8660 C   0  0  0  0  0  0  0  0  0  0  0  0
   40.0990   32.7960   38.9330 C   0  0  0  0  0  0  0  0  0  0  0  0
   39.9380   33.9180   39.7040 N   0  0  0  0  0  0  0  0  0  0  0  0
   38.7920   34.1590   40.3890 C   0  0  0  0  0  0  0  0  0  0  0  0
   37.7680   33.2810   40.3230 N   0  0  0  0  0  0  0  0  0  0  0  0
   39.1120   30.9870   38.2720 H   0  0  0  0  0  0  0  0  0  0  0  0
   40.9870   32.5800   38.3850 H   0  0  0  0  0  0  0  0  0  0  0  0
   38.7550   35.0690   40.9710 H   0  0  0  0  0  0  0  0  0  0  0  0
   36.4980   30.7510   40.9700 C   0  0  0  0  0  0  0  0  0  0  0  0
   35.4190   30.4790   41.0310 H   0  0  0  0  0  0  0  0  0  0  0  0
   36.6750   31.5190   41.7400 H   0  0  0  0  0  0  0  0  0  0  0  0
   37.3730   29.5150   41.2220 C   0  0  0  0  0  3  0  0  0  0  0  0
   38.3610   29.7670   42.2750 C   0  0  0  0  0  2  0  0  0  0  0  0
   38.4910   28.7550   43.3620 C   0  0  0  0  0  2  0  0  0  0  0  0
   37.9120   27.4110   43.0300 C   0  0  0  0  0  2  0  0  0  0  0  0
   36.4420   27.6990   42.7080 C   0  0  0  0  0  2  0  0  0  0  0  0
   36.4610   28.3580   41.3660 C   0  0  0  0  0  2  0  0  0  0  0  0
  1  4  1  0  0  0  0
  1 13  1  0  0  0  0
  2  1  1  0  0  0  0
  3  1  1  0  0  0  0
  4  9  1  0  0  0  0
  5  6  1  0  0  0  0
  5  4  2  0  0  0  0
  6  7  2  0  0  0  0
  7  8  1  0  0  0  0
  8 12  1  0  0  0  0
  9  8  2  0  0  0  0
 10  5  1  0  0  0  0
 11  6  1  0  0  0  0
 13 14  1  0  0  0  0
 13 16  1  0  0  0  0
 13 15  1  0  0  0  0
 16 21  1  0  0  0  0
 16 17  1  0  0  0  0
 17 18  1  0  0  0  0
 19 18  1  0  0  0  0
 20 19  1  0  0  0  0
 21 20  1  0  0  0  0
M  END
>  <minimizedAffinity>
-4.2456851

$$$$

 OpenBabel03252506593D

 21 22  0  0  0  0  0  0  0  0999 V2000
   37.7720   29.9160   40.6920 C   0  0  0  0  0  0  0  0  0  0  0  0
   38.5830   29.5310   41.3760 H   0  0  0  0  0  0  0  0  0  0  0  0
   37.8170   29.2990   39.8040 H   0  0  0  0  0  0  0  0  0  0  0  0
   37.9570   31.3480   40.4450 C   0  0  0  0  0  0  0  0  0  0  0  0
   37.0360   32.0840   39.7130 C   0  0  0  0  0  0  0  0  0  0  0  0
   37.2940   33.4630   39.5260 C   0  0  0  0  0  0  0  0  0  0  0  0
   38.4360   33.9820   40.0780 N   0  0  0  0  0  0  0  0  0  0  0  0
   39.3030   33.2160   40.7860 C   0  0  0  0  0  0  0  0  0  0  0  0
   39.0530   31.9000   40.9620 N   0  0  0  0  0  0  0  0  0  0  0  0
   36.1500   31.6400   39.2950 H   0  0  0  0  0  0  0  0  0  0  0  0
   36.5950   34.0400   38.9650 H   0  0  0  0  0  0  0  0  0  0  0  0
   40.1770   33.7100   41.1840 H   0  0  0  0  0  0  0  0  0  0  0  0
   36.4110   29.7030   41.3050 C   0  0  0  0  0  0  0  0  0  0  0  0
   35.6860   30.2020   40.6210 H   0  0  0  0  0  0  0  0  0  0  0  0
   36.3160   30.2000   42.2840 H   0  0  0  0  0  0  0  0  0  0  0  0
   36.0900   28.2070   41.4190 C   0  0  0  0  0  3  0  0  0  0  0  0
   36.5170   27.4780   40.2200 C   0  0  0  0  0  2  0  0  0  0  0  0
   37.3070   26.2280   40.4130 C   0  0  0  0  0  2  0  0  0  0  0  0
   37.2080   25.6380   41.7890 C   0  0  0  0  0  2  0  0  0  0  0  0
   37.6950   26.7540   42.7180 C   0  0  0  0  0  2  0  0  0  0  0  0
   36.5820   27.7540   42.7390 C   0  0  0  0  0  2  0  0  0  0  0  0
  1 13  1  0  0  0  0
  1  2  1  0  0  0  0
  3  1  1  0  0  0  0
  4  1  1  0  0  0  0
  4  9  1  0  0  0  0
  5  4  2  0  0  0  0
  6  5  1  0  0  0  0
  6  7  2  0  0  0  0
  7  8  1  0  0  0  0
  8  9  2  0  0  0  0
  8 12  1  0  0  0  0
 10  5  1  0  0  0  0
 11  6  1  0  0  0  0
 13 16  1  0  0  0  0
 13 15  1  0  0  0  0
 14 13  1  0  0  0  0
 16 21  1  0  0  0  0
 17 18  1  0  0  0  0
 17 16  1  0  0  0  0
 18 19  1  0  0  0  0
 19 20  1  0  0  0  0
 20 21  1  0  0  0  0
M  END
>  <minimizedAffinity>
-4.2366786

$$$$

 OpenBabel03252506593D

 21 22  0  0  0  0  0  0  0  0999 V2000
   39.6020   30.1990   41.6940 C   0  0  0  0  0  0  0  0  0  0  0  0
   40.6750   30.4950   41.8820 H   0  0  0  0  0  0  0  0  0  0  0  0
   39.6450   29.2690   41.1430 H   0  0  0  0  0  0  0  0  0  0  0  0
   38.8920   31.2790   41.0060 C   0  0  0  0  0  0  0  0  0  0  0  0
   39.4600   32.5350   40.8460 C   0  0  0  0  0  0  0  0  0  0  0  0
   38.7030   33.5180   40.1660 C   0  0  0  0  0  0  0  0  0  0  0  0
   37.4600   33.1680   39.7090 N   0  0  0  0  0  0  0  0  0  0  0  0
   36.9530   31.9230   39.8930 C   0  0  0  0  0  0  0  0  0  0  0  0
   37.6780   30.9880   40.5430 N   0  0  0  0  0  0  0  0  0  0  0  0
   40.4410   32.7720   41.2190 H   0  0  0  0  0  0  0  0  0  0  0  0
   39.1280   34.4880   40.0360 H   0  0  0  0  0  0  0  0  0  0  0  0
   35.9630   31.7370   39.5000 H   0  0  0  0  0  0  0  0  0  0  0  0
   38.8950   29.9060   42.9940 C   0  0  0  0  0  0  0  0  0  0  0  0
   37.9090   30.4220   42.9290 H   0  0  0  0  0  0  0  0  0  0  0  0
   39.4230   30.3400   43.8580 H   0  0  0  0  0  0  0  0  0  0  0  0
   38.6930   28.3960   43.1800 C   0  0  0  0  0  3  0  0  0  0  0  0
   37.3480   28.0970   43.6790 C   0  0  0  0  0  2  0  0  0  0  0  0
   36.5710   27.0300   42.9850 C   0  0  0  0  0  2  0  0  0  0  0  0
   37.4020   26.1060   42.1430 C   0  0  0  0  0  2  0  0  0  0  0  0
   38.1020   27.0290   41.1420 C   0  0  0  0  0  2  0  0  0  0  0  0
   39.1520   27.7380   41.9360 C   0  0  0  0  0  2  0  0  0  0  0  0
  1  2  1  0  0  0  0
  1 13  1  0  0  0  0
  3  1  1  0  0  0  0
  4  1  1  0  0  0  0
  5  4  1  0  0  0  0
  5 10  1  0  0  0  0
  6  5  2  0  0  0  0
  7  8  2  0  0  0  0
  7  6  1  0  0  0  0
  8  9  1  0  0  0  0
  9  4  2  0  0  0  0
 11  6  1  0  0  0  0
 12  8  1  0  0  0  0
 13 16  1  0  0  0  0
 13 15  1  0  0  0  0
 14 13  1  0  0  0  0
 16 17  1  0  0  0  0
 18 17  1  0  0  0  0
 19 18  1  0  0  0  0
 20 21  1  0  0  0  0
 20 19  1  0  0  0  0
 21 16  1  0  0  0  0
M  END
>  <minimizedAffinity>
-4.17352104

$$$$

 OpenBabel03252506593D

 21 22  0  0  0  0  0  0  0  0999 V2000
   36.2890   30.9310   40.6820 C   0  0  0  0  0  0  0  0  0  0  0  0
   36.5790   31.9360   41.1090 H   0  0  0  0  0  0  0  0  0  0  0  0
   35.2080   30.9130   40.6780 H   0  0  0  0  0  0  0  0  0  0  0  0
   36.9110   29.8550   41.4570 C   0  0  0  0  0  0  0  0  0  0  0  0
   38.1050   30.0470   42.1390 C   0  0  0  0  0  0  0  0  0  0  0  0
   38.6320   28.9530   42.8640 C   0  0  0  0  0  0  0  0  0  0  0  0
   37.9310   27.7750   42.8480 N   0  0  0  0  0  0  0  0  0  0  0  0
   36.7670   27.6430   42.1650 C   0  0  0  0  0  0  0  0  0  0  0  0
   36.2670   28.6900   41.4730 N   0  0  0  0  0  0  0  0  0  0  0  0
   38.6260   30.9880   42.1270 H   0  0  0  0  0  0  0  0  0  0  0  0
   39.5490   29.0860   43.3910 H   0  0  0  0  0  0  0  0  0  0  0  0
   36.2830   26.6780   42.2090 H   0  0  0  0  0  0  0  0  0  0  0  0
   36.7360   30.8140   39.2470 C   0  0  0  0  0  0  0  0  0  0  0  0
   35.8040   30.8030   38.6360 H   0  0  0  0  0  0  0  0  0  0  0  0
   37.2540   29.8620   39.0510 H   0  0  0  0  0  0  0  0  0  0  0  0
   37.6170   32.0060   38.8480 C   0  0  0  0  0  3  0  0  0  0  0  0
   37.3830   33.1580   39.7250 C   0  0  0  0  0  2  0  0  0  0  0  0
   38.5750   33.8450   40.3020 C   0  0  0  0  0  2  0  0  0  0  0  0
   39.8630   33.5540   39.5900 C   0  0  0  0  0  2  0  0  0  0  0  0
   40.0050   32.0310   39.6670 C   0  0  0  0  0  2  0  0  0  0  0  0
   38.9990   31.4970   38.6980 C   0  0  0  0  0  2  0  0  0  0  0  0
  1  2  1  0  0  0  0
  1  4  1  0  0  0  0
  3  1  1  0  0  0  0
  4  9  2  0  0  0  0
  4  5  1  0  0  0  0
  5  6  2  0  0  0  0
  6 11  1  0  0  0  0
  7  6  1  0  0  0  0
  8 12  1  0  0  0  0
  8  7  2  0  0  0  0
  9  8  1  0  0  0  0
 10  5  1  0  0  0  0
 13  1  1  0  0  0  0
 14 13  1  0  0  0  0
 15 13  1  0  0  0  0
 16 13  1  0  0  0  0
 16 17  1  0  0  0  0
 17 18  1  0  0  0  0
 19 20  1  0  0  0  0
 19 18  1  0  0  0  0
 21 16  1  0  0  0  0
 21 20  1  0  0  0  0
M  END
>  <minimizedAffinity>
-4.15663862

$$$$

 OpenBabel03252506593D

 21 22  0  0  0  0  0  0  0  0999 V2000
   36.2390   28.5580   41.0870 C   0  0  0  0  0  0  0  0  0  0  0  0
   35.1740   28.3060   41.3680 H   0  0  0  0  0  0  0  0  0  0  0  0
   36.2790   28.5080   40.0070 H   0  0  0  0  0  0  0  0  0  0  0  0
   37.1690   27.6560   41.7700 C   0  0  0  0  0  0  0  0  0  0  0  0
   37.1230   26.2820   41.5750 C   0  0  0  0  0  0  0  0  0  0  0  0
   38.0620   25.4860   42.2740 C   0  0  0  0  0  0  0  0  0  0  0  0
   38.9550   26.1220   43.0970 N   0  0  0  0  0  0  0  0  0  0  0  0
   38.9550   27.4700   43.2500 C   0  0  0  0  0  0  0  0  0  0  0  0
   38.0570   28.2260   42.5820 N   0  0  0  0  0  0  0  0  0  0  0  0
   36.4060   25.8200   40.9200 H   0  0  0  0  0  0  0  0  0  0  0  0
   38.0370   24.4300   42.1340 H   0  0  0  0  0  0  0  0  0  0  0  0
   39.6950   27.8830   43.9200 H   0  0  0  0  0  0  0  0  0  0  0  0
   36.5700   29.9770   41.4740 C   0  0  0  0  0  0  0  0  0  0  0  0
   37.6440   29.9710   41.7710 H   0  0  0  0  0  0  0  0  0  0  0  0
   36.0000   30.3090   42.3560 H   0  0  0  0  0  0  0  0  0  0  0  0
   36.3520   30.9320   40.2920 C   0  0  0  0  0  3  0  0  0  0  0  0
   37.2260   32.1050   40.3870 C   0  0  0  0  0  2  0  0  0  0  0  0
   37.9990   32.4950   39.1730 C   0  0  0  0  0  2  0  0  0  0  0  0
   37.4780   31.9120   37.8920 C   0  0  0  0  0  2  0  0  0  0  0  0
   37.5190   30.3980   38.1190 C   0  0  0  0  0  2  0  0  0  0  0  0
   36.3910   30.1150   39.0590 C   0  0  0  0  0  2  0  0  0  0  0  0
  1  2  1  0  0  0  0
  1 13  1  0  0  0  0
  1  4  1  0  0  0  0
  3  1  1  0  0  0  0
  4  9  1  0  0  0  0
  5  4  2  0  0  0  0
  5  6  1  0  0  0  0
  6  7  2  0  0  0  0
  7  8  1  0  0  0  0
  8 12  1  0  0  0  0
  9  8  2  0  0  0  0
 10  5  1  0  0  0  0
 11  6  1  0  0  0  0
 13 14  1  0  0  0  0
 13 15  1  0  0  0  0
 16 17  1  0  0  0  0
 16 13  1  0  0  0  0
 18 17  1  0  0  0  0
 19 20  1  0  0  0  0
 19 18  1  0  0  0  0
 20 21  1  0  0  0  0
 21 16  1  0  0  0  0
M  END
>  <minimizedAffinity>
-4.11249733

$$$$

 OpenBabel03252506593D

 21 22  0  0  0  0  0  0  0  0999 V2000
   35.4750   29.6550   40.0960 C   0  0  0  0  0  0  0  0  0  0  0  0
   35.2950   28.5700   39.8380 H   0  0  0  0  0  0  0  0  0  0  0  0
   34.4950   30.0930   40.2320 H   0  0  0  0  0  0  0  0  0  0  0  0
   36.2840   30.2940   39.0560 C   0  0  0  0  0  0  0  0  0  0  0  0
   36.5410   29.6640   37.8460 C   0  0  0  0  0  0  0  0  0  0  0  0
   37.3320   30.3570   36.8980 C   0  0  0  0  0  0  0  0  0  0  0  0
   37.7910   31.6030   37.2340 N   0  0  0  0  0  0  0  0  0  0  0  0
   37.5080   32.1730   38.4330 C   0  0  0  0  0  0  0  0  0  0  0  0
   36.7540   31.5080   39.3350 N   0  0  0  0  0  0  0  0  0  0  0  0
   36.1620   28.6840   37.6190 H   0  0  0  0  0  0  0  0  0  0  0  0
   37.5370   29.8840   35.9650 H   0  0  0  0  0  0  0  0  0  0  0  0
   37.9130   33.1580   38.6110 H   0  0  0  0  0  0  0  0  0  0  0  0
   36.1970   29.7770   41.4140 C   0  0  0  0  0  0  0  0  0  0  0  0
   35.4330   29.5770   42.2010 H   0  0  0  0  0  0  0  0  0  0  0  0
   36.5710   30.7980   41.5880 H   0  0  0  0  0  0  0  0  0  0  0  0
   37.3370   28.7530   41.5100 C   0  0  0  0  0  3  0  0  0  0  0  0
   38.6110   29.4040   41.8320 C   0  0  0  0  0  2  0  0  0  0  0  0
   39.4310   28.8190   42.9320 C   0  0  0  0  0  2  0  0  0  0  0  0
   39.0730   27.4060   43.2880 C   0  0  0  0  0  2  0  0  0  0  0  0
   37.5910   27.4750   43.6720 C   0  0  0  0  0  2  0  0  0  0  0  0
   36.8630   27.6520   42.3780 C   0  0  0  0  0  2  0  0  0  0  0  0
  1  3  1  0  0  0  0
  1 13  1  0  0  0  0
  2  1  1  0  0  0  0
  4  9  1  0  0  0  0
  4  1  1  0  0  0  0
  5  4  2  0  0  0  0
  6  7  2  0  0  0  0
  6  5  1  0  0  0  0
  7  8  1  0  0  0  0
  8 12  1  0  0  0  0
  8  9  2  0  0  0  0
 10  5  1  0  0  0  0
 11  6  1  0  0  0  0
 13 16  1  0  0  0  0
 13 15  1  0  0  0  0
 13 14  1  0  0  0  0
 16 17  1  0  0  0  0
 16 21  1  0  0  0  0
 17 18  1  0  0  0  0
 18 19  1  0  0  0  0
 19 20  1  0  0  0  0
 21 20  1  0  0  0  0
M  END
>  <minimizedAffinity>
-4.06707335

$$$$
