
 OpenBabel03252504453D

 18 19  0  0  0  0  0  0  0  0999 V2000
   45.2820   35.0140   43.9500 C   0  0  0  0  0  0  0  0  0  0  0  0
   44.6420   35.2290   42.7260 C   0  0  0  0  0  0  0  0  0  0  0  0
   45.3100   34.8010   41.5680 C   0  0  0  0  0  0  0  0  0  0  0  0
   46.5190   34.2110   41.7000 N   0  0  0  0  0  0  0  0  0  0  0  0
   47.1110   34.0200   42.9120 C   0  0  0  0  0  0  0  0  0  0  0  0
   46.4880   34.4230   44.0370 N   0  0  0  0  0  0  0  0  0  0  0  0
   43.6750   35.7020   42.6290 H   0  0  0  0  0  0  0  0  0  0  0  0
   44.8600   34.9410   40.5830 H   0  0  0  0  0  0  0  0  0  0  0  0
   48.4220   33.3720   42.9470 C   0  0  0  0  0  3  0  0  0  0  0  0
   48.4850   32.0520   42.2590 C   0  0  0  0  0  2  0  0  0  0  0  0
   49.5990   31.9550   41.2470 C   0  0  0  0  0  2  0  0  0  0  0  0
   50.9200   32.4820   41.7320 C   0  0  0  0  0  2  0  0  0  0  0  0
   50.8180   33.7940   42.4770 C   0  0  0  0  0  2  0  0  0  0  0  0
   49.4250   34.3650   42.3530 C   0  0  0  0  0  2  0  0  0  0  0  0
   44.5580   35.4780   45.1870 C   0  0  0  0  0  0  0  0  0  0  0  0
   43.4890   35.2130   45.1270 H   0  0  0  0  0  0  0  0  0  0  0  0
   44.9970   35.0580   46.0950 H   0  0  0  0  0  0  0  0  0  0  0  0
   44.6350   36.5930   45.1980 H   0  0  0  0  0  0  0  0  0  0  0  0
  1  6  1  0  0  0  0
  1 15  1  0  0  0  0
  2  1  2  0  0  0  0
  3  4  2  0  0  0  0
  3  2  1  0  0  0  0
  4  5  1  0  0  0  0
  5  9  1  0  0  0  0
  5  6  2  0  0  0  0
  7  2  1  0  0  0  0
  8  3  1  0  0  0  0
 10  9  1  0  0  0  0
 11 12  1  0  0  0  0
 11 10  1  0  0  0  0
 12 13  1  0  0  0  0
 14 13  1  0  0  0  0
 14  9  1  0  0  0  0
 15 18  1  0  0  0  0
 15 17  1  0  0  0  0
 16 15  1  0  0  0  0
M  END
>  <minimizedAffinity>
-4.1790843

>  <minimizedRMSD>
5.90411377

$$$$
