
 OpenBabel03242522123D

 17 18  0  0  0  0  0  0  0  0999 V2000
   37.4650   31.7250   39.7880 C   0  0  0  0  0  0  0  0  0  0  0  0
   37.0350   30.8790   40.8110 C   0  0  0  0  0  0  0  0  0  0  0  0
   37.9360   29.9470   41.3020 C   0  0  0  0  0  0  0  0  0  0  0  0
   39.1720   29.9200   40.7590 N   0  0  0  0  0  0  0  0  0  0  0  0
   39.5680   30.7400   39.7770 C   0  0  0  0  0  0  0  0  0  0  0  0
   38.7000   31.6460   39.2940 N   0  0  0  0  0  0  0  0  0  0  0  0
   36.8360   32.4840   39.3390 H   0  0  0  0  0  0  0  0  0  0  0  0
   40.5980   30.6130   39.4250 H   0  0  0  0  0  0  0  0  0  0  0  0
   37.4550   29.0460   42.4010 C   0  0  0  0  0  3  0  0  0  0  0  0
   38.6070   28.6160   43.2270 C   0  0  0  0  0  2  0  0  0  0  0  0
   38.6570   27.1990   43.6750 C   0  0  0  0  0  2  0  0  0  0  0  0
   38.1900   26.1950   42.6580 C   0  0  0  0  0  2  0  0  0  0  0  0
   37.6520   26.8500   41.4070 C   0  0  0  0  0  2  0  0  0  0  0  0
   36.6590   27.8740   41.8720 C   0  0  0  0  0  2  0  0  0  0  0  0
   35.6950   31.0450   41.2670 N   0  0  0  0  0  0  0  0  0  0  0  0
   34.9050   30.5850   40.7660 H   0  0  0  0  0  0  0  0  0  0  0  0
   35.4000   31.6100   42.0970 H   0  0  0  0  0  0  0  0  0  0  0  0
  1  2  1  0  0  0  0
  2 15  1  0  0  0  0
  2  3  2  0  0  0  0
  3  9  1  0  0  0  0
  4  3  1  0  0  0  0
  5  4  2  0  0  0  0
  6  5  1  0  0  0  0
  6  1  2  0  0  0  0
  7  1  1  0  0  0  0
  8  5  1  0  0  0  0
  9 10  1  0  0  0  0
 10 11  1  0  0  0  0
 12 11  1  0  0  0  0
 13 14  1  0  0  0  0
 13 12  1  0  0  0  0
 14  9  1  0  0  0  0
 15 17  1  0  0  0  0
 16 15  1  0  0  0  0
M  END
>  <minimizedAffinity>
-4.70777702

$$$$

 OpenBabel03242522123D

 17 18  0  0  0  0  0  0  0  0999 V2000
   35.8120   29.8740   39.1710 C   0  0  0  0  0  0  0  0  0  0  0  0
   36.3330   29.9480   40.4630 C   0  0  0  0  0  0  0  0  0  0  0  0
   37.3610   29.0800   40.7980 C   0  0  0  0  0  0  0  0  0  0  0  0
   37.7910   28.2200   39.8520 N   0  0  0  0  0  0  0  0  0  0  0  0
   37.2790   28.1610   38.6140 C   0  0  0  0  0  0  0  0  0  0  0  0
   36.2820   28.9990   38.2820 N   0  0  0  0  0  0  0  0  0  0  0  0
   35.0090   30.5080   38.8150 H   0  0  0  0  0  0  0  0  0  0  0  0
   37.7190   27.4160   37.9430 H   0  0  0  0  0  0  0  0  0  0  0  0
   37.9060   29.1750   42.1930 C   0  0  0  0  0  3  0  0  0  0  0  0
   39.3640   28.9090   42.1720 C   0  0  0  0  0  2  0  0  0  0  0  0
   39.9380   28.0690   43.2550 C   0  0  0  0  0  2  0  0  0  0  0  0
   39.0830   26.9070   43.6770 C   0  0  0  0  0  2  0  0  0  0  0  0
   37.7430   26.8940   42.9800 C   0  0  0  0  0  2  0  0  0  0  0  0
   37.1720   28.2700   43.1570 C   0  0  0  0  0  2  0  0  0  0  0  0
   35.7600   30.9170   41.3370 N   0  0  0  0  0  0  0  0  0  0  0  0
   34.8880   30.7010   41.8680 H   0  0  0  0  0  0  0  0  0  0  0  0
   36.1380   31.8760   41.5140 H   0  0  0  0  0  0  0  0  0  0  0  0
  1  2  1  0  0  0  0
  2  3  2  0  0  0  0
  2 15  1  0  0  0  0
  3  9  1  0  0  0  0
  4  3  1  0  0  0  0
  5  4  2  0  0  0  0
  6  5  1  0  0  0  0
  6  1  2  0  0  0  0
  7  1  1  0  0  0  0
  8  5  1  0  0  0  0
  9 14  1  0  0  0  0
 10  9  1  0  0  0  0
 10 11  1  0  0  0  0
 11 12  1  0  0  0  0
 13 14  1  0  0  0  0
 13 12  1  0  0  0  0
 15 17  1  0  0  0  0
 15 16  1  0  0  0  0
M  END
>  <minimizedAffinity>
-4.36086845

$$$$

 OpenBabel03242522123D

 17 18  0  0  0  0  0  0  0  0999 V2000
   40.2060   24.3920   42.9110 C   0  0  0  0  0  0  0  0  0  0  0  0
   38.9060   24.7500   42.5520 C   0  0  0  0  0  0  0  0  0  0  0  0
   38.5570   26.0900   42.6330 C   0  0  0  0  0  0  0  0  0  0  0  0
   39.4980   26.9600   43.0530 N   0  0  0  0  0  0  0  0  0  0  0  0
   40.7430   26.5990   43.3950 C   0  0  0  0  0  0  0  0  0  0  0  0
   41.0890   25.3030   43.3190 N   0  0  0  0  0  0  0  0  0  0  0  0
   40.5720   23.3740   42.8820 H   0  0  0  0  0  0  0  0  0  0  0  0
   41.4090   27.4060   43.7190 H   0  0  0  0  0  0  0  0  0  0  0  0
   37.1540   26.4540   42.2430 C   0  0  0  0  0  3  0  0  0  0  0  0
   37.1120   26.7790   40.7980 C   0  0  0  0  0  2  0  0  0  0  0  0
   36.2890   27.9390   40.3660 C   0  0  0  0  0  2  0  0  0  0  0  0
   36.3330   29.1260   41.2870 C   0  0  0  0  0  2  0  0  0  0  0  0
   37.1300   28.8530   42.5410 C   0  0  0  0  0  2  0  0  0  0  0  0
   36.5940   27.5680   43.0990 C   0  0  0  0  0  2  0  0  0  0  0  0
   38.0390   23.7000   42.1290 N   0  0  0  0  0  0  0  0  0  0  0  0
   37.5220   23.1270   42.8300 H   0  0  0  0  0  0  0  0  0  0  0  0
   37.8550   23.4250   41.1370 H   0  0  0  0  0  0  0  0  0  0  0  0
  1  6  1  0  0  0  0
  2  3  1  0  0  0  0
  2  1  2  0  0  0  0
  3  4  2  0  0  0  0
  4  5  1  0  0  0  0
  5  8  1  0  0  0  0
  6  5  2  0  0  0  0
  7  1  1  0  0  0  0
  9  3  1  0  0  0  0
  9 14  1  0  0  0  0
 10  9  1  0  0  0  0
 11 10  1  0  0  0  0
 11 12  1  0  0  0  0
 12 13  1  0  0  0  0
 13 14  1  0  0  0  0
 15  2  1  0  0  0  0
 15 16  1  0  0  0  0
 17 15  1  0  0  0  0
M  END
>  <minimizedAffinity>
-4.3269186

$$$$

 OpenBabel03242522123D

 17 18  0  0  0  0  0  0  0  0999 V2000
   37.0860   32.1800   39.9040 C   0  0  0  0  0  0  0  0  0  0  0  0
   36.3590   31.0060   40.1070 C   0  0  0  0  0  0  0  0  0  0  0  0
   36.2880   30.0990   39.0600 C   0  0  0  0  0  0  0  0  0  0  0  0
   36.9270   30.4110   37.9130 N   0  0  0  0  0  0  0  0  0  0  0  0
   37.6210   31.5430   37.7350 C   0  0  0  0  0  0  0  0  0  0  0  0
   37.6950   32.4280   38.7440 N   0  0  0  0  0  0  0  0  0  0  0  0
   37.1990   32.9480   40.6580 H   0  0  0  0  0  0  0  0  0  0  0  0
   38.0920   31.6730   36.7550 H   0  0  0  0  0  0  0  0  0  0  0  0
   35.5010   28.8440   39.2980 C   0  0  0  0  0  3  0  0  0  0  0  0
   36.1340   27.7190   38.5700 C   0  0  0  0  0  2  0  0  0  0  0  0
   35.2480   26.7520   37.8700 C   0  0  0  0  0  2  0  0  0  0  0  0
   34.0540   27.3620   37.1900 C   0  0  0  0  0  2  0  0  0  0  0  0
   33.9360   28.8450   37.4540 C   0  0  0  0  0  2  0  0  0  0  0  0
   34.0400   29.0090   38.9410 C   0  0  0  0  0  2  0  0  0  0  0  0
   35.7460   30.8370   41.3820 N   0  0  0  0  0  0  0  0  0  0  0  0
   34.8160   31.2640   41.5830 H   0  0  0  0  0  0  0  0  0  0  0  0
   36.1500   30.3020   42.1860 H   0  0  0  0  0  0  0  0  0  0  0  0
  1  2  1  0  0  0  0
  1  7  1  0  0  0  0
  2 15  1  0  0  0  0
  3  9  1  0  0  0  0
  3  2  2  0  0  0  0
  4  3  1  0  0  0  0
  5  4  2  0  0  0  0
  5  6  1  0  0  0  0
  6  1  2  0  0  0  0
  8  5  1  0  0  0  0
 10  9  1  0  0  0  0
 11 10  1  0  0  0  0
 12 13  1  0  0  0  0
 12 11  1  0  0  0  0
 13 14  1  0  0  0  0
 14  9  1  0  0  0  0
 15 16  1  0  0  0  0
 15 17  1  0  0  0  0
M  END
>  <minimizedAffinity>
-4.31623411

$$$$

 OpenBabel03242522123D

 17 18  0  0  0  0  0  0  0  0999 V2000
   37.7050   30.1830   41.5650 C   0  0  0  0  0  0  0  0  0  0  0  0
   37.6880   29.0290   42.3490 C   0  0  0  0  0  0  0  0  0  0  0  0
   38.1860   27.8600   41.7920 C   0  0  0  0  0  0  0  0  0  0  0  0
   38.6540   27.9160   40.5280 N   0  0  0  0  0  0  0  0  0  0  0  0
   38.6630   29.0340   39.7890 C   0  0  0  0  0  0  0  0  0  0  0  0
   38.1830   30.1710   40.3210 N   0  0  0  0  0  0  0  0  0  0  0  0
   37.3390   31.1420   41.9110 H   0  0  0  0  0  0  0  0  0  0  0  0
   39.0710   28.9420   38.7770 H   0  0  0  0  0  0  0  0  0  0  0  0
   38.1570   26.6300   42.6500 C   0  0  0  0  0  3  0  0  0  0  0  0
   39.3650   25.8130   42.3820 C   0  0  0  0  0  2  0  0  0  0  0  0
   39.2050   24.3370   42.2940 C   0  0  0  0  0  2  0  0  0  0  0  0
   37.9540   23.8740   41.6020 C   0  0  0  0  0  2  0  0  0  0  0  0
   37.0440   25.0210   41.2300 C   0  0  0  0  0  2  0  0  0  0  0  0
   36.8800   25.8400   42.4760 C   0  0  0  0  0  2  0  0  0  0  0  0
   37.1570   29.1480   43.6660 N   0  0  0  0  0  0  0  0  0  0  0  0
   36.1290   29.0870   43.8290 H   0  0  0  0  0  0  0  0  0  0  0  0
   37.7160   29.3000   44.5370 H   0  0  0  0  0  0  0  0  0  0  0  0
  1  7  1  0  0  0  0
  1  2  1  0  0  0  0
  2 15  1  0  0  0  0
  3  2  2  0  0  0  0
  3  9  1  0  0  0  0
  4  3  1  0  0  0  0
  5  6  1  0  0  0  0
  5  4  2  0  0  0  0
  6  1  2  0  0  0  0
  8  5  1  0  0  0  0
 10  9  1  0  0  0  0
 11 10  1  0  0  0  0
 12 11  1  0  0  0  0
 13 12  1  0  0  0  0
 13 14  1  0  0  0  0
 14  9  1  0  0  0  0
 15 16  1  0  0  0  0
 15 17  1  0  0  0  0
M  END
>  <minimizedAffinity>
-4.25516796

$$$$

 OpenBabel03242522123D

 17 18  0  0  0  0  0  0  0  0999 V2000
   37.2150   29.2640   42.2640 C   0  0  0  0  0  0  0  0  0  0  0  0
   36.5380   29.8060   41.1710 C   0  0  0  0  0  0  0  0  0  0  0  0
   36.6750   29.1720   39.9460 C   0  0  0  0  0  0  0  0  0  0  0  0
   37.4540   28.0710   39.8910 N   0  0  0  0  0  0  0  0  0  0  0  0
   38.0980   27.5640   40.9510 C   0  0  0  0  0  0  0  0  0  0  0  0
   37.9710   28.1730   42.1420 N   0  0  0  0  0  0  0  0  0  0  0  0
   37.1720   29.6870   43.2600 H   0  0  0  0  0  0  0  0  0  0  0  0
   38.6980   26.6670   40.7690 H   0  0  0  0  0  0  0  0  0  0  0  0
   35.9390   29.7700   38.7830 C   0  0  0  0  0  3  0  0  0  0  0  0
   35.3290   28.6870   37.9740 C   0  0  0  0  0  2  0  0  0  0  0  0
   35.3920   28.8000   36.4930 C   0  0  0  0  0  2  0  0  0  0  0  0
   36.6810   29.3520   35.9530 C   0  0  0  0  0  2  0  0  0  0  0  0
   37.6240   29.7910   37.0480 C   0  0  0  0  0  2  0  0  0  0  0  0
   36.8210   30.6770   37.9540 C   0  0  0  0  0  2  0  0  0  0  0  0
   35.7570   30.9740   41.4080 N   0  0  0  0  0  0  0  0  0  0  0  0
   36.2010   31.9170   41.4020 H   0  0  0  0  0  0  0  0  0  0  0  0
   34.7280   30.9900   41.5990 H   0  0  0  0  0  0  0  0  0  0  0  0
  1  7  1  0  0  0  0
  2 15  1  0  0  0  0
  2  1  2  0  0  0  0
  3  2  1  0  0  0  0
  4  3  2  0  0  0  0
  4  5  1  0  0  0  0
  5  6  2  0  0  0  0
  6  1  1  0  0  0  0
  8  5  1  0  0  0  0
  9  3  1  0  0  0  0
 10  9  1  0  0  0  0
 11 10  1  0  0  0  0
 12 11  1  0  0  0  0
 12 13  1  0  0  0  0
 13 14  1  0  0  0  0
 14  9  1  0  0  0  0
 15 17  1  0  0  0  0
 16 15  1  0  0  0  0
M  END
>  <minimizedAffinity>
-4.11105394

$$$$

 OpenBabel03242522123D

 17 18  0  0  0  0  0  0  0  0999 V2000
   38.3410   32.4740   40.7540 C   0  0  0  0  0  0  0  0  0  0  0  0
   38.8230   31.3900   41.4880 C   0  0  0  0  0  0  0  0  0  0  0  0
   38.1870   30.1680   41.3330 C   0  0  0  0  0  0  0  0  0  0  0  0
   37.1420   30.1070   40.4810 N   0  0  0  0  0  0  0  0  0  0  0  0
   36.6910   31.1580   39.7830 C   0  0  0  0  0  0  0  0  0  0  0  0
   37.3030   32.3470   39.9280 N   0  0  0  0  0  0  0  0  0  0  0  0
   38.7700   33.4670   40.8080 H   0  0  0  0  0  0  0  0  0  0  0  0
   35.8350   30.9730   39.1270 H   0  0  0  0  0  0  0  0  0  0  0  0
   38.7200   29.0150   42.1320 C   0  0  0  0  0  3  0  0  0  0  0  0
   38.8770   27.8340   41.2500 C   0  0  0  0  0  2  0  0  0  0  0  0
   38.4770   26.5050   41.7830 C   0  0  0  0  0  2  0  0  0  0  0  0
   37.2360   26.5090   42.6310 C   0  0  0  0  0  2  0  0  0  0  0  0
   36.7020   27.9020   42.8640 C   0  0  0  0  0  2  0  0  0  0  0  0
   37.8660   28.7160   43.3440 C   0  0  0  0  0  2  0  0  0  0  0  0
   39.9380   31.6320   42.3430 N   0  0  0  0  0  0  0  0  0  0  0  0
   39.7960   32.0180   43.3010 H   0  0  0  0  0  0  0  0  0  0  0  0
   40.9400   31.4550   42.1010 H   0  0  0  0  0  0  0  0  0  0  0  0
  1  7  1  0  0  0  0
  1  2  1  0  0  0  0
  2 15  1  0  0  0  0
  3  2  2  0  0  0  0
  3  9  1  0  0  0  0
  4  3  1  0  0  0  0
  5  6  1  0  0  0  0
  5  4  2  0  0  0  0
  6  1  2  0  0  0  0
  8  5  1  0  0  0  0
  9 14  1  0  0  0  0
 10 11  1  0  0  0  0
 10  9  1  0  0  0  0
 11 12  1  0  0  0  0
 12 13  1  0  0  0  0
 13 14  1  0  0  0  0
 15 16  1  0  0  0  0
 17 15  1  0  0  0  0
M  END
>  <minimizedAffinity>
-4.09584379

$$$$

 OpenBabel03242522123D

 17 18  0  0  0  0  0  0  0  0999 V2000
   38.2270   27.2430   43.4460 C   0  0  0  0  0  0  0  0  0  0  0  0
   37.4090   28.2050   42.8530 C   0  0  0  0  0  0  0  0  0  0  0  0
   37.0860   28.0440   41.5140 C   0  0  0  0  0  0  0  0  0  0  0  0
   37.5840   26.9670   40.8720 N   0  0  0  0  0  0  0  0  0  0  0  0
   38.3700   26.0520   41.4570 C   0  0  0  0  0  0  0  0  0  0  0  0
   38.6880   26.2010   42.7550 N   0  0  0  0  0  0  0  0  0  0  0  0
   38.5340   27.2810   44.4840 H   0  0  0  0  0  0  0  0  0  0  0  0
   38.7070   25.2260   40.8220 H   0  0  0  0  0  0  0  0  0  0  0  0
   36.2060   29.0890   40.8950 C   0  0  0  0  0  3  0  0  0  0  0  0
   35.4510   28.4940   39.7660 C   0  0  0  0  0  2  0  0  0  0  0  0
   35.2980   29.2990   38.5250 C   0  0  0  0  0  2  0  0  0  0  0  0
   36.5100   30.0980   38.1340 C   0  0  0  0  0  2  0  0  0  0  0  0
   37.6160   30.0050   39.1570 C   0  0  0  0  0  2  0  0  0  0  0  0
   36.9830   30.3190   40.4800 C   0  0  0  0  0  2  0  0  0  0  0  0
   36.9700   29.2800   43.6800 N   0  0  0  0  0  0  0  0  0  0  0  0
   37.5780   30.1140   43.8290 H   0  0  0  0  0  0  0  0  0  0  0  0
   36.0540   29.3270   44.1820 H   0  0  0  0  0  0  0  0  0  0  0  0
  1  7  1  0  0  0  0
  2  1  1  0  0  0  0
  2 15  1  0  0  0  0
  3  2  2  0  0  0  0
  4  5  2  0  0  0  0
  4  3  1  0  0  0  0
  5  6  1  0  0  0  0
  6  1  2  0  0  0  0
  8  5  1  0  0  0  0
  9  3  1  0  0  0  0
 10  9  1  0  0  0  0
 11 10  1  0  0  0  0
 12 11  1  0  0  0  0
 12 13  1  0  0  0  0
 13 14  1  0  0  0  0
 14  9  1  0  0  0  0
 15 16  1  0  0  0  0
 15 17  1  0  0  0  0
M  END
>  <minimizedAffinity>
-4.06948709

$$$$

 OpenBabel03242522123D

 17 18  0  0  0  0  0  0  0  0999 V2000
   41.4910   33.3810   38.3380 C   0  0  0  0  0  0  0  0  0  0  0  0
   40.3050   32.6610   38.1920 C   0  0  0  0  0  0  0  0  0  0  0  0
   39.5890   32.3530   39.3390 C   0  0  0  0  0  0  0  0  0  0  0  0
   40.0870   32.7700   40.5220 N   0  0  0  0  0  0  0  0  0  0  0  0
   41.2280   33.4610   40.6450 C   0  0  0  0  0  0  0  0  0  0  0  0
   41.9290   33.7640   39.5380 N   0  0  0  0  0  0  0  0  0  0  0  0
   42.1190   33.6690   37.5050 H   0  0  0  0  0  0  0  0  0  0  0  0
   41.5200   33.7380   41.6630 H   0  0  0  0  0  0  0  0  0  0  0  0
   38.3170   31.5770   39.1610 C   0  0  0  0  0  3  0  0  0  0  0  0
   37.2860   32.0990   40.0890 C   0  0  0  0  0  2  0  0  0  0  0  0
   36.4140   31.1200   40.7890 C   0  0  0  0  0  2  0  0  0  0  0  0
   37.1070   29.8650   41.2430 C   0  0  0  0  0  2  0  0  0  0  0  0
   38.5470   29.8060   40.7910 C   0  0  0  0  0  2  0  0  0  0  0  0
   38.5280   30.0880   39.3180 C   0  0  0  0  0  2  0  0  0  0  0  0
   39.9260   32.3000   36.8670 N   0  0  0  0  0  0  0  0  0  0  0  0
   40.3190   31.4440   36.4190 H   0  0  0  0  0  0  0  0  0  0  0  0
   39.2600   32.8300   36.2580 H   0  0  0  0  0  0  0  0  0  0  0  0
  1  6  1  0  0  0  0
  2  1  2  0  0  0  0
  2  3  1  0  0  0  0
  3  4  2  0  0  0  0
  4  5  1  0  0  0  0
  5  8  1  0  0  0  0
  6  5  2  0  0  0  0
  7  1  1  0  0  0  0
  9 14  1  0  0  0  0
  9  3  1  0  0  0  0
  9 10  1  0  0  0  0
 10 11  1  0  0  0  0
 11 12  1  0  0  0  0
 13 12  1  0  0  0  0
 14 13  1  0  0  0  0
 15  2  1  0  0  0  0
 16 15  1  0  0  0  0
 17 15  1  0  0  0  0
M  END
>  <minimizedAffinity>
-4.06166649

$$$$
