
 OpenBabel03242516013D

 25 27  0  0  0  0  0  0  0  0999 V2000
   40.3770   29.3780   40.4180 Cl  0  0  0  0  0  0  0  0  0  0  0  0
   38.7750   30.0450   40.5650 C   0  0  0  0  0  0  0  0  0  0  0  0
   38.4460   31.2370   40.0060 C   0  0  0  0  0  0  0  0  0  0  0  0
   37.1460   31.6770   40.1840 C   0  0  0  0  0  0  0  0  0  0  0  0
   36.2160   30.9650   40.8850 C   0  0  0  0  0  0  0  0  0  0  0  0
   36.5620   29.7520   41.4490 C   0  0  0  0  0  0  0  0  0  0  0  0
   37.8490   29.3060   41.2790 C   0  0  0  0  0  0  0  0  0  0  0  0
   36.8730   32.6270   39.7430 H   0  0  0  0  0  0  0  0  0  0  0  0
   35.2280   31.3670   40.9810 H   0  0  0  0  0  0  0  0  0  0  0  0
   35.7920   29.2500   41.9790 H   0  0  0  0  0  0  0  0  0  0  0  0
   41.1280   33.7430   39.0770 C   0  0  0  0  0  0  0  0  0  0  0  0
   40.1550   33.0410   39.7880 C   0  0  0  0  0  0  0  0  0  0  0  0
   39.4570   31.9670   39.2680 C   0  0  0  0  0  0  0  0  0  0  0  0
   39.7850   31.6260   37.9860 N   0  0  0  0  0  0  0  0  0  0  0  0
   40.7200   32.2950   37.2950 C   0  0  0  0  0  0  0  0  0  0  0  0
   41.3920   33.3460   37.8240 N   0  0  0  0  0  0  0  0  0  0  0  0
   41.5690   34.5500   39.6360 H   0  0  0  0  0  0  0  0  0  0  0  0
   39.8790   33.2940   40.8070 H   0  0  0  0  0  0  0  0  0  0  0  0
   40.9760   32.0160   36.2690 H   0  0  0  0  0  0  0  0  0  0  0  0
   38.2260   27.9990   41.8850 C   0  0  0  0  0  3  0  0  0  0  0  0
   36.9940   27.1110   41.9480 C   0  0  0  0  0  2  0  0  0  0  0  0
   37.4490   25.7150   42.2000 C   0  0  0  0  0  2  0  0  0  0  0  0
   38.8660   25.6610   42.6820 C   0  0  0  0  0  2  0  0  0  0  0  0
   39.2270   26.7230   43.6780 C   0  0  0  0  0  2  0  0  0  0  0  0
   38.7810   28.1110   43.2700 C   0  0  0  0  0  2  0  0  0  0  0  0
  1  2  1  0  0  0  0
  2  7  1  0  0  0  0
  3  4  1  0  0  0  0
  3  2  2  0  0  0  0
  4  5  2  0  0  0  0
  5  9  1  0  0  0  0
  5  6  1  0  0  0  0
  6 10  1  0  0  0  0
  7  6  2  0  0  0  0
  7 20  1  0  0  0  0
  8  4  1  0  0  0  0
 11 17  1  0  0  0  0
 11 12  1  0  0  0  0
 12 18  1  0  0  0  0
 13 12  2  0  0  0  0
 13  3  1  0  0  0  0
 14 13  1  0  0  0  0
 15 16  1  0  0  0  0
 15 14  2  0  0  0  0
 16 11  2  0  0  0  0
 19 15  1  0  0  0  0
 20 21  1  0  0  0  0
 20 25  1  0  0  0  0
 21 22  1  0  0  0  0
 22 23  1  0  0  0  0
 23 24  1  0  0  0  0
 25 24  1  0  0  0  0
M  END
>  <minimizedAffinity>
-5.34010029

$$$$

 OpenBabel03242516013D

 25 27  0  0  0  0  0  0  0  0999 V2000
   39.5090   29.8350   40.7750 Cl  0  0  0  0  0  0  0  0  0  0  0  0
   38.2200   29.9110   39.6070 C   0  0  0  0  0  0  0  0  0  0  0  0
   38.1900   30.8630   38.6400 C   0  0  0  0  0  0  0  0  0  0  0  0
   37.1200   30.8350   37.7630 C   0  0  0  0  0  0  0  0  0  0  0  0
   36.1260   29.9030   37.8430 C   0  0  0  0  0  0  0  0  0  0  0  0
   36.1670   28.9380   38.8300 C   0  0  0  0  0  0  0  0  0  0  0  0
   37.2230   28.9560   39.7060 C   0  0  0  0  0  0  0  0  0  0  0  0
   37.0870   31.5900   36.9880 H   0  0  0  0  0  0  0  0  0  0  0  0
   35.3280   29.9420   37.1290 H   0  0  0  0  0  0  0  0  0  0  0  0
   35.3630   28.2450   38.8360 H   0  0  0  0  0  0  0  0  0  0  0  0
   41.3120   32.7330   37.5940 C   0  0  0  0  0  0  0  0  0  0  0  0
   40.2800   31.7960   37.6480 C   0  0  0  0  0  0  0  0  0  0  0  0
   39.2630   31.8360   38.5830 C   0  0  0  0  0  0  0  0  0  0  0  0
   39.3290   32.8720   39.4710 N   0  0  0  0  0  0  0  0  0  0  0  0
   40.3170   33.7780   39.4260 C   0  0  0  0  0  0  0  0  0  0  0  0
   41.3050   33.7200   38.5020 N   0  0  0  0  0  0  0  0  0  0  0  0
   42.0180   32.5480   36.8030 H   0  0  0  0  0  0  0  0  0  0  0  0
   40.2070   30.9660   36.9530 H   0  0  0  0  0  0  0  0  0  0  0  0
   40.3630   34.6040   40.1420 H   0  0  0  0  0  0  0  0  0  0  0  0
   37.2720   27.9180   40.7730 C   0  0  0  0  0  3  0  0  0  0  0  0
   36.7460   26.6080   40.2090 C   0  0  0  0  0  2  0  0  0  0  0  0
   37.1400   25.5170   41.1430 C   0  0  0  0  0  2  0  0  0  0  0  0
   37.5660   26.0440   42.4790 C   0  0  0  0  0  2  0  0  0  0  0  0
   36.7230   27.1680   43.0040 C   0  0  0  0  0  2  0  0  0  0  0  0
   36.4600   28.2550   41.9830 C   0  0  0  0  0  2  0  0  0  0  0  0
  2  7  1  0  0  0  0
  2  1  1  0  0  0  0
  3  2  2  0  0  0  0
  4  5  2  0  0  0  0
  4  3  1  0  0  0  0
  5  6  1  0  0  0  0
  6 10  1  0  0  0  0
  6  7  2  0  0  0  0
  7 20  1  0  0  0  0
  8  4  1  0  0  0  0
  9  5  1  0  0  0  0
 11 12  2  0  0  0  0
 11 16  1  0  0  0  0
 12 13  1  0  0  0  0
 13  3  1  0  0  0  0
 13 14  2  0  0  0  0
 15 14  1  0  0  0  0
 15 19  1  0  0  0  0
 16 15  2  0  0  0  0
 17 11  1  0  0  0  0
 18 12  1  0  0  0  0
 20 25  1  0  0  0  0
 21 20  1  0  0  0  0
 21 22  1  0  0  0  0
 22 23  1  0  0  0  0
 23 24  1  0  0  0  0
 25 24  1  0  0  0  0
M  END
>  <minimizedAffinity>
-5.21931601

$$$$

 OpenBabel03242516013D

 25 27  0  0  0  0  0  0  0  0999 V2000
   38.2860   28.1690   39.4210 Cl  0  0  0  0  0  0  0  0  0  0  0  0
   37.8020   28.0010   41.0850 C   0  0  0  0  0  0  0  0  0  0  0  0
   37.7000   29.0760   41.9090 C   0  0  0  0  0  0  0  0  0  0  0  0
   37.3080   28.8330   43.2140 C   0  0  0  0  0  0  0  0  0  0  0  0
   37.0320   27.5800   43.6790 C   0  0  0  0  0  0  0  0  0  0  0  0
   37.1390   26.4930   42.8330 C   0  0  0  0  0  0  0  0  0  0  0  0
   37.5260   26.7230   41.5360 C   0  0  0  0  0  0  0  0  0  0  0  0
   37.2240   29.6830   43.8790 H   0  0  0  0  0  0  0  0  0  0  0  0
   36.7340   27.4670   44.7020 H   0  0  0  0  0  0  0  0  0  0  0  0
   36.9100   25.5490   43.2580 H   0  0  0  0  0  0  0  0  0  0  0  0
   39.5300   32.2570   40.9770 C   0  0  0  0  0  0  0  0  0  0  0  0
   39.2420   30.9900   41.4840 C   0  0  0  0  0  0  0  0  0  0  0  0
   38.0000   30.3920   41.3820 C   0  0  0  0  0  0  0  0  0  0  0  0
   37.0490   31.1340   40.7400 N   0  0  0  0  0  0  0  0  0  0  0  0
   37.3160   32.3530   40.2490 C   0  0  0  0  0  0  0  0  0  0  0  0
   38.5410   32.9200   40.3600 N   0  0  0  0  0  0  0  0  0  0  0  0
   40.5470   32.5660   41.1450 H   0  0  0  0  0  0  0  0  0  0  0  0
   39.9810   30.3840   41.9970 H   0  0  0  0  0  0  0  0  0  0  0  0
   36.5490   32.9390   39.7360 H   0  0  0  0  0  0  0  0  0  0  0  0
   37.6430   25.5550   40.6190 C   0  0  0  0  0  3  0  0  0  0  0  0
   36.6210   24.5060   41.0250 C   0  0  0  0  0  2  0  0  0  0  0  0
   36.4930   23.5330   39.9040 C   0  0  0  0  0  2  0  0  0  0  0  0
   37.6270   23.6420   38.9320 C   0  0  0  0  0  2  0  0  0  0  0  0
   38.9740   23.8350   39.5630 C   0  0  0  0  0  2  0  0  0  0  0  0
   38.9930   24.9080   40.6310 C   0  0  0  0  0  2  0  0  0  0  0  0
  1  2  1  0  0  0  0
  2  7  2  0  0  0  0
  2  3  1  0  0  0  0
  3  4  2  0  0  0  0
  4  5  1  0  0  0  0
  4  8  1  0  0  0  0
  5  9  1  0  0  0  0
  6 10  1  0  0  0  0
  6  5  2  0  0  0  0
  7  6  1  0  0  0  0
 11 17  1  0  0  0  0
 11 12  1  0  0  0  0
 12 18  1  0  0  0  0
 13 12  2  0  0  0  0
 13  3  1  0  0  0  0
 14 13  1  0  0  0  0
 15 16  1  0  0  0  0
 15 14  2  0  0  0  0
 16 11  2  0  0  0  0
 19 15  1  0  0  0  0
 20 25  1  0  0  0  0
 20 21  1  0  0  0  0
 20  7  1  0  0  0  0
 22 21  1  0  0  0  0
 23 24  1  0  0  0  0
 23 22  1  0  0  0  0
 24 25  1  0  0  0  0
M  END
>  <minimizedAffinity>
-5.20334768

$$$$

 OpenBabel03242516013D

 25 27  0  0  0  0  0  0  0  0999 V2000
   38.2790   28.0550   39.3780 Cl  0  0  0  0  0  0  0  0  0  0  0  0
   37.8220   27.9680   41.0560 C   0  0  0  0  0  0  0  0  0  0  0  0
   37.7050   29.0830   41.8210 C   0  0  0  0  0  0  0  0  0  0  0  0
   37.3380   28.9030   43.1430 C   0  0  0  0  0  0  0  0  0  0  0  0
   37.0970   27.6710   43.6800 C   0  0  0  0  0  0  0  0  0  0  0  0
   37.2180   26.5430   42.8920 C   0  0  0  0  0  0  0  0  0  0  0  0
   37.5820   26.7100   41.5790 C   0  0  0  0  0  0  0  0  0  0  0  0
   37.2420   29.7860   43.7620 H   0  0  0  0  0  0  0  0  0  0  0  0
   36.8160   27.6080   44.7120 H   0  0  0  0  0  0  0  0  0  0  0  0
   37.0170   25.6180   43.3710 H   0  0  0  0  0  0  0  0  0  0  0  0
   37.2450   32.3910   40.0360 C   0  0  0  0  0  0  0  0  0  0  0  0
   36.9920   31.1470   40.6150 C   0  0  0  0  0  0  0  0  0  0  0  0
   37.9670   30.3760   41.2190 C   0  0  0  0  0  0  0  0  0  0  0  0
   39.2220   30.9150   41.2140 N   0  0  0  0  0  0  0  0  0  0  0  0
   39.4740   32.1100   40.6590 C   0  0  0  0  0  0  0  0  0  0  0  0
   38.5030   32.8510   40.0730 N   0  0  0  0  0  0  0  0  0  0  0  0
   36.3690   32.8520   39.6130 H   0  0  0  0  0  0  0  0  0  0  0  0
   36.0040   30.7000   40.6320 H   0  0  0  0  0  0  0  0  0  0  0  0
   40.4820   32.5350   40.6600 H   0  0  0  0  0  0  0  0  0  0  0  0
   37.7140   25.4970   40.7250 C   0  0  0  0  0  3  0  0  0  0  0  0
   36.6510   24.4900   41.1330 C   0  0  0  0  0  2  0  0  0  0  0  0
   36.5520   23.4660   40.0550 C   0  0  0  0  0  2  0  0  0  0  0  0
   37.7310   23.5040   39.1320 C   0  0  0  0  0  2  0  0  0  0  0  0
   39.0520   23.7010   39.8140 C   0  0  0  0  0  2  0  0  0  0  0  0
   39.0470   24.8240   40.8300 C   0  0  0  0  0  2  0  0  0  0  0  0
  1  2  1  0  0  0  0
  2  7  2  0  0  0  0
  2  3  1  0  0  0  0
  3  4  2  0  0  0  0
  4  5  1  0  0  0  0
  4  8  1  0  0  0  0
  5  9  1  0  0  0  0
  6 10  1  0  0  0  0
  6  5  2  0  0  0  0
  7  6  1  0  0  0  0
 11 16  2  0  0  0  0
 11 12  1  0  0  0  0
 12 18  1  0  0  0  0
 12 13  2  0  0  0  0
 13  3  1  0  0  0  0
 14 13  1  0  0  0  0
 15 19  1  0  0  0  0
 15 14  2  0  0  0  0
 16 15  1  0  0  0  0
 17 11  1  0  0  0  0
 20 25  1  0  0  0  0
 20 21  1  0  0  0  0
 20  7  1  0  0  0  0
 22 21  1  0  0  0  0
 23 24  1  0  0  0  0
 23 22  1  0  0  0  0
 24 25  1  0  0  0  0
M  END
>  <minimizedAffinity>
-5.18428087

$$$$

 OpenBabel03242516013D

 25 27  0  0  0  0  0  0  0  0999 V2000
   39.1690   27.8500   39.8650 Cl  0  0  0  0  0  0  0  0  0  0  0  0
   38.2740   27.8250   41.3590 C   0  0  0  0  0  0  0  0  0  0  0  0
   38.2080   28.9130   42.1670 C   0  0  0  0  0  0  0  0  0  0  0  0
   37.4710   28.7870   43.3320 C   0  0  0  0  0  0  0  0  0  0  0  0
   36.8300   27.6330   43.6770 C   0  0  0  0  0  0  0  0  0  0  0  0
   36.9040   26.5310   42.8470 C   0  0  0  0  0  0  0  0  0  0  0  0
   37.6320   26.6450   41.6880 C   0  0  0  0  0  0  0  0  0  0  0  0
   37.4120   29.6490   43.9840 H   0  0  0  0  0  0  0  0  0  0  0  0
   36.2770   27.6080   44.5950 H   0  0  0  0  0  0  0  0  0  0  0  0
   36.3830   25.6670   43.1740 H   0  0  0  0  0  0  0  0  0  0  0  0
   40.8800   31.5570   41.7150 C   0  0  0  0  0  0  0  0  0  0  0  0
   40.2150   30.3930   42.0980 C   0  0  0  0  0  0  0  0  0  0  0  0
   38.8990   30.1240   41.7700 C   0  0  0  0  0  0  0  0  0  0  0  0
   38.2750   31.0890   41.0320 N   0  0  0  0  0  0  0  0  0  0  0  0
   38.9060   32.2120   40.6600 C   0  0  0  0  0  0  0  0  0  0  0  0
   40.1960   32.4560   40.9920 N   0  0  0  0  0  0  0  0  0  0  0  0
   41.9000   31.6010   42.0560 H   0  0  0  0  0  0  0  0  0  0  0  0
   40.6920   29.6130   42.6830 H   0  0  0  0  0  0  0  0  0  0  0  0
   38.3980   32.9800   40.0690 H   0  0  0  0  0  0  0  0  0  0  0  0
   37.7150   25.4610   40.7900 C   0  0  0  0  0  3  0  0  0  0  0  0
   36.5200   25.4710   39.8500 C   0  0  0  0  0  2  0  0  0  0  0  0
   36.8030   24.5190   38.7390 C   0  0  0  0  0  2  0  0  0  0  0  0
   37.9360   23.5950   39.0630 C   0  0  0  0  0  2  0  0  0  0  0  0
   37.9340   23.0740   40.4700 C   0  0  0  0  0  2  0  0  0  0  0  0
   37.7180   24.1500   41.5130 C   0  0  0  0  0  2  0  0  0  0  0  0
  1  2  1  0  0  0  0
  2  7  2  0  0  0  0
  2  3  1  0  0  0  0
  3  4  2  0  0  0  0
  4  5  1  0  0  0  0
  4  8  1  0  0  0  0
  5  9  1  0  0  0  0
  6 10  1  0  0  0  0
  6  5  2  0  0  0  0
  7  6  1  0  0  0  0
 11 17  1  0  0  0  0
 11 12  1  0  0  0  0
 12 18  1  0  0  0  0
 13 12  2  0  0  0  0
 13  3  1  0  0  0  0
 14 13  1  0  0  0  0
 15 16  1  0  0  0  0
 15 14  2  0  0  0  0
 16 11  2  0  0  0  0
 19 15  1  0  0  0  0
 20 25  1  0  0  0  0
 20  7  1  0  0  0  0
 21 20  1  0  0  0  0
 22 23  1  0  0  0  0
 22 21  1  0  0  0  0
 23 24  1  0  0  0  0
 24 25  1  0  0  0  0
M  END
>  <minimizedAffinity>
-5.07842255

$$$$

 OpenBabel03242516013D

 25 27  0  0  0  0  0  0  0  0999 V2000
   40.0830   29.2010   40.3050 Cl  0  0  0  0  0  0  0  0  0  0  0  0
   39.0190   30.5630   40.0920 C   0  0  0  0  0  0  0  0  0  0  0  0
   39.3880   31.6480   39.3650 C   0  0  0  0  0  0  0  0  0  0  0  0
   38.4680   32.6760   39.2590 C   0  0  0  0  0  0  0  0  0  0  0  0
   37.2380   32.6280   39.8480 C   0  0  0  0  0  0  0  0  0  0  0  0
   36.8720   31.5190   40.5860 C   0  0  0  0  0  0  0  0  0  0  0  0
   37.7770   30.4920   40.6970 C   0  0  0  0  0  0  0  0  0  0  0  0
   38.7530   33.5470   38.6820 H   0  0  0  0  0  0  0  0  0  0  0  0
   36.5760   33.4620   39.7230 H   0  0  0  0  0  0  0  0  0  0  0  0
   35.9030   31.5460   41.0160 H   0  0  0  0  0  0  0  0  0  0  0  0
   43.0830   32.2190   38.7710 C   0  0  0  0  0  0  0  0  0  0  0  0
   41.8200   32.2020   39.3610 C   0  0  0  0  0  0  0  0  0  0  0  0
   40.7010   31.6660   38.7520 C   0  0  0  0  0  0  0  0  0  0  0  0
   40.9110   31.1410   37.5080 N   0  0  0  0  0  0  0  0  0  0  0  0
   42.1230   31.1530   36.9330 C   0  0  0  0  0  0  0  0  0  0  0  0
   43.2060   31.6840   37.5470 N   0  0  0  0  0  0  0  0  0  0  0  0
   43.8390   32.6750   39.3870 H   0  0  0  0  0  0  0  0  0  0  0  0
   41.6310   32.6120   40.3480 H   0  0  0  0  0  0  0  0  0  0  0  0
   42.2820   30.7300   35.9360 H   0  0  0  0  0  0  0  0  0  0  0  0
   37.3870   29.2940   41.4910 C   0  0  0  0  0  3  0  0  0  0  0  0
   38.2640   29.2180   42.7300 C   0  0  0  0  0  2  0  0  0  0  0  0
   37.6330   28.2590   43.6800 C   0  0  0  0  0  2  0  0  0  0  0  0
   36.5980   27.4050   43.0130 C   0  0  0  0  0  2  0  0  0  0  0  0
   36.9770   26.9170   41.6470 C   0  0  0  0  0  2  0  0  0  0  0  0
   37.5310   28.0030   40.7490 C   0  0  0  0  0  2  0  0  0  0  0  0
  2  1  1  0  0  0  0
  2  7  1  0  0  0  0
  3  2  2  0  0  0  0
  4  3  1  0  0  0  0
  4  5  2  0  0  0  0
  5  6  1  0  0  0  0
  6  7  2  0  0  0  0
  6 10  1  0  0  0  0
  7 20  1  0  0  0  0
  8  4  1  0  0  0  0
  9  5  1  0  0  0  0
 11 12  1  0  0  0  0
 11 17  1  0  0  0  0
 12 18  1  0  0  0  0
 13 12  2  0  0  0  0
 13  3  1  0  0  0  0
 14 13  1  0  0  0  0
 15 14  2  0  0  0  0
 15 16  1  0  0  0  0
 16 11  2  0  0  0  0
 19 15  1  0  0  0  0
 20 21  1  0  0  0  0
 21 22  1  0  0  0  0
 23 22  1  0  0  0  0
 24 23  1  0  0  0  0
 25 20  1  0  0  0  0
 25 24  1  0  0  0  0
M  END
>  <minimizedAffinity>
-5.04829311

$$$$

 OpenBabel03242516013D

 25 27  0  0  0  0  0  0  0  0999 V2000
   39.7700   28.0750   40.2850 Cl  0  0  0  0  0  0  0  0  0  0  0  0
   38.5720   27.8510   41.5280 C   0  0  0  0  0  0  0  0  0  0  0  0
   38.8820   27.2830   42.7220 C   0  0  0  0  0  0  0  0  0  0  0  0
   37.8550   27.1500   43.6400 C   0  0  0  0  0  0  0  0  0  0  0  0
   36.5790   27.5620   43.3840 C   0  0  0  0  0  0  0  0  0  0  0  0
   36.2750   28.1390   42.1670 C   0  0  0  0  0  0  0  0  0  0  0  0
   37.2850   28.2760   41.2480 C   0  0  0  0  0  0  0  0  0  0  0  0
   38.0920   26.6990   44.5950 H   0  0  0  0  0  0  0  0  0  0  0  0
   35.8350   27.4280   44.1440 H   0  0  0  0  0  0  0  0  0  0  0  0
   35.2650   28.4370   42.0330 H   0  0  0  0  0  0  0  0  0  0  0  0
   42.0140   25.1670   42.9450 C   0  0  0  0  0  0  0  0  0  0  0  0
   40.7000   25.5750   42.7140 C   0  0  0  0  0  0  0  0  0  0  0  0
   40.2460   26.8580   42.9610 C   0  0  0  0  0  0  0  0  0  0  0  0
   41.1830   27.7210   43.4550 N   0  0  0  0  0  0  0  0  0  0  0  0
   42.4480   27.3370   43.6800 C   0  0  0  0  0  0  0  0  0  0  0  0
   42.8720   26.0750   43.4310 N   0  0  0  0  0  0  0  0  0  0  0  0
   42.1920   24.1350   42.6960 H   0  0  0  0  0  0  0  0  0  0  0  0
   39.9410   24.9070   42.3220 H   0  0  0  0  0  0  0  0  0  0  0  0
   43.1910   28.0350   44.0760 H   0  0  0  0  0  0  0  0  0  0  0  0
   36.9620   28.8970   39.9330 C   0  0  0  0  0  3  0  0  0  0  0  0
   36.8950   30.4060   40.1050 C   0  0  0  0  0  2  0  0  0  0  0  0
   36.9430   31.0230   38.7500 C   0  0  0  0  0  2  0  0  0  0  0  0
   36.6610   30.0290   37.6670 C   0  0  0  0  0  2  0  0  0  0  0  0
   35.5530   29.0650   37.9760 C   0  0  0  0  0  2  0  0  0  0  0  0
   35.6600   28.4430   39.3520 C   0  0  0  0  0  2  0  0  0  0  0  0
  1  2  1  0  0  0  0
  2  3  1  0  0  0  0
  3 13  1  0  0  0  0
  3  4  2  0  0  0  0
  4  8  1  0  0  0  0
  5  4  1  0  0  0  0
  5  9  1  0  0  0  0
  6  5  2  0  0  0  0
  7  2  2  0  0  0  0
  7  6  1  0  0  0  0
 10  6  1  0  0  0  0
 11 16  1  0  0  0  0
 12 11  2  0  0  0  0
 12 13  1  0  0  0  0
 13 14  2  0  0  0  0
 14 15  1  0  0  0  0
 15 19  1  0  0  0  0
 16 15  2  0  0  0  0
 17 11  1  0  0  0  0
 18 12  1  0  0  0  0
 20 21  1  0  0  0  0
 20  7  1  0  0  0  0
 22 21  1  0  0  0  0
 23 24  1  0  0  0  0
 23 22  1  0  0  0  0
 24 25  1  0  0  0  0
 25 20  1  0  0  0  0
M  END
>  <minimizedAffinity>
-5.01082659

$$$$

 OpenBabel03242516013D

 25 27  0  0  0  0  0  0  0  0999 V2000
   37.6650   31.2350   37.3030 Cl  0  0  0  0  0  0  0  0  0  0  0  0
   36.8070   30.5450   38.6520 C   0  0  0  0  0  0  0  0  0  0  0  0
   37.0790   30.9100   39.9310 C   0  0  0  0  0  0  0  0  0  0  0  0
   36.3410   30.2990   40.9290 C   0  0  0  0  0  0  0  0  0  0  0  0
   35.3770   29.3690   40.6690 C   0  0  0  0  0  0  0  0  0  0  0  0
   35.1070   29.0050   39.3640 C   0  0  0  0  0  0  0  0  0  0  0  0
   35.8340   29.6050   38.3650 C   0  0  0  0  0  0  0  0  0  0  0  0
   36.5500   30.5830   41.9530 H   0  0  0  0  0  0  0  0  0  0  0  0
   34.8440   28.9380   41.4930 H   0  0  0  0  0  0  0  0  0  0  0  0
   34.3470   28.2780   39.2320 H   0  0  0  0  0  0  0  0  0  0  0  0
   40.4250   32.5380   40.6320 C   0  0  0  0  0  0  0  0  0  0  0  0
   39.4350   31.5840   40.4000 C   0  0  0  0  0  0  0  0  0  0  0  0
   38.1090   31.9010   40.1720 C   0  0  0  0  0  0  0  0  0  0  0  0
   37.8190   33.2360   40.1880 N   0  0  0  0  0  0  0  0  0  0  0  0
   38.7650   34.1610   40.4100 C   0  0  0  0  0  0  0  0  0  0  0  0
   40.0590   33.8280   40.6310 N   0  0  0  0  0  0  0  0  0  0  0  0
   41.4010   32.1140   40.7890 H   0  0  0  0  0  0  0  0  0  0  0  0
   39.6420   30.5190   40.3820 H   0  0  0  0  0  0  0  0  0  0  0  0
   38.5240   35.2280   40.4210 H   0  0  0  0  0  0  0  0  0  0  0  0
   35.5480   29.2160   36.9560 C   0  0  0  0  0  3  0  0  0  0  0  0
   34.0550   28.9760   36.8060 C   0  0  0  0  0  2  0  0  0  0  0  0
   33.7390   28.9560   35.3500 C   0  0  0  0  0  2  0  0  0  0  0  0
   34.9670   28.7930   34.5080 C   0  0  0  0  0  2  0  0  0  0  0  0
   35.9600   27.8020   35.0390 C   0  0  0  0  0  2  0  0  0  0  0  0
   36.2590   27.9760   36.5130 C   0  0  0  0  0  2  0  0  0  0  0  0
  1  2  1  0  0  0  0
  2  3  1  0  0  0  0
  3 13  1  0  0  0  0
  3  4  2  0  0  0  0
  4  8  1  0  0  0  0
  5  4  1  0  0  0  0
  5  9  1  0  0  0  0
  6  5  2  0  0  0  0
  7  2  2  0  0  0  0
  7  6  1  0  0  0  0
 10  6  1  0  0  0  0
 11 17  1  0  0  0  0
 12 11  2  0  0  0  0
 13 14  2  0  0  0  0
 13 12  1  0  0  0  0
 14 15  1  0  0  0  0
 15 19  1  0  0  0  0
 15 16  2  0  0  0  0
 16 11  1  0  0  0  0
 18 12  1  0  0  0  0
 20  7  1  0  0  0  0
 21 20  1  0  0  0  0
 22 21  1  0  0  0  0
 23 24  1  0  0  0  0
 23 22  1  0  0  0  0
 24 25  1  0  0  0  0
 25 20  1  0  0  0  0
M  END
>  <minimizedAffinity>
-5.01033926

$$$$

 OpenBabel03242516013D

 25 27  0  0  0  0  0  0  0  0999 V2000
   38.0120   27.8110   39.2440 Cl  0  0  0  0  0  0  0  0  0  0  0  0
   37.8070   27.8770   40.9720 C   0  0  0  0  0  0  0  0  0  0  0  0
   37.6570   26.7500   41.7150 C   0  0  0  0  0  0  0  0  0  0  0  0
   37.5000   26.9140   43.0800 C   0  0  0  0  0  0  0  0  0  0  0  0
   37.4930   28.1400   43.6790 C   0  0  0  0  0  0  0  0  0  0  0  0
   37.6470   29.2800   42.9140 C   0  0  0  0  0  0  0  0  0  0  0  0
   37.8040   29.1290   41.5580 C   0  0  0  0  0  0  0  0  0  0  0  0
   37.3790   26.0220   43.6810 H   0  0  0  0  0  0  0  0  0  0  0  0
   37.3670   28.1900   44.7420 H   0  0  0  0  0  0  0  0  0  0  0  0
   37.6320   30.2000   43.4420 H   0  0  0  0  0  0  0  0  0  0  0  0
   36.5420   23.5830   39.9660 C   0  0  0  0  0  0  0  0  0  0  0  0
   36.5280   24.8200   40.6090 C   0  0  0  0  0  0  0  0  0  0  0  0
   37.6700   25.4640   41.0460 C   0  0  0  0  0  0  0  0  0  0  0  0
   38.8400   24.8010   40.8060 N   0  0  0  0  0  0  0  0  0  0  0  0
   38.8630   23.6110   40.1880 C   0  0  0  0  0  0  0  0  0  0  0  0
   37.7320   22.9970   39.7670 N   0  0  0  0  0  0  0  0  0  0  0  0
   35.5620   23.2290   39.6940 H   0  0  0  0  0  0  0  0  0  0  0  0
   35.6110   25.3640   40.8090 H   0  0  0  0  0  0  0  0  0  0  0  0
   39.8050   23.0870   40.0000 H   0  0  0  0  0  0  0  0  0  0  0  0
   37.9700   30.3550   40.7290 C   0  0  0  0  0  3  0  0  0  0  0  0
   39.0460   31.2290   41.3530 C   0  0  0  0  0  2  0  0  0  0  0  0
   39.4580   32.2410   40.3400 C   0  0  0  0  0  2  0  0  0  0  0  0
   38.4750   32.3460   39.2150 C   0  0  0  0  0  2  0  0  0  0  0  0
   37.0360   32.2990   39.6370 C   0  0  0  0  0  2  0  0  0  0  0  0
   36.7260   31.1770   40.6050 C   0  0  0  0  0  2  0  0  0  0  0  0
  1  2  1  0  0  0  0
  2  7  2  0  0  0  0
  2  3  1  0  0  0  0
  3  4  2  0  0  0  0
  4  5  1  0  0  0  0
  4  8  1  0  0  0  0
  5  9  1  0  0  0  0
  6 10  1  0  0  0  0
  6  5  2  0  0  0  0
  7  6  1  0  0  0  0
 11 12  1  0  0  0  0
 12 18  1  0  0  0  0
 12 13  2  0  0  0  0
 13  3  1  0  0  0  0
 14 13  1  0  0  0  0
 15 14  2  0  0  0  0
 16 11  2  0  0  0  0
 16 15  1  0  0  0  0
 17 11  1  0  0  0  0
 19 15  1  0  0  0  0
 20 21  1  0  0  0  0
 20  7  1  0  0  0  0
 22 21  1  0  0  0  0
 23 24  1  0  0  0  0
 23 22  1  0  0  0  0
 24 25  1  0  0  0  0
 25 20  1  0  0  0  0
M  END
>  <minimizedAffinity>
-4.99932575

$$$$
