
 OpenBabel03252506573D

 35 39  0  0  0  0  0  0  0  0999 V2000
   47.2220   31.4160   45.0520 C   0  0  0  0  0  0  0  0  0  0  0  0
   46.8980   32.7610   45.0510 C   0  0  0  0  0  0  0  0  0  0  0  0
   46.2890   33.3980   46.1180 C   0  0  0  0  0  0  0  0  0  0  0  0
   45.9770   32.6700   47.2620 C   0  0  0  0  0  0  0  0  0  0  0  0
   45.3990   32.9450   48.4650 N   0  0  0  0  0  0  0  0  0  0  0  0
   45.3680   31.7990   49.1870 C   0  0  0  0  0  0  0  0  0  0  0  0
   45.9260   30.8310   48.4250 N   0  0  0  0  0  0  0  0  0  0  0  0
   46.3050   31.3390   47.2490 C   0  0  0  0  0  0  0  0  0  0  0  0
   46.9070   30.6880   46.2060 C   0  0  0  0  0  0  0  0  0  0  0  0
   47.6930   30.9520   44.2100 H   0  0  0  0  0  0  0  0  0  0  0  0
   46.0440   34.4420   46.1050 H   0  0  0  0  0  0  0  0  0  0  0  0
   45.0560   33.9130   48.7210 H   0  0  0  0  0  0  0  0  0  0  0  0
   44.9560   31.7430   50.1860 H   0  0  0  0  0  0  0  0  0  0  0  0
   46.6140   35.2130   42.3150 C   0  0  0  0  0  0  0  0  0  0  0  0
   47.8020   35.0400   41.6240 C   0  0  0  0  0  0  0  0  0  0  0  0
   48.7080   34.0810   42.0920 C   0  0  0  0  0  0  0  0  0  0  0  0
   48.3750   33.3630   43.2090 N   0  0  0  0  0  0  0  0  0  0  0  0
   47.2160   33.5530   43.8570 C   0  0  0  0  0  0  0  0  0  0  0  0
   46.3290   34.4730   43.4200 N   0  0  0  0  0  0  0  0  0  0  0  0
   45.8750   35.9530   41.9850 H   0  0  0  0  0  0  0  0  0  0  0  0
   48.0330   35.6180   40.7540 H   0  0  0  0  0  0  0  0  0  0  0  0
   49.6560   33.9050   41.5860 H   0  0  0  0  0  0  0  0  0  0  0  0
   47.2190   29.2510   46.2860 C   0  0  0  0  0  0  0  0  0  0  0  0
   48.4950   28.7460   46.5160 C   0  0  0  0  0  0  0  0  0  0  0  0
   48.2900   27.3530   46.5050 C   0  0  0  0  0  0  0  0  0  0  0  0
   46.9460   27.1130   46.2780 C   0  0  0  0  0  0  0  0  0  0  0  0
   46.3550   28.2890   46.1540 O   0  0  0  0  0  0  0  0  0  0  0  0
   49.4280   29.2780   46.6680 H   0  0  0  0  0  0  0  0  0  0  0  0
   49.0530   26.6030   46.6520 H   0  0  0  0  0  0  0  0  0  0  0  0
   46.2380   25.7960   46.1800 C   0  0  0  0  0  3  0  0  0  0  0  0
   45.0060   25.8900   45.3280 C   0  0  0  0  0  2  0  0  0  0  0  0
   43.7460   26.0630   46.1440 C   0  0  0  0  0  2  0  0  0  0  0  0
   43.5150   24.8700   47.0400 C   0  0  0  0  0  2  0  0  0  0  0  0
   44.8140   24.2830   47.5080 C   0  0  0  0  0  2  0  0  0  0  0  0
   45.9510   25.2690   47.5560 C   0  0  0  0  0  2  0  0  0  0  0  0
  1  9  1  0  0  0  0
  2  1  2  0  0  0  0
  2  3  1  0  0  0  0
  3  4  2  0  0  0  0
  4  5  1  0  0  0  0
  5 12  1  0  0  0  0
  5  6  1  0  0  0  0
  6 13  1  0  0  0  0
  7  6  2  0  0  0  0
  8  4  1  0  0  0  0
  8  7  1  0  0  0  0
  9 23  1  0  0  0  0
  9  8  2  0  0  0  0
 10  1  1  0  0  0  0
 11  3  1  0  0  0  0
 14 19  1  0  0  0  0
 15 16  1  0  0  0  0
 15 14  2  0  0  0  0
 16 17  2  0  0  0  0
 17 18  1  0  0  0  0
 18  2  1  0  0  0  0
 19 18  2  0  0  0  0
 20 14  1  0  0  0  0
 21 15  1  0  0  0  0
 22 16  1  0  0  0  0
 23 24  2  0  0  0  0
 24 28  1  0  0  0  0
 25 24  1  0  0  0  0
 25 29  1  0  0  0  0
 26 25  2  0  0  0  0
 27 26  1  0  0  0  0
 27 23  1  0  0  0  0
 30 26  1  0  0  0  0
 30 35  1  0  0  0  0
 31 32  1  0  0  0  0
 31 30  1  0  0  0  0
 32 33  1  0  0  0  0
 33 34  1  0  0  0  0
 34 35  1  0  0  0  0
M  END
>  <minimizedAffinity>
-5.6612606

>  <minimizedRMSD>
0.342336208

$$$$
