
 OpenBabel03242510063D

 15 16  0  0  1  0  0  0  0  0999 V2000
   45.4010   34.8300   44.3990 C   0  0  0  0  0  0  0  0  0  0  0  0
   46.4090   34.4570   43.4930 C   0  0  0  0  0  0  0  0  0  0  0  0
   47.2140   33.3640   43.8260 C   0  0  0  0  0  0  0  0  0  0  0  0
   46.9790   32.7240   45.0040 N   0  0  0  0  0  0  0  0  0  0  0  0
   46.0010   33.1050   45.8570 C   0  0  0  0  0  0  0  0  0  0  0  0
   45.2080   34.1620   45.5570 N   0  0  0  0  0  0  0  0  0  0  0  0
   44.7620   35.6850   44.1530 H   0  0  0  0  0  0  0  0  0  0  0  0
   46.5720   34.9760   42.5790 H   0  0  0  0  0  0  0  0  0  0  0  0
   48.0140   33.0030   43.1930 H   0  0  0  0  0  0  0  0  0  0  0  0
   45.8080   32.3500   47.1280 C   0  0  2  0  0  3  0  0  0  0  0  0
   46.8940   32.7670   48.0460 C   0  0  0  0  0  2  0  0  0  0  0  0
   47.9900   31.7520   48.2160 C   0  0  0  0  0  2  0  0  0  0  0  0
   47.3260   30.4910   48.7010 C   0  0  0  0  0  2  0  0  0  0  0  0
   46.3510   29.9390   47.7270 C   0  0  0  0  0  3  0  0  0  0  0  0
   45.6980   30.9060   46.8130 C   0  0  0  0  0  3  0  0  0  0  0  0
  1  6  1  0  0  0  0
  2  3  1  0  0  0  0
  2  1  2  0  0  0  0
  3  4  2  0  0  0  0
  4  5  1  0  0  0  0
  6  5  2  0  0  0  0
  7  1  1  0  0  0  0
  8  2  1  0  0  0  0
  9  3  1  0  0  0  0
 10  5  1  6  0  0  0
 10 11  1  0  0  0  0
 11 12  1  0  0  0  0
 12 13  1  0  0  0  0
 14 13  1  0  0  0  0
 15 10  1  0  0  0  0
 15 14  2  0  0  0  0
M  END
>  <minimizedAffinity>
-3.51110888

>  <minimizedRMSD>
1.28605926

$$$$
