
 OpenBabel03242521343D

 28 31  0  0  0  0  0  0  0  0999 V2000
   47.9090   35.1920   41.9710 C   0  0  0  0  0  0  0  0  0  0  0  0
   46.6600   34.6480   42.0960 C   0  0  0  0  0  0  0  0  0  0  0  0
   46.0810   34.0190   41.0010 C   0  0  0  0  0  0  0  0  0  0  0  0
   46.7360   33.9270   39.7840 C   0  0  0  0  0  0  0  0  0  0  0  0
   46.3740   33.3690   38.5940 N   0  0  0  0  0  0  0  0  0  0  0  0
   47.4050   33.5670   37.7240 C   0  0  0  0  0  0  0  0  0  0  0  0
   48.3810   34.2390   38.3840 N   0  0  0  0  0  0  0  0  0  0  0  0
   48.0040   34.4780   39.6520 C   0  0  0  0  0  0  0  0  0  0  0  0
   48.5690   35.0960   40.7360 C   0  0  0  0  0  0  0  0  0  0  0  0
   48.4690   35.7100   42.7540 H   0  0  0  0  0  0  0  0  0  0  0  0
   45.0860   33.5970   41.1380 H   0  0  0  0  0  0  0  0  0  0  0  0
   45.4420   32.8820   38.4390 H   0  0  0  0  0  0  0  0  0  0  0  0
   47.3230   33.2010   36.7240 H   0  0  0  0  0  0  0  0  0  0  0  0
   49.5630   35.5140   40.5910 H   0  0  0  0  0  0  0  0  0  0  0  0
   44.4640   35.7440   44.9720 C   0  0  0  0  0  0  0  0  0  0  0  0
   45.0410   35.7430   43.6720 C   0  0  0  0  0  0  0  0  0  0  0  0
   45.9940   34.7590   43.3890 C   0  0  0  0  0  0  0  0  0  0  0  0
   46.3250   33.8640   44.3430 N   0  0  0  0  0  0  0  0  0  0  0  0
   45.7470   33.9000   45.5750 C   0  0  0  0  0  0  0  0  0  0  0  0
   44.8370   34.8260   45.8740 N   0  0  0  0  0  0  0  0  0  0  0  0
   43.7340   36.5220   45.1440 H   0  0  0  0  0  0  0  0  0  0  0  0
   44.8040   36.4340   42.8950 H   0  0  0  0  0  0  0  0  0  0  0  0
   46.1670   32.8800   46.5650 C   0  0  0  0  0  0  0  0  0  0  0  0
   45.2660   32.7450   47.7470 C   0  0  0  0  0  0  0  0  0  0  0  0
   45.9960   31.9140   48.7840 C   0  0  0  0  0  0  0  0  0  0  0  0
   46.4100   30.5710   48.2250 C   0  0  0  0  0  0  0  0  0  0  0  0
   47.1540   30.7010   46.9130 C   0  0  0  0  0  0  0  0  0  0  0  0
   46.2940   31.5060   45.9310 C   0  0  0  0  0  0  0  0  0  0  0  0
  1  2  1  0  0  0  0
  1 10  1  0  0  0  0
  2 17  1  0  0  0  0
  3 11  1  0  0  0  0
  3  2  2  0  0  0  0
  4  3  1  0  0  0  0
  5  4  1  0  0  0  0
  6  7  2  0  0  0  0
  6  5  1  0  0  0  0
  7  8  1  0  0  0  0
  8  4  2  0  0  0  0
  8  9  1  0  0  0  0
  9  1  2  0  0  0  0
 12  5  1  0  0  0  0
 13  6  1  0  0  0  0
 14  9  1  0  0  0  0
 15 21  1  0  0  0  0
 15 20  1  0  0  0  0
 16 15  2  0  0  0  0
 17 16  1  0  0  0  0
 17 18  2  0  0  0  0
 18 19  1  0  0  0  0
 19 20  2  0  0  0  0
 19 23  1  0  0  0  0
 22 16  1  0  0  0  0
 23 24  1  0  0  0  0
 24 25  1  0  0  0  0
 26 25  1  0  0  0  0
 27 26  1  0  0  0  0
 28 23  1  0  0  0  0
 28 27  1  0  0  0  0
M  END
>  <minimizedAffinity>
-7.04208088

>  <minimizedRMSD>
0.330335021

$$$$
