
 OpenBabel03252506253D

 42 46  0  0  0  0  0  0  0  0999 V2000
   46.1530   30.2000   48.3510 C   0  0  0  0  0  0  0  0  0  0  0  0
   45.4920   31.0810   48.4750 H   0  0  0  0  0  0  0  0  0  0  0  0
   46.3560   29.8600   49.4100 H   0  0  0  0  0  0  0  0  0  0  0  0
   45.6230   27.7190   47.8390 C   0  0  0  0  0  0  0  0  0  0  0  0
   45.4420   29.0870   47.7130 C   0  0  0  0  0  0  0  0  0  0  0  0
   44.4290   29.5060   46.8510 C   0  0  0  0  0  0  0  0  0  0  0  0
   43.6430   28.6190   46.1540 C   0  0  0  0  0  0  0  0  0  0  0  0
   42.6300   28.7290   45.2900 N   0  0  0  0  0  0  0  0  0  0  0  0
   42.2000   27.5110   44.8970 C   0  0  0  0  0  0  0  0  0  0  0  0
   42.9570   26.5330   45.5230 C   0  0  0  0  0  0  0  0  0  0  0  0
   43.8380   27.2650   46.2920 C   0  0  0  0  0  0  0  0  0  0  0  0
   44.8380   26.8500   47.1440 C   0  0  0  0  0  0  0  0  0  0  0  0
   46.4260   27.4770   48.5240 H   0  0  0  0  0  0  0  0  0  0  0  0
   44.1820   30.5420   46.6610 H   0  0  0  0  0  0  0  0  0  0  0  0
   42.2190   29.6450   44.9570 H   0  0  0  0  0  0  0  0  0  0  0  0
   41.3840   27.3010   44.1950 H   0  0  0  0  0  0  0  0  0  0  0  0
   42.9040   25.4530   45.4550 H   0  0  0  0  0  0  0  0  0  0  0  0
   45.0750   25.4140   47.3140 C   0  0  0  0  0  3  0  0  0  0  0  0
   46.0030   24.7660   46.3590 C   0  0  0  0  0  2  0  0  0  0  0  0
   47.2100   24.1110   46.9670 C   0  0  0  0  0  2  0  0  0  0  0  0
   46.8800   23.1000   48.0170 C   0  0  0  0  0  2  0  0  0  0  0  0
   45.7680   23.5930   48.8840 C   0  0  0  0  0  2  0  0  0  0  0  0
   45.6340   25.1090   48.7100 C   0  0  0  0  0  2  0  0  0  0  0  0
   47.4480   30.5920   47.7590 C   0  0  0  0  0  0  0  0  0  0  0  0
   48.1120   29.7400   47.6240 H   0  0  0  0  0  0  0  0  0  0  0  0
   47.9510   31.2830   48.4850 H   0  0  0  0  0  0  0  0  0  0  0  0
   46.5800   32.8680   45.1520 C   0  0  0  0  0  0  0  0  0  0  0  0
   47.2260   31.8250   44.4390 C   0  0  0  0  0  0  0  0  0  0  0  0
   47.6180   30.8700   45.3170 C   0  0  0  0  0  0  0  0  0  0  0  0
   47.2330   31.2990   46.5220 N   0  0  0  0  0  0  0  0  0  0  0  0
   46.6170   32.4820   46.4250 N   0  0  0  0  0  0  0  0  0  0  0  0
   47.3860   31.7890   43.3690 H   0  0  0  0  0  0  0  0  0  0  0  0
   48.1380   29.9580   45.0430 H   0  0  0  0  0  0  0  0  0  0  0  0
   44.5340   35.8280   44.6210 C   0  0  0  0  0  0  0  0  0  0  0  0
   44.9520   36.2940   43.3770 C   0  0  0  0  0  0  0  0  0  0  0  0
   45.9460   35.5800   42.7200 C   0  0  0  0  0  0  0  0  0  0  0  0
   46.4540   34.4720   43.3230 N   0  0  0  0  0  0  0  0  0  0  0  0
   46.0390   34.0440   44.5150 C   0  0  0  0  0  0  0  0  0  0  0  0
   45.0720   34.7300   45.1640 N   0  0  0  0  0  0  0  0  0  0  0  0
   43.7650   36.3330   45.1890 H   0  0  0  0  0  0  0  0  0  0  0  0
   44.5120   37.1680   42.9630 H   0  0  0  0  0  0  0  0  0  0  0  0
   46.3050   35.9070   41.7440 H   0  0  0  0  0  0  0  0  0  0  0  0
  1  2  1  0  0  0  0
  1  3  1  0  0  0  0
  4 13  1  0  0  0  0
  5  4  1  0  0  0  0
  5  1  1  0  0  0  0
  6  5  2  0  0  0  0
  7 11  2  0  0  0  0
  7  6  1  0  0  0  0
  8  7  1  0  0  0  0
  9  8  1  0  0  0  0
  9 10  2  0  0  0  0
 10 11  1  0  0  0  0
 11 12  1  0  0  0  0
 12 18  1  0  0  0  0
 12  4  2  0  0  0  0
 14  6  1  0  0  0  0
 15  8  1  0  0  0  0
 16  9  1  0  0  0  0
 17 10  1  0  0  0  0
 18 23  1  0  0  0  0
 19 20  1  0  0  0  0
 19 18  1  0  0  0  0
 20 21  1  0  0  0  0
 21 22  1  0  0  0  0
 23 22  1  0  0  0  0
 24  1  1  0  0  0  0
 24 26  1  0  0  0  0
 25 24  1  0  0  0  0
 27 31  2  0  0  0  0
 28 27  1  0  0  0  0
 28 29  2  0  0  0  0
 29 30  1  0  0  0  0
 30 24  1  0  0  0  0
 31 30  1  0  0  0  0
 32 28  1  0  0  0  0
 33 29  1  0  0  0  0
 34 39  1  0  0  0  0
 34 40  1  0  0  0  0
 35 34  2  0  0  0  0
 36 37  2  0  0  0  0
 36 35  1  0  0  0  0
 37 38  1  0  0  0  0
 38 27  1  0  0  0  0
 38 39  2  0  0  0  0
 41 35  1  0  0  0  0
 42 36  1  0  0  0  0
M  END
>  <minimizedAffinity>
-5.43536711

>  <minimizedRMSD>
0.793243647

$$$$
