
 OpenBabel03252509243D

 24 26  0  0  1  0  0  0  0  0999 V2000
   46.5320   34.9300   41.9490 C   0  0  1  0  0  0  0  0  0  0  0  0
   48.0340   35.3120   41.9580 C   0  0  0  0  0  0  0  0  0  0  0  0
   47.4390   33.9490   41.4740 C   0  0  2  0  0  0  0  0  0  0  0  0
   45.9150   35.5920   41.3190 H   0  0  0  0  0  0  0  0  0  0  0  0
   48.5810   35.3280   42.8970 H   0  0  0  0  0  0  0  0  0  0  0  0
   48.2970   36.0240   41.1790 H   0  0  0  0  0  0  0  0  0  0  0  0
   47.7120   33.1150   42.1870 H   0  0  0  0  0  0  0  0  0  0  0  0
   44.5950   35.5080   45.1140 C   0  0  0  0  0  0  0  0  0  0  0  0
   45.0800   35.7300   43.7870 C   0  0  0  0  0  0  0  0  0  0  0  0
   46.0160   34.8210   43.3740 C   0  0  0  0  0  0  0  0  0  0  0  0
   46.4430   33.7890   44.1890 N   0  0  0  0  0  0  0  0  0  0  0  0
   45.9530   33.6310   45.4240 C   0  0  0  0  0  0  0  0  0  0  0  0
   45.0170   34.5030   45.8920 N   0  0  0  0  0  0  0  0  0  0  0  0
   43.8530   36.1990   45.4860 H   0  0  0  0  0  0  0  0  0  0  0  0
   46.3970   32.7770   45.9160 H   0  0  0  0  0  0  0  0  0  0  0  0
   44.6520   36.8140   42.9720 N   0  0  0  0  0  0  0  0  0  0  0  0
   45.1300   37.7270   42.7810 H   0  0  0  0  0  0  0  0  0  0  0  0
   43.7130   36.5370   42.5590 H   0  0  0  0  0  0  0  0  0  0  0  0
   47.6310   33.6030   40.0290 C   0  0  0  0  0  3  0  0  0  0  0  0
   48.3250   34.7070   39.2600 C   0  0  0  0  0  2  0  0  0  0  0  0
   48.3540   34.4560   37.7890 C   0  0  0  0  0  2  0  0  0  0  0  0
   48.2010   33.0020   37.4330 C   0  0  0  0  0  2  0  0  0  0  0  0
   48.9410   32.1730   38.4550 C   0  0  0  0  0  2  0  0  0  0  0  0
   48.4230   32.3440   39.8600 C   0  0  0  0  0  2  0  0  0  0  0  0
  1  4  1  6  0  0  0
  1  2  1  0  0  0  0
  1 10  1  0  0  0  0
  2  5  1  0  0  0  0
  3  1  1  0  0  0  0
  3  2  1  0  0  0  0
  3  7  1  1  0  0  0
  6  2  1  0  0  0  0
  8 14  1  0  0  0  0
  8 13  1  0  0  0  0
  9  8  2  0  0  0  0
 10  9  1  0  0  0  0
 10 11  2  0  0  0  0
 11 12  1  0  0  0  0
 12 13  2  0  0  0  0
 12 15  1  0  0  0  0
 16  9  1  0  0  0  0
 17 16  1  0  0  0  0
 18 16  1  0  0  0  0
 19  3  1  0  0  0  0
 20 19  1  0  0  0  0
 21 20  1  0  0  0  0
 22 21  1  0  0  0  0
 22 23  1  0  0  0  0
 23 24  1  0  0  0  0
 24 19  1  0  0  0  0
M  END
>  <minimizedAffinity>
-5.22748041

>  <minimizedRMSD>
0.860551894

$$$$
