
 OpenBabel03242519593D

 25 27  0  0  0  0  0  0  0  0999 V2000
   38.5590   28.2460   39.3120 Br  0  0  0  0  0  0  0  0  0  0  0  0
   37.9190   28.0720   41.1090 C   0  0  0  0  0  0  0  0  0  0  0  0
   37.7140   29.1580   41.9400 C   0  0  0  0  0  0  0  0  0  0  0  0
   37.2520   28.9110   43.2040 C   0  0  0  0  0  0  0  0  0  0  0  0
   36.9870   27.6500   43.6790 C   0  0  0  0  0  0  0  0  0  0  0  0
   37.1900   26.5520   42.8490 C   0  0  0  0  0  0  0  0  0  0  0  0
   37.6610   26.8030   41.5610 C   0  0  0  0  0  0  0  0  0  0  0  0
   37.1110   29.8100   43.8090 H   0  0  0  0  0  0  0  0  0  0  0  0
   36.6230   27.5840   44.7010 H   0  0  0  0  0  0  0  0  0  0  0  0
   36.9740   25.5700   43.2470 H   0  0  0  0  0  0  0  0  0  0  0  0
   37.3490   32.4880   40.1650 C   0  0  0  0  0  0  0  0  0  0  0  0
   37.0510   31.2210   40.6830 C   0  0  0  0  0  0  0  0  0  0  0  0
   38.0090   30.4810   41.3930 C   0  0  0  0  0  0  0  0  0  0  0  0
   39.2100   31.0750   41.5330 N   0  0  0  0  0  0  0  0  0  0  0  0
   39.5010   32.2890   41.0380 C   0  0  0  0  0  0  0  0  0  0  0  0
   38.5790   32.9810   40.3640 N   0  0  0  0  0  0  0  0  0  0  0  0
   36.6060   33.0560   39.6160 H   0  0  0  0  0  0  0  0  0  0  0  0
   36.0700   30.7840   40.5460 H   0  0  0  0  0  0  0  0  0  0  0  0
   40.4590   32.7560   41.1530 H   0  0  0  0  0  0  0  0  0  0  0  0
   37.8800   25.6210   40.6710 C   0  0  0  0  0  3  0  0  0  0  0  0
   38.5940   24.5070   41.3560 C   0  0  0  0  0  2  0  0  0  0  0  0
   38.6000   23.3130   40.4360 C   0  0  0  0  0  2  0  0  0  0  0  0
   37.2460   22.9260   39.9360 C   0  0  0  0  0  2  0  0  0  0  0  0
   36.1990   23.8700   40.5400 C   0  0  0  0  0  2  0  0  0  0  0  0
   36.5760   25.2490   40.0320 C   0  0  0  0  0  2  0  0  0  0  0  0
  1  2  1  0  0  0  0
  2  7  2  0  0  0  0
  2  3  1  0  0  0  0
  3  4  2  0  0  0  0
  4  5  1  0  0  0  0
  4  8  1  0  0  0  0
  5  9  1  0  0  0  0
  6 10  1  0  0  0  0
  6  5  2  0  0  0  0
  7  6  1  0  0  0  0
 11 16  2  0  0  0  0
 11 12  1  0  0  0  0
 12 13  2  0  0  0  0
 13 14  1  0  0  0  0
 13  3  1  0  0  0  0
 15 19  1  0  0  0  0
 15 14  2  0  0  0  0
 16 15  1  0  0  0  0
 17 11  1  0  0  0  0
 18 12  1  0  0  0  0
 20 21  1  0  0  0  0
 20  7  1  0  0  0  0
 22 21  1  0  0  0  0
 23 22  1  0  0  0  0
 23 24  1  0  0  0  0
 25 24  1  0  0  0  0
 25 20  1  0  0  0  0
M  END
>  <minimizedAffinity>
-5.40238094

$$$$

 OpenBabel03242519593D

 25 27  0  0  0  0  0  0  0  0999 V2000
   39.8150   27.6220   39.9910 Br  0  0  0  0  0  0  0  0  0  0  0  0
   38.5860   27.6820   41.4600 C   0  0  0  0  0  0  0  0  0  0  0  0
   38.4360   28.7940   42.2660 C   0  0  0  0  0  0  0  0  0  0  0  0
   37.5260   28.7210   43.2850 C   0  0  0  0  0  0  0  0  0  0  0  0
   36.7640   27.6070   43.5400 C   0  0  0  0  0  0  0  0  0  0  0  0
   36.9090   26.4830   42.7320 C   0  0  0  0  0  0  0  0  0  0  0  0
   37.8370   26.5580   41.6950 C   0  0  0  0  0  0  0  0  0  0  0  0
   37.4560   29.6320   43.8840 H   0  0  0  0  0  0  0  0  0  0  0  0
   36.0760   27.6730   44.3780 H   0  0  0  0  0  0  0  0  0  0  0  0
   36.2980   25.6190   42.9540 H   0  0  0  0  0  0  0  0  0  0  0  0
   41.2900   31.2910   42.2810 C   0  0  0  0  0  0  0  0  0  0  0  0
   40.5050   30.1710   42.5850 C   0  0  0  0  0  0  0  0  0  0  0  0
   39.2660   29.9580   41.9590 C   0  0  0  0  0  0  0  0  0  0  0  0
   38.9030   30.8950   41.0620 N   0  0  0  0  0  0  0  0  0  0  0  0
   39.6520   31.9710   40.7680 C   0  0  0  0  0  0  0  0  0  0  0  0
   40.8270   32.1610   41.3710 N   0  0  0  0  0  0  0  0  0  0  0  0
   42.2450   31.4530   42.7660 H   0  0  0  0  0  0  0  0  0  0  0  0
   40.8380   29.4430   43.3130 H   0  0  0  0  0  0  0  0  0  0  0  0
   39.3570   32.7130   40.0530 H   0  0  0  0  0  0  0  0  0  0  0  0
   37.9920   25.3470   40.8290 C   0  0  0  0  0  3  0  0  0  0  0  0
   38.4110   24.1400   41.5940 C   0  0  0  0  0  2  0  0  0  0  0  0
   38.3590   22.9520   40.6670 C   0  0  0  0  0  2  0  0  0  0  0  0
   37.0490   22.7830   39.9690 C   0  0  0  0  0  2  0  0  0  0  0  0
   36.0890   23.8870   40.4290 C   0  0  0  0  0  2  0  0  0  0  0  0
   36.7520   25.1840   40.0020 C   0  0  0  0  0  2  0  0  0  0  0  0
  1  2  1  0  0  0  0
  2  7  2  0  0  0  0
  2  3  1  0  0  0  0
  3  4  2  0  0  0  0
  4  5  1  0  0  0  0
  4  8  1  0  0  0  0
  5  9  1  0  0  0  0
  6 10  1  0  0  0  0
  6  5  2  0  0  0  0
  7  6  1  0  0  0  0
 11 12  1  0  0  0  0
 11 17  1  0  0  0  0
 12 18  1  0  0  0  0
 13  3  1  0  0  0  0
 13 12  2  0  0  0  0
 14 13  1  0  0  0  0
 15 14  2  0  0  0  0
 15 16  1  0  0  0  0
 16 11  2  0  0  0  0
 19 15  1  0  0  0  0
 20 21  1  0  0  0  0
 20  7  1  0  0  0  0
 22 21  1  0  0  0  0
 23 24  1  0  0  0  0
 23 22  1  0  0  0  0
 25 24  1  0  0  0  0
 25 20  1  0  0  0  0
M  END
>  <minimizedAffinity>
-5.16227961

$$$$

 OpenBabel03242519593D

 25 27  0  0  0  0  0  0  0  0999 V2000
   41.1220   30.1180   40.4620 Br  0  0  0  0  0  0  0  0  0  0  0  0
   39.4730   31.0750   40.2770 C   0  0  0  0  0  0  0  0  0  0  0  0
   39.3760   32.2790   39.6060 C   0  0  0  0  0  0  0  0  0  0  0  0
   38.1450   32.8700   39.5370 C   0  0  0  0  0  0  0  0  0  0  0  0
   37.0140   32.3290   40.0970 C   0  0  0  0  0  0  0  0  0  0  0  0
   37.1020   31.1170   40.7750 C   0  0  0  0  0  0  0  0  0  0  0  0
   38.3580   30.5140   40.8450 C   0  0  0  0  0  0  0  0  0  0  0  0
   38.1370   33.8190   38.9940 H   0  0  0  0  0  0  0  0  0  0  0  0
   36.0940   32.8950   39.9740 H   0  0  0  0  0  0  0  0  0  0  0  0
   36.1980   30.7120   41.2070 H   0  0  0  0  0  0  0  0  0  0  0  0
   42.6420   34.1600   39.1860 C   0  0  0  0  0  0  0  0  0  0  0  0
   41.4680   33.6500   39.7570 C   0  0  0  0  0  0  0  0  0  0  0  0
   40.6050   32.8190   39.0250 C   0  0  0  0  0  0  0  0  0  0  0  0
   40.9880   32.5580   37.7600 N   0  0  0  0  0  0  0  0  0  0  0  0
   42.1120   33.0460   37.2090 C   0  0  0  0  0  0  0  0  0  0  0  0
   42.9230   33.8350   37.9170 N   0  0  0  0  0  0  0  0  0  0  0  0
   43.3060   34.8010   39.7540 H   0  0  0  0  0  0  0  0  0  0  0  0
   41.2010   33.8870   40.7780 H   0  0  0  0  0  0  0  0  0  0  0  0
   42.4110   32.8340   36.2010 H   0  0  0  0  0  0  0  0  0  0  0  0
   38.4500   29.2120   41.5750 C   0  0  0  0  0  3  0  0  0  0  0  0
   37.9990   29.3100   42.9910 C   0  0  0  0  0  2  0  0  0  0  0  0
   37.9610   27.9190   43.5720 C   0  0  0  0  0  2  0  0  0  0  0  0
   37.1640   26.9460   42.7660 C   0  0  0  0  0  2  0  0  0  0  0  0
   36.5720   27.6680   41.5500 C   0  0  0  0  0  2  0  0  0  0  0  0
   37.7730   28.1520   40.7580 C   0  0  0  0  0  2  0  0  0  0  0  0
  2  1  1  0  0  0  0
  2  7  1  0  0  0  0
  3  2  2  0  0  0  0
  4  3  1  0  0  0  0
  4  5  2  0  0  0  0
  5  6  1  0  0  0  0
  6  7  2  0  0  0  0
  6 10  1  0  0  0  0
  7 20  1  0  0  0  0
  8  4  1  0  0  0  0
  9  5  1  0  0  0  0
 11 17  1  0  0  0  0
 11 12  1  0  0  0  0
 12 18  1  0  0  0  0
 13  3  1  0  0  0  0
 13 12  2  0  0  0  0
 14 13  1  0  0  0  0
 15 14  2  0  0  0  0
 15 16  1  0  0  0  0
 16 11  2  0  0  0  0
 19 15  1  0  0  0  0
 20 21  1  0  0  0  0
 21 22  1  0  0  0  0
 23 22  1  0  0  0  0
 24 23  1  0  0  0  0
 25 24  1  0  0  0  0
 25 20  1  0  0  0  0
M  END
>  <minimizedAffinity>
-5.15974855

$$$$

 OpenBabel03242519593D

 25 27  0  0  0  0  0  0  0  0999 V2000
   37.8290   27.5220   39.0440 Br  0  0  0  0  0  0  0  0  0  0  0  0
   37.6690   27.7750   40.9360 C   0  0  0  0  0  0  0  0  0  0  0  0
   37.5350   26.7250   41.8240 C   0  0  0  0  0  0  0  0  0  0  0  0
   37.4300   27.0280   43.1540 C   0  0  0  0  0  0  0  0  0  0  0  0
   37.4510   28.3120   43.6410 C   0  0  0  0  0  0  0  0  0  0  0  0
   37.5870   29.3750   42.7530 C   0  0  0  0  0  0  0  0  0  0  0  0
   37.6930   29.0660   41.3980 C   0  0  0  0  0  0  0  0  0  0  0  0
   37.3260   26.1550   43.8020 H   0  0  0  0  0  0  0  0  0  0  0  0
   37.3600   28.4240   44.7180 H   0  0  0  0  0  0  0  0  0  0  0  0
   37.6010   30.3760   43.1620 H   0  0  0  0  0  0  0  0  0  0  0  0
   38.6300   23.2740   40.6970 C   0  0  0  0  0  0  0  0  0  0  0  0
   38.6630   24.5660   41.2390 C   0  0  0  0  0  0  0  0  0  0  0  0
   37.5160   25.3760   41.2630 C   0  0  0  0  0  0  0  0  0  0  0  0
   36.4070   24.8220   40.7360 N   0  0  0  0  0  0  0  0  0  0  0  0
   36.3700   23.5840   40.2150 C   0  0  0  0  0  0  0  0  0  0  0  0
   37.4690   22.8260   40.1990 N   0  0  0  0  0  0  0  0  0  0  0  0
   39.5170   22.6530   40.6800 H   0  0  0  0  0  0  0  0  0  0  0  0
   39.5780   24.9690   41.6520 H   0  0  0  0  0  0  0  0  0  0  0  0
   35.4840   23.1490   39.7970 H   0  0  0  0  0  0  0  0  0  0  0  0
   37.8380   30.2110   40.4460 C   0  0  0  0  0  3  0  0  0  0  0  0
   36.7230   31.1940   40.5510 C   0  0  0  0  0  2  0  0  0  0  0  0
   37.0590   32.3840   39.6880 C   0  0  0  0  0  2  0  0  0  0  0  0
   38.3990   32.9800   39.9720 C   0  0  0  0  0  2  0  0  0  0  0  0
   39.0630   32.2020   41.1150 C   0  0  0  0  0  2  0  0  0  0  0  0
   39.2150   30.7870   40.5880 C   0  0  0  0  0  2  0  0  0  0  0  0
  1  2  1  0  0  0  0
  2  7  2  0  0  0  0
  2  3  1  0  0  0  0
  3  4  2  0  0  0  0
  4  5  1  0  0  0  0
  4  8  1  0  0  0  0
  5  9  1  0  0  0  0
  6 10  1  0  0  0  0
  6  5  2  0  0  0  0
  7  6  1  0  0  0  0
 11 12  1  0  0  0  0
 12 13  2  0  0  0  0
 12 18  1  0  0  0  0
 13  3  1  0  0  0  0
 14 13  1  0  0  0  0
 15 14  2  0  0  0  0
 16 15  1  0  0  0  0
 16 11  2  0  0  0  0
 17 11  1  0  0  0  0
 19 15  1  0  0  0  0
 20 21  1  0  0  0  0
 20 25  1  0  0  0  0
 20  7  1  0  0  0  0
 22 23  1  0  0  0  0
 22 21  1  0  0  0  0
 23 24  1  0  0  0  0
 25 24  1  0  0  0  0
M  END
>  <minimizedAffinity>
-5.12760448

$$$$

 OpenBabel03242519593D

 25 27  0  0  0  0  0  0  0  0999 V2000
   40.0070   28.7450   40.4850 Br  0  0  0  0  0  0  0  0  0  0  0  0
   38.1580   29.2450   40.4420 C   0  0  0  0  0  0  0  0  0  0  0  0
   37.7340   30.5260   40.1460 C   0  0  0  0  0  0  0  0  0  0  0  0
   36.3870   30.7650   40.1440 C   0  0  0  0  0  0  0  0  0  0  0  0
   35.4480   29.8010   40.4200 C   0  0  0  0  0  0  0  0  0  0  0  0
   35.8670   28.5080   40.7180 C   0  0  0  0  0  0  0  0  0  0  0  0
   37.2390   28.2650   40.7210 C   0  0  0  0  0  0  0  0  0  0  0  0
   36.1190   31.7960   39.9030 H   0  0  0  0  0  0  0  0  0  0  0  0
   34.4080   30.1140   40.3860 H   0  0  0  0  0  0  0  0  0  0  0  0
   35.1080   27.7680   40.9320 H   0  0  0  0  0  0  0  0  0  0  0  0
   40.2290   33.3530   40.5530 C   0  0  0  0  0  0  0  0  0  0  0  0
   39.2390   32.4050   40.8430 C   0  0  0  0  0  0  0  0  0  0  0  0
   38.7670   31.5200   39.8600 C   0  0  0  0  0  0  0  0  0  0  0  0
   39.3310   31.6540   38.6440 N   0  0  0  0  0  0  0  0  0  0  0  0
   40.2800   32.5620   38.3610 C   0  0  0  0  0  0  0  0  0  0  0  0
   40.7190   33.3960   39.3060 N   0  0  0  0  0  0  0  0  0  0  0  0
   40.5900   34.0340   41.3150 H   0  0  0  0  0  0  0  0  0  0  0  0
   38.8140   32.3340   41.8360 H   0  0  0  0  0  0  0  0  0  0  0  0
   40.7260   32.6630   37.3910 H   0  0  0  0  0  0  0  0  0  0  0  0
   37.6870   26.8740   41.0430 C   0  0  0  0  0  3  0  0  0  0  0  0
   37.0320   26.3260   42.2640 C   0  0  0  0  0  2  0  0  0  0  0  0
   37.4120   24.8720   42.3920 C   0  0  0  0  0  2  0  0  0  0  0  0
   37.1400   24.0650   41.1640 C   0  0  0  0  0  2  0  0  0  0  0  0
   36.5090   24.9690   40.0980 C   0  0  0  0  0  2  0  0  0  0  0  0
   37.5570   26.0280   39.8120 C   0  0  0  0  0  2  0  0  0  0  0  0
  2  1  1  0  0  0  0
  2  7  1  0  0  0  0
  3  2  2  0  0  0  0
  4  3  1  0  0  0  0
  4  5  2  0  0  0  0
  5  6  1  0  0  0  0
  6  7  2  0  0  0  0
  6 10  1  0  0  0  0
  7 20  1  0  0  0  0
  8  4  1  0  0  0  0
  9  5  1  0  0  0  0
 11 12  1  0  0  0  0
 11 17  1  0  0  0  0
 12 18  1  0  0  0  0
 13  3  1  0  0  0  0
 13 12  2  0  0  0  0
 14 13  1  0  0  0  0
 15 14  2  0  0  0  0
 15 16  1  0  0  0  0
 16 11  2  0  0  0  0
 19 15  1  0  0  0  0
 20 21  1  0  0  0  0
 21 22  1  0  0  0  0
 23 22  1  0  0  0  0
 24 23  1  0  0  0  0
 25 24  1  0  0  0  0
 25 20  1  0  0  0  0
M  END
>  <minimizedAffinity>
-4.96326399

$$$$

 OpenBabel03242519593D

 25 27  0  0  0  0  0  0  0  0999 V2000
   36.2760   26.4510   38.8760 Br  0  0  0  0  0  0  0  0  0  0  0  0
   36.3630   28.1470   39.7630 C   0  0  0  0  0  0  0  0  0  0  0  0
   35.7520   29.2840   39.2680 C   0  0  0  0  0  0  0  0  0  0  0  0
   35.8820   30.4380   39.9900 C   0  0  0  0  0  0  0  0  0  0  0  0
   36.5820   30.5190   41.1690 C   0  0  0  0  0  0  0  0  0  0  0  0
   37.1990   29.3780   41.6740 C   0  0  0  0  0  0  0  0  0  0  0  0
   37.0670   28.2020   40.9380 C   0  0  0  0  0  0  0  0  0  0  0  0
   35.3770   31.2990   39.5450 H   0  0  0  0  0  0  0  0  0  0  0  0
   36.6120   31.4930   41.6490 H   0  0  0  0  0  0  0  0  0  0  0  0
   37.7440   29.4680   42.6030 H   0  0  0  0  0  0  0  0  0  0  0  0
   34.9350   29.1540   35.5680 C   0  0  0  0  0  0  0  0  0  0  0  0
   35.6520   29.2820   36.7650 C   0  0  0  0  0  0  0  0  0  0  0  0
   35.0180   29.1530   38.0110 C   0  0  0  0  0  0  0  0  0  0  0  0
   33.6960   28.9010   37.9630 N   0  0  0  0  0  0  0  0  0  0  0  0
   33.0040   28.7780   36.8180 C   0  0  0  0  0  0  0  0  0  0  0  0
   33.6200   28.9040   35.6400 N   0  0  0  0  0  0  0  0  0  0  0  0
   35.4280   29.2550   34.6080 H   0  0  0  0  0  0  0  0  0  0  0  0
   36.7150   29.4840   36.7540 H   0  0  0  0  0  0  0  0  0  0  0  0
   31.9510   28.5780   36.7860 H   0  0  0  0  0  0  0  0  0  0  0  0
   37.7330   26.9770   41.4830 C   0  0  0  0  0  3  0  0  0  0  0  0
   39.1700   26.8840   41.1030 C   0  0  0  0  0  2  0  0  0  0  0  0
   39.7810   25.7230   41.8470 C   0  0  0  0  0  2  0  0  0  0  0  0
   39.5640   25.7680   43.3240 C   0  0  0  0  0  2  0  0  0  0  0  0
   38.7770   27.0360   43.6780 C   0  0  0  0  0  2  0  0  0  0  0  0
   37.4520   26.8890   42.9530 C   0  0  0  0  0  2  0  0  0  0  0  0
  1  2  1  0  0  0  0
  2  7  1  0  0  0  0
  3  2  2  0  0  0  0
  3  4  1  0  0  0  0
  4  5  2  0  0  0  0
  5  9  1  0  0  0  0
  5  6  1  0  0  0  0
  6 10  1  0  0  0  0
  7 20  1  0  0  0  0
  7  6  2  0  0  0  0
  8  4  1  0  0  0  0
 11 16  2  0  0  0  0
 11 12  1  0  0  0  0
 12 13  2  0  0  0  0
 13  3  1  0  0  0  0
 14 13  1  0  0  0  0
 15 14  2  0  0  0  0
 16 15  1  0  0  0  0
 17 11  1  0  0  0  0
 18 12  1  0  0  0  0
 19 15  1  0  0  0  0
 20 25  1  0  0  0  0
 21 20  1  0  0  0  0
 21 22  1  0  0  0  0
 22 23  1  0  0  0  0
 23 24  1  0  0  0  0
 25 24  1  0  0  0  0
M  END
>  <minimizedAffinity>
-4.94545031

$$$$

 OpenBabel03242519593D

 25 27  0  0  0  0  0  0  0  0999 V2000
   39.9580   28.8670   40.7210 Br  0  0  0  0  0  0  0  0  0  0  0  0
   38.1030   29.3110   40.5410 C   0  0  0  0  0  0  0  0  0  0  0  0
   37.6650   30.5740   40.1910 C   0  0  0  0  0  0  0  0  0  0  0  0
   36.3150   30.7720   40.0910 C   0  0  0  0  0  0  0  0  0  0  0  0
   35.3870   29.7860   40.3200 C   0  0  0  0  0  0  0  0  0  0  0  0
   35.8210   28.5110   40.6720 C   0  0  0  0  0  0  0  0  0  0  0  0
   37.1960   28.3090   40.7740 C   0  0  0  0  0  0  0  0  0  0  0  0
   36.0350   31.7910   39.8120 H   0  0  0  0  0  0  0  0  0  0  0  0
   34.3440   30.0670   40.2080 H   0  0  0  0  0  0  0  0  0  0  0  0
   35.0700   27.7520   40.8460 H   0  0  0  0  0  0  0  0  0  0  0  0
   40.3180   32.7000   38.5120 C   0  0  0  0  0  0  0  0  0  0  0  0
   39.3400   31.7180   38.7210 C   0  0  0  0  0  0  0  0  0  0  0  0
   38.6870   31.5930   39.9570 C   0  0  0  0  0  0  0  0  0  0  0  0
   39.0660   32.4730   40.9030 N   0  0  0  0  0  0  0  0  0  0  0  0
   40.0040   33.4160   40.7080 C   0  0  0  0  0  0  0  0  0  0  0  0
   40.6170   33.5230   39.5270 N   0  0  0  0  0  0  0  0  0  0  0  0
   40.8210   32.7940   37.5570 H   0  0  0  0  0  0  0  0  0  0  0  0
   39.0680   31.0330   37.9300 H   0  0  0  0  0  0  0  0  0  0  0  0
   40.3010   34.1140   41.4660 H   0  0  0  0  0  0  0  0  0  0  0  0
   37.6590   26.9380   41.1530 C   0  0  0  0  0  3  0  0  0  0  0  0
   36.9570   26.4040   42.3540 C   0  0  0  0  0  2  0  0  0  0  0  0
   37.3640   24.9630   42.5370 C   0  0  0  0  0  2  0  0  0  0  0  0
   37.1730   24.1200   41.3190 C   0  0  0  0  0  2  0  0  0  0  0  0
   36.5750   24.9820   40.2000 C   0  0  0  0  0  2  0  0  0  0  0  0
   37.6110   26.0590   39.9390 C   0  0  0  0  0  2  0  0  0  0  0  0
  2  1  1  0  0  0  0
  2  7  1  0  0  0  0
  3  2  2  0  0  0  0
  4  3  1  0  0  0  0
  4  5  2  0  0  0  0
  5  6  1  0  0  0  0
  6  7  2  0  0  0  0
  6 10  1  0  0  0  0
  7 20  1  0  0  0  0
  8  4  1  0  0  0  0
  9  5  1  0  0  0  0
 11 12  2  0  0  0  0
 11 16  1  0  0  0  0
 12 13  1  0  0  0  0
 13  3  1  0  0  0  0
 13 14  2  0  0  0  0
 15 14  1  0  0  0  0
 15 19  1  0  0  0  0
 16 15  2  0  0  0  0
 17 11  1  0  0  0  0
 18 12  1  0  0  0  0
 20 21  1  0  0  0  0
 21 22  1  0  0  0  0
 23 22  1  0  0  0  0
 24 23  1  0  0  0  0
 25 24  1  0  0  0  0
 25 20  1  0  0  0  0
M  END
>  <minimizedAffinity>
-4.92384434

$$$$

 OpenBabel03242519593D

 25 27  0  0  0  0  0  0  0  0999 V2000
   39.8920   27.5770   39.9810 Br  0  0  0  0  0  0  0  0  0  0  0  0
   38.6320   27.5600   41.4240 C   0  0  0  0  0  0  0  0  0  0  0  0
   38.9940   27.3070   42.7330 C   0  0  0  0  0  0  0  0  0  0  0  0
   38.0060   27.3230   43.6790 C   0  0  0  0  0  0  0  0  0  0  0  0
   36.6870   27.5760   43.3910 C   0  0  0  0  0  0  0  0  0  0  0  0
   36.3150   27.8330   42.0750 C   0  0  0  0  0  0  0  0  0  0  0  0
   37.3210   27.8170   41.1110 C   0  0  0  0  0  0  0  0  0  0  0  0
   38.3580   27.1140   44.6920 H   0  0  0  0  0  0  0  0  0  0  0  0
   35.9970   27.5610   44.2300 H   0  0  0  0  0  0  0  0  0  0  0  0
   35.2700   28.0300   41.8760 H   0  0  0  0  0  0  0  0  0  0  0  0
   42.6700   27.8050   43.5190 C   0  0  0  0  0  0  0  0  0  0  0  0
   41.3170   28.0740   43.2710 C   0  0  0  0  0  0  0  0  0  0  0  0
   40.4080   27.0410   42.9940 C   0  0  0  0  0  0  0  0  0  0  0  0
   40.9290   25.7990   42.9870 N   0  0  0  0  0  0  0  0  0  0  0  0
   42.2250   25.5360   43.2230 C   0  0  0  0  0  0  0  0  0  0  0  0
   43.0780   26.5280   43.4850 N   0  0  0  0  0  0  0  0  0  0  0  0
   43.3690   28.6050   43.7330 H   0  0  0  0  0  0  0  0  0  0  0  0
   40.9440   29.0900   43.2880 H   0  0  0  0  0  0  0  0  0  0  0  0
   42.6340   24.5450   43.2160 H   0  0  0  0  0  0  0  0  0  0  0  0
   36.9170   28.0920   39.6970 C   0  0  0  0  0  3  0  0  0  0  0  0
   36.2160   26.9410   39.0620 C   0  0  0  0  0  2  0  0  0  0  0  0
   35.6980   27.3870   37.7180 C   0  0  0  0  0  2  0  0  0  0  0  0
   34.8680   28.6280   37.7690 C   0  0  0  0  0  2  0  0  0  0  0  0
   34.7540   29.0970   39.2250 C   0  0  0  0  0  2  0  0  0  0  0  0
   36.1790   29.3970   39.6520 C   0  0  0  0  0  2  0  0  0  0  0  0
  1  2  1  0  0  0  0
  2  3  1  0  0  0  0
  3 13  1  0  0  0  0
  3  4  2  0  0  0  0
  4  8  1  0  0  0  0
  5  4  1  0  0  0  0
  5  9  1  0  0  0  0
  6  5  2  0  0  0  0
  7  2  2  0  0  0  0
  7  6  1  0  0  0  0
 10  6  1  0  0  0  0
 11 17  1  0  0  0  0
 12 18  1  0  0  0  0
 12 11  2  0  0  0  0
 13 12  1  0  0  0  0
 14 13  2  0  0  0  0
 14 15  1  0  0  0  0
 15 16  2  0  0  0  0
 16 11  1  0  0  0  0
 19 15  1  0  0  0  0
 20  7  1  0  0  0  0
 21 20  1  0  0  0  0
 22 23  1  0  0  0  0
 22 21  1  0  0  0  0
 23 24  1  0  0  0  0
 24 25  1  0  0  0  0
 25 20  1  0  0  0  0
M  END
>  <minimizedAffinity>
-4.91420221

$$$$

 OpenBabel03242519593D

 25 27  0  0  0  0  0  0  0  0999 V2000
   37.4400   29.4160   39.6440 Br  0  0  0  0  0  0  0  0  0  0  0  0
   38.7300   28.9650   40.9870 C   0  0  0  0  0  0  0  0  0  0  0  0
   39.7200   29.8370   41.3980 C   0  0  0  0  0  0  0  0  0  0  0  0
   40.5840   29.4050   42.3660 C   0  0  0  0  0  0  0  0  0  0  0  0
   40.5140   28.1600   42.9410 C   0  0  0  0  0  0  0  0  0  0  0  0
   39.5200   27.2760   42.5330 C   0  0  0  0  0  0  0  0  0  0  0  0
   38.6390   27.7160   41.5460 C   0  0  0  0  0  0  0  0  0  0  0  0
   41.3420   30.1410   42.6460 H   0  0  0  0  0  0  0  0  0  0  0  0
   41.2580   27.9340   43.7000 H   0  0  0  0  0  0  0  0  0  0  0  0
   39.4870   26.3010   43.0010 H   0  0  0  0  0  0  0  0  0  0  0  0
   39.1290   33.5130   40.6770 C   0  0  0  0  0  0  0  0  0  0  0  0
   39.0840   32.2580   41.3010 C   0  0  0  0  0  0  0  0  0  0  0  0
   39.7570   31.1520   40.7600 C   0  0  0  0  0  0  0  0  0  0  0  0
   40.4350   31.3880   39.6200 N   0  0  0  0  0  0  0  0  0  0  0  0
   40.4810   32.5880   39.0180 C   0  0  0  0  0  0  0  0  0  0  0  0
   39.8350   33.6320   39.5440 N   0  0  0  0  0  0  0  0  0  0  0  0
   38.6080   34.3650   41.0970 H   0  0  0  0  0  0  0  0  0  0  0  0
   38.5260   32.1160   42.2160 H   0  0  0  0  0  0  0  0  0  0  0  0
   41.0220   32.7700   38.1100 H   0  0  0  0  0  0  0  0  0  0  0  0
   37.5720   26.7630   41.1080 C   0  0  0  0  0  3  0  0  0  0  0  0
   38.0290   25.8400   40.0310 C   0  0  0  0  0  2  0  0  0  0  0  0
   36.9470   24.8160   39.7960 C   0  0  0  0  0  2  0  0  0  0  0  0
   36.5070   24.1050   41.0340 C   0  0  0  0  0  2  0  0  0  0  0  0
   37.3240   24.6180   42.2260 C   0  0  0  0  0  2  0  0  0  0  0  0
   36.9940   26.0960   42.3200 C   0  0  0  0  0  2  0  0  0  0  0  0
  1  2  1  0  0  0  0
  2  3  2  0  0  0  0
  2  7  1  0  0  0  0
  3  4  1  0  0  0  0
  4  8  1  0  0  0  0
  4  5  2  0  0  0  0
  5  9  1  0  0  0  0
  6  5  1  0  0  0  0
  6 10  1  0  0  0  0
  7  6  2  0  0  0  0
 11 17  1  0  0  0  0
 11 12  1  0  0  0  0
 12 18  1  0  0  0  0
 13 12  2  0  0  0  0
 13  3  1  0  0  0  0
 14 13  1  0  0  0  0
 15 16  1  0  0  0  0
 15 14  2  0  0  0  0
 16 11  2  0  0  0  0
 19 15  1  0  0  0  0
 20  7  1  0  0  0  0
 20 25  1  0  0  0  0
 21 20  1  0  0  0  0
 22 21  1  0  0  0  0
 22 23  1  0  0  0  0
 23 24  1  0  0  0  0
 24 25  1  0  0  0  0
M  END
>  <minimizedAffinity>
-4.83644724

$$$$
