
 OpenBabel03252509243D

 24 26  0  0  1  0  0  0  0  0999 V2000
   46.5150   34.9140   41.9480 C   0  0  1  0  0  0  0  0  0  0  0  0
   48.0200   35.2880   41.9540 C   0  0  0  0  0  0  0  0  0  0  0  0
   47.4170   33.9250   41.4810 C   0  0  2  0  0  0  0  0  0  0  0  0
   45.9010   35.5750   41.3140 H   0  0  0  0  0  0  0  0  0  0  0  0
   48.5680   35.3090   42.8930 H   0  0  0  0  0  0  0  0  0  0  0  0
   48.2860   35.9920   41.1690 H   0  0  0  0  0  0  0  0  0  0  0  0
   47.6860   33.0950   42.2000 H   0  0  0  0  0  0  0  0  0  0  0  0
   44.5860   35.5300   45.1110 C   0  0  0  0  0  0  0  0  0  0  0  0
   45.0710   35.7380   43.7820 C   0  0  0  0  0  0  0  0  0  0  0  0
   46.0000   34.8190   43.3750 C   0  0  0  0  0  0  0  0  0  0  0  0
   46.4180   33.7890   44.1970 N   0  0  0  0  0  0  0  0  0  0  0  0
   45.9290   33.6440   45.4330 C   0  0  0  0  0  0  0  0  0  0  0  0
   45.0010   34.5270   45.8960 N   0  0  0  0  0  0  0  0  0  0  0  0
   43.8500   36.2300   45.4790 H   0  0  0  0  0  0  0  0  0  0  0  0
   46.3660   32.7900   45.9310 H   0  0  0  0  0  0  0  0  0  0  0  0
   44.6520   36.8210   42.9600 N   0  0  0  0  0  0  0  0  0  0  0  0
   45.1370   37.7290   42.7630 H   0  0  0  0  0  0  0  0  0  0  0  0
   43.7100   36.5480   42.5500 H   0  0  0  0  0  0  0  0  0  0  0  0
   47.6060   33.5660   40.0380 C   0  0  0  0  0  0  0  0  0  0  0  0
   46.2890   33.3550   39.3210 C   0  0  0  0  0  0  0  0  0  0  0  0
   46.4650   32.8160   37.9400 C   0  0  0  0  0  0  0  0  0  0  0  0
   47.8260   33.0970   37.3640 C   0  0  0  0  0  0  0  0  0  0  0  0
   48.2660   34.4720   37.8060 C   0  0  0  0  0  0  0  0  0  0  0  0
   48.3770   34.6160   39.3030 C   0  0  0  0  0  0  0  0  0  0  0  0
  1  4  1  6  0  0  0
  1  2  1  0  0  0  0
  1 10  1  0  0  0  0
  2  5  1  0  0  0  0
  3  1  1  0  0  0  0
  3  2  1  0  0  0  0
  3  7  1  1  0  0  0
  6  2  1  0  0  0  0
  8 14  1  0  0  0  0
  8 13  1  0  0  0  0
  9  8  2  0  0  0  0
 10  9  1  0  0  0  0
 10 11  2  0  0  0  0
 11 12  1  0  0  0  0
 12 13  2  0  0  0  0
 12 15  1  0  0  0  0
 16  9  1  0  0  0  0
 17 16  1  0  0  0  0
 18 16  1  0  0  0  0
 19  3  1  0  0  0  0
 20 19  1  0  0  0  0
 21 20  1  0  0  0  0
 22 23  1  0  0  0  0
 22 21  1  0  0  0  0
 23 24  1  0  0  0  0
 24 19  1  0  0  0  0
M  END
>  <minimizedAffinity>
-5.27630615

>  <minimizedRMSD>
0.321839958

$$$$
