
 OpenBabel03252506263D

 42 46  0  0  0  0  0  0  0  0999 V2000
   46.1660   30.2500   48.5160 C   0  0  0  0  0  0  0  0  0  0  0  0
   45.4530   31.0710   48.7330 H   0  0  0  0  0  0  0  0  0  0  0  0
   46.3750   29.7960   49.5300 H   0  0  0  0  0  0  0  0  0  0  0  0
   45.8200   27.8320   47.6600 C   0  0  0  0  0  0  0  0  0  0  0  0
   45.5280   29.1850   47.7350 C   0  0  0  0  0  0  0  0  0  0  0  0
   44.4630   29.6380   46.9580 C   0  0  0  0  0  0  0  0  0  0  0  0
   43.7310   28.7970   46.1520 C   0  0  0  0  0  0  0  0  0  0  0  0
   42.6890   28.9460   45.3280 N   0  0  0  0  0  0  0  0  0  0  0  0
   42.3470   27.7650   44.7700 C   0  0  0  0  0  0  0  0  0  0  0  0
   43.1950   26.7740   45.2370 C   0  0  0  0  0  0  0  0  0  0  0  0
   44.0350   27.4580   46.0900 C   0  0  0  0  0  0  0  0  0  0  0  0
   45.0880   27.0100   46.8580 C   0  0  0  0  0  0  0  0  0  0  0  0
   46.6570   27.5620   48.2900 H   0  0  0  0  0  0  0  0  0  0  0  0
   44.1290   30.6670   46.9230 H   0  0  0  0  0  0  0  0  0  0  0  0
   42.1980   29.8630   45.1380 H   0  0  0  0  0  0  0  0  0  0  0  0
   41.5310   27.5920   44.0580 H   0  0  0  0  0  0  0  0  0  0  0  0
   43.2260   25.7140   45.0150 H   0  0  0  0  0  0  0  0  0  0  0  0
   45.4420   25.5880   46.8150 C   0  0  0  0  0  3  0  0  0  0  0  0
   44.4070   24.6240   47.2520 C   0  0  0  0  0  2  0  0  0  0  0  0
   43.9850   23.6140   46.2240 C   0  0  0  0  0  2  0  0  0  0  0  0
   45.1170   22.8200   45.6590 C   0  0  0  0  0  2  0  0  0  0  0  0
   46.2990   23.7010   45.4130 C   0  0  0  0  0  2  0  0  0  0  0  0
   45.8380   25.1610   45.3950 C   0  0  0  0  0  2  0  0  0  0  0  0
   47.4430   30.7830   48.0000 C   0  0  0  0  0  0  0  0  0  0  0  0
   48.2140   30.0170   47.9420 H   0  0  0  0  0  0  0  0  0  0  0  0
   47.8040   31.5520   48.7320 H   0  0  0  0  0  0  0  0  0  0  0  0
   46.5830   32.9130   45.2690 C   0  0  0  0  0  0  0  0  0  0  0  0
   47.2390   31.8380   44.6180 C   0  0  0  0  0  0  0  0  0  0  0  0
   47.6290   30.9320   45.5470 C   0  0  0  0  0  0  0  0  0  0  0  0
   47.2330   31.4220   46.7260 N   0  0  0  0  0  0  0  0  0  0  0  0
   46.6130   32.5960   46.5610 N   0  0  0  0  0  0  0  0  0  0  0  0
   47.4070   31.7450   43.5520 H   0  0  0  0  0  0  0  0  0  0  0  0
   48.1550   30.0100   45.3260 H   0  0  0  0  0  0  0  0  0  0  0  0
   44.5250   35.8290   44.5670 C   0  0  0  0  0  0  0  0  0  0  0  0
   44.9520   36.2320   43.3030 C   0  0  0  0  0  0  0  0  0  0  0  0
   45.9550   35.4900   42.6930 C   0  0  0  0  0  0  0  0  0  0  0  0
   46.4640   34.4190   43.3580 N   0  0  0  0  0  0  0  0  0  0  0  0
   46.0410   34.0510   44.5670 C   0  0  0  0  0  0  0  0  0  0  0  0
   45.0640   34.7640   45.1710 N   0  0  0  0  0  0  0  0  0  0  0  0
   43.7480   36.3580   45.1000 H   0  0  0  0  0  0  0  0  0  0  0  0
   44.5100   37.0800   42.8410 H   0  0  0  0  0  0  0  0  0  0  0  0
   46.3210   35.7680   41.7050 H   0  0  0  0  0  0  0  0  0  0  0  0
  1  2  1  0  0  0  0
  1  3  1  0  0  0  0
  4  5  1  0  0  0  0
  4 13  1  0  0  0  0
  5  1  1  0  0  0  0
  6  5  2  0  0  0  0
  7  6  1  0  0  0  0
  8  7  1  0  0  0  0
  9 10  2  0  0  0  0
  9  8  1  0  0  0  0
 10 11  1  0  0  0  0
 11  7  2  0  0  0  0
 11 12  1  0  0  0  0
 12  4  2  0  0  0  0
 14  6  1  0  0  0  0
 15  8  1  0  0  0  0
 16  9  1  0  0  0  0
 17 10  1  0  0  0  0
 18 12  1  0  0  0  0
 18 19  1  0  0  0  0
 20 19  1  0  0  0  0
 21 20  1  0  0  0  0
 22 21  1  0  0  0  0
 23 22  1  0  0  0  0
 23 18  1  0  0  0  0
 24  1  1  0  0  0  0
 24 26  1  0  0  0  0
 25 24  1  0  0  0  0
 27 31  2  0  0  0  0
 28 27  1  0  0  0  0
 28 29  2  0  0  0  0
 29 30  1  0  0  0  0
 30 24  1  0  0  0  0
 31 30  1  0  0  0  0
 32 28  1  0  0  0  0
 33 29  1  0  0  0  0
 34 40  1  0  0  0  0
 34 39  1  0  0  0  0
 35 34  2  0  0  0  0
 36 35  1  0  0  0  0
 36 37  2  0  0  0  0
 37 38  1  0  0  0  0
 38 39  2  0  0  0  0
 38 27  1  0  0  0  0
 41 35  1  0  0  0  0
 42 36  1  0  0  0  0
M  END
>  <minimizedAffinity>
-5.24592113

>  <minimizedRMSD>
0.947468281

$$$$
