
 OpenBabel03252508423D

 25 27  0  0  1  0  0  0  0  0999 V2000
   44.7410   33.8180   40.4300 C   0  0  0  0  0  0  0  0  0  0  0  0
   43.5050   34.3730   40.7260 C   0  0  0  0  0  0  0  0  0  0  0  0
   43.3380   35.3090   41.7110 C   0  0  0  0  0  0  0  0  0  0  0  0
   44.4810   35.6870   42.4170 C   0  0  0  0  0  0  0  0  0  0  0  0
   45.7320   35.1750   42.1760 C   0  0  0  0  0  0  0  0  0  0  0  0
   45.8120   34.2240   41.1500 C   0  0  0  0  0  0  0  0  0  0  0  0
   42.3880   35.7620   41.9660 H   0  0  0  0  0  0  0  0  0  0  0  0
   44.4170   36.4230   43.2110 H   0  0  0  0  0  0  0  0  0  0  0  0
   46.6040   35.4840   42.7380 H   0  0  0  0  0  0  0  0  0  0  0  0
   46.7590   33.7750   40.8990 H   0  0  0  0  0  0  0  0  0  0  0  0
   45.0690   32.0890   37.0940 C   0  0  0  0  0  0  0  0  0  0  0  0
   45.0570   33.1420   38.0430 C   0  0  0  0  0  0  0  0  0  0  0  0
   44.7850   32.8340   39.3620 C   0  0  0  0  0  0  0  0  0  0  0  0
   44.5410   31.5280   39.6800 N   0  0  0  0  0  0  0  0  0  0  0  0
   44.5580   30.5430   38.7570 C   0  0  0  0  0  0  0  0  0  0  0  0
   44.8240   30.8200   37.4530 N   0  0  0  0  0  0  0  0  0  0  0  0
   45.2880   32.4190   36.1030 H   0  0  0  0  0  0  0  0  0  0  0  0
   45.2440   34.1650   37.8170 H   0  0  0  0  0  0  0  0  0  0  0  0
   44.3510   29.5430   39.1180 H   0  0  0  0  0  0  0  0  0  0  0  0
   42.2470   33.9920   39.9840 C   0  0  1  0  0  0  0  0  0  0  0  0
   41.1800   33.6990   40.9870 C   0  0  0  0  0  0  0  0  0  0  0  0
   39.8660   34.3710   40.7590 C   0  0  0  0  0  0  0  0  0  0  0  0
   40.1070   35.8110   40.4480 C   0  0  0  0  0  0  0  0  0  0  0  0
   40.8550   35.9460   39.1500 C   0  0  0  0  0  0  0  0  0  0  0  0
   41.8880   34.9190   38.8970 C   0  0  0  0  0  0  0  0  0  0  0  0
  1  2  2  0  0  0  0
  1  6  1  0  0  0  0
  2  3  1  0  0  0  0
  3  7  1  0  0  0  0
  3  4  2  0  0  0  0
  4  8  1  0  0  0  0
  5  4  1  0  0  0  0
  5  9  1  0  0  0  0
  6  5  2  0  0  0  0
 10  6  1  0  0  0  0
 11 16  2  0  0  0  0
 11 12  1  0  0  0  0
 12 13  2  0  0  0  0
 13 14  1  0  0  0  0
 13  1  1  0  0  0  0
 15 19  1  0  0  0  0
 15 14  2  0  0  0  0
 16 15  1  0  0  0  0
 17 11  1  0  0  0  0
 18 12  1  0  0  0  0
 20  2  1  1  0  0  0
 20 21  1  0  0  0  0
 22 21  1  0  0  0  0
 23 22  1  0  0  0  0
 24 23  1  0  0  0  0
 25 24  2  0  0  0  0
 25 20  1  0  0  0  0
M  END
>  <minimizedAffinity>
-4.6701932

>  <minimizedRMSD>
7.31564379

$$$$
