
 OpenBabel03242515533D

 33 36  0  0  0  0  0  0  0  0999 V2000
   45.9220   32.6980   46.5880 C   0  0  0  0  0  0  0  0  0  0  0  0
   45.6030   32.9850   47.9240 C   0  0  0  0  0  0  0  0  0  0  0  0
   46.0290   32.2160   48.9960 C   0  0  0  0  0  0  0  0  0  0  0  0
   46.7960   31.1230   48.7940 C   0  0  0  0  0  0  0  0  0  0  0  0
   47.1330   30.7910   47.4900 C   0  0  0  0  0  0  0  0  0  0  0  0
   47.9140   29.6810   47.3250 C   0  0  0  0  0  0  0  0  0  0  0  0
   48.2640   29.3110   46.0330 C   0  0  0  0  0  0  0  0  0  0  0  0
   47.8070   30.0630   44.9970 C   0  0  0  0  0  0  0  0  0  0  0  0
   47.0310   31.1580   45.2300 C   0  0  0  0  0  0  0  0  0  0  0  0
   46.6830   31.5740   46.4500 C   0  0  0  0  0  0  0  0  0  0  0  0
   44.9890   33.8570   48.1410 H   0  0  0  0  0  0  0  0  0  0  0  0
   45.7410   32.5020   49.9970 H   0  0  0  0  0  0  0  0  0  0  0  0
   47.1190   30.5470   49.6330 H   0  0  0  0  0  0  0  0  0  0  0  0
   48.2410   29.1170   48.2190 H   0  0  0  0  0  0  0  0  0  0  0  0
   48.8930   28.4170   46.0440 H   0  0  0  0  0  0  0  0  0  0  0  0
   48.2400   29.5550   44.1220 H   0  0  0  0  0  0  0  0  0  0  0  0
   44.4630   35.6080   45.0870 C   0  0  0  0  0  0  0  0  0  0  0  0
   45.2150   35.7850   43.8810 C   0  0  0  0  0  0  0  0  0  0  0  0
   46.2390   34.8550   43.5440 C   0  0  0  0  0  0  0  0  0  0  0  0
   46.4180   33.8540   44.4120 N   0  0  0  0  0  0  0  0  0  0  0  0
   45.7350   33.6740   45.5220 C   0  0  0  0  0  0  0  0  0  0  0  0
   44.7470   34.5540   45.8730 N   0  0  0  0  0  0  0  0  0  0  0  0
   43.7000   36.3420   45.2990 H   0  0  0  0  0  0  0  0  0  0  0  0
   46.7840   34.9970   42.6580 H   0  0  0  0  0  0  0  0  0  0  0  0
   44.8760   36.8890   43.0610 N   0  0  0  0  0  0  0  0  0  0  0  0
   44.5600   36.7750   42.0720 H   0  0  0  0  0  0  0  0  0  0  0  0
   44.9250   37.8790   43.4080 H   0  0  0  0  0  0  0  0  0  0  0  0
   46.4760   31.5850   43.8880 C   0  0  0  0  0  0  0  0  0  0  0  0
   47.3060   31.1840   42.7280 C   0  0  0  0  0  0  0  0  0  0  0  0
   46.6400   31.6470   41.4560 C   0  0  0  0  0  0  0  0  0  0  0  0
   45.3960   30.8020   41.2440 C   0  0  0  0  0  0  0  0  0  0  0  0
   44.5080   30.8510   42.4750 C   0  0  0  0  0  0  0  0  0  0  0  0
   45.2970   30.5220   43.7200 C   0  0  0  0  0  0  0  0  0  0  0  0
  1  2  1  0  0  0  0
  2 11  1  0  0  0  0
  2  3  2  0  0  0  0
  3 12  1  0  0  0  0
  4  3  1  0  0  0  0
  4 13  1  0  0  0  0
  5  4  2  0  0  0  0
  6  5  1  0  0  0  0
  6 14  1  0  0  0  0
  7 15  1  0  0  0  0
  7  6  2  0  0  0  0
  8  9  2  0  0  0  0
  8  7  1  0  0  0  0
  9 10  1  0  0  0  0
 10  1  2  0  0  0  0
 10  5  1  0  0  0  0
 16  8  1  0  0  0  0
 17 23  1  0  0  0  0
 17 22  1  0  0  0  0
 18 17  2  0  0  0  0
 19 18  1  0  0  0  0
 19 20  2  0  0  0  0
 20 21  1  0  0  0  0
 21 22  2  0  0  0  0
 21  1  1  0  0  0  0
 24 19  1  0  0  0  0
 25 27  1  0  0  0  0
 25 18  1  0  0  0  0
 26 25  1  0  0  0  0
 28  9  1  0  0  0  0
 29 28  1  0  0  0  0
 30 29  1  0  0  0  0
 31 30  1  0  0  0  0
 31 32  1  0  0  0  0
 32 33  1  0  0  0  0
 33 28  1  0  0  0  0
M  END
>  <minimizedAffinity>
-5.53443336

>  <minimizedRMSD>
0.236343563

$$$$
