
 OpenBabel03252505463D

 25 27  0  0  1  0  0  0  0  0999 V2000
   46.2330   32.8300   43.5560 C   0  0  0  0  0  0  0  0  0  0  0  0
   47.0100   31.8840   42.8330 C   0  0  0  0  0  0  0  0  0  0  0  0
   47.8070   30.9510   43.4970 C   0  0  0  0  0  0  0  0  0  0  0  0
   47.7890   31.0110   44.8620 N   0  0  0  0  0  0  0  0  0  0  0  0
   47.0300   31.9360   45.5230 C   0  0  0  0  0  0  0  0  0  0  0  0
   46.2770   32.8140   44.8790 N   0  0  0  0  0  0  0  0  0  0  0  0
   46.9700   31.9010   41.7720 H   0  0  0  0  0  0  0  0  0  0  0  0
   48.3900   30.2420   42.9600 H   0  0  0  0  0  0  0  0  0  0  0  0
   45.4160   33.7970   42.8070 C   0  0  1  0  0  0  0  0  0  0  0  0
   45.9680   35.2510   42.9560 C   0  0  1  0  0  0  0  0  0  0  0  0
   45.8610   34.5110   41.6530 C   0  0  0  0  0  0  0  0  0  0  0  0
   44.3210   33.7160   43.0520 H   0  0  0  0  0  0  0  0  0  0  0  0
   46.9250   35.3960   43.4470 H   0  0  0  0  0  0  0  0  0  0  0  0
   45.1500   34.8650   40.8820 H   0  0  0  0  0  0  0  0  0  0  0  0
   46.8580   34.2800   41.2080 H   0  0  0  0  0  0  0  0  0  0  0  0
   44.8950   36.2880   43.1840 C   0  0  0  0  0  0  0  0  0  0  0  0
   45.4050   37.5660   43.2570 F   0  0  0  0  0  0  0  0  0  0  0  0
   44.0170   36.2560   42.0890 F   0  0  0  0  0  0  0  0  0  0  0  0
   44.1370   35.9780   44.2910 F   0  0  0  0  0  0  0  0  0  0  0  0
   47.0340   31.9740   47.0120 C   0  0  0  0  0  3  0  0  0  0  0  0
   47.3350   30.6580   47.6500 C   0  0  0  0  0  2  0  0  0  0  0  0
   46.0880   29.8570   47.9740 C   0  0  0  0  0  2  0  0  0  0  0  0
   45.1780   30.5750   48.9510 C   0  0  0  0  0  2  0  0  0  0  0  0
   45.4800   32.0620   48.9670 C   0  0  0  0  0  2  0  0  0  0  0  0
   45.6840   32.4710   47.5340 C   0  0  0  0  0  2  0  0  0  0  0  0
  1  6  1  0  0  0  0
  2  3  1  0  0  0  0
  2  1  2  0  0  0  0
  3  4  2  0  0  0  0
  4  5  1  0  0  0  0
  5 20  1  0  0  0  0
  6  5  2  0  0  0  0
  7  2  1  0  0  0  0
  8  3  1  0  0  0  0
  9 10  1  0  0  0  0
  9 12  1  1  0  0  0
  9  1  1  0  0  0  0
 10 16  1  0  0  0  0
 10 13  1  1  0  0  0
 11  9  1  0  0  0  0
 11 10  1  0  0  0  0
 14 11  1  0  0  0  0
 15 11  1  0  0  0  0
 16 17  1  0  0  0  0
 16 19  1  0  0  0  0
 18 16  1  0  0  0  0
 20 25  1  0  0  0  0
 20 21  1  0  0  0  0
 21 22  1  0  0  0  0
 22 23  1  0  0  0  0
 23 24  1  0  0  0  0
 25 24  1  0  0  0  0
M  END
>  <minimizedAffinity>
-5.29862928

>  <minimizedRMSD>
1.66217422

$$$$
