
 OpenBabel03252506573D

 35 39  0  0  0  0  0  0  0  0999 V2000
   47.3830   31.3610   45.2080 C   0  0  0  0  0  0  0  0  0  0  0  0
   46.9140   32.6580   45.1180 C   0  0  0  0  0  0  0  0  0  0  0  0
   46.2170   33.2880   46.1350 C   0  0  0  0  0  0  0  0  0  0  0  0
   45.9640   32.6020   47.3170 C   0  0  0  0  0  0  0  0  0  0  0  0
   45.3350   32.8840   48.4930 N   0  0  0  0  0  0  0  0  0  0  0  0
   45.4150   31.7880   49.2850 C   0  0  0  0  0  0  0  0  0  0  0  0
   46.0920   30.8430   48.5940 N   0  0  0  0  0  0  0  0  0  0  0  0
   46.4360   31.3170   47.3930 C   0  0  0  0  0  0  0  0  0  0  0  0
   47.1260   30.6740   46.4010 C   0  0  0  0  0  0  0  0  0  0  0  0
   47.9190   30.9010   44.4030 H   0  0  0  0  0  0  0  0  0  0  0  0
   45.8590   34.2960   46.0520 H   0  0  0  0  0  0  0  0  0  0  0  0
   44.8830   33.8220   48.6830 H   0  0  0  0  0  0  0  0  0  0  0  0
   44.9920   31.7480   50.2800 H   0  0  0  0  0  0  0  0  0  0  0  0
   46.5760   35.1290   42.4040 C   0  0  0  0  0  0  0  0  0  0  0  0
   47.6330   34.8110   41.5680 C   0  0  0  0  0  0  0  0  0  0  0  0
   48.4690   33.7480   41.9280 C   0  0  0  0  0  0  0  0  0  0  0  0
   48.2000   33.0750   43.0900 N   0  0  0  0  0  0  0  0  0  0  0  0
   47.1670   33.4060   43.8810 C   0  0  0  0  0  0  0  0  0  0  0  0
   46.3500   34.4290   43.5480 N   0  0  0  0  0  0  0  0  0  0  0  0
   45.8960   35.9540   42.1610 H   0  0  0  0  0  0  0  0  0  0  0  0
   47.8170   35.3570   40.6650 H   0  0  0  0  0  0  0  0  0  0  0  0
   49.3130   33.4570   41.3070 H   0  0  0  0  0  0  0  0  0  0  0  0
   47.5920   29.2880   46.5760 C   0  0  0  0  0  0  0  0  0  0  0  0
   48.9330   28.9250   46.6580 C   0  0  0  0  0  0  0  0  0  0  0  0
   48.8730   27.5270   46.8180 C   0  0  0  0  0  0  0  0  0  0  0  0
   47.5420   27.1470   46.8230 C   0  0  0  0  0  0  0  0  0  0  0  0
   46.8220   28.2460   46.6740 O   0  0  0  0  0  0  0  0  0  0  0  0
   49.8190   29.5490   46.6120 H   0  0  0  0  0  0  0  0  0  0  0  0
   49.7220   26.8680   46.9200 H   0  0  0  0  0  0  0  0  0  0  0  0
   46.9660   25.7710   46.9650 C   0  0  0  0  0  3  0  0  0  0  0  0
   46.4290   25.5350   48.3460 C   0  0  0  0  0  2  0  0  0  0  0  0
   47.4030   24.7960   49.2320 C   0  0  0  0  0  2  0  0  0  0  0  0
   47.6950   23.4210   48.6840 C   0  0  0  0  0  2  0  0  0  0  0  0
   47.6650   23.4170   47.1840 C   0  0  0  0  0  2  0  0  0  0  0  0
   47.9880   24.7490   46.5600 C   0  0  0  0  0  2  0  0  0  0  0  0
  1  9  1  0  0  0  0
  2  1  2  0  0  0  0
  2  3  1  0  0  0  0
  3  4  2  0  0  0  0
  4  8  1  0  0  0  0
  4  5  1  0  0  0  0
  5 12  1  0  0  0  0
  5  6  1  0  0  0  0
  6 13  1  0  0  0  0
  7  6  2  0  0  0  0
  8  7  1  0  0  0  0
  9 23  1  0  0  0  0
  9  8  2  0  0  0  0
 10  1  1  0  0  0  0
 11  3  1  0  0  0  0
 14 19  1  0  0  0  0
 15 16  1  0  0  0  0
 15 14  2  0  0  0  0
 16 17  2  0  0  0  0
 17 18  1  0  0  0  0
 18  2  1  0  0  0  0
 19 18  2  0  0  0  0
 20 14  1  0  0  0  0
 21 15  1  0  0  0  0
 22 16  1  0  0  0  0
 23 24  2  0  0  0  0
 23 27  1  0  0  0  0
 24 25  1  0  0  0  0
 25 26  2  0  0  0  0
 25 29  1  0  0  0  0
 26 30  1  0  0  0  0
 27 26  1  0  0  0  0
 28 24  1  0  0  0  0
 30 31  1  0  0  0  0
 31 32  1  0  0  0  0
 33 32  1  0  0  0  0
 34 33  1  0  0  0  0
 35 30  1  0  0  0  0
 35 34  1  0  0  0  0
M  END
>  <minimizedAffinity>
-5.57174683

>  <minimizedRMSD>
1.01648128

$$$$
