
 OpenBabel03252508333D

 29 31  0  0  1  0  0  0  0  0999 V2000
   45.0030   34.5890   42.5210 N   0  0  0  0  0  0  0  0  0  0  0  0
   45.8850   33.9090   41.6740 C   0  0  1  0  0  0  0  0  0  0  0  0
   45.4440   33.7400   40.2450 C   0  0  0  0  0  0  0  0  0  0  0  0
   44.1190   33.9770   39.9010 N   0  0  0  0  0  0  0  0  0  0  0  0
   43.3780   34.8470   40.6930 C   0  0  0  0  0  0  0  0  0  0  0  0
   44.1230   35.4740   41.8080 C   0  0  0  0  0  0  0  0  0  0  0  0
   46.1000   32.8950   42.0780 H   0  0  0  0  0  0  0  0  0  0  0  0
   45.7240   32.6750   39.9410 H   0  0  0  0  0  0  0  0  0  0  0  0
   46.0890   34.3470   39.5800 H   0  0  0  0  0  0  0  0  0  0  0  0
   44.0420   34.0900   38.8710 H   0  0  0  0  0  0  0  0  0  0  0  0
   42.4600   34.3290   41.0940 H   0  0  0  0  0  0  0  0  0  0  0  0
   42.9640   35.6860   40.0630 H   0  0  0  0  0  0  0  0  0  0  0  0
   44.6050   36.4500   41.5270 H   0  0  0  0  0  0  0  0  0  0  0  0
   43.3280   35.8080   42.5480 H   0  0  0  0  0  0  0  0  0  0  0  0
   44.4890   35.4280   44.7020 C   0  0  0  0  0  0  0  0  0  0  0  0
   45.0200   34.4010   43.9300 C   0  0  0  0  0  0  0  0  0  0  0  0
   45.5330   33.2870   44.5620 C   0  0  0  0  0  0  0  0  0  0  0  0
   45.5240   33.1910   45.9180 N   0  0  0  0  0  0  0  0  0  0  0  0
   44.9950   34.2170   46.6580 C   0  0  0  0  0  0  0  0  0  0  0  0
   44.4900   35.3120   46.0470 N   0  0  0  0  0  0  0  0  0  0  0  0
   44.0510   36.3690   44.4170 H   0  0  0  0  0  0  0  0  0  0  0  0
   45.9420   32.4700   44.0170 H   0  0  0  0  0  0  0  0  0  0  0  0
   44.9950   34.1250   47.7460 H   0  0  0  0  0  0  0  0  0  0  0  0
   47.2740   34.5660   41.5880 C   0  0  0  0  0  3  0  0  0  0  0  0
   48.3070   33.9370   42.4440 C   0  0  0  0  0  2  0  0  0  0  0  0
   49.4210   34.9600   42.6250 C   0  0  0  0  0  2  0  0  0  0  0  0
   49.3410   36.0680   41.6250 C   0  0  0  0  0  2  0  0  0  0  0  0
   49.0390   35.6040   40.2350 C   0  0  0  0  0  2  0  0  0  0  0  0
   47.7850   34.7530   40.2070 C   0  0  0  0  0  2  0  0  0  0  0  0
  1 16  1  0  0  0  0
  2  7  1  1  0  0  0
  2  1  1  0  0  0  0
  3  2  1  0  0  0  0
  4  3  1  0  0  0  0
  4  5  1  0  0  0  0
  5 11  1  0  0  0  0
  5  6  1  0  0  0  0
  6  1  1  0  0  0  0
  6 14  1  0  0  0  0
  8  3  1  0  0  0  0
  9  3  1  0  0  0  0
 10  4  1  0  0  0  0
 12  5  1  0  0  0  0
 13  6  1  0  0  0  0
 15 20  1  0  0  0  0
 16 17  1  0  0  0  0
 16 15  2  0  0  0  0
 17 18  2  0  0  0  0
 18 19  1  0  0  0  0
 19 23  1  0  0  0  0
 20 19  2  0  0  0  0
 21 15  1  0  0  0  0
 22 17  1  0  0  0  0
 24  2  1  0  0  0  0
 24 25  1  0  0  0  0
 25 26  1  0  0  0  0
 27 26  1  0  0  0  0
 28 27  1  0  0  0  0
 29 28  1  0  0  0  0
 29 24  1  0  0  0  0
M  END
>  <minimizedAffinity>
-5.22546387

>  <minimizedRMSD>
1.81575274

$$$$
