
 OpenBabel03252504453D

 18 19  0  0  0  0  0  0  0  0999 V2000
   48.9590   30.2000   43.6340 C   0  0  0  0  0  0  0  0  0  0  0  0
   48.2170   30.0420   44.8070 C   0  0  0  0  0  0  0  0  0  0  0  0
   47.3270   31.0710   45.1480 C   0  0  0  0  0  0  0  0  0  0  0  0
   47.2370   32.1460   44.3330 N   0  0  0  0  0  0  0  0  0  0  0  0
   47.9800   32.2640   43.1970 C   0  0  0  0  0  0  0  0  0  0  0  0
   48.8410   31.2870   42.8490 N   0  0  0  0  0  0  0  0  0  0  0  0
   48.2930   29.1790   45.4550 H   0  0  0  0  0  0  0  0  0  0  0  0
   46.7190   31.0040   46.0530 H   0  0  0  0  0  0  0  0  0  0  0  0
   47.8100   33.4670   42.3820 C   0  0  0  0  0  3  0  0  0  0  0  0
   48.4440   34.6940   42.9410 C   0  0  0  0  0  2  0  0  0  0  0  0
   49.3540   35.3980   41.9640 C   0  0  0  0  0  2  0  0  0  0  0  0
   48.7770   35.5540   40.5860 C   0  0  0  0  0  2  0  0  0  0  0  0
   48.0890   34.3100   40.0680 C   0  0  0  0  0  2  0  0  0  0  0  0
   48.3500   33.1390   40.9870 C   0  0  0  0  0  2  0  0  0  0  0  0
   49.9120   29.0900   43.2760 C   0  0  0  0  0  0  0  0  0  0  0  0
   49.4350   28.1090   43.4380 H   0  0  0  0  0  0  0  0  0  0  0  0
   50.2590   29.1710   42.2430 H   0  0  0  0  0  0  0  0  0  0  0  0
   50.7730   29.1730   43.9840 H   0  0  0  0  0  0  0  0  0  0  0  0
  1  2  1  0  0  0  0
  2  3  2  0  0  0  0
  2  7  1  0  0  0  0
  3  8  1  0  0  0  0
  4  3  1  0  0  0  0
  5  4  2  0  0  0  0
  6  5  1  0  0  0  0
  6  1  2  0  0  0  0
  9 10  1  0  0  0  0
  9  5  1  0  0  0  0
 11 10  1  0  0  0  0
 12 11  1  0  0  0  0
 13 12  1  0  0  0  0
 13 14  1  0  0  0  0
 14  9  1  0  0  0  0
 15 16  1  0  0  0  0
 15  1  1  0  0  0  0
 15 18  1  0  0  0  0
 17 15  1  0  0  0  0
M  END
>  <minimizedAffinity>
-3.34593272

>  <minimizedRMSD>
6.93417978

$$$$
