
 OpenBabel03252506533D

 28 31  0  0  0  0  0  0  0  0999 V2000
   46.1310   31.3010   45.0210 C   0  0  0  0  0  0  0  0  0  0  0  0
   46.3570   32.6490   45.2350 C   0  0  0  0  0  0  0  0  0  0  0  0
   46.2310   33.2470   46.4870 C   0  0  0  0  0  0  0  0  0  0  0  0
   45.8570   32.4560   47.5840 C   0  0  0  0  0  0  0  0  0  0  0  0
   45.6440   32.6960   48.9120 N   0  0  0  0  0  0  0  0  0  0  0  0
   45.2930   31.4970   49.4790 C   0  0  0  0  0  0  0  0  0  0  0  0
   45.3000   30.5660   48.5040 N   0  0  0  0  0  0  0  0  0  0  0  0
   45.6390   31.1170   47.3320 C   0  0  0  0  0  0  0  0  0  0  0  0
   45.7580   30.5090   46.1120 C   0  0  0  0  0  0  0  0  0  0  0  0
   46.2400   30.8770   44.0350 H   0  0  0  0  0  0  0  0  0  0  0  0
   46.4040   34.2960   46.6680 H   0  0  0  0  0  0  0  0  0  0  0  0
   45.7370   33.6110   49.3690 H   0  0  0  0  0  0  0  0  0  0  0  0
   45.0560   31.3320   50.5250 H   0  0  0  0  0  0  0  0  0  0  0  0
   46.3110   35.2570   42.6410 C   0  0  0  0  0  0  0  0  0  0  0  0
   47.5570   35.1010   42.0370 C   0  0  0  0  0  0  0  0  0  0  0  0
   48.4270   34.0890   42.5230 C   0  0  0  0  0  0  0  0  0  0  0  0
   47.9450   33.3500   43.5610 N   0  0  0  0  0  0  0  0  0  0  0  0
   46.7470   33.5130   44.1290 C   0  0  0  0  0  0  0  0  0  0  0  0
   45.9360   34.4610   43.6710 N   0  0  0  0  0  0  0  0  0  0  0  0
   45.6180   36.0200   42.2990 H   0  0  0  0  0  0  0  0  0  0  0  0
   47.8560   35.7350   41.2170 H   0  0  0  0  0  0  0  0  0  0  0  0
   49.3920   33.9360   42.0870 H   0  0  0  0  0  0  0  0  0  0  0  0
   45.5040   29.0670   45.9420 C   0  0  0  0  0  0  0  0  0  0  0  0
   44.1200   28.6050   46.2590 C   0  0  0  0  0  0  0  0  0  0  0  0
   44.1760   27.1080   46.5240 C   0  0  0  0  0  0  0  0  0  0  0  0
   45.2720   26.4270   45.7420 C   0  0  0  0  0  0  0  0  0  0  0  0
   46.6410   26.9330   46.0810 C   0  0  0  0  0  0  0  0  0  0  0  0
   46.4570   28.2660   46.8160 C   0  0  0  0  0  0  0  0  0  0  0  0
  1  2  2  0  0  0  0
  1  9  1  0  0  0  0
  2  3  1  0  0  0  0
  3 11  1  0  0  0  0
  3  4  2  0  0  0  0
  4  5  1  0  0  0  0
  5 12  1  0  0  0  0
  5  6  1  0  0  0  0
  6 13  1  0  0  0  0
  7  6  2  0  0  0  0
  8  4  1  0  0  0  0
  8  7  1  0  0  0  0
  9  8  2  0  0  0  0
 10  1  1  0  0  0  0
 14 19  1  0  0  0  0
 15 16  1  0  0  0  0
 15 14  2  0  0  0  0
 16 17  2  0  0  0  0
 17 18  1  0  0  0  0
 18  2  1  0  0  0  0
 19 18  2  0  0  0  0
 20 14  1  0  0  0  0
 21 15  1  0  0  0  0
 22 16  1  0  0  0  0
 23  9  1  0  0  0  0
 23 24  1  0  0  0  0
 23 28  1  0  0  0  0
 24 25  1  0  0  0  0
 26 27  1  0  0  0  0
 26 25  1  0  0  0  0
 27 28  1  0  0  0  0
M  END
>  <minimizedAffinity>
-5.6083312

>  <minimizedRMSD>
1.33287644

$$$$
