
 OpenBabel03242510413D

 28 30  0  0  0  0  0  0  0  0999 V2000
   40.3290   29.8300   39.4340 Cl  0  0  0  0  0  0  0  0  0  0  0  0
   39.2980   31.2240   39.6780 C   0  0  0  0  0  0  0  0  0  0  0  0
   37.9920   31.0030   40.0280 C   0  0  0  0  0  0  0  0  0  0  0  0
   37.1840   32.0720   40.2170 C   0  0  0  0  0  0  0  0  0  0  0  0
   37.6920   33.3570   40.0540 C   0  0  0  0  0  0  0  0  0  0  0  0
   39.0010   33.5600   39.7030 C   0  0  0  0  0  0  0  0  0  0  0  0
   39.8720   32.4730   39.4980 C   0  0  0  0  0  0  0  0  0  0  0  0
   36.1550   31.8900   40.4930 H   0  0  0  0  0  0  0  0  0  0  0  0
   37.0250   34.1940   40.2110 H   0  0  0  0  0  0  0  0  0  0  0  0
   39.3690   34.5550   39.5840 H   0  0  0  0  0  0  0  0  0  0  0  0
   36.6290   27.6870   39.2870 C   0  0  0  0  0  0  0  0  0  0  0  0
   36.5960   27.0400   40.5420 C   0  0  0  0  0  0  0  0  0  0  0  0
   37.0640   27.8000   41.6410 C   0  0  0  0  0  0  0  0  0  0  0  0
   37.4980   29.0650   41.4120 N   0  0  0  0  0  0  0  0  0  0  0  0
   37.5050   29.6300   40.1880 C   0  0  0  0  0  0  0  0  0  0  0  0
   37.0670   28.9310   39.1290 N   0  0  0  0  0  0  0  0  0  0  0  0
   36.2820   27.1470   38.4160 H   0  0  0  0  0  0  0  0  0  0  0  0
   36.2330   26.0290   40.6350 H   0  0  0  0  0  0  0  0  0  0  0  0
   37.0170   27.1030   42.9250 C   0  0  0  0  0  0  0  0  0  0  0  0
   38.1060   27.5020   43.6790 F   0  0  0  0  0  0  0  0  0  0  0  0
   37.2120   25.7660   42.6620 F   0  0  0  0  0  0  0  0  0  0  0  0
   35.8750   27.3700   43.6440 F   0  0  0  0  0  0  0  0  0  0  0  0
   41.2750   32.7260   39.1350 C   0  0  0  0  0  3  0  0  0  0  0  0
   41.9050   33.6500   40.1450 C   0  0  0  0  0  2  0  0  0  0  0  0
   43.2730   34.1200   39.8080 C   0  0  0  0  0  2  0  0  0  0  0  0
   43.6570   34.0640   38.3740 C   0  0  0  0  0  2  0  0  0  0  0  0
   42.4600   34.1610   37.4580 C   0  0  0  0  0  2  0  0  0  0  0  0
   41.4620   33.0580   37.7110 C   0  0  0  0  0  2  0  0  0  0  0  0
  1  2  1  0  0  0  0
  2  3  1  0  0  0  0
  3 15  1  0  0  0  0
  3  4  2  0  0  0  0
  4  8  1  0  0  0  0
  5  9  1  0  0  0  0
  5  4  1  0  0  0  0
  6  5  2  0  0  0  0
  7  2  2  0  0  0  0
  7  6  1  0  0  0  0
 10  6  1  0  0  0  0
 11 12  1  0  0  0  0
 12 18  1  0  0  0  0
 12 13  2  0  0  0  0
 13 19  1  0  0  0  0
 14 13  1  0  0  0  0
 15 14  2  0  0  0  0
 16 11  2  0  0  0  0
 16 15  1  0  0  0  0
 17 11  1  0  0  0  0
 19 22  1  0  0  0  0
 19 20  1  0  0  0  0
 21 19  1  0  0  0  0
 23  7  1  0  0  0  0
 23 24  1  0  0  0  0
 25 24  1  0  0  0  0
 26 25  1  0  0  0  0
 27 28  1  0  0  0  0
 27 26  1  0  0  0  0
 28 23  1  0  0  0  0
M  END
>  <minimizedAffinity>
-5.92448235

$$$$

 OpenBabel03242510413D

 28 30  0  0  0  0  0  0  0  0999 V2000
   39.4680   27.8870   40.0200 Cl  0  0  0  0  0  0  0  0  0  0  0  0
   38.4670   27.8440   41.4560 C   0  0  0  0  0  0  0  0  0  0  0  0
   38.6260   28.8440   42.3790 C   0  0  0  0  0  0  0  0  0  0  0  0
   37.8610   28.8200   43.4950 C   0  0  0  0  0  0  0  0  0  0  0  0
   36.9400   27.7940   43.6770 C   0  0  0  0  0  0  0  0  0  0  0  0
   36.7940   26.8010   42.7440 C   0  0  0  0  0  0  0  0  0  0  0  0
   37.5720   26.7920   41.5710 C   0  0  0  0  0  0  0  0  0  0  0  0
   37.9920   29.6130   44.2180 H   0  0  0  0  0  0  0  0  0  0  0  0
   36.3400   27.7990   44.5780 H   0  0  0  0  0  0  0  0  0  0  0  0
   36.0800   26.0240   42.9060 H   0  0  0  0  0  0  0  0  0  0  0  0
   41.7600   30.7370   42.3420 C   0  0  0  0  0  0  0  0  0  0  0  0
   41.4320   31.9310   41.6640 C   0  0  0  0  0  0  0  0  0  0  0  0
   40.0900   32.0450   41.2270 C   0  0  0  0  0  0  0  0  0  0  0  0
   39.2390   31.0220   41.4870 N   0  0  0  0  0  0  0  0  0  0  0  0
   39.6110   29.9030   42.1400 C   0  0  0  0  0  0  0  0  0  0  0  0
   40.8770   29.7700   42.5640 N   0  0  0  0  0  0  0  0  0  0  0  0
   42.7740   30.6030   42.6950 H   0  0  0  0  0  0  0  0  0  0  0  0
   42.1740   32.6970   41.4990 H   0  0  0  0  0  0  0  0  0  0  0  0
   39.7830   33.2930   40.5290 C   0  0  0  0  0  0  0  0  0  0  0  0
   39.2830   32.9820   39.2770 F   0  0  0  0  0  0  0  0  0  0  0  0
   40.9800   33.9330   40.3070 F   0  0  0  0  0  0  0  0  0  0  0  0
   38.8500   34.0630   41.1850 F   0  0  0  0  0  0  0  0  0  0  0  0
   37.3810   25.7180   40.5820 C   0  0  0  0  0  3  0  0  0  0  0  0
   36.5340   26.2200   39.4410 C   0  0  0  0  0  2  0  0  0  0  0  0
   36.1260   25.1900   38.4530 C   0  0  0  0  0  2  0  0  0  0  0  0
   36.1440   23.7800   38.9220 C   0  0  0  0  0  2  0  0  0  0  0  0
   35.9450   23.6730   40.4160 C   0  0  0  0  0  2  0  0  0  0  0  0
   37.0010   24.4280   41.1840 C   0  0  0  0  0  2  0  0  0  0  0  0
  1  2  1  0  0  0  0
  2  7  2  0  0  0  0
  2  3  1  0  0  0  0
  3  4  2  0  0  0  0
  4  5  1  0  0  0  0
  4  8  1  0  0  0  0
  5  9  1  0  0  0  0
  6 10  1  0  0  0  0
  6  5  2  0  0  0  0
  7  6  1  0  0  0  0
 11 16  1  0  0  0  0
 11 17  1  0  0  0  0
 12 11  2  0  0  0  0
 13 14  2  0  0  0  0
 13 12  1  0  0  0  0
 14 15  1  0  0  0  0
 15  3  1  0  0  0  0
 15 16  2  0  0  0  0
 18 12  1  0  0  0  0
 19 22  1  0  0  0  0
 19 13  1  0  0  0  0
 20 19  1  0  0  0  0
 21 19  1  0  0  0  0
 23 28  1  0  0  0  0
 23  7  1  0  0  0  0
 24 23  1  0  0  0  0
 25 26  1  0  0  0  0
 25 24  1  0  0  0  0
 26 27  1  0  0  0  0
 27 28  1  0  0  0  0
M  END
>  <minimizedAffinity>
-5.8270402

$$$$

 OpenBabel03242510413D

 28 30  0  0  0  0  0  0  0  0999 V2000
   40.4980   29.8820   41.1340 Cl  0  0  0  0  0  0  0  0  0  0  0  0
   39.2030   30.9410   40.6160 C   0  0  0  0  0  0  0  0  0  0  0  0
   37.9170   30.5820   40.9270 C   0  0  0  0  0  0  0  0  0  0  0  0
   36.9070   31.3910   40.5290 C   0  0  0  0  0  0  0  0  0  0  0  0
   37.1940   32.5540   39.8230 C   0  0  0  0  0  0  0  0  0  0  0  0
   38.4850   32.8980   39.5200 C   0  0  0  0  0  0  0  0  0  0  0  0
   39.5620   32.0820   39.9160 C   0  0  0  0  0  0  0  0  0  0  0  0
   35.8960   31.1010   40.7780 H   0  0  0  0  0  0  0  0  0  0  0  0
   36.3680   33.1830   39.5170 H   0  0  0  0  0  0  0  0  0  0  0  0
   38.6810   33.7960   38.9770 H   0  0  0  0  0  0  0  0  0  0  0  0
   37.3930   28.2260   43.6790 C   0  0  0  0  0  0  0  0  0  0  0  0
   37.1960   26.9850   43.0360 C   0  0  0  0  0  0  0  0  0  0  0  0
   37.2520   27.0050   41.6220 C   0  0  0  0  0  0  0  0  0  0  0  0
   37.4870   28.1900   41.0040 N   0  0  0  0  0  0  0  0  0  0  0  0
   37.6690   29.3460   41.6730 C   0  0  0  0  0  0  0  0  0  0  0  0
   37.6190   29.3530   43.0140 N   0  0  0  0  0  0  0  0  0  0  0  0
   37.3580   28.2610   44.7600 H   0  0  0  0  0  0  0  0  0  0  0  0
   37.0140   26.0870   43.6070 H   0  0  0  0  0  0  0  0  0  0  0  0
   37.0450   25.7050   40.9860 C   0  0  0  0  0  0  0  0  0  0  0  0
   36.5220   24.8370   41.9290 F   0  0  0  0  0  0  0  0  0  0  0  0
   38.2890   25.2110   40.6690 F   0  0  0  0  0  0  0  0  0  0  0  0
   36.1750   25.7570   39.9220 F   0  0  0  0  0  0  0  0  0  0  0  0
   40.9380   32.4870   39.5870 C   0  0  0  0  0  3  0  0  0  0  0  0
   41.4360   33.4790   40.6050 C   0  0  0  0  0  2  0  0  0  0  0  0
   42.7530   34.0960   40.3000 C   0  0  0  0  0  2  0  0  0  0  0  0
   43.1780   34.0760   38.8760 C   0  0  0  0  0  2  0  0  0  0  0  0
   42.0010   34.0360   37.9300 C   0  0  0  0  0  2  0  0  0  0  0  0
   41.1240   32.8310   38.1660 C   0  0  0  0  0  2  0  0  0  0  0  0
  2  3  1  0  0  0  0
  2  1  1  0  0  0  0
  3 15  1  0  0  0  0
  4  8  1  0  0  0  0
  4  3  2  0  0  0  0
  5  4  1  0  0  0  0
  6  5  2  0  0  0  0
  6  7  1  0  0  0  0
  7  2  2  0  0  0  0
  9  5  1  0  0  0  0
 10  6  1  0  0  0  0
 11 17  1  0  0  0  0
 12 18  1  0  0  0  0
 12 11  1  0  0  0  0
 13 12  2  0  0  0  0
 14 13  1  0  0  0  0
 14 15  2  0  0  0  0
 15 16  1  0  0  0  0
 16 11  2  0  0  0  0
 19 13  1  0  0  0  0
 19 20  1  0  0  0  0
 21 19  1  0  0  0  0
 22 19  1  0  0  0  0
 23  7  1  0  0  0  0
 23 24  1  0  0  0  0
 25 24  1  0  0  0  0
 26 25  1  0  0  0  0
 27 28  1  0  0  0  0
 27 26  1  0  0  0  0
 28 23  1  0  0  0  0
M  END
>  <minimizedAffinity>
-5.74482441

$$$$

 OpenBabel03242510413D

 28 30  0  0  0  0  0  0  0  0999 V2000
   37.1830   27.0400   39.9900 Cl  0  0  0  0  0  0  0  0  0  0  0  0
   38.1580   27.0690   41.4440 C   0  0  0  0  0  0  0  0  0  0  0  0
   38.4880   28.2900   41.9720 C   0  0  0  0  0  0  0  0  0  0  0  0
   39.2440   28.3260   43.0940 C   0  0  0  0  0  0  0  0  0  0  0  0
   39.6630   27.1370   43.6800 C   0  0  0  0  0  0  0  0  0  0  0  0
   39.3250   25.9240   43.1390 C   0  0  0  0  0  0  0  0  0  0  0  0
   38.5410   25.8460   41.9720 C   0  0  0  0  0  0  0  0  0  0  0  0
   39.4990   29.2930   43.5040 H   0  0  0  0  0  0  0  0  0  0  0  0
   40.2660   27.1940   44.5770 H   0  0  0  0  0  0  0  0  0  0  0  0
   39.6590   25.0240   43.6070 H   0  0  0  0  0  0  0  0  0  0  0  0
   36.4010   31.1380   41.0020 C   0  0  0  0  0  0  0  0  0  0  0  0
   37.1830   31.8290   40.0510 C   0  0  0  0  0  0  0  0  0  0  0  0
   38.4510   31.2660   39.7660 C   0  0  0  0  0  0  0  0  0  0  0  0
   38.8110   30.1310   40.4150 N   0  0  0  0  0  0  0  0  0  0  0  0
   38.0200   29.5140   41.3160 C   0  0  0  0  0  0  0  0  0  0  0  0
   36.8140   30.0280   41.6030 N   0  0  0  0  0  0  0  0  0  0  0  0
   35.4240   31.5300   41.2530 H   0  0  0  0  0  0  0  0  0  0  0  0
   36.8170   32.7280   39.5810 H   0  0  0  0  0  0  0  0  0  0  0  0
   39.2350   32.0040   38.7780 C   0  0  0  0  0  0  0  0  0  0  0  0
   39.2650   33.3370   39.1500 F   0  0  0  0  0  0  0  0  0  0  0  0
   38.5320   31.9600   37.5950 F   0  0  0  0  0  0  0  0  0  0  0  0
   40.5320   31.5580   38.6740 F   0  0  0  0  0  0  0  0  0  0  0  0
   38.1840   24.5280   41.4250 C   0  0  0  0  0  3  0  0  0  0  0  0
   38.9290   24.2910   40.1370 C   0  0  0  0  0  2  0  0  0  0  0  0
   38.5370   23.0670   39.3930 C   0  0  0  0  0  2  0  0  0  0  0  0
   37.1910   22.5130   39.6930 C   0  0  0  0  0  2  0  0  0  0  0  0
   36.2320   23.5750   40.1770 C   0  0  0  0  0  2  0  0  0  0  0  0
   36.7340   24.2670   41.4210 C   0  0  0  0  0  2  0  0  0  0  0  0
  1  2  1  0  0  0  0
  2  7  2  0  0  0  0
  2  3  1  0  0  0  0
  3  4  2  0  0  0  0
  4  8  1  0  0  0  0
  4  5  1  0  0  0  0
  5  9  1  0  0  0  0
  6 10  1  0  0  0  0
  6  5  2  0  0  0  0
  7  6  1  0  0  0  0
 11 17  1  0  0  0  0
 11 16  1  0  0  0  0
 12 11  2  0  0  0  0
 13 12  1  0  0  0  0
 13 14  2  0  0  0  0
 14 15  1  0  0  0  0
 15 16  2  0  0  0  0
 15  3  1  0  0  0  0
 18 12  1  0  0  0  0
 19 20  1  0  0  0  0
 19 13  1  0  0  0  0
 21 19  1  0  0  0  0
 22 19  1  0  0  0  0
 23  7  1  0  0  0  0
 24 23  1  0  0  0  0
 25 26  1  0  0  0  0
 25 24  1  0  0  0  0
 26 27  1  0  0  0  0
 27 28  1  0  0  0  0
 28 23  1  0  0  0  0
M  END
>  <minimizedAffinity>
-5.72697926

$$$$

 OpenBabel03242510413D

 28 30  0  0  0  0  0  0  0  0999 V2000
   38.0830   28.0800   37.9920 Cl  0  0  0  0  0  0  0  0  0  0  0  0
   36.5530   28.4950   38.7360 C   0  0  0  0  0  0  0  0  0  0  0  0
   35.5010   28.8000   37.9120 C   0  0  0  0  0  0  0  0  0  0  0  0
   34.3140   29.1250   38.4740 C   0  0  0  0  0  0  0  0  0  0  0  0
   34.1890   29.1410   39.8590 C   0  0  0  0  0  0  0  0  0  0  0  0
   35.2510   28.8340   40.6690 C   0  0  0  0  0  0  0  0  0  0  0  0
   36.5020   28.4910   40.1210 C   0  0  0  0  0  0  0  0  0  0  0  0
   33.4890   29.3640   37.8180 H   0  0  0  0  0  0  0  0  0  0  0  0
   33.2290   29.4040   40.2830 H   0  0  0  0  0  0  0  0  0  0  0  0
   35.1320   28.8530   41.7290 H   0  0  0  0  0  0  0  0  0  0  0  0
   35.7680   27.5960   34.4640 C   0  0  0  0  0  0  0  0  0  0  0  0
   36.0380   28.7610   33.7140 C   0  0  0  0  0  0  0  0  0  0  0  0
   36.1210   29.9670   34.4510 C   0  0  0  0  0  0  0  0  0  0  0  0
   35.9400   29.9130   35.7950 N   0  0  0  0  0  0  0  0  0  0  0  0
   35.6840   28.7680   36.4580 C   0  0  0  0  0  0  0  0  0  0  0  0
   35.6000   27.6120   35.7820 N   0  0  0  0  0  0  0  0  0  0  0  0
   35.6950   26.6500   33.9450 H   0  0  0  0  0  0  0  0  0  0  0  0
   36.1690   28.7130   32.6440 H   0  0  0  0  0  0  0  0  0  0  0  0
   36.4020   31.1540   33.6450 C   0  0  0  0  0  0  0  0  0  0  0  0
   35.1970   31.7070   33.2480 F   0  0  0  0  0  0  0  0  0  0  0  0
   37.0150   30.7190   32.4930 F   0  0  0  0  0  0  0  0  0  0  0  0
   37.1110   32.1150   34.3280 F   0  0  0  0  0  0  0  0  0  0  0  0
   37.6190   28.1530   41.0180 C   0  0  0  0  0  3  0  0  0  0  0  0
   37.3800   26.8040   41.6450 C   0  0  0  0  0  2  0  0  0  0  0  0
   38.3500   26.4130   42.7000 C   0  0  0  0  0  2  0  0  0  0  0  0
   39.0940   27.5200   43.3560 C   0  0  0  0  0  2  0  0  0  0  0  0
   38.3260   28.8200   43.3260 C   0  0  0  0  0  2  0  0  0  0  0  0
   38.0020   29.2550   41.9180 C   0  0  0  0  0  2  0  0  0  0  0  0
  1  2  1  0  0  0  0
  2  7  1  0  0  0  0
  3  4  1  0  0  0  0
  3  2  2  0  0  0  0
  4  5  2  0  0  0  0
  5  9  1  0  0  0  0
  5  6  1  0  0  0  0
  6 10  1  0  0  0  0
  7  6  2  0  0  0  0
  7 23  1  0  0  0  0
  8  4  1  0  0  0  0
 11 16  1  0  0  0  0
 12 13  1  0  0  0  0
 12 11  2  0  0  0  0
 13 14  2  0  0  0  0
 14 15  1  0  0  0  0
 15  3  1  0  0  0  0
 16 15  2  0  0  0  0
 17 11  1  0  0  0  0
 18 12  1  0  0  0  0
 19 22  1  0  0  0  0
 19 13  1  0  0  0  0
 20 19  1  0  0  0  0
 21 19  1  0  0  0  0
 23 24  1  0  0  0  0
 23 28  1  0  0  0  0
 24 25  1  0  0  0  0
 25 26  1  0  0  0  0
 27 26  1  0  0  0  0
 28 27  1  0  0  0  0
M  END
>  <minimizedAffinity>
-5.664289

$$$$

 OpenBabel03242510413D

 28 30  0  0  0  0  0  0  0  0999 V2000
   38.4560   26.8310   39.5680 Cl  0  0  0  0  0  0  0  0  0  0  0  0
   37.8220   27.1940   41.1600 C   0  0  0  0  0  0  0  0  0  0  0  0
   37.9360   28.4810   41.6180 C   0  0  0  0  0  0  0  0  0  0  0  0
   37.4520   28.7730   42.8480 C   0  0  0  0  0  0  0  0  0  0  0  0
   36.8560   27.7740   43.6090 C   0  0  0  0  0  0  0  0  0  0  0  0
   36.7500   26.4920   43.1360 C   0  0  0  0  0  0  0  0  0  0  0  0
   37.2420   26.1490   41.8620 C   0  0  0  0  0  0  0  0  0  0  0  0
   37.5460   29.7900   43.2020 H   0  0  0  0  0  0  0  0  0  0  0  0
   36.4770   28.0340   44.5880 H   0  0  0  0  0  0  0  0  0  0  0  0
   36.2890   25.7420   43.7390 H   0  0  0  0  0  0  0  0  0  0  0  0
   40.3960   30.8220   40.2490 C   0  0  0  0  0  0  0  0  0  0  0  0
   39.7300   31.4210   39.1580 C   0  0  0  0  0  0  0  0  0  0  0  0
   38.4050   30.9790   38.9240 C   0  0  0  0  0  0  0  0  0  0  0  0
   37.8870   30.0340   39.7480 N   0  0  0  0  0  0  0  0  0  0  0  0
   38.5730   29.4970   40.7760 C   0  0  0  0  0  0  0  0  0  0  0  0
   39.8300   29.8990   41.0190 N   0  0  0  0  0  0  0  0  0  0  0  0
   41.4110   31.1260   40.4680 H   0  0  0  0  0  0  0  0  0  0  0  0
   40.2190   32.1680   38.5520 H   0  0  0  0  0  0  0  0  0  0  0  0
   37.7440   31.6180   37.7870 C   0  0  0  0  0  0  0  0  0  0  0  0
   38.7160   32.1020   36.9310 F   0  0  0  0  0  0  0  0  0  0  0  0
   37.0890   32.7250   38.2770 F   0  0  0  0  0  0  0  0  0  0  0  0
   36.9360   30.7590   37.0790 F   0  0  0  0  0  0  0  0  0  0  0  0
   37.1010   24.7670   41.3780 C   0  0  0  0  0  3  0  0  0  0  0  0
   38.4500   24.0970   41.3430 C   0  0  0  0  0  2  0  0  0  0  0  0
   38.4750   22.7500   40.7180 C   0  0  0  0  0  2  0  0  0  0  0  0
   37.3610   22.4340   39.7860 C   0  0  0  0  0  2  0  0  0  0  0  0
   36.7820   23.6740   39.1470 C   0  0  0  0  0  2  0  0  0  0  0  0
   36.2610   24.6500   40.1730 C   0  0  0  0  0  2  0  0  0  0  0  0
  1  2  1  0  0  0  0
  2  3  2  0  0  0  0
  2  7  1  0  0  0  0
  3  4  1  0  0  0  0
  4  8  1  0  0  0  0
  4  5  2  0  0  0  0
  5  9  1  0  0  0  0
  6  5  1  0  0  0  0
  6 10  1  0  0  0  0
  7  6  2  0  0  0  0
 11 17  1  0  0  0  0
 11 16  1  0  0  0  0
 12 11  2  0  0  0  0
 13 12  1  0  0  0  0
 13 14  2  0  0  0  0
 14 15  1  0  0  0  0
 15 16  2  0  0  0  0
 15  3  1  0  0  0  0
 18 12  1  0  0  0  0
 19 21  1  0  0  0  0
 19 13  1  0  0  0  0
 20 19  1  0  0  0  0
 22 19  1  0  0  0  0
 23  7  1  0  0  0  0
 24 23  1  0  0  0  0
 25 24  1  0  0  0  0
 26 25  1  0  0  0  0
 27 26  1  0  0  0  0
 27 28  1  0  0  0  0
 28 23  1  0  0  0  0
M  END
>  <minimizedAffinity>
-5.61399031

$$$$

 OpenBabel03242510413D

 28 30  0  0  0  0  0  0  0  0999 V2000
   36.4100   26.6100   39.3160 Cl  0  0  0  0  0  0  0  0  0  0  0  0
   36.5040   28.1370   40.1690 C   0  0  0  0  0  0  0  0  0  0  0  0
   35.9030   29.2290   39.5980 C   0  0  0  0  0  0  0  0  0  0  0  0
   35.9710   30.4150   40.2460 C   0  0  0  0  0  0  0  0  0  0  0  0
   36.6400   30.4980   41.4620 C   0  0  0  0  0  0  0  0  0  0  0  0
   37.2350   29.3970   42.0190 C   0  0  0  0  0  0  0  0  0  0  0  0
   37.1860   28.1460   41.3750 C   0  0  0  0  0  0  0  0  0  0  0  0
   35.4950   31.2710   39.7890 H   0  0  0  0  0  0  0  0  0  0  0  0
   36.6790   31.4590   41.9590 H   0  0  0  0  0  0  0  0  0  0  0  0
   37.7430   29.4850   42.9540 H   0  0  0  0  0  0  0  0  0  0  0  0
   33.2760   28.7120   37.1010 C   0  0  0  0  0  0  0  0  0  0  0  0
   33.9490   28.8310   35.8650 C   0  0  0  0  0  0  0  0  0  0  0  0
   35.3380   29.0950   35.9400 C   0  0  0  0  0  0  0  0  0  0  0  0
   35.9060   29.2110   37.1660 N   0  0  0  0  0  0  0  0  0  0  0  0
   35.2110   29.0880   38.3150 C   0  0  0  0  0  0  0  0  0  0  0  0
   33.8930   28.8380   38.2710 N   0  0  0  0  0  0  0  0  0  0  0  0
   32.2130   28.5110   37.0960 H   0  0  0  0  0  0  0  0  0  0  0  0
   33.4180   28.7230   34.9320 H   0  0  0  0  0  0  0  0  0  0  0  0
   36.0040   29.2110   34.6440 C   0  0  0  0  0  0  0  0  0  0  0  0
   35.3990   28.3350   33.7610 F   0  0  0  0  0  0  0  0  0  0  0  0
   37.2890   28.7490   34.8120 F   0  0  0  0  0  0  0  0  0  0  0  0
   35.9310   30.4770   34.1100 F   0  0  0  0  0  0  0  0  0  0  0  0
   37.8250   26.9800   42.0060 C   0  0  0  0  0  3  0  0  0  0  0  0
   39.0240   26.5550   41.1990 C   0  0  0  0  0  2  0  0  0  0  0  0
   39.6650   25.2870   41.6340 C   0  0  0  0  0  2  0  0  0  0  0  0
   38.8200   24.3570   42.4280 C   0  0  0  0  0  2  0  0  0  0  0  0
   37.3500   24.5230   42.1250 C   0  0  0  0  0  2  0  0  0  0  0  0
   36.8690   25.9280   42.3960 C   0  0  0  0  0  2  0  0  0  0  0  0
  1  2  1  0  0  0  0
  2  7  1  0  0  0  0
  3  2  2  0  0  0  0
  3  4  1  0  0  0  0
  4  5  2  0  0  0  0
  5  9  1  0  0  0  0
  5  6  1  0  0  0  0
  6 10  1  0  0  0  0
  7 23  1  0  0  0  0
  7  6  2  0  0  0  0
  8  4  1  0  0  0  0
 11 16  1  0  0  0  0
 12 13  1  0  0  0  0
 12 11  2  0  0  0  0
 13 14  2  0  0  0  0
 14 15  1  0  0  0  0
 15  3  1  0  0  0  0
 16 15  2  0  0  0  0
 17 11  1  0  0  0  0
 18 12  1  0  0  0  0
 19 21  1  0  0  0  0
 19 13  1  0  0  0  0
 20 19  1  0  0  0  0
 22 19  1  0  0  0  0
 23 28  1  0  0  0  0
 24 25  1  0  0  0  0
 24 23  1  0  0  0  0
 25 26  1  0  0  0  0
 27 28  1  0  0  0  0
 27 26  1  0  0  0  0
M  END
>  <minimizedAffinity>
-5.58806276

$$$$

 OpenBabel03242510413D

 28 30  0  0  0  0  0  0  0  0999 V2000
   38.1640   28.4070   39.1810 Cl  0  0  0  0  0  0  0  0  0  0  0  0
   38.0000   28.2610   40.9180 C   0  0  0  0  0  0  0  0  0  0  0  0
   37.9520   29.4140   41.6570 C   0  0  0  0  0  0  0  0  0  0  0  0
   37.8280   29.3150   43.0010 C   0  0  0  0  0  0  0  0  0  0  0  0
   37.7520   28.0590   43.5950 C   0  0  0  0  0  0  0  0  0  0  0  0
   37.8010   26.9160   42.8410 C   0  0  0  0  0  0  0  0  0  0  0  0
   37.9300   26.9790   41.4400 C   0  0  0  0  0  0  0  0  0  0  0  0
   37.7910   30.2290   43.5770 H   0  0  0  0  0  0  0  0  0  0  0  0
   37.6520   28.0080   44.6710 H   0  0  0  0  0  0  0  0  0  0  0  0
   37.7400   25.9640   43.3190 H   0  0  0  0  0  0  0  0  0  0  0  0
   37.0170   32.5180   39.9550 C   0  0  0  0  0  0  0  0  0  0  0  0
   38.2490   33.1630   39.7160 C   0  0  0  0  0  0  0  0  0  0  0  0
   39.4040   32.4790   40.1670 C   0  0  0  0  0  0  0  0  0  0  0  0
   39.2420   31.2800   40.7820 N   0  0  0  0  0  0  0  0  0  0  0  0
   38.0370   30.7120   40.9830 C   0  0  0  0  0  0  0  0  0  0  0  0
   36.9270   31.3410   40.5650 N   0  0  0  0  0  0  0  0  0  0  0  0
   36.1060   33.0020   39.6290 H   0  0  0  0  0  0  0  0  0  0  0  0
   38.2870   34.1190   39.2170 H   0  0  0  0  0  0  0  0  0  0  0  0
   40.6630   33.1730   39.9030 C   0  0  0  0  0  0  0  0  0  0  0  0
   41.7020   32.2780   40.0880 F   0  0  0  0  0  0  0  0  0  0  0  0
   40.8080   34.1260   40.8850 F   0  0  0  0  0  0  0  0  0  0  0  0
   40.7480   33.6710   38.6230 F   0  0  0  0  0  0  0  0  0  0  0  0
   37.9660   25.7330   40.6590 C   0  0  0  0  0  3  0  0  0  0  0  0
   36.5810   25.3940   40.1740 C   0  0  0  0  0  2  0  0  0  0  0  0
   36.4460   24.0710   39.5100 C   0  0  0  0  0  2  0  0  0  0  0  0
   37.4890   23.0620   39.8300 C   0  0  0  0  0  2  0  0  0  0  0  0
   38.1040   23.2890   41.1910 C   0  0  0  0  0  2  0  0  0  0  0  0
   38.7340   24.6550   41.3080 C   0  0  0  0  0  2  0  0  0  0  0  0
  1  2  1  0  0  0  0
  2  7  2  0  0  0  0
  2  3  1  0  0  0  0
  3  4  2  0  0  0  0
  4  8  1  0  0  0  0
  4  5  1  0  0  0  0
  5  9  1  0  0  0  0
  6 10  1  0  0  0  0
  6  5  2  0  0  0  0
  7  6  1  0  0  0  0
 11 16  1  0  0  0  0
 12 11  2  0  0  0  0
 12 13  1  0  0  0  0
 13 14  2  0  0  0  0
 14 15  1  0  0  0  0
 15  3  1  0  0  0  0
 16 15  2  0  0  0  0
 17 11  1  0  0  0  0
 18 12  1  0  0  0  0
 19 20  1  0  0  0  0
 19 13  1  0  0  0  0
 19 21  1  0  0  0  0
 22 19  1  0  0  0  0
 23 28  1  0  0  0  0
 23  7  1  0  0  0  0
 24 23  1  0  0  0  0
 25 26  1  0  0  0  0
 25 24  1  0  0  0  0
 26 27  1  0  0  0  0
 27 28  1  0  0  0  0
M  END
>  <minimizedAffinity>
-5.54126787

$$$$

 OpenBabel03242510413D

 28 30  0  0  0  0  0  0  0  0999 V2000
   39.8290   27.6440   40.4340 Cl  0  0  0  0  0  0  0  0  0  0  0  0
   38.4830   27.6420   41.5550 C   0  0  0  0  0  0  0  0  0  0  0  0
   37.2930   28.1710   41.1290 C   0  0  0  0  0  0  0  0  0  0  0  0
   36.2460   28.1780   41.9860 C   0  0  0  0  0  0  0  0  0  0  0  0
   36.3990   27.6530   43.2650 C   0  0  0  0  0  0  0  0  0  0  0  0
   37.5970   27.1280   43.6750 C   0  0  0  0  0  0  0  0  0  0  0  0
   38.7090   27.1040   42.8110 C   0  0  0  0  0  0  0  0  0  0  0  0
   35.3100   28.5960   41.6430 H   0  0  0  0  0  0  0  0  0  0  0  0
   35.5460   27.6710   43.9310 H   0  0  0  0  0  0  0  0  0  0  0  0
   37.6910   26.7310   44.6620 H   0  0  0  0  0  0  0  0  0  0  0  0
   36.5690   28.4720   37.5520 C   0  0  0  0  0  0  0  0  0  0  0  0
   36.9960   29.7770   37.2240 C   0  0  0  0  0  0  0  0  0  0  0  0
   37.5380   30.5370   38.2890 C   0  0  0  0  0  0  0  0  0  0  0  0
   37.6060   29.9650   39.5170 N   0  0  0  0  0  0  0  0  0  0  0  0
   37.1820   28.7110   39.7710 C   0  0  0  0  0  0  0  0  0  0  0  0
   36.6640   27.9710   38.7790 N   0  0  0  0  0  0  0  0  0  0  0  0
   36.1470   27.8530   36.7720 H   0  0  0  0  0  0  0  0  0  0  0  0
   36.9050   30.1540   36.2170 H   0  0  0  0  0  0  0  0  0  0  0  0
   37.9700   31.8830   37.9170 C   0  0  0  0  0  0  0  0  0  0  0  0
   37.0130   32.7840   38.3470 F   0  0  0  0  0  0  0  0  0  0  0  0
   37.9520   31.9430   36.5420 F   0  0  0  0  0  0  0  0  0  0  0  0
   39.1760   32.2370   38.4760 F   0  0  0  0  0  0  0  0  0  0  0  0
   39.9770   26.5210   43.2780 C   0  0  0  0  0  3  0  0  0  0  0  0
   41.0290   27.5950   43.3730 C   0  0  0  0  0  2  0  0  0  0  0  0
   42.4010   27.1150   43.6740 C   0  0  0  0  0  2  0  0  0  0  0  0
   42.6880   25.6910   43.3590 C   0  0  0  0  0  2  0  0  0  0  0  0
   41.8130   25.1660   42.2450 C   0  0  0  0  0  2  0  0  0  0  0  0
   40.3450   25.2790   42.5760 C   0  0  0  0  0  2  0  0  0  0  0  0
  1  2  1  0  0  0  0
  2  7  1  0  0  0  0
  3  2  2  0  0  0  0
  3  4  1  0  0  0  0
  4  5  2  0  0  0  0
  5  6  1  0  0  0  0
  5  9  1  0  0  0  0
  6 10  1  0  0  0  0
  7 23  1  0  0  0  0
  7  6  2  0  0  0  0
  8  4  1  0  0  0  0
 11 16  1  0  0  0  0
 12 11  2  0  0  0  0
 12 13  1  0  0  0  0
 13 14  2  0  0  0  0
 14 15  1  0  0  0  0
 15  3  1  0  0  0  0
 16 15  2  0  0  0  0
 17 11  1  0  0  0  0
 18 12  1  0  0  0  0
 19 13  1  0  0  0  0
 19 20  1  0  0  0  0
 19 22  1  0  0  0  0
 21 19  1  0  0  0  0
 23 24  1  0  0  0  0
 24 25  1  0  0  0  0
 26 25  1  0  0  0  0
 27 28  1  0  0  0  0
 27 26  1  0  0  0  0
 28 23  1  0  0  0  0
M  END
>  <minimizedAffinity>
-5.52405882

$$$$
