
 OpenBabel03252506253D

 42 46  0  0  0  0  0  0  0  0999 V2000
   45.5880   30.3670   48.7440 C   0  0  0  0  0  0  0  0  0  0  0  0
   44.8210   31.1670   48.7730 H   0  0  0  0  0  0  0  0  0  0  0  0
   45.6330   29.9920   49.8090 H   0  0  0  0  0  0  0  0  0  0  0  0
   45.4120   27.8720   48.0780 C   0  0  0  0  0  0  0  0  0  0  0  0
   45.1320   29.2230   47.9470 C   0  0  0  0  0  0  0  0  0  0  0  0
   44.2830   29.5870   46.9020 C   0  0  0  0  0  0  0  0  0  0  0  0
   43.7450   28.6620   46.0370 C   0  0  0  0  0  0  0  0  0  0  0  0
   42.9250   28.7180   44.9820 N   0  0  0  0  0  0  0  0  0  0  0  0
   42.7030   27.4840   44.4820 C   0  0  0  0  0  0  0  0  0  0  0  0
   43.4040   26.5530   45.2310 C   0  0  0  0  0  0  0  0  0  0  0  0
   44.0340   27.3270   46.1820 C   0  0  0  0  0  0  0  0  0  0  0  0
   44.8720   26.9670   47.2150 C   0  0  0  0  0  0  0  0  0  0  0  0
   46.0750   27.6740   48.9100 H   0  0  0  0  0  0  0  0  0  0  0  0
   43.9840   30.6040   46.6870 H   0  0  0  0  0  0  0  0  0  0  0  0
   42.5070   29.6070   44.5910 H   0  0  0  0  0  0  0  0  0  0  0  0
   42.0730   27.2330   43.6200 H   0  0  0  0  0  0  0  0  0  0  0  0
   43.4680   25.4760   45.1300 H   0  0  0  0  0  0  0  0  0  0  0  0
   45.2040   25.5510   47.3990 C   0  0  0  0  0  3  0  0  0  0  0  0
   46.3720   25.0300   46.6560 C   0  0  0  0  0  2  0  0  0  0  0  0
   47.4770   24.4580   47.4960 C   0  0  0  0  0  2  0  0  0  0  0  0
   47.0290   23.3770   48.4240 C   0  0  0  0  0  2  0  0  0  0  0  0
   45.7140   23.7320   49.0400 C   0  0  0  0  0  2  0  0  0  0  0  0
   45.4770   25.2360   48.8770 C   0  0  0  0  0  2  0  0  0  0  0  0
   46.9160   30.9220   48.4140 C   0  0  0  0  0  0  0  0  0  0  0  0
   47.7040   30.1750   48.4910 H   0  0  0  0  0  0  0  0  0  0  0  0
   47.1450   31.7140   49.1750 H   0  0  0  0  0  0  0  0  0  0  0  0
   46.4160   32.9690   45.5340 C   0  0  0  0  0  0  0  0  0  0  0  0
   47.2170   31.9170   45.0210 C   0  0  0  0  0  0  0  0  0  0  0  0
   47.4910   31.0450   46.0210 C   0  0  0  0  0  0  0  0  0  0  0  0
   46.8880   31.5330   47.1090 N   0  0  0  0  0  0  0  0  0  0  0  0
   46.2500   32.6730   46.8210 N   0  0  0  0  0  0  0  0  0  0  0  0
   47.5590   31.8180   43.9990 H   0  0  0  0  0  0  0  0  0  0  0  0
   48.0870   30.1460   45.9080 H   0  0  0  0  0  0  0  0  0  0  0  0
   44.4960   35.8930   44.5350 C   0  0  0  0  0  0  0  0  0  0  0  0
   44.9880   36.1870   43.2650 C   0  0  0  0  0  0  0  0  0  0  0  0
   45.9880   35.3690   42.7540 C   0  0  0  0  0  0  0  0  0  0  0  0
   46.4300   34.3330   43.5160 N   0  0  0  0  0  0  0  0  0  0  0  0
   45.9450   34.0700   44.7290 C   0  0  0  0  0  0  0  0  0  0  0  0
   44.9720   34.8580   45.2370 N   0  0  0  0  0  0  0  0  0  0  0  0
   43.7190   36.4860   44.9950 H   0  0  0  0  0  0  0  0  0  0  0  0
   44.5970   37.0130   42.7240 H   0  0  0  0  0  0  0  0  0  0  0  0
   46.4030   35.5600   41.7650 H   0  0  0  0  0  0  0  0  0  0  0  0
  1  2  1  0  0  0  0
  1  3  1  0  0  0  0
  4 13  1  0  0  0  0
  5  4  1  0  0  0  0
  5  1  1  0  0  0  0
  6  5  2  0  0  0  0
  7 11  2  0  0  0  0
  7  6  1  0  0  0  0
  8  7  1  0  0  0  0
  9  8  1  0  0  0  0
  9 10  2  0  0  0  0
 10 11  1  0  0  0  0
 11 12  1  0  0  0  0
 12 18  1  0  0  0  0
 12  4  2  0  0  0  0
 14  6  1  0  0  0  0
 15  8  1  0  0  0  0
 16  9  1  0  0  0  0
 17 10  1  0  0  0  0
 18 23  1  0  0  0  0
 19 18  1  0  0  0  0
 19 20  1  0  0  0  0
 20 21  1  0  0  0  0
 21 22  1  0  0  0  0
 23 22  1  0  0  0  0
 24 25  1  0  0  0  0
 24  1  1  0  0  0  0
 24 26  1  0  0  0  0
 27 31  2  0  0  0  0
 28 27  1  0  0  0  0
 28 29  2  0  0  0  0
 29 30  1  0  0  0  0
 30 24  1  0  0  0  0
 31 30  1  0  0  0  0
 32 28  1  0  0  0  0
 33 29  1  0  0  0  0
 34 40  1  0  0  0  0
 34 39  1  0  0  0  0
 35 34  2  0  0  0  0
 36 35  1  0  0  0  0
 36 37  2  0  0  0  0
 37 38  1  0  0  0  0
 38 39  2  0  0  0  0
 38 27  1  0  0  0  0
 41 35  1  0  0  0  0
 42 36  1  0  0  0  0
M  END
>  <minimizedAffinity>
-5.47461605

>  <minimizedRMSD>
1.52549505

$$$$
