
 OpenBabel03242521403D

 18 19  0  0  0  0  0  0  0  0999 V2000
   38.3230   32.8360   40.2410 C   0  0  0  0  0  0  0  0  0  0  0  0
   37.7950   31.6190   40.6900 C   0  0  0  0  0  0  0  0  0  0  0  0
   38.6660   30.7230   41.3380 C   0  0  0  0  0  0  0  0  0  0  0  0
   39.9560   31.1060   41.4820 N   0  0  0  0  0  0  0  0  0  0  0  0
   40.4280   32.2920   41.0350 C   0  0  0  0  0  0  0  0  0  0  0  0
   39.6160   33.1610   40.4130 N   0  0  0  0  0  0  0  0  0  0  0  0
   36.7350   31.3950   40.5290 H   0  0  0  0  0  0  0  0  0  0  0  0
   41.4700   32.5490   41.1760 H   0  0  0  0  0  0  0  0  0  0  0  0
   38.1430   29.4460   41.8160 C   0  0  0  0  0  3  0  0  0  0  0  0
   36.6880   29.2250   41.4070 C   0  0  0  0  0  2  0  0  0  0  0  0
   36.5410   27.6990   41.4700 C   0  0  0  0  0  2  0  0  0  0  0  0
   36.6300   27.2860   42.9180 C   0  0  0  0  0  2  0  0  0  0  0  0
   37.7420   27.8970   43.6800 C   0  0  0  0  0  2  0  0  0  0  0  0
   38.2090   29.2450   43.2930 C   0  0  0  0  0  2  0  0  0  0  0  0
   37.3850   33.7810   39.5530 C   0  0  0  0  0  0  0  0  0  0  0  0
   36.9610   34.4990   40.2860 H   0  0  0  0  0  0  0  0  0  0  0  0
   37.8490   34.3080   38.7180 H   0  0  0  0  0  0  0  0  0  0  0  0
   36.5270   33.1880   39.1260 H   0  0  0  0  0  0  0  0  0  0  0  0
  1  6  2  0  0  0  0
  1  2  1  0  0  0  0
  2  3  2  0  0  0  0
  3  4  1  0  0  0  0
  3  9  1  0  0  0  0
  5  8  1  0  0  0  0
  5  4  2  0  0  0  0
  6  5  1  0  0  0  0
  7  2  1  0  0  0  0
  9 14  1  0  0  0  0
 10 11  1  0  0  0  0
 10  9  1  0  0  0  0
 11 12  1  0  0  0  0
 12 13  1  0  0  0  0
 14 13  1  0  0  0  0
 15  1  1  0  0  0  0
 15 16  1  0  0  0  0
 17 15  1  0  0  0  0
 18 15  1  0  0  0  0
M  END
>  <minimizedAffinity>
-4.41392088

$$$$

 OpenBabel03242521403D

 18 19  0  0  0  0  0  0  0  0999 V2000
   37.3590   32.2780   39.2010 C   0  0  0  0  0  0  0  0  0  0  0  0
   37.4320   31.4030   40.2920 C   0  0  0  0  0  0  0  0  0  0  0  0
   37.5410   30.0250   40.0240 C   0  0  0  0  0  0  0  0  0  0  0  0
   37.5670   29.6460   38.7240 N   0  0  0  0  0  0  0  0  0  0  0  0
   37.4940   30.5240   37.6980 C   0  0  0  0  0  0  0  0  0  0  0  0
   37.3900   31.8420   37.9310 N   0  0  0  0  0  0  0  0  0  0  0  0
   37.4040   31.8020   41.3110 H   0  0  0  0  0  0  0  0  0  0  0  0
   37.5200   30.1670   36.6770 H   0  0  0  0  0  0  0  0  0  0  0  0
   37.6190   29.0890   41.1420 C   0  0  0  0  0  3  0  0  0  0  0  0
   36.3280   28.2910   41.3220 C   0  0  0  0  0  2  0  0  0  0  0  0
   36.7980   27.0470   42.0850 C   0  0  0  0  0  2  0  0  0  0  0  0
   37.2110   27.4810   43.4690 C   0  0  0  0  0  2  0  0  0  0  0  0
   38.0770   28.6800   43.5200 C   0  0  0  0  0  2  0  0  0  0  0  0
   37.9320   29.7040   42.4640 C   0  0  0  0  0  2  0  0  0  0  0  0
   37.2440   33.7420   39.5010 C   0  0  0  0  0  0  0  0  0  0  0  0
   38.2520   34.2090   39.5130 H   0  0  0  0  0  0  0  0  0  0  0  0
   36.5830   34.2670   38.8100 H   0  0  0  0  0  0  0  0  0  0  0  0
   36.8030   33.8650   40.5310 H   0  0  0  0  0  0  0  0  0  0  0  0
  1 15  1  0  0  0  0
  1  2  1  0  0  0  0
  2  7  1  0  0  0  0
  3  2  2  0  0  0  0
  3  9  1  0  0  0  0
  4  3  1  0  0  0  0
  5  6  1  0  0  0  0
  5  4  2  0  0  0  0
  6  1  2  0  0  0  0
  8  5  1  0  0  0  0
  9 10  1  0  0  0  0
  9 14  1  0  0  0  0
 10 11  1  0  0  0  0
 11 12  1  0  0  0  0
 12 13  1  0  0  0  0
 14 13  1  0  0  0  0
 15 16  1  0  0  0  0
 15 18  1  0  0  0  0
 17 15  1  0  0  0  0
M  END
>  <minimizedAffinity>
-4.33770227

$$$$

 OpenBabel03242521403D

 18 19  0  0  0  0  0  0  0  0999 V2000
   35.6970   29.1410   40.5350 C   0  0  0  0  0  0  0  0  0  0  0  0
   36.4000   27.9770   40.8680 C   0  0  0  0  0  0  0  0  0  0  0  0
   37.5690   28.1120   41.6410 C   0  0  0  0  0  0  0  0  0  0  0  0
   37.9290   29.3650   42.0080 N   0  0  0  0  0  0  0  0  0  0  0  0
   37.2210   30.4660   41.6660 C   0  0  0  0  0  0  0  0  0  0  0  0
   36.1040   30.3600   40.9290 N   0  0  0  0  0  0  0  0  0  0  0  0
   36.0330   27.0040   40.5260 H   0  0  0  0  0  0  0  0  0  0  0  0
   37.5530   31.4450   41.9860 H   0  0  0  0  0  0  0  0  0  0  0  0
   38.3230   26.9150   42.0020 C   0  0  0  0  0  3  0  0  0  0  0  0
   37.4330   25.6780   42.1100 C   0  0  0  0  0  2  0  0  0  0  0  0
   38.4230   24.5240   41.9080 C   0  0  0  0  0  2  0  0  0  0  0  0
   39.3350   24.4820   43.1090 C   0  0  0  0  0  2  0  0  0  0  0  0
   39.8870   25.7900   43.5260 C   0  0  0  0  0  2  0  0  0  0  0  0
   39.0860   27.0080   43.2810 C   0  0  0  0  0  2  0  0  0  0  0  0
   34.4550   28.9820   39.7120 C   0  0  0  0  0  0  0  0  0  0  0  0
   33.5650   28.9110   40.3740 H   0  0  0  0  0  0  0  0  0  0  0  0
   34.3270   29.7780   38.9770 H   0  0  0  0  0  0  0  0  0  0  0  0
   34.5250   28.0160   39.1370 H   0  0  0  0  0  0  0  0  0  0  0  0
  1  2  2  0  0  0  0
  1  6  1  0  0  0  0
  2  3  1  0  0  0  0
  3  9  1  0  0  0  0
  3  4  2  0  0  0  0
  5  8  1  0  0  0  0
  5  4  1  0  0  0  0
  6  5  2  0  0  0  0
  7  2  1  0  0  0  0
  9 10  1  0  0  0  0
  9 14  1  0  0  0  0
 11 10  1  0  0  0  0
 11 12  1  0  0  0  0
 12 13  1  0  0  0  0
 14 13  1  0  0  0  0
 15 16  1  0  0  0  0
 15  1  1  0  0  0  0
 17 15  1  0  0  0  0
 18 15  1  0  0  0  0
M  END
>  <minimizedAffinity>
-4.32725382

$$$$

 OpenBabel03242521403D

 18 19  0  0  0  0  0  0  0  0999 V2000
   39.5360   32.5880   40.5660 C   0  0  0  0  0  0  0  0  0  0  0  0
   39.1310   31.3970   41.1830 C   0  0  0  0  0  0  0  0  0  0  0  0
   37.7780   31.0250   41.0680 C   0  0  0  0  0  0  0  0  0  0  0  0
   36.9640   31.8480   40.3660 N   0  0  0  0  0  0  0  0  0  0  0  0
   37.3950   32.9900   39.7840 C   0  0  0  0  0  0  0  0  0  0  0  0
   38.6810   33.3650   39.8810 N   0  0  0  0  0  0  0  0  0  0  0  0
   39.8610   30.7940   41.7310 H   0  0  0  0  0  0  0  0  0  0  0  0
   36.7030   33.6130   39.2330 H   0  0  0  0  0  0  0  0  0  0  0  0
   37.3260   29.7890   41.7020 C   0  0  0  0  0  3  0  0  0  0  0  0
   38.2670   29.3290   42.8140 C   0  0  0  0  0  2  0  0  0  0  0  0
   37.3670   28.4390   43.6800 C   0  0  0  0  0  2  0  0  0  0  0  0
   37.0350   27.2030   42.8820 C   0  0  0  0  0  2  0  0  0  0  0  0
   36.6130   27.4490   41.4860 C   0  0  0  0  0  2  0  0  0  0  0  0
   37.1530   28.6290   40.7790 C   0  0  0  0  0  2  0  0  0  0  0  0
   40.9790   32.9720   40.6960 C   0  0  0  0  0  0  0  0  0  0  0  0
   41.5540   32.5950   39.8240 H   0  0  0  0  0  0  0  0  0  0  0  0
   41.1230   34.0470   40.8190 H   0  0  0  0  0  0  0  0  0  0  0  0
   41.4010   32.4800   41.6170 H   0  0  0  0  0  0  0  0  0  0  0  0
  1 15  1  0  0  0  0
  1  2  1  0  0  0  0
  2  7  1  0  0  0  0
  3  2  2  0  0  0  0
  3  9  1  0  0  0  0
  4  3  1  0  0  0  0
  5  6  1  0  0  0  0
  5  4  2  0  0  0  0
  6  1  2  0  0  0  0
  8  5  1  0  0  0  0
  9 10  1  0  0  0  0
 10 11  1  0  0  0  0
 12 11  1  0  0  0  0
 13 12  1  0  0  0  0
 14 13  1  0  0  0  0
 14  9  1  0  0  0  0
 15 17  1  0  0  0  0
 15 18  1  0  0  0  0
 16 15  1  0  0  0  0
M  END
>  <minimizedAffinity>
-4.28337574

$$$$

 OpenBabel03242521403D

 18 19  0  0  0  0  0  0  0  0999 V2000
   37.1490   26.7220   42.0210 C   0  0  0  0  0  0  0  0  0  0  0  0
   37.2840   27.6870   41.0150 C   0  0  0  0  0  0  0  0  0  0  0  0
   37.4470   29.0290   41.4100 C   0  0  0  0  0  0  0  0  0  0  0  0
   37.4620   29.2890   42.7390 N   0  0  0  0  0  0  0  0  0  0  0  0
   37.3290   28.3260   43.6790 C   0  0  0  0  0  0  0  0  0  0  0  0
   37.1720   27.0400   43.3260 N   0  0  0  0  0  0  0  0  0  0  0  0
   37.2600   27.3840   39.9640 H   0  0  0  0  0  0  0  0  0  0  0  0
   37.3480   28.5880   44.7290 H   0  0  0  0  0  0  0  0  0  0  0  0
   37.5900   30.0580   40.3830 C   0  0  0  0  0  3  0  0  0  0  0  0
   36.6120   31.2150   40.5800 C   0  0  0  0  0  2  0  0  0  0  0  0
   37.2880   32.3680   39.8280 C   0  0  0  0  0  2  0  0  0  0  0  0
   37.2510   32.0430   38.3550 C   0  0  0  0  0  2  0  0  0  0  0  0
   37.6610   30.6660   38.0040 C   0  0  0  0  0  2  0  0  0  0  0  0
   37.4150   29.5820   38.9800 C   0  0  0  0  0  2  0  0  0  0  0  0
   36.9770   25.2980   41.5870 C   0  0  0  0  0  0  0  0  0  0  0  0
   37.9630   24.7880   41.5500 H   0  0  0  0  0  0  0  0  0  0  0  0
   36.2780   24.7430   42.2160 H   0  0  0  0  0  0  0  0  0  0  0  0
   36.5530   25.2880   40.5430 H   0  0  0  0  0  0  0  0  0  0  0  0
  1  6  1  0  0  0  0
  2  3  1  0  0  0  0
  2  1  2  0  0  0  0
  3  4  2  0  0  0  0
  4  5  1  0  0  0  0
  5  8  1  0  0  0  0
  6  5  2  0  0  0  0
  7  2  1  0  0  0  0
  9 10  1  0  0  0  0
  9  3  1  0  0  0  0
 11 10  1  0  0  0  0
 12 11  1  0  0  0  0
 13 12  1  0  0  0  0
 13 14  1  0  0  0  0
 14  9  1  0  0  0  0
 15  1  1  0  0  0  0
 15 17  1  0  0  0  0
 16 15  1  0  0  0  0
 18 15  1  0  0  0  0
M  END
>  <minimizedAffinity>
-4.22234297

$$$$

 OpenBabel03242521403D

 18 19  0  0  0  0  0  0  0  0999 V2000
   37.2540   30.9930   38.1310 C   0  0  0  0  0  0  0  0  0  0  0  0
   37.1610   29.9440   39.0540 C   0  0  0  0  0  0  0  0  0  0  0  0
   37.1480   30.2730   40.4240 C   0  0  0  0  0  0  0  0  0  0  0  0
   37.2260   31.5850   40.7480 N   0  0  0  0  0  0  0  0  0  0  0  0
   37.3140   32.5690   39.8250 C   0  0  0  0  0  0  0  0  0  0  0  0
   37.3280   32.2790   38.5140 N   0  0  0  0  0  0  0  0  0  0  0  0
   37.1030   28.9100   38.6980 H   0  0  0  0  0  0  0  0  0  0  0  0
   37.3730   33.6030   40.1380 H   0  0  0  0  0  0  0  0  0  0  0  0
   37.0530   29.2000   41.4090 C   0  0  0  0  0  3  0  0  0  0  0  0
   38.0720   29.3540   42.5370 C   0  0  0  0  0  2  0  0  0  0  0  0
   37.4470   28.5440   43.6790 C   0  0  0  0  0  2  0  0  0  0  0  0
   37.4840   27.0880   43.2870 C   0  0  0  0  0  2  0  0  0  0  0  0
   37.0250   26.7950   41.9110 C   0  0  0  0  0  2  0  0  0  0  0  0
   37.2220   27.8210   40.8650 C   0  0  0  0  0  2  0  0  0  0  0  0
   37.2670   30.6290   36.6770 C   0  0  0  0  0  0  0  0  0  0  0  0
   36.2360   30.6650   36.2660 H   0  0  0  0  0  0  0  0  0  0  0  0
   37.9400   31.2540   36.0880 H   0  0  0  0  0  0  0  0  0  0  0  0
   37.6340   29.5690   36.5740 H   0  0  0  0  0  0  0  0  0  0  0  0
  1  6  2  0  0  0  0
  1  2  1  0  0  0  0
  2  3  2  0  0  0  0
  3  4  1  0  0  0  0
  3  9  1  0  0  0  0
  5  8  1  0  0  0  0
  5  4  2  0  0  0  0
  6  5  1  0  0  0  0
  7  2  1  0  0  0  0
  9 10  1  0  0  0  0
 10 11  1  0  0  0  0
 12 11  1  0  0  0  0
 13 12  1  0  0  0  0
 14  9  1  0  0  0  0
 14 13  1  0  0  0  0
 15  1  1  0  0  0  0
 16 15  1  0  0  0  0
 17 15  1  0  0  0  0
 18 15  1  0  0  0  0
M  END
>  <minimizedAffinity>
-4.21577692

$$$$

 OpenBabel03242521403D

 18 19  0  0  0  0  0  0  0  0999 V2000
   36.2460   23.3250   39.5690 C   0  0  0  0  0  0  0  0  0  0  0  0
   36.3270   24.4040   40.4580 C   0  0  0  0  0  0  0  0  0  0  0  0
   37.4590   24.4860   41.2910 C   0  0  0  0  0  0  0  0  0  0  0  0
   38.3900   23.5100   41.1720 N   0  0  0  0  0  0  0  0  0  0  0  0
   38.2740   22.4830   40.2990 C   0  0  0  0  0  0  0  0  0  0  0  0
   37.2030   22.3850   39.4960 N   0  0  0  0  0  0  0  0  0  0  0  0
   35.5240   25.1470   40.4850 H   0  0  0  0  0  0  0  0  0  0  0  0
   39.0480   21.7290   40.2440 H   0  0  0  0  0  0  0  0  0  0  0  0
   37.5710   25.6000   42.2290 C   0  0  0  0  0  3  0  0  0  0  0  0
   36.9750   26.8910   41.6700 C   0  0  0  0  0  2  0  0  0  0  0  0
   36.6670   27.7030   42.9340 C   0  0  0  0  0  2  0  0  0  0  0  0
   37.9810   28.0930   43.5650 C   0  0  0  0  0  2  0  0  0  0  0  0
   38.9730   27.0010   43.6790 C   0  0  0  0  0  2  0  0  0  0  0  0
   38.9590   25.9220   42.6680 C   0  0  0  0  0  2  0  0  0  0  0  0
   35.0360   23.2500   38.6880 C   0  0  0  0  0  0  0  0  0  0  0  0
   35.2440   23.7400   37.7120 H   0  0  0  0  0  0  0  0  0  0  0  0
   34.6790   22.2300   38.5400 H   0  0  0  0  0  0  0  0  0  0  0  0
   34.1970   23.8200   39.1780 H   0  0  0  0  0  0  0  0  0  0  0  0
  1  2  1  0  0  0  0
  2  7  1  0  0  0  0
  2  3  2  0  0  0  0
  3  9  1  0  0  0  0
  4  3  1  0  0  0  0
  5  4  2  0  0  0  0
  6  1  2  0  0  0  0
  6  5  1  0  0  0  0
  8  5  1  0  0  0  0
  9 14  1  0  0  0  0
 10  9  1  0  0  0  0
 10 11  1  0  0  0  0
 11 12  1  0  0  0  0
 12 13  1  0  0  0  0
 14 13  1  0  0  0  0
 15 18  1  0  0  0  0
 15  1  1  0  0  0  0
 16 15  1  0  0  0  0
 17 15  1  0  0  0  0
M  END
>  <minimizedAffinity>
-4.14168692

$$$$

 OpenBabel03242521403D

 18 19  0  0  0  0  0  0  0  0999 V2000
   37.7830   31.2200   38.7690 C   0  0  0  0  0  0  0  0  0  0  0  0
   37.9410   30.2340   39.7510 C   0  0  0  0  0  0  0  0  0  0  0  0
   38.3580   30.6430   41.0320 C   0  0  0  0  0  0  0  0  0  0  0  0
   38.5770   31.9660   41.2220 N   0  0  0  0  0  0  0  0  0  0  0  0
   38.4120   32.8870   40.2460 C   0  0  0  0  0  0  0  0  0  0  0  0
   38.0150   32.5200   39.0170 N   0  0  0  0  0  0  0  0  0  0  0  0
   37.7400   29.1860   39.5060 H   0  0  0  0  0  0  0  0  0  0  0  0
   38.6000   33.9330   40.4500 H   0  0  0  0  0  0  0  0  0  0  0  0
   38.5330   29.6370   42.0760 C   0  0  0  0  0  3  0  0  0  0  0  0
   39.4500   28.4970   41.6370 C   0  0  0  0  0  2  0  0  0  0  0  0
   39.9470   27.9230   42.9690 C   0  0  0  0  0  2  0  0  0  0  0  0
   38.7750   27.2680   43.6560 C   0  0  0  0  0  2  0  0  0  0  0  0
   37.5320   28.0690   43.6800 C   0  0  0  0  0  2  0  0  0  0  0  0
   37.2720   29.0080   42.5680 C   0  0  0  0  0  2  0  0  0  0  0  0
   37.3370   30.7710   37.4100 C   0  0  0  0  0  0  0  0  0  0  0  0
   36.2320   30.8390   37.3290 H   0  0  0  0  0  0  0  0  0  0  0  0
   37.8190   31.3220   36.6010 H   0  0  0  0  0  0  0  0  0  0  0  0
   37.6190   29.6880   37.2790 H   0  0  0  0  0  0  0  0  0  0  0  0
  1  6  2  0  0  0  0
  1  2  1  0  0  0  0
  2  3  2  0  0  0  0
  3  4  1  0  0  0  0
  3  9  1  0  0  0  0
  5  8  1  0  0  0  0
  5  4  2  0  0  0  0
  6  5  1  0  0  0  0
  7  2  1  0  0  0  0
  9 14  1  0  0  0  0
 10  9  1  0  0  0  0
 10 11  1  0  0  0  0
 11 12  1  0  0  0  0
 12 13  1  0  0  0  0
 14 13  1  0  0  0  0
 15  1  1  0  0  0  0
 16 15  1  0  0  0  0
 17 15  1  0  0  0  0
 18 15  1  0  0  0  0
M  END
>  <minimizedAffinity>
-4.00795841

$$$$

 OpenBabel03242521403D

 18 19  0  0  0  0  0  0  0  0999 V2000
   38.0360   24.2760   41.4540 C   0  0  0  0  0  0  0  0  0  0  0  0
   37.3240   25.4500   41.1780 C   0  0  0  0  0  0  0  0  0  0  0  0
   37.6870   26.6180   41.8750 C   0  0  0  0  0  0  0  0  0  0  0  0
   38.7020   26.5210   42.7650 N   0  0  0  0  0  0  0  0  0  0  0  0
   39.3660   25.3660   43.0030 C   0  0  0  0  0  0  0  0  0  0  0  0
   39.0360   24.2400   42.3510 N   0  0  0  0  0  0  0  0  0  0  0  0
   36.5160   25.4340   40.4400 H   0  0  0  0  0  0  0  0  0  0  0  0
   40.1710   25.3430   43.7260 H   0  0  0  0  0  0  0  0  0  0  0  0
   36.9620   27.8570   41.6080 C   0  0  0  0  0  3  0  0  0  0  0  0
   36.3210   27.8690   40.2210 C   0  0  0  0  0  2  0  0  0  0  0  0
   35.1970   28.9010   40.3700 C   0  0  0  0  0  2  0  0  0  0  0  0
   35.8350   30.2570   40.5410 C   0  0  0  0  0  2  0  0  0  0  0  0
   36.9450   30.3120   41.5170 C   0  0  0  0  0  2  0  0  0  0  0  0
   37.7740   29.1040   41.7160 C   0  0  0  0  0  2  0  0  0  0  0  0
   37.6400   23.0400   40.7050 C   0  0  0  0  0  0  0  0  0  0  0  0
   38.2650   22.9300   39.7930 H   0  0  0  0  0  0  0  0  0  0  0  0
   37.6870   22.1380   41.3170 H   0  0  0  0  0  0  0  0  0  0  0  0
   36.5700   23.1500   40.3690 H   0  0  0  0  0  0  0  0  0  0  0  0
  1  6  1  0  0  0  0
  2  1  2  0  0  0  0
  2  3  1  0  0  0  0
  3  4  2  0  0  0  0
  4  5  1  0  0  0  0
  5  8  1  0  0  0  0
  6  5  2  0  0  0  0
  7  2  1  0  0  0  0
  9 14  1  0  0  0  0
  9  3  1  0  0  0  0
 10 11  1  0  0  0  0
 10  9  1  0  0  0  0
 11 12  1  0  0  0  0
 12 13  1  0  0  0  0
 13 14  1  0  0  0  0
 15 17  1  0  0  0  0
 15  1  1  0  0  0  0
 16 15  1  0  0  0  0
 18 15  1  0  0  0  0
M  END
>  <minimizedAffinity>
-4.00485849

$$$$
