
 OpenBabel03252503413D

 18 19  0  0  0  0  0  0  0  0999 V2000
   44.6990   35.3300   45.0710 C   0  0  0  0  0  0  0  0  0  0  0  0
   45.4040   35.2450   43.8650 C   0  0  0  0  0  0  0  0  0  0  0  0
   46.3490   34.2150   43.7190 C   0  0  0  0  0  0  0  0  0  0  0  0
   46.5220   33.3680   44.7520 N   0  0  0  0  0  0  0  0  0  0  0  0
   45.8220   33.4760   45.9130 C   0  0  0  0  0  0  0  0  0  0  0  0
   44.8950   34.4670   46.0840 N   0  0  0  0  0  0  0  0  0  0  0  0
   43.9470   36.0730   45.3090 H   0  0  0  0  0  0  0  0  0  0  0  0
   46.8580   34.1920   42.7860 H   0  0  0  0  0  0  0  0  0  0  0  0
   46.1110   32.4830   46.9570 C   0  0  0  0  0  0  0  0  0  0  0  0
   46.0010   31.0600   46.5410 C   0  0  0  0  0  0  0  0  0  0  0  0
   45.1520   30.2100   47.4520 C   0  0  0  0  0  0  0  0  0  0  0  0
   45.3710   30.4350   48.9090 C   0  0  0  0  0  0  0  0  0  0  0  0
   45.6600   31.8810   49.2550 C   0  0  0  0  0  0  0  0  0  0  0  0
   45.1180   32.6990   48.1010 C   0  0  0  0  0  0  0  0  0  0  0  0
   45.0670   36.2710   42.8570 C   0  0  0  0  0  0  0  0  0  0  0  0
   45.6990   36.0890   41.9750 H   0  0  0  0  0  0  0  0  0  0  0  0
   43.9840   36.1730   42.6410 H   0  0  0  0  0  0  0  0  0  0  0  0
   45.3350   37.2580   43.2930 H   0  0  0  0  0  0  0  0  0  0  0  0
  1  7  1  0  0  0  0
  1  6  1  0  0  0  0
  2  1  2  0  0  0  0
  3  2  1  0  0  0  0
  3  4  2  0  0  0  0
  4  5  1  0  0  0  0
  5  6  2  0  0  0  0
  5  9  1  0  0  0  0
  8  3  1  0  0  0  0
  9 14  1  0  0  0  0
 10  9  1  0  0  0  0
 10 11  1  0  0  0  0
 11 12  1  0  0  0  0
 12 13  1  0  0  0  0
 14 13  1  0  0  0  0
 15 18  1  0  0  0  0
 15  2  1  0  0  0  0
 16 15  1  0  0  0  0
 17 15  1  0  0  0  0
M  END
>  <minimizedAffinity>
-4.91304159

>  <minimizedRMSD>
2.0240581

$$$$
