
 OpenBabel03252506573D

 35 39  0  0  0  0  0  0  0  0999 V2000
   47.2620   31.4200   45.1340 C   0  0  0  0  0  0  0  0  0  0  0  0
   46.8790   32.7480   45.1190 C   0  0  0  0  0  0  0  0  0  0  0  0
   46.2450   33.3690   46.1810 C   0  0  0  0  0  0  0  0  0  0  0  0
   45.9690   32.6410   47.3340 C   0  0  0  0  0  0  0  0  0  0  0  0
   45.3820   32.9030   48.5360 N   0  0  0  0  0  0  0  0  0  0  0  0
   45.4050   31.7650   49.2700 C   0  0  0  0  0  0  0  0  0  0  0  0
   46.0040   30.8150   48.5180 N   0  0  0  0  0  0  0  0  0  0  0  0
   46.3560   31.3260   47.3340 C   0  0  0  0  0  0  0  0  0  0  0  0
   46.9840   30.6910   46.2960 C   0  0  0  0  0  0  0  0  0  0  0  0
   47.7520   30.9680   44.2960 H   0  0  0  0  0  0  0  0  0  0  0  0
   45.9530   34.4010   46.1570 H   0  0  0  0  0  0  0  0  0  0  0  0
   44.9960   33.8570   48.7820 H   0  0  0  0  0  0  0  0  0  0  0  0
   44.9980   31.7010   50.2710 H   0  0  0  0  0  0  0  0  0  0  0  0
   46.4990   35.1910   42.3850 C   0  0  0  0  0  0  0  0  0  0  0  0
   47.6700   35.0280   41.6650 C   0  0  0  0  0  0  0  0  0  0  0  0
   48.5980   34.0800   42.1110 C   0  0  0  0  0  0  0  0  0  0  0  0
   48.3010   33.3610   43.2370 N   0  0  0  0  0  0  0  0  0  0  0  0
   47.1570   33.5410   43.9150 C   0  0  0  0  0  0  0  0  0  0  0  0
   46.2510   34.4510   43.5000 N   0  0  0  0  0  0  0  0  0  0  0  0
   45.7440   35.9230   42.0730 H   0  0  0  0  0  0  0  0  0  0  0  0
   47.8730   35.6060   40.7870 H   0  0  0  0  0  0  0  0  0  0  0  0
   49.5340   33.9120   41.5810 H   0  0  0  0  0  0  0  0  0  0  0  0
   47.3600   29.2710   46.3920 C   0  0  0  0  0  0  0  0  0  0  0  0
   48.6700   28.8240   46.5380 C   0  0  0  0  0  0  0  0  0  0  0  0
   48.5230   27.4240   46.5800 C   0  0  0  0  0  0  0  0  0  0  0  0
   47.1770   27.1240   46.4610 C   0  0  0  0  0  0  0  0  0  0  0  0
   46.5300   28.2720   46.3510 O   0  0  0  0  0  0  0  0  0  0  0  0
   49.5890   29.3960   46.6050 H   0  0  0  0  0  0  0  0  0  0  0  0
   49.3250   26.7090   46.6890 H   0  0  0  0  0  0  0  0  0  0  0  0
   46.5190   25.7780   46.4520 C   0  0  0  0  0  3  0  0  0  0  0  0
   45.4150   25.7060   45.4380 C   0  0  0  0  0  2  0  0  0  0  0  0
   44.0510   25.9340   46.0430 C   0  0  0  0  0  2  0  0  0  0  0  0
   43.7240   24.8660   47.0560 C   0  0  0  0  0  2  0  0  0  0  0  0
   44.9570   24.4010   47.7730 C   0  0  0  0  0  2  0  0  0  0  0  0
   46.0540   25.4300   47.8360 C   0  0  0  0  0  2  0  0  0  0  0  0
  1  9  1  0  0  0  0
  2  1  2  0  0  0  0
  2  3  1  0  0  0  0
  3  4  2  0  0  0  0
  4  8  1  0  0  0  0
  4  5  1  0  0  0  0
  5 12  1  0  0  0  0
  5  6  1  0  0  0  0
  6 13  1  0  0  0  0
  7  6  2  0  0  0  0
  8  7  1  0  0  0  0
  9 23  1  0  0  0  0
  9  8  2  0  0  0  0
 10  1  1  0  0  0  0
 11  3  1  0  0  0  0
 14 19  1  0  0  0  0
 15 16  1  0  0  0  0
 15 14  2  0  0  0  0
 16 17  2  0  0  0  0
 17 18  1  0  0  0  0
 18  2  1  0  0  0  0
 19 18  2  0  0  0  0
 20 14  1  0  0  0  0
 21 15  1  0  0  0  0
 22 16  1  0  0  0  0
 23 24  2  0  0  0  0
 24 25  1  0  0  0  0
 24 28  1  0  0  0  0
 25 29  1  0  0  0  0
 26 25  2  0  0  0  0
 27 23  1  0  0  0  0
 27 26  1  0  0  0  0
 30 26  1  0  0  0  0
 30 35  1  0  0  0  0
 31 32  1  0  0  0  0
 31 30  1  0  0  0  0
 32 33  1  0  0  0  0
 33 34  1  0  0  0  0
 34 35  1  0  0  0  0
M  END
>  <minimizedAffinity>
-5.67879295

>  <minimizedRMSD>
0.100290082

$$$$
