
 OpenBabel03252508433D

 28 30  0  0  0  0  0  0  0  0999 V2000
   44.9340   33.2650   41.9400 C   0  0  0  0  0  0  0  0  0  0  0  0
   45.8930   32.7580   41.0640 C   0  0  0  0  0  0  0  0  0  0  0  0
   45.6160   32.8120   39.7060 C   0  0  0  0  0  0  0  0  0  0  0  0
   44.4430   33.3440   39.2640 C   0  0  0  0  0  0  0  0  0  0  0  0
   43.4960   33.8440   40.1020 C   0  0  0  0  0  0  0  0  0  0  0  0
   43.7910   33.7810   41.4620 C   0  0  0  0  0  0  0  0  0  0  0  0
   46.2850   32.4440   38.9740 H   0  0  0  0  0  0  0  0  0  0  0  0
   44.1940   33.4020   38.2030 H   0  0  0  0  0  0  0  0  0  0  0  0
   42.5580   34.2770   39.8570 H   0  0  0  0  0  0  0  0  0  0  0  0
   43.0900   34.1600   42.2100 H   0  0  0  0  0  0  0  0  0  0  0  0
   45.6550   34.0720   45.5690 C   0  0  0  0  0  0  0  0  0  0  0  0
   45.3300   34.2760   44.2100 C   0  0  0  0  0  0  0  0  0  0  0  0
   45.2630   33.1850   43.3670 C   0  0  0  0  0  0  0  0  0  0  0  0
   45.5190   31.9620   43.9000 N   0  0  0  0  0  0  0  0  0  0  0  0
   45.8320   31.7770   45.2040 C   0  0  0  0  0  0  0  0  0  0  0  0
   45.9000   32.8260   46.0360 N   0  0  0  0  0  0  0  0  0  0  0  0
   45.7020   34.9440   46.2060 H   0  0  0  0  0  0  0  0  0  0  0  0
   45.1250   35.2280   43.7700 H   0  0  0  0  0  0  0  0  0  0  0  0
   46.0270   30.7820   45.5770 H   0  0  0  0  0  0  0  0  0  0  0  0
   47.1550   32.1990   41.5920 C   0  0  0  0  0  0  0  0  0  0  0  0
   47.0630   32.2150   42.7060 H   0  0  0  0  0  0  0  0  0  0  0  0
   47.1220   31.1000   41.3390 H   0  0  0  0  0  0  0  0  0  0  0  0
   48.4090   32.8170   41.1190 C   0  0  0  0  0  3  0  0  0  0  0  0
   49.4010   32.7920   42.2960 C   0  0  0  0  0  2  0  0  0  0  0  0
   50.4290   33.8740   42.1990 C   0  0  0  0  0  2  0  0  0  0  0  0
   49.7440   35.1550   42.6660 C   0  0  0  0  0  2  0  0  0  0  0  0
   48.3380   35.0960   42.1700 C   0  0  0  0  0  2  0  0  0  0  0  0
   48.1540   34.3080   40.8950 C   0  0  0  0  0  2  0  0  0  0  0  0
  1 13  1  0  0  0  0
  2 20  1  0  0  0  0
  2  1  2  0  0  0  0
  3  2  1  0  0  0  0
  4  3  2  0  0  0  0
  4  5  1  0  0  0  0
  5  6  2  0  0  0  0
  6  1  1  0  0  0  0
  6 10  1  0  0  0  0
  7  3  1  0  0  0  0
  8  4  1  0  0  0  0
  9  5  1  0  0  0  0
 11 16  1  0  0  0  0
 11 17  1  0  0  0  0
 12 11  2  0  0  0  0
 13 14  2  0  0  0  0
 13 12  1  0  0  0  0
 14 15  1  0  0  0  0
 15 19  1  0  0  0  0
 15 16  2  0  0  0  0
 18 12  1  0  0  0  0
 20 21  1  0  0  0  0
 22 20  1  0  0  0  0
 23 20  1  0  0  0  0
 23 24  1  0  0  0  0
 25 24  1  0  0  0  0
 25 26  1  0  0  0  0
 27 26  1  0  0  0  0
 28 23  1  0  0  0  0
 28 27  1  0  0  0  0
M  END
>  <minimizedAffinity>
-4.4023056

>  <minimizedRMSD>
3.24379849

$$$$
