
 OpenBabel03242523043D

 29 31  0  0  0  0  0  0  0  0999 V2000
   37.8660   31.2080   39.6130 N   0  0  0  0  0  0  0  0  0  0  0  0
   39.2230   31.2410   39.2870 C   0  0  0  0  0  0  0  0  0  0  0  0
   39.8070   32.6280   39.1770 C   0  0  0  0  0  0  0  0  0  0  0  0
   39.0160   33.7420   39.3250 N   0  0  0  0  0  0  0  0  0  0  0  0
   37.7070   33.6150   39.7930 C   0  0  0  0  0  0  0  0  0  0  0  0
   37.3790   32.3250   40.3650 C   0  0  0  0  0  0  0  0  0  0  0  0
   39.7250   30.4900   38.7050 H   0  0  0  0  0  0  0  0  0  0  0  0
   39.6680   30.9130   40.3450 H   0  0  0  0  0  0  0  0  0  0  0  0
   40.2350   32.6530   38.1180 H   0  0  0  0  0  0  0  0  0  0  0  0
   40.7230   32.7360   39.7950 H   0  0  0  0  0  0  0  0  0  0  0  0
   39.5280   34.5420   39.7040 H   0  0  0  0  0  0  0  0  0  0  0  0
   36.9580   33.8840   38.9980 H   0  0  0  0  0  0  0  0  0  0  0  0
   37.5430   34.4200   40.5740 H   0  0  0  0  0  0  0  0  0  0  0  0
   37.6480   32.2090   41.4530 H   0  0  0  0  0  0  0  0  0  0  0  0
   36.2370   32.2610   40.4080 H   0  0  0  0  0  0  0  0  0  0  0  0
   36.5860   30.1050   37.9610 C   0  0  0  0  0  0  0  0  0  0  0  0
   37.0950   30.0480   39.2890 C   0  0  0  0  0  0  0  0  0  0  0  0
   36.7440   29.0430   40.1510 C   0  0  0  0  0  0  0  0  0  0  0  0
   35.8820   28.0870   39.7210 N   0  0  0  0  0  0  0  0  0  0  0  0
   35.3800   28.1330   38.4440 C   0  0  0  0  0  0  0  0  0  0  0  0
   35.7220   29.1150   37.5770 N   0  0  0  0  0  0  0  0  0  0  0  0
   36.8520   30.8810   37.2650 H   0  0  0  0  0  0  0  0  0  0  0  0
   34.6880   27.3710   38.0930 H   0  0  0  0  0  0  0  0  0  0  0  0
   37.3460   28.8510   41.4900 C   0  0  0  0  0  3  0  0  0  0  0  0
   38.7080   28.0880   41.3100 C   0  0  0  0  0  2  0  0  0  0  0  0
   39.3090   28.1080   42.6820 C   0  0  0  0  0  2  0  0  0  0  0  0
   38.5270   27.3080   43.6560 C   0  0  0  0  0  2  0  0  0  0  0  0
   37.0520   27.5700   43.6400 C   0  0  0  0  0  2  0  0  0  0  0  0
   36.5010   27.9670   42.3190 C   0  0  0  0  0  2  0  0  0  0  0  0
  1  6  1  0  0  0  0
  2  1  1  0  0  0  0
  2  8  1  0  0  0  0
  3  2  1  0  0  0  0
  3  4  1  0  0  0  0
  3 10  1  0  0  0  0
  4 11  1  0  0  0  0
  4  5  1  0  0  0  0
  5  6  1  0  0  0  0
  5 13  1  0  0  0  0
  6 15  1  0  0  0  0
  6 14  1  0  0  0  0
  7  2  1  0  0  0  0
  9  3  1  0  0  0  0
 12  5  1  0  0  0  0
 16 17  1  0  0  0  0
 17  1  1  0  0  0  0
 17 18  2  0  0  0  0
 18 24  1  0  0  0  0
 19 18  1  0  0  0  0
 20 19  2  0  0  0  0
 21 16  2  0  0  0  0
 21 20  1  0  0  0  0
 22 16  1  0  0  0  0
 23 20  1  0  0  0  0
 24 29  1  0  0  0  0
 25 24  1  0  0  0  0
 25 26  1  0  0  0  0
 26 27  1  0  0  0  0
 28 27  1  0  0  0  0
 29 28  1  0  0  0  0
M  END
>  <minimizedAffinity>
-5.07873583

$$$$

 OpenBabel03242523043D

 29 31  0  0  0  0  0  0  0  0999 V2000
   38.0250   30.7180   40.5970 N   0  0  0  0  0  0  0  0  0  0  0  0
   39.3050   30.7690   40.0440 C   0  0  0  0  0  0  0  0  0  0  0  0
   39.4510   31.7320   38.8910 C   0  0  0  0  0  0  0  0  0  0  0  0
   38.3700   32.4320   38.4130 N   0  0  0  0  0  0  0  0  0  0  0  0
   37.1660   32.4310   39.1200 C   0  0  0  0  0  0  0  0  0  0  0  0
   37.2440   31.9120   40.4710 C   0  0  0  0  0  0  0  0  0  0  0  0
   39.9950   29.9450   40.0360 H   0  0  0  0  0  0  0  0  0  0  0  0
   39.8480   31.3930   40.9040 H   0  0  0  0  0  0  0  0  0  0  0  0
   39.8330   31.0730   38.0400 H   0  0  0  0  0  0  0  0  0  0  0  0
   40.3070   32.4240   39.0420 H   0  0  0  0  0  0  0  0  0  0  0  0
   38.6300   33.3400   38.0180 H   0  0  0  0  0  0  0  0  0  0  0  0
   36.3560   31.8970   38.5510 H   0  0  0  0  0  0  0  0  0  0  0  0
   36.7860   33.4990   39.1540 H   0  0  0  0  0  0  0  0  0  0  0  0
   37.5560   32.6660   41.2480 H   0  0  0  0  0  0  0  0  0  0  0  0
   36.1730   31.6800   40.8010 H   0  0  0  0  0  0  0  0  0  0  0  0
   38.0860   29.6050   42.6800 C   0  0  0  0  0  0  0  0  0  0  0  0
   37.6250   29.5600   41.3340 C   0  0  0  0  0  0  0  0  0  0  0  0
   36.9950   28.4560   40.8260 C   0  0  0  0  0  0  0  0  0  0  0  0
   36.8190   27.3770   41.6320 N   0  0  0  0  0  0  0  0  0  0  0  0
   37.2630   27.4050   42.9310 C   0  0  0  0  0  0  0  0  0  0  0  0
   37.8820   28.4920   43.4510 N   0  0  0  0  0  0  0  0  0  0  0  0
   38.5790   30.4640   43.1030 H   0  0  0  0  0  0  0  0  0  0  0  0
   37.1270   26.5450   43.5820 H   0  0  0  0  0  0  0  0  0  0  0  0
   36.3690   28.4000   39.4860 C   0  0  0  0  0  3  0  0  0  0  0  0
   34.9210   29.0000   39.5960 C   0  0  0  0  0  2  0  0  0  0  0  0
   34.4550   29.0640   38.1730 C   0  0  0  0  0  2  0  0  0  0  0  0
   34.2880   27.7190   37.5710 C   0  0  0  0  0  2  0  0  0  0  0  0
   35.4410   26.7870   37.7870 C   0  0  0  0  0  2  0  0  0  0  0  0
   36.1880   26.9990   39.0520 C   0  0  0  0  0  2  0  0  0  0  0  0
  1 17  1  0  0  0  0
  2  1  1  0  0  0  0
  2  8  1  0  0  0  0
  3 10  1  0  0  0  0
  3  2  1  0  0  0  0
  4  3  1  0  0  0  0
  4  5  1  0  0  0  0
  5 13  1  0  0  0  0
  5  6  1  0  0  0  0
  6  1  1  0  0  0  0
  6 15  1  0  0  0  0
  6 14  1  0  0  0  0
  7  2  1  0  0  0  0
  9  3  1  0  0  0  0
 11  4  1  0  0  0  0
 12  5  1  0  0  0  0
 16 22  1  0  0  0  0
 16 21  1  0  0  0  0
 17 16  2  0  0  0  0
 18 17  1  0  0  0  0
 18 19  2  0  0  0  0
 19 20  1  0  0  0  0
 20 21  2  0  0  0  0
 20 23  1  0  0  0  0
 24 25  1  0  0  0  0
 24 18  1  0  0  0  0
 26 25  1  0  0  0  0
 27 28  1  0  0  0  0
 27 26  1  0  0  0  0
 28 29  1  0  0  0  0
 29 24  1  0  0  0  0
M  END
>  <minimizedAffinity>
-4.85379028

$$$$

 OpenBabel03242523043D

 29 31  0  0  0  0  0  0  0  0999 V2000
   38.7720   31.2830   39.1500 N   0  0  0  0  0  0  0  0  0  0  0  0
   37.6970   31.9530   38.5630 C   0  0  0  0  0  0  0  0  0  0  0  0
   37.2500   33.1890   39.3050 C   0  0  0  0  0  0  0  0  0  0  0  0
   37.8360   33.5510   40.4940 N   0  0  0  0  0  0  0  0  0  0  0  0
   38.9970   32.9090   40.9280 C   0  0  0  0  0  0  0  0  0  0  0  0
   39.6590   32.0920   39.9310 C   0  0  0  0  0  0  0  0  0  0  0  0
   36.9350   31.4770   37.9740 H   0  0  0  0  0  0  0  0  0  0  0  0
   38.2780   32.4590   37.6510 H   0  0  0  0  0  0  0  0  0  0  0  0
   36.1460   32.9870   39.5170 H   0  0  0  0  0  0  0  0  0  0  0  0
   37.1940   34.0720   38.6330 H   0  0  0  0  0  0  0  0  0  0  0  0
   37.8280   34.5630   40.6470 H   0  0  0  0  0  0  0  0  0  0  0  0
   38.8090   32.3020   41.8560 H   0  0  0  0  0  0  0  0  0  0  0  0
   39.7160   33.7070   41.2910 H   0  0  0  0  0  0  0  0  0  0  0  0
   40.3690   32.6520   39.2580 H   0  0  0  0  0  0  0  0  0  0  0  0
   40.3800   31.4010   40.4910 H   0  0  0  0  0  0  0  0  0  0  0  0
   39.6770   29.7250   37.6230 C   0  0  0  0  0  0  0  0  0  0  0  0
   38.9830   29.9010   38.8530 C   0  0  0  0  0  0  0  0  0  0  0  0
   38.4830   28.8370   39.5560 C   0  0  0  0  0  0  0  0  0  0  0  0
   38.6520   27.5870   39.0530 N   0  0  0  0  0  0  0  0  0  0  0  0
   39.3170   27.4030   37.8660 C   0  0  0  0  0  0  0  0  0  0  0  0
   39.8230   28.4430   37.1620 N   0  0  0  0  0  0  0  0  0  0  0  0
   40.0830   30.5450   37.0560 H   0  0  0  0  0  0  0  0  0  0  0  0
   39.4550   26.4050   37.4570 H   0  0  0  0  0  0  0  0  0  0  0  0
   37.8800   28.9420   40.9030 C   0  0  0  0  0  3  0  0  0  0  0  0
   39.0430   28.9770   41.9600 C   0  0  0  0  0  2  0  0  0  0  0  0
   38.3390   29.2650   43.2510 C   0  0  0  0  0  2  0  0  0  0  0  0
   37.4480   28.1560   43.6710 C   0  0  0  0  0  2  0  0  0  0  0  0
   36.5450   27.6360   42.5950 C   0  0  0  0  0  2  0  0  0  0  0  0
   37.0920   27.7320   41.2180 C   0  0  0  0  0  2  0  0  0  0  0  0
  1  6  1  0  0  0  0
  2  1  1  0  0  0  0
  2  3  1  0  0  0  0
  3  9  1  0  0  0  0
  3  4  1  0  0  0  0
  4 11  1  0  0  0  0
  4  5  1  0  0  0  0
  5 13  1  0  0  0  0
  5 12  1  0  0  0  0
  6 15  1  0  0  0  0
  6  5  1  0  0  0  0
  7  2  1  0  0  0  0
  8  2  1  0  0  0  0
 10  3  1  0  0  0  0
 14  6  1  0  0  0  0
 16 17  1  0  0  0  0
 17  1  1  0  0  0  0
 17 18  2  0  0  0  0
 18 24  1  0  0  0  0
 19 18  1  0  0  0  0
 20 19  2  0  0  0  0
 21 16  2  0  0  0  0
 21 20  1  0  0  0  0
 22 16  1  0  0  0  0
 23 20  1  0  0  0  0
 24 29  1  0  0  0  0
 24 25  1  0  0  0  0
 25 26  1  0  0  0  0
 26 27  1  0  0  0  0
 28 27  1  0  0  0  0
 29 28  1  0  0  0  0
M  END
>  <minimizedAffinity>
-4.80170488

$$$$

 OpenBabel03242523043D

 29 31  0  0  0  0  0  0  0  0999 V2000
   38.2900   29.0030   41.9200 N   0  0  0  0  0  0  0  0  0  0  0  0
   37.6940   29.0450   43.1810 C   0  0  0  0  0  0  0  0  0  0  0  0
   37.1150   27.7300   43.6440 C   0  0  0  0  0  0  0  0  0  0  0  0
   37.1340   26.6240   42.8290 N   0  0  0  0  0  0  0  0  0  0  0  0
   37.8780   26.6350   41.6480 C   0  0  0  0  0  0  0  0  0  0  0  0
   38.8150   27.7320   41.5210 C   0  0  0  0  0  0  0  0  0  0  0  0
   37.2330   29.9180   43.6050 H   0  0  0  0  0  0  0  0  0  0  0  0
   38.6860   29.0790   43.8460 H   0  0  0  0  0  0  0  0  0  0  0  0
   36.0210   27.9800   43.8540 H   0  0  0  0  0  0  0  0  0  0  0  0
   37.4820   27.4540   44.6550 H   0  0  0  0  0  0  0  0  0  0  0  0
   37.1820   25.7470   43.3540 H   0  0  0  0  0  0  0  0  0  0  0  0
   37.2130   26.5920   40.7420 H   0  0  0  0  0  0  0  0  0  0  0  0
   38.4450   25.6540   41.5910 H   0  0  0  0  0  0  0  0  0  0  0  0
   39.8170   27.5560   42.0050 H   0  0  0  0  0  0  0  0  0  0  0  0
   39.1090   27.7930   40.4160 H   0  0  0  0  0  0  0  0  0  0  0  0
   39.4030   31.0810   41.7630 C   0  0  0  0  0  0  0  0  0  0  0  0
   38.4390   30.2140   41.1750 C   0  0  0  0  0  0  0  0  0  0  0  0
   37.6810   30.6040   40.1020 C   0  0  0  0  0  0  0  0  0  0  0  0
   37.8550   31.8530   39.6010 N   0  0  0  0  0  0  0  0  0  0  0  0
   38.7780   32.7010   40.1620 C   0  0  0  0  0  0  0  0  0  0  0  0
   39.5400   32.3300   41.2180 N   0  0  0  0  0  0  0  0  0  0  0  0
   40.0130   30.7950   42.6020 H   0  0  0  0  0  0  0  0  0  0  0  0
   38.9210   33.7040   39.7670 H   0  0  0  0  0  0  0  0  0  0  0  0
   36.7690   29.7040   39.3610 C   0  0  0  0  0  3  0  0  0  0  0  0
   36.5820   30.2820   37.9110 C   0  0  0  0  0  2  0  0  0  0  0  0
   35.8030   29.2160   37.2030 C   0  0  0  0  0  2  0  0  0  0  0  0
   34.4340   29.0550   37.7520 C   0  0  0  0  0  2  0  0  0  0  0  0
   34.3640   28.9620   39.2450 C   0  0  0  0  0  2  0  0  0  0  0  0
   35.4220   29.7100   39.9690 C   0  0  0  0  0  2  0  0  0  0  0  0
  1  2  1  0  0  0  0
  2  7  1  0  0  0  0
  2  3  1  0  0  0  0
  2  8  1  0  0  0  0
  3  9  1  0  0  0  0
  3 10  1  0  0  0  0
  4 11  1  0  0  0  0
  4  3  1  0  0  0  0
  5  4  1  0  0  0  0
  6  5  1  0  0  0  0
  6  1  1  0  0  0  0
  6 14  1  0  0  0  0
 12  5  1  0  0  0  0
 13  5  1  0  0  0  0
 15  6  1  0  0  0  0
 16 22  1  0  0  0  0
 17 16  2  0  0  0  0
 17  1  1  0  0  0  0
 18 17  1  0  0  0  0
 19 18  2  0  0  0  0
 19 20  1  0  0  0  0
 20 21  2  0  0  0  0
 21 16  1  0  0  0  0
 23 20  1  0  0  0  0
 24 29  1  0  0  0  0
 24 18  1  0  0  0  0
 25 24  1  0  0  0  0
 26 27  1  0  0  0  0
 26 25  1  0  0  0  0
 27 28  1  0  0  0  0
 28 29  1  0  0  0  0
M  END
>  <minimizedAffinity>
-4.79684401

$$$$

 OpenBabel03242523043D

 29 31  0  0  0  0  0  0  0  0999 V2000
   38.2160   29.7410   38.3070 N   0  0  0  0  0  0  0  0  0  0  0  0
   37.0340   29.8470   37.5720 C   0  0  0  0  0  0  0  0  0  0  0  0
   37.0480   29.1160   36.2520 C   0  0  0  0  0  0  0  0  0  0  0  0
   38.1790   28.4670   35.8160 N   0  0  0  0  0  0  0  0  0  0  0  0
   39.2620   28.2890   36.6780 C   0  0  0  0  0  0  0  0  0  0  0  0
   38.9880   28.5570   38.0760 C   0  0  0  0  0  0  0  0  0  0  0  0
   36.3660   30.6880   37.6180 H   0  0  0  0  0  0  0  0  0  0  0  0
   36.3570   29.1010   38.2140 H   0  0  0  0  0  0  0  0  0  0  0  0
   36.8100   29.9340   35.4920 H   0  0  0  0  0  0  0  0  0  0  0  0
   36.1690   28.4450   36.1460 H   0  0  0  0  0  0  0  0  0  0  0  0
   37.9670   27.6590   35.2260 H   0  0  0  0  0  0  0  0  0  0  0  0
   40.1570   28.8810   36.3430 H   0  0  0  0  0  0  0  0  0  0  0  0
   39.6150   27.2170   36.5680 H   0  0  0  0  0  0  0  0  0  0  0  0
   38.5500   27.6890   38.6460 H   0  0  0  0  0  0  0  0  0  0  0  0
   40.0000   28.6780   38.5960 H   0  0  0  0  0  0  0  0  0  0  0  0
   38.8120   31.9910   38.7100 C   0  0  0  0  0  0  0  0  0  0  0  0
   38.5180   30.7270   39.2960 C   0  0  0  0  0  0  0  0  0  0  0  0
   38.6550   30.5090   40.6410 C   0  0  0  0  0  0  0  0  0  0  0  0
   39.0920   31.5270   41.4250 N   0  0  0  0  0  0  0  0  0  0  0  0
   39.3830   32.7490   40.8730 C   0  0  0  0  0  0  0  0  0  0  0  0
   39.2460   32.9840   39.5460 N   0  0  0  0  0  0  0  0  0  0  0  0
   38.7060   32.1870   37.6570 H   0  0  0  0  0  0  0  0  0  0  0  0
   39.7350   33.5700   41.4940 H   0  0  0  0  0  0  0  0  0  0  0  0
   38.2330   29.2680   41.3280 C   0  0  0  0  0  3  0  0  0  0  0  0
   36.6650   29.2800   41.4430 C   0  0  0  0  0  2  0  0  0  0  0  0
   36.3390   27.9190   41.9780 C   0  0  0  0  0  2  0  0  0  0  0  0
   36.8410   27.7170   43.3590 C   0  0  0  0  0  2  0  0  0  0  0  0
   38.2680   28.1220   43.5720 C   0  0  0  0  0  2  0  0  0  0  0  0
   38.7340   29.2430   42.7170 C   0  0  0  0  0  2  0  0  0  0  0  0
  1 17  1  0  0  0  0
  2  7  1  0  0  0  0
  2  8  1  0  0  0  0
  2  1  1  0  0  0  0
  3  2  1  0  0  0  0
  4  3  1  0  0  0  0
  4  5  1  0  0  0  0
  5  6  1  0  0  0  0
  6  1  1  0  0  0  0
  6 15  1  0  0  0  0
  6 14  1  0  0  0  0
  9  3  1  0  0  0  0
 10  3  1  0  0  0  0
 11  4  1  0  0  0  0
 12  5  1  0  0  0  0
 13  5  1  0  0  0  0
 16 17  2  0  0  0  0
 16 21  1  0  0  0  0
 17 18  1  0  0  0  0
 18 24  1  0  0  0  0
 18 19  2  0  0  0  0
 20 19  1  0  0  0  0
 20 23  1  0  0  0  0
 21 20  2  0  0  0  0
 22 16  1  0  0  0  0
 24 25  1  0  0  0  0
 24 29  1  0  0  0  0
 25 26  1  0  0  0  0
 26 27  1  0  0  0  0
 27 28  1  0  0  0  0
 29 28  1  0  0  0  0
M  END
>  <minimizedAffinity>
-4.79296017

$$$$

 OpenBabel03242523043D

 29 31  0  0  0  0  0  0  0  0999 V2000
   38.6510   31.2250   40.1480 N   0  0  0  0  0  0  0  0  0  0  0  0
   37.7220   32.2160   40.4660 C   0  0  0  0  0  0  0  0  0  0  0  0
   37.1530   32.9470   39.2740 C   0  0  0  0  0  0  0  0  0  0  0  0
   37.5930   32.6730   38.0010 N   0  0  0  0  0  0  0  0  0  0  0  0
   38.4130   31.5690   37.7650 C   0  0  0  0  0  0  0  0  0  0  0  0
   38.5010   30.6210   38.8580 C   0  0  0  0  0  0  0  0  0  0  0  0
   37.7230   32.7770   41.3830 H   0  0  0  0  0  0  0  0  0  0  0  0
   36.7960   31.5130   40.7380 H   0  0  0  0  0  0  0  0  0  0  0  0
   37.3980   34.0410   39.4910 H   0  0  0  0  0  0  0  0  0  0  0  0
   36.0430   32.9560   39.2910 H   0  0  0  0  0  0  0  0  0  0  0  0
   36.8720   32.8270   37.2920 H   0  0  0  0  0  0  0  0  0  0  0  0
   39.4450   31.8830   37.4470 H   0  0  0  0  0  0  0  0  0  0  0  0
   38.0170   31.0380   36.8450 H   0  0  0  0  0  0  0  0  0  0  0  0
   37.6800   29.8500   38.8820 H   0  0  0  0  0  0  0  0  0  0  0  0
   39.4180   29.9650   38.6580 H   0  0  0  0  0  0  0  0  0  0  0  0
   40.7400   31.6440   41.1680 C   0  0  0  0  0  0  0  0  0  0  0  0
   39.5920   30.8030   41.1380 C   0  0  0  0  0  0  0  0  0  0  0  0
   39.5150   29.6640   41.8950 C   0  0  0  0  0  0  0  0  0  0  0  0
   40.5690   29.3330   42.6840 N   0  0  0  0  0  0  0  0  0  0  0  0
   41.6840   30.1330   42.7200 C   0  0  0  0  0  0  0  0  0  0  0  0
   41.7740   31.2660   41.9830 N   0  0  0  0  0  0  0  0  0  0  0  0
   40.8210   32.5460   40.5870 H   0  0  0  0  0  0  0  0  0  0  0  0
   42.5320   29.8740   43.3490 H   0  0  0  0  0  0  0  0  0  0  0  0
   38.2990   28.8290   42.0150 C   0  0  0  0  0  3  0  0  0  0  0  0
   38.2100   28.3000   43.4930 C   0  0  0  0  0  2  0  0  0  0  0  0
   36.8710   27.6310   43.5490 C   0  0  0  0  0  2  0  0  0  0  0  0
   36.8030   26.4250   42.6870 C   0  0  0  0  0  2  0  0  0  0  0  0
   37.3210   26.6210   41.2950 C   0  0  0  0  0  2  0  0  0  0  0  0
   38.4080   27.6240   41.1670 C   0  0  0  0  0  2  0  0  0  0  0  0
  1  2  1  0  0  0  0
  1 17  1  0  0  0  0
  2  8  1  0  0  0  0
  2  7  1  0  0  0  0
  3 10  1  0  0  0  0
  3  9  1  0  0  0  0
  3  2  1  0  0  0  0
  4  3  1  0  0  0  0
  5  4  1  0  0  0  0
  5  6  1  0  0  0  0
  6 14  1  0  0  0  0
  6  1  1  0  0  0  0
 11  4  1  0  0  0  0
 12  5  1  0  0  0  0
 13  5  1  0  0  0  0
 15  6  1  0  0  0  0
 16 21  1  0  0  0  0
 17 16  2  0  0  0  0
 17 18  1  0  0  0  0
 18 24  1  0  0  0  0
 18 19  2  0  0  0  0
 19 20  1  0  0  0  0
 20 23  1  0  0  0  0
 21 20  2  0  0  0  0
 22 16  1  0  0  0  0
 24 25  1  0  0  0  0
 25 26  1  0  0  0  0
 27 26  1  0  0  0  0
 28 27  1  0  0  0  0
 29 28  1  0  0  0  0
 29 24  1  0  0  0  0
M  END
>  <minimizedAffinity>
-4.75195742

$$$$

 OpenBabel03242523043D

 29 31  0  0  0  0  0  0  0  0999 V2000
   36.3570   29.0970   40.2650 N   0  0  0  0  0  0  0  0  0  0  0  0
   37.1390   29.7630   39.3200 C   0  0  0  0  0  0  0  0  0  0  0  0
   36.4860   29.9260   37.9690 C   0  0  0  0  0  0  0  0  0  0  0  0
   35.2480   29.3870   37.7130 N   0  0  0  0  0  0  0  0  0  0  0  0
   34.4800   28.8680   38.7560 C   0  0  0  0  0  0  0  0  0  0  0  0
   34.9400   29.2060   40.0880 C   0  0  0  0  0  0  0  0  0  0  0  0
   38.2140   29.7510   39.3060 H   0  0  0  0  0  0  0  0  0  0  0  0
   37.0220   30.8740   39.7410 H   0  0  0  0  0  0  0  0  0  0  0  0
   37.2270   29.4320   37.2540 H   0  0  0  0  0  0  0  0  0  0  0  0
   36.5110   30.9820   37.6270 H   0  0  0  0  0  0  0  0  0  0  0  0
   34.7190   29.9240   37.0210 H   0  0  0  0  0  0  0  0  0  0  0  0
   34.3590   27.7540   38.6640 H   0  0  0  0  0  0  0  0  0  0  0  0
   33.4190   29.2470   38.6230 H   0  0  0  0  0  0  0  0  0  0  0  0
   34.5740   30.1980   40.4770 H   0  0  0  0  0  0  0  0  0  0  0  0
   34.4290   28.4800   40.8110 H   0  0  0  0  0  0  0  0  0  0  0  0
   37.3690   29.4100   42.3770 C   0  0  0  0  0  0  0  0  0  0  0  0
   36.9910   28.4670   41.3810 C   0  0  0  0  0  0  0  0  0  0  0  0
   37.3390   27.1450   41.4720 C   0  0  0  0  0  0  0  0  0  0  0  0
   38.0710   26.7370   42.5410 N   0  0  0  0  0  0  0  0  0  0  0  0
   38.4450   27.6370   43.5070 C   0  0  0  0  0  0  0  0  0  0  0  0
   38.1040   28.9460   43.4350 N   0  0  0  0  0  0  0  0  0  0  0  0
   37.1020   30.4520   42.3290 H   0  0  0  0  0  0  0  0  0  0  0  0
   39.0320   27.3180   44.3650 H   0  0  0  0  0  0  0  0  0  0  0  0
   36.8580   26.0940   40.5480 C   0  0  0  0  0  3  0  0  0  0  0  0
   36.8520   24.7260   41.3210 C   0  0  0  0  0  2  0  0  0  0  0  0
   36.1860   23.7830   40.3650 C   0  0  0  0  0  2  0  0  0  0  0  0
   36.9950   23.5490   39.1440 C   0  0  0  0  0  2  0  0  0  0  0  0
   37.5230   24.7930   38.4950 C   0  0  0  0  0  2  0  0  0  0  0  0
   37.8040   25.9140   39.4270 C   0  0  0  0  0  2  0  0  0  0  0  0
  1 17  1  0  0  0  0
  2  8  1  0  0  0  0
  2  1  1  0  0  0  0
  3  2  1  0  0  0  0
  4  3  1  0  0  0  0
  4  5  1  0  0  0  0
  5  6  1  0  0  0  0
  6  1  1  0  0  0  0
  6 14  1  0  0  0  0
  6 15  1  0  0  0  0
  7  2  1  0  0  0  0
  9  3  1  0  0  0  0
 10  3  1  0  0  0  0
 11  4  1  0  0  0  0
 12  5  1  0  0  0  0
 13  5  1  0  0  0  0
 16 21  1  0  0  0  0
 17 18  1  0  0  0  0
 17 16  2  0  0  0  0
 18 19  2  0  0  0  0
 19 20  1  0  0  0  0
 20 23  1  0  0  0  0
 21 20  2  0  0  0  0
 22 16  1  0  0  0  0
 24 25  1  0  0  0  0
 24 18  1  0  0  0  0
 26 25  1  0  0  0  0
 27 26  1  0  0  0  0
 28 27  1  0  0  0  0
 28 29  1  0  0  0  0
 29 24  1  0  0  0  0
M  END
>  <minimizedAffinity>
-4.55003786

$$$$

 OpenBabel03242523043D

 29 31  0  0  0  0  0  0  0  0999 V2000
   37.4180   28.4700   38.8750 N   0  0  0  0  0  0  0  0  0  0  0  0
   36.2720   28.9150   38.2120 C   0  0  0  0  0  0  0  0  0  0  0  0
   36.4760   29.2250   36.7490 C   0  0  0  0  0  0  0  0  0  0  0  0
   37.7190   29.1290   36.1730 N   0  0  0  0  0  0  0  0  0  0  0  0
   38.7720   28.5370   36.8710 C   0  0  0  0  0  0  0  0  0  0  0  0
   38.3880   27.8030   38.0600 C   0  0  0  0  0  0  0  0  0  0  0  0
   35.4710   29.4550   38.6830 H   0  0  0  0  0  0  0  0  0  0  0  0
   35.7000   27.8710   38.1240 H   0  0  0  0  0  0  0  0  0  0  0  0
   36.1420   30.3140   36.6590 H   0  0  0  0  0  0  0  0  0  0  0  0
   35.7280   28.7050   36.1130 H   0  0  0  0  0  0  0  0  0  0  0  0
   37.6760   28.8840   35.1800 H   0  0  0  0  0  0  0  0  0  0  0  0
   39.5710   29.2870   37.1260 H   0  0  0  0  0  0  0  0  0  0  0  0
   39.3060   27.8350   36.1580 H   0  0  0  0  0  0  0  0  0  0  0  0
   38.0750   26.7360   37.8750 H   0  0  0  0  0  0  0  0  0  0  0  0
   39.3390   27.6530   38.6810 H   0  0  0  0  0  0  0  0  0  0  0  0
   37.1580   27.3850   40.9570 C   0  0  0  0  0  0  0  0  0  0  0  0
   37.5000   28.5980   40.2960 C   0  0  0  0  0  0  0  0  0  0  0  0
   37.7380   29.7540   40.9920 C   0  0  0  0  0  0  0  0  0  0  0  0
   37.6350   29.7320   42.3460 N   0  0  0  0  0  0  0  0  0  0  0  0
   37.3020   28.5690   42.9950 C   0  0  0  0  0  0  0  0  0  0  0  0
   37.0700   27.4170   42.3230 N   0  0  0  0  0  0  0  0  0  0  0  0
   36.9720   26.4640   40.4310 H   0  0  0  0  0  0  0  0  0  0  0  0
   37.2170   28.5440   44.0790 H   0  0  0  0  0  0  0  0  0  0  0  0
   38.2340   31.0050   40.3770 C   0  0  0  0  0  3  0  0  0  0  0  0
   39.2150   31.6960   41.3920 C   0  0  0  0  0  2  0  0  0  0  0  0
   39.7890   32.8370   40.6090 C   0  0  0  0  0  2  0  0  0  0  0  0
   38.7710   33.8630   40.2740 C   0  0  0  0  0  2  0  0  0  0  0  0
   37.4980   33.3190   39.7010 C   0  0  0  0  0  2  0  0  0  0  0  0
   37.1260   31.9630   40.1790 C   0  0  0  0  0  2  0  0  0  0  0  0
  1 17  1  0  0  0  0
  2  7  1  0  0  0  0
  2  1  1  0  0  0  0
  3  2  1  0  0  0  0
  4  3  1  0  0  0  0
  4  5  1  0  0  0  0
  5 12  1  0  0  0  0
  5  6  1  0  0  0  0
  6 15  1  0  0  0  0
  6  1  1  0  0  0  0
  8  2  1  0  0  0  0
  9  3  1  0  0  0  0
 10  3  1  0  0  0  0
 11  4  1  0  0  0  0
 13  5  1  0  0  0  0
 14  6  1  0  0  0  0
 16 21  1  0  0  0  0
 17 16  2  0  0  0  0
 17 18  1  0  0  0  0
 18 19  2  0  0  0  0
 19 20  1  0  0  0  0
 20 23  1  0  0  0  0
 21 20  2  0  0  0  0
 22 16  1  0  0  0  0
 24 18  1  0  0  0  0
 24 25  1  0  0  0  0
 26 25  1  0  0  0  0
 27 26  1  0  0  0  0
 28 29  1  0  0  0  0
 28 27  1  0  0  0  0
 29 24  1  0  0  0  0
M  END
>  <minimizedAffinity>
-4.54681063

$$$$

 OpenBabel03242523043D

 29 31  0  0  0  0  0  0  0  0999 V2000
   38.6370   29.8950   38.4220 N   0  0  0  0  0  0  0  0  0  0  0  0
   39.6380   29.0090   38.0200 C   0  0  0  0  0  0  0  0  0  0  0  0
   40.8360   29.6660   37.3800 C   0  0  0  0  0  0  0  0  0  0  0  0
   40.8680   31.0240   37.1670 N   0  0  0  0  0  0  0  0  0  0  0  0
   39.8920   31.8450   37.7330 C   0  0  0  0  0  0  0  0  0  0  0  0
   39.0730   31.2190   38.7510 C   0  0  0  0  0  0  0  0  0  0  0  0
   39.4620   27.9930   37.7160 H   0  0  0  0  0  0  0  0  0  0  0  0
   40.0920   28.7530   39.0940 H   0  0  0  0  0  0  0  0  0  0  0  0
   40.9030   29.1600   36.3580 H   0  0  0  0  0  0  0  0  0  0  0  0
   41.7850   29.3410   37.8570 H   0  0  0  0  0  0  0  0  0  0  0  0
   41.8170   31.4060   37.1990 H   0  0  0  0  0  0  0  0  0  0  0  0
   39.2360   32.3070   36.9450 H   0  0  0  0  0  0  0  0  0  0  0  0
   40.4170   32.7450   38.1810 H   0  0  0  0  0  0  0  0  0  0  0  0
   39.5130   31.2380   39.7880 H   0  0  0  0  0  0  0  0  0  0  0  0
   38.1480   31.8800   38.8880 H   0  0  0  0  0  0  0  0  0  0  0  0
   36.4990   29.6760   37.4420 C   0  0  0  0  0  0  0  0  0  0  0  0
   37.3010   29.4140   38.5880 C   0  0  0  0  0  0  0  0  0  0  0  0
   36.7680   28.8850   39.7340 C   0  0  0  0  0  0  0  0  0  0  0  0
   35.4380   28.6150   39.7690 N   0  0  0  0  0  0  0  0  0  0  0  0
   34.6520   28.8660   38.6720 C   0  0  0  0  0  0  0  0  0  0  0  0
   35.1640   29.3830   37.5300 N   0  0  0  0  0  0  0  0  0  0  0  0
   36.8960   30.0860   36.5300 H   0  0  0  0  0  0  0  0  0  0  0  0
   33.5860   28.6530   38.6940 H   0  0  0  0  0  0  0  0  0  0  0  0
   37.5700   28.4610   40.9030 C   0  0  0  0  0  3  0  0  0  0  0  0
   36.9050   27.1750   41.5140 C   0  0  0  0  0  2  0  0  0  0  0  0
   37.8830   26.7330   42.5590 C   0  0  0  0  0  2  0  0  0  0  0  0
   37.9910   27.6990   43.6800 C   0  0  0  0  0  2  0  0  0  0  0  0
   38.1600   29.1280   43.2610 C   0  0  0  0  0  2  0  0  0  0  0  0
   37.5170   29.4820   41.9700 C   0  0  0  0  0  2  0  0  0  0  0  0
  1 17  1  0  0  0  0
  1  6  1  0  0  0  0
  2  1  1  0  0  0  0
  2  8  1  0  0  0  0
  3 10  1  0  0  0  0
  3  2  1  0  0  0  0
  4 11  1  0  0  0  0
  4  3  1  0  0  0  0
  4  5  1  0  0  0  0
  5 13  1  0  0  0  0
  5  6  1  0  0  0  0
  6 15  1  0  0  0  0
  6 14  1  0  0  0  0
  7  2  1  0  0  0  0
  9  3  1  0  0  0  0
 12  5  1  0  0  0  0
 16 21  2  0  0  0  0
 16 17  1  0  0  0  0
 17 18  2  0  0  0  0
 18 19  1  0  0  0  0
 18 24  1  0  0  0  0
 20 23  1  0  0  0  0
 20 19  2  0  0  0  0
 21 20  1  0  0  0  0
 22 16  1  0  0  0  0
 24 25  1  0  0  0  0
 24 29  1  0  0  0  0
 25 26  1  0  0  0  0
 26 27  1  0  0  0  0
 28 27  1  0  0  0  0
 29 28  1  0  0  0  0
M  END
>  <minimizedAffinity>
-4.53255796

$$$$
