
 OpenBabel03242516573D

 25 27  0  0  0  0  0  0  0  0999 V2000
   46.6980   34.7860   42.0330 C   0  0  0  0  0  0  0  0  0  0  0  0
   47.9750   35.2730   41.9900 C   0  0  0  0  0  0  0  0  0  0  0  0
   48.7190   35.1530   40.8380 C   0  0  0  0  0  0  0  0  0  0  0  0
   48.1500   34.5390   39.7480 C   0  0  0  0  0  0  0  0  0  0  0  0
   46.8680   34.0350   39.7470 C   0  0  0  0  0  0  0  0  0  0  0  0
   46.1420   34.1750   40.9370 C   0  0  0  0  0  0  0  0  0  0  0  0
   48.4520   35.7610   42.8290 H   0  0  0  0  0  0  0  0  0  0  0  0
   49.7300   35.5240   40.7670 H   0  0  0  0  0  0  0  0  0  0  0  0
   48.6750   34.4070   38.8020 H   0  0  0  0  0  0  0  0  0  0  0  0
   46.4130   33.5560   38.9110 H   0  0  0  0  0  0  0  0  0  0  0  0
   44.4650   36.1210   44.7910 C   0  0  0  0  0  0  0  0  0  0  0  0
   45.1300   36.0480   43.5480 C   0  0  0  0  0  0  0  0  0  0  0  0
   45.9660   34.9510   43.2920 C   0  0  0  0  0  0  0  0  0  0  0  0
   46.0850   34.0220   44.2600 N   0  0  0  0  0  0  0  0  0  0  0  0
   45.4420   34.1020   45.4480 C   0  0  0  0  0  0  0  0  0  0  0  0
   44.6330   35.1480   45.7160 N   0  0  0  0  0  0  0  0  0  0  0  0
   43.8520   37.0070   44.8720 H   0  0  0  0  0  0  0  0  0  0  0  0
   45.0240   36.8030   42.7830 H   0  0  0  0  0  0  0  0  0  0  0  0
   45.5700   33.3220   46.2040 H   0  0  0  0  0  0  0  0  0  0  0  0
   44.7450   33.6810   41.0890 C   0  0  0  0  0  0  0  0  0  0  0  0
   43.7210   34.5990   40.4710 C   0  0  0  0  0  0  0  0  0  0  0  0
   42.6580   33.8500   39.7190 C   0  0  0  0  0  0  0  0  0  0  0  0
   42.2400   32.5580   40.3690 C   0  0  0  0  0  0  0  0  0  0  0  0
   43.3650   31.6350   40.7050 C   0  0  0  0  0  0  0  0  0  0  0  0
   44.6760   32.3300   40.4080 C   0  0  0  0  0  0  0  0  0  0  0  0
  1 13  1  0  0  0  0
  2  1  1  0  0  0  0
  2  7  1  0  0  0  0
  3  2  2  0  0  0  0
  4  3  1  0  0  0  0
  5  4  2  0  0  0  0
  5  6  1  0  0  0  0
  6 20  1  0  0  0  0
  6  1  2  0  0  0  0
  8  3  1  0  0  0  0
  9  4  1  0  0  0  0
 10  5  1  0  0  0  0
 11 17  1  0  0  0  0
 11 16  1  0  0  0  0
 12 11  2  0  0  0  0
 13 12  1  0  0  0  0
 13 14  2  0  0  0  0
 14 15  1  0  0  0  0
 15 16  2  0  0  0  0
 15 19  1  0  0  0  0
 18 12  1  0  0  0  0
 21 20  1  0  0  0  0
 22 23  1  0  0  0  0
 22 21  1  0  0  0  0
 23 24  1  0  0  0  0
 25 24  1  0  0  0  0
 25 20  1  0  0  0  0
M  END
>  <minimizedAffinity>
-5.63184452

>  <minimizedRMSD>
0.75773114

$$$$
