
 OpenBabel03242517463D

 34 37  0  0  0  0  0  0  0  0999 V2000
   37.2650   28.1730   40.8300 C   0  0  0  0  0  0  0  0  0  0  0  0
   36.9400   27.0080   41.5050 C   0  0  0  0  0  0  0  0  0  0  0  0
   36.9590   26.9740   42.8910 C   0  0  0  0  0  0  0  0  0  0  0  0
   37.2980   28.0870   43.6230 C   0  0  0  0  0  0  0  0  0  0  0  0
   37.6170   29.2350   42.9470 C   0  0  0  0  0  0  0  0  0  0  0  0
   37.6080   29.3040   41.5620 C   0  0  0  0  0  0  0  0  0  0  0  0
   36.6730   26.1260   40.9210 H   0  0  0  0  0  0  0  0  0  0  0  0
   36.7030   26.0550   43.3970 H   0  0  0  0  0  0  0  0  0  0  0  0
   37.3000   28.0220   44.7050 H   0  0  0  0  0  0  0  0  0  0  0  0
   37.8790   30.1000   43.5570 H   0  0  0  0  0  0  0  0  0  0  0  0
   37.9550   30.5500   40.8670 C   0  0  0  0  0  0  0  0  0  0  0  0
   37.0640   31.5380   40.5740 C   0  0  0  0  0  0  0  0  0  0  0  0
   37.4340   32.7120   39.9090 C   0  0  0  0  0  0  0  0  0  0  0  0
   38.7090   32.8770   39.5460 N   0  0  0  0  0  0  0  0  0  0  0  0
   39.5860   31.8890   39.8410 C   0  0  0  0  0  0  0  0  0  0  0  0
   39.2360   30.7610   40.4790 N   0  0  0  0  0  0  0  0  0  0  0  0
   36.0340   31.3800   40.8800 H   0  0  0  0  0  0  0  0  0  0  0  0
   36.6330   33.4200   39.7350 H   0  0  0  0  0  0  0  0  0  0  0  0
   40.6430   31.9380   39.5840 H   0  0  0  0  0  0  0  0  0  0  0  0
   37.2710   28.3170   39.0760 S   0  0  0  0  0  0  0  0  0  0  0  0
   34.6050   28.9970   39.3750 C   0  0  0  0  0  0  0  0  0  0  0  0
   35.6350   28.6580   38.4740 C   0  0  0  0  0  0  0  0  0  0  0  0
   35.3330   28.6010   37.1310 C   0  0  0  0  0  0  0  0  0  0  0  0
   34.0540   28.8760   36.7470 N   0  0  0  0  0  0  0  0  0  0  0  0
   33.0930   29.1960   37.6360 C   0  0  0  0  0  0  0  0  0  0  0  0
   33.3450   29.2600   38.9320 N   0  0  0  0  0  0  0  0  0  0  0  0
   34.8010   29.0530   40.4540 H   0  0  0  0  0  0  0  0  0  0  0  0
   36.1030   28.3460   36.4400 H   0  0  0  0  0  0  0  0  0  0  0  0
   31.7090   29.4880   37.1670 C   0  0  0  0  0  3  0  0  0  0  0  0
   30.9250   30.0650   38.3140 C   0  0  0  0  0  2  0  0  0  0  0  0
   29.6200   30.6780   37.8840 C   0  0  0  0  0  2  0  0  0  0  0  0
   29.9770   31.7760   36.8890 C   0  0  0  0  0  2  0  0  0  0  0  0
   30.4680   31.0540   35.6450 C   0  0  0  0  0  2  0  0  0  0  0  0
   31.7600   30.3830   35.9680 C   0  0  0  0  0  2  0  0  0  0  0  0
  1  2  2  0  0  0  0
  1  6  1  0  0  0  0
  2  3  1  0  0  0  0
  3  8  1  0  0  0  0
  3  4  2  0  0  0  0
  4  9  1  0  0  0  0
  5 10  1  0  0  0  0
  5  4  1  0  0  0  0
  6  5  2  0  0  0  0
  7  2  1  0  0  0  0
 11  6  1  0  0  0  0
 12 11  1  0  0  0  0
 12 17  1  0  0  0  0
 13 12  2  0  0  0  0
 14 15  2  0  0  0  0
 14 13  1  0  0  0  0
 15 16  1  0  0  0  0
 16 11  2  0  0  0  0
 18 13  1  0  0  0  0
 19 15  1  0  0  0  0
 20  1  1  0  0  0  0
 21 27  1  0  0  0  0
 22 20  1  0  0  0  0
 22 21  2  0  0  0  0
 23 22  1  0  0  0  0
 24 23  2  0  0  0  0
 24 25  1  0  0  0  0
 25 26  2  0  0  0  0
 26 21  1  0  0  0  0
 28 23  1  0  0  0  0
 29 25  1  0  0  0  0
 29 30  1  0  0  0  0
 31 30  1  0  0  0  0
 32 31  1  0  0  0  0
 33 34  1  0  0  0  0
 33 32  1  0  0  0  0
 34 29  1  0  0  0  0
M  END
>  <minimizedAffinity>
-6.04731178

$$$$

 OpenBabel03242517463D

 34 37  0  0  0  0  0  0  0  0999 V2000
   36.5580   26.2020   39.4690 C   0  0  0  0  0  0  0  0  0  0  0  0
   36.0170   25.1940   38.6880 C   0  0  0  0  0  0  0  0  0  0  0  0
   35.8940   23.9080   39.1920 C   0  0  0  0  0  0  0  0  0  0  0  0
   36.3030   23.6050   40.4690 C   0  0  0  0  0  0  0  0  0  0  0  0
   36.8370   24.6080   41.2350 C   0  0  0  0  0  0  0  0  0  0  0  0
   36.9740   25.9050   40.7620 C   0  0  0  0  0  0  0  0  0  0  0  0
   35.6940   25.4380   37.6750 H   0  0  0  0  0  0  0  0  0  0  0  0
   35.4710   23.1370   38.5670 H   0  0  0  0  0  0  0  0  0  0  0  0
   36.1900   22.5880   40.8290 H   0  0  0  0  0  0  0  0  0  0  0  0
   37.1500   24.3350   42.2430 H   0  0  0  0  0  0  0  0  0  0  0  0
   37.5490   26.9580   41.6070 C   0  0  0  0  0  0  0  0  0  0  0  0
   36.8360   27.7010   42.4990 C   0  0  0  0  0  0  0  0  0  0  0  0
   37.4220   28.6970   43.2880 C   0  0  0  0  0  0  0  0  0  0  0  0
   38.7310   28.9340   43.1670 N   0  0  0  0  0  0  0  0  0  0  0  0
   39.4310   28.1910   42.2770 C   0  0  0  0  0  0  0  0  0  0  0  0
   38.8730   27.2330   41.5180 N   0  0  0  0  0  0  0  0  0  0  0  0
   35.7740   27.4890   42.5800 H   0  0  0  0  0  0  0  0  0  0  0  0
   36.7470   29.2160   43.9580 H   0  0  0  0  0  0  0  0  0  0  0  0
   40.5000   28.3150   42.1120 H   0  0  0  0  0  0  0  0  0  0  0  0
   36.7570   27.8630   38.9220 S   0  0  0  0  0  0  0  0  0  0  0  0
   34.1580   28.7850   38.6870 C   0  0  0  0  0  0  0  0  0  0  0  0
   35.3280   28.3910   38.0080 C   0  0  0  0  0  0  0  0  0  0  0  0
   35.3260   28.4290   36.6300 C   0  0  0  0  0  0  0  0  0  0  0  0
   34.1900   28.8470   36.0000 N   0  0  0  0  0  0  0  0  0  0  0  0
   33.0890   29.2160   36.6820 C   0  0  0  0  0  0  0  0  0  0  0  0
   33.0540   29.1930   38.0030 N   0  0  0  0  0  0  0  0  0  0  0  0
   34.1160   28.7700   39.7840 H   0  0  0  0  0  0  0  0  0  0  0  0
   36.2040   28.1330   36.1050 H   0  0  0  0  0  0  0  0  0  0  0  0
   31.8720   29.6640   35.9480 C   0  0  0  0  0  3  0  0  0  0  0  0
   31.0480   30.5280   36.8650 C   0  0  0  0  0  2  0  0  0  0  0  0
   29.9640   31.2810   36.1450 C   0  0  0  0  0  2  0  0  0  0  0  0
   30.6680   32.1460   35.1070 C   0  0  0  0  0  2  0  0  0  0  0  0
   31.1940   31.1770   34.0600 C   0  0  0  0  0  2  0  0  0  0  0  0
   32.2710   30.3530   34.6800 C   0  0  0  0  0  2  0  0  0  0  0  0
  1  6  1  0  0  0  0
  2  3  1  0  0  0  0
  2  1  2  0  0  0  0
  3  4  2  0  0  0  0
  4  9  1  0  0  0  0
  4  5  1  0  0  0  0
  5 10  1  0  0  0  0
  6  5  2  0  0  0  0
  6 11  1  0  0  0  0
  7  2  1  0  0  0  0
  8  3  1  0  0  0  0
 11 12  1  0  0  0  0
 12 17  1  0  0  0  0
 12 13  2  0  0  0  0
 13 18  1  0  0  0  0
 14 13  1  0  0  0  0
 15 14  2  0  0  0  0
 16 11  2  0  0  0  0
 16 15  1  0  0  0  0
 19 15  1  0  0  0  0
 20  1  1  0  0  0  0
 21 27  1  0  0  0  0
 22 21  1  0  0  0  0
 22 20  1  0  0  0  0
 23 22  2  0  0  0  0
 24 23  1  0  0  0  0
 24 25  2  0  0  0  0
 25 26  1  0  0  0  0
 26 21  2  0  0  0  0
 28 23  1  0  0  0  0
 29 25  1  0  0  0  0
 29 30  1  0  0  0  0
 31 30  1  0  0  0  0
 32 31  1  0  0  0  0
 33 34  1  0  0  0  0
 33 32  1  0  0  0  0
 34 29  1  0  0  0  0
M  END
>  <minimizedAffinity>
-5.79658079

$$$$

 OpenBabel03242517463D

 34 37  0  0  0  0  0  0  0  0999 V2000
   36.1590   29.9180   38.7250 C   0  0  0  0  0  0  0  0  0  0  0  0
   35.4970   28.9950   37.9310 C   0  0  0  0  0  0  0  0  0  0  0  0
   35.7260   28.9570   36.5640 C   0  0  0  0  0  0  0  0  0  0  0  0
   36.6080   29.8270   35.9680 C   0  0  0  0  0  0  0  0  0  0  0  0
   37.2580   30.7360   36.7600 C   0  0  0  0  0  0  0  0  0  0  0  0
   37.0530   30.8020   38.1300 C   0  0  0  0  0  0  0  0  0  0  0  0
   34.7970   28.3070   38.4070 H   0  0  0  0  0  0  0  0  0  0  0  0
   35.1990   28.2310   35.9630 H   0  0  0  0  0  0  0  0  0  0  0  0
   36.7610   29.7660   34.8960 H   0  0  0  0  0  0  0  0  0  0  0  0
   37.9510   31.4100   36.2570 H   0  0  0  0  0  0  0  0  0  0  0  0
   37.7650   31.7870   38.9530 C   0  0  0  0  0  0  0  0  0  0  0  0
   37.2710   33.0130   39.2810 C   0  0  0  0  0  0  0  0  0  0  0  0
   37.9820   33.9250   40.0690 C   0  0  0  0  0  0  0  0  0  0  0  0
   39.1920   33.5860   40.5210 N   0  0  0  0  0  0  0  0  0  0  0  0
   39.6750   32.3650   40.1890 C   0  0  0  0  0  0  0  0  0  0  0  0
   38.9960   31.4860   39.4330 N   0  0  0  0  0  0  0  0  0  0  0  0
   36.2850   33.2650   38.9020 H   0  0  0  0  0  0  0  0  0  0  0  0
   37.4800   34.8660   40.2580 H   0  0  0  0  0  0  0  0  0  0  0  0
   40.6500   32.0050   40.5120 H   0  0  0  0  0  0  0  0  0  0  0  0
   35.9370   30.0470   40.4660 S   0  0  0  0  0  0  0  0  0  0  0  0
   37.8380   28.0520   40.7360 C   0  0  0  0  0  0  0  0  0  0  0  0
   37.2300   29.1810   41.3220 C   0  0  0  0  0  0  0  0  0  0  0  0
   37.6690   29.5850   42.5650 C   0  0  0  0  0  0  0  0  0  0  0  0
   38.6670   28.8690   43.1580 N   0  0  0  0  0  0  0  0  0  0  0  0
   39.2240   27.7940   42.5690 C   0  0  0  0  0  0  0  0  0  0  0  0
   38.8300   27.3780   41.3780 N   0  0  0  0  0  0  0  0  0  0  0  0
   37.5190   27.6960   39.7470 H   0  0  0  0  0  0  0  0  0  0  0  0
   37.2180   30.4370   43.0190 H   0  0  0  0  0  0  0  0  0  0  0  0
   40.3120   27.0440   43.2580 C   0  0  0  0  0  3  0  0  0  0  0  0
   40.5570   25.7590   42.5140 C   0  0  0  0  0  2  0  0  0  0  0  0
   41.8270   25.0710   42.9310 C   0  0  0  0  0  2  0  0  0  0  0  0
   42.9540   26.0590   42.6530 C   0  0  0  0  0  2  0  0  0  0  0  0
   42.7860   27.1680   43.6800 C   0  0  0  0  0  2  0  0  0  0  0  0
   41.5290   27.9090   43.3720 C   0  0  0  0  0  2  0  0  0  0  0  0
  1 20  1  0  0  0  0
  2  7  1  0  0  0  0
  2  1  2  0  0  0  0
  3  2  1  0  0  0  0
  4  3  2  0  0  0  0
  4  5  1  0  0  0  0
  5  6  2  0  0  0  0
  6  1  1  0  0  0  0
  6 11  1  0  0  0  0
  8  3  1  0  0  0  0
  9  4  1  0  0  0  0
 10  5  1  0  0  0  0
 11 12  2  0  0  0  0
 11 16  1  0  0  0  0
 12 13  1  0  0  0  0
 13 18  1  0  0  0  0
 13 14  2  0  0  0  0
 15 19  1  0  0  0  0
 15 14  1  0  0  0  0
 16 15  2  0  0  0  0
 17 12  1  0  0  0  0
 20 22  1  0  0  0  0
 21 22  2  0  0  0  0
 21 26  1  0  0  0  0
 22 23  1  0  0  0  0
 23 28  1  0  0  0  0
 23 24  2  0  0  0  0
 25 24  1  0  0  0  0
 25 29  1  0  0  0  0
 26 25  2  0  0  0  0
 27 21  1  0  0  0  0
 29 34  1  0  0  0  0
 30 31  1  0  0  0  0
 30 29  1  0  0  0  0
 32 31  1  0  0  0  0
 32 33  1  0  0  0  0
 34 33  1  0  0  0  0
M  END
>  <minimizedAffinity>
-5.74276781

$$$$

 OpenBabel03242517463D

 34 37  0  0  0  0  0  0  0  0999 V2000
   36.8630   26.2130   39.7110 C   0  0  0  0  0  0  0  0  0  0  0  0
   36.3940   24.9150   39.5850 C   0  0  0  0  0  0  0  0  0  0  0  0
   36.3470   24.0780   40.6890 C   0  0  0  0  0  0  0  0  0  0  0  0
   36.7610   24.5120   41.9270 C   0  0  0  0  0  0  0  0  0  0  0  0
   37.2220   25.7960   42.0420 C   0  0  0  0  0  0  0  0  0  0  0  0
   37.2830   26.6600   40.9590 C   0  0  0  0  0  0  0  0  0  0  0  0
   36.0670   24.5740   38.6020 H   0  0  0  0  0  0  0  0  0  0  0  0
   35.9790   23.0700   40.5690 H   0  0  0  0  0  0  0  0  0  0  0  0
   36.7080   23.8280   42.7670 H   0  0  0  0  0  0  0  0  0  0  0  0
   37.5410   26.1100   43.0360 H   0  0  0  0  0  0  0  0  0  0  0  0
   37.7830   28.0320   41.1150 C   0  0  0  0  0  0  0  0  0  0  0  0
   39.0800   28.4020   40.9250 C   0  0  0  0  0  0  0  0  0  0  0  0
   39.5170   29.7220   41.0840 C   0  0  0  0  0  0  0  0  0  0  0  0
   38.6330   30.6600   41.4340 N   0  0  0  0  0  0  0  0  0  0  0  0
   37.3470   30.2820   41.6210 C   0  0  0  0  0  0  0  0  0  0  0  0
   36.9220   29.0160   41.4700 N   0  0  0  0  0  0  0  0  0  0  0  0
   39.7790   27.6210   40.6400 H   0  0  0  0  0  0  0  0  0  0  0  0
   40.5720   29.8860   40.9040 H   0  0  0  0  0  0  0  0  0  0  0  0
   36.5600   30.9770   41.9080 H   0  0  0  0  0  0  0  0  0  0  0  0
   36.9620   27.3510   38.3720 S   0  0  0  0  0  0  0  0  0  0  0  0
   34.6140   28.7170   38.9020 C   0  0  0  0  0  0  0  0  0  0  0  0
   35.3490   27.9680   37.9600 C   0  0  0  0  0  0  0  0  0  0  0  0
   34.7810   27.7360   36.7260 C   0  0  0  0  0  0  0  0  0  0  0  0
   33.5380   28.2430   36.4850 N   0  0  0  0  0  0  0  0  0  0  0  0
   32.8640   28.9540   37.4090 C   0  0  0  0  0  0  0  0  0  0  0  0
   33.3760   29.1970   38.6020 N   0  0  0  0  0  0  0  0  0  0  0  0
   35.0290   28.9250   39.8970 H   0  0  0  0  0  0  0  0  0  0  0  0
   35.3260   27.1710   36.0060 H   0  0  0  0  0  0  0  0  0  0  0  0
   31.5070   29.4870   37.0980 C   0  0  0  0  0  3  0  0  0  0  0  0
   30.9100   30.0500   38.3590 C   0  0  0  0  0  2  0  0  0  0  0  0
   29.6840   30.8830   38.1080 C   0  0  0  0  0  2  0  0  0  0  0  0
   30.1240   32.0170   37.1890 C   0  0  0  0  0  2  0  0  0  0  0  0
   30.4030   31.3640   35.8440 C   0  0  0  0  0  2  0  0  0  0  0  0
   31.6000   30.4850   35.9850 C   0  0  0  0  0  2  0  0  0  0  0  0
  1  6  1  0  0  0  0
  2  1  2  0  0  0  0
  2  3  1  0  0  0  0
  3  4  2  0  0  0  0
  4  5  1  0  0  0  0
  4  9  1  0  0  0  0
  5 10  1  0  0  0  0
  6 11  1  0  0  0  0
  6  5  2  0  0  0  0
  7  2  1  0  0  0  0
  8  3  1  0  0  0  0
 11 16  1  0  0  0  0
 12 13  1  0  0  0  0
 12 11  2  0  0  0  0
 13 14  2  0  0  0  0
 14 15  1  0  0  0  0
 15 19  1  0  0  0  0
 16 15  2  0  0  0  0
 17 12  1  0  0  0  0
 18 13  1  0  0  0  0
 20  1  1  0  0  0  0
 21 27  1  0  0  0  0
 22 20  1  0  0  0  0
 22 21  2  0  0  0  0
 23 22  1  0  0  0  0
 24 23  2  0  0  0  0
 24 25  1  0  0  0  0
 25 26  2  0  0  0  0
 26 21  1  0  0  0  0
 28 23  1  0  0  0  0
 29 25  1  0  0  0  0
 29 30  1  0  0  0  0
 31 30  1  0  0  0  0
 32 31  1  0  0  0  0
 33 34  1  0  0  0  0
 33 32  1  0  0  0  0
 34 29  1  0  0  0  0
M  END
>  <minimizedAffinity>
-5.7138443

$$$$

 OpenBabel03242517463D

 34 37  0  0  0  0  0  0  0  0999 V2000
   36.7810   29.1320   41.5020 C   0  0  0  0  0  0  0  0  0  0  0  0
   37.1790   28.7610   42.7750 C   0  0  0  0  0  0  0  0  0  0  0  0
   37.5030   27.4410   43.0500 C   0  0  0  0  0  0  0  0  0  0  0  0
   37.4360   26.4760   42.0730 C   0  0  0  0  0  0  0  0  0  0  0  0
   37.0420   26.8520   40.8160 C   0  0  0  0  0  0  0  0  0  0  0  0
   36.7110   28.1630   40.5070 C   0  0  0  0  0  0  0  0  0  0  0  0
   37.2300   29.5290   43.5490 H   0  0  0  0  0  0  0  0  0  0  0  0
   37.8100   27.1720   44.0500 H   0  0  0  0  0  0  0  0  0  0  0  0
   37.6980   25.4540   42.3260 H   0  0  0  0  0  0  0  0  0  0  0  0
   37.0010   26.0640   40.0640 H   0  0  0  0  0  0  0  0  0  0  0  0
   36.2920   28.5350   39.1500 C   0  0  0  0  0  0  0  0  0  0  0  0
   35.0010   28.5260   38.7170 C   0  0  0  0  0  0  0  0  0  0  0  0
   34.6410   28.8890   37.4140 C   0  0  0  0  0  0  0  0  0  0  0  0
   35.5970   29.2590   36.5570 N   0  0  0  0  0  0  0  0  0  0  0  0
   36.8770   29.2640   36.9970 C   0  0  0  0  0  0  0  0  0  0  0  0
   37.2270   28.9170   38.2470 N   0  0  0  0  0  0  0  0  0  0  0  0
   34.2420   28.2220   39.4320 H   0  0  0  0  0  0  0  0  0  0  0  0
   33.5820   28.8400   37.1940 H   0  0  0  0  0  0  0  0  0  0  0  0
   37.7190   29.5500   36.3690 H   0  0  0  0  0  0  0  0  0  0  0  0
   36.3500   30.7780   41.0530 S   0  0  0  0  0  0  0  0  0  0  0  0
   39.0730   31.1000   40.6760 C   0  0  0  0  0  0  0  0  0  0  0  0
   37.7980   31.6950   40.5880 C   0  0  0  0  0  0  0  0  0  0  0  0
   37.7160   32.9930   40.1330 C   0  0  0  0  0  0  0  0  0  0  0  0
   38.8730   33.6310   39.7940 N   0  0  0  0  0  0  0  0  0  0  0  0
   40.0750   33.0310   39.8920 C   0  0  0  0  0  0  0  0  0  0  0  0
   40.1930   31.7870   40.3240 N   0  0  0  0  0  0  0  0  0  0  0  0
   39.1840   30.0680   41.0340 H   0  0  0  0  0  0  0  0  0  0  0  0
   36.7580   33.4540   40.0610 H   0  0  0  0  0  0  0  0  0  0  0  0
   41.3110   33.7700   39.5100 C   0  0  0  0  0  3  0  0  0  0  0  0
   42.4560   33.2520   40.3370 C   0  0  0  0  0  2  0  0  0  0  0  0
   43.7990   33.7010   39.8300 C   0  0  0  0  0  2  0  0  0  0  0  0
   43.9080   33.1770   38.4020 C   0  0  0  0  0  2  0  0  0  0  0  0
   42.9180   33.9980   37.5920 C   0  0  0  0  0  2  0  0  0  0  0  0
   41.5380   33.6470   38.0350 C   0  0  0  0  0  2  0  0  0  0  0  0
  1  2  1  0  0  0  0
  2  3  2  0  0  0  0
  2  7  1  0  0  0  0
  3  8  1  0  0  0  0
  4  9  1  0  0  0  0
  4  3  1  0  0  0  0
  5  4  2  0  0  0  0
  6  5  1  0  0  0  0
  6  1  2  0  0  0  0
 10  5  1  0  0  0  0
 11  6  1  0  0  0  0
 12 11  1  0  0  0  0
 12 17  1  0  0  0  0
 13 12  2  0  0  0  0
 14 15  2  0  0  0  0
 14 13  1  0  0  0  0
 15 16  1  0  0  0  0
 16 11  2  0  0  0  0
 18 13  1  0  0  0  0
 19 15  1  0  0  0  0
 20  1  1  0  0  0  0
 21 27  1  0  0  0  0
 22 21  1  0  0  0  0
 22 20  1  0  0  0  0
 23 22  2  0  0  0  0
 24 25  2  0  0  0  0
 24 23  1  0  0  0  0
 25 26  1  0  0  0  0
 26 21  2  0  0  0  0
 28 23  1  0  0  0  0
 29 25  1  0  0  0  0
 29 30  1  0  0  0  0
 31 30  1  0  0  0  0
 32 31  1  0  0  0  0
 33 34  1  0  0  0  0
 33 32  1  0  0  0  0
 34 29  1  0  0  0  0
M  END
>  <minimizedAffinity>
-5.70951366

$$$$

 OpenBabel03242517463D

 34 37  0  0  0  0  0  0  0  0999 V2000
   36.1220   29.3260   39.5690 C   0  0  0  0  0  0  0  0  0  0  0  0
   35.4840   29.4680   38.3480 C   0  0  0  0  0  0  0  0  0  0  0  0
   35.2730   28.3640   37.5360 C   0  0  0  0  0  0  0  0  0  0  0  0
   35.6900   27.1110   37.9200 C   0  0  0  0  0  0  0  0  0  0  0  0
   36.3200   26.9800   39.1290 C   0  0  0  0  0  0  0  0  0  0  0  0
   36.5470   28.0620   39.9660 C   0  0  0  0  0  0  0  0  0  0  0  0
   35.1550   30.4640   38.0460 H   0  0  0  0  0  0  0  0  0  0  0  0
   34.7740   28.4970   36.5880 H   0  0  0  0  0  0  0  0  0  0  0  0
   35.5060   26.2720   37.2590 H   0  0  0  0  0  0  0  0  0  0  0  0
   36.6360   25.9740   39.4050 H   0  0  0  0  0  0  0  0  0  0  0  0
   37.2250   27.8890   41.2560 C   0  0  0  0  0  0  0  0  0  0  0  0
   36.5830   27.8110   42.4560 C   0  0  0  0  0  0  0  0  0  0  0  0
   37.2660   27.6460   43.6650 C   0  0  0  0  0  0  0  0  0  0  0  0
   38.5990   27.5580   43.6510 N   0  0  0  0  0  0  0  0  0  0  0  0
   39.2270   27.6370   42.4540 C   0  0  0  0  0  0  0  0  0  0  0  0
   38.5760   27.7960   41.2900 N   0  0  0  0  0  0  0  0  0  0  0  0
   35.4990   27.8850   42.4410 H   0  0  0  0  0  0  0  0  0  0  0  0
   36.6410   27.5990   44.5490 H   0  0  0  0  0  0  0  0  0  0  0  0
   40.3090   27.5750   42.3470 H   0  0  0  0  0  0  0  0  0  0  0  0
   36.4370   30.6630   40.6690 S   0  0  0  0  0  0  0  0  0  0  0  0
   38.0160   32.9270   40.4640 C   0  0  0  0  0  0  0  0  0  0  0  0
   37.8870   31.5560   40.1630 C   0  0  0  0  0  0  0  0  0  0  0  0
   38.9090   30.9410   39.4730 C   0  0  0  0  0  0  0  0  0  0  0  0
   39.9900   31.6940   39.1200 N   0  0  0  0  0  0  0  0  0  0  0  0
   40.0800   33.0030   39.4230 C   0  0  0  0  0  0  0  0  0  0  0  0
   39.1200   33.6260   40.0840 N   0  0  0  0  0  0  0  0  0  0  0  0
   37.2260   33.4560   41.0120 H   0  0  0  0  0  0  0  0  0  0  0  0
   38.8230   29.9050   39.2400 H   0  0  0  0  0  0  0  0  0  0  0  0
   41.2820   33.7830   39.0150 C   0  0  0  0  0  3  0  0  0  0  0  0
   42.3190   33.6730   40.0980 C   0  0  0  0  0  2  0  0  0  0  0  0
   43.6750   34.1600   39.6660 C   0  0  0  0  0  2  0  0  0  0  0  0
   44.0730   33.2990   38.4740 C   0  0  0  0  0  2  0  0  0  0  0  0
   43.1540   33.7250   37.3400 C   0  0  0  0  0  2  0  0  0  0  0  0
   41.7630   33.3090   37.6780 C   0  0  0  0  0  2  0  0  0  0  0  0
  1  6  1  0  0  0  0
  1 20  1  0  0  0  0
  2  1  2  0  0  0  0
  3  4  2  0  0  0  0
  3  2  1  0  0  0  0
  4  5  1  0  0  0  0
  5 10  1  0  0  0  0
  5  6  2  0  0  0  0
  6 11  1  0  0  0  0
  7  2  1  0  0  0  0
  8  3  1  0  0  0  0
  9  4  1  0  0  0  0
 11 16  2  0  0  0  0
 11 12  1  0  0  0  0
 12 13  2  0  0  0  0
 13 18  1  0  0  0  0
 14 13  1  0  0  0  0
 15 14  2  0  0  0  0
 16 15  1  0  0  0  0
 17 12  1  0  0  0  0
 19 15  1  0  0  0  0
 21 27  1  0  0  0  0
 22 21  1  0  0  0  0
 22 20  1  0  0  0  0
 23 22  2  0  0  0  0
 24 25  2  0  0  0  0
 24 23  1  0  0  0  0
 25 26  1  0  0  0  0
 26 21  2  0  0  0  0
 28 23  1  0  0  0  0
 29 25  1  0  0  0  0
 29 30  1  0  0  0  0
 31 30  1  0  0  0  0
 32 31  1  0  0  0  0
 33 34  1  0  0  0  0
 33 32  1  0  0  0  0
 34 29  1  0  0  0  0
M  END
>  <minimizedAffinity>
-5.60921049

$$$$

 OpenBabel03242517463D

 34 37  0  0  0  0  0  0  0  0999 V2000
   37.5450   28.0430   40.9560 C   0  0  0  0  0  0  0  0  0  0  0  0
   37.1970   26.7960   41.4490 C   0  0  0  0  0  0  0  0  0  0  0  0
   36.9460   26.6240   42.8020 C   0  0  0  0  0  0  0  0  0  0  0  0
   37.0350   27.6790   43.6790 C   0  0  0  0  0  0  0  0  0  0  0  0
   37.3790   28.9080   43.1830 C   0  0  0  0  0  0  0  0  0  0  0  0
   37.6370   29.1160   41.8360 C   0  0  0  0  0  0  0  0  0  0  0  0
   37.1280   25.9620   40.7500 H   0  0  0  0  0  0  0  0  0  0  0  0
   36.6770   25.6440   43.1660 H   0  0  0  0  0  0  0  0  0  0  0  0
   36.8300   27.5050   44.7300 H   0  0  0  0  0  0  0  0  0  0  0  0
   37.4390   29.7230   43.9040 H   0  0  0  0  0  0  0  0  0  0  0  0
   38.0040   30.4460   41.3350 C   0  0  0  0  0  0  0  0  0  0  0  0
   39.2600   30.9690   41.3940 C   0  0  0  0  0  0  0  0  0  0  0  0
   39.5700   32.2420   40.9040 C   0  0  0  0  0  0  0  0  0  0  0  0
   38.6000   32.9790   40.3550 N   0  0  0  0  0  0  0  0  0  0  0  0
   37.3550   32.4510   40.3020 C   0  0  0  0  0  0  0  0  0  0  0  0
   37.0530   31.2280   40.7700 N   0  0  0  0  0  0  0  0  0  0  0  0
   40.0310   30.3500   41.8440 H   0  0  0  0  0  0  0  0  0  0  0  0
   40.6050   32.5420   41.0110 H   0  0  0  0  0  0  0  0  0  0  0  0
   36.5050   32.9790   39.8730 H   0  0  0  0  0  0  0  0  0  0  0  0
   37.8840   28.3640   39.2590 S   0  0  0  0  0  0  0  0  0  0  0  0
   36.3950   28.7500   36.9580 C   0  0  0  0  0  0  0  0  0  0  0  0
   36.3730   28.6230   38.3620 C   0  0  0  0  0  0  0  0  0  0  0  0
   35.1570   28.7060   39.0050 C   0  0  0  0  0  0  0  0  0  0  0  0
   34.0410   28.9060   38.2460 N   0  0  0  0  0  0  0  0  0  0  0  0
   34.0990   29.0230   36.9060 C   0  0  0  0  0  0  0  0  0  0  0  0
   35.2470   28.9490   36.2550 N   0  0  0  0  0  0  0  0  0  0  0  0
   37.3420   28.6900   36.4060 H   0  0  0  0  0  0  0  0  0  0  0  0
   35.1270   28.6120   40.0650 H   0  0  0  0  0  0  0  0  0  0  0  0
   32.8520   29.2420   36.1200 C   0  0  0  0  0  3  0  0  0  0  0  0
   32.5490   27.9920   35.3400 C   0  0  0  0  0  2  0  0  0  0  0  0
   31.1630   27.9840   34.7560 C   0  0  0  0  0  2  0  0  0  0  0  0
   30.2070   28.1070   35.9360 C   0  0  0  0  0  2  0  0  0  0  0  0
   30.3770   29.5270   36.4520 C   0  0  0  0  0  2  0  0  0  0  0  0
   31.7430   29.6550   37.0380 C   0  0  0  0  0  2  0  0  0  0  0  0
  1  2  2  0  0  0  0
  1  6  1  0  0  0  0
  2  3  1  0  0  0  0
  3  8  1  0  0  0  0
  3  4  2  0  0  0  0
  4  9  1  0  0  0  0
  5  4  1  0  0  0  0
  5 10  1  0  0  0  0
  6  5  2  0  0  0  0
  7  2  1  0  0  0  0
 11 12  1  0  0  0  0
 11  6  1  0  0  0  0
 12 17  1  0  0  0  0
 13 18  1  0  0  0  0
 13 12  2  0  0  0  0
 14 13  1  0  0  0  0
 15 14  2  0  0  0  0
 15 16  1  0  0  0  0
 16 11  2  0  0  0  0
 19 15  1  0  0  0  0
 20  1  1  0  0  0  0
 21 22  1  0  0  0  0
 22 23  2  0  0  0  0
 22 20  1  0  0  0  0
 23 28  1  0  0  0  0
 24 23  1  0  0  0  0
 25 24  2  0  0  0  0
 26 25  1  0  0  0  0
 26 21  2  0  0  0  0
 27 21  1  0  0  0  0
 29 25  1  0  0  0  0
 29 34  1  0  0  0  0
 30 29  1  0  0  0  0
 31 30  1  0  0  0  0
 31 32  1  0  0  0  0
 32 33  1  0  0  0  0
 33 34  1  0  0  0  0
M  END
>  <minimizedAffinity>
-5.42553663

$$$$

 OpenBabel03242517463D

 34 37  0  0  0  0  0  0  0  0999 V2000
   37.3710   27.7920   40.6560 C   0  0  0  0  0  0  0  0  0  0  0  0
   37.2890   28.8560   41.5400 C   0  0  0  0  0  0  0  0  0  0  0  0
   37.0730   28.6290   42.8900 C   0  0  0  0  0  0  0  0  0  0  0  0
   36.9360   27.3520   43.3820 C   0  0  0  0  0  0  0  0  0  0  0  0
   37.0180   26.3060   42.5010 C   0  0  0  0  0  0  0  0  0  0  0  0
   37.2330   26.4970   41.1440 C   0  0  0  0  0  0  0  0  0  0  0  0
   37.3980   29.8680   41.1460 H   0  0  0  0  0  0  0  0  0  0  0  0
   37.0130   29.4720   43.5620 H   0  0  0  0  0  0  0  0  0  0  0  0
   36.7690   27.2140   44.4440 H   0  0  0  0  0  0  0  0  0  0  0  0
   36.9070   25.3070   42.9220 H   0  0  0  0  0  0  0  0  0  0  0  0
   37.3170   25.3550   40.2250 C   0  0  0  0  0  0  0  0  0  0  0  0
   36.2550   24.8360   39.5490 C   0  0  0  0  0  0  0  0  0  0  0  0
   36.3760   23.7450   38.6800 C   0  0  0  0  0  0  0  0  0  0  0  0
   37.5760   23.1880   38.5030 N   0  0  0  0  0  0  0  0  0  0  0  0
   38.6250   23.7110   39.1810 C   0  0  0  0  0  0  0  0  0  0  0  0
   38.5140   24.7580   40.0150 N   0  0  0  0  0  0  0  0  0  0  0  0
   35.2890   25.3070   39.7090 H   0  0  0  0  0  0  0  0  0  0  0  0
   35.4570   23.4280   38.2030 H   0  0  0  0  0  0  0  0  0  0  0  0
   39.6380   23.3210   39.0980 H   0  0  0  0  0  0  0  0  0  0  0  0
   37.6410   27.9760   38.9270 S   0  0  0  0  0  0  0  0  0  0  0  0
   34.9400   28.5740   38.8350 C   0  0  0  0  0  0  0  0  0  0  0  0
   36.1110   28.3190   38.0920 C   0  0  0  0  0  0  0  0  0  0  0  0
   36.0290   28.3460   36.7170 C   0  0  0  0  0  0  0  0  0  0  0  0
   34.8180   28.6170   36.1500 N   0  0  0  0  0  0  0  0  0  0  0  0
   33.7190   28.8550   36.8910 C   0  0  0  0  0  0  0  0  0  0  0  0
   33.7590   28.8390   38.2120 N   0  0  0  0  0  0  0  0  0  0  0  0
   34.9600   28.5630   39.9330 H   0  0  0  0  0  0  0  0  0  0  0  0
   36.9070   28.1540   36.1450 H   0  0  0  0  0  0  0  0  0  0  0  0
   32.4180   29.1470   36.2250 C   0  0  0  0  0  3  0  0  0  0  0  0
   31.5250   29.8590   37.2030 C   0  0  0  0  0  2  0  0  0  0  0  0
   30.3130   30.4710   36.5560 C   0  0  0  0  0  2  0  0  0  0  0  0
   30.8400   31.4550   35.5180 C   0  0  0  0  0  2  0  0  0  0  0  0
   31.4480   30.5990   34.4180 C   0  0  0  0  0  2  0  0  0  0  0  0
   32.6570   29.9190   34.9640 C   0  0  0  0  0  2  0  0  0  0  0  0
  1  6  2  0  0  0  0
  1  2  1  0  0  0  0
  2  3  2  0  0  0  0
  3  4  1  0  0  0  0
  3  8  1  0  0  0  0
  4  9  1  0  0  0  0
  5 10  1  0  0  0  0
  5  4  2  0  0  0  0
  6  5  1  0  0  0  0
  7  2  1  0  0  0  0
 11  6  1  0  0  0  0
 12 17  1  0  0  0  0
 12 11  2  0  0  0  0
 13 12  1  0  0  0  0
 14 13  2  0  0  0  0
 14 15  1  0  0  0  0
 15 16  2  0  0  0  0
 16 11  1  0  0  0  0
 18 13  1  0  0  0  0
 19 15  1  0  0  0  0
 20  1  1  0  0  0  0
 21 27  1  0  0  0  0
 22 21  2  0  0  0  0
 22 20  1  0  0  0  0
 23 22  1  0  0  0  0
 24 23  2  0  0  0  0
 24 25  1  0  0  0  0
 25 26  2  0  0  0  0
 26 21  1  0  0  0  0
 28 23  1  0  0  0  0
 29 25  1  0  0  0  0
 29 30  1  0  0  0  0
 31 30  1  0  0  0  0
 32 31  1  0  0  0  0
 33 34  1  0  0  0  0
 33 32  1  0  0  0  0
 34 29  1  0  0  0  0
M  END
>  <minimizedAffinity>
-5.31290293

$$$$

 OpenBabel03242517463D

 34 37  0  0  0  0  0  0  0  0999 V2000
   38.5450   29.1020   42.4590 C   0  0  0  0  0  0  0  0  0  0  0  0
   37.8990   28.0730   43.1240 C   0  0  0  0  0  0  0  0  0  0  0  0
   38.6280   27.0330   43.6790 C   0  0  0  0  0  0  0  0  0  0  0  0
   39.9990   26.9970   43.5830 C   0  0  0  0  0  0  0  0  0  0  0  0
   40.6300   28.0190   42.9230 C   0  0  0  0  0  0  0  0  0  0  0  0
   39.9310   29.0750   42.3560 C   0  0  0  0  0  0  0  0  0  0  0  0
   36.8110   28.1040   43.1980 H   0  0  0  0  0  0  0  0  0  0  0  0
   38.1050   26.2400   44.1940 H   0  0  0  0  0  0  0  0  0  0  0  0
   40.5350   26.1670   44.0310 H   0  0  0  0  0  0  0  0  0  0  0  0
   41.7170   27.9620   42.8660 H   0  0  0  0  0  0  0  0  0  0  0  0
   40.6360   30.1550   41.6560 C   0  0  0  0  0  0  0  0  0  0  0  0
   41.2870   31.1770   42.2790 C   0  0  0  0  0  0  0  0  0  0  0  0
   41.9480   32.1890   41.5750 C   0  0  0  0  0  0  0  0  0  0  0  0
   41.9450   32.1580   40.2400 N   0  0  0  0  0  0  0  0  0  0  0  0
   41.2950   31.1390   39.6300 C   0  0  0  0  0  0  0  0  0  0  0  0
   40.6590   30.1650   40.3020 N   0  0  0  0  0  0  0  0  0  0  0  0
   41.2750   31.1800   43.3650 H   0  0  0  0  0  0  0  0  0  0  0  0
   42.4260   32.9440   42.1860 H   0  0  0  0  0  0  0  0  0  0  0  0
   41.2410   31.0330   38.5470 H   0  0  0  0  0  0  0  0  0  0  0  0
   37.7100   30.4650   41.7210 S   0  0  0  0  0  0  0  0  0  0  0  0
   35.4090   29.4060   40.6040 C   0  0  0  0  0  0  0  0  0  0  0  0
   36.7020   29.9150   40.3650 C   0  0  0  0  0  0  0  0  0  0  0  0
   37.1490   29.9730   39.0630 C   0  0  0  0  0  0  0  0  0  0  0  0
   36.3160   29.5320   38.0770 N   0  0  0  0  0  0  0  0  0  0  0  0
   35.0870   29.0500   38.3420 C   0  0  0  0  0  0  0  0  0  0  0  0
   34.6230   28.9800   39.5780 N   0  0  0  0  0  0  0  0  0  0  0  0
   35.0130   29.3420   41.6260 H   0  0  0  0  0  0  0  0  0  0  0  0
   38.1240   30.3560   38.8700 H   0  0  0  0  0  0  0  0  0  0  0  0
   34.2130   28.5800   37.2300 C   0  0  0  0  0  3  0  0  0  0  0  0
   32.8300   29.1350   37.4370 C   0  0  0  0  0  2  0  0  0  0  0  0
   31.9490   28.9830   36.2280 C   0  0  0  0  0  2  0  0  0  0  0  0
   32.6480   29.7320   35.0990 C   0  0  0  0  0  2  0  0  0  0  0  0
   33.8760   28.9020   34.7610 C   0  0  0  0  0  2  0  0  0  0  0  0
   34.8190   28.9630   35.9150 C   0  0  0  0  0  2  0  0  0  0  0  0
  1  2  1  0  0  0  0
  2  7  1  0  0  0  0
  2  3  2  0  0  0  0
  3  8  1  0  0  0  0
  4  3  1  0  0  0  0
  4  9  1  0  0  0  0
  5  4  2  0  0  0  0
  6  1  2  0  0  0  0
  6  5  1  0  0  0  0
 10  5  1  0  0  0  0
 11 12  1  0  0  0  0
 11  6  1  0  0  0  0
 12 17  1  0  0  0  0
 13 18  1  0  0  0  0
 13 12  2  0  0  0  0
 14 13  1  0  0  0  0
 15 14  2  0  0  0  0
 15 16  1  0  0  0  0
 16 11  2  0  0  0  0
 19 15  1  0  0  0  0
 20  1  1  0  0  0  0
 21 27  1  0  0  0  0
 22 21  1  0  0  0  0
 22 20  1  0  0  0  0
 23 22  2  0  0  0  0
 24 25  2  0  0  0  0
 24 23  1  0  0  0  0
 25 26  1  0  0  0  0
 26 21  2  0  0  0  0
 28 23  1  0  0  0  0
 29 30  1  0  0  0  0
 29 25  1  0  0  0  0
 31 30  1  0  0  0  0
 32 31  1  0  0  0  0
 33 32  1  0  0  0  0
 33 34  1  0  0  0  0
 34 29  1  0  0  0  0
M  END
>  <minimizedAffinity>
-5.18536997

$$$$
