
 OpenBabel03252504543D

 18 19  0  0  0  0  0  0  0  0999 V2000
   44.4550   35.7760   44.8620 C   0  0  0  0  0  0  0  0  0  0  0  0
   44.9860   35.1120   43.7290 C   0  0  0  0  0  0  0  0  0  0  0  0
   45.5970   33.8790   43.9400 C   0  0  0  0  0  0  0  0  0  0  0  0
   45.6610   33.3680   45.2020 N   0  0  0  0  0  0  0  0  0  0  0  0
   45.1340   34.0470   46.2630 C   0  0  0  0  0  0  0  0  0  0  0  0
   44.5360   35.2400   46.0900 N   0  0  0  0  0  0  0  0  0  0  0  0
   43.9780   36.7320   44.7170 H   0  0  0  0  0  0  0  0  0  0  0  0
   44.8950   35.5800   42.7710 H   0  0  0  0  0  0  0  0  0  0  0  0
   45.1840   33.6470   47.2540 H   0  0  0  0  0  0  0  0  0  0  0  0
   46.1420   33.1990   42.7670 C   0  0  0  0  0  0  0  0  0  0  0  0
   46.4080   32.1660   43.0770 H   0  0  0  0  0  0  0  0  0  0  0  0
   45.4350   33.1150   41.9330 H   0  0  0  0  0  0  0  0  0  0  0  0
   47.4150   33.8130   42.2530 C   0  0  0  0  0  3  0  0  0  0  0  0
   47.2290   35.0800   41.4750 C   0  0  0  0  0  2  0  0  0  0  0  0
   48.5370   35.2910   40.7100 C   0  0  0  0  0  2  0  0  0  0  0  0
   49.6130   35.5160   41.7370 C   0  0  0  0  0  2  0  0  0  0  0  0
   49.7460   34.3140   42.6430 C   0  0  0  0  0  2  0  0  0  0  0  0
   48.4090   34.1000   43.3610 C   0  0  0  0  0  2  0  0  0  0  0  0
  1  6  1  0  0  0  0
  2  3  1  0  0  0  0
  2  1  2  0  0  0  0
  3  4  2  0  0  0  0
  4  5  1  0  0  0  0
  5  9  1  0  0  0  0
  6  5  2  0  0  0  0
  7  1  1  0  0  0  0
  8  2  1  0  0  0  0
 10 11  1  0  0  0  0
 10  3  1  0  0  0  0
 12 10  1  0  0  0  0
 13 10  1  0  0  0  0
 13 18  1  0  0  0  0
 14 13  1  0  0  0  0
 15 14  1  0  0  0  0
 15 16  1  0  0  0  0
 16 17  1  0  0  0  0
 17 18  1  0  0  0  0
M  END
>  <minimizedAffinity>
-4.12323856

>  <minimizedRMSD>
1.63082778

$$$$
