
 OpenBabel03242522233D

 25 27  0  0  0  0  0  0  0  0999 V2000
   44.5240   35.6160   45.0400 C   0  0  0  0  0  0  0  0  0  0  0  0
   45.1550   35.6040   43.7820 C   0  0  0  0  0  0  0  0  0  0  0  0
   46.1150   34.6370   43.4720 C   0  0  0  0  0  0  0  0  0  0  0  0
   46.3970   33.7250   44.4430 N   0  0  0  0  0  0  0  0  0  0  0  0
   45.7810   33.7570   45.6380 C   0  0  0  0  0  0  0  0  0  0  0  0
   44.8640   34.6790   45.9370 N   0  0  0  0  0  0  0  0  0  0  0  0
   43.7920   36.3990   45.2000 H   0  0  0  0  0  0  0  0  0  0  0  0
   44.8880   36.3590   43.0470 H   0  0  0  0  0  0  0  0  0  0  0  0
   44.6720   33.0130   41.4890 Cl  0  0  0  0  0  0  0  0  0  0  0  0
   46.1860   33.8680   41.1730 C   0  0  0  0  0  0  0  0  0  0  0  0
   46.7840   34.6050   42.1710 C   0  0  0  0  0  0  0  0  0  0  0  0
   47.9590   35.2510   41.8760 C   0  0  0  0  0  0  0  0  0  0  0  0
   48.5270   35.1670   40.6140 C   0  0  0  0  0  0  0  0  0  0  0  0
   47.8800   34.4090   39.6470 C   0  0  0  0  0  0  0  0  0  0  0  0
   48.6020   34.3070   38.0560 Cl  0  0  0  0  0  0  0  0  0  0  0  0
   46.6990   33.7410   39.8880 C   0  0  0  0  0  0  0  0  0  0  0  0
   48.4190   35.8270   42.6740 H   0  0  0  0  0  0  0  0  0  0  0  0
   49.4540   35.6900   40.4200 H   0  0  0  0  0  0  0  0  0  0  0  0
   46.2040   33.1590   39.1400 H   0  0  0  0  0  0  0  0  0  0  0  0
   46.0830   32.7610   46.7090 C   0  0  0  0  0  0  0  0  0  0  0  0
   45.1250   32.8300   47.8550 C   0  0  0  0  0  0  0  0  0  0  0  0
   45.6950   32.0110   48.9950 C   0  0  0  0  0  0  0  0  0  0  0  0
   45.9810   30.6090   48.5210 C   0  0  0  0  0  0  0  0  0  0  0  0
   45.4840   30.3580   47.1240 C   0  0  0  0  0  0  0  0  0  0  0  0
   46.0670   31.3480   46.1660 C   0  0  0  0  0  0  0  0  0  0  0  0
  1  7  1  0  0  0  0
  1  6  1  0  0  0  0
  2  1  2  0  0  0  0
  3  2  1  0  0  0  0
  3  4  2  0  0  0  0
  4  5  1  0  0  0  0
  5  6  2  0  0  0  0
  5 20  1  0  0  0  0
  8  2  1  0  0  0  0
 10  9  1  0  0  0  0
 10 11  1  0  0  0  0
 11  3  1  0  0  0  0
 12 11  2  0  0  0  0
 12 17  1  0  0  0  0
 13 12  1  0  0  0  0
 14 16  1  0  0  0  0
 14 13  2  0  0  0  0
 15 14  1  0  0  0  0
 16 10  2  0  0  0  0
 18 13  1  0  0  0  0
 19 16  1  0  0  0  0
 20 21  1  0  0  0  0
 21 22  1  0  0  0  0
 23 22  1  0  0  0  0
 24 23  1  0  0  0  0
 25 20  1  0  0  0  0
 25 24  1  0  0  0  0
M  END
>  <minimizedAffinity>
-6.78039408

>  <minimizedRMSD>
0.583952963

$$$$
