
 OpenBabel03252501183D

 18 19  0  0  0  0  0  0  0  0999 V2000
   39.7830   30.1500   42.3240 C   0  0  0  0  0  0  0  0  0  0  0  0
   38.4950   30.1690   41.7130 C   0  0  0  0  0  0  0  0  0  0  0  0
   38.2000   31.2670   40.9200 C   0  0  0  0  0  0  0  0  0  0  0  0
   39.1330   32.2630   40.7610 N   0  0  0  0  0  0  0  0  0  0  0  0
   40.3450   32.1810   41.3750 C   0  0  0  0  0  0  0  0  0  0  0  0
   40.6570   31.1360   42.1440 N   0  0  0  0  0  0  0  0  0  0  0  0
   40.1130   29.3410   42.9610 H   0  0  0  0  0  0  0  0  0  0  0  0
   41.0740   32.9790   41.2380 H   0  0  0  0  0  0  0  0  0  0  0  0
   37.6840   29.0130   42.0140 C   0  0  0  0  0  3  0  0  0  0  0  0
   38.1420   27.8140   41.2080 C   0  0  0  0  0  2  0  0  0  0  0  0
   37.0560   26.7310   41.2710 C   0  0  0  0  0  2  0  0  0  0  0  0
   36.9290   26.3290   42.7330 C   0  0  0  0  0  2  0  0  0  0  0  0
   36.6100   27.5300   43.5790 C   0  0  0  0  0  2  0  0  0  0  0  0
   37.7390   28.5630   43.4570 C   0  0  0  0  0  2  0  0  0  0  0  0
   36.8830   31.2580   40.3030 C   0  0  0  0  0  0  0  0  0  0  0  0
   36.6910   32.4630   39.6170 F   0  0  0  0  0  0  0  0  0  0  0  0
   35.9470   31.2710   41.3060 F   0  0  0  0  0  0  0  0  0  0  0  0
   36.7070   30.2590   39.3930 F   0  0  0  0  0  0  0  0  0  0  0  0
  1  7  1  0  0  0  0
  2  9  1  0  0  0  0
  2  1  2  0  0  0  0
  3  2  1  0  0  0  0
  4  3  2  0  0  0  0
  4  5  1  0  0  0  0
  5  6  2  0  0  0  0
  6  1  1  0  0  0  0
  8  5  1  0  0  0  0
  9 14  1  0  0  0  0
 10 11  1  0  0  0  0
 10  9  1  0  0  0  0
 11 12  1  0  0  0  0
 12 13  1  0  0  0  0
 14 13  1  0  0  0  0
 15  3  1  0  0  0  0
 15 17  1  0  0  0  0
 16 15  1  0  0  0  0
 18 15  1  0  0  0  0
M  END
>  <minimizedAffinity>
-4.84128475

$$$$

 OpenBabel03252501183D

 18 19  0  0  0  0  0  0  0  0999 V2000
   40.2010   30.0740   40.6470 C   0  0  0  0  0  0  0  0  0  0  0  0
   38.8060   30.3690   40.6500 C   0  0  0  0  0  0  0  0  0  0  0  0
   38.3910   31.4160   39.8420 C   0  0  0  0  0  0  0  0  0  0  0  0
   39.3130   32.1060   39.0940 N   0  0  0  0  0  0  0  0  0  0  0  0
   40.6320   31.7720   39.1400 C   0  0  0  0  0  0  0  0  0  0  0  0
   41.0610   30.7690   39.9080 N   0  0  0  0  0  0  0  0  0  0  0  0
   40.6280   29.2790   41.2420 H   0  0  0  0  0  0  0  0  0  0  0  0
   41.3510   32.3290   38.5400 H   0  0  0  0  0  0  0  0  0  0  0  0
   38.0240   29.5070   41.5050 C   0  0  0  0  0  3  0  0  0  0  0  0
   37.9230   28.1160   40.9140 C   0  0  0  0  0  2  0  0  0  0  0  0
   36.8070   27.3500   41.6390 C   0  0  0  0  0  2  0  0  0  0  0  0
   37.2320   27.2420   43.0960 C   0  0  0  0  0  2  0  0  0  0  0  0
   37.4740   28.6100   43.6710 C   0  0  0  0  0  2  0  0  0  0  0  0
   38.5970   29.3080   42.8910 C   0  0  0  0  0  2  0  0  0  0  0  0
   36.9620   31.6910   39.8580 C   0  0  0  0  0  0  0  0  0  0  0  0
   36.3050   30.7450   39.0620 F   0  0  0  0  0  0  0  0  0  0  0  0
   36.7560   32.8890   39.2220 F   0  0  0  0  0  0  0  0  0  0  0  0
   36.4010   31.6160   41.0970 F   0  0  0  0  0  0  0  0  0  0  0  0
  1  2  1  0  0  0  0
  1  7  1  0  0  0  0
  2  9  1  0  0  0  0
  3 15  1  0  0  0  0
  3  2  2  0  0  0  0
  4  5  2  0  0  0  0
  4  3  1  0  0  0  0
  5  6  1  0  0  0  0
  6  1  2  0  0  0  0
  8  5  1  0  0  0  0
  9 14  1  0  0  0  0
 10  9  1  0  0  0  0
 10 11  1  0  0  0  0
 11 12  1  0  0  0  0
 12 13  1  0  0  0  0
 14 13  1  0  0  0  0
 15 18  1  0  0  0  0
 16 15  1  0  0  0  0
 17 15  1  0  0  0  0
M  END
>  <minimizedAffinity>
-4.55106926

$$$$

 OpenBabel03252501183D

 18 19  0  0  0  0  0  0  0  0999 V2000
   36.2840   27.6730   39.4230 C   0  0  0  0  0  0  0  0  0  0  0  0
   36.7250   28.8900   40.0210 C   0  0  0  0  0  0  0  0  0  0  0  0
   36.5380   30.0480   39.2820 C   0  0  0  0  0  0  0  0  0  0  0  0
   35.9520   29.9770   38.0420 N   0  0  0  0  0  0  0  0  0  0  0  0
   35.5530   28.7800   37.5310 C   0  0  0  0  0  0  0  0  0  0  0  0
   35.7200   27.6490   38.2180 N   0  0  0  0  0  0  0  0  0  0  0  0
   36.3830   26.7150   39.9140 H   0  0  0  0  0  0  0  0  0  0  0  0
   35.0900   28.7420   36.5460 H   0  0  0  0  0  0  0  0  0  0  0  0
   37.3040   28.7250   41.3330 C   0  0  0  0  0  3  0  0  0  0  0  0
   36.5360   27.6900   42.1300 C   0  0  0  0  0  2  0  0  0  0  0  0
   36.9370   27.8060   43.6070 C   0  0  0  0  0  2  0  0  0  0  0  0
   38.4230   27.4860   43.6800 C   0  0  0  0  0  2  0  0  0  0  0  0
   39.1990   28.4140   42.7860 C   0  0  0  0  0  2  0  0  0  0  0  0
   38.7370   28.2400   41.3330 C   0  0  0  0  0  2  0  0  0  0  0  0
   36.9920   31.2760   39.9170 C   0  0  0  0  0  0  0  0  0  0  0  0
   36.6990   32.3580   39.0790 F   0  0  0  0  0  0  0  0  0  0  0  0
   38.3620   31.2380   39.9780 F   0  0  0  0  0  0  0  0  0  0  0  0
   36.3890   31.5330   41.1120 F   0  0  0  0  0  0  0  0  0  0  0  0
  1  7  1  0  0  0  0
  1  2  1  0  0  0  0
  2  9  1  0  0  0  0
  3 15  1  0  0  0  0
  3  2  2  0  0  0  0
  4  3  1  0  0  0  0
  5  4  2  0  0  0  0
  5  6  1  0  0  0  0
  6  1  2  0  0  0  0
  8  5  1  0  0  0  0
  9 10  1  0  0  0  0
 10 11  1  0  0  0  0
 11 12  1  0  0  0  0
 13 12  1  0  0  0  0
 14  9  1  0  0  0  0
 14 13  1  0  0  0  0
 15 17  1  0  0  0  0
 15 18  1  0  0  0  0
 16 15  1  0  0  0  0
M  END
>  <minimizedAffinity>
-4.54960728

$$$$

 OpenBabel03252501183D

 18 19  0  0  0  0  0  0  0  0999 V2000
   36.4350   27.1520   39.4560 C   0  0  0  0  0  0  0  0  0  0  0  0
   36.9880   26.3630   40.5060 C   0  0  0  0  0  0  0  0  0  0  0  0
   36.8960   24.9870   40.3630 C   0  0  0  0  0  0  0  0  0  0  0  0
   36.2930   24.4570   39.2490 N   0  0  0  0  0  0  0  0  0  0  0  0
   35.7850   25.2700   38.2840 C   0  0  0  0  0  0  0  0  0  0  0  0
   35.8590   26.5970   38.3930 N   0  0  0  0  0  0  0  0  0  0  0  0
   36.4540   28.2330   39.4690 H   0  0  0  0  0  0  0  0  0  0  0  0
   35.3100   24.8330   37.4050 H   0  0  0  0  0  0  0  0  0  0  0  0
   37.5790   27.1340   41.5740 C   0  0  0  0  0  3  0  0  0  0  0  0
   38.4050   28.2750   41.0160 C   0  0  0  0  0  2  0  0  0  0  0  0
   39.2960   28.8340   42.1340 C   0  0  0  0  0  2  0  0  0  0  0  0
   38.3590   29.3760   43.2040 C   0  0  0  0  0  2  0  0  0  0  0  0
   37.4290   28.2940   43.6800 C   0  0  0  0  0  2  0  0  0  0  0  0
   36.5810   27.7880   42.5050 C   0  0  0  0  0  2  0  0  0  0  0  0
   37.4730   24.2050   41.4460 C   0  0  0  0  0  0  0  0  0  0  0  0
   37.4000   22.8460   41.1170 F   0  0  0  0  0  0  0  0  0  0  0  0
   36.6650   24.3450   42.5460 F   0  0  0  0  0  0  0  0  0  0  0  0
   38.7870   24.4790   41.6830 F   0  0  0  0  0  0  0  0  0  0  0  0
  1  7  1  0  0  0  0
  1  2  1  0  0  0  0
  2  9  1  0  0  0  0
  3  2  2  0  0  0  0
  3 15  1  0  0  0  0
  4  3  1  0  0  0  0
  5  6  1  0  0  0  0
  5  4  2  0  0  0  0
  6  1  2  0  0  0  0
  8  5  1  0  0  0  0
  9 14  1  0  0  0  0
 10  9  1  0  0  0  0
 10 11  1  0  0  0  0
 11 12  1  0  0  0  0
 12 13  1  0  0  0  0
 14 13  1  0  0  0  0
 15 18  1  0  0  0  0
 15 17  1  0  0  0  0
 16 15  1  0  0  0  0
M  END
>  <minimizedAffinity>
-4.50927353

$$$$

 OpenBabel03252501183D

 18 19  0  0  0  0  0  0  0  0999 V2000
   37.0530   26.0580   39.7290 C   0  0  0  0  0  0  0  0  0  0  0  0
   36.3970   27.3120   39.9040 C   0  0  0  0  0  0  0  0  0  0  0  0
   35.5880   27.7400   38.8620 C   0  0  0  0  0  0  0  0  0  0  0  0
   35.4570   26.9630   37.7380 N   0  0  0  0  0  0  0  0  0  0  0  0
   36.1130   25.7750   37.6370 C   0  0  0  0  0  0  0  0  0  0  0  0
   36.8970   25.3360   38.6230 N   0  0  0  0  0  0  0  0  0  0  0  0
   37.7050   25.6330   40.4790 H   0  0  0  0  0  0  0  0  0  0  0  0
   35.9970   25.1690   36.7380 H   0  0  0  0  0  0  0  0  0  0  0  0
   36.6750   27.9510   41.1690 C   0  0  0  0  0  3  0  0  0  0  0  0
   36.8300   26.9180   42.2670 C   0  0  0  0  0  2  0  0  0  0  0  0
   36.7570   27.6270   43.6260 C   0  0  0  0  0  2  0  0  0  0  0  0
   37.9360   28.5870   43.6780 C   0  0  0  0  0  2  0  0  0  0  0  0
   37.8840   29.5400   42.5160 C   0  0  0  0  0  2  0  0  0  0  0  0
   37.9570   28.7540   41.1990 C   0  0  0  0  0  2  0  0  0  0  0  0
   34.9260   29.0190   39.0690 C   0  0  0  0  0  0  0  0  0  0  0  0
   34.0020   29.2270   38.0390 F   0  0  0  0  0  0  0  0  0  0  0  0
   35.8620   30.0100   38.9080 F   0  0  0  0  0  0  0  0  0  0  0  0
   34.2310   29.0970   40.2380 F   0  0  0  0  0  0  0  0  0  0  0  0
  1  2  1  0  0  0  0
  1  7  1  0  0  0  0
  2  9  1  0  0  0  0
  3 15  1  0  0  0  0
  3  2  2  0  0  0  0
  4  3  1  0  0  0  0
  5  4  2  0  0  0  0
  5  6  1  0  0  0  0
  6  1  2  0  0  0  0
  8  5  1  0  0  0  0
  9 14  1  0  0  0  0
  9 10  1  0  0  0  0
 10 11  1  0  0  0  0
 11 12  1  0  0  0  0
 13 12  1  0  0  0  0
 14 13  1  0  0  0  0
 15 18  1  0  0  0  0
 16 15  1  0  0  0  0
 17 15  1  0  0  0  0
M  END
>  <minimizedAffinity>
-4.49186659

$$$$

 OpenBabel03252501183D

 18 19  0  0  0  0  0  0  0  0999 V2000
   39.9860   28.7240   42.2010 C   0  0  0  0  0  0  0  0  0  0  0  0
   38.6700   28.2330   41.9550 C   0  0  0  0  0  0  0  0  0  0  0  0
   38.3000   27.0830   42.6350 C   0  0  0  0  0  0  0  0  0  0  0  0
   39.1890   26.4820   43.4910 N   0  0  0  0  0  0  0  0  0  0  0  0
   40.4310   27.0050   43.6790 C   0  0  0  0  0  0  0  0  0  0  0  0
   40.8160   28.1100   43.0400 N   0  0  0  0  0  0  0  0  0  0  0  0
   40.3740   29.6120   41.7220 H   0  0  0  0  0  0  0  0  0  0  0  0
   41.1240   26.5160   44.3640 H   0  0  0  0  0  0  0  0  0  0  0  0
   37.9090   29.0310   41.0220 C   0  0  0  0  0  3  0  0  0  0  0  0
   37.3470   30.2610   41.7060 C   0  0  0  0  0  2  0  0  0  0  0  0
   36.2650   30.8750   40.8070 C   0  0  0  0  0  2  0  0  0  0  0  0
   36.9590   31.2950   39.5190 C   0  0  0  0  0  2  0  0  0  0  0  0
   37.6460   30.1160   38.8880 C   0  0  0  0  0  2  0  0  0  0  0  0
   38.7050   29.5600   39.8500 C   0  0  0  0  0  2  0  0  0  0  0  0
   36.9500   26.6070   42.3700 C   0  0  0  0  0  0  0  0  0  0  0  0
   36.0410   27.3810   43.1010 F   0  0  0  0  0  0  0  0  0  0  0  0
   36.8380   25.3440   42.8940 F   0  0  0  0  0  0  0  0  0  0  0  0
   36.5800   26.7020   41.0630 F   0  0  0  0  0  0  0  0  0  0  0  0
  1  6  1  0  0  0  0
  2  1  2  0  0  0  0
  2  3  1  0  0  0  0
  3  4  2  0  0  0  0
  4  5  1  0  0  0  0
  5  8  1  0  0  0  0
  6  5  2  0  0  0  0
  7  1  1  0  0  0  0
  9 10  1  0  0  0  0
  9  2  1  0  0  0  0
 11 10  1  0  0  0  0
 12 11  1  0  0  0  0
 13 12  1  0  0  0  0
 13 14  1  0  0  0  0
 14  9  1  0  0  0  0
 15  3  1  0  0  0  0
 15 17  1  0  0  0  0
 15 16  1  0  0  0  0
 18 15  1  0  0  0  0
M  END
>  <minimizedAffinity>
-4.46801567

$$$$

 OpenBabel03252501183D

 18 19  0  0  0  0  0  0  0  0999 V2000
   36.1950   27.8460   40.0630 C   0  0  0  0  0  0  0  0  0  0  0  0
   37.2560   27.7800   41.0120 C   0  0  0  0  0  0  0  0  0  0  0  0
   37.5230   28.9370   41.7270 C   0  0  0  0  0  0  0  0  0  0  0  0
   36.7770   30.0670   41.4970 N   0  0  0  0  0  0  0  0  0  0  0  0
   35.7770   30.0600   40.5750 C   0  0  0  0  0  0  0  0  0  0  0  0
   35.4960   28.9620   39.8720 N   0  0  0  0  0  0  0  0  0  0  0  0
   35.9060   27.0010   39.4540 H   0  0  0  0  0  0  0  0  0  0  0  0
   35.1930   30.9650   40.4050 H   0  0  0  0  0  0  0  0  0  0  0  0
   37.8970   26.4880   41.0900 C   0  0  0  0  0  3  0  0  0  0  0  0
   37.0070   25.4920   41.8060 C   0  0  0  0  0  2  0  0  0  0  0  0
   37.8470   24.2660   42.1900 C   0  0  0  0  0  2  0  0  0  0  0  0
   38.3340   23.6490   40.8870 C   0  0  0  0  0  2  0  0  0  0  0  0
   39.1070   24.6620   40.0880 C   0  0  0  0  0  2  0  0  0  0  0  0
   38.2010   25.8540   39.7510 C   0  0  0  0  0  2  0  0  0  0  0  0
   38.6070   28.8410   42.6930 C   0  0  0  0  0  0  0  0  0  0  0  0
   38.7690   30.0800   43.3240 F   0  0  0  0  0  0  0  0  0  0  0  0
   39.7750   28.6430   42.0000 F   0  0  0  0  0  0  0  0  0  0  0  0
   38.3850   27.9280   43.6790 F   0  0  0  0  0  0  0  0  0  0  0  0
  1  2  1  0  0  0  0
  2  9  1  0  0  0  0
  2  3  2  0  0  0  0
  3 15  1  0  0  0  0
  4  3  1  0  0  0  0
  5  4  2  0  0  0  0
  6  1  2  0  0  0  0
  6  5  1  0  0  0  0
  7  1  1  0  0  0  0
  8  5  1  0  0  0  0
  9 10  1  0  0  0  0
 10 11  1  0  0  0  0
 12 11  1  0  0  0  0
 13 12  1  0  0  0  0
 14 13  1  0  0  0  0
 14  9  1  0  0  0  0
 15 16  1  0  0  0  0
 15 18  1  0  0  0  0
 17 15  1  0  0  0  0
M  END
>  <minimizedAffinity>
-4.45321894

$$$$

 OpenBabel03252501183D

 18 19  0  0  0  0  0  0  0  0999 V2000
   37.9900   29.6890   41.7120 C   0  0  0  0  0  0  0  0  0  0  0  0
   37.6520   30.6070   40.6750 C   0  0  0  0  0  0  0  0  0  0  0  0
   38.4230   31.7570   40.5890 C   0  0  0  0  0  0  0  0  0  0  0  0
   39.4490   31.9570   41.4790 N   0  0  0  0  0  0  0  0  0  0  0  0
   39.7170   31.0370   42.4450 C   0  0  0  0  0  0  0  0  0  0  0  0
   38.9930   29.9220   42.5530 N   0  0  0  0  0  0  0  0  0  0  0  0
   37.4520   28.7640   41.8670 H   0  0  0  0  0  0  0  0  0  0  0  0
   40.5360   31.2110   43.1440 H   0  0  0  0  0  0  0  0  0  0  0  0
   36.5410   30.1860   39.8540 C   0  0  0  0  0  3  0  0  0  0  0  0
   37.0270   29.3500   38.6870 C   0  0  0  0  0  2  0  0  0  0  0  0
   35.8950   29.2350   37.6570 C   0  0  0  0  0  2  0  0  0  0  0  0
   34.7520   28.5070   38.3480 C   0  0  0  0  0  2  0  0  0  0  0  0
   34.3400   29.2440   39.5920 C   0  0  0  0  0  2  0  0  0  0  0  0
   35.5260   29.3190   40.5650 C   0  0  0  0  0  2  0  0  0  0  0  0
   38.0610   32.6740   39.5190 C   0  0  0  0  0  0  0  0  0  0  0  0
   38.7790   33.8660   39.6770 F   0  0  0  0  0  0  0  0  0  0  0  0
   36.7470   33.0290   39.6930 F   0  0  0  0  0  0  0  0  0  0  0  0
   38.3490   32.2070   38.2720 F   0  0  0  0  0  0  0  0  0  0  0  0
  1  7  1  0  0  0  0
  1  6  1  0  0  0  0
  2  1  2  0  0  0  0
  3  2  1  0  0  0  0
  3  4  2  0  0  0  0
  4  5  1  0  0  0  0
  5  6  2  0  0  0  0
  5  8  1  0  0  0  0
  9 14  1  0  0  0  0
  9  2  1  0  0  0  0
 10  9  1  0  0  0  0
 11 12  1  0  0  0  0
 11 10  1  0  0  0  0
 12 13  1  0  0  0  0
 13 14  1  0  0  0  0
 15 16  1  0  0  0  0
 15 17  1  0  0  0  0
 15  3  1  0  0  0  0
 18 15  1  0  0  0  0
M  END
>  <minimizedAffinity>
-4.43587542

$$$$

 OpenBabel03252501183D

 18 19  0  0  0  0  0  0  0  0999 V2000
   37.2920   30.8300   37.3620 C   0  0  0  0  0  0  0  0  0  0  0  0
   37.1380   30.8310   38.7790 C   0  0  0  0  0  0  0  0  0  0  0  0
   36.2700   29.8900   39.3100 C   0  0  0  0  0  0  0  0  0  0  0  0
   35.6130   29.0210   38.4740 N   0  0  0  0  0  0  0  0  0  0  0  0
   35.8070   29.0760   37.1280 C   0  0  0  0  0  0  0  0  0  0  0  0
   36.6360   29.9700   36.5880 N   0  0  0  0  0  0  0  0  0  0  0  0
   37.9440   31.5230   36.8480 H   0  0  0  0  0  0  0  0  0  0  0  0
   35.2780   28.3790   36.4770 H   0  0  0  0  0  0  0  0  0  0  0  0
   37.9330   31.8280   39.4580 C   0  0  0  0  0  3  0  0  0  0  0  0
   39.3420   31.8580   38.8990 C   0  0  0  0  0  2  0  0  0  0  0  0
   40.2390   32.6440   39.8650 C   0  0  0  0  0  2  0  0  0  0  0  0
   39.6910   34.0630   39.9090 C   0  0  0  0  0  2  0  0  0  0  0  0
   38.2470   34.0510   40.3280 C   0  0  0  0  0  2  0  0  0  0  0  0
   37.4220   33.2440   39.3160 C   0  0  0  0  0  2  0  0  0  0  0  0
   36.1360   29.9080   40.7590 C   0  0  0  0  0  0  0  0  0  0  0  0
   37.3510   29.5200   41.3350 F   0  0  0  0  0  0  0  0  0  0  0  0
   35.2480   28.9240   41.1130 F   0  0  0  0  0  0  0  0  0  0  0  0
   35.8370   31.1360   41.2680 F   0  0  0  0  0  0  0  0  0  0  0  0
  1  2  1  0  0  0  0
  2  3  2  0  0  0  0
  2  9  1  0  0  0  0
  3 15  1  0  0  0  0
  4  3  1  0  0  0  0
  5  4  2  0  0  0  0
  6  5  1  0  0  0  0
  6  1  2  0  0  0  0
  7  1  1  0  0  0  0
  8  5  1  0  0  0  0
 10  9  1  0  0  0  0
 10 11  1  0  0  0  0
 11 12  1  0  0  0  0
 12 13  1  0  0  0  0
 14  9  1  0  0  0  0
 14 13  1  0  0  0  0
 15 17  1  0  0  0  0
 15 18  1  0  0  0  0
 15 16  1  0  0  0  0
M  END
>  <minimizedAffinity>
-4.40585613

$$$$
