
 OpenBabel03242522243D

 25 27  0  0  0  0  0  0  0  0999 V2000
   36.6150   27.0670   43.5900 C   0  0  0  0  0  0  0  0  0  0  0  0
   36.9800   28.3720   43.2140 C   0  0  0  0  0  0  0  0  0  0  0  0
   37.5370   28.6260   41.9580 C   0  0  0  0  0  0  0  0  0  0  0  0
   37.7000   27.5530   41.1350 N   0  0  0  0  0  0  0  0  0  0  0  0
   37.3430   26.3140   41.5180 C   0  0  0  0  0  0  0  0  0  0  0  0
   36.8120   26.0690   42.7160 N   0  0  0  0  0  0  0  0  0  0  0  0
   36.1910   26.9560   44.5820 H   0  0  0  0  0  0  0  0  0  0  0  0
   36.8270   29.1900   43.9140 H   0  0  0  0  0  0  0  0  0  0  0  0
   35.4460   29.9850   40.3980 Cl  0  0  0  0  0  0  0  0  0  0  0  0
   37.0120   30.6950   40.8070 C   0  0  0  0  0  0  0  0  0  0  0  0
   37.9250   29.9760   41.5450 C   0  0  0  0  0  0  0  0  0  0  0  0
   39.1270   30.5710   41.8370 C   0  0  0  0  0  0  0  0  0  0  0  0
   39.4150   31.8570   41.4050 C   0  0  0  0  0  0  0  0  0  0  0  0
   38.4570   32.5350   40.6640 C   0  0  0  0  0  0  0  0  0  0  0  0
   38.8260   34.1580   40.1220 Cl  0  0  0  0  0  0  0  0  0  0  0  0
   37.2350   31.9860   40.3430 C   0  0  0  0  0  0  0  0  0  0  0  0
   39.8370   29.9890   42.4200 H   0  0  0  0  0  0  0  0  0  0  0  0
   40.3730   32.2920   41.6550 H   0  0  0  0  0  0  0  0  0  0  0  0
   36.4990   32.5130   39.7720 H   0  0  0  0  0  0  0  0  0  0  0  0
   37.5170   25.1310   40.6230 C   0  0  0  0  0  3  0  0  0  0  0  0
   37.5470   23.8360   41.3700 C   0  0  0  0  0  2  0  0  0  0  0  0
   38.0280   22.7570   40.4210 C   0  0  0  0  0  2  0  0  0  0  0  0
   37.1560   22.7330   39.1920 C   0  0  0  0  0  2  0  0  0  0  0  0
   35.9710   23.6540   39.3050 C   0  0  0  0  0  2  0  0  0  0  0  0
   36.4120   25.0550   39.5900 C   0  0  0  0  0  2  0  0  0  0  0  0
  1  7  1  0  0  0  0
  2  1  1  0  0  0  0
  2  8  1  0  0  0  0
  3  2  2  0  0  0  0
  4  5  2  0  0  0  0
  4  3  1  0  0  0  0
  5  6  1  0  0  0  0
  6  1  2  0  0  0  0
  9 10  1  0  0  0  0
 10 11  1  0  0  0  0
 11 12  2  0  0  0  0
 11  3  1  0  0  0  0
 12 17  1  0  0  0  0
 13 18  1  0  0  0  0
 13 12  1  0  0  0  0
 14 13  2  0  0  0  0
 15 14  1  0  0  0  0
 16 14  1  0  0  0  0
 16 10  2  0  0  0  0
 19 16  1  0  0  0  0
 20 21  1  0  0  0  0
 20  5  1  0  0  0  0
 22 21  1  0  0  0  0
 23 24  1  0  0  0  0
 23 22  1  0  0  0  0
 24 25  1  0  0  0  0
 25 20  1  0  0  0  0
M  END
>  <minimizedAffinity>
-5.50663328

$$$$

 OpenBabel03242522243D

 25 27  0  0  0  0  0  0  0  0999 V2000
   37.1270   30.1570   41.8700 C   0  0  0  0  0  0  0  0  0  0  0  0
   36.3620   30.1750   40.6900 C   0  0  0  0  0  0  0  0  0  0  0  0
   36.0780   28.9910   40.0030 C   0  0  0  0  0  0  0  0  0  0  0  0
   36.5780   27.8410   40.5360 N   0  0  0  0  0  0  0  0  0  0  0  0
   37.3070   27.8510   41.6670 C   0  0  0  0  0  0  0  0  0  0  0  0
   37.5800   28.9790   42.3240 N   0  0  0  0  0  0  0  0  0  0  0  0
   37.3020   31.1180   42.3400 H   0  0  0  0  0  0  0  0  0  0  0  0
   35.9900   31.1230   40.3110 H   0  0  0  0  0  0  0  0  0  0  0  0
   37.7340   29.1680   37.5780 Cl  0  0  0  0  0  0  0  0  0  0  0  0
   35.9690   29.0640   37.5820 C   0  0  0  0  0  0  0  0  0  0  0  0
   35.2850   28.9840   38.7730 C   0  0  0  0  0  0  0  0  0  0  0  0
   33.9150   28.9060   38.7230 C   0  0  0  0  0  0  0  0  0  0  0  0
   33.2400   28.9060   37.5110 C   0  0  0  0  0  0  0  0  0  0  0  0
   33.9820   28.9890   36.3410 C   0  0  0  0  0  0  0  0  0  0  0  0
   33.1240   28.9890   34.8160 Cl  0  0  0  0  0  0  0  0  0  0  0  0
   35.3580   29.0700   36.3330 C   0  0  0  0  0  0  0  0  0  0  0  0
   33.3890   28.8440   39.6720 H   0  0  0  0  0  0  0  0  0  0  0  0
   32.1600   28.8430   37.5130 H   0  0  0  0  0  0  0  0  0  0  0  0
   35.9250   29.1330   35.4300 H   0  0  0  0  0  0  0  0  0  0  0  0
   37.8600   26.5970   42.2600 C   0  0  0  0  0  3  0  0  0  0  0  0
   38.6110   25.7650   41.2690 C   0  0  0  0  0  2  0  0  0  0  0  0
   38.8530   24.4040   41.8860 C   0  0  0  0  0  2  0  0  0  0  0  0
   39.5580   24.5620   43.2100 C   0  0  0  0  0  2  0  0  0  0  0  0
   39.9670   25.9840   43.4810 C   0  0  0  0  0  2  0  0  0  0  0  0
   38.7850   26.8990   43.4210 C   0  0  0  0  0  2  0  0  0  0  0  0
  1  6  1  0  0  0  0
  1  7  1  0  0  0  0
  2  1  2  0  0  0  0
  3  4  2  0  0  0  0
  3  2  1  0  0  0  0
  4  5  1  0  0  0  0
  5 20  1  0  0  0  0
  5  6  2  0  0  0  0
  8  2  1  0  0  0  0
  9 10  1  0  0  0  0
 10 11  1  0  0  0  0
 11  3  1  0  0  0  0
 12 11  2  0  0  0  0
 12 17  1  0  0  0  0
 13 18  1  0  0  0  0
 13 12  1  0  0  0  0
 14 13  2  0  0  0  0
 15 14  1  0  0  0  0
 16 14  1  0  0  0  0
 16 10  2  0  0  0  0
 19 16  1  0  0  0  0
 20 25  1  0  0  0  0
 21 22  1  0  0  0  0
 21 20  1  0  0  0  0
 22 23  1  0  0  0  0
 23 24  1  0  0  0  0
 25 24  1  0  0  0  0
M  END
>  <minimizedAffinity>
-5.3858428

$$$$

 OpenBabel03242522243D

 25 27  0  0  0  0  0  0  0  0999 V2000
   39.2010   34.1490   40.1400 C   0  0  0  0  0  0  0  0  0  0  0  0
   38.6000   33.0920   40.8470 C   0  0  0  0  0  0  0  0  0  0  0  0
   39.0930   31.7880   40.7420 C   0  0  0  0  0  0  0  0  0  0  0  0
   40.1710   31.6080   39.9290 N   0  0  0  0  0  0  0  0  0  0  0  0
   40.7270   32.6350   39.2630 C   0  0  0  0  0  0  0  0  0  0  0  0
   40.2590   33.8800   39.3610 N   0  0  0  0  0  0  0  0  0  0  0  0
   38.7570   35.1280   40.2760 H   0  0  0  0  0  0  0  0  0  0  0  0
   37.7410   33.2960   41.4810 H   0  0  0  0  0  0  0  0  0  0  0  0
   36.6910   30.7370   39.4100 Cl  0  0  0  0  0  0  0  0  0  0  0  0
   37.3530   30.1110   40.9250 C   0  0  0  0  0  0  0  0  0  0  0  0
   38.4850   30.6730   41.4690 C   0  0  0  0  0  0  0  0  0  0  0  0
   38.9590   30.1510   42.6470 C   0  0  0  0  0  0  0  0  0  0  0  0
   38.3200   29.0910   43.2710 C   0  0  0  0  0  0  0  0  0  0  0  0
   37.1810   28.5640   42.6770 C   0  0  0  0  0  0  0  0  0  0  0  0
   36.3790   27.2250   43.4700 Cl  0  0  0  0  0  0  0  0  0  0  0  0
   36.6620   29.0480   41.4960 C   0  0  0  0  0  0  0  0  0  0  0  0
   39.8540   30.6070   43.0630 H   0  0  0  0  0  0  0  0  0  0  0  0
   38.7240   28.7070   44.1980 H   0  0  0  0  0  0  0  0  0  0  0  0
   35.7850   28.6380   41.0420 H   0  0  0  0  0  0  0  0  0  0  0  0
   41.9090   32.4480   38.3680 C   0  0  0  0  0  3  0  0  0  0  0  0
   42.9810   31.6090   38.9880 C   0  0  0  0  0  2  0  0  0  0  0  0
   44.2300   31.7400   38.1400 C   0  0  0  0  0  2  0  0  0  0  0  0
   43.9170   31.3740   36.7110 C   0  0  0  0  0  2  0  0  0  0  0  0
   42.5220   30.8330   36.5450 C   0  0  0  0  0  2  0  0  0  0  0  0
   41.5090   31.8080   37.0550 C   0  0  0  0  0  2  0  0  0  0  0  0
  1  7  1  0  0  0  0
  1  2  1  0  0  0  0
  2  8  1  0  0  0  0
  3  2  2  0  0  0  0
  3 11  1  0  0  0  0
  4  3  1  0  0  0  0
  5  6  1  0  0  0  0
  5  4  2  0  0  0  0
  6  1  2  0  0  0  0
  9 10  1  0  0  0  0
 10 11  2  0  0  0  0
 10 16  1  0  0  0  0
 11 12  1  0  0  0  0
 12 17  1  0  0  0  0
 12 13  2  0  0  0  0
 13 18  1  0  0  0  0
 14 13  1  0  0  0  0
 14 15  1  0  0  0  0
 16 14  2  0  0  0  0
 19 16  1  0  0  0  0
 20 21  1  0  0  0  0
 20  5  1  0  0  0  0
 22 21  1  0  0  0  0
 23 22  1  0  0  0  0
 24 23  1  0  0  0  0
 24 25  1  0  0  0  0
 25 20  1  0  0  0  0
M  END
>  <minimizedAffinity>
-5.37936783

$$$$

 OpenBabel03242522243D

 25 27  0  0  0  0  0  0  0  0999 V2000
   34.8280   28.9900   35.8750 C   0  0  0  0  0  0  0  0  0  0  0  0
   35.5750   28.7380   37.0400 C   0  0  0  0  0  0  0  0  0  0  0  0
   34.9650   28.7450   38.2970 C   0  0  0  0  0  0  0  0  0  0  0  0
   33.6290   29.0070   38.3250 N   0  0  0  0  0  0  0  0  0  0  0  0
   32.9360   29.2450   37.1970 C   0  0  0  0  0  0  0  0  0  0  0  0
   33.5160   29.2390   35.9960 N   0  0  0  0  0  0  0  0  0  0  0  0
   35.3770   28.9670   34.9410 H   0  0  0  0  0  0  0  0  0  0  0  0
   36.6400   28.5360   36.9560 H   0  0  0  0  0  0  0  0  0  0  0  0
   35.8930   25.9610   38.4950 Cl  0  0  0  0  0  0  0  0  0  0  0  0
   36.2000   27.2090   39.7090 C   0  0  0  0  0  0  0  0  0  0  0  0
   35.7220   28.4860   39.5230 C   0  0  0  0  0  0  0  0  0  0  0  0
   35.9860   29.4190   40.4960 C   0  0  0  0  0  0  0  0  0  0  0  0
   36.7120   29.0870   41.6290 C   0  0  0  0  0  0  0  0  0  0  0  0
   37.1690   27.7840   41.7640 C   0  0  0  0  0  0  0  0  0  0  0  0
   38.0840   27.3720   43.1980 Cl  0  0  0  0  0  0  0  0  0  0  0  0
   36.9330   26.8080   40.8200 C   0  0  0  0  0  0  0  0  0  0  0  0
   35.6010   30.4220   40.3340 H   0  0  0  0  0  0  0  0  0  0  0  0
   36.9000   29.8510   42.3730 H   0  0  0  0  0  0  0  0  0  0  0  0
   37.2870   25.8050   40.9280 H   0  0  0  0  0  0  0  0  0  0  0  0
   31.4710   29.5320   37.2170 C   0  0  0  0  0  3  0  0  0  0  0  0
   30.9710   29.9220   38.5710 C   0  0  0  0  0  2  0  0  0  0  0  0
   29.4570   29.8880   38.5420 C   0  0  0  0  0  2  0  0  0  0  0  0
   28.9490   30.7670   37.4280 C   0  0  0  0  0  2  0  0  0  0  0  0
   30.0470   31.5510   36.7630 C   0  0  0  0  0  2  0  0  0  0  0  0
   31.1140   30.6390   36.2460 C   0  0  0  0  0  2  0  0  0  0  0  0
  1  6  2  0  0  0  0
  1  2  1  0  0  0  0
  2  3  2  0  0  0  0
  3  4  1  0  0  0  0
  3 11  1  0  0  0  0
  5 20  1  0  0  0  0
  5  4  2  0  0  0  0
  6  5  1  0  0  0  0
  7  1  1  0  0  0  0
  8  2  1  0  0  0  0
  9 10  1  0  0  0  0
 10 16  1  0  0  0  0
 11 10  2  0  0  0  0
 11 12  1  0  0  0  0
 12 13  2  0  0  0  0
 13 14  1  0  0  0  0
 13 18  1  0  0  0  0
 14 15  1  0  0  0  0
 16 19  1  0  0  0  0
 16 14  2  0  0  0  0
 17 12  1  0  0  0  0
 20 21  1  0  0  0  0
 22 21  1  0  0  0  0
 23 22  1  0  0  0  0
 24 23  1  0  0  0  0
 25 24  1  0  0  0  0
 25 20  1  0  0  0  0
M  END
>  <minimizedAffinity>
-5.27504492

$$$$

 OpenBabel03242522243D

 25 27  0  0  0  0  0  0  0  0999 V2000
   37.4820   28.1360   43.6770 C   0  0  0  0  0  0  0  0  0  0  0  0
   37.6420   26.9130   43.0000 C   0  0  0  0  0  0  0  0  0  0  0  0
   37.6110   26.8580   41.6040 C   0  0  0  0  0  0  0  0  0  0  0  0
   37.4190   28.0380   40.9510 N   0  0  0  0  0  0  0  0  0  0  0  0
   37.2680   29.1950   41.6210 C   0  0  0  0  0  0  0  0  0  0  0  0
   37.2970   29.2500   42.9530 N   0  0  0  0  0  0  0  0  0  0  0  0
   37.5180   28.0920   44.7590 H   0  0  0  0  0  0  0  0  0  0  0  0
   37.7920   26.0030   43.5750 H   0  0  0  0  0  0  0  0  0  0  0  0
   40.3970   26.3600   40.8050 Cl  0  0  0  0  0  0  0  0  0  0  0  0
   39.0460   25.2740   40.4600 C   0  0  0  0  0  0  0  0  0  0  0  0
   37.7760   25.5980   40.8780 C   0  0  0  0  0  0  0  0  0  0  0  0
   36.7600   24.7210   40.5860 C   0  0  0  0  0  0  0  0  0  0  0  0
   37.0030   23.5460   39.8910 C   0  0  0  0  0  0  0  0  0  0  0  0
   38.3050   23.2710   39.4930 C   0  0  0  0  0  0  0  0  0  0  0  0
   38.6050   21.7860   38.6170 Cl  0  0  0  0  0  0  0  0  0  0  0  0
   39.3610   24.1150   39.7600 C   0  0  0  0  0  0  0  0  0  0  0  0
   35.7620   24.9920   40.9230 H   0  0  0  0  0  0  0  0  0  0  0  0
   36.1770   22.8810   39.6800 H   0  0  0  0  0  0  0  0  0  0  0  0
   40.3620   23.8980   39.4520 H   0  0  0  0  0  0  0  0  0  0  0  0
   37.0570   30.4940   40.9150 C   0  0  0  0  0  3  0  0  0  0  0  0
   38.2960   31.3290   40.8500 C   0  0  0  0  0  2  0  0  0  0  0  0
   37.9030   32.7200   40.4000 C   0  0  0  0  0  2  0  0  0  0  0  0
   37.1500   32.6410   39.0950 C   0  0  0  0  0  2  0  0  0  0  0  0
   37.1340   31.2500   38.5210 C   0  0  0  0  0  2  0  0  0  0  0  0
   36.5600   30.2760   39.5010 C   0  0  0  0  0  2  0  0  0  0  0  0
  1  7  1  0  0  0  0
  2  8  1  0  0  0  0
  2  1  1  0  0  0  0
  3  2  2  0  0  0  0
  4  3  1  0  0  0  0
  4  5  2  0  0  0  0
  5  6  1  0  0  0  0
  6  1  2  0  0  0  0
 10  9  1  0  0  0  0
 10 11  1  0  0  0  0
 11  3  1  0  0  0  0
 12 11  2  0  0  0  0
 12 17  1  0  0  0  0
 13 12  1  0  0  0  0
 14 16  1  0  0  0  0
 14 13  2  0  0  0  0
 15 14  1  0  0  0  0
 16 10  2  0  0  0  0
 18 13  1  0  0  0  0
 19 16  1  0  0  0  0
 20  5  1  0  0  0  0
 21 20  1  0  0  0  0
 22 21  1  0  0  0  0
 23 22  1  0  0  0  0
 24 23  1  0  0  0  0
 24 25  1  0  0  0  0
 25 20  1  0  0  0  0
M  END
>  <minimizedAffinity>
-5.23108912

$$$$

 OpenBabel03242522243D

 25 27  0  0  0  0  0  0  0  0999 V2000
   37.2980   32.6830   39.7890 C   0  0  0  0  0  0  0  0  0  0  0  0
   38.5250   32.6630   39.1020 C   0  0  0  0  0  0  0  0  0  0  0  0
   39.4820   31.6820   39.3750 C   0  0  0  0  0  0  0  0  0  0  0  0
   39.1600   30.7640   40.3270 N   0  0  0  0  0  0  0  0  0  0  0  0
   37.9790   30.8040   40.9700 C   0  0  0  0  0  0  0  0  0  0  0  0
   37.0640   31.7400   40.7120 N   0  0  0  0  0  0  0  0  0  0  0  0
   36.6120   33.4780   39.5190 H   0  0  0  0  0  0  0  0  0  0  0  0
   38.7270   33.4230   38.3520 H   0  0  0  0  0  0  0  0  0  0  0  0
   41.6220   33.0760   40.8330 Cl  0  0  0  0  0  0  0  0  0  0  0  0
   41.8330   32.2680   39.2760 C   0  0  0  0  0  0  0  0  0  0  0  0
   40.7660   31.6410   38.6730 C   0  0  0  0  0  0  0  0  0  0  0  0
   40.9810   31.0270   37.4630 C   0  0  0  0  0  0  0  0  0  0  0  0
   42.2320   31.0370   36.8660 C   0  0  0  0  0  0  0  0  0  0  0  0
   43.2720   31.6850   37.5200 C   0  0  0  0  0  0  0  0  0  0  0  0
   44.8490   31.6930   36.7610 Cl  0  0  0  0  0  0  0  0  0  0  0  0
   43.1130   32.3160   38.7340 C   0  0  0  0  0  0  0  0  0  0  0  0
   40.1280   30.5380   37.0000 H   0  0  0  0  0  0  0  0  0  0  0  0
   42.3620   30.5430   35.9130 H   0  0  0  0  0  0  0  0  0  0  0  0
   43.9160   32.8130   39.2340 H   0  0  0  0  0  0  0  0  0  0  0  0
   37.6160   29.8020   42.0160 C   0  0  0  0  0  3  0  0  0  0  0  0
   37.1250   28.5110   41.4410 C   0  0  0  0  0  2  0  0  0  0  0  0
   36.5070   27.7020   42.5620 C   0  0  0  0  0  2  0  0  0  0  0  0
   37.5050   27.5320   43.6790 C   0  0  0  0  0  2  0  0  0  0  0  0
   38.8680   28.0590   43.3220 C   0  0  0  0  0  2  0  0  0  0  0  0
   38.7930   29.4980   42.9200 C   0  0  0  0  0  2  0  0  0  0  0  0
  1  6  1  0  0  0  0
  2  3  1  0  0  0  0
  2  1  2  0  0  0  0
  3  4  2  0  0  0  0
  4  5  1  0  0  0  0
  5 20  1  0  0  0  0
  6  5  2  0  0  0  0
  7  1  1  0  0  0  0
  8  2  1  0  0  0  0
 10  9  1  0  0  0  0
 11 10  2  0  0  0  0
 11  3  1  0  0  0  0
 12 11  1  0  0  0  0
 13 12  2  0  0  0  0
 13 14  1  0  0  0  0
 14 16  2  0  0  0  0
 15 14  1  0  0  0  0
 16 19  1  0  0  0  0
 16 10  1  0  0  0  0
 17 12  1  0  0  0  0
 18 13  1  0  0  0  0
 20 25  1  0  0  0  0
 21 20  1  0  0  0  0
 21 22  1  0  0  0  0
 22 23  1  0  0  0  0
 24 23  1  0  0  0  0
 25 24  1  0  0  0  0
M  END
>  <minimizedAffinity>
-5.21650934

$$$$

 OpenBabel03242522243D

 25 27  0  0  0  0  0  0  0  0999 V2000
   39.0340   26.6120   43.3150 C   0  0  0  0  0  0  0  0  0  0  0  0
   38.7860   27.9010   42.8080 C   0  0  0  0  0  0  0  0  0  0  0  0
   37.9670   28.0850   41.6910 C   0  0  0  0  0  0  0  0  0  0  0  0
   37.4320   26.9630   41.1340 N   0  0  0  0  0  0  0  0  0  0  0  0
   37.6840   25.7420   41.6380 C   0  0  0  0  0  0  0  0  0  0  0  0
   38.4660   25.5630   42.7040 N   0  0  0  0  0  0  0  0  0  0  0  0
   39.6810   26.5570   44.1830 H   0  0  0  0  0  0  0  0  0  0  0  0
   39.2410   28.7600   43.2930 H   0  0  0  0  0  0  0  0  0  0  0  0
   40.2070   29.1470   40.1080 Cl  0  0  0  0  0  0  0  0  0  0  0  0
   38.6850   30.0000   40.3880 C   0  0  0  0  0  0  0  0  0  0  0  0
   37.6950   29.4160   41.1450 C   0  0  0  0  0  0  0  0  0  0  0  0
   36.5310   30.1200   41.3340 C   0  0  0  0  0  0  0  0  0  0  0  0
   36.3560   31.3790   40.7810 C   0  0  0  0  0  0  0  0  0  0  0  0
   37.3880   31.9190   40.0260 C   0  0  0  0  0  0  0  0  0  0  0  0
   37.1610   33.5090   39.3300 Cl  0  0  0  0  0  0  0  0  0  0  0  0
   38.5770   31.2570   39.8050 C   0  0  0  0  0  0  0  0  0  0  0  0
   35.7590   29.6450   41.9350 H   0  0  0  0  0  0  0  0  0  0  0  0
   35.4240   31.9020   40.9520 H   0  0  0  0  0  0  0  0  0  0  0  0
   39.3690   31.6770   39.2230 H   0  0  0  0  0  0  0  0  0  0  0  0
   37.1030   24.5040   41.0360 C   0  0  0  0  0  3  0  0  0  0  0  0
   36.5920   24.7170   39.6470 C   0  0  0  0  0  2  0  0  0  0  0  0
   35.7640   23.5100   39.2600 C   0  0  0  0  0  2  0  0  0  0  0  0
   36.5850   22.2550   39.4230 C   0  0  0  0  0  2  0  0  0  0  0  0
   38.0220   22.5450   39.7620 C   0  0  0  0  0  2  0  0  0  0  0  0
   38.1190   23.3820   40.9980 C   0  0  0  0  0  2  0  0  0  0  0  0
  1  7  1  0  0  0  0
  2  8  1  0  0  0  0
  2  1  1  0  0  0  0
  3  2  2  0  0  0  0
  4  5  2  0  0  0  0
  4  3  1  0  0  0  0
  5  6  1  0  0  0  0
  6  1  2  0  0  0  0
  9 10  1  0  0  0  0
 10 11  1  0  0  0  0
 11 12  2  0  0  0  0
 11  3  1  0  0  0  0
 12 17  1  0  0  0  0
 13 18  1  0  0  0  0
 13 12  1  0  0  0  0
 14 13  2  0  0  0  0
 15 14  1  0  0  0  0
 16 14  1  0  0  0  0
 16 10  2  0  0  0  0
 19 16  1  0  0  0  0
 20  5  1  0  0  0  0
 21 20  1  0  0  0  0
 22 23  1  0  0  0  0
 22 21  1  0  0  0  0
 23 24  1  0  0  0  0
 24 25  1  0  0  0  0
 25 20  1  0  0  0  0
M  END
>  <minimizedAffinity>
-5.19378328

$$$$

 OpenBabel03242522243D

 25 27  0  0  0  0  0  0  0  0999 V2000
   37.2210   32.9380   39.8890 C   0  0  0  0  0  0  0  0  0  0  0  0
   36.9470   31.6210   40.2990 C   0  0  0  0  0  0  0  0  0  0  0  0
   37.9510   30.8190   40.8500 C   0  0  0  0  0  0  0  0  0  0  0  0
   39.1870   31.3800   40.9620 N   0  0  0  0  0  0  0  0  0  0  0  0
   39.4230   32.6430   40.5610 C   0  0  0  0  0  0  0  0  0  0  0  0
   38.4670   33.4100   40.0360 N   0  0  0  0  0  0  0  0  0  0  0  0
   36.3880   33.4910   39.4720 H   0  0  0  0  0  0  0  0  0  0  0  0
   35.9410   31.2260   40.1850 H   0  0  0  0  0  0  0  0  0  0  0  0
   38.2820   28.8570   38.6840 Cl  0  0  0  0  0  0  0  0  0  0  0  0
   37.8180   28.4520   40.3410 C   0  0  0  0  0  0  0  0  0  0  0  0
   37.6900   29.4460   41.2840 C   0  0  0  0  0  0  0  0  0  0  0  0
   37.3270   29.0810   42.5570 C   0  0  0  0  0  0  0  0  0  0  0  0
   37.0970   27.7530   42.8840 C   0  0  0  0  0  0  0  0  0  0  0  0
   37.2400   26.7930   41.8920 C   0  0  0  0  0  0  0  0  0  0  0  0
   36.9490   25.1190   42.3120 Cl  0  0  0  0  0  0  0  0  0  0  0  0
   37.6020   27.1030   40.5990 C   0  0  0  0  0  0  0  0  0  0  0  0
   37.2290   29.8770   43.2900 H   0  0  0  0  0  0  0  0  0  0  0  0
   36.8120   27.5050   43.8980 H   0  0  0  0  0  0  0  0  0  0  0  0
   37.7130   26.3610   39.8380 H   0  0  0  0  0  0  0  0  0  0  0  0
   40.7750   33.2680   40.6800 C   0  0  0  0  0  3  0  0  0  0  0  0
   41.8650   32.2640   40.8780 C   0  0  0  0  0  2  0  0  0  0  0  0
   43.1200   33.0070   41.2880 C   0  0  0  0  0  2  0  0  0  0  0  0
   43.4430   34.0660   40.2640 C   0  0  0  0  0  2  0  0  0  0  0  0
   42.5480   33.9950   39.0570 C   0  0  0  0  0  2  0  0  0  0  0  0
   41.1090   34.0920   39.4540 C   0  0  0  0  0  2  0  0  0  0  0  0
  1  6  2  0  0  0  0
  1  2  1  0  0  0  0
  2  3  2  0  0  0  0
  3  4  1  0  0  0  0
  3 11  1  0  0  0  0
  5 20  1  0  0  0  0
  5  4  2  0  0  0  0
  6  5  1  0  0  0  0
  7  1  1  0  0  0  0
  8  2  1  0  0  0  0
  9 10  1  0  0  0  0
 10 16  2  0  0  0  0
 10 11  1  0  0  0  0
 11 12  2  0  0  0  0
 12 13  1  0  0  0  0
 12 17  1  0  0  0  0
 13 18  1  0  0  0  0
 14 15  1  0  0  0  0
 14 13  2  0  0  0  0
 16 14  1  0  0  0  0
 19 16  1  0  0  0  0
 20 21  1  0  0  0  0
 21 22  1  0  0  0  0
 23 22  1  0  0  0  0
 24 25  1  0  0  0  0
 24 23  1  0  0  0  0
 25 20  1  0  0  0  0
M  END
>  <minimizedAffinity>
-5.17991495

$$$$

 OpenBabel03242522243D

 25 27  0  0  0  0  0  0  0  0999 V2000
   35.5980   30.3710   40.6780 C   0  0  0  0  0  0  0  0  0  0  0  0
   35.7640   28.9770   40.5910 C   0  0  0  0  0  0  0  0  0  0  0  0
   37.0370   28.4020   40.6510 C   0  0  0  0  0  0  0  0  0  0  0  0
   38.0860   29.2580   40.7980 N   0  0  0  0  0  0  0  0  0  0  0  0
   37.9010   30.5880   40.8790 C   0  0  0  0  0  0  0  0  0  0  0  0
   36.6880   31.1390   40.8210 N   0  0  0  0  0  0  0  0  0  0  0  0
   34.5790   30.7350   40.6210 H   0  0  0  0  0  0  0  0  0  0  0  0
   34.8890   28.3430   40.4740 H   0  0  0  0  0  0  0  0  0  0  0  0
   36.7480   27.0520   43.2480 Cl  0  0  0  0  0  0  0  0  0  0  0  0
   37.1210   26.2310   41.7280 C   0  0  0  0  0  0  0  0  0  0  0  0
   37.2340   26.9550   40.5620 C   0  0  0  0  0  0  0  0  0  0  0  0
   37.5250   26.2710   39.4070 C   0  0  0  0  0  0  0  0  0  0  0  0
   37.6980   24.8960   39.4120 C   0  0  0  0  0  0  0  0  0  0  0  0
   37.5710   24.2180   40.6170 C   0  0  0  0  0  0  0  0  0  0  0  0
   37.7910   22.4810   40.6150 Cl  0  0  0  0  0  0  0  0  0  0  0  0
   37.2810   24.8530   41.8040 C   0  0  0  0  0  0  0  0  0  0  0  0
   37.6120   26.8580   38.4960 H   0  0  0  0  0  0  0  0  0  0  0  0
   37.9260   24.3930   38.4810 H   0  0  0  0  0  0  0  0  0  0  0  0
   37.1840   24.3260   42.7300 H   0  0  0  0  0  0  0  0  0  0  0  0
   39.0450   31.5350   41.0400 C   0  0  0  0  0  3  0  0  0  0  0  0
   40.2320   31.1610   40.2120 C   0  0  0  0  0  2  0  0  0  0  0  0
   41.4110   31.9910   40.6780 C   0  0  0  0  0  2  0  0  0  0  0  0
   41.0600   33.4560   40.6150 C   0  0  0  0  0  2  0  0  0  0  0  0
   39.7240   33.7030   39.9690 C   0  0  0  0  0  2  0  0  0  0  0  0
   38.6430   32.9500   40.6760 C   0  0  0  0  0  2  0  0  0  0  0  0
  1  6  1  0  0  0  0
  2  3  1  0  0  0  0
  2  1  2  0  0  0  0
  3  4  2  0  0  0  0
  4  5  1  0  0  0  0
  5 20  1  0  0  0  0
  6  5  2  0  0  0  0
  7  1  1  0  0  0  0
  8  2  1  0  0  0  0
 10 16  1  0  0  0  0
 10  9  1  0  0  0  0
 11  3  1  0  0  0  0
 11 10  2  0  0  0  0
 12 13  2  0  0  0  0
 12 11  1  0  0  0  0
 13 14  1  0  0  0  0
 14 16  2  0  0  0  0
 15 14  1  0  0  0  0
 16 19  1  0  0  0  0
 17 12  1  0  0  0  0
 18 13  1  0  0  0  0
 21 22  1  0  0  0  0
 21 20  1  0  0  0  0
 23 22  1  0  0  0  0
 24 23  1  0  0  0  0
 24 25  1  0  0  0  0
 25 20  1  0  0  0  0
M  END
>  <minimizedAffinity>
-5.15549564

$$$$
