
 OpenBabel03242523293D

 18 19  0  0  0  0  0  0  0  0999 V2000
   37.0270   32.7780   39.1380 C   0  0  0  0  0  0  0  0  0  0  0  0
   37.7100   33.8640   39.6860 C   0  0  0  0  0  0  0  0  0  0  0  0
   38.6480   33.6020   40.6780 C   0  0  0  0  0  0  0  0  0  0  0  0
   38.8610   32.3180   41.0690 N   0  0  0  0  0  0  0  0  0  0  0  0
   38.1810   31.2770   40.5180 C   0  0  0  0  0  0  0  0  0  0  0  0
   37.2830   31.5290   39.5690 N   0  0  0  0  0  0  0  0  0  0  0  0
   36.2980   32.9980   38.3660 H   0  0  0  0  0  0  0  0  0  0  0  0
   37.5670   34.8990   39.4000 H   0  0  0  0  0  0  0  0  0  0  0  0
   39.2050   34.4220   41.1330 H   0  0  0  0  0  0  0  0  0  0  0  0
   38.5150   29.9290   41.0410 C   0  0  0  0  0  0  0  0  0  0  0  0
   38.6480   29.2030   40.2100 H   0  0  0  0  0  0  0  0  0  0  0  0
   39.4500   29.9280   41.6090 H   0  0  0  0  0  0  0  0  0  0  0  0
   37.3500   29.3860   41.8770 C   0  0  0  0  0  3  0  0  0  0  0  0
   37.8140   28.9040   43.2140 C   0  0  0  0  0  2  0  0  0  0  0  0
   36.9820   27.7390   43.6800 C   0  0  0  0  0  2  0  0  0  0  0  0
   37.2450   26.6100   42.7100 C   0  0  0  0  0  2  0  0  0  0  0  0
   36.8170   26.9770   41.3260 C   0  0  0  0  0  2  0  0  0  0  0  0
   36.5270   28.4200   41.0970 C   0  0  0  0  0  2  0  0  0  0  0  0
  1  6  2  0  0  0  0
  1  2  1  0  0  0  0
  2  3  2  0  0  0  0
  3  4  1  0  0  0  0
  3  9  1  0  0  0  0
  5 10  1  0  0  0  0
  5  4  2  0  0  0  0
  6  5  1  0  0  0  0
  7  1  1  0  0  0  0
  8  2  1  0  0  0  0
 10 12  1  0  0  0  0
 10 13  1  0  0  0  0
 11 10  1  0  0  0  0
 13 14  1  0  0  0  0
 14 15  1  0  0  0  0
 16 15  1  0  0  0  0
 17 16  1  0  0  0  0
 18 17  1  0  0  0  0
 18 13  1  0  0  0  0
M  END
>  <minimizedAffinity>
-4.2689209

$$$$

 OpenBabel03242523293D

 18 19  0  0  0  0  0  0  0  0999 V2000
   39.4900   32.7540   40.8330 C   0  0  0  0  0  0  0  0  0  0  0  0
   38.8110   33.6510   40.0100 C   0  0  0  0  0  0  0  0  0  0  0  0
   37.5050   33.3380   39.6530 C   0  0  0  0  0  0  0  0  0  0  0  0
   36.9490   32.1860   40.1120 N   0  0  0  0  0  0  0  0  0  0  0  0
   37.6330   31.3280   40.9150 C   0  0  0  0  0  0  0  0  0  0  0  0
   38.8830   31.6290   41.2560 N   0  0  0  0  0  0  0  0  0  0  0  0
   40.5080   33.0120   41.1030 H   0  0  0  0  0  0  0  0  0  0  0  0
   39.2210   34.5770   39.6240 H   0  0  0  0  0  0  0  0  0  0  0  0
   36.9380   34.0120   39.0100 H   0  0  0  0  0  0  0  0  0  0  0  0
   36.9020   30.1080   41.3420 C   0  0  0  0  0  0  0  0  0  0  0  0
   36.1650   30.3470   42.1390 H   0  0  0  0  0  0  0  0  0  0  0  0
   36.3370   29.6580   40.5190 H   0  0  0  0  0  0  0  0  0  0  0  0
   37.8750   29.1050   41.9700 C   0  0  0  0  0  3  0  0  0  0  0  0
   38.1430   27.9550   41.0520 C   0  0  0  0  0  2  0  0  0  0  0  0
   38.3800   26.6910   41.8360 C   0  0  0  0  0  2  0  0  0  0  0  0
   37.0800   26.3740   42.5400 C   0  0  0  0  0  2  0  0  0  0  0  0
   36.7040   27.4620   43.4930 C   0  0  0  0  0  2  0  0  0  0  0  0
   37.4580   28.7380   43.3530 C   0  0  0  0  0  2  0  0  0  0  0  0
  1  7  1  0  0  0  0
  1  6  1  0  0  0  0
  2  1  2  0  0  0  0
  3  2  1  0  0  0  0
  3  4  2  0  0  0  0
  4  5  1  0  0  0  0
  5  6  2  0  0  0  0
  5 10  1  0  0  0  0
  8  2  1  0  0  0  0
  9  3  1  0  0  0  0
 10 13  1  0  0  0  0
 10 11  1  0  0  0  0
 12 10  1  0  0  0  0
 13 18  1  0  0  0  0
 14 15  1  0  0  0  0
 14 13  1  0  0  0  0
 15 16  1  0  0  0  0
 16 17  1  0  0  0  0
 18 17  1  0  0  0  0
M  END
>  <minimizedAffinity>
-4.21260309

$$$$

 OpenBabel03242523293D

 18 19  0  0  0  0  0  0  0  0999 V2000
   37.1420   26.9920   41.3370 C   0  0  0  0  0  0  0  0  0  0  0  0
   37.5480   26.8150   42.6600 C   0  0  0  0  0  0  0  0  0  0  0  0
   37.6230   27.9440   43.4670 C   0  0  0  0  0  0  0  0  0  0  0  0
   37.3030   29.1570   42.9440 N   0  0  0  0  0  0  0  0  0  0  0  0
   36.9090   29.3010   41.6510 C   0  0  0  0  0  0  0  0  0  0  0  0
   36.8380   28.2200   40.8790 N   0  0  0  0  0  0  0  0  0  0  0  0
   37.0880   26.1020   40.7190 H   0  0  0  0  0  0  0  0  0  0  0  0
   37.8110   25.8650   43.1100 H   0  0  0  0  0  0  0  0  0  0  0  0
   37.9360   27.8510   44.5070 H   0  0  0  0  0  0  0  0  0  0  0  0
   36.5900   30.6840   41.2150 C   0  0  0  0  0  0  0  0  0  0  0  0
   35.6440   30.7080   40.6330 H   0  0  0  0  0  0  0  0  0  0  0  0
   36.4520   31.3610   42.0640 H   0  0  0  0  0  0  0  0  0  0  0  0
   37.6730   31.1970   40.2590 C   0  0  0  0  0  3  0  0  0  0  0  0
   38.8410   31.7580   41.0050 C   0  0  0  0  0  2  0  0  0  0  0  0
   39.4660   32.8950   40.2390 C   0  0  0  0  0  2  0  0  0  0  0  0
   38.4310   33.9950   40.1860 C   0  0  0  0  0  2  0  0  0  0  0  0
   37.2060   33.5480   39.4570 C   0  0  0  0  0  2  0  0  0  0  0  0
   37.0940   32.0840   39.2100 C   0  0  0  0  0  2  0  0  0  0  0  0
  1  2  1  0  0  0  0
  2  8  1  0  0  0  0
  2  3  2  0  0  0  0
  3  9  1  0  0  0  0
  4  3  1  0  0  0  0
  5  4  2  0  0  0  0
  6  1  2  0  0  0  0
  6  5  1  0  0  0  0
  7  1  1  0  0  0  0
 10  5  1  0  0  0  0
 10 12  1  0  0  0  0
 11 10  1  0  0  0  0
 13 14  1  0  0  0  0
 13 10  1  0  0  0  0
 15 14  1  0  0  0  0
 16 15  1  0  0  0  0
 17 16  1  0  0  0  0
 18 17  1  0  0  0  0
 18 13  1  0  0  0  0
M  END
>  <minimizedAffinity>
-4.17280722

$$$$

 OpenBabel03242523293D

 18 19  0  0  0  0  0  0  0  0999 V2000
   38.6540   33.7650   40.3160 C   0  0  0  0  0  0  0  0  0  0  0  0
   37.4980   33.4180   39.6170 C   0  0  0  0  0  0  0  0  0  0  0  0
   37.0060   32.1290   39.7840 C   0  0  0  0  0  0  0  0  0  0  0  0
   37.6610   31.2700   40.6080 N   0  0  0  0  0  0  0  0  0  0  0  0
   38.7870   31.6330   41.2770 C   0  0  0  0  0  0  0  0  0  0  0  0
   39.2570   32.8670   41.1170 N   0  0  0  0  0  0  0  0  0  0  0  0
   39.0270   34.7740   40.1750 H   0  0  0  0  0  0  0  0  0  0  0  0
   36.9500   34.0760   38.9530 H   0  0  0  0  0  0  0  0  0  0  0  0
   36.1040   31.8170   39.2560 H   0  0  0  0  0  0  0  0  0  0  0  0
   39.3980   30.5930   42.1420 C   0  0  0  0  0  0  0  0  0  0  0  0
   40.4120   30.3210   41.7790 H   0  0  0  0  0  0  0  0  0  0  0  0
   39.5180   30.9350   43.1750 H   0  0  0  0  0  0  0  0  0  0  0  0
   38.5760   29.3010   42.0710 C   0  0  0  0  0  3  0  0  0  0  0  0
   37.9360   28.9870   43.3860 C   0  0  0  0  0  2  0  0  0  0  0  0
   37.8360   27.4980   43.5880 C   0  0  0  0  0  2  0  0  0  0  0  0
   39.2550   26.9820   43.6760 C   0  0  0  0  0  2  0  0  0  0  0  0
   40.0010   27.2410   42.4090 C   0  0  0  0  0  2  0  0  0  0  0  0
   39.3610   28.1920   41.4590 C   0  0  0  0  0  2  0  0  0  0  0  0
  1  6  1  0  0  0  0
  2  3  1  0  0  0  0
  2  1  2  0  0  0  0
  3  4  2  0  0  0  0
  4  5  1  0  0  0  0
  5 10  1  0  0  0  0
  6  5  2  0  0  0  0
  7  1  1  0  0  0  0
  8  2  1  0  0  0  0
  9  3  1  0  0  0  0
 10 12  1  0  0  0  0
 11 10  1  0  0  0  0
 13 10  1  0  0  0  0
 13 14  1  0  0  0  0
 14 15  1  0  0  0  0
 15 16  1  0  0  0  0
 17 16  1  0  0  0  0
 18 13  1  0  0  0  0
 18 17  1  0  0  0  0
M  END
>  <minimizedAffinity>
-4.16991758

$$$$

 OpenBabel03242523293D

 18 19  0  0  0  0  0  0  0  0999 V2000
   40.0670   25.6330   43.6790 C   0  0  0  0  0  0  0  0  0  0  0  0
   39.8410   24.4050   43.0580 C   0  0  0  0  0  0  0  0  0  0  0  0
   38.6930   24.2740   42.2860 C   0  0  0  0  0  0  0  0  0  0  0  0
   37.8470   25.3320   42.1680 N   0  0  0  0  0  0  0  0  0  0  0  0
   38.0920   26.5190   42.7850 C   0  0  0  0  0  0  0  0  0  0  0  0
   39.1910   26.6430   43.5240 N   0  0  0  0  0  0  0  0  0  0  0  0
   40.9670   25.7200   44.2790 H   0  0  0  0  0  0  0  0  0  0  0  0
   40.4910   23.5410   43.1300 H   0  0  0  0  0  0  0  0  0  0  0  0
   38.4780   23.3310   41.7830 H   0  0  0  0  0  0  0  0  0  0  0  0
   37.0840   27.5870   42.5690 C   0  0  0  0  0  0  0  0  0  0  0  0
   36.1050   27.1540   42.2700 H   0  0  0  0  0  0  0  0  0  0  0  0
   36.9010   28.1700   43.4770 H   0  0  0  0  0  0  0  0  0  0  0  0
   37.5090   28.4840   41.4020 C   0  0  0  0  0  3  0  0  0  0  0  0
   38.0250   29.8020   41.8850 C   0  0  0  0  0  2  0  0  0  0  0  0
   37.7000   30.8950   40.9000 C   0  0  0  0  0  2  0  0  0  0  0  0
   36.1930   31.0150   40.8760 C   0  0  0  0  0  2  0  0  0  0  0  0
   35.5590   29.7470   40.4050 C   0  0  0  0  0  2  0  0  0  0  0  0
   36.4490   28.5540   40.3570 C   0  0  0  0  0  2  0  0  0  0  0  0
  1  7  1  0  0  0  0
  2  8  1  0  0  0  0
  2  1  2  0  0  0  0
  3  2  1  0  0  0  0
  4  3  2  0  0  0  0
  4  5  1  0  0  0  0
  5  6  2  0  0  0  0
  6  1  1  0  0  0  0
  9  3  1  0  0  0  0
 10  5  1  0  0  0  0
 10 12  1  0  0  0  0
 11 10  1  0  0  0  0
 13 14  1  0  0  0  0
 13 10  1  0  0  0  0
 15 14  1  0  0  0  0
 16 15  1  0  0  0  0
 17 16  1  0  0  0  0
 18 17  1  0  0  0  0
 18 13  1  0  0  0  0
M  END
>  <minimizedAffinity>
-4.09165335

$$$$

 OpenBabel03242523293D

 18 19  0  0  0  0  0  0  0  0999 V2000
   37.0160   31.1360   38.1440 C   0  0  0  0  0  0  0  0  0  0  0  0
   37.2940   32.3390   38.7940 C   0  0  0  0  0  0  0  0  0  0  0  0
   37.1250   32.3810   40.1730 C   0  0  0  0  0  0  0  0  0  0  0  0
   36.7010   31.2660   40.8250 N   0  0  0  0  0  0  0  0  0  0  0  0
   36.4370   30.1060   40.1670 C   0  0  0  0  0  0  0  0  0  0  0  0
   36.5990   30.0670   38.8470 N   0  0  0  0  0  0  0  0  0  0  0  0
   37.1520   31.1190   37.0690 H   0  0  0  0  0  0  0  0  0  0  0  0
   37.6330   33.2460   38.3080 H   0  0  0  0  0  0  0  0  0  0  0  0
   37.3320   33.3020   40.7200 H   0  0  0  0  0  0  0  0  0  0  0  0
   35.9820   28.9690   41.0050 C   0  0  0  0  0  0  0  0  0  0  0  0
   35.0890   29.2510   41.6040 H   0  0  0  0  0  0  0  0  0  0  0  0
   35.6910   28.1030   40.4020 H   0  0  0  0  0  0  0  0  0  0  0  0
   37.0630   28.6030   42.0280 C   0  0  0  0  0  3  0  0  0  0  0  0
   38.3760   28.3340   41.3640 C   0  0  0  0  0  2  0  0  0  0  0  0
   39.1490   27.2850   42.1170 C   0  0  0  0  0  2  0  0  0  0  0  0
   38.3520   26.0050   42.0090 C   0  0  0  0  0  2  0  0  0  0  0  0
   37.0080   26.1520   42.6440 C   0  0  0  0  0  2  0  0  0  0  0  0
   36.5890   27.5450   42.9640 C   0  0  0  0  0  2  0  0  0  0  0  0
  1  2  2  0  0  0  0
  1  6  1  0  0  0  0
  2  3  1  0  0  0  0
  3  9  1  0  0  0  0
  3  4  2  0  0  0  0
  5  4  1  0  0  0  0
  5 10  1  0  0  0  0
  6  5  2  0  0  0  0
  7  1  1  0  0  0  0
  8  2  1  0  0  0  0
 10 11  1  0  0  0  0
 10 13  1  0  0  0  0
 12 10  1  0  0  0  0
 13 18  1  0  0  0  0
 14 13  1  0  0  0  0
 14 15  1  0  0  0  0
 16 15  1  0  0  0  0
 16 17  1  0  0  0  0
 17 18  1  0  0  0  0
M  END
>  <minimizedAffinity>
-4.0431447

$$$$

 OpenBabel03242523293D

 18 19  0  0  0  0  0  0  0  0999 V2000
   36.5270   31.3270   40.4460 C   0  0  0  0  0  0  0  0  0  0  0  0
   37.8360   31.7580   40.6630 C   0  0  0  0  0  0  0  0  0  0  0  0
   38.6960   30.8970   41.3330 C   0  0  0  0  0  0  0  0  0  0  0  0
   38.2350   29.6860   41.7460 N   0  0  0  0  0  0  0  0  0  0  0  0
   36.9550   29.2900   41.5210 C   0  0  0  0  0  0  0  0  0  0  0  0
   36.1320   30.1150   40.8790 N   0  0  0  0  0  0  0  0  0  0  0  0
   35.8670   32.0100   39.9220 H   0  0  0  0  0  0  0  0  0  0  0  0
   38.2370   32.7150   40.3490 H   0  0  0  0  0  0  0  0  0  0  0  0
   39.7280   31.1950   41.5240 H   0  0  0  0  0  0  0  0  0  0  0  0
   36.5890   27.9430   42.0260 C   0  0  0  0  0  0  0  0  0  0  0  0
   36.8470   27.8400   43.1020 H   0  0  0  0  0  0  0  0  0  0  0  0
   35.5150   27.7500   41.9430 H   0  0  0  0  0  0  0  0  0  0  0  0
   37.4100   26.8700   41.3040 C   0  0  0  0  0  3  0  0  0  0  0  0
   36.7570   26.4500   40.0260 C   0  0  0  0  0  2  0  0  0  0  0  0
   37.0300   24.9970   39.7400 C   0  0  0  0  0  2  0  0  0  0  0  0
   36.3530   24.2090   40.8380 C   0  0  0  0  0  2  0  0  0  0  0  0
   36.9260   24.5460   42.1750 C   0  0  0  0  0  2  0  0  0  0  0  0
   37.7860   25.7610   42.2260 C   0  0  0  0  0  2  0  0  0  0  0  0
  1  2  2  0  0  0  0
  1  6  1  0  0  0  0
  2  3  1  0  0  0  0
  3  9  1  0  0  0  0
  3  4  2  0  0  0  0
  5  4  1  0  0  0  0
  5 10  1  0  0  0  0
  6  5  2  0  0  0  0
  7  1  1  0  0  0  0
  8  2  1  0  0  0  0
 10 11  1  0  0  0  0
 12 10  1  0  0  0  0
 13 10  1  0  0  0  0
 13 18  1  0  0  0  0
 14 13  1  0  0  0  0
 15 14  1  0  0  0  0
 15 16  1  0  0  0  0
 16 17  1  0  0  0  0
 17 18  1  0  0  0  0
M  END
>  <minimizedAffinity>
-4.02448034

$$$$

 OpenBabel03242523293D

 18 19  0  0  0  0  0  0  0  0999 V2000
   39.5930   31.9870   38.5760 C   0  0  0  0  0  0  0  0  0  0  0  0
   40.0330   33.1390   39.2280 C   0  0  0  0  0  0  0  0  0  0  0  0
   39.4200   33.4750   40.4290 C   0  0  0  0  0  0  0  0  0  0  0  0
   38.4300   32.6790   40.9150 N   0  0  0  0  0  0  0  0  0  0  0  0
   38.0210   31.5610   40.2590 C   0  0  0  0  0  0  0  0  0  0  0  0
   38.6080   31.2410   39.1090 N   0  0  0  0  0  0  0  0  0  0  0  0
   40.0810   31.7380   37.6400 H   0  0  0  0  0  0  0  0  0  0  0  0
   40.8180   33.7960   38.8710 H   0  0  0  0  0  0  0  0  0  0  0  0
   39.7340   34.3670   40.9720 H   0  0  0  0  0  0  0  0  0  0  0  0
   36.9300   30.7880   40.9050 C   0  0  0  0  0  0  0  0  0  0  0  0
   36.7120   31.1820   41.9200 H   0  0  0  0  0  0  0  0  0  0  0  0
   35.9950   30.8460   40.3400 H   0  0  0  0  0  0  0  0  0  0  0  0
   37.3700   29.3350   41.1150 C   0  0  0  0  0  3  0  0  0  0  0  0
   36.2050   28.4520   41.4360 C   0  0  0  0  0  2  0  0  0  0  0  0
   36.6180   27.3420   42.3660 C   0  0  0  0  0  2  0  0  0  0  0  0
   37.0210   27.9990   43.6670 C   0  0  0  0  0  2  0  0  0  0  0  0
   38.1860   28.9130   43.4700 C   0  0  0  0  0  2  0  0  0  0  0  0
   38.5200   29.2470   42.0580 C   0  0  0  0  0  2  0  0  0  0  0  0
  1  6  2  0  0  0  0
  1  2  1  0  0  0  0
  2  3  2  0  0  0  0
  3  4  1  0  0  0  0
  3  9  1  0  0  0  0
  5 10  1  0  0  0  0
  5  4  2  0  0  0  0
  6  5  1  0  0  0  0
  7  1  1  0  0  0  0
  8  2  1  0  0  0  0
 10 13  1  0  0  0  0
 10 11  1  0  0  0  0
 12 10  1  0  0  0  0
 13 14  1  0  0  0  0
 13 18  1  0  0  0  0
 14 15  1  0  0  0  0
 15 16  1  0  0  0  0
 17 16  1  0  0  0  0
 18 17  1  0  0  0  0
M  END
>  <minimizedAffinity>
-3.96630144

$$$$

 OpenBabel03242523293D

 18 19  0  0  0  0  0  0  0  0999 V2000
   34.8160   28.9460   39.6010 C   0  0  0  0  0  0  0  0  0  0  0  0
   35.3800   29.1170   38.3370 C   0  0  0  0  0  0  0  0  0  0  0  0
   36.6630   29.6480   38.2690 C   0  0  0  0  0  0  0  0  0  0  0  0
   37.3080   29.9750   39.4200 N   0  0  0  0  0  0  0  0  0  0  0  0
   36.7360   29.7970   40.6400 C   0  0  0  0  0  0  0  0  0  0  0  0
   35.5080   29.2900   40.7040 N   0  0  0  0  0  0  0  0  0  0  0  0
   33.8150   28.5310   39.6390 H   0  0  0  0  0  0  0  0  0  0  0  0
   34.8960   28.8690   37.4000 H   0  0  0  0  0  0  0  0  0  0  0  0
   37.1410   29.7980   37.3010 H   0  0  0  0  0  0  0  0  0  0  0  0
   37.5550   30.1980   41.8110 C   0  0  0  0  0  0  0  0  0  0  0  0
   38.3960   30.8550   41.5000 H   0  0  0  0  0  0  0  0  0  0  0  0
   36.9740   30.7630   42.5460 H   0  0  0  0  0  0  0  0  0  0  0  0
   38.2110   28.9640   42.4420 C   0  0  0  0  0  3  0  0  0  0  0  0
   38.4380   27.8880   41.4280 C   0  0  0  0  0  2  0  0  0  0  0  0
   38.3070   26.5270   42.0580 C   0  0  0  0  0  2  0  0  0  0  0  0
   36.8660   26.3950   42.4980 C   0  0  0  0  0  2  0  0  0  0  0  0
   36.5180   27.4270   43.5200 C   0  0  0  0  0  2  0  0  0  0  0  0
   37.4940   28.5410   43.6770 C   0  0  0  0  0  2  0  0  0  0  0  0
  1  7  1  0  0  0  0
  1  6  1  0  0  0  0
  2  1  2  0  0  0  0
  3  2  1  0  0  0  0
  3  4  2  0  0  0  0
  4  5  1  0  0  0  0
  5  6  2  0  0  0  0
  5 10  1  0  0  0  0
  8  2  1  0  0  0  0
  9  3  1  0  0  0  0
 10 13  1  0  0  0  0
 10 12  1  0  0  0  0
 11 10  1  0  0  0  0
 13 18  1  0  0  0  0
 14 15  1  0  0  0  0
 14 13  1  0  0  0  0
 15 16  1  0  0  0  0
 16 17  1  0  0  0  0
 17 18  1  0  0  0  0
M  END
>  <minimizedAffinity>
-3.96629071

$$$$
