
 OpenBabel03252506443D

 37 40  0  0  1  0  0  0  0  0999 V2000
   37.1990   30.0330   40.7170 N   0  0  1  0  0  0  0  0  0  0  0  0
   37.6310   31.3860   41.0630 C   0  0  0  0  0  0  0  0  0  0  0  0
   37.4410   32.3860   39.9790 C   0  0  0  0  0  0  0  0  0  0  0  0
   38.3100   32.0460   38.8060 C   0  0  0  0  0  0  0  0  0  0  0  0
   38.4720   30.5760   38.6570 C   0  0  0  0  0  0  0  0  0  0  0  0
   37.3190   29.8560   39.3030 C   0  0  2  0  0  0  0  0  0  0  0  0
   37.1370   31.7650   41.9810 H   0  0  0  0  0  0  0  0  0  0  0  0
   38.7150   31.3650   41.2980 H   0  0  0  0  0  0  0  0  0  0  0  0
   37.8590   33.3380   40.3860 H   0  0  0  0  0  0  0  0  0  0  0  0
   36.3960   32.6460   39.7360 H   0  0  0  0  0  0  0  0  0  0  0  0
   37.9270   32.5080   37.8520 H   0  0  0  0  0  0  0  0  0  0  0  0
   39.3300   32.4760   38.9130 H   0  0  0  0  0  0  0  0  0  0  0  0
   38.5670   30.2220   37.6320 H   0  0  0  0  0  0  0  0  0  0  0  0
   39.4010   30.2200   39.1910 H   0  0  0  0  0  0  0  0  0  0  0  0
   37.6630   28.7830   39.1980 H   0  0  0  0  0  0  0  0  0  0  0  0
   37.4990   28.1820   42.4830 C   0  0  1  0  0  0  0  0  0  0  0  0
   38.1530   29.4280   42.9210 C   0  0  0  0  0  0  0  0  0  0  0  0
   38.0220   29.1450   41.4680 C   0  0  2  0  0  0  0  0  0  0  0  0
   36.4260   28.1120   42.7260 H   0  0  0  0  0  0  0  0  0  0  0  0
   39.1960   29.3620   43.3150 H   0  0  0  0  0  0  0  0  0  0  0  0
   37.6000   30.2700   43.3860 H   0  0  0  0  0  0  0  0  0  0  0  0
   38.9120   28.7750   40.8960 H   0  0  0  0  0  0  0  0  0  0  0  0
   39.3400   26.8140   43.4900 C   0  0  0  0  0  0  0  0  0  0  0  0
   38.1990   26.8750   42.6620 C   0  0  0  0  0  0  0  0  0  0  0  0
   37.7400   25.7040   42.0360 C   0  0  0  0  0  0  0  0  0  0  0  0
   38.4280   24.5520   42.2600 N   0  0  0  0  0  0  0  0  0  0  0  0
   39.5290   24.5230   43.0670 C   0  0  0  0  0  0  0  0  0  0  0  0
   39.9880   25.6330   43.6800 N   0  0  0  0  0  0  0  0  0  0  0  0
   39.6390   27.7420   43.9400 H   0  0  0  0  0  0  0  0  0  0  0  0
   36.8810   25.7510   41.4110 H   0  0  0  0  0  0  0  0  0  0  0  0
   40.0040   23.5510   43.1780 H   0  0  0  0  0  0  0  0  0  0  0  0
   36.0530   29.8740   38.5300 C   0  0  0  0  0  3  0  0  0  0  0  0
   35.0070   29.1480   39.3890 C   0  0  0  0  0  2  0  0  0  0  0  0
   33.7100   28.9830   38.6400 C   0  0  0  0  0  2  0  0  0  0  0  0
   33.9110   28.3350   37.2900 C   0  0  0  0  0  2  0  0  0  0  0  0
   34.9670   28.9850   36.4540 C   0  0  0  0  0  2  0  0  0  0  0  0
   36.2540   29.1920   37.2180 C   0  0  0  0  0  2  0  0  0  0  0  0
  1  2  1  6  0  0  0
  1 18  1  0  0  0  0
  2  8  1  0  0  0  0
  2  7  1  0  0  0  0
  3  9  1  0  0  0  0
  3  2  1  0  0  0  0
  4 12  1  0  0  0  0
  4  3  1  0  0  0  0
  5  4  1  0  0  0  0
  5 14  1  0  0  0  0
  5  6  1  0  0  0  0
  6 15  1  6  0  0  0
  6  1  1  0  0  0  0
 10  3  1  0  0  0  0
 11  4  1  0  0  0  0
 13  5  1  0  0  0  0
 16 24  1  0  0  0  0
 16 19  1  1  0  0  0
 16 17  1  0  0  0  0
 17 20  1  0  0  0  0
 17 21  1  0  0  0  0
 18 22  1  6  0  0  0
 18 16  1  0  0  0  0
 18 17  1  0  0  0  0
 23 28  1  0  0  0  0
 23 29  1  0  0  0  0
 24 23  2  0  0  0  0
 25 26  2  0  0  0  0
 25 24  1  0  0  0  0
 26 27  1  0  0  0  0
 27 31  1  0  0  0  0
 27 28  2  0  0  0  0
 30 25  1  0  0  0  0
 32  6  1  0  0  0  0
 32 33  1  0  0  0  0
 34 33  1  0  0  0  0
 35 34  1  0  0  0  0
 36 37  1  0  0  0  0
 36 35  1  0  0  0  0
 37 32  1  0  0  0  0
M  END
>  <minimizedAffinity>
-5.53056622

$$$$

 OpenBabel03252506443D

 37 40  0  0  1  0  0  0  0  0999 V2000
   37.3600   30.1690   40.8160 N   0  0  1  0  0  0  0  0  0  0  0  0
   35.9790   30.4730   40.4470 C   0  0  0  0  0  0  0  0  0  0  0  0
   35.1020   29.2800   40.3160 C   0  0  0  0  0  0  0  0  0  0  0  0
   35.5690   28.4190   39.1810 C   0  0  0  0  0  0  0  0  0  0  0  0
   37.0470   28.4720   39.0310 C   0  0  0  0  0  0  0  0  0  0  0  0
   37.6900   28.8630   40.3350 C   0  0  2  0  0  0  0  0  0  0  0  0
   35.5020   31.1840   41.1520 H   0  0  0  0  0  0  0  0  0  0  0  0
   35.9770   30.9870   39.4630 H   0  0  0  0  0  0  0  0  0  0  0  0
   34.1130   29.6810   39.9900 H   0  0  0  0  0  0  0  0  0  0  0  0
   34.8670   28.7440   41.2520 H   0  0  0  0  0  0  0  0  0  0  0  0
   35.2120   27.3550   39.2870 H   0  0  0  0  0  0  0  0  0  0  0  0
   35.1330   28.7450   38.2120 H   0  0  0  0  0  0  0  0  0  0  0  0
   37.5110   27.5500   38.6830 H   0  0  0  0  0  0  0  0  0  0  0  0
   37.3460   29.2650   38.2860 H   0  0  0  0  0  0  0  0  0  0  0  0
   38.7690   28.9640   40.0090 H   0  0  0  0  0  0  0  0  0  0  0  0
   38.8560   32.2540   41.0440 C   0  0  1  0  0  0  0  0  0  0  0  0
   37.6200   32.5790   40.3100 C   0  0  0  0  0  0  0  0  0  0  0  0
   38.1640   31.1980   40.2450 C   0  0  2  0  0  0  0  0  0  0  0  0
   38.7700   32.3080   42.1410 H   0  0  0  0  0  0  0  0  0  0  0  0
   37.7110   33.1600   39.3610 H   0  0  0  0  0  0  0  0  0  0  0  0
   36.6520   32.7840   40.8140 H   0  0  0  0  0  0  0  0  0  0  0  0
   38.7240   30.8690   39.3320 H   0  0  0  0  0  0  0  0  0  0  0  0
   41.3590   32.2910   41.1320 C   0  0  0  0  0  0  0  0  0  0  0  0
   40.1660   32.7800   40.5580 C   0  0  0  0  0  0  0  0  0  0  0  0
   40.2380   33.7410   39.5360 C   0  0  0  0  0  0  0  0  0  0  0  0
   41.4720   34.1590   39.1430 N   0  0  0  0  0  0  0  0  0  0  0  0
   42.6090   33.6680   39.7170 C   0  0  0  0  0  0  0  0  0  0  0  0
   42.5650   32.7450   40.6990 N   0  0  0  0  0  0  0  0  0  0  0  0
   41.2350   31.5580   41.9080 H   0  0  0  0  0  0  0  0  0  0  0  0
   39.3390   34.1100   39.1050 H   0  0  0  0  0  0  0  0  0  0  0  0
   43.5420   34.0700   39.3290 H   0  0  0  0  0  0  0  0  0  0  0  0
   37.7530   27.7860   41.3540 C   0  0  0  0  0  3  0  0  0  0  0  0
   38.3590   28.4150   42.6170 C   0  0  0  0  0  2  0  0  0  0  0  0
   38.6000   27.3740   43.6790 C   0  0  0  0  0  2  0  0  0  0  0  0
   39.4090   26.2090   43.1600 C   0  0  0  0  0  2  0  0  0  0  0  0
   38.8760   25.6130   41.8960 C   0  0  0  0  0  2  0  0  0  0  0  0
   38.5910   26.6600   40.8450 C   0  0  0  0  0  2  0  0  0  0  0  0
  1  2  1  6  0  0  0
  2  7  1  0  0  0  0
  3  2  1  0  0  0  0
  3 10  1  0  0  0  0
  4 11  1  0  0  0  0
  4  3  1  0  0  0  0
  5  4  1  0  0  0  0
  5  6  1  0  0  0  0
  6 15  1  6  0  0  0
  6  1  1  0  0  0  0
  6 32  1  0  0  0  0
  8  2  1  0  0  0  0
  9  3  1  0  0  0  0
 12  4  1  0  0  0  0
 13  5  1  0  0  0  0
 14  5  1  0  0  0  0
 16 19  1  1  0  0  0
 17 21  1  0  0  0  0
 17 16  1  0  0  0  0
 18 22  1  6  0  0  0
 18 17  1  0  0  0  0
 18  1  1  0  0  0  0
 18 16  1  0  0  0  0
 20 17  1  0  0  0  0
 23 29  1  0  0  0  0
 24 16  1  0  0  0  0
 24 23  2  0  0  0  0
 25 24  1  0  0  0  0
 26 25  2  0  0  0  0
 26 27  1  0  0  0  0
 27 28  2  0  0  0  0
 28 23  1  0  0  0  0
 30 25  1  0  0  0  0
 31 27  1  0  0  0  0
 32 33  1  0  0  0  0
 33 34  1  0  0  0  0
 35 34  1  0  0  0  0
 36 35  1  0  0  0  0
 37 32  1  0  0  0  0
 37 36  1  0  0  0  0
M  END
>  <minimizedAffinity>
-5.12611818

$$$$

 OpenBabel03252506443D

 37 40  0  0  1  0  0  0  0  0999 V2000
   38.9080   28.3920   41.0940 N   0  0  1  0  0  0  0  0  0  0  0  0
   39.3690   27.4600   42.1200 C   0  0  0  0  0  0  0  0  0  0  0  0
   38.2770   26.7980   42.8830 C   0  0  0  0  0  0  0  0  0  0  0  0
   37.5120   27.8150   43.6750 C   0  0  0  0  0  0  0  0  0  0  0  0
   37.4540   29.1220   42.9700 C   0  0  0  0  0  0  0  0  0  0  0  0
   37.6400   28.9250   41.4890 C   0  0  2  0  0  0  0  0  0  0  0  0
   40.0350   26.6740   41.7070 H   0  0  0  0  0  0  0  0  0  0  0  0
   39.9880   28.0140   42.8550 H   0  0  0  0  0  0  0  0  0  0  0  0
   38.7960   26.1660   43.6430 H   0  0  0  0  0  0  0  0  0  0  0  0
   37.6620   26.0730   42.3210 H   0  0  0  0  0  0  0  0  0  0  0  0
   36.4780   27.4510   43.9360 H   0  0  0  0  0  0  0  0  0  0  0  0
   37.9810   28.0010   44.6650 H   0  0  0  0  0  0  0  0  0  0  0  0
   36.5410   29.6930   43.1270 H   0  0  0  0  0  0  0  0  0  0  0  0
   38.2970   29.7940   43.3030 H   0  0  0  0  0  0  0  0  0  0  0  0
   37.6840   30.0010   41.1430 H   0  0  0  0  0  0  0  0  0  0  0  0
   40.1410   30.2030   39.7400 C   0  0  1  0  0  0  0  0  0  0  0  0
   41.0440   29.0790   40.0470 C   0  0  0  0  0  0  0  0  0  0  0  0
   39.9220   29.3860   40.9710 C   0  0  2  0  0  0  0  0  0  0  0  0
   39.5300   30.0710   38.8320 H   0  0  0  0  0  0  0  0  0  0  0  0
   42.0570   29.3160   40.4520 H   0  0  0  0  0  0  0  0  0  0  0  0
   41.0550   28.1350   39.4630 H   0  0  0  0  0  0  0  0  0  0  0  0
   40.1290   29.9300   41.9290 H   0  0  0  0  0  0  0  0  0  0  0  0
   42.0050   31.8770   39.7240 C   0  0  0  0  0  0  0  0  0  0  0  0
   40.6300   31.6070   39.8860 C   0  0  0  0  0  0  0  0  0  0  0  0
   39.7490   32.6650   40.1680 C   0  0  0  0  0  0  0  0  0  0  0  0
   40.2740   33.9160   40.2730 N   0  0  0  0  0  0  0  0  0  0  0  0
   41.6100   34.1480   40.1120 C   0  0  0  0  0  0  0  0  0  0  0  0
   42.4740   33.1480   39.8400 N   0  0  0  0  0  0  0  0  0  0  0  0
   42.6240   31.0250   39.5100 H   0  0  0  0  0  0  0  0  0  0  0  0
   38.7130   32.4610   40.2900 H   0  0  0  0  0  0  0  0  0  0  0  0
   41.9220   35.1830   40.2170 H   0  0  0  0  0  0  0  0  0  0  0  0
   36.4540   28.3960   40.7700 C   0  0  0  0  0  3  0  0  0  0  0  0
   36.9750   27.7820   39.4620 C   0  0  0  0  0  2  0  0  0  0  0  0
   35.8370   27.3340   38.5830 C   0  0  0  0  0  2  0  0  0  0  0  0
   34.8290   28.4370   38.3520 C   0  0  0  0  0  2  0  0  0  0  0  0
   34.3490   29.0940   39.6070 C   0  0  0  0  0  2  0  0  0  0  0  0
   35.4880   29.5030   40.5110 C   0  0  0  0  0  2  0  0  0  0  0  0
  1  6  1  0  0  0  0
  1  2  1  1  0  0  0
  2  8  1  0  0  0  0
  2  3  1  0  0  0  0
  3  9  1  0  0  0  0
  3  4  1  0  0  0  0
  4 11  1  0  0  0  0
  4 12  1  0  0  0  0
  5 13  1  0  0  0  0
  5 14  1  0  0  0  0
  5  4  1  0  0  0  0
  6 15  1  6  0  0  0
  6  5  1  0  0  0  0
  7  2  1  0  0  0  0
 10  3  1  0  0  0  0
 16 19  1  6  0  0  0
 16 24  1  0  0  0  0
 16 17  1  0  0  0  0
 16 18  1  0  0  0  0
 17 20  1  0  0  0  0
 17 18  1  0  0  0  0
 18  1  1  0  0  0  0
 18 22  1  1  0  0  0
 21 17  1  0  0  0  0
 23 28  2  0  0  0  0
 23 24  1  0  0  0  0
 24 25  2  0  0  0  0
 25 26  1  0  0  0  0
 25 30  1  0  0  0  0
 27 31  1  0  0  0  0
 27 26  2  0  0  0  0
 28 27  1  0  0  0  0
 29 23  1  0  0  0  0
 32  6  1  0  0  0  0
 33 32  1  0  0  0  0
 34 33  1  0  0  0  0
 35 34  1  0  0  0  0
 35 36  1  0  0  0  0
 36 37  1  0  0  0  0
 37 32  1  0  0  0  0
M  END
>  <minimizedAffinity>
-5.02318382

$$$$

 OpenBabel03252506443D

 37 40  0  0  1  0  0  0  0  0999 V2000
   39.2690   31.9630   41.1070 N   0  0  1  0  0  0  0  0  0  0  0  0
   38.6190   33.0870   40.4370 C   0  0  0  0  0  0  0  0  0  0  0  0
   37.2510   32.7930   39.9310 C   0  0  0  0  0  0  0  0  0  0  0  0
   37.3130   31.7520   38.8550 C   0  0  0  0  0  0  0  0  0  0  0  0
   38.4120   30.7800   39.1000 C   0  0  0  0  0  0  0  0  0  0  0  0
   38.7580   30.7420   40.5640 C   0  0  2  0  0  0  0  0  0  0  0  0
   38.5690   33.9890   41.0810 H   0  0  0  0  0  0  0  0  0  0  0  0
   39.2310   33.3830   39.5610 H   0  0  0  0  0  0  0  0  0  0  0  0
   36.9250   33.7270   39.4160 H   0  0  0  0  0  0  0  0  0  0  0  0
   36.4730   32.6360   40.6990 H   0  0  0  0  0  0  0  0  0  0  0  0
   36.3270   31.2210   38.7280 H   0  0  0  0  0  0  0  0  0  0  0  0
   37.4970   32.2040   37.8560 H   0  0  0  0  0  0  0  0  0  0  0  0
   38.2130   29.7630   38.7680 H   0  0  0  0  0  0  0  0  0  0  0  0
   39.3540   31.0990   38.5650 H   0  0  0  0  0  0  0  0  0  0  0  0
   39.6610   30.0610   40.5440 H   0  0  0  0  0  0  0  0  0  0  0  0
   41.3970   31.6320   39.6950 C   0  0  1  0  0  0  0  0  0  0  0  0
   41.5010   30.8990   40.9700 C   0  0  0  0  0  0  0  0  0  0  0  0
   40.6690   32.1280   40.9010 C   0  0  2  0  0  0  0  0  0  0  0  0
   40.8870   31.0830   38.8870 H   0  0  0  0  0  0  0  0  0  0  0  0
   42.4420   31.0060   41.5620 H   0  0  0  0  0  0  0  0  0  0  0  0
   41.0320   29.9060   41.1370 H   0  0  0  0  0  0  0  0  0  0  0  0
   41.0690   33.0880   41.3190 H   0  0  0  0  0  0  0  0  0  0  0  0
   43.8690   32.0170   39.5700 C   0  0  0  0  0  0  0  0  0  0  0  0
   42.5680   32.4100   39.1910 C   0  0  0  0  0  0  0  0  0  0  0  0
   42.4030   33.5140   38.3380 C   0  0  0  0  0  0  0  0  0  0  0  0
   43.5230   34.1610   37.9140 N   0  0  0  0  0  0  0  0  0  0  0  0
   44.7700   33.7590   38.2980 C   0  0  0  0  0  0  0  0  0  0  0  0
   44.9530   32.7010   39.1150 N   0  0  0  0  0  0  0  0  0  0  0  0
   43.9270   31.1660   40.2230 H   0  0  0  0  0  0  0  0  0  0  0  0
   41.4220   33.8100   38.0540 H   0  0  0  0  0  0  0  0  0  0  0  0
   45.5950   34.3460   37.9020 H   0  0  0  0  0  0  0  0  0  0  0  0
   37.8010   29.9950   41.4180 C   0  0  0  0  0  3  0  0  0  0  0  0
   38.5400   29.6770   42.7260 C   0  0  0  0  0  2  0  0  0  0  0  0
   37.7060   28.7950   43.6190 C   0  0  0  0  0  2  0  0  0  0  0  0
   37.2240   27.5550   42.9030 C   0  0  0  0  0  2  0  0  0  0  0  0
   36.5520   27.8300   41.5950 C   0  0  0  0  0  2  0  0  0  0  0  0
   37.3660   28.7510   40.7170 C   0  0  0  0  0  2  0  0  0  0  0  0
  1  2  1  6  0  0  0
  2  7  1  0  0  0  0
  3  2  1  0  0  0  0
  3 10  1  0  0  0  0
  4  5  1  0  0  0  0
  4  3  1  0  0  0  0
  5  6  1  0  0  0  0
  6 15  1  1  0  0  0
  6  1  1  0  0  0  0
  6 32  1  0  0  0  0
  8  2  1  0  0  0  0
  9  3  1  0  0  0  0
 11  4  1  0  0  0  0
 12  4  1  0  0  0  0
 13  5  1  0  0  0  0
 14  5  1  0  0  0  0
 16 19  1  6  0  0  0
 16 18  1  0  0  0  0
 16 17  1  0  0  0  0
 17 21  1  0  0  0  0
 17 20  1  0  0  0  0
 18 17  1  0  0  0  0
 18  1  1  0  0  0  0
 18 22  1  1  0  0  0
 23 29  1  0  0  0  0
 24 23  1  0  0  0  0
 24 16  1  0  0  0  0
 25 24  2  0  0  0  0
 26 27  2  0  0  0  0
 26 25  1  0  0  0  0
 27 28  1  0  0  0  0
 28 23  2  0  0  0  0
 30 25  1  0  0  0  0
 31 27  1  0  0  0  0
 32 33  1  0  0  0  0
 33 34  1  0  0  0  0
 35 34  1  0  0  0  0
 36 35  1  0  0  0  0
 37 32  1  0  0  0  0
 37 36  1  0  0  0  0
M  END
>  <minimizedAffinity>
-5.018538

$$$$

 OpenBabel03252506443D

 37 40  0  0  1  0  0  0  0  0999 V2000
   37.0740   29.9700   39.3110 N   0  0  1  0  0  0  0  0  0  0  0  0
   35.8850   30.0210   38.4640 C   0  0  0  0  0  0  0  0  0  0  0  0
   34.9170   28.9170   38.6970 C   0  0  0  0  0  0  0  0  0  0  0  0
   35.5350   27.6030   38.3270 C   0  0  0  0  0  0  0  0  0  0  0  0
   36.9960   27.5930   38.6000 C   0  0  0  0  0  0  0  0  0  0  0  0
   37.3360   28.6080   39.6590 C   0  0  2  0  0  0  0  0  0  0  0  0
   35.3450   30.9870   38.5530 H   0  0  0  0  0  0  0  0  0  0  0  0
   36.2000   29.9570   37.4020 H   0  0  0  0  0  0  0  0  0  0  0  0
   34.1050   29.0800   37.9480 H   0  0  0  0  0  0  0  0  0  0  0  0
   34.3830   28.9360   39.6640 H   0  0  0  0  0  0  0  0  0  0  0  0
   35.0230   26.7400   38.8400 H   0  0  0  0  0  0  0  0  0  0  0  0
   35.4060   27.3780   37.2460 H   0  0  0  0  0  0  0  0  0  0  0  0
   37.4040   26.6310   38.9040 H   0  0  0  0  0  0  0  0  0  0  0  0
   37.5770   27.8950   37.6810 H   0  0  0  0  0  0  0  0  0  0  0  0
   38.4660   28.5430   39.6500 H   0  0  0  0  0  0  0  0  0  0  0  0
   38.7730   31.8680   38.9270 C   0  0  1  0  0  0  0  0  0  0  0  0
   37.7920   31.8190   37.8290 C   0  0  0  0  0  0  0  0  0  0  0  0
   38.1270   30.5720   38.5630 C   0  0  2  0  0  0  0  0  0  0  0  0
   38.4550   32.4540   39.8050 H   0  0  0  0  0  0  0  0  0  0  0  0
   38.1760   31.8600   36.7810 H   0  0  0  0  0  0  0  0  0  0  0  0
   36.7780   32.2650   37.9020 H   0  0  0  0  0  0  0  0  0  0  0  0
   38.8210   29.8260   38.0940 H   0  0  0  0  0  0  0  0  0  0  0  0
   41.1610   32.0100   39.6700 C   0  0  0  0  0  0  0  0  0  0  0  0
   40.2210   32.0620   38.6190 C   0  0  0  0  0  0  0  0  0  0  0  0
   40.6690   32.2820   37.3060 C   0  0  0  0  0  0  0  0  0  0  0  0
   42.0070   32.4380   37.1090 N   0  0  0  0  0  0  0  0  0  0  0  0
   42.8930   32.3830   38.1460 C   0  0  0  0  0  0  0  0  0  0  0  0
   42.4870   32.1720   39.4150 N   0  0  0  0  0  0  0  0  0  0  0  0
   40.7540   31.8390   40.6500 H   0  0  0  0  0  0  0  0  0  0  0  0
   39.9610   32.3220   36.5150 H   0  0  0  0  0  0  0  0  0  0  0  0
   43.9380   32.5200   37.8790 H   0  0  0  0  0  0  0  0  0  0  0  0
   36.9940   28.2080   41.0470 C   0  0  0  0  0  3  0  0  0  0  0  0
   37.6790   29.2230   41.9740 C   0  0  0  0  0  2  0  0  0  0  0  0
   37.5140   28.8340   43.4200 C   0  0  0  0  0  2  0  0  0  0  0  0
   37.9550   27.4120   43.6800 C   0  0  0  0  0  2  0  0  0  0  0  0
   37.3500   26.4070   42.7520 C   0  0  0  0  0  2  0  0  0  0  0  0
   37.4740   26.8190   41.3030 C   0  0  0  0  0  2  0  0  0  0  0  0
  1  2  1  6  0  0  0
  1  6  1  0  0  0  0
  2  7  1  0  0  0  0
  2  3  1  0  0  0  0
  3 10  1  0  0  0  0
  4  5  1  0  0  0  0
  4  3  1  0  0  0  0
  4 11  1  0  0  0  0
  5 13  1  0  0  0  0
  5  6  1  0  0  0  0
  6 15  1  1  0  0  0
  6 32  1  0  0  0  0
  8  2  1  0  0  0  0
  9  3  1  0  0  0  0
 12  4  1  0  0  0  0
 14  5  1  0  0  0  0
 16 19  1  1  0  0  0
 17 21  1  0  0  0  0
 17 18  1  0  0  0  0
 17 16  1  0  0  0  0
 18 22  1  6  0  0  0
 18 16  1  0  0  0  0
 18  1  1  0  0  0  0
 20 17  1  0  0  0  0
 23 29  1  0  0  0  0
 24 16  1  0  0  0  0
 24 23  2  0  0  0  0
 25 24  1  0  0  0  0
 26 25  2  0  0  0  0
 26 27  1  0  0  0  0
 27 28  2  0  0  0  0
 28 23  1  0  0  0  0
 30 25  1  0  0  0  0
 31 27  1  0  0  0  0
 32 37  1  0  0  0  0
 32 33  1  0  0  0  0
 33 34  1  0  0  0  0
 34 35  1  0  0  0  0
 36 35  1  0  0  0  0
 37 36  1  0  0  0  0
M  END
>  <minimizedAffinity>
-4.98167515

$$$$

 OpenBabel03252506443D

 37 40  0  0  1  0  0  0  0  0999 V2000
   36.7630   29.9130   39.5100 N   0  0  1  0  0  0  0  0  0  0  0  0
   35.8890   30.0390   38.3470 C   0  0  0  0  0  0  0  0  0  0  0  0
   35.2680   28.7630   37.9030 C   0  0  0  0  0  0  0  0  0  0  0  0
   36.3260   27.8150   37.4250 C   0  0  0  0  0  0  0  0  0  0  0  0
   37.5930   27.9860   38.1830 C   0  0  0  0  0  0  0  0  0  0  0  0
   37.3160   28.5930   39.5320 C   0  0  2  0  0  0  0  0  0  0  0  0
   35.0820   30.7850   38.5040 H   0  0  0  0  0  0  0  0  0  0  0  0
   36.4830   30.4250   37.4920 H   0  0  0  0  0  0  0  0  0  0  0  0
   34.6790   29.0270   36.9920 H   0  0  0  0  0  0  0  0  0  0  0  0
   34.5140   28.3280   38.5810 H   0  0  0  0  0  0  0  0  0  0  0  0
   35.9770   26.7440   37.4590 H   0  0  0  0  0  0  0  0  0  0  0  0
   36.5670   27.9760   36.3510 H   0  0  0  0  0  0  0  0  0  0  0  0
   38.1720   27.0750   38.3300 H   0  0  0  0  0  0  0  0  0  0  0  0
   38.2830   28.7050   37.6530 H   0  0  0  0  0  0  0  0  0  0  0  0
   38.3710   28.7530   39.9060 H   0  0  0  0  0  0  0  0  0  0  0  0
   38.0320   31.9540   40.4360 C   0  0  1  0  0  0  0  0  0  0  0  0
   37.2510   32.3260   39.2430 C   0  0  0  0  0  0  0  0  0  0  0  0
   37.7500   30.9330   39.3830 C   0  0  2  0  0  0  0  0  0  0  0  0
   37.4710   31.9880   41.3840 H   0  0  0  0  0  0  0  0  0  0  0  0
   37.7600   32.9240   38.4490 H   0  0  0  0  0  0  0  0  0  0  0  0
   36.1630   32.5440   39.2740 H   0  0  0  0  0  0  0  0  0  0  0  0
   38.6510   30.6090   38.8010 H   0  0  0  0  0  0  0  0  0  0  0  0
   39.7950   33.6730   39.9790 C   0  0  0  0  0  0  0  0  0  0  0  0
   39.4290   32.4580   40.5940 C   0  0  0  0  0  0  0  0  0  0  0  0
   40.3810   31.7560   41.3510 C   0  0  0  0  0  0  0  0  0  0  0  0
   41.6290   32.2890   41.4550 N   0  0  0  0  0  0  0  0  0  0  0  0
   41.9550   33.4680   40.8490 C   0  0  0  0  0  0  0  0  0  0  0  0
   41.0570   34.1600   40.1180 N   0  0  0  0  0  0  0  0  0  0  0  0
   39.0220   34.1610   39.4150 H   0  0  0  0  0  0  0  0  0  0  0  0
   40.1050   30.8390   41.8140 H   0  0  0  0  0  0  0  0  0  0  0  0
   42.9780   33.8040   40.9960 H   0  0  0  0  0  0  0  0  0  0  0  0
   36.7470   27.6620   40.5380 C   0  0  0  0  0  3  0  0  0  0  0  0
   36.9470   28.3240   41.9090 C   0  0  0  0  0  2  0  0  0  0  0  0
   36.5290   27.4010   43.0230 C   0  0  0  0  0  2  0  0  0  0  0  0
   37.1980   26.0500   42.9220 C   0  0  0  0  0  2  0  0  0  0  0  0
   37.0710   25.4060   41.5780 C   0  0  0  0  0  2  0  0  0  0  0  0
   37.4460   26.3460   40.4560 C   0  0  0  0  0  2  0  0  0  0  0  0
  1  2  1  6  0  0  0
  1  6  1  0  0  0  0
  2  7  1  0  0  0  0
  3  2  1  0  0  0  0
  3 10  1  0  0  0  0
  4 11  1  0  0  0  0
  4  3  1  0  0  0  0
  4  5  1  0  0  0  0
  5 13  1  0  0  0  0
  5  6  1  0  0  0  0
  6 15  1  1  0  0  0
  6 32  1  0  0  0  0
  8  2  1  0  0  0  0
  9  3  1  0  0  0  0
 12  4  1  0  0  0  0
 14  5  1  0  0  0  0
 16 24  1  0  0  0  0
 16 19  1  1  0  0  0
 17 21  1  0  0  0  0
 17 18  1  0  0  0  0
 17 16  1  0  0  0  0
 18 22  1  6  0  0  0
 18  1  1  0  0  0  0
 18 16  1  0  0  0  0
 20 17  1  0  0  0  0
 23 28  2  0  0  0  0
 23 24  1  0  0  0  0
 24 25  2  0  0  0  0
 25 26  1  0  0  0  0
 25 30  1  0  0  0  0
 27 31  1  0  0  0  0
 27 26  2  0  0  0  0
 28 27  1  0  0  0  0
 29 23  1  0  0  0  0
 32 33  1  0  0  0  0
 33 34  1  0  0  0  0
 35 34  1  0  0  0  0
 36 35  1  0  0  0  0
 37 32  1  0  0  0  0
 37 36  1  0  0  0  0
M  END
>  <minimizedAffinity>
-4.95564508

$$$$

 OpenBabel03252506443D

 37 40  0  0  1  0  0  0  0  0999 V2000
   36.3930   29.2910   38.6330 N   0  0  1  0  0  0  0  0  0  0  0  0
   35.2020   29.4040   37.7940 C   0  0  0  0  0  0  0  0  0  0  0  0
   34.2930   28.2280   37.8570 C   0  0  0  0  0  0  0  0  0  0  0  0
   34.9790   27.0160   37.3040 C   0  0  0  0  0  0  0  0  0  0  0  0
   36.4390   27.0430   37.5820 C   0  0  0  0  0  0  0  0  0  0  0  0
   36.7260   27.9080   38.7800 C   0  0  2  0  0  0  0  0  0  0  0  0
   34.6120   30.3160   38.0180 H   0  0  0  0  0  0  0  0  0  0  0  0
   35.5190   29.5110   36.7350 H   0  0  0  0  0  0  0  0  0  0  0  0
   33.4730   28.4560   37.1340 H   0  0  0  0  0  0  0  0  0  0  0  0
   33.7600   28.0780   38.8120 H   0  0  0  0  0  0  0  0  0  0  0  0
   34.5140   26.0620   37.6810 H   0  0  0  0  0  0  0  0  0  0  0  0
   34.8610   26.9450   36.2000 H   0  0  0  0  0  0  0  0  0  0  0  0
   36.8970   26.0690   37.7460 H   0  0  0  0  0  0  0  0  0  0  0  0
   37.0030   27.5050   36.7210 H   0  0  0  0  0  0  0  0  0  0  0  0
   37.8570   27.9050   38.7690 H   0  0  0  0  0  0  0  0  0  0  0  0
   38.5390   30.7140   38.7070 C   0  0  1  0  0  0  0  0  0  0  0  0
   37.4000   31.5160   38.2250 C   0  0  0  0  0  0  0  0  0  0  0  0
   37.4120   30.0500   37.9870 C   0  0  2  0  0  0  0  0  0  0  0  0
   38.6400   30.6690   39.8040 H   0  0  0  0  0  0  0  0  0  0  0  0
   37.5480   32.1370   37.3080 H   0  0  0  0  0  0  0  0  0  0  0  0
   36.6510   31.9740   38.9040 H   0  0  0  0  0  0  0  0  0  0  0  0
   37.6800   29.6580   36.9720 H   0  0  0  0  0  0  0  0  0  0  0  0
   40.3280   32.0930   37.6260 C   0  0  0  0  0  0  0  0  0  0  0  0
   39.8640   30.8230   38.0270 C   0  0  0  0  0  0  0  0  0  0  0  0
   40.6620   29.6920   37.7890 C   0  0  0  0  0  0  0  0  0  0  0  0
   41.8610   29.8790   37.1740 N   0  0  0  0  0  0  0  0  0  0  0  0
   42.2850   31.1210   36.7970 C   0  0  0  0  0  0  0  0  0  0  0  0
   41.5360   32.2210   37.0150 N   0  0  0  0  0  0  0  0  0  0  0  0
   39.6710   32.9170   37.8360 H   0  0  0  0  0  0  0  0  0  0  0  0
   40.3100   28.7350   38.0910 H   0  0  0  0  0  0  0  0  0  0  0  0
   43.2580   31.1570   36.3130 H   0  0  0  0  0  0  0  0  0  0  0  0
   36.4070   27.2930   40.0920 C   0  0  0  0  0  3  0  0  0  0  0  0
   36.7230   28.3530   41.1590 C   0  0  0  0  0  2  0  0  0  0  0  0
   36.5660   27.7880   42.5470 C   0  0  0  0  0  2  0  0  0  0  0  0
   37.3570   26.5140   42.7340 C   0  0  0  0  0  2  0  0  0  0  0  0
   37.1150   25.4850   41.6760 C   0  0  0  0  0  2  0  0  0  0  0  0
   37.2260   26.0610   40.2830 C   0  0  0  0  0  2  0  0  0  0  0  0
  1  2  1  6  0  0  0
  1  6  1  0  0  0  0
  2  3  1  0  0  0  0
  2  7  1  0  0  0  0
  3 10  1  0  0  0  0
  4  5  1  0  0  0  0
  4 11  1  0  0  0  0
  4  3  1  0  0  0  0
  5 13  1  0  0  0  0
  5  6  1  0  0  0  0
  6 15  1  1  0  0  0
  6 32  1  0  0  0  0
  8  2  1  0  0  0  0
  9  3  1  0  0  0  0
 12  4  1  0  0  0  0
 14  5  1  0  0  0  0
 16 19  1  1  0  0  0
 17 16  1  0  0  0  0
 17 21  1  0  0  0  0
 18 22  1  6  0  0  0
 18 17  1  0  0  0  0
 18  1  1  0  0  0  0
 18 16  1  0  0  0  0
 20 17  1  0  0  0  0
 23 29  1  0  0  0  0
 23 24  1  0  0  0  0
 24 16  1  0  0  0  0
 25 24  2  0  0  0  0
 25 30  1  0  0  0  0
 26 25  1  0  0  0  0
 27 28  1  0  0  0  0
 27 26  2  0  0  0  0
 28 23  2  0  0  0  0
 31 27  1  0  0  0  0
 32 37  1  0  0  0  0
 32 33  1  0  0  0  0
 33 34  1  0  0  0  0
 34 35  1  0  0  0  0
 36 35  1  0  0  0  0
 37 36  1  0  0  0  0
M  END
>  <minimizedAffinity>
-4.94286013

$$$$

 OpenBabel03252506443D

 37 40  0  0  1  0  0  0  0  0999 V2000
   37.8390   29.4310   38.8180 N   0  0  1  0  0  0  0  0  0  0  0  0
   39.0160   30.2150   38.4520 C   0  0  0  0  0  0  0  0  0  0  0  0
   39.8480   30.6510   39.6050 C   0  0  0  0  0  0  0  0  0  0  0  0
   39.0720   31.5970   40.4710 C   0  0  0  0  0  0  0  0  0  0  0  0
   37.6230   31.2640   40.4780 C   0  0  0  0  0  0  0  0  0  0  0  0
   37.4190   29.8140   40.1310 C   0  0  2  0  0  0  0  0  0  0  0  0
   39.6690   29.6820   37.7300 H   0  0  0  0  0  0  0  0  0  0  0  0
   38.6840   31.1340   37.9260 H   0  0  0  0  0  0  0  0  0  0  0  0
   40.6640   31.2660   39.1580 H   0  0  0  0  0  0  0  0  0  0  0  0
   40.3900   29.8530   40.1420 H   0  0  0  0  0  0  0  0  0  0  0  0
   39.4820   31.6380   41.5200 H   0  0  0  0  0  0  0  0  0  0  0  0
   39.1610   32.6460   40.1150 H   0  0  0  0  0  0  0  0  0  0  0  0
   37.1060   31.4690   41.4140 H   0  0  0  0  0  0  0  0  0  0  0  0
   37.0720   31.8540   39.6890 H   0  0  0  0  0  0  0  0  0  0  0  0
   36.2900   29.7740   40.0720 H   0  0  0  0  0  0  0  0  0  0  0  0
   36.0820   28.6200   37.1190 C   0  0  1  0  0  0  0  0  0  0  0  0
   37.2030   29.2840   36.4300 C   0  0  0  0  0  0  0  0  0  0  0  0
   36.8580   29.6880   37.8170 C   0  0  2  0  0  0  0  0  0  0  0  0
   36.2370   27.5500   37.3300 H   0  0  0  0  0  0  0  0  0  0  0  0
   36.9620   30.0460   35.6500 H   0  0  0  0  0  0  0  0  0  0  0  0
   38.1650   28.7750   36.2100 H   0  0  0  0  0  0  0  0  0  0  0  0
   36.2870   30.6370   37.9890 H   0  0  0  0  0  0  0  0  0  0  0  0
   33.6600   28.9400   37.6740 C   0  0  0  0  0  0  0  0  0  0  0  0
   34.6780   28.9090   36.6980 C   0  0  0  0  0  0  0  0  0  0  0  0
   34.3520   29.1640   35.3560 C   0  0  0  0  0  0  0  0  0  0  0  0
   33.0510   29.4300   35.0580 N   0  0  0  0  0  0  0  0  0  0  0  0
   32.0870   29.4530   36.0240 C   0  0  0  0  0  0  0  0  0  0  0  0
   32.3760   29.2130   37.3190 N   0  0  0  0  0  0  0  0  0  0  0  0
   33.9750   28.7370   38.6810 H   0  0  0  0  0  0  0  0  0  0  0  0
   35.1200   29.1400   34.6200 H   0  0  0  0  0  0  0  0  0  0  0  0
   31.0810   29.6760   35.6780 H   0  0  0  0  0  0  0  0  0  0  0  0
   37.7250   28.8560   41.2220 C   0  0  0  0  0  3  0  0  0  0  0  0
   36.9270   27.5790   40.9190 C   0  0  0  0  0  2  0  0  0  0  0  0
   37.0540   26.5810   42.0410 C   0  0  0  0  0  2  0  0  0  0  0  0
   36.7060   27.1850   43.3810 C   0  0  0  0  0  2  0  0  0  0  0  0
   37.4240   28.4630   43.6780 C   0  0  0  0  0  2  0  0  0  0  0  0
   37.3360   29.4480   42.5360 C   0  0  0  0  0  2  0  0  0  0  0  0
  1  2  1  6  0  0  0
  1  6  1  0  0  0  0
  2  3  1  0  0  0  0
  3 10  1  0  0  0  0
  3  4  1  0  0  0  0
  4  5  1  0  0  0  0
  4 11  1  0  0  0  0
  5 13  1  0  0  0  0
  6 15  1  6  0  0  0
  6  5  1  0  0  0  0
  6 32  1  0  0  0  0
  7  2  1  0  0  0  0
  8  2  1  0  0  0  0
  9  3  1  0  0  0  0
 12  4  1  0  0  0  0
 14  5  1  0  0  0  0
 16 19  1  1  0  0  0
 16 18  1  0  0  0  0
 17 16  1  0  0  0  0
 17 18  1  0  0  0  0
 18 22  1  1  0  0  0
 18  1  1  0  0  0  0
 20 17  1  0  0  0  0
 21 17  1  0  0  0  0
 23 29  1  0  0  0  0
 24 16  1  0  0  0  0
 24 23  2  0  0  0  0
 25 24  1  0  0  0  0
 26 25  2  0  0  0  0
 26 27  1  0  0  0  0
 27 28  2  0  0  0  0
 28 23  1  0  0  0  0
 30 25  1  0  0  0  0
 31 27  1  0  0  0  0
 32 37  1  0  0  0  0
 33 32  1  0  0  0  0
 33 34  1  0  0  0  0
 34 35  1  0  0  0  0
 35 36  1  0  0  0  0
 37 36  1  0  0  0  0
M  END
>  <minimizedAffinity>
-4.94125795

$$$$

 OpenBabel03252506443D

 37 40  0  0  1  0  0  0  0  0999 V2000
   39.2150   28.5630   40.7710 N   0  0  1  0  0  0  0  0  0  0  0  0
   39.8280   27.6100   41.6930 C   0  0  0  0  0  0  0  0  0  0  0  0
   38.8630   26.8980   42.5720 C   0  0  0  0  0  0  0  0  0  0  0  0
   38.1900   27.8700   43.4930 C   0  0  0  0  0  0  0  0  0  0  0  0
   38.0110   29.1970   42.8470 C   0  0  0  0  0  0  0  0  0  0  0  0
   38.0010   29.0510   41.3490 C   0  0  2  0  0  0  0  0  0  0  0  0
   40.4490   26.8550   41.1680 H   0  0  0  0  0  0  0  0  0  0  0  0
   40.5290   28.1570   42.3580 H   0  0  0  0  0  0  0  0  0  0  0  0
   39.4920   26.2550   43.2330 H   0  0  0  0  0  0  0  0  0  0  0  0
   38.1930   26.1760   42.0720 H   0  0  0  0  0  0  0  0  0  0  0  0
   37.2080   27.4730   43.8770 H   0  0  0  0  0  0  0  0  0  0  0  0
   38.7840   28.0370   44.4180 H   0  0  0  0  0  0  0  0  0  0  0  0
   37.1160   29.7400   43.1450 H   0  0  0  0  0  0  0  0  0  0  0  0
   38.8780   29.8790   43.0880 H   0  0  0  0  0  0  0  0  0  0  0  0
   37.9760   30.1380   41.0370 H   0  0  0  0  0  0  0  0  0  0  0  0
   39.9670   31.0240   40.8830 C   0  0  1  0  0  0  0  0  0  0  0  0
   39.8710   30.5740   39.4830 C   0  0  0  0  0  0  0  0  0  0  0  0
   40.1820   29.5850   40.5470 C   0  0  2  0  0  0  0  0  0  0  0  0
   39.0210   31.3890   41.3170 H   0  0  0  0  0  0  0  0  0  0  0  0
   40.7230   30.8050   38.7990 H   0  0  0  0  0  0  0  0  0  0  0  0
   38.9120   30.5250   38.9270 H   0  0  0  0  0  0  0  0  0  0  0  0
   41.2380   29.2330   40.6810 H   0  0  0  0  0  0  0  0  0  0  0  0
   41.4350   33.0370   40.6290 C   0  0  0  0  0  0  0  0  0  0  0  0
   41.1360   31.8440   41.3200 C   0  0  0  0  0  0  0  0  0  0  0  0
   41.9350   31.4610   42.4100 C   0  0  0  0  0  0  0  0  0  0  0  0
   42.9750   32.2710   42.7500 N   0  0  0  0  0  0  0  0  0  0  0  0
   43.2400   33.4200   42.0630 C   0  0  0  0  0  0  0  0  0  0  0  0
   42.4870   33.8090   41.0140 N   0  0  0  0  0  0  0  0  0  0  0  0
   40.7860   33.2740   39.8060 H   0  0  0  0  0  0  0  0  0  0  0  0
   41.7090   30.5610   42.9290 H   0  0  0  0  0  0  0  0  0  0  0  0
   44.0940   33.9920   42.4180 H   0  0  0  0  0  0  0  0  0  0  0  0
   36.7410   28.5150   40.7770 C   0  0  0  0  0  3  0  0  0  0  0  0
   37.1040   27.9040   39.4160 C   0  0  0  0  0  2  0  0  0  0  0  0
   35.8710   27.4500   38.6790 C   0  0  0  0  0  2  0  0  0  0  0  0
   34.8380   28.5470   38.5710 C   0  0  0  0  0  2  0  0  0  0  0  0
   34.5070   29.2030   39.8740 C   0  0  0  0  0  2  0  0  0  0  0  0
   35.7440   29.6170   40.6360 C   0  0  0  0  0  2  0  0  0  0  0  0
  1  6  1  0  0  0  0
  1  2  1  1  0  0  0
  2  8  1  0  0  0  0
  2  3  1  0  0  0  0
  3  9  1  0  0  0  0
  3  4  1  0  0  0  0
  4 11  1  0  0  0  0
  4 12  1  0  0  0  0
  5 14  1  0  0  0  0
  5 13  1  0  0  0  0
  5  4  1  0  0  0  0
  6 15  1  6  0  0  0
  6  5  1  0  0  0  0
  7  2  1  0  0  0  0
 10  3  1  0  0  0  0
 16 19  1  1  0  0  0
 16 24  1  0  0  0  0
 17 18  1  0  0  0  0
 17 16  1  0  0  0  0
 18 22  1  1  0  0  0
 18  1  1  0  0  0  0
 18 16  1  0  0  0  0
 20 17  1  0  0  0  0
 21 17  1  0  0  0  0
 23 28  2  0  0  0  0
 23 24  1  0  0  0  0
 24 25  2  0  0  0  0
 25 26  1  0  0  0  0
 25 30  1  0  0  0  0
 27 31  1  0  0  0  0
 27 26  2  0  0  0  0
 28 27  1  0  0  0  0
 29 23  1  0  0  0  0
 32  6  1  0  0  0  0
 33 32  1  0  0  0  0
 34 33  1  0  0  0  0
 35 34  1  0  0  0  0
 35 36  1  0  0  0  0
 36 37  1  0  0  0  0
 37 32  1  0  0  0  0
M  END
>  <minimizedAffinity>
-4.90186834

$$$$
