
 OpenBabel03242519583D

 25 27  0  0  0  0  0  0  0  0999 V2000
   44.7340   32.9890   41.1540 Br  0  0  0  0  0  0  0  0  0  0  0  0
   46.3800   33.9490   40.9540 C   0  0  0  0  0  0  0  0  0  0  0  0
   46.8980   34.7630   41.9430 C   0  0  0  0  0  0  0  0  0  0  0  0
   48.0830   35.3970   41.6870 C   0  0  0  0  0  0  0  0  0  0  0  0
   48.7720   35.2650   40.5070 C   0  0  0  0  0  0  0  0  0  0  0  0
   48.2570   34.4460   39.5050 C   0  0  0  0  0  0  0  0  0  0  0  0
   47.0500   33.8000   39.7660 C   0  0  0  0  0  0  0  0  0  0  0  0
   48.4370   36.0250   42.5080 H   0  0  0  0  0  0  0  0  0  0  0  0
   49.7020   35.8200   40.4240 H   0  0  0  0  0  0  0  0  0  0  0  0
   48.8190   34.3590   38.5860 H   0  0  0  0  0  0  0  0  0  0  0  0
   44.4830   36.0090   44.5880 C   0  0  0  0  0  0  0  0  0  0  0  0
   45.2110   35.9140   43.3940 C   0  0  0  0  0  0  0  0  0  0  0  0
   46.1320   34.8750   43.1830 C   0  0  0  0  0  0  0  0  0  0  0  0
   46.2560   33.9990   44.1980 N   0  0  0  0  0  0  0  0  0  0  0  0
   45.5620   34.0860   45.3450 C   0  0  0  0  0  0  0  0  0  0  0  0
   44.6890   35.0790   45.5310 N   0  0  0  0  0  0  0  0  0  0  0  0
   43.7730   36.8120   44.7470 H   0  0  0  0  0  0  0  0  0  0  0  0
   45.0770   36.6420   42.6050 H   0  0  0  0  0  0  0  0  0  0  0  0
   45.6650   33.3850   46.1490 H   0  0  0  0  0  0  0  0  0  0  0  0
   46.4980   32.9220   38.6870 C   0  0  0  0  0  0  0  0  0  0  0  0
   46.5140   33.5750   37.3480 C   0  0  0  0  0  0  0  0  0  0  0  0
   46.1110   32.5490   36.3190 C   0  0  0  0  0  0  0  0  0  0  0  0
   46.9140   31.2900   36.3710 C   0  0  0  0  0  0  0  0  0  0  0  0
   47.9700   31.4130   37.4770 C   0  0  0  0  0  0  0  0  0  0  0  0
   47.1760   31.5870   38.7580 C   0  0  0  0  0  0  0  0  0  0  0  0
  2  1  1  0  0  0  0
  2  3  1  0  0  0  0
  3 13  1  0  0  0  0
  4  3  2  0  0  0  0
  4  8  1  0  0  0  0
  5  4  1  0  0  0  0
  6  7  1  0  0  0  0
  6  5  2  0  0  0  0
  7  2  2  0  0  0  0
  9  5  1  0  0  0  0
 10  6  1  0  0  0  0
 11 17  1  0  0  0  0
 11 16  1  0  0  0  0
 12 11  2  0  0  0  0
 13 12  1  0  0  0  0
 13 14  2  0  0  0  0
 14 15  1  0  0  0  0
 15 16  2  0  0  0  0
 15 19  1  0  0  0  0
 18 12  1  0  0  0  0
 20 25  1  0  0  0  0
 20  7  1  0  0  0  0
 21 20  1  0  0  0  0
 22 23  1  0  0  0  0
 22 21  1  0  0  0  0
 23 24  1  0  0  0  0
 24 25  1  0  0  0  0
M  END
>  <minimizedAffinity>
-5.58996868

>  <minimizedRMSD>
0.355759799

$$$$
