
 OpenBabel03242518143D

 28 30  0  0  0  0  0  0  0  0999 V2000
   37.2060   32.2730   39.9060 C   0  0  0  0  0  0  0  0  0  0  0  0
   36.3550   32.9800   40.0110 H   0  0  0  0  0  0  0  0  0  0  0  0
   37.4440   32.2310   38.8190 H   0  0  0  0  0  0  0  0  0  0  0  0
   36.8280   30.9870   40.3940 C   0  0  0  0  0  0  0  0  0  0  0  0
   35.7080   30.1010   40.3000 C   0  0  0  0  0  0  0  0  0  0  0  0
   35.7420   28.9190   40.9280 C   0  0  0  0  0  0  0  0  0  0  0  0
   36.9300   28.5690   41.6950 C   0  0  0  0  0  0  0  0  0  0  0  0
   38.0030   30.0030   41.4840 S   0  0  0  0  0  0  0  0  0  0  0  0
   34.8760   30.4460   39.7110 H   0  0  0  0  0  0  0  0  0  0  0  0
   34.9750   28.1900   40.9270 H   0  0  0  0  0  0  0  0  0  0  0  0
   37.2540   27.4220   42.4450 C   0  0  0  0  0  3  0  0  0  0  0  0
   37.3660   26.2760   41.4560 C   0  0  0  0  0  2  0  0  0  0  0  0
   37.7040   25.0510   42.2810 C   0  0  0  0  0  2  0  0  0  0  0  0
   39.1470   25.2600   42.6800 C   0  0  0  0  0  2  0  0  0  0  0  0
   39.3060   26.4550   43.5710 C   0  0  0  0  0  2  0  0  0  0  0  0
   38.4820   27.6250   43.2650 C   0  0  0  0  0  2  0  0  0  0  0  0
   38.4150   32.8900   40.5730 C   0  0  0  0  0  0  0  0  0  0  0  0
   38.7100   32.3540   41.4680 H   0  0  0  0  0  0  0  0  0  0  0  0
   38.1200   33.9210   40.9130 H   0  0  0  0  0  0  0  0  0  0  0  0
   39.4760   33.0060   39.5930 C   0  0  0  0  0  0  0  0  0  0  0  0
   39.5810   32.1710   38.4970 C   0  0  0  0  0  0  0  0  0  0  0  0
   40.6330   32.3510   37.6020 C   0  0  0  0  0  0  0  0  0  0  0  0
   41.5170   33.3570   37.8580 N   0  0  0  0  0  0  0  0  0  0  0  0
   41.3980   34.1610   38.9320 C   0  0  0  0  0  0  0  0  0  0  0  0
   40.3960   33.9710   39.7630 N   0  0  0  0  0  0  0  0  0  0  0  0
   38.8450   31.3940   38.3570 H   0  0  0  0  0  0  0  0  0  0  0  0
   40.7440   31.7260   36.7480 H   0  0  0  0  0  0  0  0  0  0  0  0
   42.1120   34.9530   39.1140 H   0  0  0  0  0  0  0  0  0  0  0  0
  1  2  1  0  0  0  0
  1  4  1  0  0  0  0
  1 17  1  0  0  0  0
  3  1  1  0  0  0  0
  4  8  1  0  0  0  0
  5  4  2  0  0  0  0
  5  6  1  0  0  0  0
  6  7  2  0  0  0  0
  7 11  1  0  0  0  0
  8  7  1  0  0  0  0
  9  5  1  0  0  0  0
 10  6  1  0  0  0  0
 11 16  1  0  0  0  0
 12 13  1  0  0  0  0
 12 11  1  0  0  0  0
 13 14  1  0  0  0  0
 14 15  1  0  0  0  0
 16 15  1  0  0  0  0
 17 19  1  0  0  0  0
 17 18  1  0  0  0  0
 20 25  1  0  0  0  0
 20 17  1  0  0  0  0
 21 20  2  0  0  0  0
 22 23  2  0  0  0  0
 22 21  1  0  0  0  0
 23 24  1  0  0  0  0
 24 28  1  0  0  0  0
 24 25  2  0  0  0  0
 26 21  1  0  0  0  0
 27 22  1  0  0  0  0
M  END
>  <minimizedAffinity>
-5.35594082

$$$$

 OpenBabel03242518143D

 28 30  0  0  0  0  0  0  0  0999 V2000
   39.1230   30.1920   42.7520 C   0  0  0  0  0  0  0  0  0  0  0  0
   39.9640   30.1370   43.4770 H   0  0  0  0  0  0  0  0  0  0  0  0
   38.5250   31.0880   43.0360 H   0  0  0  0  0  0  0  0  0  0  0  0
   38.3350   29.0060   42.8350 C   0  0  0  0  0  0  0  0  0  0  0  0
   37.3120   28.4670   43.6790 C   0  0  0  0  0  0  0  0  0  0  0  0
   36.7950   27.2630   43.4050 C   0  0  0  0  0  0  0  0  0  0  0  0
   37.2930   26.5330   42.2480 C   0  0  0  0  0  0  0  0  0  0  0  0
   38.5400   27.6400   41.5600 S   0  0  0  0  0  0  0  0  0  0  0  0
   37.0070   29.0790   44.5100 H   0  0  0  0  0  0  0  0  0  0  0  0
   36.0390   26.7690   43.9580 H   0  0  0  0  0  0  0  0  0  0  0  0
   36.9510   25.2740   41.7180 C   0  0  0  0  0  3  0  0  0  0  0  0
   36.6740   25.4890   40.2400 C   0  0  0  0  0  2  0  0  0  0  0  0
   36.2980   24.1290   39.6890 C   0  0  0  0  0  2  0  0  0  0  0  0
   37.6050   23.3700   39.6520 C   0  0  0  0  0  2  0  0  0  0  0  0
   38.1580   23.1560   41.0300 C   0  0  0  0  0  2  0  0  0  0  0  0
   38.0050   24.2550   41.9840 C   0  0  0  0  0  2  0  0  0  0  0  0
   39.6990   30.4930   41.3860 C   0  0  0  0  0  0  0  0  0  0  0  0
   39.8630   29.5950   40.8020 H   0  0  0  0  0  0  0  0  0  0  0  0
   40.7150   30.9500   41.5450 H   0  0  0  0  0  0  0  0  0  0  0  0
   38.8480   31.4650   40.7280 C   0  0  0  0  0  0  0  0  0  0  0  0
   37.7680   31.1080   39.9430 C   0  0  0  0  0  0  0  0  0  0  0  0
   37.0020   32.1050   39.3460 C   0  0  0  0  0  0  0  0  0  0  0  0
   37.3620   33.4010   39.5710 N   0  0  0  0  0  0  0  0  0  0  0  0
   38.4180   33.7290   40.3400 C   0  0  0  0  0  0  0  0  0  0  0  0
   39.1270   32.7690   40.8930 N   0  0  0  0  0  0  0  0  0  0  0  0
   37.5420   30.0610   39.8070 H   0  0  0  0  0  0  0  0  0  0  0  0
   36.1640   31.8660   38.7350 H   0  0  0  0  0  0  0  0  0  0  0  0
   38.6840   34.7640   40.5040 H   0  0  0  0  0  0  0  0  0  0  0  0
  1  4  1  0  0  0  0
  1  3  1  0  0  0  0
  1  2  1  0  0  0  0
  4  5  2  0  0  0  0
  5  9  1  0  0  0  0
  6  5  1  0  0  0  0
  6 10  1  0  0  0  0
  7  6  2  0  0  0  0
  8  7  1  0  0  0  0
  8  4  1  0  0  0  0
 11 16  1  0  0  0  0
 11  7  1  0  0  0  0
 12 11  1  0  0  0  0
 13 12  1  0  0  0  0
 14 13  1  0  0  0  0
 14 15  1  0  0  0  0
 15 16  1  0  0  0  0
 17 19  1  0  0  0  0
 17  1  1  0  0  0  0
 18 17  1  0  0  0  0
 20 25  1  0  0  0  0
 20 17  1  0  0  0  0
 21 20  2  0  0  0  0
 22 23  2  0  0  0  0
 22 21  1  0  0  0  0
 23 24  1  0  0  0  0
 24 28  1  0  0  0  0
 24 25  2  0  0  0  0
 26 21  1  0  0  0  0
 27 22  1  0  0  0  0
M  END
>  <minimizedAffinity>
-5.2757163

$$$$

 OpenBabel03242518143D

 28 30  0  0  0  0  0  0  0  0999 V2000
   36.5010   31.2450   40.7960 C   0  0  0  0  0  0  0  0  0  0  0  0
   36.6660   32.1660   41.3970 H   0  0  0  0  0  0  0  0  0  0  0  0
   35.3980   31.1020   40.7420 H   0  0  0  0  0  0  0  0  0  0  0  0
   37.1280   30.1340   41.4350 C   0  0  0  0  0  0  0  0  0  0  0  0
   38.2400   29.8960   42.3040 C   0  0  0  0  0  0  0  0  0  0  0  0
   38.5100   28.6480   42.7080 C   0  0  0  0  0  0  0  0  0  0  0  0
   37.6560   27.5630   42.2460 C   0  0  0  0  0  0  0  0  0  0  0  0
   36.4430   28.3980   41.2040 S   0  0  0  0  0  0  0  0  0  0  0  0
   38.8130   30.7590   42.5920 H   0  0  0  0  0  0  0  0  0  0  0  0
   39.3020   28.3570   43.3470 H   0  0  0  0  0  0  0  0  0  0  0  0
   37.6870   26.1770   42.4960 C   0  0  0  0  0  3  0  0  0  0  0  0
   37.0990   25.5040   41.2680 C   0  0  0  0  0  2  0  0  0  0  0  0
   37.1300   24.0170   41.5580 C   0  0  0  0  0  2  0  0  0  0  0  0
   38.5920   23.6490   41.4440 C   0  0  0  0  0  2  0  0  0  0  0  0
   39.4160   24.3270   42.4970 C   0  0  0  0  0  2  0  0  0  0  0  0
   39.0590   25.7050   42.8340 C   0  0  0  0  0  2  0  0  0  0  0  0
   36.9550   31.5200   39.3800 C   0  0  0  0  0  0  0  0  0  0  0  0
   36.1760   31.9760   38.7800 H   0  0  0  0  0  0  0  0  0  0  0  0
   37.1750   30.5270   38.9000 H   0  0  0  0  0  0  0  0  0  0  0  0
   38.1780   32.2980   39.4290 C   0  0  0  0  0  0  0  0  0  0  0  0
   39.3090   31.9660   38.7070 C   0  0  0  0  0  0  0  0  0  0  0  0
   40.4420   32.7680   38.8120 C   0  0  0  0  0  0  0  0  0  0  0  0
   40.3760   33.8540   39.6330 N   0  0  0  0  0  0  0  0  0  0  0  0
   39.2640   34.1610   40.3280 C   0  0  0  0  0  0  0  0  0  0  0  0
   38.2060   33.3890   40.2130 N   0  0  0  0  0  0  0  0  0  0  0  0
   39.2900   31.0900   38.0760 H   0  0  0  0  0  0  0  0  0  0  0  0
   41.3300   32.5410   38.2700 H   0  0  0  0  0  0  0  0  0  0  0  0
   39.2360   35.0290   40.9740 H   0  0  0  0  0  0  0  0  0  0  0  0
  1  2  1  0  0  0  0
  1  4  1  0  0  0  0
  3  1  1  0  0  0  0
  4  5  2  0  0  0  0
  5  9  1  0  0  0  0
  5  6  1  0  0  0  0
  6 10  1  0  0  0  0
  7 11  1  0  0  0  0
  7  6  2  0  0  0  0
  8  4  1  0  0  0  0
  8  7  1  0  0  0  0
 11 16  1  0  0  0  0
 12 13  1  0  0  0  0
 12 11  1  0  0  0  0
 14 13  1  0  0  0  0
 14 15  1  0  0  0  0
 15 16  1  0  0  0  0
 17 20  1  0  0  0  0
 17  1  1  0  0  0  0
 18 17  1  0  0  0  0
 19 17  1  0  0  0  0
 20 25  1  0  0  0  0
 21 22  1  0  0  0  0
 21 20  2  0  0  0  0
 22 23  2  0  0  0  0
 23 24  1  0  0  0  0
 24 28  1  0  0  0  0
 25 24  2  0  0  0  0
 26 21  1  0  0  0  0
 27 22  1  0  0  0  0
M  END
>  <minimizedAffinity>
-5.26662731

$$$$

 OpenBabel03242518143D

 28 30  0  0  0  0  0  0  0  0999 V2000
   39.0800   33.4170   39.4700 C   0  0  0  0  0  0  0  0  0  0  0  0
   38.4030   34.1620   38.9980 H   0  0  0  0  0  0  0  0  0  0  0  0
   39.6900   32.9830   38.6450 H   0  0  0  0  0  0  0  0  0  0  0  0
   38.3080   32.4060   40.1180 C   0  0  0  0  0  0  0  0  0  0  0  0
   36.9590   31.9290   40.1070 C   0  0  0  0  0  0  0  0  0  0  0  0
   36.6130   30.9020   40.8930 C   0  0  0  0  0  0  0  0  0  0  0  0
   37.6300   30.2970   41.7420 C   0  0  0  0  0  0  0  0  0  0  0  0
   39.1110   31.2590   41.3720 S   0  0  0  0  0  0  0  0  0  0  0  0
   36.2780   32.4390   39.4480 H   0  0  0  0  0  0  0  0  0  0  0  0
   35.6500   30.4700   40.9660 H   0  0  0  0  0  0  0  0  0  0  0  0
   37.5710   29.2260   42.6540 C   0  0  0  0  0  3  0  0  0  0  0  0
   36.6470   28.1880   42.0420 C   0  0  0  0  0  2  0  0  0  0  0  0
   36.5860   27.0500   43.0410 C   0  0  0  0  0  2  0  0  0  0  0  0
   37.9350   26.3770   42.9170 C   0  0  0  0  0  2  0  0  0  0  0  0
   39.0470   27.2880   43.3440 C   0  0  0  0  0  2  0  0  0  0  0  0
   38.9260   28.7000   42.9800 C   0  0  0  0  0  2  0  0  0  0  0  0
   40.0510   34.1610   40.3590 C   0  0  0  0  0  0  0  0  0  0  0  0
   40.0400   33.7920   41.3780 H   0  0  0  0  0  0  0  0  0  0  0  0
   39.7050   35.2300   40.4120 H   0  0  0  0  0  0  0  0  0  0  0  0
   41.3630   34.1240   39.7440 C   0  0  0  0  0  0  0  0  0  0  0  0
   41.5510   34.0670   38.3760 C   0  0  0  0  0  0  0  0  0  0  0  0
   42.8470   34.0340   37.8680 C   0  0  0  0  0  0  0  0  0  0  0  0
   43.8780   34.0600   38.7590 N   0  0  0  0  0  0  0  0  0  0  0  0
   43.6750   34.1160   40.0900 C   0  0  0  0  0  0  0  0  0  0  0  0
   42.4420   34.1460   40.5460 N   0  0  0  0  0  0  0  0  0  0  0  0
   40.6870   34.0470   37.7290 H   0  0  0  0  0  0  0  0  0  0  0  0
   43.0270   33.9890   36.8200 H   0  0  0  0  0  0  0  0  0  0  0  0
   44.5090   34.1360   40.7770 H   0  0  0  0  0  0  0  0  0  0  0  0
  1  4  1  0  0  0  0
  1 17  1  0  0  0  0
  2  1  1  0  0  0  0
  3  1  1  0  0  0  0
  4  8  1  0  0  0  0
  5  4  2  0  0  0  0
  5  6  1  0  0  0  0
  6 10  1  0  0  0  0
  6  7  2  0  0  0  0
  7 11  1  0  0  0  0
  8  7  1  0  0  0  0
  9  5  1  0  0  0  0
 11 16  1  0  0  0  0
 12 11  1  0  0  0  0
 12 13  1  0  0  0  0
 14 13  1  0  0  0  0
 14 15  1  0  0  0  0
 16 15  1  0  0  0  0
 17 19  1  0  0  0  0
 17 18  1  0  0  0  0
 20 17  1  0  0  0  0
 20 25  1  0  0  0  0
 21 20  2  0  0  0  0
 22 21  1  0  0  0  0
 22 23  2  0  0  0  0
 23 24  1  0  0  0  0
 24 25  2  0  0  0  0
 24 28  1  0  0  0  0
 26 21  1  0  0  0  0
 27 22  1  0  0  0  0
M  END
>  <minimizedAffinity>
-5.18866444

$$$$

 OpenBabel03242518143D

 28 30  0  0  0  0  0  0  0  0999 V2000
   37.0840   31.3620   38.8640 C   0  0  0  0  0  0  0  0  0  0  0  0
   36.3280   31.5240   38.0640 H   0  0  0  0  0  0  0  0  0  0  0  0
   38.0390   31.1210   38.3450 H   0  0  0  0  0  0  0  0  0  0  0  0
   36.6750   30.2830   39.7030 C   0  0  0  0  0  0  0  0  0  0  0  0
   35.4510   29.7000   40.1650 C   0  0  0  0  0  0  0  0  0  0  0  0
   35.4900   28.6360   40.9760 C   0  0  0  0  0  0  0  0  0  0  0  0
   36.7860   28.0990   41.3670 C   0  0  0  0  0  0  0  0  0  0  0  0
   37.9580   29.1820   40.5260 S   0  0  0  0  0  0  0  0  0  0  0  0
   34.5430   30.1640   39.8230 H   0  0  0  0  0  0  0  0  0  0  0  0
   34.6530   28.1270   41.3760 H   0  0  0  0  0  0  0  0  0  0  0  0
   37.1390   27.0120   42.1890 C   0  0  0  0  0  3  0  0  0  0  0  0
   37.2310   25.7970   41.2830 C   0  0  0  0  0  2  0  0  0  0  0  0
   37.6010   24.6370   42.1850 C   0  0  0  0  0  2  0  0  0  0  0  0
   39.0530   24.8820   42.5250 C   0  0  0  0  0  2  0  0  0  0  0  0
   39.2300   26.1400   43.3220 C   0  0  0  0  0  2  0  0  0  0  0  0
   38.3890   27.2800   42.9560 C   0  0  0  0  0  2  0  0  0  0  0  0
   37.3130   32.6800   39.5690 C   0  0  0  0  0  0  0  0  0  0  0  0
   36.8840   32.6940   40.5640 H   0  0  0  0  0  0  0  0  0  0  0  0
   36.7660   33.4710   38.9850 H   0  0  0  0  0  0  0  0  0  0  0  0
   38.7310   32.9770   39.5450 C   0  0  0  0  0  0  0  0  0  0  0  0
   39.3120   33.9390   40.3510 C   0  0  0  0  0  0  0  0  0  0  0  0
   40.6830   34.1610   40.2640 C   0  0  0  0  0  0  0  0  0  0  0  0
   41.3930   33.4080   39.3770 N   0  0  0  0  0  0  0  0  0  0  0  0
   40.8090   32.4750   38.6000 C   0  0  0  0  0  0  0  0  0  0  0  0
   39.5120   32.2830   38.6990 N   0  0  0  0  0  0  0  0  0  0  0  0
   38.6880   34.4990   41.0310 H   0  0  0  0  0  0  0  0  0  0  0  0
   41.1630   34.8940   40.8700 H   0  0  0  0  0  0  0  0  0  0  0  0
   41.3930   31.8900   37.9030 H   0  0  0  0  0  0  0  0  0  0  0  0
  1 17  1  0  0  0  0
  1  4  1  0  0  0  0
  2  1  1  0  0  0  0
  3  1  1  0  0  0  0
  4  5  2  0  0  0  0
  4  8  1  0  0  0  0
  5  6  1  0  0  0  0
  6  7  2  0  0  0  0
  6 10  1  0  0  0  0
  7 11  1  0  0  0  0
  8  7  1  0  0  0  0
  9  5  1  0  0  0  0
 11 16  1  0  0  0  0
 12 13  1  0  0  0  0
 12 11  1  0  0  0  0
 13 14  1  0  0  0  0
 14 15  1  0  0  0  0
 16 15  1  0  0  0  0
 17 18  1  0  0  0  0
 19 17  1  0  0  0  0
 20 17  1  0  0  0  0
 20 21  1  0  0  0  0
 21 26  1  0  0  0  0
 22 21  2  0  0  0  0
 22 27  1  0  0  0  0
 23 22  1  0  0  0  0
 24 25  1  0  0  0  0
 24 23  2  0  0  0  0
 25 20  2  0  0  0  0
 28 24  1  0  0  0  0
M  END
>  <minimizedAffinity>
-5.11567831

$$$$

 OpenBabel03242518143D

 28 30  0  0  0  0  0  0  0  0999 V2000
   36.9870   30.3550   38.1530 C   0  0  0  0  0  0  0  0  0  0  0  0
   36.2670   31.2000   38.0980 H   0  0  0  0  0  0  0  0  0  0  0  0
   36.8290   29.7500   37.2310 H   0  0  0  0  0  0  0  0  0  0  0  0
   36.7310   29.5780   39.3220 C   0  0  0  0  0  0  0  0  0  0  0  0
   35.6780   29.4090   40.2770 C   0  0  0  0  0  0  0  0  0  0  0  0
   35.8230   28.5300   41.2750 C   0  0  0  0  0  0  0  0  0  0  0  0
   37.0600   27.7660   41.3610 C   0  0  0  0  0  0  0  0  0  0  0  0
   38.0150   28.3560   39.9490 S   0  0  0  0  0  0  0  0  0  0  0  0
   34.8020   30.0170   40.1320 H   0  0  0  0  0  0  0  0  0  0  0  0
   35.1140   28.3250   42.0340 H   0  0  0  0  0  0  0  0  0  0  0  0
   37.4940   26.7880   42.2760 C   0  0  0  0  0  3  0  0  0  0  0  0
   37.8280   25.5510   41.4610 C   0  0  0  0  0  2  0  0  0  0  0  0
   38.2830   24.5080   42.4620 C   0  0  0  0  0  2  0  0  0  0  0  0
   39.6550   24.9790   42.8890 C   0  0  0  0  0  2  0  0  0  0  0  0
   39.5890   26.2920   43.6110 C   0  0  0  0  0  2  0  0  0  0  0  0
   38.6280   27.2760   43.1110 C   0  0  0  0  0  2  0  0  0  0  0  0
   38.3860   30.9220   38.0450 C   0  0  0  0  0  0  0  0  0  0  0  0
   38.6510   31.1670   37.0230 H   0  0  0  0  0  0  0  0  0  0  0  0
   39.1000   30.1140   38.3660 H   0  0  0  0  0  0  0  0  0  0  0  0
   38.5040   32.0400   38.9580 C   0  0  0  0  0  0  0  0  0  0  0  0
   37.5350   33.0200   39.0770 C   0  0  0  0  0  0  0  0  0  0  0  0
   37.7290   34.0620   39.9800 C   0  0  0  0  0  0  0  0  0  0  0  0
   38.8800   34.0620   40.7110 N   0  0  0  0  0  0  0  0  0  0  0  0
   39.8120   33.0980   40.5810 C   0  0  0  0  0  0  0  0  0  0  0  0
   39.6070   32.1240   39.7210 N   0  0  0  0  0  0  0  0  0  0  0  0
   36.6480   32.9560   38.4650 H   0  0  0  0  0  0  0  0  0  0  0  0
   37.0040   34.8320   40.0960 H   0  0  0  0  0  0  0  0  0  0  0  0
   40.7180   33.1200   41.1720 H   0  0  0  0  0  0  0  0  0  0  0  0
  1  4  1  0  0  0  0
  2  1  1  0  0  0  0
  3  1  1  0  0  0  0
  4  8  1  0  0  0  0
  4  5  2  0  0  0  0
  5  6  1  0  0  0  0
  6  7  2  0  0  0  0
  6 10  1  0  0  0  0
  7 11  1  0  0  0  0
  8  7  1  0  0  0  0
  9  5  1  0  0  0  0
 11 16  1  0  0  0  0
 12 11  1  0  0  0  0
 12 13  1  0  0  0  0
 13 14  1  0  0  0  0
 14 15  1  0  0  0  0
 16 15  1  0  0  0  0
 17  1  1  0  0  0  0
 17 19  1  0  0  0  0
 17 20  1  0  0  0  0
 18 17  1  0  0  0  0
 20 21  2  0  0  0  0
 20 25  1  0  0  0  0
 21 22  1  0  0  0  0
 22 27  1  0  0  0  0
 22 23  2  0  0  0  0
 24 23  1  0  0  0  0
 24 28  1  0  0  0  0
 25 24  2  0  0  0  0
 26 21  1  0  0  0  0
M  END
>  <minimizedAffinity>
-4.98675966

$$$$

 OpenBabel03242518143D

 28 30  0  0  0  0  0  0  0  0999 V2000
   36.8740   25.5990   42.4750 C   0  0  0  0  0  0  0  0  0  0  0  0
   35.9500   25.3500   41.9090 H   0  0  0  0  0  0  0  0  0  0  0  0
   36.6680   25.3380   43.5380 H   0  0  0  0  0  0  0  0  0  0  0  0
   37.1620   26.9900   42.3390 C   0  0  0  0  0  0  0  0  0  0  0  0
   37.2900   28.1370   43.1850 C   0  0  0  0  0  0  0  0  0  0  0  0
   37.5940   29.3250   42.6490 C   0  0  0  0  0  0  0  0  0  0  0  0
   37.7870   29.4150   41.2090 C   0  0  0  0  0  0  0  0  0  0  0  0
   37.5140   27.7240   40.6440 S   0  0  0  0  0  0  0  0  0  0  0  0
   37.1300   27.9730   44.2370 H   0  0  0  0  0  0  0  0  0  0  0  0
   37.7130   30.2350   43.1770 H   0  0  0  0  0  0  0  0  0  0  0  0
   38.1080   30.5020   40.3740 C   0  0  0  0  0  3  0  0  0  0  0  0
   36.8050   30.9630   39.7450 C   0  0  0  0  0  2  0  0  0  0  0  0
   37.1710   32.1250   38.8430 C   0  0  0  0  0  2  0  0  0  0  0  0
   37.4710   33.2560   39.8000 C   0  0  0  0  0  2  0  0  0  0  0  0
   38.6690   32.9570   40.6510 C   0  0  0  0  0  2  0  0  0  0  0  0
   38.8250   31.5780   41.1160 C   0  0  0  0  0  2  0  0  0  0  0  0
   37.9710   24.6620   42.0200 C   0  0  0  0  0  0  0  0  0  0  0  0
   38.4380   24.1440   42.8500 H   0  0  0  0  0  0  0  0  0  0  0  0
   38.7780   25.2920   41.5540 H   0  0  0  0  0  0  0  0  0  0  0  0
   37.4300   23.7720   41.0120 C   0  0  0  0  0  0  0  0  0  0  0  0
   38.1370   22.7010   40.4990 C   0  0  0  0  0  0  0  0  0  0  0  0
   37.5430   21.8950   39.5310 C   0  0  0  0  0  0  0  0  0  0  0  0
   36.2770   22.2100   39.1340 N   0  0  0  0  0  0  0  0  0  0  0  0
   35.6050   23.2590   39.6470 C   0  0  0  0  0  0  0  0  0  0  0  0
   36.1860   24.0050   40.5600 N   0  0  0  0  0  0  0  0  0  0  0  0
   39.1370   22.5110   40.8590 H   0  0  0  0  0  0  0  0  0  0  0  0
   38.0580   21.0620   39.1140 H   0  0  0  0  0  0  0  0  0  0  0  0
   34.6010   23.4880   39.3160 H   0  0  0  0  0  0  0  0  0  0  0  0
  1  3  1  0  0  0  0
  2  1  1  0  0  0  0
  4  1  1  0  0  0  0
  4  5  2  0  0  0  0
  5  9  1  0  0  0  0
  6 10  1  0  0  0  0
  6  5  1  0  0  0  0
  7  6  2  0  0  0  0
  8  7  1  0  0  0  0
  8  4  1  0  0  0  0
 11 16  1  0  0  0  0
 11  7  1  0  0  0  0
 12 11  1  0  0  0  0
 13 12  1  0  0  0  0
 13 14  1  0  0  0  0
 14 15  1  0  0  0  0
 15 16  1  0  0  0  0
 17  1  1  0  0  0  0
 17 18  1  0  0  0  0
 19 17  1  0  0  0  0
 20 17  1  0  0  0  0
 21 26  1  0  0  0  0
 21 20  2  0  0  0  0
 22 21  1  0  0  0  0
 23 22  2  0  0  0  0
 23 24  1  0  0  0  0
 24 25  2  0  0  0  0
 25 20  1  0  0  0  0
 27 22  1  0  0  0  0
 28 24  1  0  0  0  0
M  END
>  <minimizedAffinity>
-4.91257191

$$$$

 OpenBabel03242518143D

 28 30  0  0  0  0  0  0  0  0999 V2000
   33.8850   28.8220   36.4330 C   0  0  0  0  0  0  0  0  0  0  0  0
   34.4110   28.0210   35.8690 H   0  0  0  0  0  0  0  0  0  0  0  0
   34.1140   29.7760   35.9050 H   0  0  0  0  0  0  0  0  0  0  0  0
   34.3600   28.8580   37.7780 C   0  0  0  0  0  0  0  0  0  0  0  0
   33.8680   29.2290   39.0700 C   0  0  0  0  0  0  0  0  0  0  0  0
   34.6600   29.1010   40.1420 C   0  0  0  0  0  0  0  0  0  0  0  0
   36.0090   28.5840   39.9580 C   0  0  0  0  0  0  0  0  0  0  0  0
   36.1050   28.2860   38.1820 S   0  0  0  0  0  0  0  0  0  0  0  0
   32.8590   29.6010   39.1070 H   0  0  0  0  0  0  0  0  0  0  0  0
   34.4030   29.3440   41.1390 H   0  0  0  0  0  0  0  0  0  0  0  0
   37.0500   28.3410   40.8750 C   0  0  0  0  0  3  0  0  0  0  0  0
   37.0150   29.4790   41.8790 C   0  0  0  0  0  2  0  0  0  0  0  0
   38.1470   29.2070   42.8500 C   0  0  0  0  0  2  0  0  0  0  0  0
   37.6510   28.0450   43.6800 C   0  0  0  0  0  2  0  0  0  0  0  0
   37.4700   26.8100   42.8480 C   0  0  0  0  0  2  0  0  0  0  0  0
   36.9360   26.9920   41.4980 C   0  0  0  0  0  2  0  0  0  0  0  0
   32.3960   28.6070   36.2770 C   0  0  0  0  0  0  0  0  0  0  0  0
   31.9570   28.1260   37.1440 H   0  0  0  0  0  0  0  0  0  0  0  0
   32.2490   27.8940   35.4190 H   0  0  0  0  0  0  0  0  0  0  0  0
   31.7770   29.8750   35.9430 C   0  0  0  0  0  0  0  0  0  0  0  0
   30.9970   30.5880   36.8330 C   0  0  0  0  0  0  0  0  0  0  0  0
   30.4390   31.7980   36.4310 C   0  0  0  0  0  0  0  0  0  0  0  0
   30.6960   32.2230   35.1610 N   0  0  0  0  0  0  0  0  0  0  0  0
   31.4590   31.5130   34.3080 C   0  0  0  0  0  0  0  0  0  0  0  0
   31.9750   30.3730   34.7110 N   0  0  0  0  0  0  0  0  0  0  0  0
   30.8350   30.1900   37.8240 H   0  0  0  0  0  0  0  0  0  0  0  0
   29.8330   32.3730   37.0910 H   0  0  0  0  0  0  0  0  0  0  0  0
   31.6490   31.8720   33.3050 H   0  0  0  0  0  0  0  0  0  0  0  0
  1  4  1  0  0  0  0
  2  1  1  0  0  0  0
  3  1  1  0  0  0  0
  4  8  1  0  0  0  0
  4  5  2  0  0  0  0
  5  9  1  0  0  0  0
  5  6  1  0  0  0  0
  6 10  1  0  0  0  0
  7  6  2  0  0  0  0
  7 11  1  0  0  0  0
  8  7  1  0  0  0  0
 11 16  1  0  0  0  0
 11 12  1  0  0  0  0
 12 13  1  0  0  0  0
 13 14  1  0  0  0  0
 15 14  1  0  0  0  0
 16 15  1  0  0  0  0
 17  1  1  0  0  0  0
 17 18  1  0  0  0  0
 19 17  1  0  0  0  0
 20 17  1  0  0  0  0
 20 21  1  0  0  0  0
 21 26  1  0  0  0  0
 22 21  2  0  0  0  0
 22 27  1  0  0  0  0
 23 22  1  0  0  0  0
 24 25  1  0  0  0  0
 24 23  2  0  0  0  0
 25 20  2  0  0  0  0
 28 24  1  0  0  0  0
M  END
>  <minimizedAffinity>
-4.89044523

$$$$

 OpenBabel03242518143D

 28 30  0  0  0  0  0  0  0  0999 V2000
   37.0370   25.2060   41.5020 C   0  0  0  0  0  0  0  0  0  0  0  0
   37.2480   25.1260   40.4140 H   0  0  0  0  0  0  0  0  0  0  0  0
   35.9930   24.8440   41.6440 H   0  0  0  0  0  0  0  0  0  0  0  0
   37.1650   26.5640   41.9200 C   0  0  0  0  0  0  0  0  0  0  0  0
   37.1220   27.3090   43.1420 C   0  0  0  0  0  0  0  0  0  0  0  0
   37.3070   28.6350   43.1160 C   0  0  0  0  0  0  0  0  0  0  0  0
   37.5500   29.2830   41.8340 C   0  0  0  0  0  0  0  0  0  0  0  0
   37.5010   27.9160   40.6580 S   0  0  0  0  0  0  0  0  0  0  0  0
   36.9370   26.7440   44.0380 H   0  0  0  0  0  0  0  0  0  0  0  0
   37.2950   29.2820   43.9530 H   0  0  0  0  0  0  0  0  0  0  0  0
   37.7770   30.6310   41.4960 C   0  0  0  0  0  3  0  0  0  0  0  0
   39.1570   30.6910   40.8650 C   0  0  0  0  0  2  0  0  0  0  0  0
   39.3880   32.1470   40.5180 C   0  0  0  0  0  2  0  0  0  0  0  0
   38.4910   32.3910   39.3260 C   0  0  0  0  0  2  0  0  0  0  0  0
   37.0430   32.2430   39.6850 C   0  0  0  0  0  2  0  0  0  0  0  0
   36.6980   31.1730   40.6230 C   0  0  0  0  0  2  0  0  0  0  0  0
   37.9230   24.2170   42.2270 C   0  0  0  0  0  0  0  0  0  0  0  0
   37.7010   23.1920   41.9560 H   0  0  0  0  0  0  0  0  0  0  0  0
   37.6930   24.3040   43.3250 H   0  0  0  0  0  0  0  0  0  0  0  0
   39.3060   24.5890   42.0080 C   0  0  0  0  0  0  0  0  0  0  0  0
   40.2070   24.7740   43.0400 C   0  0  0  0  0  0  0  0  0  0  0  0
   41.5190   25.1310   42.7410 C   0  0  0  0  0  0  0  0  0  0  0  0
   41.8520   25.2810   41.4270 N   0  0  0  0  0  0  0  0  0  0  0  0
   40.9590   25.0960   40.4360 C   0  0  0  0  0  0  0  0  0  0  0  0
   39.7250   24.7590   40.7420 N   0  0  0  0  0  0  0  0  0  0  0  0
   39.8740   24.6390   44.0580 H   0  0  0  0  0  0  0  0  0  0  0  0
   42.2390   25.2820   43.5110 H   0  0  0  0  0  0  0  0  0  0  0  0
   41.2470   25.2210   39.4000 H   0  0  0  0  0  0  0  0  0  0  0  0
  1  3  1  0  0  0  0
  1  4  1  0  0  0  0
  1 17  1  0  0  0  0
  2  1  1  0  0  0  0
  4  5  2  0  0  0  0
  5  9  1  0  0  0  0
  6  5  1  0  0  0  0
  6 10  1  0  0  0  0
  7  6  2  0  0  0  0
  8  7  1  0  0  0  0
  8  4  1  0  0  0  0
 11  7  1  0  0  0  0
 12 11  1  0  0  0  0
 13 12  1  0  0  0  0
 14 15  1  0  0  0  0
 14 13  1  0  0  0  0
 15 16  1  0  0  0  0
 16 11  1  0  0  0  0
 17 19  1  0  0  0  0
 18 17  1  0  0  0  0
 20 17  1  0  0  0  0
 20 21  1  0  0  0  0
 21 26  1  0  0  0  0
 22 21  2  0  0  0  0
 22 27  1  0  0  0  0
 23 22  1  0  0  0  0
 24 25  1  0  0  0  0
 24 23  2  0  0  0  0
 25 20  2  0  0  0  0
 28 24  1  0  0  0  0
M  END
>  <minimizedAffinity>
-4.86257982

$$$$
