
 OpenBabel03252506203D

 30 32  0  0  0  0  0  0  0  0999 V2000
   45.0690   36.3510   42.9030 C   0  0  0  0  0  0  0  0  0  0  0  0
   43.7780   36.5380   42.3840 C   0  0  0  0  0  0  0  0  0  0  0  0
   43.2850   35.5430   41.5080 C   0  0  0  0  0  0  0  0  0  0  0  0
   44.0690   34.4820   41.2210 N   0  0  0  0  0  0  0  0  0  0  0  0
   45.3050   34.3450   41.7470 C   0  0  0  0  0  0  0  0  0  0  0  0
   45.7990   35.2740   42.5790 N   0  0  0  0  0  0  0  0  0  0  0  0
   43.1630   37.3800   42.6130 H   0  0  0  0  0  0  0  0  0  0  0  0
   42.3170   35.5930   41.0600 H   0  0  0  0  0  0  0  0  0  0  0  0
   48.0360   34.9110   40.5580 Cl  0  0  0  0  0  0  0  0  0  0  0  0
   47.3470   33.3400   40.8230 C   0  0  0  0  0  0  0  0  0  0  0  0
   46.0830   33.1560   41.3750 C   0  0  0  0  0  0  0  0  0  0  0  0
   45.5110   31.9230   41.5950 C   0  0  0  0  0  0  0  0  0  0  0  0
   46.2700   30.8250   41.2350 C   0  0  0  0  0  0  0  0  0  0  0  0
   47.5330   30.8950   40.6800 C   0  0  0  0  0  0  0  0  0  0  0  0
   48.0250   32.1900   40.4960 C   0  0  0  0  0  0  0  0  0  0  0  0
   44.5440   31.8290   42.0190 H   0  0  0  0  0  0  0  0  0  0  0  0
   45.8940   29.8150   41.3750 H   0  0  0  0  0  0  0  0  0  0  0  0
   48.1020   30.0280   40.4090 H   0  0  0  0  0  0  0  0  0  0  0  0
   49.0180   32.2830   40.0610 H   0  0  0  0  0  0  0  0  0  0  0  0
   45.5980   37.3790   43.8170 C   0  0  0  0  0  3  0  0  0  0  0  0
   45.6130   38.6250   43.4060 C   0  0  0  0  0  3  0  0  0  0  0  0
   46.1310   39.7140   44.2690 C   0  0  0  0  0  0  0  0  0  0  0  0
   46.6910   40.4620   43.6820 H   0  0  0  0  0  0  0  0  0  0  0  0
   46.7430   39.3160   45.1140 H   0  0  0  0  0  0  0  0  0  0  0  0
   44.9100   40.3970   44.8800 C   0  0  0  0  0  3  0  0  0  0  0  0
   44.9200   40.2080   46.3410 C   0  0  0  0  0  2  0  0  0  0  0  0
   44.5060   41.4030   47.1640 C   0  0  0  0  0  2  0  0  0  0  0  0
   43.3540   42.0520   46.4240 C   0  0  0  0  0  2  0  0  0  0  0  0
   43.9890   42.7160   45.2260 C   0  0  0  0  0  2  0  0  0  0  0  0
   44.8020   41.8010   44.3920 C   0  0  0  0  0  2  0  0  0  0  0  0
  1 20  1  0  0  0  0
  2  7  1  0  0  0  0
  2  1  2  0  0  0  0
  3  2  1  0  0  0  0
  4  3  2  0  0  0  0
  4  5  1  0  0  0  0
  5  6  2  0  0  0  0
  6  1  1  0  0  0  0
  8  3  1  0  0  0  0
  9 10  1  0  0  0  0
 10 11  1  0  0  0  0
 11 12  2  0  0  0  0
 11  5  1  0  0  0  0
 12 16  1  0  0  0  0
 13 17  1  0  0  0  0
 13 12  1  0  0  0  0
 14 13  2  0  0  0  0
 15 14  1  0  0  0  0
 15 10  2  0  0  0  0
 18 14  1  0  0  0  0
 19 15  1  0  0  0  0
 21 20  2  0  0  0  0
 21 22  1  0  0  0  0
 22 25  1  0  0  0  0
 22 24  1  0  0  0  0
 23 22  1  0  0  0  0
 25 26  1  0  0  0  0
 26 27  1  0  0  0  0
 28 27  1  0  0  0  0
 29 28  1  0  0  0  0
 30 25  1  0  0  0  0
 30 29  1  0  0  0  0
M  END
>  <minimizedAffinity>
-1.74170315

>  <minimizedRMSD>
2.54398251

$$$$
