
 OpenBabel03242516513D

 40 43  0  0  1  0  0  0  0  0999 V2000
   36.4900   30.6830   38.9500 C   0  0  1  0  0  0  0  0  0  0  0  0
   36.7150   29.7390   37.8360 C   0  0  0  0  0  0  0  0  0  0  0  0
   35.3210   29.3200   37.3570 C   0  0  0  0  0  0  0  0  0  0  0  0
   34.7410   28.4500   38.4540 C   0  0  0  0  0  0  0  0  0  0  0  0
   34.7190   29.1080   39.8020 C   0  0  0  0  0  0  0  0  0  0  0  0
   35.8210   30.0220   40.1370 C   0  0  1  0  0  0  0  0  0  0  0  0
   35.7270   31.4500   38.6170 H   0  0  0  0  0  0  0  0  0  0  0  0
   37.1780   30.2760   36.9850 H   0  0  0  0  0  0  0  0  0  0  0  0
   37.3150   28.8650   38.0930 H   0  0  0  0  0  0  0  0  0  0  0  0
   35.4100   28.6460   36.4700 H   0  0  0  0  0  0  0  0  0  0  0  0
   34.6990   30.2030   37.1900 H   0  0  0  0  0  0  0  0  0  0  0  0
   35.2880   27.4820   38.4720 H   0  0  0  0  0  0  0  0  0  0  0  0
   33.7020   28.2170   38.1250 H   0  0  0  0  0  0  0  0  0  0  0  0
   33.7220   29.6260   39.8880 H   0  0  0  0  0  0  0  0  0  0  0  0
   34.6700   28.3000   40.5670 H   0  0  0  0  0  0  0  0  0  0  0  0
   35.3940   30.8810   40.7390 H   0  0  0  0  0  0  0  0  0  0  0  0
   38.5830   33.4630   40.4170 C   0  0  0  0  0  0  0  0  0  0  0  0
   37.5060   32.6850   39.9910 C   0  0  0  0  0  0  0  0  0  0  0  0
   37.6540   31.4460   39.3830 C   0  0  0  0  0  0  0  0  0  0  0  0
   38.9150   31.0140   39.2180 N   0  0  0  0  0  0  0  0  0  0  0  0
   39.9720   31.7660   39.6320 C   0  0  0  0  0  0  0  0  0  0  0  0
   39.8230   32.9540   40.2140 N   0  0  0  0  0  0  0  0  0  0  0  0
   38.4270   34.4150   40.8820 H   0  0  0  0  0  0  0  0  0  0  0  0
   36.5190   33.1290   40.1710 H   0  0  0  0  0  0  0  0  0  0  0  0
   40.9670   31.3600   39.4690 H   0  0  0  0  0  0  0  0  0  0  0  0
   36.8160   29.4180   41.0400 C   0  0  0  0  0  0  0  0  0  0  0  0
   37.3610   29.9860   42.1920 C   0  0  0  0  0  0  0  0  0  0  0  0
   38.2760   29.1920   42.8980 C   0  0  0  0  0  0  0  0  0  0  0  0
   38.5580   27.9350   42.4080 C   0  0  0  0  0  0  0  0  0  0  0  0
   38.0160   27.3940   41.2800 C   0  0  0  0  0  0  0  0  0  0  0  0
   37.1290   28.1640   40.5940 N   0  0  0  0  0  0  0  0  0  0  0  0
   37.0270   30.9660   42.4160 H   0  0  0  0  0  0  0  0  0  0  0  0
   38.6830   29.6340   43.7720 H   0  0  0  0  0  0  0  0  0  0  0  0
   39.2710   27.3920   43.0130 H   0  0  0  0  0  0  0  0  0  0  0  0
   38.3760   26.0070   40.8050 C   0  0  0  0  0  3  0  0  0  0  0  0
   37.3040   25.5430   39.8590 C   0  0  0  0  0  2  0  0  0  0  0  0
   37.3640   24.0980   39.4960 C   0  0  0  0  0  2  0  0  0  0  0  0
   37.5260   23.1860   40.6750 C   0  0  0  0  0  2  0  0  0  0  0  0
   37.4220   24.0540   41.9350 C   0  0  0  0  0  2  0  0  0  0  0  0
   38.5460   25.0290   41.9050 C   0  0  0  0  0  2  0  0  0  0  0  0
  1  7  1  6  0  0  0
  1 19  1  0  0  0  0
  1  6  1  0  0  0  0
  2  9  1  0  0  0  0
  2  1  1  0  0  0  0
  3  2  1  0  0  0  0
  3  4  1  0  0  0  0
  4 12  1  0  0  0  0
  4  5  1  0  0  0  0
  5 14  1  0  0  0  0
  5  6  1  0  0  0  0
  5 15  1  0  0  0  0
  6 16  1  1  0  0  0
  6 26  1  0  0  0  0
  8  2  1  0  0  0  0
 10  3  1  0  0  0  0
 11  3  1  0  0  0  0
 13  4  1  0  0  0  0
 17 23  1  0  0  0  0
 18 24  1  0  0  0  0
 18 17  2  0  0  0  0
 19 18  1  0  0  0  0
 20 19  2  0  0  0  0
 20 21  1  0  0  0  0
 21 22  2  0  0  0  0
 22 17  1  0  0  0  0
 25 21  1  0  0  0  0
 26 27  1  0  0  0  0
 27 32  1  0  0  0  0
 27 28  2  0  0  0  0
 28 33  1  0  0  0  0
 29 28  1  0  0  0  0
 29 34  1  0  0  0  0
 30 29  2  0  0  0  0
 31 26  2  0  0  0  0
 31 30  1  0  0  0  0
 35 30  1  0  0  0  0
 35 40  1  0  0  0  0
 36 35  1  0  0  0  0
 37 36  1  0  0  0  0
 37 38  1  0  0  0  0
 38 39  1  0  0  0  0
 40 39  1  0  0  0  0
M  END
>  <minimizedAffinity>
-6.26057243

$$$$

 OpenBabel03242516513D

 40 43  0  0  1  0  0  0  0  0999 V2000
   36.6700   30.3900   39.2230 C   0  0  1  0  0  0  0  0  0  0  0  0
   36.7980   29.4370   38.1000 C   0  0  0  0  0  0  0  0  0  0  0  0
   35.3980   29.3220   37.4900 C   0  0  0  0  0  0  0  0  0  0  0  0
   34.5550   28.5730   38.5020 C   0  0  0  0  0  0  0  0  0  0  0  0
   34.5450   29.1990   39.8650 C   0  0  0  0  0  0  0  0  0  0  0  0
   35.7750   29.8610   40.3240 C   0  0  1  0  0  0  0  0  0  0  0  0
   36.1130   31.3030   38.8520 H   0  0  0  0  0  0  0  0  0  0  0  0
   37.4370   29.8810   37.3110 H   0  0  0  0  0  0  0  0  0  0  0  0
   37.1820   28.4550   38.3770 H   0  0  0  0  0  0  0  0  0  0  0  0
   35.4280   28.6600   36.5900 H   0  0  0  0  0  0  0  0  0  0  0  0
   34.9860   30.3180   37.3000 H   0  0  0  0  0  0  0  0  0  0  0  0
   34.8890   27.5130   38.5340 H   0  0  0  0  0  0  0  0  0  0  0  0
   33.5250   28.5650   38.0770 H   0  0  0  0  0  0  0  0  0  0  0  0
   33.6720   29.9100   39.8830 H   0  0  0  0  0  0  0  0  0  0  0  0
   34.2630   28.4070   40.5950 H   0  0  0  0  0  0  0  0  0  0  0  0
   35.4790   30.7800   40.9180 H   0  0  0  0  0  0  0  0  0  0  0  0
   39.1370   32.6390   40.9870 C   0  0  0  0  0  0  0  0  0  0  0  0
   37.9680   32.1080   40.4420 C   0  0  0  0  0  0  0  0  0  0  0  0
   37.9210   30.8890   39.7800 C   0  0  0  0  0  0  0  0  0  0  0  0
   39.0830   30.2220   39.6840 N   0  0  0  0  0  0  0  0  0  0  0  0
   40.2280   30.7330   40.2140 C   0  0  0  0  0  0  0  0  0  0  0  0
   40.2670   31.9030   40.8470 N   0  0  0  0  0  0  0  0  0  0  0  0
   39.1320   33.5850   41.4910 H   0  0  0  0  0  0  0  0  0  0  0  0
   37.0750   32.7320   40.5740 H   0  0  0  0  0  0  0  0  0  0  0  0
   41.1360   30.1440   40.1030 H   0  0  0  0  0  0  0  0  0  0  0  0
   36.5390   29.0500   41.2880 C   0  0  0  0  0  0  0  0  0  0  0  0
   37.2170   29.5050   42.4200 C   0  0  0  0  0  0  0  0  0  0  0  0
   37.8500   28.5240   43.1950 C   0  0  0  0  0  0  0  0  0  0  0  0
   37.7550   27.2110   42.7870 C   0  0  0  0  0  0  0  0  0  0  0  0
   37.0890   26.7830   41.6780 C   0  0  0  0  0  0  0  0  0  0  0  0
   36.4740   27.7340   40.9240 N   0  0  0  0  0  0  0  0  0  0  0  0
   37.1840   30.5530   42.5780 H   0  0  0  0  0  0  0  0  0  0  0  0
   38.3620   28.8820   44.0540 H   0  0  0  0  0  0  0  0  0  0  0  0
   38.2710   26.5230   43.4420 H   0  0  0  0  0  0  0  0  0  0  0  0
   37.0290   25.3240   41.2930 C   0  0  0  0  0  3  0  0  0  0  0  0
   38.3930   24.7280   41.5040 C   0  0  0  0  0  2  0  0  0  0  0  0
   38.5810   23.3650   40.9310 C   0  0  0  0  0  2  0  0  0  0  0  0
   38.1080   23.2340   39.5150 C   0  0  0  0  0  2  0  0  0  0  0  0
   37.7070   24.6370   39.0410 C   0  0  0  0  0  2  0  0  0  0  0  0
   36.5810   25.0960   39.9000 C   0  0  0  0  0  2  0  0  0  0  0  0
  1  7  1  6  0  0  0
  1 19  1  0  0  0  0
  1  6  1  0  0  0  0
  2  9  1  0  0  0  0
  2  1  1  0  0  0  0
  3  2  1  0  0  0  0
  3  4  1  0  0  0  0
  4 12  1  0  0  0  0
  4  5  1  0  0  0  0
  5 14  1  0  0  0  0
  5  6  1  0  0  0  0
  5 15  1  0  0  0  0
  6 16  1  1  0  0  0
  6 26  1  0  0  0  0
  8  2  1  0  0  0  0
 10  3  1  0  0  0  0
 11  3  1  0  0  0  0
 13  4  1  0  0  0  0
 17 23  1  0  0  0  0
 18 24  1  0  0  0  0
 18 17  2  0  0  0  0
 19 18  1  0  0  0  0
 20 19  2  0  0  0  0
 20 21  1  0  0  0  0
 21 22  2  0  0  0  0
 22 17  1  0  0  0  0
 25 21  1  0  0  0  0
 26 27  1  0  0  0  0
 27 32  1  0  0  0  0
 27 28  2  0  0  0  0
 28 33  1  0  0  0  0
 29 28  1  0  0  0  0
 29 34  1  0  0  0  0
 30 29  2  0  0  0  0
 31 26  2  0  0  0  0
 31 30  1  0  0  0  0
 35 36  1  0  0  0  0
 35 30  1  0  0  0  0
 37 36  1  0  0  0  0
 38 37  1  0  0  0  0
 39 38  1  0  0  0  0
 39 40  1  0  0  0  0
 40 35  1  0  0  0  0
M  END
>  <minimizedAffinity>
-6.1961298

$$$$

 OpenBabel03242516513D

 40 43  0  0  1  0  0  0  0  0999 V2000
   36.7500   30.5610   39.2920 C   0  0  1  0  0  0  0  0  0  0  0  0
   36.9460   29.6360   38.1560 C   0  0  0  0  0  0  0  0  0  0  0  0
   35.5500   29.3850   37.5770 C   0  0  0  0  0  0  0  0  0  0  0  0
   34.8130   28.5450   38.6010 C   0  0  0  0  0  0  0  0  0  0  0  0
   34.7730   29.1550   39.9700 C   0  0  0  0  0  0  0  0  0  0  0  0
   35.9400   29.9340   40.4080 C   0  0  1  0  0  0  0  0  0  0  0  0
   36.0940   31.4160   38.9450 H   0  0  0  0  0  0  0  0  0  0  0  0
   37.5170   30.1500   37.3570 H   0  0  0  0  0  0  0  0  0  0  0  0
   37.4340   28.6960   38.4130 H   0  0  0  0  0  0  0  0  0  0  0  0
   35.6250   28.7380   36.6700 H   0  0  0  0  0  0  0  0  0  0  0  0
   35.0360   30.3360   37.4090 H   0  0  0  0  0  0  0  0  0  0  0  0
   35.2530   27.5250   38.6120 H   0  0  0  0  0  0  0  0  0  0  0  0
   33.7790   28.4360   38.1990 H   0  0  0  0  0  0  0  0  0  0  0  0
   33.8320   29.7740   40.0170 H   0  0  0  0  0  0  0  0  0  0  0  0
   34.5900   28.3310   40.6980 H   0  0  0  0  0  0  0  0  0  0  0  0
   35.5670   30.8130   41.0190 H   0  0  0  0  0  0  0  0  0  0  0  0
   40.3910   31.1570   40.0940 C   0  0  0  0  0  0  0  0  0  0  0  0
   39.2050   30.6150   39.6010 C   0  0  0  0  0  0  0  0  0  0  0  0
   37.9570   31.1790   39.8260 C   0  0  0  0  0  0  0  0  0  0  0  0
   37.9400   32.3040   40.5610 N   0  0  0  0  0  0  0  0  0  0  0  0
   39.0930   32.8390   41.0460 C   0  0  0  0  0  0  0  0  0  0  0  0
   40.2870   32.2930   40.8270 N   0  0  0  0  0  0  0  0  0  0  0  0
   41.3360   30.6900   39.8980 H   0  0  0  0  0  0  0  0  0  0  0  0
   39.3290   29.6960   39.0140 H   0  0  0  0  0  0  0  0  0  0  0  0
   39.0120   33.7500   41.6340 H   0  0  0  0  0  0  0  0  0  0  0  0
   36.8060   29.1970   41.3450 C   0  0  0  0  0  0  0  0  0  0  0  0
   37.3250   29.6600   42.5540 C   0  0  0  0  0  0  0  0  0  0  0  0
   38.1050   28.7500   43.2800 C   0  0  0  0  0  0  0  0  0  0  0  0
   38.2960   27.4910   42.7520 C   0  0  0  0  0  0  0  0  0  0  0  0
   37.7820   27.0540   41.5670 C   0  0  0  0  0  0  0  0  0  0  0  0
   37.0240   27.9360   40.8620 N   0  0  0  0  0  0  0  0  0  0  0  0
   37.0740   30.6600   42.8020 H   0  0  0  0  0  0  0  0  0  0  0  0
   38.4930   29.1140   44.1980 H   0  0  0  0  0  0  0  0  0  0  0  0
   38.9080   26.8550   43.3750 H   0  0  0  0  0  0  0  0  0  0  0  0
   38.0350   25.6570   41.0520 C   0  0  0  0  0  3  0  0  0  0  0  0
   37.6470   25.6160   39.6000 C   0  0  0  0  0  2  0  0  0  0  0  0
   37.5880   24.2520   39.0010 C   0  0  0  0  0  2  0  0  0  0  0  0
   36.8250   23.2620   39.8290 C   0  0  0  0  0  2  0  0  0  0  0  0
   36.1990   24.0360   40.9950 C   0  0  0  0  0  2  0  0  0  0  0  0
   37.3110   24.6070   41.8050 C   0  0  0  0  0  2  0  0  0  0  0  0
  1  7  1  6  0  0  0
  1 19  1  0  0  0  0
  1  6  1  0  0  0  0
  2  9  1  0  0  0  0
  2  1  1  0  0  0  0
  3  2  1  0  0  0  0
  3  4  1  0  0  0  0
  4 12  1  0  0  0  0
  4  5  1  0  0  0  0
  5 14  1  0  0  0  0
  5  6  1  0  0  0  0
  5 15  1  0  0  0  0
  6 16  1  1  0  0  0
  6 26  1  0  0  0  0
  8  2  1  0  0  0  0
 10  3  1  0  0  0  0
 11  3  1  0  0  0  0
 13  4  1  0  0  0  0
 17 22  1  0  0  0  0
 18 19  1  0  0  0  0
 18 17  2  0  0  0  0
 19 20  2  0  0  0  0
 20 21  1  0  0  0  0
 21 25  1  0  0  0  0
 22 21  2  0  0  0  0
 23 17  1  0  0  0  0
 24 18  1  0  0  0  0
 26 27  1  0  0  0  0
 27 32  1  0  0  0  0
 27 28  2  0  0  0  0
 28 33  1  0  0  0  0
 29 28  1  0  0  0  0
 29 34  1  0  0  0  0
 30 29  2  0  0  0  0
 31 26  2  0  0  0  0
 31 30  1  0  0  0  0
 35 30  1  0  0  0  0
 35 40  1  0  0  0  0
 36 35  1  0  0  0  0
 37 36  1  0  0  0  0
 37 38  1  0  0  0  0
 38 39  1  0  0  0  0
 39 40  1  0  0  0  0
M  END
>  <minimizedAffinity>
-6.11374903

$$$$

 OpenBabel03242516513D

 40 43  0  0  1  0  0  0  0  0999 V2000
   37.3310   30.3310   38.6980 C   0  0  1  0  0  0  0  0  0  0  0  0
   36.7660   28.9860   38.4680 C   0  0  0  0  0  0  0  0  0  0  0  0
   35.2560   29.1250   38.6860 C   0  0  0  0  0  0  0  0  0  0  0  0
   35.0630   29.3460   40.1730 C   0  0  0  0  0  0  0  0  0  0  0  0
   35.8380   30.5070   40.7190 C   0  0  0  0  0  0  0  0  0  0  0  0
   37.1560   30.7890   40.1310 C   0  0  1  0  0  0  0  0  0  0  0  0
   36.7180   31.0800   38.1100 H   0  0  0  0  0  0  0  0  0  0  0  0
   36.8930   28.7100   37.4020 H   0  0  0  0  0  0  0  0  0  0  0  0
   37.1790   28.2020   39.1040 H   0  0  0  0  0  0  0  0  0  0  0  0
   34.7490   28.1530   38.4690 H   0  0  0  0  0  0  0  0  0  0  0  0
   34.8690   29.9710   38.1120 H   0  0  0  0  0  0  0  0  0  0  0  0
   35.2940   28.4000   40.7100 H   0  0  0  0  0  0  0  0  0  0  0  0
   33.9690   29.5200   40.3030 H   0  0  0  0  0  0  0  0  0  0  0  0
   35.1610   31.4050   40.6470 H   0  0  0  0  0  0  0  0  0  0  0  0
   35.9550   30.3450   41.8150 H   0  0  0  0  0  0  0  0  0  0  0  0
   37.2890   31.9140   40.0900 H   0  0  0  0  0  0  0  0  0  0  0  0
   40.8940   29.5680   37.7080 C   0  0  0  0  0  0  0  0  0  0  0  0
   39.5640   29.4420   38.1080 C   0  0  0  0  0  0  0  0  0  0  0  0
   38.7100   30.5250   38.2680 C   0  0  0  0  0  0  0  0  0  0  0  0
   39.2350   31.7360   38.0150 N   0  0  0  0  0  0  0  0  0  0  0  0
   40.5320   31.8670   37.6240 C   0  0  0  0  0  0  0  0  0  0  0  0
   41.3460   30.8250   37.4720 N   0  0  0  0  0  0  0  0  0  0  0  0
   41.5220   28.7070   37.5960 H   0  0  0  0  0  0  0  0  0  0  0  0
   39.2350   28.4120   38.2910 H   0  0  0  0  0  0  0  0  0  0  0  0
   40.8960   32.8740   37.4340 H   0  0  0  0  0  0  0  0  0  0  0  0
   38.2730   30.3330   40.9770 C   0  0  0  0  0  0  0  0  0  0  0  0
   39.4360   31.0380   41.2880 C   0  0  0  0  0  0  0  0  0  0  0  0
   40.3400   30.3910   42.1400 C   0  0  0  0  0  0  0  0  0  0  0  0
   40.0170   29.1310   42.5960 C   0  0  0  0  0  0  0  0  0  0  0  0
   38.8750   28.4550   42.2820 C   0  0  0  0  0  0  0  0  0  0  0  0
   37.9970   29.0820   41.4550 N   0  0  0  0  0  0  0  0  0  0  0  0
   39.5160   31.9980   40.8450 H   0  0  0  0  0  0  0  0  0  0  0  0
   41.2200   30.9380   42.3700 H   0  0  0  0  0  0  0  0  0  0  0  0
   40.7680   28.7070   43.2460 H   0  0  0  0  0  0  0  0  0  0  0  0
   38.5900   27.0730   42.8210 C   0  0  0  0  0  3  0  0  0  0  0  0
   39.5510   26.1120   42.1780 C   0  0  0  0  0  2  0  0  0  0  0  0
   39.2420   24.6700   42.3980 C   0  0  0  0  0  2  0  0  0  0  0  0
   37.8100   24.3130   42.1380 C   0  0  0  0  0  2  0  0  0  0  0  0
   37.1300   25.5610   41.5620 C   0  0  0  0  0  2  0  0  0  0  0  0
   37.1950   26.6270   42.5990 C   0  0  0  0  0  2  0  0  0  0  0  0
  1  7  1  6  0  0  0
  1  6  1  0  0  0  0
  2  3  1  0  0  0  0
  2  1  1  0  0  0  0
  2  9  1  0  0  0  0
  3  4  1  0  0  0  0
  4 13  1  0  0  0  0
  4 12  1  0  0  0  0
  4  5  1  0  0  0  0
  5 15  1  0  0  0  0
  6 16  1  6  0  0  0
  6  5  1  0  0  0  0
  6 26  1  0  0  0  0
  8  2  1  0  0  0  0
 10  3  1  0  0  0  0
 11  3  1  0  0  0  0
 14  5  1  0  0  0  0
 17 18  1  0  0  0  0
 18 19  2  0  0  0  0
 18 24  1  0  0  0  0
 19  1  1  0  0  0  0
 20 19  1  0  0  0  0
 21 20  2  0  0  0  0
 22 21  1  0  0  0  0
 22 17  2  0  0  0  0
 23 17  1  0  0  0  0
 25 21  1  0  0  0  0
 26 27  2  0  0  0  0
 26 31  1  0  0  0  0
 27 28  1  0  0  0  0
 28 33  1  0  0  0  0
 28 29  2  0  0  0  0
 29 34  1  0  0  0  0
 30 29  1  0  0  0  0
 30 35  1  0  0  0  0
 31 30  2  0  0  0  0
 32 27  1  0  0  0  0
 36 37  1  0  0  0  0
 36 35  1  0  0  0  0
 38 37  1  0  0  0  0
 39 38  1  0  0  0  0
 39 40  1  0  0  0  0
 40 35  1  0  0  0  0
M  END
>  <minimizedAffinity>
-6.00137711

$$$$

 OpenBabel03242516513D

 40 43  0  0  1  0  0  0  0  0999 V2000
   38.9400   24.8740   40.8550 C   0  0  1  0  0  0  0  0  0  0  0  0
   38.3460   23.7260   41.5700 C   0  0  0  0  0  0  0  0  0  0  0  0
   37.4710   23.0010   40.5420 C   0  0  0  0  0  0  0  0  0  0  0  0
   36.2880   23.9100   40.2790 C   0  0  0  0  0  0  0  0  0  0  0  0
   36.6710   25.2930   39.8430 C   0  0  0  0  0  0  0  0  0  0  0  0
   37.8940   25.8770   40.4130 C   0  0  1  0  0  0  0  0  0  0  0  0
   39.3690   24.5000   39.8760 H   0  0  0  0  0  0  0  0  0  0  0  0
   39.1460   23.0100   41.8450 H   0  0  0  0  0  0  0  0  0  0  0  0
   37.7660   23.9900   42.4550 H   0  0  0  0  0  0  0  0  0  0  0  0
   37.0330   22.0790   40.9980 H   0  0  0  0  0  0  0  0  0  0  0  0
   38.0380   22.8220   39.6240 H   0  0  0  0  0  0  0  0  0  0  0  0
   35.6360   23.9220   41.1790 H   0  0  0  0  0  0  0  0  0  0  0  0
   35.7030   23.4040   39.4760 H   0  0  0  0  0  0  0  0  0  0  0  0
   36.7180   25.2720   38.7180 H   0  0  0  0  0  0  0  0  0  0  0  0
   35.8090   25.9640   40.0640 H   0  0  0  0  0  0  0  0  0  0  0  0
   38.4040   26.4840   39.6040 H   0  0  0  0  0  0  0  0  0  0  0  0
   41.3610   25.8940   43.5670 C   0  0  0  0  0  0  0  0  0  0  0  0
   40.3300   25.2720   42.8630 C   0  0  0  0  0  0  0  0  0  0  0  0
   40.0370   25.5510   41.5350 C   0  0  0  0  0  0  0  0  0  0  0  0
   40.8110   26.4730   40.9380 N   0  0  0  0  0  0  0  0  0  0  0  0
   41.8190   27.0840   41.6180 C   0  0  0  0  0  0  0  0  0  0  0  0
   42.0950   26.8130   42.8920 N   0  0  0  0  0  0  0  0  0  0  0  0
   41.5550   25.6520   44.5920 H   0  0  0  0  0  0  0  0  0  0  0  0
   39.7570   24.5360   43.4420 H   0  0  0  0  0  0  0  0  0  0  0  0
   42.4090   27.8210   41.0790 H   0  0  0  0  0  0  0  0  0  0  0  0
   37.6210   26.8640   41.4730 C   0  0  0  0  0  0  0  0  0  0  0  0
   37.1120   26.6110   42.7470 C   0  0  0  0  0  0  0  0  0  0  0  0
   36.9670   27.7240   43.5860 C   0  0  0  0  0  0  0  0  0  0  0  0
   37.3320   28.9590   43.0950 C   0  0  0  0  0  0  0  0  0  0  0  0
   37.8280   29.1900   41.8460 C   0  0  0  0  0  0  0  0  0  0  0  0
   37.9690   28.1100   41.0320 N   0  0  0  0  0  0  0  0  0  0  0  0
   36.8850   25.5950   42.9520 H   0  0  0  0  0  0  0  0  0  0  0  0
   36.5790   27.5190   44.5520 H   0  0  0  0  0  0  0  0  0  0  0  0
   37.1880   29.7600   43.8060 H   0  0  0  0  0  0  0  0  0  0  0  0
   38.2070   30.5750   41.3790 C   0  0  0  0  0  3  0  0  0  0  0  0
   36.9940   31.2060   40.7540 C   0  0  0  0  0  2  0  0  0  0  0  0
   37.2540   32.4700   40.0080 C   0  0  0  0  0  2  0  0  0  0  0  0
   38.4120   32.3840   39.0600 C   0  0  0  0  0  2  0  0  0  0  0  0
   38.8800   30.9240   39.0490 C   0  0  0  0  0  2  0  0  0  0  0  0
   39.3400   30.5890   40.4250 C   0  0  0  0  0  2  0  0  0  0  0  0
  1  7  1  6  0  0  0
  1 19  1  0  0  0  0
  1  2  1  0  0  0  0
  2  8  1  0  0  0  0
  2  9  1  0  0  0  0
  3 10  1  0  0  0  0
  3  2  1  0  0  0  0
  4  3  1  0  0  0  0
  4 12  1  0  0  0  0
  5 15  1  0  0  0  0
  5  4  1  0  0  0  0
  5  6  1  0  0  0  0
  6 16  1  6  0  0  0
  6  1  1  0  0  0  0
  6 26  1  0  0  0  0
 11  3  1  0  0  0  0
 13  4  1  0  0  0  0
 14  5  1  0  0  0  0
 17 23  1  0  0  0  0
 18 24  1  0  0  0  0
 18 17  2  0  0  0  0
 19 18  1  0  0  0  0
 20 19  2  0  0  0  0
 20 21  1  0  0  0  0
 21 22  2  0  0  0  0
 22 17  1  0  0  0  0
 25 21  1  0  0  0  0
 26 27  1  0  0  0  0
 27 32  1  0  0  0  0
 27 28  2  0  0  0  0
 28 33  1  0  0  0  0
 29 28  1  0  0  0  0
 29 34  1  0  0  0  0
 30 29  2  0  0  0  0
 31 26  2  0  0  0  0
 31 30  1  0  0  0  0
 35 30  1  0  0  0  0
 36 35  1  0  0  0  0
 37 36  1  0  0  0  0
 38 37  1  0  0  0  0
 39 38  1  0  0  0  0
 39 40  1  0  0  0  0
 40 35  1  0  0  0  0
M  END
>  <minimizedAffinity>
-5.9779315

$$$$

 OpenBabel03242516513D

 40 43  0  0  1  0  0  0  0  0999 V2000
   39.6740   32.0810   38.3110 C   0  0  1  0  0  0  0  0  0  0  0  0
   38.4830   31.2080   38.2590 C   0  0  0  0  0  0  0  0  0  0  0  0
   37.2800   32.1500   38.1480 C   0  0  0  0  0  0  0  0  0  0  0  0
   37.1590   32.8410   39.4900 C   0  0  0  0  0  0  0  0  0  0  0  0
   38.4100   33.5460   39.9240 C   0  0  0  0  0  0  0  0  0  0  0  0
   39.6990   32.9420   39.5570 C   0  0  1  0  0  0  0  0  0  0  0  0
   39.5950   32.8390   37.4740 H   0  0  0  0  0  0  0  0  0  0  0  0
   38.4970   30.6220   37.3180 H   0  0  0  0  0  0  0  0  0  0  0  0
   38.3730   30.5360   39.1110 H   0  0  0  0  0  0  0  0  0  0  0  0
   36.3400   31.5550   38.0420 H   0  0  0  0  0  0  0  0  0  0  0  0
   37.4440   32.8770   37.3470 H   0  0  0  0  0  0  0  0  0  0  0  0
   36.8140   32.1020   40.2460 H   0  0  0  0  0  0  0  0  0  0  0  0
   36.3290   33.5750   39.3680 H   0  0  0  0  0  0  0  0  0  0  0  0
   38.3320   34.6010   39.5380 H   0  0  0  0  0  0  0  0  0  0  0  0
   38.3630   33.6590   41.0320 H   0  0  0  0  0  0  0  0  0  0  0  0
   40.4220   33.7790   39.3110 H   0  0  0  0  0  0  0  0  0  0  0  0
   43.2870   31.5160   37.3720 C   0  0  0  0  0  0  0  0  0  0  0  0
   42.0390   32.1000   37.5810 C   0  0  0  0  0  0  0  0  0  0  0  0
   40.9590   31.4180   38.1260 C   0  0  0  0  0  0  0  0  0  0  0  0
   41.1740   30.1330   38.4530 N   0  0  0  0  0  0  0  0  0  0  0  0
   42.3900   29.5550   38.2520 C   0  0  0  0  0  0  0  0  0  0  0  0
   43.4210   30.2140   37.7290 N   0  0  0  0  0  0  0  0  0  0  0  0
   44.0970   32.0760   36.9480 H   0  0  0  0  0  0  0  0  0  0  0  0
   41.9680   33.1530   37.2790 H   0  0  0  0  0  0  0  0  0  0  0  0
   42.5000   28.5120   38.5380 H   0  0  0  0  0  0  0  0  0  0  0  0
   40.3450   32.2370   40.6780 C   0  0  0  0  0  0  0  0  0  0  0  0
   41.6550   32.3980   41.1310 C   0  0  0  0  0  0  0  0  0  0  0  0
   42.0240   31.6240   42.2400 C   0  0  0  0  0  0  0  0  0  0  0  0
   41.0810   30.7810   42.7860 C   0  0  0  0  0  0  0  0  0  0  0  0
   39.8040   30.6350   42.3310 C   0  0  0  0  0  0  0  0  0  0  0  0
   39.4450   31.3850   41.2550 N   0  0  0  0  0  0  0  0  0  0  0  0
   42.2410   33.0940   40.5860 H   0  0  0  0  0  0  0  0  0  0  0  0
   43.0220   31.7560   42.5750 H   0  0  0  0  0  0  0  0  0  0  0  0
   41.4490   30.2240   43.6360 H   0  0  0  0  0  0  0  0  0  0  0  0
   38.8260   29.6880   42.9840 C   0  0  0  0  0  3  0  0  0  0  0  0
   39.4650   28.3290   43.0530 C   0  0  0  0  0  2  0  0  0  0  0  0
   38.5450   27.2180   43.4300 C   0  0  0  0  0  2  0  0  0  0  0  0
   37.2590   27.2110   42.6610 C   0  0  0  0  0  2  0  0  0  0  0  0
   37.3690   28.3000   41.5860 C   0  0  0  0  0  2  0  0  0  0  0  0
   37.5230   29.6060   42.2830 C   0  0  0  0  0  2  0  0  0  0  0  0
  1  7  1  6  0  0  0
  1  6  1  0  0  0  0
  2  1  1  0  0  0  0
  2  9  1  0  0  0  0
  3  2  1  0  0  0  0
  3  4  1  0  0  0  0
  4  5  1  0  0  0  0
  4 12  1  0  0  0  0
  5 15  1  0  0  0  0
  6 16  1  6  0  0  0
  6  5  1  0  0  0  0
  6 26  1  0  0  0  0
  8  2  1  0  0  0  0
 10  3  1  0  0  0  0
 11  3  1  0  0  0  0
 13  4  1  0  0  0  0
 14  5  1  0  0  0  0
 17 18  2  0  0  0  0
 17 22  1  0  0  0  0
 18 19  1  0  0  0  0
 19  1  1  0  0  0  0
 19 20  2  0  0  0  0
 21 20  1  0  0  0  0
 21 25  1  0  0  0  0
 22 21  2  0  0  0  0
 23 17  1  0  0  0  0
 24 18  1  0  0  0  0
 26 27  2  0  0  0  0
 26 31  1  0  0  0  0
 27 28  1  0  0  0  0
 28 33  1  0  0  0  0
 28 29  2  0  0  0  0
 29 34  1  0  0  0  0
 30 29  1  0  0  0  0
 30 35  1  0  0  0  0
 31 30  2  0  0  0  0
 32 27  1  0  0  0  0
 35 36  1  0  0  0  0
 36 37  1  0  0  0  0
 38 37  1  0  0  0  0
 39 40  1  0  0  0  0
 39 38  1  0  0  0  0
 40 35  1  0  0  0  0
M  END
>  <minimizedAffinity>
-5.80819941

$$$$

 OpenBabel03242516513D

 40 43  0  0  1  0  0  0  0  0999 V2000
   38.0520   26.2340   41.6470 C   0  0  1  0  0  0  0  0  0  0  0  0
   39.2050   27.0020   42.1630 C   0  0  0  0  0  0  0  0  0  0  0  0
   38.8540   27.3590   43.6110 C   0  0  0  0  0  0  0  0  0  0  0  0
   37.7440   28.3870   43.5350 C   0  0  0  0  0  0  0  0  0  0  0  0
   36.5530   27.9360   42.7430 C   0  0  0  0  0  0  0  0  0  0  0  0
   36.7920   27.0710   41.5780 C   0  0  1  0  0  0  0  0  0  0  0  0
   37.7910   25.4340   42.4050 H   0  0  0  0  0  0  0  0  0  0  0  0
   40.0920   26.3400   42.2210 H   0  0  0  0  0  0  0  0  0  0  0  0
   39.4490   27.8970   41.5900 H   0  0  0  0  0  0  0  0  0  0  0  0
   39.7110   27.8930   44.0890 H   0  0  0  0  0  0  0  0  0  0  0  0
   38.5240   26.4670   44.1490 H   0  0  0  0  0  0  0  0  0  0  0  0
   38.1630   29.3420   43.1490 H   0  0  0  0  0  0  0  0  0  0  0  0
   37.4500   28.5790   44.5930 H   0  0  0  0  0  0  0  0  0  0  0  0
   35.8500   27.4460   43.4740 H   0  0  0  0  0  0  0  0  0  0  0  0
   36.0060   28.8490   42.4130 H   0  0  0  0  0  0  0  0  0  0  0  0
   35.9500   26.3150   41.5240 H   0  0  0  0  0  0  0  0  0  0  0  0
   37.6970   23.6820   38.8870 C   0  0  0  0  0  0  0  0  0  0  0  0
   37.5300   24.3990   40.0720 C   0  0  0  0  0  0  0  0  0  0  0  0
   38.2660   25.5330   40.3880 C   0  0  0  0  0  0  0  0  0  0  0  0
   39.1730   25.9230   39.4770 N   0  0  0  0  0  0  0  0  0  0  0  0
   39.3430   25.2290   38.3180 C   0  0  0  0  0  0  0  0  0  0  0  0
   38.6340   24.1420   38.0210 N   0  0  0  0  0  0  0  0  0  0  0  0
   37.1090   22.8110   38.6800 H   0  0  0  0  0  0  0  0  0  0  0  0
   36.7640   23.9960   40.7480 H   0  0  0  0  0  0  0  0  0  0  0  0
   40.0930   25.5960   37.6220 H   0  0  0  0  0  0  0  0  0  0  0  0
   36.7000   27.7920   40.2970 C   0  0  0  0  0  0  0  0  0  0  0  0
   35.9650   27.4180   39.1710 C   0  0  0  0  0  0  0  0  0  0  0  0
   36.0230   28.2940   38.0780 C   0  0  0  0  0  0  0  0  0  0  0  0
   36.7870   29.4350   38.1990 C   0  0  0  0  0  0  0  0  0  0  0  0
   37.5000   29.7850   39.3070 C   0  0  0  0  0  0  0  0  0  0  0  0
   37.4450   28.9360   40.3680 N   0  0  0  0  0  0  0  0  0  0  0  0
   35.4350   26.5040   39.2580 H   0  0  0  0  0  0  0  0  0  0  0  0
   35.4590   27.9990   37.2290 H   0  0  0  0  0  0  0  0  0  0  0  0
   36.7740   30.0520   37.3120 H   0  0  0  0  0  0  0  0  0  0  0  0
   38.3160   31.0550   39.3650 C   0  0  0  0  0  3  0  0  0  0  0  0
   38.4000   31.4930   40.8010 C   0  0  0  0  0  2  0  0  0  0  0  0
   38.9470   32.8630   41.0110 C   0  0  0  0  0  2  0  0  0  0  0  0
   38.3280   33.9030   40.1270 C   0  0  0  0  0  2  0  0  0  0  0  0
   37.1800   33.2250   39.3680 C   0  0  0  0  0  2  0  0  0  0  0  0
   37.7710   32.1480   38.5270 C   0  0  0  0  0  2  0  0  0  0  0  0
  1  2  1  0  0  0  0
  1  7  1  1  0  0  0
  2  8  1  0  0  0  0
  2  3  1  0  0  0  0
  3 10  1  0  0  0  0
  3 11  1  0  0  0  0
  4  3  1  0  0  0  0
  4 13  1  0  0  0  0
  5 14  1  0  0  0  0
  5  4  1  0  0  0  0
  6 16  1  6  0  0  0
  6  1  1  0  0  0  0
  6  5  1  0  0  0  0
  9  2  1  0  0  0  0
 12  4  1  0  0  0  0
 15  5  1  0  0  0  0
 17 18  1  0  0  0  0
 18 19  2  0  0  0  0
 18 24  1  0  0  0  0
 19  1  1  0  0  0  0
 20 19  1  0  0  0  0
 21 20  2  0  0  0  0
 22 21  1  0  0  0  0
 22 17  2  0  0  0  0
 23 17  1  0  0  0  0
 25 21  1  0  0  0  0
 26 31  1  0  0  0  0
 26  6  1  0  0  0  0
 27 32  1  0  0  0  0
 27 26  2  0  0  0  0
 28 29  2  0  0  0  0
 28 27  1  0  0  0  0
 29 30  1  0  0  0  0
 30 35  1  0  0  0  0
 30 31  2  0  0  0  0
 33 28  1  0  0  0  0
 34 29  1  0  0  0  0
 35 36  1  0  0  0  0
 36 37  1  0  0  0  0
 38 37  1  0  0  0  0
 39 38  1  0  0  0  0
 40 35  1  0  0  0  0
 40 39  1  0  0  0  0
M  END
>  <minimizedAffinity>
-5.78752995

$$$$

 OpenBabel03242516513D

 40 43  0  0  1  0  0  0  0  0999 V2000
   38.2780   30.3140   40.1050 C   0  0  1  0  0  0  0  0  0  0  0  0
   38.0880   31.5820   40.8390 C   0  0  0  0  0  0  0  0  0  0  0  0
   39.4820   32.2070   40.9590 C   0  0  0  0  0  0  0  0  0  0  0  0
   40.2510   31.3390   41.9350 C   0  0  0  0  0  0  0  0  0  0  0  0
   40.2950   29.8890   41.5530 C   0  0  0  0  0  0  0  0  0  0  0  0
   39.1160   29.3210   40.8830 C   0  0  1  0  0  0  0  0  0  0  0  0
   38.9090   30.5240   39.1900 H   0  0  0  0  0  0  0  0  0  0  0  0
   37.4950   32.2830   40.2180 H   0  0  0  0  0  0  0  0  0  0  0  0
   37.6250   31.4760   41.8210 H   0  0  0  0  0  0  0  0  0  0  0  0
   39.4100   33.2060   41.4540 H   0  0  0  0  0  0  0  0  0  0  0  0
   39.9720   32.2240   39.9820 H   0  0  0  0  0  0  0  0  0  0  0  0
   39.8350   31.4890   42.9550 H   0  0  0  0  0  0  0  0  0  0  0  0
   41.2820   31.7620   41.9520 H   0  0  0  0  0  0  0  0  0  0  0  0
   41.2220   29.7520   40.9270 H   0  0  0  0  0  0  0  0  0  0  0  0
   40.5060   29.3060   42.4780 H   0  0  0  0  0  0  0  0  0  0  0  0
   39.4760   28.5800   40.1060 H   0  0  0  0  0  0  0  0  0  0  0  0
   34.6590   29.2680   39.8370 C   0  0  0  0  0  0  0  0  0  0  0  0
   35.8500   29.8590   40.2590 C   0  0  0  0  0  0  0  0  0  0  0  0
   37.0640   29.6760   39.6110 C   0  0  0  0  0  0  0  0  0  0  0  0
   37.0430   28.8820   38.5280 N   0  0  0  0  0  0  0  0  0  0  0  0
   35.8860   28.3010   38.1090 C   0  0  0  0  0  0  0  0  0  0  0  0
   34.7240   28.4800   38.7350 N   0  0  0  0  0  0  0  0  0  0  0  0
   33.7420   29.4340   40.3650 H   0  0  0  0  0  0  0  0  0  0  0  0
   35.7580   30.4880   41.1540 H   0  0  0  0  0  0  0  0  0  0  0  0
   35.9350   27.6690   37.2260 H   0  0  0  0  0  0  0  0  0  0  0  0
   38.2790   28.5080   41.7830 C   0  0  0  0  0  0  0  0  0  0  0  0
   37.7680   28.8840   43.0260 C   0  0  0  0  0  0  0  0  0  0  0  0
   36.9730   27.9320   43.6790 C   0  0  0  0  0  0  0  0  0  0  0  0
   36.7620   26.7220   43.0550 C   0  0  0  0  0  0  0  0  0  0  0  0
   37.2700   26.3700   41.8400 C   0  0  0  0  0  0  0  0  0  0  0  0
   38.0420   27.2920   41.2040 N   0  0  0  0  0  0  0  0  0  0  0  0
   38.0350   29.8570   43.3510 H   0  0  0  0  0  0  0  0  0  0  0  0
   36.5890   28.2300   44.6230 H   0  0  0  0  0  0  0  0  0  0  0  0
   36.1390   26.0500   43.6270 H   0  0  0  0  0  0  0  0  0  0  0  0
   36.9950   25.0210   41.2180 C   0  0  0  0  0  3  0  0  0  0  0  0
   38.2050   24.1540   41.4280 C   0  0  0  0  0  2  0  0  0  0  0  0
   38.2090   22.8790   40.6550 C   0  0  0  0  0  2  0  0  0  0  0  0
   37.8680   23.0500   39.2060 C   0  0  0  0  0  2  0  0  0  0  0  0
   37.7690   24.5580   38.9400 C   0  0  0  0  0  2  0  0  0  0  0  0
   36.6590   25.0900   39.7770 C   0  0  0  0  0  2  0  0  0  0  0  0
  1  7  1  6  0  0  0
  1  2  1  0  0  0  0
  1  6  1  0  0  0  0
  2  3  1  0  0  0  0
  2  9  1  0  0  0  0
  3 10  1  0  0  0  0
  3  4  1  0  0  0  0
  4 13  1  0  0  0  0
  4 12  1  0  0  0  0
  5  4  1  0  0  0  0
  5 15  1  0  0  0  0
  6 16  1  6  0  0  0
  6  5  1  0  0  0  0
  6 26  1  0  0  0  0
  8  2  1  0  0  0  0
 11  3  1  0  0  0  0
 14  5  1  0  0  0  0
 17 18  1  0  0  0  0
 17 23  1  0  0  0  0
 18 24  1  0  0  0  0
 19  1  1  0  0  0  0
 19 18  2  0  0  0  0
 20 19  1  0  0  0  0
 21 20  2  0  0  0  0
 21 22  1  0  0  0  0
 22 17  2  0  0  0  0
 25 21  1  0  0  0  0
 26 27  1  0  0  0  0
 27 32  1  0  0  0  0
 27 28  2  0  0  0  0
 28 33  1  0  0  0  0
 29 34  1  0  0  0  0
 29 28  1  0  0  0  0
 30 29  2  0  0  0  0
 31 26  2  0  0  0  0
 31 30  1  0  0  0  0
 35 36  1  0  0  0  0
 35 30  1  0  0  0  0
 37 36  1  0  0  0  0
 38 37  1  0  0  0  0
 39 38  1  0  0  0  0
 39 40  1  0  0  0  0
 40 35  1  0  0  0  0
M  END
>  <minimizedAffinity>
-5.78629589

$$$$

 OpenBabel03242516513D

 40 43  0  0  1  0  0  0  0  0999 V2000
   36.9730   31.2760   39.0450 C   0  0  1  0  0  0  0  0  0  0  0  0
   37.1180   30.2000   38.0430 C   0  0  0  0  0  0  0  0  0  0  0  0
   35.7150   29.6150   37.8530 C   0  0  0  0  0  0  0  0  0  0  0  0
   35.3900   28.8720   39.1330 C   0  0  0  0  0  0  0  0  0  0  0  0
   35.5060   29.7140   40.3690 C   0  0  0  0  0  0  0  0  0  0  0  0
   36.5540   30.7450   40.4000 C   0  0  1  0  0  0  0  0  0  0  0  0
   36.0990   31.9290   38.7410 H   0  0  0  0  0  0  0  0  0  0  0  0
   37.3970   30.6410   37.0650 H   0  0  0  0  0  0  0  0  0  0  0  0
   37.8310   29.4190   38.3130 H   0  0  0  0  0  0  0  0  0  0  0  0
   35.7350   28.8290   37.0590 H   0  0  0  0  0  0  0  0  0  0  0  0
   34.9940   30.4160   37.6730 H   0  0  0  0  0  0  0  0  0  0  0  0
   36.0230   27.9590   39.1900 H   0  0  0  0  0  0  0  0  0  0  0  0
   34.3410   28.5180   39.0080 H   0  0  0  0  0  0  0  0  0  0  0  0
   34.4890   30.1640   40.5450 H   0  0  0  0  0  0  0  0  0  0  0  0
   35.6480   29.0230   41.2310 H   0  0  0  0  0  0  0  0  0  0  0  0
   36.1410   31.6480   40.9460 H   0  0  0  0  0  0  0  0  0  0  0  0
   40.4760   32.6570   38.7670 C   0  0  0  0  0  0  0  0  0  0  0  0
   39.3520   31.8400   38.6580 C   0  0  0  0  0  0  0  0  0  0  0  0
   38.1110   32.1760   39.1830 C   0  0  0  0  0  0  0  0  0  0  0  0
   38.0370   33.3570   39.8190 N   0  0  0  0  0  0  0  0  0  0  0  0
   39.1300   34.1610   39.9290 C   0  0  0  0  0  0  0  0  0  0  0  0
   40.3170   33.8330   39.4240 N   0  0  0  0  0  0  0  0  0  0  0  0
   41.4170   32.3620   38.3480 H   0  0  0  0  0  0  0  0  0  0  0  0
   39.5180   30.8980   38.1210 H   0  0  0  0  0  0  0  0  0  0  0  0
   39.0050   35.1040   40.4560 H   0  0  0  0  0  0  0  0  0  0  0  0
   37.7250   30.3520   41.2040 C   0  0  0  0  0  0  0  0  0  0  0  0
   38.5540   31.1910   41.9490 C   0  0  0  0  0  0  0  0  0  0  0  0
   39.5920   30.5660   42.6520 C   0  0  0  0  0  0  0  0  0  0  0  0
   39.7110   29.1960   42.5550 C   0  0  0  0  0  0  0  0  0  0  0  0
   38.8920   28.3900   41.8210 C   0  0  0  0  0  0  0  0  0  0  0  0
   37.8840   28.9960   41.1380 N   0  0  0  0  0  0  0  0  0  0  0  0
   38.3110   32.2220   41.9070 H   0  0  0  0  0  0  0  0  0  0  0  0
   40.2150   31.2140   43.2160 H   0  0  0  0  0  0  0  0  0  0  0  0
   40.5360   28.7980   43.1270 H   0  0  0  0  0  0  0  0  0  0  0  0
   39.0850   26.8940   41.7620 C   0  0  0  0  0  3  0  0  0  0  0  0
   39.1280   26.3710   43.1710 C   0  0  0  0  0  2  0  0  0  0  0  0
   39.5710   24.9540   43.3050 C   0  0  0  0  0  2  0  0  0  0  0  0
   40.8170   24.6350   42.5350 C   0  0  0  0  0  2  0  0  0  0  0  0
   41.3400   25.9560   41.9560 C   0  0  0  0  0  2  0  0  0  0  0  0
   40.3030   26.4820   41.0260 C   0  0  0  0  0  2  0  0  0  0  0  0
  1  7  1  6  0  0  0
  1 19  1  0  0  0  0
  1  6  1  0  0  0  0
  2  9  1  0  0  0  0
  2  1  1  0  0  0  0
  3  2  1  0  0  0  0
  3  4  1  0  0  0  0
  4 12  1  0  0  0  0
  4  5  1  0  0  0  0
  5  6  1  0  0  0  0
  5 14  1  0  0  0  0
  5 15  1  0  0  0  0
  6 16  1  1  0  0  0
  6 26  1  0  0  0  0
  8  2  1  0  0  0  0
 10  3  1  0  0  0  0
 11  3  1  0  0  0  0
 13  4  1  0  0  0  0
 17 22  1  0  0  0  0
 18 17  2  0  0  0  0
 18 19  1  0  0  0  0
 19 20  2  0  0  0  0
 20 21  1  0  0  0  0
 21 25  1  0  0  0  0
 22 21  2  0  0  0  0
 23 17  1  0  0  0  0
 24 18  1  0  0  0  0
 26 27  1  0  0  0  0
 27 28  2  0  0  0  0
 28 33  1  0  0  0  0
 29 28  1  0  0  0  0
 29 34  1  0  0  0  0
 30 29  2  0  0  0  0
 31 26  2  0  0  0  0
 31 30  1  0  0  0  0
 32 27  1  0  0  0  0
 35 30  1  0  0  0  0
 35 36  1  0  0  0  0
 36 37  1  0  0  0  0
 38 37  1  0  0  0  0
 39 38  1  0  0  0  0
 40 35  1  0  0  0  0
 40 39  1  0  0  0  0
M  END
>  <minimizedAffinity>
-5.71358824

$$$$
