
 OpenBabel03252508213D

 31 33  0  0  0  0  0  0  0  0999 V2000
   46.2600   34.0220   40.8060 C   0  0  0  0  0  0  0  0  0  0  0  0
   46.8880   33.8700   39.5970 C   0  0  0  0  0  0  0  0  0  0  0  0
   48.1170   34.4040   39.3090 C   0  0  0  0  0  0  0  0  0  0  0  0
   48.7550   35.1390   40.3030 C   0  0  0  0  0  0  0  0  0  0  0  0
   48.1310   35.3070   41.5420 C   0  0  0  0  0  0  0  0  0  0  0  0
   46.8820   34.7570   41.8150 C   0  0  0  0  0  0  0  0  0  0  0  0
   46.3070   33.2820   38.8980 H   0  0  0  0  0  0  0  0  0  0  0  0
   48.5400   34.2350   38.3270 H   0  0  0  0  0  0  0  0  0  0  0  0
   49.7270   35.5670   40.0880 H   0  0  0  0  0  0  0  0  0  0  0  0
   48.7070   35.8940   42.2460 H   0  0  0  0  0  0  0  0  0  0  0  0
   46.3420   35.0130   43.1610 C   0  0  0  0  0  0  0  0  0  0  0  0
   46.5390   33.8850   44.1190 C   0  0  0  0  0  0  0  0  0  0  0  0
   45.3000   33.6650   44.9930 C   0  0  0  0  0  0  0  0  0  0  0  0
   44.8610   34.9870   45.6020 C   0  0  0  0  0  0  0  0  0  0  0  0
   44.5910   35.9930   44.5150 C   0  0  0  0  0  0  0  0  0  0  0  0
   44.8770   35.3950   43.1310 C   0  0  0  0  0  0  0  0  0  0  0  0
   44.9440   33.4540   41.1620 C   0  0  0  0  0  0  0  0  0  0  0  0
   44.9700   32.3640   41.3900 H   0  0  0  0  0  0  0  0  0  0  0  0
   44.4620   33.9370   42.0160 H   0  0  0  0  0  0  0  0  0  0  0  0
   43.9650   33.5870   39.9880 C   0  0  0  0  0  0  0  0  0  0  0  0
   43.9020   32.6690   39.3850 H   0  0  0  0  0  0  0  0  0  0  0  0
   44.3110   34.4030   39.3360 H   0  0  0  0  0  0  0  0  0  0  0  0
   40.9880   35.5070   41.2570 C   0  0  0  0  0  0  0  0  0  0  0  0
   42.2650   35.2650   40.7160 C   0  0  0  0  0  0  0  0  0  0  0  0
   42.6370   33.9410   40.5490 C   0  0  0  0  0  0  0  0  0  0  0  0
   41.7380   32.9760   40.9210 N   0  0  0  0  0  0  0  0  0  0  0  0
   40.5410   33.2440   41.4280 C   0  0  0  0  0  0  0  0  0  0  0  0
   40.1460   34.5120   41.6040 N   0  0  0  0  0  0  0  0  0  0  0  0
   40.6590   36.5380   41.4050 H   0  0  0  0  0  0  0  0  0  0  0  0
   42.9210   36.0820   40.4460 H   0  0  0  0  0  0  0  0  0  0  0  0
   39.8980   32.4150   41.6930 H   0  0  0  0  0  0  0  0  0  0  0  0
  1 17  1  0  0  0  0
  1  6  1  0  0  0  0
  2  1  2  0  0  0  0
  3  2  1  0  0  0  0
  3  4  2  0  0  0  0
  4  5  1  0  0  0  0
  5  6  2  0  0  0  0
  5 10  1  0  0  0  0
  6 11  1  0  0  0  0
  7  2  1  0  0  0  0
  8  3  1  0  0  0  0
  9  4  1  0  0  0  0
 11 12  1  0  0  0  0
 12 13  1  0  0  0  0
 13 14  1  0  0  0  0
 15 14  1  0  0  0  0
 16 11  1  0  0  0  0
 16 15  1  0  0  0  0
 17 18  1  0  0  0  0
 17 19  1  0  0  0  0
 20 25  1  0  0  0  0
 20 17  1  0  0  0  0
 21 20  1  0  0  0  0
 22 20  1  0  0  0  0
 23 29  1  0  0  0  0
 23 28  1  0  0  0  0
 24 23  2  0  0  0  0
 25 24  1  0  0  0  0
 25 26  2  0  0  0  0
 26 27  1  0  0  0  0
 27 28  2  0  0  0  0
 27 31  1  0  0  0  0
 30 24  1  0  0  0  0
M  END
>  <minimizedAffinity>
-5.87844419

>  <minimizedRMSD>
1.12388754

$$$$
