
 OpenBabel03252508233D

 45 48  0  0  0  0  0  0  0  0999 V2000
   45.8560   33.6320   40.5510 C   0  0  0  0  0  0  0  0  0  0  0  0
   46.6690   33.5710   39.4400 C   0  0  0  0  0  0  0  0  0  0  0  0
   47.8300   34.2740   39.2850 C   0  0  0  0  0  0  0  0  0  0  0  0
   48.1880   35.1070   40.3540 C   0  0  0  0  0  0  0  0  0  0  0  0
   47.4220   35.2070   41.4800 C   0  0  0  0  0  0  0  0  0  0  0  0
   46.2690   34.4830   41.5880 C   0  0  0  0  0  0  0  0  0  0  0  0
   46.4810   32.9480   38.5770 H   0  0  0  0  0  0  0  0  0  0  0  0
   48.4890   34.2500   38.4310 H   0  0  0  0  0  0  0  0  0  0  0  0
   49.1100   35.7010   40.2930 H   0  0  0  0  0  0  0  0  0  0  0  0
   47.7660   35.8780   42.2720 H   0  0  0  0  0  0  0  0  0  0  0  0
   45.5520   34.6450   42.7950 N   0  0  0  0  0  0  0  0  0  0  0  0
   44.3870   35.4680   42.9360 C   0  0  0  0  0  0  0  0  0  0  0  0
   43.5890   35.0750   44.1680 C   0  0  0  0  0  0  0  0  0  0  0  0
   43.5360   33.6740   44.4090 N   0  0  0  0  0  0  0  0  0  0  0  0
   44.8020   33.0360   44.4780 C   0  0  0  0  0  0  0  0  0  0  0  0
   45.8930   34.0040   44.0740 C   0  0  0  0  0  0  0  0  0  0  0  0
   44.7950   36.4920   43.1890 H   0  0  0  0  0  0  0  0  0  0  0  0
   43.7790   35.6360   42.0560 H   0  0  0  0  0  0  0  0  0  0  0  0
   43.8850   35.6480   45.0710 H   0  0  0  0  0  0  0  0  0  0  0  0
   42.5400   35.4050   43.9420 H   0  0  0  0  0  0  0  0  0  0  0  0
   42.8550   33.4850   45.1420 H   0  0  0  0  0  0  0  0  0  0  0  0
   44.8740   32.1610   43.7880 H   0  0  0  0  0  0  0  0  0  0  0  0
   44.9670   32.7320   45.5240 H   0  0  0  0  0  0  0  0  0  0  0  0
   45.9310   34.7980   44.8610 H   0  0  0  0  0  0  0  0  0  0  0  0
   46.8820   33.5220   44.0300 H   0  0  0  0  0  0  0  0  0  0  0  0
   44.6120   32.8800   40.7060 C   0  0  0  0  0  0  0  0  0  0  0  0
   43.8390   33.3770   41.2880 H   0  0  0  0  0  0  0  0  0  0  0  0
   44.8830   31.9530   41.2830 H   0  0  0  0  0  0  0  0  0  0  0  0
   44.0620   32.4260   39.3720 C   0  0  0  0  0  0  0  0  0  0  0  0
   44.5890   32.8560   38.5370 H   0  0  0  0  0  0  0  0  0  0  0  0
   44.1040   31.3210   39.2600 H   0  0  0  0  0  0  0  0  0  0  0  0
   40.8880   34.1120   38.2150 C   0  0  0  0  0  0  0  0  0  0  0  0
   42.2490   33.7440   38.3040 C   0  0  0  0  0  0  0  0  0  0  0  0
   42.6380   32.8240   39.2700 C   0  0  0  0  0  0  0  0  0  0  0  0
   41.6690   32.3140   40.0950 N   0  0  0  0  0  0  0  0  0  0  0  0
   40.3840   32.6800   39.9870 C   0  0  0  0  0  0  0  0  0  0  0  0
   39.9990   33.5730   39.0530 N   0  0  0  0  0  0  0  0  0  0  0  0
   40.7130   34.8210   37.4400 H   0  0  0  0  0  0  0  0  0  0  0  0
   43.0100   34.1430   37.6580 H   0  0  0  0  0  0  0  0  0  0  0  0
   39.3550   32.1150   40.8920 C   0  0  0  0  0  3  0  0  0  0  0  0
   40.0020   31.0280   41.7350 C   0  0  0  0  0  2  0  0  0  0  0  0
   38.8190   30.2830   42.3650 C   0  0  0  0  0  2  0  0  0  0  0  0
   38.1730   31.2030   43.3740 C   0  0  0  0  0  2  0  0  0  0  0  0
   38.6790   32.6200   43.2580 C   0  0  0  0  0  2  0  0  0  0  0  0
   38.7390   33.0930   41.8280 C   0  0  0  0  0  2  0  0  0  0  0  0
  1 26  1  0  0  0  0
  1  6  1  0  0  0  0
  2  1  2  0  0  0  0
  3  2  1  0  0  0  0
  3  4  2  0  0  0  0
  4  5  1  0  0  0  0
  5  6  2  0  0  0  0
  5 10  1  0  0  0  0
  6 11  1  0  0  0  0
  7  2  1  0  0  0  0
  8  3  1  0  0  0  0
  9  4  1  0  0  0  0
 11 12  1  0  0  0  0
 11 16  1  0  0  0  0
 12 17  1  0  0  0  0
 12 13  1  0  0  0  0
 13 14  1  0  0  0  0
 13 19  1  0  0  0  0
 14 15  1  0  0  0  0
 14 21  1  0  0  0  0
 15 23  1  0  0  0  0
 16 15  1  0  0  0  0
 16 24  1  0  0  0  0
 18 12  1  0  0  0  0
 20 13  1  0  0  0  0
 22 15  1  0  0  0  0
 25 16  1  0  0  0  0
 26 28  1  0  0  0  0
 26 27  1  0  0  0  0
 29 26  1  0  0  0  0
 30 29  1  0  0  0  0
 31 29  1  0  0  0  0
 32 33  2  0  0  0  0
 32 37  1  0  0  0  0
 33 34  1  0  0  0  0
 34 29  1  0  0  0  0
 34 35  2  0  0  0  0
 36 35  1  0  0  0  0
 36 40  1  0  0  0  0
 37 36  2  0  0  0  0
 38 32  1  0  0  0  0
 39 33  1  0  0  0  0
 40 41  1  0  0  0  0
 40 45  1  0  0  0  0
 41 42  1  0  0  0  0
 42 43  1  0  0  0  0
 44 43  1  0  0  0  0
 45 44  1  0  0  0  0
M  END
>  <minimizedAffinity>
6.32712793

>  <minimizedRMSD>
1.84294403

$$$$
