
 OpenBabel03242518183D

 20 21  0  0  0  0  0  0  0  0999 V2000
   44.4850   35.7740   45.0840 C   0  0  0  0  0  0  0  0  0  0  0  0
   45.1220   35.6840   43.8160 C   0  0  0  0  0  0  0  0  0  0  0  0
   45.9470   34.6080   43.5950 C   0  0  0  0  0  0  0  0  0  0  0  0
   46.1080   33.7080   44.5700 N   0  0  0  0  0  0  0  0  0  0  0  0
   45.5010   33.8070   45.7620 C   0  0  0  0  0  0  0  0  0  0  0  0
   44.6790   34.8400   46.0400 N   0  0  0  0  0  0  0  0  0  0  0  0
   43.8200   36.5920   45.3370 H   0  0  0  0  0  0  0  0  0  0  0  0
   46.4030   34.5860   42.6200 H   0  0  0  0  0  0  0  0  0  0  0  0
   44.8010   36.7480   42.9470 N   0  0  0  0  0  0  0  0  0  0  0  0
   44.9020   37.7260   43.3330 H   0  0  0  0  0  0  0  0  0  0  0  0
   44.4860   36.4850   41.9870 H   0  0  0  0  0  0  0  0  0  0  0  0
   45.6780   32.8090   46.8480 C   0  0  0  0  0  0  0  0  0  0  0  0
   45.0660   31.9130   46.5790 H   0  0  0  0  0  0  0  0  0  0  0  0
   45.3580   33.2120   47.8110 H   0  0  0  0  0  0  0  0  0  0  0  0
   47.1260   32.3610   46.9510 C   0  0  0  0  0  0  0  0  0  0  0  0
   47.5810   32.4080   48.3940 C   0  0  0  0  0  0  0  0  0  0  0  0
   48.6580   31.3760   48.6600 C   0  0  0  0  0  0  0  0  0  0  0  0
   48.1190   29.9750   48.5280 C   0  0  0  0  0  0  0  0  0  0  0  0
   46.8720   30.0420   47.6520 C   0  0  0  0  0  0  0  0  0  0  0  0
   47.2020   30.9300   46.4710 C   0  0  0  0  0  0  0  0  0  0  0  0
  1  7  1  0  0  0  0
  1  6  1  0  0  0  0
  2  1  2  0  0  0  0
  3  2  1  0  0  0  0
  3  4  2  0  0  0  0
  4  5  1  0  0  0  0
  5  6  2  0  0  0  0
  5 12  1  0  0  0  0
  8  3  1  0  0  0  0
  9 10  1  0  0  0  0
  9  2  1  0  0  0  0
 11  9  1  0  0  0  0
 12 15  1  0  0  0  0
 12 14  1  0  0  0  0
 13 12  1  0  0  0  0
 15 16  1  0  0  0  0
 16 17  1  0  0  0  0
 18 17  1  0  0  0  0
 19 18  1  0  0  0  0
 20 15  1  0  0  0  0
 20 19  1  0  0  0  0
M  END
>  <minimizedAffinity>
-4.5054493

>  <minimizedRMSD>
1.21755612

$$$$
