
 OpenBabel03252508143D

 34 37  0  0  1  0  0  0  0  0999 V2000
   46.0620   30.9050   46.7840 C   0  0  0  0  0  0  0  0  0  0  0  0
   47.1000   30.5000   46.7760 H   0  0  0  0  0  0  0  0  0  0  0  0
   45.3450   30.0940   46.6430 H   0  0  0  0  0  0  0  0  0  0  0  0
   45.8910   31.6460   48.0910 C   0  0  1  0  0  0  0  0  0  0  0  0
   45.6650   30.8090   49.3010 C   0  0  0  0  0  0  0  0  0  0  0  0
   46.9270   31.5040   49.1400 C   0  0  1  0  0  0  0  0  0  0  0  0
   45.3410   32.6090   48.0610 H   0  0  0  0  0  0  0  0  0  0  0  0
   45.5450   29.7140   49.1360 H   0  0  0  0  0  0  0  0  0  0  0  0
   44.9330   31.1670   50.0750 H   0  0  0  0  0  0  0  0  0  0  0  0
   47.0650   32.4110   49.8050 H   0  0  0  0  0  0  0  0  0  0  0  0
   48.2160   30.8780   48.7640 C   0  0  0  0  0  0  0  0  0  0  0  0
   49.0840   30.4350   49.9720 C   0  0  0  0  0  0  0  0  0  0  0  0
   49.4840   31.6410   49.2070 C   0  0  0  0  0  0  0  0  0  0  0  0
   48.2990   30.3060   47.8370 H   0  0  0  0  0  0  0  0  0  0  0  0
   49.5950   29.4490   49.7940 H   0  0  0  0  0  0  0  0  0  0  0  0
   48.6180   30.4840   50.9630 H   0  0  0  0  0  0  0  0  0  0  0  0
   50.3700   31.5320   48.5280 H   0  0  0  0  0  0  0  0  0  0  0  0
   49.3590   32.5940   49.7430 H   0  0  0  0  0  0  0  0  0  0  0  0
   45.8110   33.1030   45.9400 C   0  0  0  0  0  3  0  0  0  0  0  0
   46.0360   31.8890   45.6270 C   0  0  0  0  0  3  0  0  0  0  0  0
   44.8580   36.0140   43.8960 C   0  0  0  0  0  0  0  0  0  0  0  0
   45.6650   35.8930   42.7740 C   0  0  0  0  0  0  0  0  0  0  0  0
   46.5230   34.8350   42.7440 C   0  0  0  0  0  0  0  0  0  0  0  0
   46.5330   33.9790   43.7980 N   0  0  0  0  0  0  0  0  0  0  0  0
   45.7610   34.0940   44.8730 C   0  0  0  0  0  0  0  0  0  0  0  0
   44.9280   35.1330   44.8880 N   0  0  0  0  0  0  0  0  0  0  0  0
   44.1280   36.8150   44.0480 H   0  0  0  0  0  0  0  0  0  0  0  0
   45.5390   36.6430   42.0380 H   0  0  0  0  0  0  0  0  0  0  0  0
   47.4070   34.6740   41.5420 C   0  0  0  0  0  3  0  0  0  0  0  0
   47.7910   33.2670   41.2530 C   0  0  0  0  0  2  0  0  0  0  0  0
   49.3010   33.0970   41.0960 C   0  0  0  0  0  2  0  0  0  0  0  0
   50.0430   33.6790   42.2660 C   0  0  0  0  0  2  0  0  0  0  0  0
   49.6830   35.1030   42.5470 C   0  0  0  0  0  2  0  0  0  0  0  0
   48.6050   35.5910   41.6240 C   0  0  0  0  0  2  0  0  0  0  0  0
  1  4  1  0  0  0  0
  2  1  1  0  0  0  0
  3  1  1  0  0  0  0
  4  7  1  6  0  0  0
  4  6  1  0  0  0  0
  4  5  1  0  0  0  0
  5  9  1  0  0  0  0
  6  5  1  0  0  0  0
  6 10  1  1  0  0  0
  8  5  1  0  0  0  0
 11  6  1  0  0  0  0
 11 13  1  0  0  0  0
 11 12  1  0  0  0  0
 12 16  1  0  0  0  0
 13 18  1  0  0  0  0
 13 12  1  0  0  0  0
 14 11  1  0  0  0  0
 15 12  1  0  0  0  0
 17 13  1  0  0  0  0
 20 19  2  0  0  0  0
 20  1  1  0  0  0  0
 21 27  1  0  0  0  0
 21 26  1  0  0  0  0
 22 21  2  0  0  0  0
 23 22  1  0  0  0  0
 23 24  2  0  0  0  0
 24 25  1  0  0  0  0
 25 26  2  0  0  0  0
 25 19  1  0  0  0  0
 28 22  1  0  0  0  0
 29 34  1  0  0  0  0
 29 23  1  0  0  0  0
 30 29  1  0  0  0  0
 31 30  1  0  0  0  0
 31 32  1  0  0  0  0
 32 33  1  0  0  0  0
 34 33  1  0  0  0  0
M  END
>  <minimizedAffinity>
-6.30129242

>  <minimizedRMSD>
1.8752811

$$$$
