
 OpenBabel03242516583D

 25 27  0  0  0  0  0  0  0  0999 V2000
   38.4260   31.2380   40.8320 C   0  0  0  0  0  0  0  0  0  0  0  0
   39.0840   32.3650   41.2350 C   0  0  0  0  0  0  0  0  0  0  0  0
   38.7510   33.5880   40.6950 C   0  0  0  0  0  0  0  0  0  0  0  0
   37.7530   33.6400   39.7530 C   0  0  0  0  0  0  0  0  0  0  0  0
   37.0630   32.5300   39.3170 C   0  0  0  0  0  0  0  0  0  0  0  0
   37.4300   31.3050   39.8890 C   0  0  0  0  0  0  0  0  0  0  0  0
   39.8740   32.3590   41.9740 H   0  0  0  0  0  0  0  0  0  0  0  0
   39.2500   34.4990   40.9890 H   0  0  0  0  0  0  0  0  0  0  0  0
   37.4330   34.5690   39.2810 H   0  0  0  0  0  0  0  0  0  0  0  0
   36.2870   32.5550   38.5870 H   0  0  0  0  0  0  0  0  0  0  0  0
   40.1420   27.9370   41.5650 C   0  0  0  0  0  0  0  0  0  0  0  0
   39.8160   29.1370   40.8970 C   0  0  0  0  0  0  0  0  0  0  0  0
   38.8330   29.9730   41.4500 C   0  0  0  0  0  0  0  0  0  0  0  0
   38.2540   29.5740   42.5980 N   0  0  0  0  0  0  0  0  0  0  0  0
   38.5760   28.4210   43.2300 C   0  0  0  0  0  0  0  0  0  0  0  0
   39.5170   27.6020   42.7160 N   0  0  0  0  0  0  0  0  0  0  0  0
   40.9080   27.3800   41.0460 H   0  0  0  0  0  0  0  0  0  0  0  0
   40.2900   29.4420   39.9760 H   0  0  0  0  0  0  0  0  0  0  0  0
   38.0770   28.1390   44.1620 H   0  0  0  0  0  0  0  0  0  0  0  0
   36.7770   30.0190   39.5210 C   0  0  0  0  0  3  0  0  0  0  0  0
   35.5040   29.7580   40.2870 C   0  0  0  0  0  2  0  0  0  0  0  0
   34.4100   29.2110   39.4150 C   0  0  0  0  0  2  0  0  0  0  0  0
   34.8870   28.2440   38.3650 C   0  0  0  0  0  2  0  0  0  0  0  0
   36.0050   28.7470   37.5130 C   0  0  0  0  0  2  0  0  0  0  0  0
   36.4580   30.0900   38.0420 C   0  0  0  0  0  2  0  0  0  0  0  0
  1  2  1  0  0  0  0
  1 13  1  0  0  0  0
  2  7  1  0  0  0  0
  3  8  1  0  0  0  0
  3  2  2  0  0  0  0
  4  3  1  0  0  0  0
  5  4  2  0  0  0  0
  5  6  1  0  0  0  0
  6  1  2  0  0  0  0
  9  4  1  0  0  0  0
 10  5  1  0  0  0  0
 11 16  1  0  0  0  0
 12 13  1  0  0  0  0
 12 11  2  0  0  0  0
 13 14  2  0  0  0  0
 14 15  1  0  0  0  0
 15 19  1  0  0  0  0
 16 15  2  0  0  0  0
 17 11  1  0  0  0  0
 18 12  1  0  0  0  0
 20  6  1  0  0  0  0
 20 21  1  0  0  0  0
 22 21  1  0  0  0  0
 23 22  1  0  0  0  0
 24 25  1  0  0  0  0
 24 23  1  0  0  0  0
 25 20  1  0  0  0  0
M  END
>  <minimizedAffinity>
-5.10072422

$$$$

 OpenBabel03242516583D

 25 27  0  0  0  0  0  0  0  0999 V2000
   37.5340   29.2990   41.5630 C   0  0  0  0  0  0  0  0  0  0  0  0
   37.9540   29.3040   42.8630 C   0  0  0  0  0  0  0  0  0  0  0  0
   37.6790   28.2300   43.6800 C   0  0  0  0  0  0  0  0  0  0  0  0
   36.9810   27.1680   43.1560 C   0  0  0  0  0  0  0  0  0  0  0  0
   36.5400   27.1200   41.8530 C   0  0  0  0  0  0  0  0  0  0  0  0
   36.8380   28.2310   41.0530 C   0  0  0  0  0  0  0  0  0  0  0  0
   38.5040   30.1230   43.3060 H   0  0  0  0  0  0  0  0  0  0  0  0
   37.9930   28.1990   44.7120 H   0  0  0  0  0  0  0  0  0  0  0  0
   36.7260   26.2820   43.7390 H   0  0  0  0  0  0  0  0  0  0  0  0
   35.9980   26.3040   41.4330 H   0  0  0  0  0  0  0  0  0  0  0  0
   37.4030   32.6640   39.8200 C   0  0  0  0  0  0  0  0  0  0  0  0
   37.0000   31.5740   40.6220 C   0  0  0  0  0  0  0  0  0  0  0  0
   37.8630   30.4760   40.7530 C   0  0  0  0  0  0  0  0  0  0  0  0
   39.0390   30.5280   40.0990 N   0  0  0  0  0  0  0  0  0  0  0  0
   39.4150   31.5790   39.3320 C   0  0  0  0  0  0  0  0  0  0  0  0
   38.6000   32.6450   39.1920 N   0  0  0  0  0  0  0  0  0  0  0  0
   36.6590   33.4460   39.7950 H   0  0  0  0  0  0  0  0  0  0  0  0
   36.0530   31.5480   41.1400 H   0  0  0  0  0  0  0  0  0  0  0  0
   40.3810   31.5760   38.8190 H   0  0  0  0  0  0  0  0  0  0  0  0
   36.4280   28.3260   39.6250 C   0  0  0  0  0  3  0  0  0  0  0  0
   36.6440   27.0450   38.8590 C   0  0  0  0  0  2  0  0  0  0  0  0
   35.4930   26.7190   37.9490 C   0  0  0  0  0  2  0  0  0  0  0  0
   34.8790   27.9200   37.2810 C   0  0  0  0  0  2  0  0  0  0  0  0
   34.4890   29.0210   38.2110 C   0  0  0  0  0  2  0  0  0  0  0  0
   34.9540   28.6720   39.6080 C   0  0  0  0  0  2  0  0  0  0  0  0
  1  2  1  0  0  0  0
  2  7  1  0  0  0  0
  2  3  2  0  0  0  0
  3  8  1  0  0  0  0
  4  3  1  0  0  0  0
  4  9  1  0  0  0  0
  5  4  2  0  0  0  0
  6  1  2  0  0  0  0
  6  5  1  0  0  0  0
 10  5  1  0  0  0  0
 11 12  1  0  0  0  0
 12 13  2  0  0  0  0
 12 18  1  0  0  0  0
 13  1  1  0  0  0  0
 14 13  1  0  0  0  0
 15 14  2  0  0  0  0
 16 15  1  0  0  0  0
 16 11  2  0  0  0  0
 17 11  1  0  0  0  0
 19 15  1  0  0  0  0
 20  6  1  0  0  0  0
 21 20  1  0  0  0  0
 22 21  1  0  0  0  0
 23 22  1  0  0  0  0
 23 24  1  0  0  0  0
 24 25  1  0  0  0  0
 25 20  1  0  0  0  0
M  END
>  <minimizedAffinity>
-5.08702755

$$$$

 OpenBabel03242516583D

 25 27  0  0  0  0  0  0  0  0999 V2000
   37.4590   31.7150   39.9570 C   0  0  0  0  0  0  0  0  0  0  0  0
   37.1870   32.9890   39.5440 C   0  0  0  0  0  0  0  0  0  0  0  0
   38.0050   34.0270   39.9270 C   0  0  0  0  0  0  0  0  0  0  0  0
   39.0890   33.7490   40.7260 C   0  0  0  0  0  0  0  0  0  0  0  0
   39.4010   32.4820   41.1660 C   0  0  0  0  0  0  0  0  0  0  0  0
   38.5450   31.4510   40.7550 C   0  0  0  0  0  0  0  0  0  0  0  0
   36.3430   33.2410   38.9150 H   0  0  0  0  0  0  0  0  0  0  0  0
   37.8210   35.0460   39.6210 H   0  0  0  0  0  0  0  0  0  0  0  0
   39.7820   34.5170   41.0710 H   0  0  0  0  0  0  0  0  0  0  0  0
   40.2360   32.2510   41.7850 H   0  0  0  0  0  0  0  0  0  0  0  0
   35.6340   29.1350   37.8600 C   0  0  0  0  0  0  0  0  0  0  0  0
   36.5530   30.1510   38.2010 C   0  0  0  0  0  0  0  0  0  0  0  0
   36.5440   30.6600   39.5080 C   0  0  0  0  0  0  0  0  0  0  0  0
   35.6490   30.1430   40.3700 N   0  0  0  0  0  0  0  0  0  0  0  0
   34.7720   29.1680   40.0320 C   0  0  0  0  0  0  0  0  0  0  0  0
   34.7630   28.6640   38.7810 N   0  0  0  0  0  0  0  0  0  0  0  0
   35.7360   28.8250   36.8310 H   0  0  0  0  0  0  0  0  0  0  0  0
   37.2650   30.5560   37.4970 H   0  0  0  0  0  0  0  0  0  0  0  0
   34.0620   28.7780   40.7680 H   0  0  0  0  0  0  0  0  0  0  0  0
   38.7510   30.0300   41.1480 C   0  0  0  0  0  3  0  0  0  0  0  0
   40.1150   29.5050   40.7780 C   0  0  0  0  0  2  0  0  0  0  0  0
   40.7250   28.6710   41.8690 C   0  0  0  0  0  2  0  0  0  0  0  0
   39.7380   27.8010   42.6010 C   0  0  0  0  0  2  0  0  0  0  0  0
   38.5410   28.5210   43.1270 C   0  0  0  0  0  2  0  0  0  0  0  0
   38.5820   29.9570   42.6510 C   0  0  0  0  0  2  0  0  0  0  0  0
  1  6  1  0  0  0  0
  2  3  1  0  0  0  0
  2  1  2  0  0  0  0
  3  4  2  0  0  0  0
  4  9  1  0  0  0  0
  4  5  1  0  0  0  0
  5 10  1  0  0  0  0
  6 20  1  0  0  0  0
  6  5  2  0  0  0  0
  7  2  1  0  0  0  0
  8  3  1  0  0  0  0
 11 12  2  0  0  0  0
 11 16  1  0  0  0  0
 12 13  1  0  0  0  0
 13  1  1  0  0  0  0
 13 14  2  0  0  0  0
 15 14  1  0  0  0  0
 15 19  1  0  0  0  0
 16 15  2  0  0  0  0
 17 11  1  0  0  0  0
 18 12  1  0  0  0  0
 20 25  1  0  0  0  0
 21 20  1  0  0  0  0
 21 22  1  0  0  0  0
 22 23  1  0  0  0  0
 23 24  1  0  0  0  0
 25 24  1  0  0  0  0
M  END
>  <minimizedAffinity>
-5.06561661

$$$$

 OpenBabel03242516583D

 25 27  0  0  0  0  0  0  0  0999 V2000
   36.6470   28.4760   41.3210 C   0  0  0  0  0  0  0  0  0  0  0  0
   36.3780   27.5730   42.3110 C   0  0  0  0  0  0  0  0  0  0  0  0
   37.0520   27.6450   43.5100 C   0  0  0  0  0  0  0  0  0  0  0  0
   37.9880   28.6370   43.6800 C   0  0  0  0  0  0  0  0  0  0  0  0
   38.2900   29.5680   42.7100 C   0  0  0  0  0  0  0  0  0  0  0  0
   37.5840   29.4620   41.5040 C   0  0  0  0  0  0  0  0  0  0  0  0
   35.6490   26.7810   42.2090 H   0  0  0  0  0  0  0  0  0  0  0  0
   36.8670   26.9490   44.3140 H   0  0  0  0  0  0  0  0  0  0  0  0
   38.5600   28.7590   44.5990 H   0  0  0  0  0  0  0  0  0  0  0  0
   39.0120   30.3420   42.8260 H   0  0  0  0  0  0  0  0  0  0  0  0
   34.0510   28.8540   38.5830 C   0  0  0  0  0  0  0  0  0  0  0  0
   34.7100   29.0520   39.8150 C   0  0  0  0  0  0  0  0  0  0  0  0
   35.8910   28.3380   40.0720 C   0  0  0  0  0  0  0  0  0  0  0  0
   36.3280   27.4970   39.1160 N   0  0  0  0  0  0  0  0  0  0  0  0
   35.6870   27.3150   37.9380 C   0  0  0  0  0  0  0  0  0  0  0  0
   34.5500   27.9910   37.6700 N   0  0  0  0  0  0  0  0  0  0  0  0
   33.1570   29.4550   38.5000 H   0  0  0  0  0  0  0  0  0  0  0  0
   34.3450   29.7310   40.5720 H   0  0  0  0  0  0  0  0  0  0  0  0
   36.0810   26.6190   37.1910 H   0  0  0  0  0  0  0  0  0  0  0  0
   37.8000   30.3940   40.3630 C   0  0  0  0  0  3  0  0  0  0  0  0
   37.1710   31.7480   40.5750 C   0  0  0  0  0  2  0  0  0  0  0  0
   38.0660   32.8720   40.1380 C   0  0  0  0  0  2  0  0  0  0  0  0
   38.8560   32.5790   38.8910 C   0  0  0  0  0  2  0  0  0  0  0  0
   39.6320   31.3040   38.9280 C   0  0  0  0  0  2  0  0  0  0  0  0
   39.2960   30.5620   40.2040 C   0  0  0  0  0  2  0  0  0  0  0  0
  1  6  2  0  0  0  0
  1  2  1  0  0  0  0
  2  3  2  0  0  0  0
  3  4  1  0  0  0  0
  3  8  1  0  0  0  0
  4  9  1  0  0  0  0
  5 10  1  0  0  0  0
  5  4  2  0  0  0  0
  6  5  1  0  0  0  0
  7  2  1  0  0  0  0
 11 12  1  0  0  0  0
 12 13  2  0  0  0  0
 12 18  1  0  0  0  0
 13  1  1  0  0  0  0
 14 13  1  0  0  0  0
 15 14  2  0  0  0  0
 16 15  1  0  0  0  0
 16 11  2  0  0  0  0
 17 11  1  0  0  0  0
 19 15  1  0  0  0  0
 20 21  1  0  0  0  0
 20  6  1  0  0  0  0
 22 21  1  0  0  0  0
 23 24  1  0  0  0  0
 23 22  1  0  0  0  0
 24 25  1  0  0  0  0
 25 20  1  0  0  0  0
M  END
>  <minimizedAffinity>
-5.03766155

$$$$

 OpenBabel03242516583D

 25 27  0  0  0  0  0  0  0  0999 V2000
   36.5580   26.0870   39.3990 C   0  0  0  0  0  0  0  0  0  0  0  0
   36.2220   24.9350   38.7450 C   0  0  0  0  0  0  0  0  0  0  0  0
   36.2500   23.7310   39.4120 C   0  0  0  0  0  0  0  0  0  0  0  0
   36.6180   23.7210   40.7360 C   0  0  0  0  0  0  0  0  0  0  0  0
   36.9630   24.8570   41.4350 C   0  0  0  0  0  0  0  0  0  0  0  0
   36.9240   26.0630   40.7220 C   0  0  0  0  0  0  0  0  0  0  0  0
   35.9280   24.9080   37.7040 H   0  0  0  0  0  0  0  0  0  0  0  0
   35.9920   22.8010   38.9280 H   0  0  0  0  0  0  0  0  0  0  0  0
   36.6640   22.8090   41.3310 H   0  0  0  0  0  0  0  0  0  0  0  0
   37.2520   24.8660   42.4600 H   0  0  0  0  0  0  0  0  0  0  0  0
   35.3780   29.2730   37.7160 C   0  0  0  0  0  0  0  0  0  0  0  0
   35.3320   28.0880   38.4810 C   0  0  0  0  0  0  0  0  0  0  0  0
   36.5050   27.3300   38.6250 C   0  0  0  0  0  0  0  0  0  0  0  0
   37.6160   27.7860   38.0170 N   0  0  0  0  0  0  0  0  0  0  0  0
   37.6480   28.9250   37.2860 C   0  0  0  0  0  0  0  0  0  0  0  0
   36.5320   29.6680   37.1340 N   0  0  0  0  0  0  0  0  0  0  0  0
   34.4180   29.7680   37.6780 H   0  0  0  0  0  0  0  0  0  0  0  0
   34.4310   27.7360   38.9620 H   0  0  0  0  0  0  0  0  0  0  0  0
   38.5760   29.2550   36.8100 H   0  0  0  0  0  0  0  0  0  0  0  0
   37.2690   27.3730   41.3400 C   0  0  0  0  0  3  0  0  0  0  0  0
   36.4750   27.6690   42.5870 C   0  0  0  0  0  2  0  0  0  0  0  0
   37.3200   28.2590   43.6800 C   0  0  0  0  0  2  0  0  0  0  0  0
   38.3720   29.2180   43.1920 C   0  0  0  0  0  2  0  0  0  0  0  0
   39.2500   28.6860   42.1090 C   0  0  0  0  0  2  0  0  0  0  0  0
   38.7420   27.3240   41.6900 C   0  0  0  0  0  2  0  0  0  0  0  0
  1  6  1  0  0  0  0
  2  1  2  0  0  0  0
  2  3  1  0  0  0  0
  3  4  2  0  0  0  0
  4  9  1  0  0  0  0
  4  5  1  0  0  0  0
  5 10  1  0  0  0  0
  6 20  1  0  0  0  0
  6  5  2  0  0  0  0
  7  2  1  0  0  0  0
  8  3  1  0  0  0  0
 11 12  1  0  0  0  0
 12 13  2  0  0  0  0
 12 18  1  0  0  0  0
 13  1  1  0  0  0  0
 14 13  1  0  0  0  0
 15 14  2  0  0  0  0
 16 15  1  0  0  0  0
 16 11  2  0  0  0  0
 17 11  1  0  0  0  0
 19 15  1  0  0  0  0
 20 25  1  0  0  0  0
 20 21  1  0  0  0  0
 21 22  1  0  0  0  0
 23 22  1  0  0  0  0
 24 23  1  0  0  0  0
 25 24  1  0  0  0  0
M  END
>  <minimizedAffinity>
-5.00596523

$$$$

 OpenBabel03242516583D

 25 27  0  0  0  0  0  0  0  0999 V2000
   37.0510   29.9270   39.0390 C   0  0  0  0  0  0  0  0  0  0  0  0
   36.5220   30.1350   37.7960 C   0  0  0  0  0  0  0  0  0  0  0  0
   35.6670   29.2050   37.2480 C   0  0  0  0  0  0  0  0  0  0  0  0
   35.3660   28.0790   37.9760 C   0  0  0  0  0  0  0  0  0  0  0  0
   35.8750   27.8290   39.2310 C   0  0  0  0  0  0  0  0  0  0  0  0
   36.7410   28.7980   39.7560 C   0  0  0  0  0  0  0  0  0  0  0  0
   36.7390   31.0090   37.1980 H   0  0  0  0  0  0  0  0  0  0  0  0
   35.2310   29.3350   36.2690 H   0  0  0  0  0  0  0  0  0  0  0  0
   34.6980   27.2990   37.6090 H   0  0  0  0  0  0  0  0  0  0  0  0
   35.6520   26.9620   39.8070 H   0  0  0  0  0  0  0  0  0  0  0  0
   38.4350   33.0430   40.6990 C   0  0  0  0  0  0  0  0  0  0  0  0
   37.4920   32.1020   40.2330 C   0  0  0  0  0  0  0  0  0  0  0  0
   37.9520   30.9600   39.5590 C   0  0  0  0  0  0  0  0  0  0  0  0
   39.2820   30.8300   39.3960 N   0  0  0  0  0  0  0  0  0  0  0  0
   40.1780   31.7390   39.8470 C   0  0  0  0  0  0  0  0  0  0  0  0
   39.7580   32.8440   40.4970 N   0  0  0  0  0  0  0  0  0  0  0  0
   37.9640   33.8760   41.1990 H   0  0  0  0  0  0  0  0  0  0  0  0
   36.4280   32.2220   40.3730 H   0  0  0  0  0  0  0  0  0  0  0  0
   41.2500   31.5900   39.6900 H   0  0  0  0  0  0  0  0  0  0  0  0
   37.3710   28.6700   41.0990 C   0  0  0  0  0  3  0  0  0  0  0  0
   36.3970   28.2580   42.1740 C   0  0  0  0  0  2  0  0  0  0  0  0
   36.9680   27.2250   43.1020 C   0  0  0  0  0  2  0  0  0  0  0  0
   38.4260   27.4250   43.4210 C   0  0  0  0  0  2  0  0  0  0  0  0
   39.3110   27.5750   42.2280 C   0  0  0  0  0  2  0  0  0  0  0  0
   38.4540   27.6180   40.9820 C   0  0  0  0  0  2  0  0  0  0  0  0
  1 13  1  0  0  0  0
  1  6  1  0  0  0  0
  2  1  2  0  0  0  0
  3  2  1  0  0  0  0
  3  4  2  0  0  0  0
  4  5  1  0  0  0  0
  5  6  2  0  0  0  0
  5 10  1  0  0  0  0
  6 20  1  0  0  0  0
  7  2  1  0  0  0  0
  8  3  1  0  0  0  0
  9  4  1  0  0  0  0
 11 17  1  0  0  0  0
 12 18  1  0  0  0  0
 12 11  2  0  0  0  0
 13 12  1  0  0  0  0
 14 13  2  0  0  0  0
 14 15  1  0  0  0  0
 15 16  2  0  0  0  0
 16 11  1  0  0  0  0
 19 15  1  0  0  0  0
 20 21  1  0  0  0  0
 21 22  1  0  0  0  0
 22 23  1  0  0  0  0
 24 23  1  0  0  0  0
 25 20  1  0  0  0  0
 25 24  1  0  0  0  0
M  END
>  <minimizedAffinity>
-4.95053101

$$$$

 OpenBabel03242516583D

 25 27  0  0  0  0  0  0  0  0999 V2000
   36.8200   28.7140   39.7610 C   0  0  0  0  0  0  0  0  0  0  0  0
   36.0180   27.6880   39.3470 C   0  0  0  0  0  0  0  0  0  0  0  0
   35.2980   27.8050   38.1800 C   0  0  0  0  0  0  0  0  0  0  0  0
   35.4070   28.9670   37.4540 C   0  0  0  0  0  0  0  0  0  0  0  0
   36.2020   30.0250   37.8330 C   0  0  0  0  0  0  0  0  0  0  0  0
   36.9200   29.8690   39.0260 C   0  0  0  0  0  0  0  0  0  0  0  0
   35.9100   26.7610   39.8950 H   0  0  0  0  0  0  0  0  0  0  0  0
   34.6540   27.0160   37.8210 H   0  0  0  0  0  0  0  0  0  0  0  0
   34.8680   29.1330   36.5200 H   0  0  0  0  0  0  0  0  0  0  0  0
   36.2960   30.9320   37.2820 H   0  0  0  0  0  0  0  0  0  0  0  0
   37.8730   28.7530   43.4040 C   0  0  0  0  0  0  0  0  0  0  0  0
   37.0940   28.9900   42.2510 C   0  0  0  0  0  0  0  0  0  0  0  0
   37.5570   28.5180   41.0130 C   0  0  0  0  0  0  0  0  0  0  0  0
   38.7320   27.8600   41.0000 N   0  0  0  0  0  0  0  0  0  0  0  0
   39.4710   27.6390   42.1120 C   0  0  0  0  0  0  0  0  0  0  0  0
   39.0450   28.0840   43.3130 N   0  0  0  0  0  0  0  0  0  0  0  0
   37.4160   29.1620   44.2930 H   0  0  0  0  0  0  0  0  0  0  0  0
   36.1530   29.5200   42.2790 H   0  0  0  0  0  0  0  0  0  0  0  0
   40.4210   27.0980   42.0520 H   0  0  0  0  0  0  0  0  0  0  0  0
   37.8200   30.9240   39.5660 C   0  0  0  0  0  3  0  0  0  0  0  0
   39.1840   30.9270   38.9220 C   0  0  0  0  0  2  0  0  0  0  0  0
   39.6730   32.3140   38.6170 C   0  0  0  0  0  2  0  0  0  0  0  0
   39.3150   33.3350   39.6630 C   0  0  0  0  0  2  0  0  0  0  0  0
   37.8660   33.3800   40.0230 C   0  0  0  0  0  2  0  0  0  0  0  0
   37.1480   32.2570   39.3080 C   0  0  0  0  0  2  0  0  0  0  0  0
  1 13  1  0  0  0  0
  2  1  1  0  0  0  0
  2  7  1  0  0  0  0
  3  2  2  0  0  0  0
  4  5  2  0  0  0  0
  4  3  1  0  0  0  0
  5  6  1  0  0  0  0
  6 20  1  0  0  0  0
  6  1  2  0  0  0  0
  8  3  1  0  0  0  0
  9  4  1  0  0  0  0
 10  5  1  0  0  0  0
 11 17  1  0  0  0  0
 12 18  1  0  0  0  0
 12 11  2  0  0  0  0
 13 12  1  0  0  0  0
 14 13  2  0  0  0  0
 14 15  1  0  0  0  0
 15 16  2  0  0  0  0
 16 11  1  0  0  0  0
 19 15  1  0  0  0  0
 21 20  1  0  0  0  0
 22 21  1  0  0  0  0
 22 23  1  0  0  0  0
 23 24  1  0  0  0  0
 25 20  1  0  0  0  0
 25 24  1  0  0  0  0
M  END
>  <minimizedAffinity>
-4.74998426

$$$$

 OpenBabel03242516583D

 25 27  0  0  0  0  0  0  0  0999 V2000
   36.2820   26.6280   39.1180 C   0  0  0  0  0  0  0  0  0  0  0  0
   35.4960   26.4930   38.0080 C   0  0  0  0  0  0  0  0  0  0  0  0
   34.6920   27.5350   37.6030 C   0  0  0  0  0  0  0  0  0  0  0  0
   34.7040   28.6980   38.3350 C   0  0  0  0  0  0  0  0  0  0  0  0
   35.4800   28.8780   39.4580 C   0  0  0  0  0  0  0  0  0  0  0  0
   36.2840   27.7960   39.8400 C   0  0  0  0  0  0  0  0  0  0  0  0
   35.4630   25.5930   37.4100 H   0  0  0  0  0  0  0  0  0  0  0  0
   34.0580   27.4650   36.7320 H   0  0  0  0  0  0  0  0  0  0  0  0
   34.0970   29.5660   38.0770 H   0  0  0  0  0  0  0  0  0  0  0  0
   35.5000   29.7720   40.0370 H   0  0  0  0  0  0  0  0  0  0  0  0
   39.1300   24.1420   39.4010 C   0  0  0  0  0  0  0  0  0  0  0  0
   38.4070   25.2800   38.9860 C   0  0  0  0  0  0  0  0  0  0  0  0
   37.1110   25.4780   39.4890 C   0  0  0  0  0  0  0  0  0  0  0  0
   36.6320   24.5580   40.3470 N   0  0  0  0  0  0  0  0  0  0  0  0
   37.3350   23.4700   40.7380 C   0  0  0  0  0  0  0  0  0  0  0  0
   38.5820   23.2600   40.2680 N   0  0  0  0  0  0  0  0  0  0  0  0
   40.1110   24.0970   38.9500 H   0  0  0  0  0  0  0  0  0  0  0  0
   38.8070   26.0080   38.2960 H   0  0  0  0  0  0  0  0  0  0  0  0
   36.9030   22.7490   41.4390 H   0  0  0  0  0  0  0  0  0  0  0  0
   37.1760   27.8380   41.0310 C   0  0  0  0  0  3  0  0  0  0  0  0
   38.0950   29.0340   41.0420 C   0  0  0  0  0  2  0  0  0  0  0  0
   38.2010   29.6660   42.4010 C   0  0  0  0  0  2  0  0  0  0  0  0
   38.2100   28.6790   43.5370 C   0  0  0  0  0  2  0  0  0  0  0  0
   37.0840   27.6990   43.5240 C   0  0  0  0  0  2  0  0  0  0  0  0
   36.2840   27.8880   42.2530 C   0  0  0  0  0  2  0  0  0  0  0  0
  1 13  1  0  0  0  0
  1  6  1  0  0  0  0
  2  1  2  0  0  0  0
  3  2  1  0  0  0  0
  3  4  2  0  0  0  0
  4  5  1  0  0  0  0
  5  6  2  0  0  0  0
  5 10  1  0  0  0  0
  6 20  1  0  0  0  0
  7  2  1  0  0  0  0
  8  3  1  0  0  0  0
  9  4  1  0  0  0  0
 11 16  1  0  0  0  0
 12 11  2  0  0  0  0
 12 13  1  0  0  0  0
 13 14  2  0  0  0  0
 14 15  1  0  0  0  0
 15 19  1  0  0  0  0
 16 15  2  0  0  0  0
 17 11  1  0  0  0  0
 18 12  1  0  0  0  0
 20 21  1  0  0  0  0
 20 25  1  0  0  0  0
 21 22  1  0  0  0  0
 22 23  1  0  0  0  0
 24 23  1  0  0  0  0
 25 24  1  0  0  0  0
M  END
>  <minimizedAffinity>
-4.74528694

$$$$

 OpenBabel03242516583D

 25 27  0  0  0  0  0  0  0  0999 V2000
   36.1810   27.9050   39.9100 C   0  0  0  0  0  0  0  0  0  0  0  0
   35.3410   28.8440   39.3800 C   0  0  0  0  0  0  0  0  0  0  0  0
   34.6330   28.5650   38.2330 C   0  0  0  0  0  0  0  0  0  0  0  0
   34.7920   27.3330   37.6450 C   0  0  0  0  0  0  0  0  0  0  0  0
   35.6260   26.3570   38.1440 C   0  0  0  0  0  0  0  0  0  0  0  0
   36.3310   26.6780   39.3120 C   0  0  0  0  0  0  0  0  0  0  0  0
   35.1940   29.8220   39.8180 H   0  0  0  0  0  0  0  0  0  0  0  0
   33.9610   29.2810   37.7860 H   0  0  0  0  0  0  0  0  0  0  0  0
   34.2660   27.0380   36.7370 H   0  0  0  0  0  0  0  0  0  0  0  0
   35.7610   25.3980   37.7000 H   0  0  0  0  0  0  0  0  0  0  0  0
   37.2570   28.2550   43.5290 C   0  0  0  0  0  0  0  0  0  0  0  0
   36.4990   27.8510   42.4090 C   0  0  0  0  0  0  0  0  0  0  0  0
   36.9020   28.2720   41.1320 C   0  0  0  0  0  0  0  0  0  0  0  0
   38.0010   29.0460   41.0530 N   0  0  0  0  0  0  0  0  0  0  0  0
   38.7210   29.4270   42.1340 C   0  0  0  0  0  0  0  0  0  0  0  0
   38.3510   29.0330   43.3710 N   0  0  0  0  0  0  0  0  0  0  0  0
   36.8510   27.8700   44.4530 H   0  0  0  0  0  0  0  0  0  0  0  0
   35.6190   27.2300   42.4910 H   0  0  0  0  0  0  0  0  0  0  0  0
   39.6080   30.0570   42.0200 H   0  0  0  0  0  0  0  0  0  0  0  0
   37.2700   25.7290   39.9710 C   0  0  0  0  0  3  0  0  0  0  0  0
   36.5730   24.5660   40.6310 C   0  0  0  0  0  2  0  0  0  0  0  0
   37.2760   23.2610   40.3880 C   0  0  0  0  0  2  0  0  0  0  0  0
   38.7780   23.3620   40.3960 C   0  0  0  0  0  2  0  0  0  0  0  0
   39.3390   24.4110   39.4940 C   0  0  0  0  0  2  0  0  0  0  0  0
   38.1980   25.2040   38.8950 C   0  0  0  0  0  2  0  0  0  0  0  0
  1 13  1  0  0  0  0
  2  7  1  0  0  0  0
  2  1  1  0  0  0  0
  3  2  2  0  0  0  0
  4  5  2  0  0  0  0
  4  3  1  0  0  0  0
  5  6  1  0  0  0  0
  6  1  2  0  0  0  0
  6 20  1  0  0  0  0
  8  3  1  0  0  0  0
  9  4  1  0  0  0  0
 10  5  1  0  0  0  0
 11 17  1  0  0  0  0
 12 18  1  0  0  0  0
 12 11  2  0  0  0  0
 13 12  1  0  0  0  0
 14 13  2  0  0  0  0
 14 15  1  0  0  0  0
 15 16  2  0  0  0  0
 16 11  1  0  0  0  0
 19 15  1  0  0  0  0
 20 21  1  0  0  0  0
 22 23  1  0  0  0  0
 22 21  1  0  0  0  0
 24 23  1  0  0  0  0
 25 24  1  0  0  0  0
 25 20  1  0  0  0  0
M  END
>  <minimizedAffinity>
-4.72227573

$$$$
