
 OpenBabel03252507263D

 24 26  0  0  0  0  0  0  0  0999 V2000
   45.7960   33.8090   45.5890 C   0  0  0  0  0  0  0  0  0  0  0  0
   44.8080   34.7700   45.8550 C   0  0  0  0  0  0  0  0  0  0  0  0
   44.5160   35.6960   44.8310 C   0  0  0  0  0  0  0  0  0  0  0  0
   45.2080   35.6060   43.6460 N   0  0  0  0  0  0  0  0  0  0  0  0
   46.1420   34.6590   43.4600 C   0  0  0  0  0  0  0  0  0  0  0  0
   46.4410   33.7700   44.4070 N   0  0  0  0  0  0  0  0  0  0  0  0
   44.3150   34.7740   46.8010 H   0  0  0  0  0  0  0  0  0  0  0  0
   43.7700   36.4370   45.0030 H   0  0  0  0  0  0  0  0  0  0  0  0
   46.8440   34.6200   42.1710 C   0  0  0  0  0  0  0  0  0  0  0  0
   47.9980   35.3320   41.9760 C   0  0  0  0  0  0  0  0  0  0  0  0
   48.7260   35.3580   40.8050 C   0  0  0  0  0  0  0  0  0  0  0  0
   48.1880   34.5790   39.7870 C   0  0  0  0  0  0  0  0  0  0  0  0
   47.0220   33.8470   39.9560 C   0  0  0  0  0  0  0  0  0  0  0  0
   46.3550   33.8720   41.1510 N   0  0  0  0  0  0  0  0  0  0  0  0
   48.4070   35.9440   42.7960 H   0  0  0  0  0  0  0  0  0  0  0  0
   49.6350   35.9330   40.6840 H   0  0  0  0  0  0  0  0  0  0  0  0
   48.6750   34.5250   38.8280 H   0  0  0  0  0  0  0  0  0  0  0  0
   46.6140   33.2410   39.1500 H   0  0  0  0  0  0  0  0  0  0  0  0
   46.1750   32.7900   46.6030 C   0  0  0  0  0  3  0  0  0  0  0  0
   46.0890   31.3840   46.1060 C   0  0  0  0  0  2  0  0  0  0  0  0
   46.6310   30.4990   47.2220 C   0  0  0  0  0  2  0  0  0  0  0  0
   45.9430   30.7090   48.5350 C   0  0  0  0  0  2  0  0  0  0  0  0
   45.8320   32.1650   48.9140 C   0  0  0  0  0  2  0  0  0  0  0  0
   45.1740   32.8920   47.7620 C   0  0  0  0  0  2  0  0  0  0  0  0
  1  2  1  0  0  0  0
  1 19  1  0  0  0  0
  2  7  1  0  0  0  0
  3  8  1  0  0  0  0
  3  2  2  0  0  0  0
  4  3  1  0  0  0  0
  5  4  2  0  0  0  0
  5  6  1  0  0  0  0
  6  1  2  0  0  0  0
  9  5  1  0  0  0  0
 10  9  1  0  0  0  0
 10 15  1  0  0  0  0
 11 10  2  0  0  0  0
 12 13  2  0  0  0  0
 12 11  1  0  0  0  0
 13 14  1  0  0  0  0
 14  9  2  0  0  0  0
 16 11  1  0  0  0  0
 17 12  1  0  0  0  0
 18 13  1  0  0  0  0
 19 24  1  0  0  0  0
 20 19  1  0  0  0  0
 20 21  1  0  0  0  0
 21 22  1  0  0  0  0
 22 23  1  0  0  0  0
 24 23  1  0  0  0  0
M  END
>  <minimizedAffinity>
-6.25454712

>  <minimizedRMSD>
0.320149362

$$$$
