
 OpenBabel03242517073D

 31 33  0  0  1  0  0  0  0  0999 V2000
   46.3820   33.7980   43.3340 C   0  0  2  0  0  0  0  0  0  0  0  0
   45.7040   34.8580   42.5570 C   0  0  2  0  0  0  0  0  0  0  0  0
   45.3280   36.0500   43.3640 C   0  0  0  0  0  0  0  0  0  0  0  0
   44.5800   35.7670   44.6450 C   0  0  0  0  0  0  0  0  0  0  0  0
   45.0190   34.4880   45.3130 C   0  0  0  0  0  0  0  0  0  0  0  0
   46.3910   34.0650   44.8320 C   0  0  0  0  0  0  0  0  0  0  0  0
   45.9050   32.7800   43.2480 H   0  0  0  0  0  0  0  0  0  0  0  0
   46.4810   35.2800   41.8330 H   0  0  0  0  0  0  0  0  0  0  0  0
   46.1510   36.7340   43.5930 H   0  0  0  0  0  0  0  0  0  0  0  0
   44.6190   36.6490   42.7270 H   0  0  0  0  0  0  0  0  0  0  0  0
   44.8090   36.5830   45.3740 H   0  0  0  0  0  0  0  0  0  0  0  0
   43.4880   35.8090   44.4890 H   0  0  0  0  0  0  0  0  0  0  0  0
   45.0760   34.5920   46.4120 H   0  0  0  0  0  0  0  0  0  0  0  0
   44.3120   33.6760   45.0540 H   0  0  0  0  0  0  0  0  0  0  0  0
   46.6730   33.1760   45.3890 H   0  0  0  0  0  0  0  0  0  0  0  0
   47.0670   34.9340   44.9730 H   0  0  0  0  0  0  0  0  0  0  0  0
   47.7870   33.6170   42.9240 C   0  0  0  0  0  0  0  0  0  0  0  0
   48.5260   34.8030   42.7520 C   0  0  0  0  0  0  0  0  0  0  0  0
   49.8660   34.7380   42.3480 C   0  0  0  0  0  0  0  0  0  0  0  0
   50.3790   33.4810   42.1430 N   0  0  0  0  0  0  0  0  0  0  0  0
   49.6410   32.3540   42.3170 C   0  0  0  0  0  0  0  0  0  0  0  0
   48.3650   32.4360   42.7020 N   0  0  0  0  0  0  0  0  0  0  0  0
   48.2330   35.8310   42.8910 H   0  0  0  0  0  0  0  0  0  0  0  0
   50.5110   35.5900   42.1910 H   0  0  0  0  0  0  0  0  0  0  0  0
   50.1610   31.4110   42.1230 H   0  0  0  0  0  0  0  0  0  0  0  0
   44.6300   34.3920   41.6050 C   0  0  0  0  0  0  0  0  0  0  0  0
   43.7470   35.5930   41.2090 C   0  0  0  0  0  0  0  0  0  0  0  0
   42.4820   35.1390   40.5630 C   0  0  0  0  0  0  0  0  0  0  0  0
   42.8060   34.2730   39.3680 C   0  0  0  0  0  0  0  0  0  0  0  0
   43.8320   33.2270   39.6640 C   0  0  0  0  0  0  0  0  0  0  0  0
   45.0900   33.8250   40.3150 C   0  0  0  0  0  0  0  0  0  0  0  0
  1  7  1  6  0  0  0
  1  6  1  0  0  0  0
  2  8  1  6  0  0  0
  2  1  1  0  0  0  0
  2  3  1  0  0  0  0
  3  9  1  0  0  0  0
  3  4  1  0  0  0  0
  4  5  1  0  0  0  0
  4 11  1  0  0  0  0
  5 13  1  0  0  0  0
  6 16  1  0  0  0  0
  6  5  1  0  0  0  0
  6 15  1  0  0  0  0
 10  3  1  0  0  0  0
 12  4  1  0  0  0  0
 14  5  1  0  0  0  0
 17  1  1  0  0  0  0
 18 23  1  0  0  0  0
 18 17  1  0  0  0  0
 19 18  2  0  0  0  0
 20 21  2  0  0  0  0
 20 19  1  0  0  0  0
 21 22  1  0  0  0  0
 22 17  2  0  0  0  0
 24 19  1  0  0  0  0
 25 21  1  0  0  0  0
 26  2  1  0  0  0  0
 27 26  1  0  0  0  0
 28 27  1  0  0  0  0
 29 30  1  0  0  0  0
 29 28  1  0  0  0  0
 30 31  1  0  0  0  0
 31 26  1  0  0  0  0
M  END
>  <minimizedAffinity>
-5.33565664

>  <minimizedRMSD>
2.41263366

$$$$
