
 OpenBabel03242519343D

 33 35  0  0  0  0  0  0  0  0999 V2000
   36.7870   29.8990   37.0790 C   0  0  0  0  0  0  0  0  0  0  0  0
   35.4440   29.2740   36.9460 C   0  0  0  0  0  0  0  0  0  0  0  0
   35.4860   27.7800   36.9580 C   0  0  0  0  0  0  0  0  0  0  0  0
   36.4250   27.2120   35.9150 C   0  0  0  0  0  0  0  0  0  0  0  0
   37.7420   27.9340   35.8390 C   0  0  0  0  0  0  0  0  0  0  0  0
   37.9250   28.9190   36.9640 C   0  0  0  0  0  0  0  0  0  0  0  0
   36.8990   30.6500   36.2730 H   0  0  0  0  0  0  0  0  0  0  0  0
   34.8980   29.6310   36.0600 H   0  0  0  0  0  0  0  0  0  0  0  0
   34.8420   29.5750   37.8420 H   0  0  0  0  0  0  0  0  0  0  0  0
   35.6110   27.3200   37.9550 H   0  0  0  0  0  0  0  0  0  0  0  0
   34.4530   27.4490   36.6420 H   0  0  0  0  0  0  0  0  0  0  0  0
   35.9020   27.1700   34.9310 H   0  0  0  0  0  0  0  0  0  0  0  0
   36.5890   26.1270   36.1820 H   0  0  0  0  0  0  0  0  0  0  0  0
   38.6180   27.2600   35.8630 H   0  0  0  0  0  0  0  0  0  0  0  0
   37.7140   28.5140   34.8720 H   0  0  0  0  0  0  0  0  0  0  0  0
   38.8690   29.4880   36.7270 H   0  0  0  0  0  0  0  0  0  0  0  0
   38.1450   28.3630   37.8890 H   0  0  0  0  0  0  0  0  0  0  0  0
   36.9530   30.6010   38.3780 C   0  0  0  0  0  0  0  0  0  0  0  0
   37.0370   29.7880   39.5180 C   0  0  0  0  0  0  0  0  0  0  0  0
   37.1960   30.3600   40.7730 C   0  0  0  0  0  0  0  0  0  0  0  0
   37.2620   31.7210   40.8230 N   0  0  0  0  0  0  0  0  0  0  0  0
   37.1770   32.4960   39.6970 C   0  0  0  0  0  0  0  0  0  0  0  0
   37.0240   31.9470   38.4780 N   0  0  0  0  0  0  0  0  0  0  0  0
   37.2610   33.9110   39.9020 N   0  0  0  0  0  0  0  0  0  0  0  0
   36.9810   28.7350   39.4270 H   0  0  0  0  0  0  0  0  0  0  0  0
   36.2930   34.2810   40.0660 H   0  0  0  0  0  0  0  0  0  0  0  0
   38.0710   34.5760   39.9100 H   0  0  0  0  0  0  0  0  0  0  0  0
   37.2870   29.5380   41.9820 C   0  0  0  0  0  3  0  0  0  0  0  0
   36.8020   28.1170   41.7170 C   0  0  0  0  0  2  0  0  0  0  0  0
   36.6540   27.5010   43.1090 C   0  0  0  0  0  2  0  0  0  0  0  0
   38.0290   27.2850   43.6780 C   0  0  0  0  0  2  0  0  0  0  0  0
   39.0850   28.1190   43.0100 C   0  0  0  0  0  2  0  0  0  0  0  0
   38.6220   29.4980   42.6380 C   0  0  0  0  0  2  0  0  0  0  0  0
  1 18  1  0  0  0  0
  2  3  1  0  0  0  0
  2  1  1  0  0  0  0
  2  9  1  0  0  0  0
  3 10  1  0  0  0  0
  4 13  1  0  0  0  0
  4  3  1  0  0  0  0
  5 14  1  0  0  0  0
  5  4  1  0  0  0  0
  5  6  1  0  0  0  0
  6  1  1  0  0  0  0
  6 17  1  0  0  0  0
  7  1  1  0  0  0  0
  8  2  1  0  0  0  0
 11  3  1  0  0  0  0
 12  4  1  0  0  0  0
 15  5  1  0  0  0  0
 16  6  1  0  0  0  0
 18 23  2  0  0  0  0
 18 19  1  0  0  0  0
 19 20  2  0  0  0  0
 20 21  1  0  0  0  0
 20 28  1  0  0  0  0
 22 24  1  0  0  0  0
 22 21  2  0  0  0  0
 23 22  1  0  0  0  0
 24 27  1  0  0  0  0
 24 26  1  0  0  0  0
 25 19  1  0  0  0  0
 28 33  1  0  0  0  0
 29 28  1  0  0  0  0
 29 30  1  0  0  0  0
 30 31  1  0  0  0  0
 32 31  1  0  0  0  0
 33 32  1  0  0  0  0
M  END
>  <minimizedAffinity>
-5.8139286

$$$$

 OpenBabel03242519343D

 33 35  0  0  0  0  0  0  0  0999 V2000
   37.9500   26.8280   42.9880 C   0  0  0  0  0  0  0  0  0  0  0  0
   39.3480   26.3770   43.2180 C   0  0  0  0  0  0  0  0  0  0  0  0
   39.8060   25.3530   42.2310 C   0  0  0  0  0  0  0  0  0  0  0  0
   38.8830   24.1550   42.1590 C   0  0  0  0  0  0  0  0  0  0  0  0
   37.4250   24.5230   42.1390 C   0  0  0  0  0  0  0  0  0  0  0  0
   37.2070   26.0040   41.9690 C   0  0  0  0  0  0  0  0  0  0  0  0
   37.4030   26.7580   43.9490 H   0  0  0  0  0  0  0  0  0  0  0  0
   39.5120   26.0160   44.2430 H   0  0  0  0  0  0  0  0  0  0  0  0
   40.0160   27.2670   43.0750 H   0  0  0  0  0  0  0  0  0  0  0  0
   40.0870   25.7480   41.2370 H   0  0  0  0  0  0  0  0  0  0  0  0
   40.7810   24.9550   42.6420 H   0  0  0  0  0  0  0  0  0  0  0  0
   39.1340   23.4450   42.9830 H   0  0  0  0  0  0  0  0  0  0  0  0
   39.1570   23.5890   41.2220 H   0  0  0  0  0  0  0  0  0  0  0  0
   36.8550   24.0250   41.3330 H   0  0  0  0  0  0  0  0  0  0  0  0
   37.0240   24.2280   43.1510 H   0  0  0  0  0  0  0  0  0  0  0  0
   36.1010   26.1710   42.1060 H   0  0  0  0  0  0  0  0  0  0  0  0
   37.4160   26.2750   40.9220 H   0  0  0  0  0  0  0  0  0  0  0  0
   37.8830   28.2400   42.5300 C   0  0  0  0  0  0  0  0  0  0  0  0
   39.0570   28.9950   42.6650 C   0  0  0  0  0  0  0  0  0  0  0  0
   39.0840   30.3220   42.2600 C   0  0  0  0  0  0  0  0  0  0  0  0
   37.9310   30.8280   41.7380 N   0  0  0  0  0  0  0  0  0  0  0  0
   36.7950   30.0740   41.6150 C   0  0  0  0  0  0  0  0  0  0  0  0
   36.7630   28.7860   42.0050 N   0  0  0  0  0  0  0  0  0  0  0  0
   35.6580   30.7380   41.0500 N   0  0  0  0  0  0  0  0  0  0  0  0
   39.9280   28.5560   43.0770 H   0  0  0  0  0  0  0  0  0  0  0  0
   35.1150   31.1860   41.8280 H   0  0  0  0  0  0  0  0  0  0  0  0
   35.3160   30.8350   40.0640 H   0  0  0  0  0  0  0  0  0  0  0  0
   40.2950   31.1360   42.3890 C   0  0  0  0  0  3  0  0  0  0  0  0
   41.4990   30.2760   42.7580 C   0  0  0  0  0  2  0  0  0  0  0  0
   42.5740   31.2830   43.1650 C   0  0  0  0  0  2  0  0  0  0  0  0
   43.0420   32.0000   41.9290 C   0  0  0  0  0  2  0  0  0  0  0  0
   42.0670   31.9150   40.7890 C   0  0  0  0  0  2  0  0  0  0  0  0
   40.6300   31.9890   41.2160 C   0  0  0  0  0  2  0  0  0  0  0  0
  1  2  1  0  0  0  0
  1  7  1  0  0  0  0
  2  8  1  0  0  0  0
  3 11  1  0  0  0  0
  3  2  1  0  0  0  0
  4  3  1  0  0  0  0
  4 12  1  0  0  0  0
  5  4  1  0  0  0  0
  5 15  1  0  0  0  0
  6 16  1  0  0  0  0
  6  5  1  0  0  0  0
  6  1  1  0  0  0  0
  9  2  1  0  0  0  0
 10  3  1  0  0  0  0
 13  4  1  0  0  0  0
 14  5  1  0  0  0  0
 17  6  1  0  0  0  0
 18 19  1  0  0  0  0
 18  1  1  0  0  0  0
 19 25  1  0  0  0  0
 20 28  1  0  0  0  0
 20 19  2  0  0  0  0
 21 20  1  0  0  0  0
 22 21  2  0  0  0  0
 22 23  1  0  0  0  0
 23 18  2  0  0  0  0
 24 22  1  0  0  0  0
 24 26  1  0  0  0  0
 27 24  1  0  0  0  0
 28 29  1  0  0  0  0
 29 30  1  0  0  0  0
 31 30  1  0  0  0  0
 32 33  1  0  0  0  0
 32 31  1  0  0  0  0
 33 28  1  0  0  0  0
M  END
>  <minimizedAffinity>
-5.76791334

$$$$

 OpenBabel03242519343D

 33 35  0  0  0  0  0  0  0  0999 V2000
   37.1280   29.4770   42.2350 C   0  0  0  0  0  0  0  0  0  0  0  0
   38.4720   29.5230   42.8710 C   0  0  0  0  0  0  0  0  0  0  0  0
   39.2180   28.2320   42.7680 C   0  0  0  0  0  0  0  0  0  0  0  0
   38.4320   27.0570   43.3080 C   0  0  0  0  0  0  0  0  0  0  0  0
   36.9900   27.0520   42.8790 C   0  0  0  0  0  0  0  0  0  0  0  0
   36.6990   28.0910   41.8280 C   0  0  0  0  0  0  0  0  0  0  0  0
   36.3890   29.8640   42.9620 H   0  0  0  0  0  0  0  0  0  0  0  0
   38.4320   29.8560   43.9180 H   0  0  0  0  0  0  0  0  0  0  0  0
   39.0830   30.2810   42.3130 H   0  0  0  0  0  0  0  0  0  0  0  0
   39.6800   28.0330   41.7840 H   0  0  0  0  0  0  0  0  0  0  0  0
   40.1050   28.3430   43.4590 H   0  0  0  0  0  0  0  0  0  0  0  0
   38.5490   27.0130   44.4170 H   0  0  0  0  0  0  0  0  0  0  0  0
   38.9510   26.1230   42.9450 H   0  0  0  0  0  0  0  0  0  0  0  0
   36.6550   26.0830   42.4670 H   0  0  0  0  0  0  0  0  0  0  0  0
   36.3990   27.3190   43.8020 H   0  0  0  0  0  0  0  0  0  0  0  0
   35.5810   28.0860   41.6890 H   0  0  0  0  0  0  0  0  0  0  0  0
   37.1140   27.7480   40.8670 H   0  0  0  0  0  0  0  0  0  0  0  0
   37.0540   30.3250   41.0170 C   0  0  0  0  0  0  0  0  0  0  0  0
   36.8050   29.6590   39.8090 C   0  0  0  0  0  0  0  0  0  0  0  0
   36.7180   30.3740   38.6220 C   0  0  0  0  0  0  0  0  0  0  0  0
   36.8850   31.7250   38.7060 N   0  0  0  0  0  0  0  0  0  0  0  0
   37.1280   32.3560   39.8970 C   0  0  0  0  0  0  0  0  0  0  0  0
   37.2130   31.6670   41.0500 N   0  0  0  0  0  0  0  0  0  0  0  0
   37.2830   33.7780   39.8340 N   0  0  0  0  0  0  0  0  0  0  0  0
   36.6820   28.6070   39.7950 H   0  0  0  0  0  0  0  0  0  0  0  0
   38.2960   33.9940   39.6660 H   0  0  0  0  0  0  0  0  0  0  0  0
   36.5990   34.5670   39.9220 H   0  0  0  0  0  0  0  0  0  0  0  0
   36.4580   29.7070   37.3440 C   0  0  0  0  0  3  0  0  0  0  0  0
   37.5900   28.7500   36.9850 C   0  0  0  0  0  2  0  0  0  0  0  0
   37.3360   28.3960   35.5190 C   0  0  0  0  0  2  0  0  0  0  0  0
   36.1200   27.5160   35.4500 C   0  0  0  0  0  2  0  0  0  0  0  0
   35.2460   27.6140   36.6690 C   0  0  0  0  0  2  0  0  0  0  0  0
   35.1530   29.0010   37.2360 C   0  0  0  0  0  2  0  0  0  0  0  0
  1  2  1  0  0  0  0
  1  7  1  0  0  0  0
  2  8  1  0  0  0  0
  3  2  1  0  0  0  0
  3  4  1  0  0  0  0
  3 11  1  0  0  0  0
  4 12  1  0  0  0  0
  5  4  1  0  0  0  0
  5 15  1  0  0  0  0
  6  1  1  0  0  0  0
  6  5  1  0  0  0  0
  9  2  1  0  0  0  0
 10  3  1  0  0  0  0
 13  4  1  0  0  0  0
 14  5  1  0  0  0  0
 16  6  1  0  0  0  0
 17  6  1  0  0  0  0
 18 23  1  0  0  0  0
 18  1  1  0  0  0  0
 19 18  2  0  0  0  0
 20 21  2  0  0  0  0
 20 19  1  0  0  0  0
 21 22  1  0  0  0  0
 22 23  2  0  0  0  0
 24 22  1  0  0  0  0
 24 27  1  0  0  0  0
 25 19  1  0  0  0  0
 26 24  1  0  0  0  0
 28 20  1  0  0  0  0
 29 28  1  0  0  0  0
 30 29  1  0  0  0  0
 31 30  1  0  0  0  0
 31 32  1  0  0  0  0
 32 33  1  0  0  0  0
 33 28  1  0  0  0  0
M  END
>  <minimizedAffinity>
-5.73778725

$$$$

 OpenBabel03242519343D

 33 35  0  0  0  0  0  0  0  0999 V2000
   35.4940   27.6750   37.9400 C   0  0  0  0  0  0  0  0  0  0  0  0
   36.4780   28.0820   36.9020 C   0  0  0  0  0  0  0  0  0  0  0  0
   35.9340   29.0810   35.9330 C   0  0  0  0  0  0  0  0  0  0  0  0
   34.6510   28.6210   35.2750 C   0  0  0  0  0  0  0  0  0  0  0  0
   33.6760   27.9960   36.2360 C   0  0  0  0  0  0  0  0  0  0  0  0
   34.0940   28.1660   37.6730 C   0  0  0  0  0  0  0  0  0  0  0  0
   35.4670   26.5690   37.9760 H   0  0  0  0  0  0  0  0  0  0  0  0
   36.9010   27.2220   36.3630 H   0  0  0  0  0  0  0  0  0  0  0  0
   37.3300   28.5880   37.4260 H   0  0  0  0  0  0  0  0  0  0  0  0
   35.8850   30.1200   36.3060 H   0  0  0  0  0  0  0  0  0  0  0  0
   36.6950   29.1350   35.1000 H   0  0  0  0  0  0  0  0  0  0  0  0
   34.8960   27.9510   34.4170 H   0  0  0  0  0  0  0  0  0  0  0  0
   34.1910   29.5300   34.7870 H   0  0  0  0  0  0  0  0  0  0  0  0
   32.6520   28.4040   36.1540 H   0  0  0  0  0  0  0  0  0  0  0  0
   33.6850   26.8930   36.0010 H   0  0  0  0  0  0  0  0  0  0  0  0
   33.3730   27.5480   38.2800 H   0  0  0  0  0  0  0  0  0  0  0  0
   33.9100   29.2090   37.9740 H   0  0  0  0  0  0  0  0  0  0  0  0
   35.8690   28.1650   39.2920 C   0  0  0  0  0  0  0  0  0  0  0  0
   36.5430   27.2550   40.1180 C   0  0  0  0  0  0  0  0  0  0  0  0
   36.9330   27.6290   41.3970 C   0  0  0  0  0  0  0  0  0  0  0  0
   36.6280   28.9000   41.7840 N   0  0  0  0  0  0  0  0  0  0  0  0
   35.9680   29.7730   40.9610 C   0  0  0  0  0  0  0  0  0  0  0  0
   35.5880   29.4160   39.7210 N   0  0  0  0  0  0  0  0  0  0  0  0
   35.7140   31.0750   41.5010 N   0  0  0  0  0  0  0  0  0  0  0  0
   36.7580   26.2780   39.7720 H   0  0  0  0  0  0  0  0  0  0  0  0
   34.7890   31.0540   41.9970 H   0  0  0  0  0  0  0  0  0  0  0  0
   36.2620   31.9680   41.4780 H   0  0  0  0  0  0  0  0  0  0  0  0
   37.6390   26.7010   42.2840 C   0  0  0  0  0  3  0  0  0  0  0  0
   38.6360   25.8490   41.5060 C   0  0  0  0  0  2  0  0  0  0  0  0
   39.0350   24.7440   42.4850 C   0  0  0  0  0  2  0  0  0  0  0  0
   39.8860   25.3540   43.5640 C   0  0  0  0  0  2  0  0  0  0  0  0
   39.7230   26.8440   43.6780 C   0  0  0  0  0  2  0  0  0  0  0  0
   38.3140   27.3160   43.4590 C   0  0  0  0  0  2  0  0  0  0  0  0
  1  7  1  0  0  0  0
  1 18  1  0  0  0  0
  2  9  1  0  0  0  0
  2  1  1  0  0  0  0
  3 10  1  0  0  0  0
  3  2  1  0  0  0  0
  4  3  1  0  0  0  0
  4  5  1  0  0  0  0
  5  6  1  0  0  0  0
  6  1  1  0  0  0  0
  6 17  1  0  0  0  0
  6 16  1  0  0  0  0
  8  2  1  0  0  0  0
 11  3  1  0  0  0  0
 12  4  1  0  0  0  0
 13  4  1  0  0  0  0
 14  5  1  0  0  0  0
 15  5  1  0  0  0  0
 18 23  2  0  0  0  0
 18 19  1  0  0  0  0
 19 20  2  0  0  0  0
 20 21  1  0  0  0  0
 20 28  1  0  0  0  0
 22 24  1  0  0  0  0
 22 21  2  0  0  0  0
 23 22  1  0  0  0  0
 24 26  1  0  0  0  0
 25 19  1  0  0  0  0
 27 24  1  0  0  0  0
 28 33  1  0  0  0  0
 29 28  1  0  0  0  0
 29 30  1  0  0  0  0
 30 31  1  0  0  0  0
 31 32  1  0  0  0  0
 33 32  1  0  0  0  0
M  END
>  <minimizedAffinity>
-5.71101618

$$$$

 OpenBabel03242519343D

 33 35  0  0  0  0  0  0  0  0999 V2000
   37.0980   27.6270   42.4370 C   0  0  0  0  0  0  0  0  0  0  0  0
   38.0260   28.2210   43.4360 C   0  0  0  0  0  0  0  0  0  0  0  0
   39.4120   27.6680   43.3540 C   0  0  0  0  0  0  0  0  0  0  0  0
   39.4470   26.1570   43.4520 C   0  0  0  0  0  0  0  0  0  0  0  0
   38.3890   25.4800   42.6260 C   0  0  0  0  0  0  0  0  0  0  0  0
   37.6700   26.4370   41.7110 C   0  0  0  0  0  0  0  0  0  0  0  0
   36.1850   27.2960   42.9680 H   0  0  0  0  0  0  0  0  0  0  0  0
   37.6460   28.1410   44.4650 H   0  0  0  0  0  0  0  0  0  0  0  0
   38.1130   29.3150   43.2060 H   0  0  0  0  0  0  0  0  0  0  0  0
   40.0300   28.0670   42.5290 H   0  0  0  0  0  0  0  0  0  0  0  0
   39.9380   28.0400   44.2820 H   0  0  0  0  0  0  0  0  0  0  0  0
   39.4110   25.8560   44.5260 H   0  0  0  0  0  0  0  0  0  0  0  0
   40.4740   25.8340   43.1140 H   0  0  0  0  0  0  0  0  0  0  0  0
   38.7800   24.6660   41.9870 H   0  0  0  0  0  0  0  0  0  0  0  0
   37.6380   25.0790   43.3660 H   0  0  0  0  0  0  0  0  0  0  0  0
   36.8230   25.8520   41.2530 H   0  0  0  0  0  0  0  0  0  0  0  0
   38.3360   26.6910   40.8710 H   0  0  0  0  0  0  0  0  0  0  0  0
   36.6890   28.6080   41.3980 C   0  0  0  0  0  0  0  0  0  0  0  0
   36.1260   28.0770   40.2290 C   0  0  0  0  0  0  0  0  0  0  0  0
   35.7140   28.9230   39.2070 C   0  0  0  0  0  0  0  0  0  0  0  0
   35.8870   30.2600   39.4100 N   0  0  0  0  0  0  0  0  0  0  0  0
   36.4390   30.7570   40.5600 C   0  0  0  0  0  0  0  0  0  0  0  0
   36.8390   29.9420   41.5540 N   0  0  0  0  0  0  0  0  0  0  0  0
   36.5590   32.1820   40.6340 N   0  0  0  0  0  0  0  0  0  0  0  0
   36.0120   27.0310   40.1180 H   0  0  0  0  0  0  0  0  0  0  0  0
   37.4860   32.4580   40.2290 H   0  0  0  0  0  0  0  0  0  0  0  0
   35.9180   32.9260   41.0000 H   0  0  0  0  0  0  0  0  0  0  0  0
   35.1230   28.3990   37.9730 C   0  0  0  0  0  3  0  0  0  0  0  0
   33.6770   28.8600   37.8180 C   0  0  0  0  0  2  0  0  0  0  0  0
   33.1200   27.9890   36.6920 C   0  0  0  0  0  2  0  0  0  0  0  0
   33.7520   28.4280   35.4000 C   0  0  0  0  0  2  0  0  0  0  0  0
   35.0280   29.1970   35.5940 C   0  0  0  0  0  2  0  0  0  0  0  0
   35.8760   28.6850   36.7220 C   0  0  0  0  0  2  0  0  0  0  0  0
  1  7  1  0  0  0  0
  1  2  1  0  0  0  0
  2  8  1  0  0  0  0
  3  2  1  0  0  0  0
  3  4  1  0  0  0  0
  3 11  1  0  0  0  0
  4 12  1  0  0  0  0
  5 15  1  0  0  0  0
  5  4  1  0  0  0  0
  6  1  1  0  0  0  0
  6  5  1  0  0  0  0
  9  2  1  0  0  0  0
 10  3  1  0  0  0  0
 13  4  1  0  0  0  0
 14  5  1  0  0  0  0
 16  6  1  0  0  0  0
 17  6  1  0  0  0  0
 18 23  1  0  0  0  0
 18  1  1  0  0  0  0
 19 18  2  0  0  0  0
 20 21  2  0  0  0  0
 20 19  1  0  0  0  0
 21 22  1  0  0  0  0
 22 24  1  0  0  0  0
 22 23  2  0  0  0  0
 24 27  1  0  0  0  0
 25 19  1  0  0  0  0
 26 24  1  0  0  0  0
 28 20  1  0  0  0  0
 29 28  1  0  0  0  0
 30 29  1  0  0  0  0
 31 32  1  0  0  0  0
 31 30  1  0  0  0  0
 32 33  1  0  0  0  0
 33 28  1  0  0  0  0
M  END
>  <minimizedAffinity>
-5.6946888

$$$$

 OpenBabel03242519343D

 33 35  0  0  0  0  0  0  0  0999 V2000
   36.6270   30.3190   39.6480 C   0  0  0  0  0  0  0  0  0  0  0  0
   35.3100   29.6680   39.8760 C   0  0  0  0  0  0  0  0  0  0  0  0
   35.0140   28.5780   38.8970 C   0  0  0  0  0  0  0  0  0  0  0  0
   35.1190   29.0390   37.4590 C   0  0  0  0  0  0  0  0  0  0  0  0
   36.3280   29.8920   37.1900 C   0  0  0  0  0  0  0  0  0  0  0  0
   37.2850   29.9180   38.3530 C   0  0  0  0  0  0  0  0  0  0  0  0
   36.4710   31.4150   39.6260 H   0  0  0  0  0  0  0  0  0  0  0  0
   34.4810   30.3900   39.9030 H   0  0  0  0  0  0  0  0  0  0  0  0
   35.3470   29.1780   40.8840 H   0  0  0  0  0  0  0  0  0  0  0  0
   35.5310   27.6200   39.0870 H   0  0  0  0  0  0  0  0  0  0  0  0
   33.9230   28.3250   39.0510 H   0  0  0  0  0  0  0  0  0  0  0  0
   34.1670   29.5390   37.1610 H   0  0  0  0  0  0  0  0  0  0  0  0
   35.1470   28.1080   36.8200 H   0  0  0  0  0  0  0  0  0  0  0  0
   36.9110   29.5680   36.3080 H   0  0  0  0  0  0  0  0  0  0  0  0
   35.9340   30.9390   37.0440 H   0  0  0  0  0  0  0  0  0  0  0  0
   38.0680   30.6850   38.0930 H   0  0  0  0  0  0  0  0  0  0  0  0
   37.8200   28.9560   38.3920 H   0  0  0  0  0  0  0  0  0  0  0  0
   37.5970   30.0200   40.7330 C   0  0  0  0  0  0  0  0  0  0  0  0
   37.6220   28.6980   41.1990 C   0  0  0  0  0  0  0  0  0  0  0  0
   38.4990   28.3310   42.2110 C   0  0  0  0  0  0  0  0  0  0  0  0
   39.3090   29.3100   42.7060 N   0  0  0  0  0  0  0  0  0  0  0  0
   39.2680   30.5950   42.2360 C   0  0  0  0  0  0  0  0  0  0  0  0
   38.4210   30.9570   41.2560 N   0  0  0  0  0  0  0  0  0  0  0  0
   40.1770   31.5170   42.8500 N   0  0  0  0  0  0  0  0  0  0  0  0
   36.9730   27.9730   40.7820 H   0  0  0  0  0  0  0  0  0  0  0  0
   39.7010   31.9470   43.6810 H   0  0  0  0  0  0  0  0  0  0  0  0
   41.1570   31.8020   42.6170 H   0  0  0  0  0  0  0  0  0  0  0  0
   38.5490   26.9580   42.7180 C   0  0  0  0  0  3  0  0  0  0  0  0
   38.5830   25.9500   41.5740 C   0  0  0  0  0  2  0  0  0  0  0  0
   38.3070   24.6050   42.2460 C   0  0  0  0  0  2  0  0  0  0  0  0
   39.5140   24.2270   43.0600 C   0  0  0  0  0  2  0  0  0  0  0  0
   40.4000   25.3970   43.3840 C   0  0  0  0  0  2  0  0  0  0  0  0
   39.6470   26.6620   43.6790 C   0  0  0  0  0  2  0  0  0  0  0  0
  1  2  1  0  0  0  0
  1 18  1  0  0  0  0
  2  8  1  0  0  0  0
  2  9  1  0  0  0  0
  3 11  1  0  0  0  0
  3 10  1  0  0  0  0
  3  2  1  0  0  0  0
  4  3  1  0  0  0  0
  5  4  1  0  0  0  0
  5  6  1  0  0  0  0
  6 17  1  0  0  0  0
  6  1  1  0  0  0  0
  7  1  1  0  0  0  0
 12  4  1  0  0  0  0
 13  4  1  0  0  0  0
 14  5  1  0  0  0  0
 15  5  1  0  0  0  0
 16  6  1  0  0  0  0
 18 19  2  0  0  0  0
 18 23  1  0  0  0  0
 19 20  1  0  0  0  0
 20 21  2  0  0  0  0
 20 28  1  0  0  0  0
 22 21  1  0  0  0  0
 22 24  1  0  0  0  0
 23 22  2  0  0  0  0
 24 26  1  0  0  0  0
 25 19  1  0  0  0  0
 27 24  1  0  0  0  0
 28 33  1  0  0  0  0
 29 30  1  0  0  0  0
 29 28  1  0  0  0  0
 30 31  1  0  0  0  0
 31 32  1  0  0  0  0
 32 33  1  0  0  0  0
M  END
>  <minimizedAffinity>
-5.62747717

$$$$

 OpenBabel03242519343D

 33 35  0  0  0  0  0  0  0  0999 V2000
   37.6260   26.5360   42.6740 C   0  0  0  0  0  0  0  0  0  0  0  0
   38.5650   27.2010   43.6170 C   0  0  0  0  0  0  0  0  0  0  0  0
   39.9860   26.7770   43.4310 C   0  0  0  0  0  0  0  0  0  0  0  0
   40.1630   25.2750   43.5000 C   0  0  0  0  0  0  0  0  0  0  0  0
   39.1150   24.5130   42.7370 C   0  0  0  0  0  0  0  0  0  0  0  0
   38.2510   25.4100   41.8900 C   0  0  0  0  0  0  0  0  0  0  0  0
   36.7860   26.1180   43.2610 H   0  0  0  0  0  0  0  0  0  0  0  0
   38.2660   27.0760   44.6680 H   0  0  0  0  0  0  0  0  0  0  0  0
   38.5380   28.3010   43.3990 H   0  0  0  0  0  0  0  0  0  0  0  0
   40.5070   27.2390   42.5720 H   0  0  0  0  0  0  0  0  0  0  0  0
   40.5400   27.1850   44.3260 H   0  0  0  0  0  0  0  0  0  0  0  0
   40.2300   24.9600   44.5690 H   0  0  0  0  0  0  0  0  0  0  0  0
   41.1890   25.0490   43.0870 H   0  0  0  0  0  0  0  0  0  0  0  0
   39.5320   23.7440   42.0600 H   0  0  0  0  0  0  0  0  0  0  0  0
   38.4560   24.0380   43.5200 H   0  0  0  0  0  0  0  0  0  0  0  0
   37.4300   24.7550   41.4820 H   0  0  0  0  0  0  0  0  0  0  0  0
   38.8310   25.7330   41.0110 H   0  0  0  0  0  0  0  0  0  0  0  0
   37.0590   27.4860   41.6820 C   0  0  0  0  0  0  0  0  0  0  0  0
   36.9630   27.0250   40.3620 C   0  0  0  0  0  0  0  0  0  0  0  0
   36.4430   27.8470   39.3710 C   0  0  0  0  0  0  0  0  0  0  0  0
   36.0440   29.0930   39.7550 N   0  0  0  0  0  0  0  0  0  0  0  0
   36.1470   29.5240   41.0510 C   0  0  0  0  0  0  0  0  0  0  0  0
   36.6490   28.7310   42.0150 N   0  0  0  0  0  0  0  0  0  0  0  0
   35.6890   30.8560   41.3070 N   0  0  0  0  0  0  0  0  0  0  0  0
   37.2870   26.0480   40.1130 H   0  0  0  0  0  0  0  0  0  0  0  0
   36.4920   31.5160   41.1660 H   0  0  0  0  0  0  0  0  0  0  0  0
   34.7550   31.2390   41.5910 H   0  0  0  0  0  0  0  0  0  0  0  0
   36.3300   27.3940   37.9830 C   0  0  0  0  0  3  0  0  0  0  0  0
   37.6970   27.3450   37.3080 C   0  0  0  0  0  2  0  0  0  0  0  0
   37.3800   27.1790   35.8220 C   0  0  0  0  0  2  0  0  0  0  0  0
   36.8510   25.7890   35.6050 C   0  0  0  0  0  2  0  0  0  0  0  0
   36.3360   25.1460   36.8630 C   0  0  0  0  0  2  0  0  0  0  0  0
   35.6250   26.0990   37.7800 C   0  0  0  0  0  2  0  0  0  0  0  0
  1  7  1  0  0  0  0
  1  2  1  0  0  0  0
  2  8  1  0  0  0  0
  3  4  1  0  0  0  0
  3  2  1  0  0  0  0
  3 11  1  0  0  0  0
  4 12  1  0  0  0  0
  5  4  1  0  0  0  0
  5 15  1  0  0  0  0
  6  1  1  0  0  0  0
  6  5  1  0  0  0  0
  9  2  1  0  0  0  0
 10  3  1  0  0  0  0
 13  4  1  0  0  0  0
 14  5  1  0  0  0  0
 16  6  1  0  0  0  0
 17  6  1  0  0  0  0
 18 23  1  0  0  0  0
 18  1  1  0  0  0  0
 19 18  2  0  0  0  0
 20 21  2  0  0  0  0
 20 19  1  0  0  0  0
 21 22  1  0  0  0  0
 22 24  1  0  0  0  0
 22 23  2  0  0  0  0
 24 27  1  0  0  0  0
 25 19  1  0  0  0  0
 26 24  1  0  0  0  0
 28 20  1  0  0  0  0
 29 28  1  0  0  0  0
 30 29  1  0  0  0  0
 31 30  1  0  0  0  0
 31 32  1  0  0  0  0
 32 33  1  0  0  0  0
 33 28  1  0  0  0  0
M  END
>  <minimizedAffinity>
-5.44677925

$$$$

 OpenBabel03242519343D

 33 35  0  0  0  0  0  0  0  0999 V2000
   38.0600   26.7260   40.7430 C   0  0  0  0  0  0  0  0  0  0  0  0
   37.7110   26.0310   39.4750 C   0  0  0  0  0  0  0  0  0  0  0  0
   36.4630   25.2150   39.5740 C   0  0  0  0  0  0  0  0  0  0  0  0
   36.5030   24.2200   40.7150 C   0  0  0  0  0  0  0  0  0  0  0  0
   37.0500   24.7950   41.9920 C   0  0  0  0  0  0  0  0  0  0  0  0
   37.2300   26.2890   41.9220 C   0  0  0  0  0  0  0  0  0  0  0  0
   39.1210   26.5110   40.9730 H   0  0  0  0  0  0  0  0  0  0  0  0
   38.5370   25.4160   39.0900 H   0  0  0  0  0  0  0  0  0  0  0  0
   37.5060   26.8190   38.7040 H   0  0  0  0  0  0  0  0  0  0  0  0
   35.5190   25.7900   39.5300 H   0  0  0  0  0  0  0  0  0  0  0  0
   36.4370   24.5910   38.6330 H   0  0  0  0  0  0  0  0  0  0  0  0
   37.0510   23.3050   40.3870 H   0  0  0  0  0  0  0  0  0  0  0  0
   35.4440   23.8600   40.8690 H   0  0  0  0  0  0  0  0  0  0  0  0
   36.4150   24.5940   42.8750 H   0  0  0  0  0  0  0  0  0  0  0  0
   38.0690   24.3300   42.1210 H   0  0  0  0  0  0  0  0  0  0  0  0
   37.7650   26.5810   42.8690 H   0  0  0  0  0  0  0  0  0  0  0  0
   36.2400   26.7680   41.9860 H   0  0  0  0  0  0  0  0  0  0  0  0
   37.9080   28.2010   40.6340 C   0  0  0  0  0  0  0  0  0  0  0  0
   38.9750   28.8940   40.0460 C   0  0  0  0  0  0  0  0  0  0  0  0
   38.9170   30.2740   39.9030 C   0  0  0  0  0  0  0  0  0  0  0  0
   37.7890   30.8910   40.3590 N   0  0  0  0  0  0  0  0  0  0  0  0
   36.7590   30.1940   40.9310 C   0  0  0  0  0  0  0  0  0  0  0  0
   36.8090   28.8570   41.0710 N   0  0  0  0  0  0  0  0  0  0  0  0
   35.6380   30.9740   41.3630 N   0  0  0  0  0  0  0  0  0  0  0  0
   39.8300   28.3700   39.7070 H   0  0  0  0  0  0  0  0  0  0  0  0
   35.8060   31.2750   42.3540 H   0  0  0  0  0  0  0  0  0  0  0  0
   34.7520   31.2620   40.8830 H   0  0  0  0  0  0  0  0  0  0  0  0
   40.0150   31.0270   39.2930 C   0  0  0  0  0  3  0  0  0  0  0  0
   39.6620   31.4600   37.8740 C   0  0  0  0  0  2  0  0  0  0  0  0
   40.9900   31.9290   37.2790 C   0  0  0  0  0  2  0  0  0  0  0  0
   41.3710   33.2250   37.9390 C   0  0  0  0  0  2  0  0  0  0  0  0
   40.6750   33.4490   39.2530 C   0  0  0  0  0  2  0  0  0  0  0  0
   40.5050   32.2000   40.0670 C   0  0  0  0  0  2  0  0  0  0  0  0
  1  7  1  0  0  0  0
  1  6  1  0  0  0  0
  2  3  1  0  0  0  0
  2  1  1  0  0  0  0
  3  4  1  0  0  0  0
  4 13  1  0  0  0  0
  4  5  1  0  0  0  0
  5 15  1  0  0  0  0
  5 14  1  0  0  0  0
  6 17  1  0  0  0  0
  6  5  1  0  0  0  0
  6 16  1  0  0  0  0
  8  2  1  0  0  0  0
  9  2  1  0  0  0  0
 10  3  1  0  0  0  0
 11  3  1  0  0  0  0
 12  4  1  0  0  0  0
 18  1  1  0  0  0  0
 18 23  1  0  0  0  0
 19 18  2  0  0  0  0
 20 19  1  0  0  0  0
 20 21  2  0  0  0  0
 21 22  1  0  0  0  0
 22 23  2  0  0  0  0
 22 24  1  0  0  0  0
 24 26  1  0  0  0  0
 25 19  1  0  0  0  0
 27 24  1  0  0  0  0
 28 20  1  0  0  0  0
 28 33  1  0  0  0  0
 29 28  1  0  0  0  0
 30 29  1  0  0  0  0
 30 31  1  0  0  0  0
 31 32  1  0  0  0  0
 32 33  1  0  0  0  0
M  END
>  <minimizedAffinity>
-5.40864563

$$$$

 OpenBabel03242519343D

 33 35  0  0  0  0  0  0  0  0999 V2000
   38.6880   26.7740   43.1710 C   0  0  0  0  0  0  0  0  0  0  0  0
   39.6170   25.6140   43.2510 C   0  0  0  0  0  0  0  0  0  0  0  0
   39.4140   24.6200   42.1530 C   0  0  0  0  0  0  0  0  0  0  0  0
   37.9840   24.1310   42.0620 C   0  0  0  0  0  0  0  0  0  0  0  0
   36.9660   25.2310   42.1880 C   0  0  0  0  0  0  0  0  0  0  0  0
   37.5910   26.6020   42.1530 C   0  0  0  0  0  0  0  0  0  0  0  0
   38.2170   26.9070   44.1630 H   0  0  0  0  0  0  0  0  0  0  0  0
   39.5810   25.1120   44.2290 H   0  0  0  0  0  0  0  0  0  0  0  0
   40.6590   26.0080   43.1250 H   0  0  0  0  0  0  0  0  0  0  0  0
   39.8410   24.9060   41.1740 H   0  0  0  0  0  0  0  0  0  0  0  0
   40.0210   23.7160   42.4520 H   0  0  0  0  0  0  0  0  0  0  0  0
   37.8260   23.3140   42.8050 H   0  0  0  0  0  0  0  0  0  0  0  0
   37.8800   23.6140   41.0640 H   0  0  0  0  0  0  0  0  0  0  0  0
   36.1970   25.2140   41.3930 H   0  0  0  0  0  0  0  0  0  0  0  0
   36.4940   25.0920   43.2020 H   0  0  0  0  0  0  0  0  0  0  0  0
   36.7610   27.3260   42.3900 H   0  0  0  0  0  0  0  0  0  0  0  0
   37.8890   26.8290   41.1170 H   0  0  0  0  0  0  0  0  0  0  0  0
   39.3950   28.0360   42.8310 C   0  0  0  0  0  0  0  0  0  0  0  0
   38.6100   29.0620   42.2850 C   0  0  0  0  0  0  0  0  0  0  0  0
   39.1890   30.2760   41.9410 C   0  0  0  0  0  0  0  0  0  0  0  0
   40.5290   30.4010   42.1600 N   0  0  0  0  0  0  0  0  0  0  0  0
   41.2770   29.3860   42.6940 C   0  0  0  0  0  0  0  0  0  0  0  0
   40.7220   28.2080   43.0310 N   0  0  0  0  0  0  0  0  0  0  0  0
   42.6720   29.6600   42.8680 N   0  0  0  0  0  0  0  0  0  0  0  0
   37.5730   28.9160   42.1340 H   0  0  0  0  0  0  0  0  0  0  0  0
   43.1760   29.3880   41.9890 H   0  0  0  0  0  0  0  0  0  0  0  0
   43.2190   30.0540   43.6700 H   0  0  0  0  0  0  0  0  0  0  0  0
   38.3950   31.3660   41.3690 C   0  0  0  0  0  3  0  0  0  0  0  0
   39.2470   32.2490   40.4630 C   0  0  0  0  0  2  0  0  0  0  0  0
   38.3840   33.4860   40.2180 C   0  0  0  0  0  2  0  0  0  0  0  0
   37.2400   33.0940   39.3240 C   0  0  0  0  0  2  0  0  0  0  0  0
   36.9760   31.6150   39.3120 C   0  0  0  0  0  2  0  0  0  0  0  0
   37.1580   30.9580   40.6500 C   0  0  0  0  0  2  0  0  0  0  0  0
  1  2  1  0  0  0  0
  1  7  1  0  0  0  0
  2  8  1  0  0  0  0
  3 11  1  0  0  0  0
  3  2  1  0  0  0  0
  4  3  1  0  0  0  0
  4  5  1  0  0  0  0
  4 12  1  0  0  0  0
  5 15  1  0  0  0  0
  6  5  1  0  0  0  0
  6 16  1  0  0  0  0
  6  1  1  0  0  0  0
  9  2  1  0  0  0  0
 10  3  1  0  0  0  0
 13  4  1  0  0  0  0
 14  5  1  0  0  0  0
 17  6  1  0  0  0  0
 18 23  1  0  0  0  0
 18  1  1  0  0  0  0
 19 18  2  0  0  0  0
 20 21  2  0  0  0  0
 20 19  1  0  0  0  0
 21 22  1  0  0  0  0
 22 24  1  0  0  0  0
 22 23  2  0  0  0  0
 24 27  1  0  0  0  0
 25 19  1  0  0  0  0
 26 24  1  0  0  0  0
 28 20  1  0  0  0  0
 29 28  1  0  0  0  0
 30 29  1  0  0  0  0
 31 30  1  0  0  0  0
 32 31  1  0  0  0  0
 32 33  1  0  0  0  0
 33 28  1  0  0  0  0
M  END
>  <minimizedAffinity>
-5.36330605

$$$$
