
 OpenBabel03252504453D

 18 19  0  0  0  0  0  0  0  0999 V2000
   45.3790   34.7070   44.2120 C   0  0  0  0  0  0  0  0  0  0  0  0
   46.2100   34.2120   43.2030 C   0  0  0  0  0  0  0  0  0  0  0  0
   47.1320   33.2160   43.5600 C   0  0  0  0  0  0  0  0  0  0  0  0
   47.1630   32.7950   44.8440 N   0  0  0  0  0  0  0  0  0  0  0  0
   46.3360   33.3030   45.8000 C   0  0  0  0  0  0  0  0  0  0  0  0
   45.4430   34.2600   45.4800 N   0  0  0  0  0  0  0  0  0  0  0  0
   46.1790   34.5550   42.1780 H   0  0  0  0  0  0  0  0  0  0  0  0
   47.8070   32.7910   42.8150 H   0  0  0  0  0  0  0  0  0  0  0  0
   46.4490   32.7800   47.1620 C   0  0  0  0  0  3  0  0  0  0  0  0
   45.1680   32.7320   47.9210 C   0  0  0  0  0  2  0  0  0  0  0  0
   44.8740   31.3790   48.5190 C   0  0  0  0  0  2  0  0  0  0  0  0
   46.0460   30.7410   49.2110 C   0  0  0  0  0  2  0  0  0  0  0  0
   47.3430   30.8560   48.4440 C   0  0  0  0  0  2  0  0  0  0  0  0
   47.0920   31.3930   47.0540 C   0  0  0  0  0  2  0  0  0  0  0  0
   44.3940   35.7770   43.8190 C   0  0  0  0  0  0  0  0  0  0  0  0
   43.9170   35.5240   42.8570 H   0  0  0  0  0  0  0  0  0  0  0  0
   43.6300   35.9250   44.5860 H   0  0  0  0  0  0  0  0  0  0  0  0
   44.9860   36.7120   43.6720 H   0  0  0  0  0  0  0  0  0  0  0  0
  1  6  1  0  0  0  0
  2  3  1  0  0  0  0
  2  1  2  0  0  0  0
  3  4  2  0  0  0  0
  4  5  1  0  0  0  0
  5  9  1  0  0  0  0
  6  5  2  0  0  0  0
  7  2  1  0  0  0  0
  8  3  1  0  0  0  0
  9 10  1  0  0  0  0
 10 11  1  0  0  0  0
 11 12  1  0  0  0  0
 13 12  1  0  0  0  0
 14  9  1  0  0  0  0
 14 13  1  0  0  0  0
 15  1  1  0  0  0  0
 15 17  1  0  0  0  0
 16 15  1  0  0  0  0
 18 15  1  0  0  0  0
M  END
>  <minimizedAffinity>
-4.50959682

>  <minimizedRMSD>
1.61951339

$$$$
