
 OpenBabel03242514063D

 40 43  0  0  1  0  0  0  0  0999 V2000
   46.4150   35.0200   42.2330 C   0  0  1  0  0  0  0  0  0  0  0  0
   47.9300   34.7080   42.3500 C   0  0  0  0  0  0  0  0  0  0  0  0
   48.5110   35.1590   41.0030 C   0  0  0  0  0  0  0  0  0  0  0  0
   48.0360   34.1710   39.9810 C   0  0  0  0  0  0  0  0  0  0  0  0
   46.6760   33.6330   40.1920 C   0  0  0  0  0  0  0  0  0  0  0  0
   45.7870   34.5980   41.0530 C   0  0  1  0  0  0  0  0  0  0  0  0
   46.5830   36.1860   42.2590 H   0  0  0  0  0  0  0  0  0  0  0  0
   47.9840   33.6190   42.4700 H   0  0  0  0  0  0  0  0  0  0  0  0
   48.3460   35.2350   43.1900 H   0  0  0  0  0  0  0  0  0  0  0  0
   48.0180   36.1390   40.7810 H   0  0  0  0  0  0  0  0  0  0  0  0
   49.5970   35.2350   41.0270 H   0  0  0  0  0  0  0  0  0  0  0  0
   48.7510   33.3030   40.0160 H   0  0  0  0  0  0  0  0  0  0  0  0
   48.1350   34.5410   38.9280 H   0  0  0  0  0  0  0  0  0  0  0  0
   46.6520   32.6650   40.7380 H   0  0  0  0  0  0  0  0  0  0  0  0
   46.1700   33.4670   39.2220 H   0  0  0  0  0  0  0  0  0  0  0  0
   46.0740   35.4580   40.3670 H   0  0  0  0  0  0  0  0  0  0  0  0
   45.6560   33.8760   45.6420 C   0  0  0  0  0  0  0  0  0  0  0  0
   44.7630   34.8380   46.0150 C   0  0  0  0  0  0  0  0  0  0  0  0
   44.3410   35.8640   45.2000 C   0  0  0  0  0  0  0  0  0  0  0  0
   44.9130   35.8480   43.9340 C   0  0  0  0  0  0  0  0  0  0  0  0
   45.8170   34.8980   43.5430 C   0  0  0  0  0  0  0  0  0  0  0  0
   46.1900   33.9110   44.3890 N   0  0  0  0  0  0  0  0  0  0  0  0
   44.4000   34.7290   47.0300 H   0  0  0  0  0  0  0  0  0  0  0  0
   43.6300   36.5540   45.6170 H   0  0  0  0  0  0  0  0  0  0  0  0
   44.4980   36.6830   43.4020 H   0  0  0  0  0  0  0  0  0  0  0  0
   45.7840   31.5550   48.4570 C   0  0  0  0  0  0  0  0  0  0  0  0
   46.7860   30.6600   48.1160 C   0  0  0  0  0  0  0  0  0  0  0  0
   47.4130   30.8780   46.8930 C   0  0  0  0  0  0  0  0  0  0  0  0
   47.0120   31.9360   46.1200 N   0  0  0  0  0  0  0  0  0  0  0  0
   46.0180   32.7750   46.5200 C   0  0  0  0  0  0  0  0  0  0  0  0
   45.4160   32.5910   47.6620 N   0  0  0  0  0  0  0  0  0  0  0  0
   45.2460   31.4540   49.3940 H   0  0  0  0  0  0  0  0  0  0  0  0
   47.0590   29.8450   48.7670 H   0  0  0  0  0  0  0  0  0  0  0  0
   48.1950   30.2290   46.5620 H   0  0  0  0  0  0  0  0  0  0  0  0
   44.4620   34.2890   40.5890 C   0  0  0  0  0  0  0  0  0  0  0  0
   44.2040   33.2190   39.5850 C   0  0  0  0  0  0  0  0  0  0  0  0
   42.9000   32.5000   39.8610 C   0  0  0  0  0  0  0  0  0  0  0  0
   41.7280   33.3830   40.0830 C   0  0  0  0  0  0  0  0  0  0  0  0
   41.9870   34.5350   41.0230 C   0  0  0  0  0  0  0  0  0  0  0  0
   43.3000   35.2470   40.6510 C   0  0  0  0  0  0  0  0  0  0  0  0
  1  7  1  6  0  0  0
  1  2  1  0  0  0  0
  1 21  1  0  0  0  0
  2  8  1  0  0  0  0
  2  9  1  0  0  0  0
  3 11  1  0  0  0  0
  3  2  1  0  0  0  0
  4 12  1  0  0  0  0
  4  5  1  0  0  0  0
  4  3  1  0  0  0  0
  5 14  1  0  0  0  0
  5  6  1  0  0  0  0
  6 16  1  6  0  0  0
  6  1  1  0  0  0  0
 10  3  1  0  0  0  0
 13  4  1  0  0  0  0
 15  5  1  0  0  0  0
 17 18  1  0  0  0  0
 17 30  1  0  0  0  0
 18 23  1  0  0  0  0
 19 24  1  0  0  0  0
 19 18  2  0  0  0  0
 20 19  1  0  0  0  0
 21 20  2  0  0  0  0
 21 22  1  0  0  0  0
 22 17  2  0  0  0  0
 25 20  1  0  0  0  0
 26 32  1  0  0  0  0
 27 26  1  0  0  0  0
 27 33  1  0  0  0  0
 28 27  2  0  0  0  0
 29 30  2  0  0  0  0
 29 28  1  0  0  0  0
 30 31  1  0  0  0  0
 31 26  2  0  0  0  0
 34 28  1  0  0  0  0
 35 40  1  0  0  0  0
 35  6  1  0  0  0  0
 36 37  1  0  0  0  0
 36 35  1  0  0  0  0
 37 38  1  0  0  0  0
 38 39  1  0  0  0  0
 40 39  1  0  0  0  0
M  END
>  <minimizedAffinity>
-6.94651842

>  <minimizedRMSD>
5.82525063

$$$$
