
 OpenBabel03252506263D

 42 46  0  0  0  0  0  0  0  0999 V2000
   46.1580   30.2000   48.3470 C   0  0  0  0  0  0  0  0  0  0  0  0
   45.4980   31.0810   48.4710 H   0  0  0  0  0  0  0  0  0  0  0  0
   46.3610   29.8600   49.4060 H   0  0  0  0  0  0  0  0  0  0  0  0
   45.6250   27.7180   47.8380 C   0  0  0  0  0  0  0  0  0  0  0  0
   45.4450   29.0860   47.7110 C   0  0  0  0  0  0  0  0  0  0  0  0
   44.4310   29.5060   46.8500 C   0  0  0  0  0  0  0  0  0  0  0  0
   43.6430   28.6180   46.1550 C   0  0  0  0  0  0  0  0  0  0  0  0
   42.6280   28.7290   45.2930 N   0  0  0  0  0  0  0  0  0  0  0  0
   42.1970   27.5110   44.9010 C   0  0  0  0  0  0  0  0  0  0  0  0
   42.9540   26.5330   45.5270 C   0  0  0  0  0  0  0  0  0  0  0  0
   43.8370   27.2650   46.2940 C   0  0  0  0  0  0  0  0  0  0  0  0
   44.8380   26.8500   47.1440 C   0  0  0  0  0  0  0  0  0  0  0  0
   46.4280   27.4760   48.5210 H   0  0  0  0  0  0  0  0  0  0  0  0
   44.1840   30.5420   46.6600 H   0  0  0  0  0  0  0  0  0  0  0  0
   42.2180   29.6450   44.9600 H   0  0  0  0  0  0  0  0  0  0  0  0
   41.3800   27.3010   44.2010 H   0  0  0  0  0  0  0  0  0  0  0  0
   42.9000   25.4530   45.4590 H   0  0  0  0  0  0  0  0  0  0  0  0
   45.0740   25.4130   47.3140 C   0  0  0  0  0  3  0  0  0  0  0  0
   46.0000   24.7640   46.3600 C   0  0  0  0  0  2  0  0  0  0  0  0
   47.2080   24.1090   46.9660 C   0  0  0  0  0  2  0  0  0  0  0  0
   46.8790   23.0980   48.0170 C   0  0  0  0  0  2  0  0  0  0  0  0
   45.7680   23.5930   48.8850 C   0  0  0  0  0  2  0  0  0  0  0  0
   45.6350   25.1080   48.7110 C   0  0  0  0  0  2  0  0  0  0  0  0
   47.4520   30.5900   47.7530 C   0  0  0  0  0  0  0  0  0  0  0  0
   48.1150   29.7370   47.6150 H   0  0  0  0  0  0  0  0  0  0  0  0
   47.9580   31.2800   48.4780 H   0  0  0  0  0  0  0  0  0  0  0  0
   46.5810   32.8680   45.1480 C   0  0  0  0  0  0  0  0  0  0  0  0
   47.2260   31.8260   44.4340 C   0  0  0  0  0  0  0  0  0  0  0  0
   47.6190   30.8700   45.3100 C   0  0  0  0  0  0  0  0  0  0  0  0
   47.2360   31.2980   46.5170 N   0  0  0  0  0  0  0  0  0  0  0  0
   46.6200   32.4820   46.4210 N   0  0  0  0  0  0  0  0  0  0  0  0
   47.3840   31.7910   43.3640 H   0  0  0  0  0  0  0  0  0  0  0  0
   48.1380   29.9590   45.0350 H   0  0  0  0  0  0  0  0  0  0  0  0
   44.5330   35.8280   44.6220 C   0  0  0  0  0  0  0  0  0  0  0  0
   44.9520   36.2970   43.3780 C   0  0  0  0  0  0  0  0  0  0  0  0
   45.9460   35.5830   42.7210 C   0  0  0  0  0  0  0  0  0  0  0  0
   46.4540   34.4760   43.3220 N   0  0  0  0  0  0  0  0  0  0  0  0
   46.0390   34.0450   44.5130 C   0  0  0  0  0  0  0  0  0  0  0  0
   45.0720   34.7290   45.1630 N   0  0  0  0  0  0  0  0  0  0  0  0
   43.7640   36.3310   45.1900 H   0  0  0  0  0  0  0  0  0  0  0  0
   44.5110   37.1700   42.9660 H   0  0  0  0  0  0  0  0  0  0  0  0
   46.3050   35.9120   41.7460 H   0  0  0  0  0  0  0  0  0  0  0  0
  1  2  1  0  0  0  0
  1  3  1  0  0  0  0
  4 13  1  0  0  0  0
  5  4  1  0  0  0  0
  5  1  1  0  0  0  0
  6  5  2  0  0  0  0
  7 11  2  0  0  0  0
  7  6  1  0  0  0  0
  8  7  1  0  0  0  0
  9  8  1  0  0  0  0
  9 10  2  0  0  0  0
 10 11  1  0  0  0  0
 11 12  1  0  0  0  0
 12 18  1  0  0  0  0
 12  4  2  0  0  0  0
 14  6  1  0  0  0  0
 15  8  1  0  0  0  0
 16  9  1  0  0  0  0
 17 10  1  0  0  0  0
 18 23  1  0  0  0  0
 19 20  1  0  0  0  0
 19 18  1  0  0  0  0
 20 21  1  0  0  0  0
 21 22  1  0  0  0  0
 23 22  1  0  0  0  0
 24  1  1  0  0  0  0
 24 26  1  0  0  0  0
 25 24  1  0  0  0  0
 27 31  2  0  0  0  0
 28 27  1  0  0  0  0
 28 29  2  0  0  0  0
 29 30  1  0  0  0  0
 30 24  1  0  0  0  0
 31 30  1  0  0  0  0
 32 28  1  0  0  0  0
 33 29  1  0  0  0  0
 34 39  1  0  0  0  0
 34 40  1  0  0  0  0
 35 34  2  0  0  0  0
 36 37  2  0  0  0  0
 36 35  1  0  0  0  0
 37 38  1  0  0  0  0
 38 27  1  0  0  0  0
 38 39  2  0  0  0  0
 41 35  1  0  0  0  0
 42 36  1  0  0  0  0
M  END
>  <minimizedAffinity>
-5.4349041

>  <minimizedRMSD>
0.929184139

$$$$
