
 OpenBabel03242518263D

 42 46  0  0  1  0  0  0  0  0999 V2000
   45.8980   30.5880   44.7390 C   0  0  0  0  0  0  0  0  0  0  0  0
   46.3160   31.4090   45.7870 C   0  0  0  0  0  0  0  0  0  0  0  0
   46.1310   32.7900   45.6370 C   0  0  0  0  0  0  0  0  0  0  0  0
   45.5630   33.2690   44.5010 N   0  0  0  0  0  0  0  0  0  0  0  0
   45.1700   32.4250   43.5040 C   0  0  0  0  0  0  0  0  0  0  0  0
   45.3360   31.1040   43.6240 N   0  0  0  0  0  0  0  0  0  0  0  0
   46.0120   29.5050   44.7870 H   0  0  0  0  0  0  0  0  0  0  0  0
   46.4580   33.3970   46.4470 H   0  0  0  0  0  0  0  0  0  0  0  0
   46.8890   30.7830   46.9040 N   0  0  0  0  0  0  0  0  0  0  0  0
   48.0650   29.9940   46.7090 C   0  0  0  0  0  0  0  0  0  0  0  0
   48.5240   29.2820   47.9280 C   0  0  0  0  0  0  0  0  0  0  0  0
   48.5820   30.1240   49.0820 N   0  0  0  0  0  0  0  0  0  0  0  0
   47.5890   31.1090   49.2180 C   0  0  0  0  0  0  0  0  0  0  0  0
   46.4300   30.8370   48.2580 C   0  0  0  0  0  0  0  0  0  0  0  0
   47.9090   29.2700   45.8880 H   0  0  0  0  0  0  0  0  0  0  0  0
   48.8980   30.6840   46.4040 H   0  0  0  0  0  0  0  0  0  0  0  0
   49.5180   28.8560   47.7260 H   0  0  0  0  0  0  0  0  0  0  0  0
   47.7920   28.4610   48.1460 H   0  0  0  0  0  0  0  0  0  0  0  0
   48.5650   29.4870   49.9220 H   0  0  0  0  0  0  0  0  0  0  0  0
   47.0990   31.1420   50.2350 H   0  0  0  0  0  0  0  0  0  0  0  0
   47.9090   32.1580   49.0440 H   0  0  0  0  0  0  0  0  0  0  0  0
   45.8830   29.9360   48.5840 H   0  0  0  0  0  0  0  0  0  0  0  0
   45.7460   31.7050   48.3570 H   0  0  0  0  0  0  0  0  0  0  0  0
   45.2520   33.1870   41.1580 C   0  0  0  0  0  0  0  0  0  0  0  0
   44.5630   33.0310   42.3090 C   0  0  0  0  0  0  0  0  0  0  0  0
   43.2400   33.4590   42.3570 C   0  0  0  0  0  0  0  0  0  0  0  0
   42.6670   34.0290   41.2390 C   0  0  0  0  0  0  0  0  0  0  0  0
   43.3960   34.1820   40.0540 C   0  0  0  0  0  0  0  0  0  0  0  0
   44.7160   33.7540   40.0100 C   0  0  0  0  0  0  0  0  0  0  0  0
   42.5400   34.7820   39.1270 O   0  0  0  0  0  0  0  0  0  0  0  0
   41.4690   35.3590   39.8530 C   0  0  2  0  0  0  0  0  0  0  0  0
   41.3790   34.5440   40.9910 O   0  0  0  0  0  0  0  0  0  0  0  0
   46.2850   32.8570   41.1100 H   0  0  0  0  0  0  0  0  0  0  0  0
   42.6790   33.3390   43.2750 H   0  0  0  0  0  0  0  0  0  0  0  0
   45.2950   33.8620   39.1080 H   0  0  0  0  0  0  0  0  0  0  0  0
   41.8000   36.3520   40.1930 H   0  0  0  0  0  0  0  0  0  0  0  0
   40.1860   35.4110   39.0630 C   0  0  0  0  0  0  0  0  0  0  0  0
   39.0430   34.7920   39.8080 C   0  0  0  0  0  0  0  0  0  0  0  0
   38.7500   33.3750   39.4260 C   0  0  0  0  0  0  0  0  0  0  0  0
   39.9750   32.5270   39.2240 C   0  0  0  0  0  0  0  0  0  0  0  0
   40.8200   33.1510   38.1640 C   0  0  0  0  0  0  0  0  0  0  0  0
   40.4040   34.5690   37.8180 C   0  0  0  0  0  0  0  0  0  0  0  0
  1  7  1  0  0  0  0
  1  2  1  0  0  0  0
  2  9  1  0  0  0  0
  3  2  2  0  0  0  0
  3  8  1  0  0  0  0
  4  3  1  0  0  0  0
  5  6  1  0  0  0  0
  5  4  2  0  0  0  0
  6  1  2  0  0  0  0
  9 14  1  0  0  0  0
 10  9  1  0  0  0  0
 10 11  1  0  0  0  0
 11 18  1  0  0  0  0
 11 12  1  0  0  0  0
 12 13  1  0  0  0  0
 12 19  1  0  0  0  0
 13 20  1  0  0  0  0
 14 23  1  0  0  0  0
 14 22  1  0  0  0  0
 14 13  1  0  0  0  0
 15 10  1  0  0  0  0
 16 10  1  0  0  0  0
 17 11  1  0  0  0  0
 21 13  1  0  0  0  0
 24 25  1  0  0  0  0
 25 26  2  0  0  0  0
 25  5  1  0  0  0  0
 26 34  1  0  0  0  0
 27 26  1  0  0  0  0
 28 27  2  0  0  0  0
 29 28  1  0  0  0  0
 29 24  2  0  0  0  0
 30 31  1  0  0  0  0
 30 28  1  0  0  0  0
 31 36  1  1  0  0  0
 31 32  1  0  0  0  0
 32 27  1  0  0  0  0
 33 24  1  0  0  0  0
 35 29  1  0  0  0  0
 37 38  1  0  0  0  0
 37 31  1  0  0  0  0
 39 38  1  0  0  0  0
 40 39  1  0  0  0  0
 41 40  1  0  0  0  0
 42 41  1  0  0  0  0
 42 37  1  0  0  0  0
M  END
>  <minimizedAffinity>
-5.97797585

>  <minimizedRMSD>
9.93750954

$$$$
