
 OpenBabel03242522063D

 41 44  0  0  1  0  0  0  0  0999 V2000
   44.7770   34.8530   45.3310 C   0  0  0  0  0  0  0  0  0  0  0  0
   45.5060   34.7710   44.1370 C   0  0  0  0  0  0  0  0  0  0  0  0
   46.5570   33.8660   44.0550 C   0  0  0  0  0  0  0  0  0  0  0  0
   46.7940   33.1160   45.1660 N   0  0  0  0  0  0  0  0  0  0  0  0
   46.0770   33.2160   46.2970 C   0  0  0  0  0  0  0  0  0  0  0  0
   45.0620   34.0910   46.3740 N   0  0  0  0  0  0  0  0  0  0  0  0
   43.9680   35.5660   45.3570 H   0  0  0  0  0  0  0  0  0  0  0  0
   45.3290   35.3600   43.2500 H   0  0  0  0  0  0  0  0  0  0  0  0
   47.3790   33.6820   42.9070 N   0  0  0  0  0  0  0  0  0  0  0  0
   46.8860   32.9410   41.7690 C   0  0  0  0  0  0  0  0  0  0  0  0
   48.0220   32.4240   40.9100 C   0  0  0  0  0  0  0  0  0  0  0  0
   48.9720   33.3890   40.5560 N   0  0  0  0  0  0  0  0  0  0  0  0
   49.2930   34.3880   41.5270 C   0  0  2  0  0  0  0  0  0  0  0  0
   48.7010   34.2240   42.8630 C   0  0  0  0  0  0  0  0  0  0  0  0
   46.3400   32.0580   42.1610 H   0  0  0  0  0  0  0  0  0  0  0  0
   46.1620   33.5380   41.1860 H   0  0  0  0  0  0  0  0  0  0  0  0
   48.4840   31.5680   41.4310 H   0  0  0  0  0  0  0  0  0  0  0  0
   47.5480   32.0260   39.9930 H   0  0  0  0  0  0  0  0  0  0  0  0
   48.7590   33.8130   39.6070 H   0  0  0  0  0  0  0  0  0  0  0  0
   50.4070   34.3900   41.6200 H   0  0  0  0  0  0  0  0  0  0  0  0
   48.6520   35.2330   43.3560 H   0  0  0  0  0  0  0  0  0  0  0  0
   49.3960   33.6260   43.5140 H   0  0  0  0  0  0  0  0  0  0  0  0
   48.8680   35.7330   40.9950 C   0  0  0  0  0  0  0  0  0  0  0  0
   49.6910   36.7330   41.5230 F   0  0  0  0  0  0  0  0  0  0  0  0
   47.6050   35.9730   41.4900 F   0  0  0  0  0  0  0  0  0  0  0  0
   48.9330   35.8320   39.6390 F   0  0  0  0  0  0  0  0  0  0  0  0
   46.4110   32.3610   47.4430 C   0  0  0  0  0  0  0  0  0  0  0  0
   45.4000   31.8660   48.2360 C   0  0  0  0  0  0  0  0  0  0  0  0
   45.7370   31.0600   49.3160 C   0  0  0  0  0  0  0  0  0  0  0  0
   47.0750   30.8250   49.4980 C   0  0  0  0  0  0  0  0  0  0  0  0
   48.1030   31.3140   48.7130 C   0  0  0  0  0  0  0  0  0  0  0  0
   47.7370   32.0950   47.6720 N   0  0  0  0  0  0  0  0  0  0  0  0
   44.3630   32.0870   48.0410 H   0  0  0  0  0  0  0  0  0  0  0  0
   45.0080   30.6310   49.9880 H   0  0  0  0  0  0  0  0  0  0  0  0
   47.3790   30.2020   50.3280 H   0  0  0  0  0  0  0  0  0  0  0  0
   49.5200   31.0190   48.9710 C   0  0  0  0  0  0  0  0  0  0  0  0
   49.6010   29.6360   49.5550 C   0  0  0  0  0  0  0  0  0  0  0  0
   50.0560   29.7790   51.0100 C   0  0  0  0  0  0  0  0  0  0  0  0
   51.5220   30.1970   50.9180 C   0  0  0  0  0  0  0  0  0  0  0  0
   51.6010   31.4830   50.1490 C   0  0  0  0  0  0  0  0  0  0  0  0
   50.2370   32.0410   49.7930 C   0  0  0  0  0  0  0  0  0  0  0  0
  1  7  1  0  0  0  0
  1  6  1  0  0  0  0
  2  1  2  0  0  0  0
  3  2  1  0  0  0  0
  3  4  2  0  0  0  0
  4  5  1  0  0  0  0
  5  6  2  0  0  0  0
  5 27  1  0  0  0  0
  8  2  1  0  0  0  0
  9  3  1  0  0  0  0
 10 15  1  0  0  0  0
 10  9  1  0  0  0  0
 11 17  1  0  0  0  0
 11 10  1  0  0  0  0
 12 11  1  0  0  0  0
 12 13  1  0  0  0  0
 13 20  1  1  0  0  0
 13 14  1  0  0  0  0
 14  9  1  0  0  0  0
 14 21  1  0  0  0  0
 14 22  1  0  0  0  0
 16 10  1  0  0  0  0
 18 11  1  0  0  0  0
 19 12  1  0  0  0  0
 23 25  1  0  0  0  0
 23 24  1  0  0  0  0
 23 13  1  0  0  0  0
 26 23  1  0  0  0  0
 27 32  2  0  0  0  0
 27 28  1  0  0  0  0
 28 29  2  0  0  0  0
 29 30  1  0  0  0  0
 29 34  1  0  0  0  0
 30 35  1  0  0  0  0
 31 36  1  0  0  0  0
 31 30  2  0  0  0  0
 32 31  1  0  0  0  0
 33 28  1  0  0  0  0
 36 37  1  0  0  0  0
 36 41  1  0  0  0  0
 37 38  1  0  0  0  0
 39 38  1  0  0  0  0
 40 39  1  0  0  0  0
 41 40  1  0  0  0  0
M  END
>  <minimizedAffinity>
-7.1984868

>  <minimizedRMSD>
0.477718055

$$$$
