
 OpenBabel03252505163D

 22 24  0  0  0  0  0  0  0  0999 V2000
   37.3600   28.2560   43.5650 C   0  0  0  0  0  0  0  0  0  0  0  0
   37.4290   26.9250   43.1180 C   0  0  0  0  0  0  0  0  0  0  0  0
   37.5590   26.7640   41.7450 C   0  0  0  0  0  0  0  0  0  0  0  0
   37.6130   27.8590   40.9180 N   0  0  0  0  0  0  0  0  0  0  0  0
   37.5420   29.1270   41.4080 C   0  0  0  0  0  0  0  0  0  0  0  0
   37.4160   29.3110   42.7340 N   0  0  0  0  0  0  0  0  0  0  0  0
   37.2580   28.4570   44.6240 H   0  0  0  0  0  0  0  0  0  0  0  0
   37.3850   26.0960   43.7770 H   0  0  0  0  0  0  0  0  0  0  0  0
   37.6680   25.3940   41.1380 C   0  0  0  0  0  0  0  0  0  0  0  0
   38.1370   24.3530   42.1330 C   0  0  0  0  0  0  0  0  0  0  0  0
   36.7040   24.3760   41.5390 C   0  0  0  0  0  0  0  0  0  0  0  0
   38.1400   25.3840   40.1410 H   0  0  0  0  0  0  0  0  0  0  0  0
   38.2550   24.6220   43.1920 H   0  0  0  0  0  0  0  0  0  0  0  0
   38.8320   23.6120   41.7010 H   0  0  0  0  0  0  0  0  0  0  0  0
   35.9270   24.5320   42.3030 H   0  0  0  0  0  0  0  0  0  0  0  0
   36.4390   23.5230   40.8570 H   0  0  0  0  0  0  0  0  0  0  0  0
   37.6210   30.1560   40.3360 C   0  0  0  0  0  3  0  0  0  0  0  0
   36.6730   31.3080   40.5510 C   0  0  0  0  0  2  0  0  0  0  0  0
   37.2430   32.4920   39.7600 C   0  0  0  0  0  2  0  0  0  0  0  0
   37.5420   32.0190   38.3750 C   0  0  0  0  0  2  0  0  0  0  0  0
   36.8980   30.6770   38.0510 C   0  0  0  0  0  2  0  0  0  0  0  0
   37.4010   29.5860   38.9570 C   0  0  0  0  0  2  0  0  0  0  0  0
  1  7  1  0  0  0  0
  2  1  1  0  0  0  0
  2  8  1  0  0  0  0
  3  2  2  0  0  0  0
  4  5  2  0  0  0  0
  4  3  1  0  0  0  0
  5  6  1  0  0  0  0
  6  1  2  0  0  0  0
  9 11  1  0  0  0  0
  9  3  1  0  0  0  0
  9 10  1  0  0  0  0
 10 13  1  0  0  0  0
 11 10  1  0  0  0  0
 11 15  1  0  0  0  0
 12  9  1  0  0  0  0
 14 10  1  0  0  0  0
 16 11  1  0  0  0  0
 17 18  1  0  0  0  0
 17  5  1  0  0  0  0
 19 18  1  0  0  0  0
 20 19  1  0  0  0  0
 21 20  1  0  0  0  0
 21 22  1  0  0  0  0
 22 17  1  0  0  0  0
M  END
>  <minimizedAffinity>
-4.79658747

$$$$

 OpenBabel03252505163D

 22 24  0  0  0  0  0  0  0  0999 V2000
   39.1480   31.1740   41.3020 C   0  0  0  0  0  0  0  0  0  0  0  0
   39.0100   30.4150   42.4770 C   0  0  0  0  0  0  0  0  0  0  0  0
   37.9440   29.5260   42.4910 C   0  0  0  0  0  0  0  0  0  0  0  0
   37.1070   29.4280   41.4060 N   0  0  0  0  0  0  0  0  0  0  0  0
   37.2900   30.1890   40.2920 C   0  0  0  0  0  0  0  0  0  0  0  0
   38.3160   31.0580   40.2550 N   0  0  0  0  0  0  0  0  0  0  0  0
   39.9590   31.8880   41.2220 H   0  0  0  0  0  0  0  0  0  0  0  0
   39.6700   30.5090   43.3020 H   0  0  0  0  0  0  0  0  0  0  0  0
   37.6980   28.6370   43.6770 C   0  0  0  0  0  0  0  0  0  0  0  0
   36.7130   27.5270   43.3770 C   0  0  0  0  0  0  0  0  0  0  0  0
   38.2200   27.2770   43.6490 C   0  0  0  0  0  0  0  0  0  0  0  0
   37.5610   29.1870   44.6250 H   0  0  0  0  0  0  0  0  0  0  0  0
   36.3490   27.3820   42.3500 H   0  0  0  0  0  0  0  0  0  0  0  0
   36.0240   27.3100   44.2120 H   0  0  0  0  0  0  0  0  0  0  0  0
   38.7420   26.8360   42.7860 H   0  0  0  0  0  0  0  0  0  0  0  0
   38.4650   26.7260   44.5980 H   0  0  0  0  0  0  0  0  0  0  0  0
   36.2700   29.9170   39.2440 C   0  0  0  0  0  3  0  0  0  0  0  0
   35.6380   28.5550   39.3720 C   0  0  0  0  0  2  0  0  0  0  0  0
   34.2850   28.6350   38.6550 C   0  0  0  0  0  2  0  0  0  0  0  0
   34.5140   29.2290   37.3040 C   0  0  0  0  0  2  0  0  0  0  0  0
   35.9830   29.2480   36.9010 C   0  0  0  0  0  2  0  0  0  0  0  0
   36.8060   30.0840   37.8440 C   0  0  0  0  0  2  0  0  0  0  0  0
  1  2  1  0  0  0  0
  2  3  2  0  0  0  0
  2  8  1  0  0  0  0
  3  9  1  0  0  0  0
  4  3  1  0  0  0  0
  5  4  2  0  0  0  0
  6  5  1  0  0  0  0
  6  1  2  0  0  0  0
  7  1  1  0  0  0  0
  9 12  1  0  0  0  0
 10 11  1  0  0  0  0
 10  9  1  0  0  0  0
 10 14  1  0  0  0  0
 11  9  1  0  0  0  0
 11 16  1  0  0  0  0
 13 10  1  0  0  0  0
 15 11  1  0  0  0  0
 17 18  1  0  0  0  0
 17  5  1  0  0  0  0
 19 18  1  0  0  0  0
 20 19  1  0  0  0  0
 21 20  1  0  0  0  0
 21 22  1  0  0  0  0
 22 17  1  0  0  0  0
M  END
>  <minimizedAffinity>
-4.60742474

$$$$

 OpenBabel03252505163D

 22 24  0  0  0  0  0  0  0  0999 V2000
   36.8330   26.2970   39.0340 C   0  0  0  0  0  0  0  0  0  0  0  0
   36.9570   25.9280   40.3850 C   0  0  0  0  0  0  0  0  0  0  0  0
   37.0660   26.9810   41.2830 C   0  0  0  0  0  0  0  0  0  0  0  0
   37.0500   28.2800   40.8360 N   0  0  0  0  0  0  0  0  0  0  0  0
   36.9260   28.5780   39.5140 C   0  0  0  0  0  0  0  0  0  0  0  0
   36.8190   27.5750   38.6240 N   0  0  0  0  0  0  0  0  0  0  0  0
   36.7440   25.5260   38.2790 H   0  0  0  0  0  0  0  0  0  0  0  0
   36.9680   24.9170   40.7050 H   0  0  0  0  0  0  0  0  0  0  0  0
   37.1810   26.7260   42.7590 C   0  0  0  0  0  0  0  0  0  0  0  0
   38.0530   27.7460   43.4590 C   0  0  0  0  0  0  0  0  0  0  0  0
   36.5210   27.6450   43.6780 C   0  0  0  0  0  0  0  0  0  0  0  0
   37.3430   25.6650   43.0170 H   0  0  0  0  0  0  0  0  0  0  0  0
   38.4330   28.6150   42.9030 H   0  0  0  0  0  0  0  0  0  0  0  0
   38.6890   27.3140   44.2520 H   0  0  0  0  0  0  0  0  0  0  0  0
   35.9830   28.5500   43.3610 H   0  0  0  0  0  0  0  0  0  0  0  0
   36.1900   27.3100   44.6990 H   0  0  0  0  0  0  0  0  0  0  0  0
   36.9310   30.0440   39.2580 C   0  0  0  0  0  3  0  0  0  0  0  0
   38.2350   30.5420   38.6910 C   0  0  0  0  0  2  0  0  0  0  0  0
   37.9190   31.8570   37.9680 C   0  0  0  0  0  2  0  0  0  0  0  0
   37.1340   32.7180   38.9010 C   0  0  0  0  0  2  0  0  0  0  0  0
   37.1780   32.2300   40.3430 C   0  0  0  0  0  2  0  0  0  0  0  0
   36.5830   30.8540   40.4820 C   0  0  0  0  0  2  0  0  0  0  0  0
  1  2  1  0  0  0  0
  2  8  1  0  0  0  0
  2  3  2  0  0  0  0
  3  9  1  0  0  0  0
  4  3  1  0  0  0  0
  5  4  2  0  0  0  0
  6  1  2  0  0  0  0
  6  5  1  0  0  0  0
  7  1  1  0  0  0  0
  9 12  1  0  0  0  0
  9 10  1  0  0  0  0
  9 11  1  0  0  0  0
 10 11  1  0  0  0  0
 10 14  1  0  0  0  0
 11 16  1  0  0  0  0
 13 10  1  0  0  0  0
 15 11  1  0  0  0  0
 17  5  1  0  0  0  0
 17 22  1  0  0  0  0
 18 17  1  0  0  0  0
 19 18  1  0  0  0  0
 19 20  1  0  0  0  0
 20 21  1  0  0  0  0
 21 22  1  0  0  0  0
M  END
>  <minimizedAffinity>
-4.57232332

$$$$

 OpenBabel03252505163D

 22 24  0  0  0  0  0  0  0  0999 V2000
   39.8700   26.1440   43.6800 C   0  0  0  0  0  0  0  0  0  0  0  0
   39.4660   24.9270   43.1050 C   0  0  0  0  0  0  0  0  0  0  0  0
   38.4050   25.0120   42.2130 C   0  0  0  0  0  0  0  0  0  0  0  0
   37.8210   26.2250   41.9410 N   0  0  0  0  0  0  0  0  0  0  0  0
   38.2560   27.3740   42.5290 C   0  0  0  0  0  0  0  0  0  0  0  0
   39.2820   27.3180   43.3960 N   0  0  0  0  0  0  0  0  0  0  0  0
   40.6920   26.1520   44.3850 H   0  0  0  0  0  0  0  0  0  0  0  0
   39.9330   24.0020   43.3300 H   0  0  0  0  0  0  0  0  0  0  0  0
   37.8900   23.7880   41.5100 C   0  0  0  0  0  0  0  0  0  0  0  0
   36.5410   24.0150   40.8610 C   0  0  0  0  0  0  0  0  0  0  0  0
   37.8460   23.7890   40.0520 C   0  0  0  0  0  0  0  0  0  0  0  0
   38.0200   22.8550   42.0850 H   0  0  0  0  0  0  0  0  0  0  0  0
   36.1030   25.0230   40.8490 H   0  0  0  0  0  0  0  0  0  0  0  0
   35.8610   23.1500   40.9410 H   0  0  0  0  0  0  0  0  0  0  0  0
   38.1190   24.6540   39.4300 H   0  0  0  0  0  0  0  0  0  0  0  0
   37.9040   22.8310   39.4670 H   0  0  0  0  0  0  0  0  0  0  0  0
   37.4810   28.5660   42.0890 C   0  0  0  0  0  3  0  0  0  0  0  0
   36.7980   28.3700   40.7600 C   0  0  0  0  0  2  0  0  0  0  0  0
   35.6360   29.3710   40.7190 C   0  0  0  0  0  2  0  0  0  0  0  0
   36.1730   30.7140   41.0920 C   0  0  0  0  0  2  0  0  0  0  0  0
   37.6940   30.7810   41.0560 C   0  0  0  0  0  2  0  0  0  0  0  0
   38.3160   29.8210   42.0360 C   0  0  0  0  0  2  0  0  0  0  0  0
  1  7  1  0  0  0  0
  2  8  1  0  0  0  0
  2  1  2  0  0  0  0
  3  2  1  0  0  0  0
  4  3  2  0  0  0  0
  4  5  1  0  0  0  0
  5  6  2  0  0  0  0
  6  1  1  0  0  0  0
  9 12  1  0  0  0  0
  9  3  1  0  0  0  0
 10 14  1  0  0  0  0
 10  9  1  0  0  0  0
 11 10  1  0  0  0  0
 11  9  1  0  0  0  0
 13 10  1  0  0  0  0
 15 11  1  0  0  0  0
 16 11  1  0  0  0  0
 17  5  1  0  0  0  0
 18 17  1  0  0  0  0
 19 18  1  0  0  0  0
 19 20  1  0  0  0  0
 21 20  1  0  0  0  0
 21 22  1  0  0  0  0
 22 17  1  0  0  0  0
M  END
>  <minimizedAffinity>
-4.56337261

$$$$

 OpenBabel03252505163D

 22 24  0  0  0  0  0  0  0  0999 V2000
   40.7320   31.3660   42.1320 C   0  0  0  0  0  0  0  0  0  0  0  0
   40.2220   32.1320   41.0700 C   0  0  0  0  0  0  0  0  0  0  0  0
   39.1130   31.5980   40.4280 C   0  0  0  0  0  0  0  0  0  0  0  0
   38.5840   30.3980   40.8370 N   0  0  0  0  0  0  0  0  0  0  0  0
   39.1210   29.6980   41.8740 C   0  0  0  0  0  0  0  0  0  0  0  0
   40.1950   30.1950   42.5120 N   0  0  0  0  0  0  0  0  0  0  0  0
   41.5970   31.7220   42.6780 H   0  0  0  0  0  0  0  0  0  0  0  0
   40.6480   33.0570   40.7730 H   0  0  0  0  0  0  0  0  0  0  0  0
   38.4540   32.3280   39.2920 C   0  0  0  0  0  0  0  0  0  0  0  0
   37.0700   31.7980   38.9850 C   0  0  0  0  0  0  0  0  0  0  0  0
   37.3280   33.2050   39.5870 C   0  0  0  0  0  0  0  0  0  0  0  0
   39.1230   32.5120   38.4330 H   0  0  0  0  0  0  0  0  0  0  0  0
   36.6170   31.0390   39.6390 H   0  0  0  0  0  0  0  0  0  0  0  0
   36.8390   31.7640   37.9060 H   0  0  0  0  0  0  0  0  0  0  0  0
   36.8910   33.3280   40.5890 H   0  0  0  0  0  0  0  0  0  0  0  0
   37.0790   34.0780   38.9240 H   0  0  0  0  0  0  0  0  0  0  0  0
   38.3900   28.4310   42.1440 C   0  0  0  0  0  3  0  0  0  0  0  0
   37.3670   28.1010   41.0870 C   0  0  0  0  0  2  0  0  0  0  0  0
   37.1340   26.5870   41.1670 C   0  0  0  0  0  2  0  0  0  0  0  0
   36.8710   26.2370   42.5950 C   0  0  0  0  0  2  0  0  0  0  0  0
   36.5660   27.4520   43.4610 C   0  0  0  0  0  2  0  0  0  0  0  0
   37.7240   28.4140   43.4970 C   0  0  0  0  0  2  0  0  0  0  0  0
  1  6  1  0  0  0  0
  1  7  1  0  0  0  0
  2  1  2  0  0  0  0
  3  4  2  0  0  0  0
  3  2  1  0  0  0  0
  4  5  1  0  0  0  0
  5 17  1  0  0  0  0
  5  6  2  0  0  0  0
  8  2  1  0  0  0  0
  9 11  1  0  0  0  0
  9  3  1  0  0  0  0
 10  9  1  0  0  0  0
 10 11  1  0  0  0  0
 10 13  1  0  0  0  0
 11 15  1  0  0  0  0
 12  9  1  0  0  0  0
 14 10  1  0  0  0  0
 16 11  1  0  0  0  0
 17 22  1  0  0  0  0
 18 19  1  0  0  0  0
 18 17  1  0  0  0  0
 19 20  1  0  0  0  0
 20 21  1  0  0  0  0
 21 22  1  0  0  0  0
M  END
>  <minimizedAffinity>
-4.53820992

$$$$

 OpenBabel03252505163D

 22 24  0  0  0  0  0  0  0  0999 V2000
   37.4340   32.9240   39.7840 C   0  0  0  0  0  0  0  0  0  0  0  0
   38.8010   33.2290   39.9050 C   0  0  0  0  0  0  0  0  0  0  0  0
   39.5480   32.3310   40.6540 C   0  0  0  0  0  0  0  0  0  0  0  0
   38.9500   31.2320   41.2210 N   0  0  0  0  0  0  0  0  0  0  0  0
   37.6200   30.9860   41.0700 C   0  0  0  0  0  0  0  0  0  0  0  0
   36.8740   31.8420   40.3480 N   0  0  0  0  0  0  0  0  0  0  0  0
   36.7900   33.5820   39.2130 H   0  0  0  0  0  0  0  0  0  0  0  0
   39.2390   34.0850   39.4570 H   0  0  0  0  0  0  0  0  0  0  0  0
   41.0260   32.5270   40.8410 C   0  0  0  0  0  0  0  0  0  0  0  0
   41.7410   32.8310   39.5410 C   0  0  0  0  0  0  0  0  0  0  0  0
   41.5760   33.8680   40.6840 C   0  0  0  0  0  0  0  0  0  0  0  0
   41.4940   31.7830   41.5080 H   0  0  0  0  0  0  0  0  0  0  0  0
   41.1600   32.9900   38.6220 H   0  0  0  0  0  0  0  0  0  0  0  0
   42.7310   32.3500   39.4590 H   0  0  0  0  0  0  0  0  0  0  0  0
   40.9830   34.7440   40.3840 H   0  0  0  0  0  0  0  0  0  0  0  0
   42.5210   34.1750   41.2110 H   0  0  0  0  0  0  0  0  0  0  0  0
   37.1880   29.7440   41.7660 C   0  0  0  0  0  3  0  0  0  0  0  0
   38.2660   29.1470   42.6340 C   0  0  0  0  0  2  0  0  0  0  0  0
   37.5520   28.2820   43.6790 C   0  0  0  0  0  2  0  0  0  0  0  0
   36.5920   27.3910   42.9610 C   0  0  0  0  0  2  0  0  0  0  0  0
   36.8390   27.3350   41.4590 C   0  0  0  0  0  2  0  0  0  0  0  0
   36.6750   28.6880   40.8190 C   0  0  0  0  0  2  0  0  0  0  0  0
  1  2  2  0  0  0  0
  1  6  1  0  0  0  0
  2  3  1  0  0  0  0
  3  9  1  0  0  0  0
  3  4  2  0  0  0  0
  5  4  1  0  0  0  0
  5 17  1  0  0  0  0
  6  5  2  0  0  0  0
  7  1  1  0  0  0  0
  8  2  1  0  0  0  0
  9 12  1  0  0  0  0
 10 11  1  0  0  0  0
 10  9  1  0  0  0  0
 11  9  1  0  0  0  0
 11 16  1  0  0  0  0
 13 10  1  0  0  0  0
 14 10  1  0  0  0  0
 15 11  1  0  0  0  0
 17 18  1  0  0  0  0
 18 19  1  0  0  0  0
 20 19  1  0  0  0  0
 21 20  1  0  0  0  0
 22 21  1  0  0  0  0
 22 17  1  0  0  0  0
M  END
>  <minimizedAffinity>
-4.52946615

$$$$

 OpenBabel03252505163D

 22 24  0  0  0  0  0  0  0  0999 V2000
   36.7190   29.5070   37.6060 C   0  0  0  0  0  0  0  0  0  0  0  0
   37.2620   30.8030   37.6370 C   0  0  0  0  0  0  0  0  0  0  0  0
   37.6230   31.2680   38.8940 C   0  0  0  0  0  0  0  0  0  0  0  0
   37.4430   30.4810   40.0050 N   0  0  0  0  0  0  0  0  0  0  0  0
   36.9120   29.2300   39.9140 C   0  0  0  0  0  0  0  0  0  0  0  0
   36.5540   28.7570   38.7070 N   0  0  0  0  0  0  0  0  0  0  0  0
   36.4140   29.0800   36.6580 H   0  0  0  0  0  0  0  0  0  0  0  0
   37.3910   31.3920   36.7640 H   0  0  0  0  0  0  0  0  0  0  0  0
   38.2380   32.6280   39.0640 C   0  0  0  0  0  0  0  0  0  0  0  0
   37.2340   33.6680   39.5120 C   0  0  0  0  0  0  0  0  0  0  0  0
   38.3900   33.1600   40.4130 C   0  0  0  0  0  0  0  0  0  0  0  0
   38.9250   32.9130   38.2480 H   0  0  0  0  0  0  0  0  0  0  0  0
   36.2110   33.3630   39.7750 H   0  0  0  0  0  0  0  0  0  0  0  0
   37.3800   34.6560   39.0410 H   0  0  0  0  0  0  0  0  0  0  0  0
   38.0330   32.6490   41.3190 H   0  0  0  0  0  0  0  0  0  0  0  0
   39.1910   33.9100   40.6570 H   0  0  0  0  0  0  0  0  0  0  0  0
   36.8100   28.5590   41.2380 C   0  0  0  0  0  3  0  0  0  0  0  0
   37.9380   28.9170   42.1720 C   0  0  0  0  0  2  0  0  0  0  0  0
   37.4250   28.6520   43.5920 C   0  0  0  0  0  2  0  0  0  0  0  0
   36.8380   27.2790   43.6220 C   0  0  0  0  0  2  0  0  0  0  0  0
   37.2180   26.4410   42.4080 C   0  0  0  0  0  2  0  0  0  0  0  0
   36.7160   27.0570   41.1290 C   0  0  0  0  0  2  0  0  0  0  0  0
  1  2  2  0  0  0  0
  1  6  1  0  0  0  0
  2  3  1  0  0  0  0
  3  9  1  0  0  0  0
  3  4  2  0  0  0  0
  5  4  1  0  0  0  0
  5 17  1  0  0  0  0
  6  5  2  0  0  0  0
  7  1  1  0  0  0  0
  8  2  1  0  0  0  0
  9 10  1  0  0  0  0
  9 11  1  0  0  0  0
 10 13  1  0  0  0  0
 10 11  1  0  0  0  0
 11 16  1  0  0  0  0
 11 15  1  0  0  0  0
 12  9  1  0  0  0  0
 14 10  1  0  0  0  0
 17 18  1  0  0  0  0
 18 19  1  0  0  0  0
 19 20  1  0  0  0  0
 21 20  1  0  0  0  0
 22 17  1  0  0  0  0
 22 21  1  0  0  0  0
M  END
>  <minimizedAffinity>
-4.52054024

$$$$

 OpenBabel03252505163D

 22 24  0  0  0  0  0  0  0  0999 V2000
   36.1940   28.2170   39.8090 C   0  0  0  0  0  0  0  0  0  0  0  0
   36.5870   27.4850   40.9430 C   0  0  0  0  0  0  0  0  0  0  0  0
   37.3100   28.1960   41.8910 C   0  0  0  0  0  0  0  0  0  0  0  0
   37.6000   29.5240   41.6920 N   0  0  0  0  0  0  0  0  0  0  0  0
   37.1920   30.1830   40.5730 C   0  0  0  0  0  0  0  0  0  0  0  0
   36.4900   29.5170   39.6400 N   0  0  0  0  0  0  0  0  0  0  0  0
   35.6270   27.7260   39.0280 H   0  0  0  0  0  0  0  0  0  0  0  0
   36.3510   26.4590   41.0730 H   0  0  0  0  0  0  0  0  0  0  0  0
   37.7700   27.5380   43.1610 C   0  0  0  0  0  0  0  0  0  0  0  0
   38.5250   26.2500   42.9070 C   0  0  0  0  0  0  0  0  0  0  0  0
   39.1960   27.5330   43.4660 C   0  0  0  0  0  0  0  0  0  0  0  0
   37.0070   27.5230   43.9580 H   0  0  0  0  0  0  0  0  0  0  0  0
   38.7700   25.9530   41.8780 H   0  0  0  0  0  0  0  0  0  0  0  0
   38.3040   25.4560   43.6420 H   0  0  0  0  0  0  0  0  0  0  0  0
   39.9690   27.9370   42.7960 H   0  0  0  0  0  0  0  0  0  0  0  0
   39.5650   27.4750   44.5260 H   0  0  0  0  0  0  0  0  0  0  0  0
   37.6140   31.6100   40.5690 C   0  0  0  0  0  3  0  0  0  0  0  0
   37.4200   32.2800   39.2330 C   0  0  0  0  0  2  0  0  0  0  0  0
   37.3350   33.7860   39.5110 C   0  0  0  0  0  2  0  0  0  0  0  0
   38.4950   34.1610   40.3740 C   0  0  0  0  0  2  0  0  0  0  0  0
   39.5700   33.0840   40.4290 C   0  0  0  0  0  2  0  0  0  0  0  0
   39.0420   31.8010   41.0150 C   0  0  0  0  0  2  0  0  0  0  0  0
  1  2  1  0  0  0  0
  2  8  1  0  0  0  0
  2  3  2  0  0  0  0
  3  9  1  0  0  0  0
  4  3  1  0  0  0  0
  5  4  2  0  0  0  0
  6  1  2  0  0  0  0
  6  5  1  0  0  0  0
  7  1  1  0  0  0  0
  9 11  1  0  0  0  0
  9 12  1  0  0  0  0
 10  9  1  0  0  0  0
 10 11  1  0  0  0  0
 10 14  1  0  0  0  0
 11 16  1  0  0  0  0
 13 10  1  0  0  0  0
 15 11  1  0  0  0  0
 17  5  1  0  0  0  0
 17 22  1  0  0  0  0
 18 19  1  0  0  0  0
 18 17  1  0  0  0  0
 19 20  1  0  0  0  0
 20 21  1  0  0  0  0
 21 22  1  0  0  0  0
M  END
>  <minimizedAffinity>
-4.50107574

$$$$

 OpenBabel03252505163D

 22 24  0  0  0  0  0  0  0  0999 V2000
   39.0680   29.3020   42.7960 C   0  0  0  0  0  0  0  0  0  0  0  0
   38.4320   30.3940   42.1800 C   0  0  0  0  0  0  0  0  0  0  0  0
   37.3900   30.0700   41.3210 C   0  0  0  0  0  0  0  0  0  0  0  0
   37.0410   28.7570   41.1160 N   0  0  0  0  0  0  0  0  0  0  0  0
   37.6940   27.7390   41.7420 C   0  0  0  0  0  0  0  0  0  0  0  0
   38.7060   28.0270   42.5790 N   0  0  0  0  0  0  0  0  0  0  0  0
   39.8900   29.4810   43.4780 H   0  0  0  0  0  0  0  0  0  0  0  0
   38.7200   31.3990   42.3540 H   0  0  0  0  0  0  0  0  0  0  0  0
   36.6100   31.1440   40.6170 C   0  0  0  0  0  0  0  0  0  0  0  0
   37.4600   32.3480   40.2720 C   0  0  0  0  0  0  0  0  0  0  0  0
   36.8760   31.3850   39.2050 C   0  0  0  0  0  0  0  0  0  0  0  0
   35.6190   31.3400   41.0630 H   0  0  0  0  0  0  0  0  0  0  0  0
   38.5460   32.3190   40.4450 H   0  0  0  0  0  0  0  0  0  0  0  0
   36.9360   33.3110   40.4000 H   0  0  0  0  0  0  0  0  0  0  0  0
   37.6540   30.8640   38.6280 H   0  0  0  0  0  0  0  0  0  0  0  0
   36.0880   31.8180   38.5290 H   0  0  0  0  0  0  0  0  0  0  0  0
   37.1490   26.4040   41.3750 C   0  0  0  0  0  3  0  0  0  0  0  0
   38.1370   25.2850   41.5800 C   0  0  0  0  0  2  0  0  0  0  0  0
   37.3120   24.0000   41.7260 C   0  0  0  0  0  2  0  0  0  0  0  0
   36.3440   23.9430   40.5910 C   0  0  0  0  0  2  0  0  0  0  0  0
   36.6740   24.9260   39.4750 C   0  0  0  0  0  2  0  0  0  0  0  0
   36.6290   26.3510   39.9600 C   0  0  0  0  0  2  0  0  0  0  0  0
  1  7  1  0  0  0  0
  2  8  1  0  0  0  0
  2  1  2  0  0  0  0
  3  2  1  0  0  0  0
  4  3  2  0  0  0  0
  4  5  1  0  0  0  0
  5  6  2  0  0  0  0
  6  1  1  0  0  0  0
  9 12  1  0  0  0  0
  9  3  1  0  0  0  0
 10 14  1  0  0  0  0
 10 13  1  0  0  0  0
 10  9  1  0  0  0  0
 11 10  1  0  0  0  0
 11  9  1  0  0  0  0
 15 11  1  0  0  0  0
 16 11  1  0  0  0  0
 17 18  1  0  0  0  0
 17  5  1  0  0  0  0
 18 19  1  0  0  0  0
 20 19  1  0  0  0  0
 21 22  1  0  0  0  0
 21 20  1  0  0  0  0
 22 17  1  0  0  0  0
M  END
>  <minimizedAffinity>
-4.47620583

$$$$
