
 OpenBabel03242513323D

 34 37  0  0  0  0  0  0  0  0999 V2000
   38.9040   31.2560   41.6550 C   0  0  0  0  0  0  0  0  0  0  0  0
   38.3820   32.1510   40.7430 C   0  0  0  0  0  0  0  0  0  0  0  0
   37.1270   31.9090   40.2920 C   0  0  0  0  0  0  0  0  0  0  0  0
   36.3900   30.8180   40.7150 C   0  0  0  0  0  0  0  0  0  0  0  0
   36.9200   29.9360   41.6210 C   0  0  0  0  0  0  0  0  0  0  0  0
   38.2130   30.1450   42.1150 C   0  0  0  0  0  0  0  0  0  0  0  0
   36.6970   32.5950   39.5790 H   0  0  0  0  0  0  0  0  0  0  0  0
   35.3920   30.6740   40.3230 H   0  0  0  0  0  0  0  0  0  0  0  0
   36.3880   29.0690   41.9850 H   0  0  0  0  0  0  0  0  0  0  0  0
   39.6440   35.6560   40.1170 C   0  0  0  0  0  0  0  0  0  0  0  0
   38.8380   34.5870   40.5140 C   0  0  0  0  0  0  0  0  0  0  0  0
   39.2010   33.2710   40.3390 C   0  0  0  0  0  0  0  0  0  0  0  0
   40.4140   33.0930   39.7460 N   0  0  0  0  0  0  0  0  0  0  0  0
   41.2140   34.1070   39.3510 C   0  0  0  0  0  0  0  0  0  0  0  0
   40.8240   35.3910   39.5390 N   0  0  0  0  0  0  0  0  0  0  0  0
   39.3220   36.6680   40.2730 H   0  0  0  0  0  0  0  0  0  0  0  0
   37.8940   34.7930   40.9760 H   0  0  0  0  0  0  0  0  0  0  0  0
   42.1400   33.7690   38.8980 H   0  0  0  0  0  0  0  0  0  0  0  0
   40.1960   31.4570   42.1540 O   0  0  0  0  0  0  0  0  0  0  0  0
   40.9410   31.0250   41.6010 H   0  0  0  0  0  0  0  0  0  0  0  0
   38.8080   29.3070   43.0210 O   0  0  0  0  0  0  0  0  0  0  0  0
   38.9930   27.9870   42.8620 C   0  0  0  0  0  0  0  0  0  0  0  0
   39.4700   27.0480   43.7510 C   0  0  0  0  0  0  0  0  0  0  0  0
   39.5760   25.7540   43.3760 C   0  0  0  0  0  0  0  0  0  0  0  0
   39.1780   25.4320   42.0510 C   0  0  0  0  0  0  0  0  0  0  0  0
   38.6530   27.0290   41.3680 S   0  0  0  0  0  0  0  0  0  0  0  0
   39.7610   27.3380   44.7510 H   0  0  0  0  0  0  0  0  0  0  0  0
   39.9140   24.9060   43.9110 H   0  0  0  0  0  0  0  0  0  0  0  0
   39.1040   24.2290   41.1990 C   0  0  0  0  0  3  0  0  0  0  0  0
   39.5670   24.5590   39.7970 C   0  0  0  0  0  2  0  0  0  0  0  0
   39.5730   23.2590   38.9910 C   0  0  0  0  0  2  0  0  0  0  0  0
   38.1450   22.7270   38.9460 C   0  0  0  0  0  2  0  0  0  0  0  0
   37.7720   22.3630   40.3460 C   0  0  0  0  0  2  0  0  0  0  0  0
   37.7130   23.6020   41.1840 C   0  0  0  0  0  2  0  0  0  0  0  0
  1  6  1  0  0  0  0
  1 19  1  0  0  0  0
  2  1  2  0  0  0  0
  3  4  2  0  0  0  0
  3  2  1  0  0  0  0
  4  5  1  0  0  0  0
  5  9  1  0  0  0  0
  5  6  2  0  0  0  0
  6 21  1  0  0  0  0
  7  3  1  0  0  0  0
  8  4  1  0  0  0  0
 10 16  1  0  0  0  0
 10 11  1  0  0  0  0
 11 17  1  0  0  0  0
 12 11  2  0  0  0  0
 12  2  1  0  0  0  0
 13 12  1  0  0  0  0
 14 15  1  0  0  0  0
 14 13  2  0  0  0  0
 15 10  2  0  0  0  0
 18 14  1  0  0  0  0
 20 19  1  0  0  0  0
 22 21  1  0  0  0  0
 22 23  2  0  0  0  0
 23 27  1  0  0  0  0
 24 23  1  0  0  0  0
 24 28  1  0  0  0  0
 25 24  2  0  0  0  0
 26 25  1  0  0  0  0
 26 22  1  0  0  0  0
 29 25  1  0  0  0  0
 30 29  1  0  0  0  0
 31 30  1  0  0  0  0
 32 31  1  0  0  0  0
 32 33  1  0  0  0  0
 33 34  1  0  0  0  0
 34 29  1  0  0  0  0
M  END
>  <minimizedAffinity>
-6.48843956

$$$$

 OpenBabel03242513323D

 34 37  0  0  0  0  0  0  0  0999 V2000
   40.5980   33.4880   39.4460 C   0  0  0  0  0  0  0  0  0  0  0  0
   41.5470   34.4050   39.8500 C   0  0  0  0  0  0  0  0  0  0  0  0
   41.1080   35.4770   40.5520 C   0  0  0  0  0  0  0  0  0  0  0  0
   39.7720   35.6610   40.8590 C   0  0  0  0  0  0  0  0  0  0  0  0
   38.8380   34.7430   40.4510 C   0  0  0  0  0  0  0  0  0  0  0  0
   39.2450   33.6190   39.7230 C   0  0  0  0  0  0  0  0  0  0  0  0
   41.8320   36.2080   40.8790 H   0  0  0  0  0  0  0  0  0  0  0  0
   39.4770   36.5350   41.4220 H   0  0  0  0  0  0  0  0  0  0  0  0
   37.7830   34.8370   40.6630 H   0  0  0  0  0  0  0  0  0  0  0  0
   45.2830   33.8890   40.0540 C   0  0  0  0  0  0  0  0  0  0  0  0
   43.9560   34.1290   40.4140 C   0  0  0  0  0  0  0  0  0  0  0  0
   42.9280   34.1590   39.4990 C   0  0  0  0  0  0  0  0  0  0  0  0
   43.3100   33.9350   38.2120 N   0  0  0  0  0  0  0  0  0  0  0  0
   44.5850   33.7000   37.8350 C   0  0  0  0  0  0  0  0  0  0  0  0
   45.5730   33.6780   38.7630 N   0  0  0  0  0  0  0  0  0  0  0  0
   46.0550   33.8740   40.8010 H   0  0  0  0  0  0  0  0  0  0  0  0
   43.7190   34.2980   41.4440 H   0  0  0  0  0  0  0  0  0  0  0  0
   44.6930   33.5450   36.7670 H   0  0  0  0  0  0  0  0  0  0  0  0
   40.9950   32.3610   38.7170 O   0  0  0  0  0  0  0  0  0  0  0  0
   41.0140   32.4920   37.7030 H   0  0  0  0  0  0  0  0  0  0  0  0
   38.3700   32.6610   39.2830 O   0  0  0  0  0  0  0  0  0  0  0  0
   37.8520   31.6720   40.0260 C   0  0  0  0  0  0  0  0  0  0  0  0
   36.5560   31.4700   40.4510 C   0  0  0  0  0  0  0  0  0  0  0  0
   36.2500   30.3900   41.2030 C   0  0  0  0  0  0  0  0  0  0  0  0
   37.3150   29.5020   41.5180 C   0  0  0  0  0  0  0  0  0  0  0  0
   38.7510   30.2610   40.7100 S   0  0  0  0  0  0  0  0  0  0  0  0
   35.7780   32.1720   40.1860 H   0  0  0  0  0  0  0  0  0  0  0  0
   35.3290   30.0720   41.6140 H   0  0  0  0  0  0  0  0  0  0  0  0
   37.4960   28.2450   42.2700 C   0  0  0  0  0  3  0  0  0  0  0  0
   38.9240   28.1360   42.7590 C   0  0  0  0  0  2  0  0  0  0  0  0
   39.0270   26.8760   43.6190 C   0  0  0  0  0  2  0  0  0  0  0  0
   38.6960   25.6770   42.7370 C   0  0  0  0  0  2  0  0  0  0  0  0
   37.2620   25.8110   42.3410 C   0  0  0  0  0  2  0  0  0  0  0  0
   37.0980   27.0130   41.4640 C   0  0  0  0  0  2  0  0  0  0  0  0
  1  6  2  0  0  0  0
  1  2  1  0  0  0  0
  2  3  2  0  0  0  0
  3  4  1  0  0  0  0
  3  7  1  0  0  0  0
  4  8  1  0  0  0  0
  5  9  1  0  0  0  0
  5  4  2  0  0  0  0
  6  5  1  0  0  0  0
 10 11  1  0  0  0  0
 10 16  1  0  0  0  0
 11 17  1  0  0  0  0
 12  2  1  0  0  0  0
 12 11  2  0  0  0  0
 13 12  1  0  0  0  0
 14 13  2  0  0  0  0
 14 15  1  0  0  0  0
 15 10  2  0  0  0  0
 18 14  1  0  0  0  0
 19  1  1  0  0  0  0
 20 19  1  0  0  0  0
 21  6  1  0  0  0  0
 21 22  1  0  0  0  0
 22 23  2  0  0  0  0
 22 26  1  0  0  0  0
 23 24  1  0  0  0  0
 24 25  2  0  0  0  0
 24 28  1  0  0  0  0
 25 29  1  0  0  0  0
 26 25  1  0  0  0  0
 27 23  1  0  0  0  0
 29 30  1  0  0  0  0
 30 31  1  0  0  0  0
 32 31  1  0  0  0  0
 33 32  1  0  0  0  0
 34 29  1  0  0  0  0
 34 33  1  0  0  0  0
M  END
>  <minimizedAffinity>
-6.2964654

$$$$

 OpenBabel03242513323D

 34 37  0  0  0  0  0  0  0  0999 V2000
   37.6240   26.8330   41.6040 C   0  0  0  0  0  0  0  0  0  0  0  0
   38.3940   25.6900   41.6740 C   0  0  0  0  0  0  0  0  0  0  0  0
   39.3160   25.6300   42.6650 C   0  0  0  0  0  0  0  0  0  0  0  0
   39.4920   26.6580   43.5730 C   0  0  0  0  0  0  0  0  0  0  0  0
   38.7210   27.7890   43.4920 C   0  0  0  0  0  0  0  0  0  0  0  0
   37.7540   27.8970   42.4850 C   0  0  0  0  0  0  0  0  0  0  0  0
   39.9290   24.7450   42.7410 H   0  0  0  0  0  0  0  0  0  0  0  0
   40.2430   26.5560   44.3440 H   0  0  0  0  0  0  0  0  0  0  0  0
   38.8160   28.6210   44.1740 H   0  0  0  0  0  0  0  0  0  0  0  0
   37.6960   22.3460   40.0630 C   0  0  0  0  0  0  0  0  0  0  0  0
   37.9160   23.3360   41.0230 C   0  0  0  0  0  0  0  0  0  0  0  0
   38.1640   24.6500   40.6970 C   0  0  0  0  0  0  0  0  0  0  0  0
   38.1770   24.9090   39.3610 N   0  0  0  0  0  0  0  0  0  0  0  0
   37.9680   23.9720   38.4110 C   0  0  0  0  0  0  0  0  0  0  0  0
   37.7270   22.6870   38.7680 N   0  0  0  0  0  0  0  0  0  0  0  0
   37.5060   21.3320   40.3620 H   0  0  0  0  0  0  0  0  0  0  0  0
   37.8920   23.0690   42.0590 H   0  0  0  0  0  0  0  0  0  0  0  0
   38.0170   24.3680   37.4020 H   0  0  0  0  0  0  0  0  0  0  0  0
   36.6550   26.9510   40.6000 O   0  0  0  0  0  0  0  0  0  0  0  0
   36.9930   27.3610   39.7260 H   0  0  0  0  0  0  0  0  0  0  0  0
   36.9490   28.9960   42.3420 O   0  0  0  0  0  0  0  0  0  0  0  0
   37.2370   30.0900   41.6200 C   0  0  0  0  0  0  0  0  0  0  0  0
   36.4510   30.7990   40.7370 C   0  0  0  0  0  0  0  0  0  0  0  0
   36.9500   31.8860   40.1090 C   0  0  0  0  0  0  0  0  0  0  0  0
   38.2930   32.2420   40.4080 C   0  0  0  0  0  0  0  0  0  0  0  0
   38.8100   30.9790   41.6030 S   0  0  0  0  0  0  0  0  0  0  0  0
   35.4330   30.4910   40.5410 H   0  0  0  0  0  0  0  0  0  0  0  0
   36.5060   32.5460   39.4110 H   0  0  0  0  0  0  0  0  0  0  0  0
   39.2550   33.2890   40.0090 C   0  0  0  0  0  3  0  0  0  0  0  0
   40.6410   32.9300   40.4980 C   0  0  0  0  0  2  0  0  0  0  0  0
   41.6100   33.9870   39.9670 C   0  0  0  0  0  2  0  0  0  0  0  0
   41.1970   35.3360   40.5450 C   0  0  0  0  0  2  0  0  0  0  0  0
   39.8550   35.6600   39.9770 C   0  0  0  0  0  2  0  0  0  0  0  0
   38.8470   34.6790   40.4890 C   0  0  0  0  0  2  0  0  0  0  0  0
  1  2  2  0  0  0  0
  1  6  1  0  0  0  0
  2  3  1  0  0  0  0
  3  7  1  0  0  0  0
  3  4  2  0  0  0  0
  4  8  1  0  0  0  0
  5  4  1  0  0  0  0
  5  9  1  0  0  0  0
  6  5  2  0  0  0  0
 10 16  1  0  0  0  0
 10 11  1  0  0  0  0
 11 17  1  0  0  0  0
 12 11  2  0  0  0  0
 12  2  1  0  0  0  0
 13 12  1  0  0  0  0
 14 15  1  0  0  0  0
 14 13  2  0  0  0  0
 15 10  2  0  0  0  0
 18 14  1  0  0  0  0
 19  1  1  0  0  0  0
 20 19  1  0  0  0  0
 21  6  1  0  0  0  0
 22 21  1  0  0  0  0
 23 22  2  0  0  0  0
 24 25  2  0  0  0  0
 24 23  1  0  0  0  0
 25 26  1  0  0  0  0
 26 22  1  0  0  0  0
 27 23  1  0  0  0  0
 28 24  1  0  0  0  0
 29 25  1  0  0  0  0
 29 34  1  0  0  0  0
 29 30  1  0  0  0  0
 31 30  1  0  0  0  0
 31 32  1  0  0  0  0
 33 34  1  0  0  0  0
 33 32  1  0  0  0  0
M  END
>  <minimizedAffinity>
-6.26821613

$$$$

 OpenBabel03242513323D

 34 37  0  0  0  0  0  0  0  0999 V2000
   38.7730   31.4750   41.3560 C   0  0  0  0  0  0  0  0  0  0  0  0
   38.6770   32.4370   40.3710 C   0  0  0  0  0  0  0  0  0  0  0  0
   37.5690   32.4130   39.5920 C   0  0  0  0  0  0  0  0  0  0  0  0
   36.5690   31.4730   39.7620 C   0  0  0  0  0  0  0  0  0  0  0  0
   36.6750   30.5220   40.7440 C   0  0  0  0  0  0  0  0  0  0  0  0
   37.8030   30.5070   41.5740 C   0  0  0  0  0  0  0  0  0  0  0  0
   37.4720   33.1550   38.8160 H   0  0  0  0  0  0  0  0  0  0  0  0
   35.7050   31.5010   39.1120 H   0  0  0  0  0  0  0  0  0  0  0  0
   35.9250   29.7650   40.9200 H   0  0  0  0  0  0  0  0  0  0  0  0
   40.6230   35.6610   40.0790 C   0  0  0  0  0  0  0  0  0  0  0  0
   39.5680   34.7550   40.2040 C   0  0  0  0  0  0  0  0  0  0  0  0
   39.7550   33.3920   40.2420 C   0  0  0  0  0  0  0  0  0  0  0  0
   41.0540   32.9960   40.1490 N   0  0  0  0  0  0  0  0  0  0  0  0
   42.0940   33.8490   40.0270 C   0  0  0  0  0  0  0  0  0  0  0  0
   41.8730   35.1860   39.9920 N   0  0  0  0  0  0  0  0  0  0  0  0
   40.4330   36.7180   40.0540 H   0  0  0  0  0  0  0  0  0  0  0  0
   38.5680   35.1290   40.2740 H   0  0  0  0  0  0  0  0  0  0  0  0
   43.0540   33.3470   39.9660 H   0  0  0  0  0  0  0  0  0  0  0  0
   39.8970   31.4520   42.1900 O   0  0  0  0  0  0  0  0  0  0  0  0
   40.6770   30.8900   41.8410 H   0  0  0  0  0  0  0  0  0  0  0  0
   37.9780   29.5880   42.5740 O   0  0  0  0  0  0  0  0  0  0  0  0
   37.5910   28.3030   42.5350 C   0  0  0  0  0  0  0  0  0  0  0  0
   36.8520   27.5740   43.4410 C   0  0  0  0  0  0  0  0  0  0  0  0
   36.5740   26.2740   43.1980 C   0  0  0  0  0  0  0  0  0  0  0  0
   37.0750   25.7240   41.9870 C   0  0  0  0  0  0  0  0  0  0  0  0
   37.9480   27.1170   41.2190 S   0  0  0  0  0  0  0  0  0  0  0  0
   36.4910   28.0350   44.3500 H   0  0  0  0  0  0  0  0  0  0  0  0
   36.0310   25.5660   43.7650 H   0  0  0  0  0  0  0  0  0  0  0  0
   37.0480   24.4220   41.2910 C   0  0  0  0  0  3  0  0  0  0  0  0
   38.4590   23.9010   41.1170 C   0  0  0  0  0  2  0  0  0  0  0  0
   38.3660   22.5090   40.4920 C   0  0  0  0  0  2  0  0  0  0  0  0
   37.7000   22.6480   39.1280 C   0  0  0  0  0  2  0  0  0  0  0  0
   36.2980   23.1030   39.3730 C   0  0  0  0  0  2  0  0  0  0  0  0
   36.3170   24.4820   39.9540 C   0  0  0  0  0  2  0  0  0  0  0  0
  1  6  1  0  0  0  0
  1 19  1  0  0  0  0
  2  1  2  0  0  0  0
  3  4  2  0  0  0  0
  3  2  1  0  0  0  0
  4  5  1  0  0  0  0
  5  9  1  0  0  0  0
  5  6  2  0  0  0  0
  6 21  1  0  0  0  0
  7  3  1  0  0  0  0
  8  4  1  0  0  0  0
 10 11  1  0  0  0  0
 11 12  2  0  0  0  0
 11 17  1  0  0  0  0
 12  2  1  0  0  0  0
 13 12  1  0  0  0  0
 14 13  2  0  0  0  0
 15 14  1  0  0  0  0
 15 10  2  0  0  0  0
 16 10  1  0  0  0  0
 18 14  1  0  0  0  0
 20 19  1  0  0  0  0
 22 21  1  0  0  0  0
 22 23  2  0  0  0  0
 23 27  1  0  0  0  0
 24 23  1  0  0  0  0
 24 28  1  0  0  0  0
 25 24  2  0  0  0  0
 26 25  1  0  0  0  0
 26 22  1  0  0  0  0
 29 25  1  0  0  0  0
 30 29  1  0  0  0  0
 31 30  1  0  0  0  0
 32 33  1  0  0  0  0
 32 31  1  0  0  0  0
 33 34  1  0  0  0  0
 34 29  1  0  0  0  0
M  END
>  <minimizedAffinity>
-6.12477303

$$$$

 OpenBabel03242513323D

 34 37  0  0  0  0  0  0  0  0999 V2000
   39.8240   32.7960   40.2620 C   0  0  0  0  0  0  0  0  0  0  0  0
   41.0660   33.1360   39.7670 C   0  0  0  0  0  0  0  0  0  0  0  0
   41.3090   32.8500   38.4650 C   0  0  0  0  0  0  0  0  0  0  0  0
   40.3670   32.2440   37.6550 C   0  0  0  0  0  0  0  0  0  0  0  0
   39.1360   31.9100   38.1590 C   0  0  0  0  0  0  0  0  0  0  0  0
   38.8390   32.1870   39.4990 C   0  0  0  0  0  0  0  0  0  0  0  0
   42.2730   33.1070   38.0550 H   0  0  0  0  0  0  0  0  0  0  0  0
   40.6150   32.0390   36.6220 H   0  0  0  0  0  0  0  0  0  0  0  0
   38.3640   31.4360   37.5710 H   0  0  0  0  0  0  0  0  0  0  0  0
   44.0590   33.7870   41.9770 C   0  0  0  0  0  0  0  0  0  0  0  0
   43.1610   33.1610   41.1110 C   0  0  0  0  0  0  0  0  0  0  0  0
   42.0090   33.7670   40.6630 C   0  0  0  0  0  0  0  0  0  0  0  0
   41.8150   35.0300   41.1320 N   0  0  0  0  0  0  0  0  0  0  0  0
   42.6670   35.6600   41.9700 C   0  0  0  0  0  0  0  0  0  0  0  0
   43.7910   35.0330   42.3920 N   0  0  0  0  0  0  0  0  0  0  0  0
   44.9470   33.2780   42.3020 H   0  0  0  0  0  0  0  0  0  0  0  0
   43.3700   32.1660   40.7770 H   0  0  0  0  0  0  0  0  0  0  0  0
   42.3430   36.6620   42.2340 H   0  0  0  0  0  0  0  0  0  0  0  0
   39.5170   33.0670   41.6010 O   0  0  0  0  0  0  0  0  0  0  0  0
   39.7640   32.3220   42.2560 H   0  0  0  0  0  0  0  0  0  0  0  0
   37.6320   31.8810   40.0710 O   0  0  0  0  0  0  0  0  0  0  0  0
   37.2630   30.6730   40.5240 C   0  0  0  0  0  0  0  0  0  0  0  0
   36.0100   30.1060   40.6130 C   0  0  0  0  0  0  0  0  0  0  0  0
   35.8650   28.8580   41.1080 C   0  0  0  0  0  0  0  0  0  0  0  0
   37.0480   28.1860   41.5190 C   0  0  0  0  0  0  0  0  0  0  0  0
   38.3590   29.3920   41.1750 S   0  0  0  0  0  0  0  0  0  0  0  0
   35.1370   30.6550   40.2870 H   0  0  0  0  0  0  0  0  0  0  0  0
   34.9990   28.2670   41.2500 H   0  0  0  0  0  0  0  0  0  0  0  0
   37.4100   26.8770   42.0970 C   0  0  0  0  0  3  0  0  0  0  0  0
   38.8980   26.8280   42.3710 C   0  0  0  0  0  2  0  0  0  0  0  0
   39.1990   25.4990   43.0660 C   0  0  0  0  0  2  0  0  0  0  0  0
   38.8170   24.3720   42.1120 C   0  0  0  0  0  2  0  0  0  0  0  0
   37.3350   24.4380   41.9340 C   0  0  0  0  0  2  0  0  0  0  0  0
   36.9750   25.7050   41.2240 C   0  0  0  0  0  2  0  0  0  0  0  0
  1 19  1  0  0  0  0
  2  1  1  0  0  0  0
  2 12  1  0  0  0  0
  3  2  2  0  0  0  0
  4  5  2  0  0  0  0
  4  3  1  0  0  0  0
  5  6  1  0  0  0  0
  6 21  1  0  0  0  0
  6  1  2  0  0  0  0
  7  3  1  0  0  0  0
  8  4  1  0  0  0  0
  9  5  1  0  0  0  0
 10 16  1  0  0  0  0
 10 15  1  0  0  0  0
 11 10  2  0  0  0  0
 12 11  1  0  0  0  0
 12 13  2  0  0  0  0
 13 14  1  0  0  0  0
 14 18  1  0  0  0  0
 14 15  2  0  0  0  0
 17 11  1  0  0  0  0
 19 20  1  0  0  0  0
 21 22  1  0  0  0  0
 22 23  2  0  0  0  0
 22 26  1  0  0  0  0
 23 24  1  0  0  0  0
 24 28  1  0  0  0  0
 24 25  2  0  0  0  0
 25 29  1  0  0  0  0
 26 25  1  0  0  0  0
 27 23  1  0  0  0  0
 29 30  1  0  0  0  0
 30 31  1  0  0  0  0
 32 31  1  0  0  0  0
 33 32  1  0  0  0  0
 34 33  1  0  0  0  0
 34 29  1  0  0  0  0
M  END
>  <minimizedAffinity>
-6.09659576

$$$$

 OpenBabel03242513323D

 34 37  0  0  0  0  0  0  0  0999 V2000
   40.7630   33.3250   40.4250 C   0  0  0  0  0  0  0  0  0  0  0  0
   41.4690   34.4070   39.9390 C   0  0  0  0  0  0  0  0  0  0  0  0
   40.7780   35.5560   39.7430 C   0  0  0  0  0  0  0  0  0  0  0  0
   39.4250   35.6570   40.0120 C   0  0  0  0  0  0  0  0  0  0  0  0
   38.7340   34.5750   40.4940 C   0  0  0  0  0  0  0  0  0  0  0  0
   39.4060   33.3670   40.7130 C   0  0  0  0  0  0  0  0  0  0  0  0
   41.3080   36.4150   39.3650 H   0  0  0  0  0  0  0  0  0  0  0  0
   38.9230   36.5990   39.8370 H   0  0  0  0  0  0  0  0  0  0  0  0
   37.6780   34.5990   40.7210 H   0  0  0  0  0  0  0  0  0  0  0  0
   44.7770   33.9140   38.1840 C   0  0  0  0  0  0  0  0  0  0  0  0
   43.4100   34.0750   38.4170 C   0  0  0  0  0  0  0  0  0  0  0  0
   42.8810   34.2390   39.6770 C   0  0  0  0  0  0  0  0  0  0  0  0
   43.7990   34.2330   40.6820 N   0  0  0  0  0  0  0  0  0  0  0  0
   45.1260   34.0790   40.4860 C   0  0  0  0  0  0  0  0  0  0  0  0
   45.6130   33.9190   39.2320 N   0  0  0  0  0  0  0  0  0  0  0  0
   45.1480   33.7890   37.1840 H   0  0  0  0  0  0  0  0  0  0  0  0
   42.7370   34.0710   37.5840 H   0  0  0  0  0  0  0  0  0  0  0  0
   45.6990   34.1010   41.4080 H   0  0  0  0  0  0  0  0  0  0  0  0
   41.4260   32.1130   40.6470 O   0  0  0  0  0  0  0  0  0  0  0  0
   41.4490   31.4840   39.8400 H   0  0  0  0  0  0  0  0  0  0  0  0
   38.7820   32.2450   41.1910 O   0  0  0  0  0  0  0  0  0  0  0  0
   37.8890   31.5000   40.5230 C   0  0  0  0  0  0  0  0  0  0  0  0
   36.6380   31.0640   40.9040 C   0  0  0  0  0  0  0  0  0  0  0  0
   35.8970   30.3120   40.0610 C   0  0  0  0  0  0  0  0  0  0  0  0
   36.4680   30.0100   38.7960 C   0  0  0  0  0  0  0  0  0  0  0  0
   38.0860   30.8290   38.8560 S   0  0  0  0  0  0  0  0  0  0  0  0
   36.2430   31.3190   41.8780 H   0  0  0  0  0  0  0  0  0  0  0  0
   34.9320   29.8940   40.1760 H   0  0  0  0  0  0  0  0  0  0  0  0
   36.0870   29.2640   37.5800 C   0  0  0  0  0  3  0  0  0  0  0  0
   36.7210   29.9010   36.3630 C   0  0  0  0  0  2  0  0  0  0  0  0
   36.3830   29.0300   35.1530 C   0  0  0  0  0  2  0  0  0  0  0  0
   34.8670   29.0160   34.9910 C   0  0  0  0  0  2  0  0  0  0  0  0
   34.3090   28.3210   36.1900 C   0  0  0  0  0  2  0  0  0  0  0  0
   34.5750   29.1440   37.4110 C   0  0  0  0  0  2  0  0  0  0  0  0
  1 19  1  0  0  0  0
  1  6  1  0  0  0  0
  2  1  2  0  0  0  0
  3  2  1  0  0  0  0
  3  4  2  0  0  0  0
  4  5  1  0  0  0  0
  5  6  2  0  0  0  0
  5  9  1  0  0  0  0
  6 21  1  0  0  0  0
  7  3  1  0  0  0  0
  8  4  1  0  0  0  0
 10 11  2  0  0  0  0
 10 15  1  0  0  0  0
 11 12  1  0  0  0  0
 12  2  1  0  0  0  0
 12 13  2  0  0  0  0
 14 13  1  0  0  0  0
 14 18  1  0  0  0  0
 15 14  2  0  0  0  0
 16 10  1  0  0  0  0
 17 11  1  0  0  0  0
 20 19  1  0  0  0  0
 22 23  2  0  0  0  0
 22 21  1  0  0  0  0
 23 27  1  0  0  0  0
 24 28  1  0  0  0  0
 24 23  1  0  0  0  0
 25 26  1  0  0  0  0
 25 24  2  0  0  0  0
 26 22  1  0  0  0  0
 29 25  1  0  0  0  0
 30 29  1  0  0  0  0
 31 30  1  0  0  0  0
 32 31  1  0  0  0  0
 32 33  1  0  0  0  0
 33 34  1  0  0  0  0
 34 29  1  0  0  0  0
M  END
>  <minimizedAffinity>
-5.96760607

$$$$

 OpenBabel03242513323D

 34 37  0  0  0  0  0  0  0  0999 V2000
   36.9670   27.4280   41.2150 C   0  0  0  0  0  0  0  0  0  0  0  0
   37.3790   26.3100   41.9110 C   0  0  0  0  0  0  0  0  0  0  0  0
   37.7630   26.4930   43.1970 C   0  0  0  0  0  0  0  0  0  0  0  0
   37.7470   27.7370   43.8020 C   0  0  0  0  0  0  0  0  0  0  0  0
   37.3360   28.8400   43.1000 C   0  0  0  0  0  0  0  0  0  0  0  0
   36.9310   28.7000   41.7670 C   0  0  0  0  0  0  0  0  0  0  0  0
   38.0880   25.6330   43.7620 H   0  0  0  0  0  0  0  0  0  0  0  0
   38.0640   27.8240   44.8330 H   0  0  0  0  0  0  0  0  0  0  0  0
   37.3050   29.8330   43.5230 H   0  0  0  0  0  0  0  0  0  0  0  0
   38.4250   22.9560   40.5230 C   0  0  0  0  0  0  0  0  0  0  0  0
   38.4510   24.1810   41.1920 C   0  0  0  0  0  0  0  0  0  0  0  0
   37.3730   25.0380   41.2240 C   0  0  0  0  0  0  0  0  0  0  0  0
   36.2770   24.5940   40.5510 N   0  0  0  0  0  0  0  0  0  0  0  0
   36.2240   23.4140   39.8950 C   0  0  0  0  0  0  0  0  0  0  0  0
   37.3040   22.5960   39.8840 N   0  0  0  0  0  0  0  0  0  0  0  0
   39.2880   22.3180   40.5240 H   0  0  0  0  0  0  0  0  0  0  0  0
   39.3440   24.4750   41.7050 H   0  0  0  0  0  0  0  0  0  0  0  0
   35.2660   23.2340   39.4180 H   0  0  0  0  0  0  0  0  0  0  0  0
   36.5600   27.3000   39.8820 O   0  0  0  0  0  0  0  0  0  0  0  0
   37.3120   27.3910   39.1940 H   0  0  0  0  0  0  0  0  0  0  0  0
   36.5080   29.7570   41.0040 O   0  0  0  0  0  0  0  0  0  0  0  0
   37.2990   30.6870   40.4470 C   0  0  0  0  0  0  0  0  0  0  0  0
   36.9830   31.9310   39.9450 C   0  0  0  0  0  0  0  0  0  0  0  0
   37.9510   32.7160   39.4210 C   0  0  0  0  0  0  0  0  0  0  0  0
   39.2730   32.1950   39.4230 C   0  0  0  0  0  0  0  0  0  0  0  0
   39.0830   30.5610   40.1900 S   0  0  0  0  0  0  0  0  0  0  0  0
   35.9620   32.2860   39.9650 H   0  0  0  0  0  0  0  0  0  0  0  0
   37.9010   33.6830   38.9960 H   0  0  0  0  0  0  0  0  0  0  0  0
   40.6150   32.6330   38.9900 C   0  0  0  0  0  3  0  0  0  0  0  0
   40.8150   34.0940   39.3290 C   0  0  0  0  0  2  0  0  0  0  0  0
   42.2530   34.4640   38.9600 C   0  0  0  0  0  2  0  0  0  0  0  0
   42.4200   34.2590   37.4580 C   0  0  0  0  0  2  0  0  0  0  0  0
   42.2740   32.7960   37.2000 C   0  0  0  0  0  2  0  0  0  0  0  0
   40.8710   32.3730   37.5090 C   0  0  0  0  0  2  0  0  0  0  0  0
  1  6  2  0  0  0  0
  1  2  1  0  0  0  0
  2  3  2  0  0  0  0
  3  7  1  0  0  0  0
  3  4  1  0  0  0  0
  4  8  1  0  0  0  0
  5  9  1  0  0  0  0
  5  4  2  0  0  0  0
  6  5  1  0  0  0  0
 10 16  1  0  0  0  0
 10 11  1  0  0  0  0
 11 12  2  0  0  0  0
 11 17  1  0  0  0  0
 12  2  1  0  0  0  0
 13 12  1  0  0  0  0
 14 13  2  0  0  0  0
 15 14  1  0  0  0  0
 15 10  2  0  0  0  0
 18 14  1  0  0  0  0
 19  1  1  0  0  0  0
 20 19  1  0  0  0  0
 21  6  1  0  0  0  0
 22 21  1  0  0  0  0
 23 27  1  0  0  0  0
 23 22  2  0  0  0  0
 24 25  2  0  0  0  0
 24 23  1  0  0  0  0
 25 26  1  0  0  0  0
 26 22  1  0  0  0  0
 28 24  1  0  0  0  0
 29 30  1  0  0  0  0
 29 25  1  0  0  0  0
 31 30  1  0  0  0  0
 32 31  1  0  0  0  0
 33 32  1  0  0  0  0
 33 34  1  0  0  0  0
 34 29  1  0  0  0  0
M  END
>  <minimizedAffinity>
-5.96518087

$$$$

 OpenBabel03242513323D

 34 37  0  0  0  0  0  0  0  0999 V2000
   37.6680   30.4330   40.5070 C   0  0  0  0  0  0  0  0  0  0  0  0
   37.5550   29.1960   39.9070 C   0  0  0  0  0  0  0  0  0  0  0  0
   37.3210   29.1780   38.5720 C   0  0  0  0  0  0  0  0  0  0  0  0
   37.1980   30.3390   37.8300 C   0  0  0  0  0  0  0  0  0  0  0  0
   37.3110   31.5620   38.4380 C   0  0  0  0  0  0  0  0  0  0  0  0
   37.5530   31.6300   39.8150 C   0  0  0  0  0  0  0  0  0  0  0  0
   37.2300   28.2220   38.0810 H   0  0  0  0  0  0  0  0  0  0  0  0
   37.0110   30.2650   36.7670 H   0  0  0  0  0  0  0  0  0  0  0  0
   37.2230   32.4980   37.9070 H   0  0  0  0  0  0  0  0  0  0  0  0
   38.7770   25.9280   41.3550 C   0  0  0  0  0  0  0  0  0  0  0  0
   38.6600   27.0570   40.5430 C   0  0  0  0  0  0  0  0  0  0  0  0
   37.6940   28.0190   40.7350 C   0  0  0  0  0  0  0  0  0  0  0  0
   36.8600   27.7810   41.7840 N   0  0  0  0  0  0  0  0  0  0  0  0
   36.9490   26.6980   42.5860 C   0  0  0  0  0  0  0  0  0  0  0  0
   37.9120   25.7700   42.3670 N   0  0  0  0  0  0  0  0  0  0  0  0
   39.5460   25.2020   41.1690 H   0  0  0  0  0  0  0  0  0  0  0  0
   39.3470   27.1890   39.7330 H   0  0  0  0  0  0  0  0  0  0  0  0
   36.1970   26.6820   43.3680 H   0  0  0  0  0  0  0  0  0  0  0  0
   37.9090   30.5120   41.8840 O   0  0  0  0  0  0  0  0  0  0  0  0
   37.0680   30.5250   42.4660 H   0  0  0  0  0  0  0  0  0  0  0  0
   37.6770   32.8160   40.4910 O   0  0  0  0  0  0  0  0  0  0  0  0
   38.7580   33.6110   40.4860 C   0  0  0  0  0  0  0  0  0  0  0  0
   38.8470   34.9840   40.4040 C   0  0  0  0  0  0  0  0  0  0  0  0
   40.0560   35.5870   40.4170 C   0  0  0  0  0  0  0  0  0  0  0  0
   41.1950   34.7430   40.5190 C   0  0  0  0  0  0  0  0  0  0  0  0
   40.4810   33.0770   40.5930 S   0  0  0  0  0  0  0  0  0  0  0  0
   37.9520   35.5860   40.3280 H   0  0  0  0  0  0  0  0  0  0  0  0
   40.3180   36.6100   40.3640 H   0  0  0  0  0  0  0  0  0  0  0  0
   42.6620   34.8990   40.5710 C   0  0  0  0  0  3  0  0  0  0  0  0
   43.3300   33.7250   39.8870 C   0  0  0  0  0  2  0  0  0  0  0  0
   44.8360   33.9910   39.8750 C   0  0  0  0  0  2  0  0  0  0  0  0
   45.3100   34.0780   41.3220 C   0  0  0  0  0  2  0  0  0  0  0  0
   44.6670   35.2860   41.9180 C   0  0  0  0  0  2  0  0  0  0  0  0
   43.1860   35.0760   41.9920 C   0  0  0  0  0  2  0  0  0  0  0  0
  1 19  1  0  0  0  0
  2  1  1  0  0  0  0
  2 12  1  0  0  0  0
  3  2  2  0  0  0  0
  4  5  2  0  0  0  0
  4  3  1  0  0  0  0
  5  6  1  0  0  0  0
  6 21  1  0  0  0  0
  6  1  2  0  0  0  0
  7  3  1  0  0  0  0
  8  4  1  0  0  0  0
  9  5  1  0  0  0  0
 10 15  1  0  0  0  0
 11 12  1  0  0  0  0
 11 10  2  0  0  0  0
 12 13  2  0  0  0  0
 13 14  1  0  0  0  0
 14 18  1  0  0  0  0
 15 14  2  0  0  0  0
 16 10  1  0  0  0  0
 17 11  1  0  0  0  0
 19 20  1  0  0  0  0
 22 21  1  0  0  0  0
 22 26  1  0  0  0  0
 23 24  1  0  0  0  0
 23 22  2  0  0  0  0
 24 25  2  0  0  0  0
 25 29  1  0  0  0  0
 25 26  1  0  0  0  0
 27 23  1  0  0  0  0
 28 24  1  0  0  0  0
 29 34  1  0  0  0  0
 30 29  1  0  0  0  0
 31 30  1  0  0  0  0
 31 32  1  0  0  0  0
 32 33  1  0  0  0  0
 33 34  1  0  0  0  0
M  END
>  <minimizedAffinity>
-5.78785515

$$$$

 OpenBabel03242513323D

 34 37  0  0  0  0  0  0  0  0999 V2000
   38.6040   31.2780   41.5650 C   0  0  0  0  0  0  0  0  0  0  0  0
   38.1870   32.1130   40.5480 C   0  0  0  0  0  0  0  0  0  0  0  0
   37.0300   31.7880   39.9210 C   0  0  0  0  0  0  0  0  0  0  0  0
   36.2890   30.6740   40.2710 C   0  0  0  0  0  0  0  0  0  0  0  0
   36.7150   29.8520   41.2830 C   0  0  0  0  0  0  0  0  0  0  0  0
   37.9040   30.1470   41.9600 C   0  0  0  0  0  0  0  0  0  0  0  0
   36.6830   32.4260   39.1240 H   0  0  0  0  0  0  0  0  0  0  0  0
   35.3730   30.4630   39.7370 H   0  0  0  0  0  0  0  0  0  0  0  0
   36.1770   28.9700   41.5960 H   0  0  0  0  0  0  0  0  0  0  0  0
   39.4180   35.6600   40.1350 C   0  0  0  0  0  0  0  0  0  0  0  0
   38.6130   34.5630   40.4500 C   0  0  0  0  0  0  0  0  0  0  0  0
   39.0040   33.2620   40.2290 C   0  0  0  0  0  0  0  0  0  0  0  0
   40.2400   33.1290   39.6750 N   0  0  0  0  0  0  0  0  0  0  0  0
   41.0390   34.1700   39.3600 C   0  0  0  0  0  0  0  0  0  0  0  0
   40.6230   35.4390   39.5910 N   0  0  0  0  0  0  0  0  0  0  0  0
   39.0740   36.6590   40.3250 H   0  0  0  0  0  0  0  0  0  0  0  0
   37.6500   34.7340   40.8850 H   0  0  0  0  0  0  0  0  0  0  0  0
   41.9870   33.8660   38.9280 H   0  0  0  0  0  0  0  0  0  0  0  0
   39.7920   31.5650   42.2480 O   0  0  0  0  0  0  0  0  0  0  0  0
   40.6330   31.1560   41.8330 H   0  0  0  0  0  0  0  0  0  0  0  0
   38.3920   29.3720   42.9790 O   0  0  0  0  0  0  0  0  0  0  0  0
   39.1490   28.2740   42.8350 C   0  0  0  0  0  0  0  0  0  0  0  0
   39.2030   27.1300   43.6010 C   0  0  0  0  0  0  0  0  0  0  0  0
   40.0510   26.1320   43.2700 C   0  0  0  0  0  0  0  0  0  0  0  0
   40.8590   26.3290   42.1170 C   0  0  0  0  0  0  0  0  0  0  0  0
   40.3660   27.9750   41.5330 S   0  0  0  0  0  0  0  0  0  0  0  0
   38.5690   27.0230   44.4700 H   0  0  0  0  0  0  0  0  0  0  0  0
   40.2300   25.1960   43.7280 H   0  0  0  0  0  0  0  0  0  0  0  0
   41.8920   25.5830   41.3720 C   0  0  0  0  0  3  0  0  0  0  0  0
   43.2270   26.2830   41.4990 C   0  0  0  0  0  2  0  0  0  0  0  0
   44.2760   25.4140   40.8030 C   0  0  0  0  0  2  0  0  0  0  0  0
   43.8940   25.3030   39.3310 C   0  0  0  0  0  2  0  0  0  0  0  0
   42.6050   24.5510   39.2720 C   0  0  0  0  0  2  0  0  0  0  0  0
   41.5230   25.3670   39.9080 C   0  0  0  0  0  2  0  0  0  0  0  0
  1  6  1  0  0  0  0
  1 19  1  0  0  0  0
  2  1  2  0  0  0  0
  3  4  2  0  0  0  0
  3  2  1  0  0  0  0
  4  5  1  0  0  0  0
  5  9  1  0  0  0  0
  5  6  2  0  0  0  0
  6 21  1  0  0  0  0
  7  3  1  0  0  0  0
  8  4  1  0  0  0  0
 10 16  1  0  0  0  0
 10 11  1  0  0  0  0
 11 17  1  0  0  0  0
 12 11  2  0  0  0  0
 12  2  1  0  0  0  0
 13 12  1  0  0  0  0
 14 15  1  0  0  0  0
 14 13  2  0  0  0  0
 15 10  2  0  0  0  0
 18 14  1  0  0  0  0
 20 19  1  0  0  0  0
 22 21  1  0  0  0  0
 22 23  2  0  0  0  0
 23 27  1  0  0  0  0
 24 23  1  0  0  0  0
 24 28  1  0  0  0  0
 25 24  2  0  0  0  0
 26 25  1  0  0  0  0
 26 22  1  0  0  0  0
 29 30  1  0  0  0  0
 29 25  1  0  0  0  0
 31 30  1  0  0  0  0
 32 31  1  0  0  0  0
 33 32  1  0  0  0  0
 33 34  1  0  0  0  0
 34 29  1  0  0  0  0
M  END
>  <minimizedAffinity>
-5.77083349

$$$$
