
 OpenBabel03252509163D

 22 24  0  0  0  0  0  0  0  0999 V2000
   45.8030   33.2290   46.3480 C   0  0  0  0  0  0  0  0  0  0  0  0
   45.1910   33.1360   47.6230 C   0  0  0  0  0  0  0  0  0  0  0  0
   45.7570   32.3180   48.5410 C   0  0  0  0  0  0  0  0  0  0  0  0
   46.9290   31.5880   48.2110 C   0  0  0  0  0  0  0  0  0  0  0  0
   47.2340   32.1050   46.4890 S   0  0  0  0  0  0  0  0  0  0  0  0
   44.3000   33.6970   47.8580 H   0  0  0  0  0  0  0  0  0  0  0  0
   45.4410   32.1290   49.5240 H   0  0  0  0  0  0  0  0  0  0  0  0
   44.3410   35.9230   44.2440 C   0  0  0  0  0  0  0  0  0  0  0  0
   44.4990   35.3410   42.9690 C   0  0  0  0  0  0  0  0  0  0  0  0
   45.0920   34.0660   42.8890 C   0  0  0  0  0  0  0  0  0  0  0  0
   45.4840   33.4620   44.0530 N   0  0  0  0  0  0  0  0  0  0  0  0
   45.3090   34.0680   45.2560 C   0  0  0  0  0  0  0  0  0  0  0  0
   44.7400   35.2940   45.3540 N   0  0  0  0  0  0  0  0  0  0  0  0
   43.8920   36.8940   44.3450 H   0  0  0  0  0  0  0  0  0  0  0  0
   44.1790   35.8440   42.0710 H   0  0  0  0  0  0  0  0  0  0  0  0
   45.2440   33.5620   41.9460 H   0  0  0  0  0  0  0  0  0  0  0  0
   47.7880   30.6660   48.8680 C   0  0  0  0  0  3  0  0  0  0  0  0
   48.1770   29.5070   47.9910 C   0  0  0  0  0  2  0  0  0  0  0  0
   49.5980   29.0570   48.1360 C   0  0  0  0  0  2  0  0  0  0  0  0
   50.0760   29.0210   49.5610 C   0  0  0  0  0  2  0  0  0  0  0  0
   49.6650   30.2410   50.3450 C   0  0  0  0  0  2  0  0  0  0  0  0
   49.0860   31.2880   49.3980 C   0  0  0  0  0  2  0  0  0  0  0  0
  1  5  1  0  0  0  0
  1  2  2  0  0  0  0
  2  6  1  0  0  0  0
  2  3  1  0  0  0  0
  3  7  1  0  0  0  0
  4  3  2  0  0  0  0
  4 17  1  0  0  0  0
  5  4  1  0  0  0  0
  8 14  1  0  0  0  0
  8 13  1  0  0  0  0
  9  8  2  0  0  0  0
 10  9  1  0  0  0  0
 10 11  2  0  0  0  0
 11 12  1  0  0  0  0
 12 13  2  0  0  0  0
 12  1  1  0  0  0  0
 15  9  1  0  0  0  0
 16 10  1  0  0  0  0
 17 22  1  0  0  0  0
 18 19  1  0  0  0  0
 18 17  1  0  0  0  0
 19 20  1  0  0  0  0
 20 21  1  0  0  0  0
 22 21  1  0  0  0  0
M  END
>  <minimizedAffinity>
-5.09788465

>  <minimizedRMSD>
0.876616776

$$$$
