
 OpenBabel03242511253D

 25 27  0  0  0  0  0  0  0  0999 V2000
   44.7920   33.0900   41.1510 Cl  0  0  0  0  0  0  0  0  0  0  0  0
   46.3010   33.9110   40.9270 C   0  0  0  0  0  0  0  0  0  0  0  0
   46.8280   34.7020   41.9190 C   0  0  0  0  0  0  0  0  0  0  0  0
   48.0370   35.3730   41.7660 C   0  0  0  0  0  0  0  0  0  0  0  0
   48.6840   35.2050   40.5660 C   0  0  0  0  0  0  0  0  0  0  0  0
   48.1690   34.4210   39.5730 C   0  0  0  0  0  0  0  0  0  0  0  0
   46.9720   33.7610   39.7340 C   0  0  0  0  0  0  0  0  0  0  0  0
   48.4180   35.9870   42.5720 H   0  0  0  0  0  0  0  0  0  0  0  0
   49.6220   35.7360   40.4690 H   0  0  0  0  0  0  0  0  0  0  0  0
   48.7160   34.3240   38.6520 H   0  0  0  0  0  0  0  0  0  0  0  0
   45.5890   34.0670   45.3320 C   0  0  0  0  0  0  0  0  0  0  0  0
   44.7030   35.1360   45.5410 C   0  0  0  0  0  0  0  0  0  0  0  0
   44.5400   36.0620   44.5090 C   0  0  0  0  0  0  0  0  0  0  0  0
   45.2460   35.8760   43.3670 N   0  0  0  0  0  0  0  0  0  0  0  0
   46.0900   34.8460   43.1880 C   0  0  0  0  0  0  0  0  0  0  0  0
   46.2660   33.9310   44.1760 N   0  0  0  0  0  0  0  0  0  0  0  0
   45.7150   33.3500   46.1350 H   0  0  0  0  0  0  0  0  0  0  0  0
   44.1490   35.2700   46.4520 H   0  0  0  0  0  0  0  0  0  0  0  0
   43.8690   36.9120   44.6040 H   0  0  0  0  0  0  0  0  0  0  0  0
   46.3820   32.8990   38.6740 C   0  0  0  0  0  0  0  0  0  0  0  0
   46.8350   31.4770   38.7280 C   0  0  0  0  0  0  0  0  0  0  0  0
   47.3140   31.0580   37.3450 C   0  0  0  0  0  0  0  0  0  0  0  0
   46.2890   31.3470   36.2840 C   0  0  0  0  0  0  0  0  0  0  0  0
   45.7260   32.7360   36.3520 C   0  0  0  0  0  0  0  0  0  0  0  0
   46.6170   33.5320   37.3090 C   0  0  0  0  0  0  0  0  0  0  0  0
  2  1  1  0  0  0  0
  2  3  1  0  0  0  0
  3 15  1  0  0  0  0
  4  3  2  0  0  0  0
  4  8  1  0  0  0  0
  5  4  1  0  0  0  0
  6  7  1  0  0  0  0
  6  5  2  0  0  0  0
  7  2  2  0  0  0  0
  9  5  1  0  0  0  0
 10  6  1  0  0  0  0
 11 12  1  0  0  0  0
 11 17  1  0  0  0  0
 12 18  1  0  0  0  0
 13 19  1  0  0  0  0
 13 12  2  0  0  0  0
 14 13  1  0  0  0  0
 15 14  2  0  0  0  0
 15 16  1  0  0  0  0
 16 11  2  0  0  0  0
 20 21  1  0  0  0  0
 20  7  1  0  0  0  0
 22 21  1  0  0  0  0
 23 24  1  0  0  0  0
 23 22  1  0  0  0  0
 24 25  1  0  0  0  0
 25 20  1  0  0  0  0
M  END
>  <minimizedAffinity>
-5.57968092

>  <minimizedRMSD>
1.3635143

$$$$
