
 OpenBabel03252503133D

 31 34  0  0  0  0  0  0  0  0999 V2000
   45.1510   36.1190   43.4730 C   0  0  0  0  0  0  0  0  0  0  0  0
   45.7890   34.9100   43.1370 C   0  0  0  0  0  0  0  0  0  0  0  0
   45.7850   33.9620   44.1400 C   0  0  0  0  0  0  0  0  0  0  0  0
   45.2150   34.1730   45.3510 N   0  0  0  0  0  0  0  0  0  0  0  0
   44.6130   35.3610   45.6200 C   0  0  0  0  0  0  0  0  0  0  0  0
   44.5830   36.3320   44.6770 N   0  0  0  0  0  0  0  0  0  0  0  0
   45.1090   36.9220   42.7360 H   0  0  0  0  0  0  0  0  0  0  0  0
   44.1740   35.4790   46.6020 H   0  0  0  0  0  0  0  0  0  0  0  0
   46.4010   32.7240   43.9000 C   0  0  0  0  0  0  0  0  0  0  0  0
   47.6820   32.2600   43.9430 C   0  0  0  0  0  0  0  0  0  0  0  0
   48.0170   31.0040   43.6650 C   0  0  0  0  0  0  0  0  0  0  0  0
   46.9920   30.1750   43.3220 C   0  0  0  0  0  0  0  0  0  0  0  0
   45.5040   31.2610   43.4110 S   0  0  0  0  0  0  0  0  0  0  0  0
   48.4310   33.0260   44.2340 H   0  0  0  0  0  0  0  0  0  0  0  0
   49.0130   30.5860   43.6840 H   0  0  0  0  0  0  0  0  0  0  0  0
   46.9940   29.1010   43.0480 H   0  0  0  0  0  0  0  0  0  0  0  0
   46.3660   34.7390   41.8620 C   0  0  0  0  0  0  0  0  0  0  0  0
   47.5370   35.2200   41.7180 O   0  0  0  0  0  0  0  0  0  0  0  0
   45.6090   34.0290   40.7800 C   0  0  0  0  0  0  0  0  0  0  0  0
   44.2870   34.1910   40.4610 C   0  0  0  0  0  0  0  0  0  0  0  0
   44.0390   33.3600   39.4380 N   0  0  0  0  0  0  0  0  0  0  0  0
   45.1840   32.7030   39.1370 C   0  0  0  0  0  0  0  0  0  0  0  0
   46.1640   33.1180   39.9730 N   0  0  0  0  0  0  0  0  0  0  0  0
   43.5840   34.8650   40.9490 H   0  0  0  0  0  0  0  0  0  0  0  0
   43.0980   33.2990   39.0120 H   0  0  0  0  0  0  0  0  0  0  0  0
   45.3260   31.6850   38.0520 C   0  0  0  0  0  3  0  0  0  0  0  0
   44.2620   31.7840   37.0070 C   0  0  0  0  0  2  0  0  0  0  0  0
   44.6970   30.9350   35.8270 C   0  0  0  0  0  2  0  0  0  0  0  0
   45.8770   31.5010   35.0990 C   0  0  0  0  0  2  0  0  0  0  0  0
   46.5740   32.4780   36.0500 C   0  0  0  0  0  2  0  0  0  0  0  0
   46.6800   31.7670   37.3930 C   0  0  0  0  0  2  0  0  0  0  0  0
  1  6  1  0  0  0  0
  2  1  2  0  0  0  0
  2  3  1  0  0  0  0
  3  4  2  0  0  0  0
  4  5  1  0  0  0  0
  5  8  1  0  0  0  0
  6  5  2  0  0  0  0
  7  1  1  0  0  0  0
  9 10  2  0  0  0  0
  9  3  1  0  0  0  0
 10 14  1  0  0  0  0
 11 15  1  0  0  0  0
 11 10  1  0  0  0  0
 12 13  1  0  0  0  0
 12 11  2  0  0  0  0
 13  9  1  0  0  0  0
 16 12  1  0  0  0  0
 17  2  1  0  0  0  0
 18 17  2  0  0  0  0
 19 17  1  0  0  0  0
 20 19  2  0  0  0  0
 20 24  1  0  0  0  0
 21 20  1  0  0  0  0
 22 21  1  0  0  0  0
 22 23  2  0  0  0  0
 23 19  1  0  0  0  0
 25 21  1  0  0  0  0
 26 22  1  0  0  0  0
 27 26  1  0  0  0  0
 28 27  1  0  0  0  0
 29 28  1  0  0  0  0
 29 30  1  0  0  0  0
 30 31  1  0  0  0  0
 31 26  1  0  0  0  0
M  END
>  <minimizedAffinity>
-4.71970463

>  <minimizedRMSD>
0.476805598

$$$$
