
 OpenBabel03252508263D

 38 42  0  0  1  0  0  0  0  0999 V2000
   46.4340   32.0190   46.5040 C   0  0  1  0  0  0  0  0  0  0  0  0
   46.3560   32.3100   47.9410 C   0  0  0  0  0  0  0  0  0  0  0  0
   45.2510   31.4930   47.1560 C   0  0  2  0  0  0  0  0  0  0  0  0
   47.4270   31.4580   46.3660 H   0  0  0  0  0  0  0  0  0  0  0  0
   46.8170   31.6960   48.7330 H   0  0  0  0  0  0  0  0  0  0  0  0
   46.0760   33.3140   48.3000 H   0  0  0  0  0  0  0  0  0  0  0  0
   44.3300   32.1020   47.3830 H   0  0  0  0  0  0  0  0  0  0  0  0
   45.0210   30.0840   47.4850 C   0  0  0  0  0  0  0  0  0  0  0  0
   45.0140   29.5130   48.7210 C   0  0  0  0  0  0  0  0  0  0  0  0
   44.9170   28.1540   48.9890 C   0  0  0  0  0  0  0  0  0  0  0  0
   44.8170   27.3060   47.8740 C   0  0  0  0  0  0  0  0  0  0  0  0
   44.8170   27.8600   46.5980 C   0  0  0  0  0  0  0  0  0  0  0  0
   44.6600   26.9950   45.5290 C   0  0  0  0  0  0  0  0  0  0  0  0
   44.5900   27.5160   44.2470 C   0  0  0  0  0  0  0  0  0  0  0  0
   44.6720   28.8720   44.0270 C   0  0  0  0  0  0  0  0  0  0  0  0
   44.8300   29.6930   45.1210 C   0  0  0  0  0  0  0  0  0  0  0  0
   44.9150   29.2280   46.4170 C   0  0  0  0  0  0  0  0  0  0  0  0
   45.0940   30.2080   49.5520 H   0  0  0  0  0  0  0  0  0  0  0  0
   44.9180   27.7710   50.0010 H   0  0  0  0  0  0  0  0  0  0  0  0
   44.7420   26.2390   48.0260 H   0  0  0  0  0  0  0  0  0  0  0  0
   44.5950   25.9260   45.7330 H   0  0  0  0  0  0  0  0  0  0  0  0
   44.4670   26.7320   43.4810 H   0  0  0  0  0  0  0  0  0  0  0  0
   44.5950   29.0770   42.9730 H   0  0  0  0  0  0  0  0  0  0  0  0
   44.7820   30.6610   44.7150 H   0  0  0  0  0  0  0  0  0  0  0  0
   45.1040   34.9360   44.6710 C   0  0  0  0  0  0  0  0  0  0  0  0
   45.9920   35.0330   43.5450 C   0  0  0  0  0  0  0  0  0  0  0  0
   47.0540   34.0610   43.4740 C   0  0  0  0  0  0  0  0  0  0  0  0
   47.1590   33.1520   44.4250 N   0  0  0  0  0  0  0  0  0  0  0  0
   46.2790   33.0990   45.4880 C   0  0  0  0  0  0  0  0  0  0  0  0
   45.2850   33.9700   45.5990 N   0  0  0  0  0  0  0  0  0  0  0  0
   44.3040   35.6690   44.7220 H   0  0  0  0  0  0  0  0  0  0  0  0
   45.8550   35.7900   42.8120 H   0  0  0  0  0  0  0  0  0  0  0  0
   47.9870   34.1380   42.3150 C   0  0  0  0  0  3  0  0  0  0  0  0
   48.6970   32.8230   42.1600 C   0  0  0  0  0  2  0  0  0  0  0  0
   49.4110   32.6400   40.8750 C   0  0  0  0  0  2  0  0  0  0  0  0
   48.5750   32.9780   39.6830 C   0  0  0  0  0  2  0  0  0  0  0  0
   48.0780   34.3940   39.8450 C   0  0  0  0  0  2  0  0  0  0  0  0
   47.2440   34.5490   41.0670 C   0  0  0  0  0  2  0  0  0  0  0  0
  1  4  1  6  0  0  0
  1  3  1  0  0  0  0
  1  2  1  0  0  0  0
  2  6  1  0  0  0  0
  2  5  1  0  0  0  0
  3  7  1  6  0  0  0
  3  8  1  0  0  0  0
  3  2  1  0  0  0  0
  8  9  1  0  0  0  0
  9 10  2  0  0  0  0
  9 18  1  0  0  0  0
 10 19  1  0  0  0  0
 11 20  1  0  0  0  0
 11 10  1  0  0  0  0
 12 11  2  0  0  0  0
 13 21  1  0  0  0  0
 13 12  1  0  0  0  0
 14 13  2  0  0  0  0
 15 14  1  0  0  0  0
 15 16  2  0  0  0  0
 16 17  1  0  0  0  0
 17 12  1  0  0  0  0
 17  8  2  0  0  0  0
 22 14  1  0  0  0  0
 23 15  1  0  0  0  0
 24 16  1  0  0  0  0
 25 31  1  0  0  0  0
 25 30  1  0  0  0  0
 26 25  2  0  0  0  0
 27 26  1  0  0  0  0
 27 28  2  0  0  0  0
 28 29  1  0  0  0  0
 29 30  2  0  0  0  0
 29  1  1  0  0  0  0
 32 26  1  0  0  0  0
 33 27  1  0  0  0  0
 34 33  1  0  0  0  0
 35 34  1  0  0  0  0
 36 37  1  0  0  0  0
 36 35  1  0  0  0  0
 37 38  1  0  0  0  0
 38 33  1  0  0  0  0
M  END
>  <minimizedAffinity>
-5.25213385

>  <minimizedRMSD>
1.30237472

$$$$
