
 OpenBabel03252508143D

 34 37  0  0  1  0  0  0  0  0999 V2000
   46.0620   30.9050   46.7840 C   0  0  0  0  0  0  0  0  0  0  0  0
   47.0990   30.5000   46.7760 H   0  0  0  0  0  0  0  0  0  0  0  0
   45.3450   30.0940   46.6430 H   0  0  0  0  0  0  0  0  0  0  0  0
   45.8900   31.6460   48.0910 C   0  0  1  0  0  0  0  0  0  0  0  0
   45.6650   30.8090   49.3000 C   0  0  0  0  0  0  0  0  0  0  0  0
   46.9260   31.5050   49.1390 C   0  0  1  0  0  0  0  0  0  0  0  0
   45.3390   32.6090   48.0610 H   0  0  0  0  0  0  0  0  0  0  0  0
   45.5460   29.7140   49.1350 H   0  0  0  0  0  0  0  0  0  0  0  0
   44.9320   31.1660   50.0750 H   0  0  0  0  0  0  0  0  0  0  0  0
   47.0640   32.4120   49.8050 H   0  0  0  0  0  0  0  0  0  0  0  0
   48.2160   30.8790   48.7640 C   0  0  0  0  0  0  0  0  0  0  0  0
   49.0840   30.4360   49.9710 C   0  0  0  0  0  0  0  0  0  0  0  0
   49.4830   31.6430   49.2080 C   0  0  0  0  0  0  0  0  0  0  0  0
   48.3000   30.3090   47.8360 H   0  0  0  0  0  0  0  0  0  0  0  0
   49.5950   29.4500   49.7930 H   0  0  0  0  0  0  0  0  0  0  0  0
   48.6170   30.4840   50.9620 H   0  0  0  0  0  0  0  0  0  0  0  0
   50.3690   31.5340   48.5290 H   0  0  0  0  0  0  0  0  0  0  0  0
   49.3580   32.5950   49.7440 H   0  0  0  0  0  0  0  0  0  0  0  0
   45.8100   33.1030   45.9390 C   0  0  0  0  0  3  0  0  0  0  0  0
   46.0360   31.8890   45.6260 C   0  0  0  0  0  3  0  0  0  0  0  0
   44.8580   36.0150   43.8960 C   0  0  0  0  0  0  0  0  0  0  0  0
   45.6650   35.8930   42.7740 C   0  0  0  0  0  0  0  0  0  0  0  0
   46.5230   34.8350   42.7440 C   0  0  0  0  0  0  0  0  0  0  0  0
   46.5330   33.9800   43.7980 N   0  0  0  0  0  0  0  0  0  0  0  0
   45.7600   34.0940   44.8730 C   0  0  0  0  0  0  0  0  0  0  0  0
   44.9280   35.1330   44.8870 N   0  0  0  0  0  0  0  0  0  0  0  0
   44.1280   36.8150   44.0470 H   0  0  0  0  0  0  0  0  0  0  0  0
   45.5400   36.6440   42.0380 H   0  0  0  0  0  0  0  0  0  0  0  0
   47.4070   34.6740   41.5420 C   0  0  0  0  0  3  0  0  0  0  0  0
   47.7910   33.2670   41.2530 C   0  0  0  0  0  2  0  0  0  0  0  0
   49.3000   33.0960   41.0960 C   0  0  0  0  0  2  0  0  0  0  0  0
   50.0410   33.6780   42.2660 C   0  0  0  0  0  2  0  0  0  0  0  0
   49.6830   35.1020   42.5480 C   0  0  0  0  0  2  0  0  0  0  0  0
   48.6050   35.5910   41.6240 C   0  0  0  0  0  2  0  0  0  0  0  0
  1  4  1  0  0  0  0
  2  1  1  0  0  0  0
  3  1  1  0  0  0  0
  4  7  1  6  0  0  0
  4  6  1  0  0  0  0
  4  5  1  0  0  0  0
  5  9  1  0  0  0  0
  6  5  1  0  0  0  0
  6 10  1  1  0  0  0
  8  5  1  0  0  0  0
 11  6  1  0  0  0  0
 11 13  1  0  0  0  0
 11 12  1  0  0  0  0
 12 16  1  0  0  0  0
 13 18  1  0  0  0  0
 13 12  1  0  0  0  0
 14 11  1  0  0  0  0
 15 12  1  0  0  0  0
 17 13  1  0  0  0  0
 20 19  2  0  0  0  0
 20  1  1  0  0  0  0
 21 27  1  0  0  0  0
 21 26  1  0  0  0  0
 22 21  2  0  0  0  0
 23 22  1  0  0  0  0
 23 24  2  0  0  0  0
 24 25  1  0  0  0  0
 25 26  2  0  0  0  0
 25 19  1  0  0  0  0
 28 22  1  0  0  0  0
 29 34  1  0  0  0  0
 29 23  1  0  0  0  0
 30 29  1  0  0  0  0
 31 30  1  0  0  0  0
 31 32  1  0  0  0  0
 32 33  1  0  0  0  0
 34 33  1  0  0  0  0
M  END
>  <minimizedAffinity>
-6.3011651

>  <minimizedRMSD>
0.875279486

$$$$
