
 OpenBabel03252508333D

 29 31  0  0  1  0  0  0  0  0999 V2000
   44.4430   34.3180   42.0170 N   0  0  0  0  0  0  0  0  0  0  0  0
   44.6980   33.3810   41.0100 C   0  0  1  0  0  0  0  0  0  0  0  0
   43.8100   33.4450   39.7960 C   0  0  0  0  0  0  0  0  0  0  0  0
   42.6360   34.1860   39.8420 N   0  0  0  0  0  0  0  0  0  0  0  0
   42.5590   35.2460   40.7380 C   0  0  0  0  0  0  0  0  0  0  0  0
   43.7880   35.4990   41.5230 C   0  0  0  0  0  0  0  0  0  0  0  0
   44.6280   32.3490   41.4190 H   0  0  0  0  0  0  0  0  0  0  0  0
   43.5610   32.3660   39.5170 H   0  0  0  0  0  0  0  0  0  0  0  0
   44.3980   33.7810   38.9200 H   0  0  0  0  0  0  0  0  0  0  0  0
   42.2950   34.3560   38.8750 H   0  0  0  0  0  0  0  0  0  0  0  0
   41.6840   35.1080   41.4380 H   0  0  0  0  0  0  0  0  0  0  0  0
   42.3190   36.2010   40.1890 H   0  0  0  0  0  0  0  0  0  0  0  0
   44.4910   36.2230   41.0280 H   0  0  0  0  0  0  0  0  0  0  0  0
   43.4470   36.0860   42.4330 H   0  0  0  0  0  0  0  0  0  0  0  0
   44.6120   35.1350   44.2600 C   0  0  0  0  0  0  0  0  0  0  0  0
   44.8200   34.0890   43.3690 C   0  0  0  0  0  0  0  0  0  0  0  0
   45.3790   32.9170   43.8340 C   0  0  0  0  0  0  0  0  0  0  0  0
   45.7260   32.7820   45.1420 N   0  0  0  0  0  0  0  0  0  0  0  0
   45.5110   33.8290   46.0020 C   0  0  0  0  0  0  0  0  0  0  0  0
   44.9620   34.9800   45.5540 N   0  0  0  0  0  0  0  0  0  0  0  0
   44.2010   36.1180   44.1080 H   0  0  0  0  0  0  0  0  0  0  0  0
   45.5500   32.0830   43.1960 H   0  0  0  0  0  0  0  0  0  0  0  0
   45.7940   33.7060   47.0490 H   0  0  0  0  0  0  0  0  0  0  0  0
   46.1330   33.4560   40.4590 C   0  0  0  0  0  3  0  0  0  0  0  0
   46.2340   33.3230   38.9860 C   0  0  0  0  0  2  0  0  0  0  0  0
   47.6700   32.9240   38.6710 C   0  0  0  0  0  2  0  0  0  0  0  0
   48.5910   33.1630   39.8250 C   0  0  0  0  0  2  0  0  0  0  0  0
   48.3650   34.4740   40.5130 C   0  0  0  0  0  2  0  0  0  0  0  0
   46.9160   34.6250   40.9320 C   0  0  0  0  0  2  0  0  0  0  0  0
  1 16  1  0  0  0  0
  2  7  1  1  0  0  0
  2  1  1  0  0  0  0
  3  4  1  0  0  0  0
  3  2  1  0  0  0  0
  4  5  1  0  0  0  0
  5 11  1  0  0  0  0
  5  6  1  0  0  0  0
  6  1  1  0  0  0  0
  6 14  1  0  0  0  0
  8  3  1  0  0  0  0
  9  3  1  0  0  0  0
 10  4  1  0  0  0  0
 12  5  1  0  0  0  0
 13  6  1  0  0  0  0
 15 20  1  0  0  0  0
 16 17  1  0  0  0  0
 16 15  2  0  0  0  0
 17 18  2  0  0  0  0
 18 19  1  0  0  0  0
 19 23  1  0  0  0  0
 20 19  2  0  0  0  0
 21 15  1  0  0  0  0
 22 17  1  0  0  0  0
 24 29  1  0  0  0  0
 24  2  1  0  0  0  0
 25 24  1  0  0  0  0
 26 25  1  0  0  0  0
 26 27  1  0  0  0  0
 27 28  1  0  0  0  0
 28 29  1  0  0  0  0
M  END
>  <minimizedAffinity>
-4.47380638

>  <minimizedRMSD>
0.357919931

$$$$
