
 OpenBabel03242523143D

 22 24  0  0  0  0  0  0  0  0999 V2000
   45.8990   34.4790   42.6740 C   0  0  0  0  0  0  0  0  0  0  0  0
   47.2290   34.0820   42.8090 C   0  0  0  0  0  0  0  0  0  0  0  0
   47.5880   33.5370   44.0320 C   0  0  0  0  0  0  0  0  0  0  0  0
   46.6360   33.4170   45.0340 N   0  0  0  0  0  0  0  0  0  0  0  0
   45.3550   33.8240   44.8440 C   0  0  0  0  0  0  0  0  0  0  0  0
   44.9950   34.3630   43.6390 N   0  0  0  0  0  0  0  0  0  0  0  0
   48.6080   33.2120   44.1850 H   0  0  0  0  0  0  0  0  0  0  0  0
   44.7820   33.6450   45.7400 H   0  0  0  0  0  0  0  0  0  0  0  0
   48.2600   34.3090   41.7770 C   0  0  0  0  0  0  0  0  0  0  0  0
   48.7300   35.6140   41.4410 C   0  0  0  0  0  0  0  0  0  0  0  0
   49.6700   34.7690   42.2430 C   0  0  0  0  0  0  0  0  0  0  0  0
   48.4210   33.3470   41.1950 H   0  0  0  0  0  0  0  0  0  0  0  0
   49.0760   35.8430   40.3870 H   0  0  0  0  0  0  0  0  0  0  0  0
   48.5290   36.5710   42.0020 H   0  0  0  0  0  0  0  0  0  0  0  0
   49.7490   34.9030   43.3310 H   0  0  0  0  0  0  0  0  0  0  0  0
   50.4940   34.2460   41.7710 H   0  0  0  0  0  0  0  0  0  0  0  0
   45.2040   34.9620   41.4570 C   0  0  0  0  0  0  0  0  0  0  0  0
   44.6930   33.7410   40.6460 C   0  0  0  0  0  0  0  0  0  0  0  0
   43.5890   34.1570   39.7260 C   0  0  0  0  0  0  0  0  0  0  0  0
   42.3380   34.5710   40.4640 C   0  0  0  0  0  0  0  0  0  0  0  0
   42.7340   35.1280   41.8130 C   0  0  0  0  0  0  0  0  0  0  0  0
   44.0510   35.8720   41.7420 C   0  0  0  0  0  0  0  0  0  0  0  0
  1  2  2  0  0  0  0
  1  6  1  0  0  0  0
  2  3  1  0  0  0  0
  3  7  1  0  0  0  0
  3  4  2  0  0  0  0
  5  4  1  0  0  0  0
  5  8  1  0  0  0  0
  6  5  2  0  0  0  0
  9 11  1  0  0  0  0
  9  2  1  0  0  0  0
 10  9  1  0  0  0  0
 10 14  1  0  0  0  0
 10 11  1  0  0  0  0
 11 15  1  0  0  0  0
 12  9  1  0  0  0  0
 13 10  1  0  0  0  0
 16 11  1  0  0  0  0
 17 22  1  0  0  0  0
 17  1  1  0  0  0  0
 18 17  1  0  0  0  0
 19 20  1  0  0  0  0
 19 18  1  0  0  0  0
 20 21  1  0  0  0  0
 22 21  1  0  0  0  0
M  END
>  <minimizedAffinity>
-4.54848909

>  <minimizedRMSD>
1.82113492

$$$$
