
 OpenBabel03242516503D

 40 43  0  0  1  0  0  0  0  0999 V2000
   47.8070   32.8520   41.6810 C   0  0  1  0  0  0  0  0  0  0  0  0
   47.4310   32.0920   40.4710 C   0  0  0  0  0  0  0  0  0  0  0  0
   48.4380   32.5020   39.3920 C   0  0  0  0  0  0  0  0  0  0  0  0
   48.1090   33.9360   39.0310 C   0  0  0  0  0  0  0  0  0  0  0  0
   48.1030   34.8710   40.2040 C   0  0  0  0  0  0  0  0  0  0  0  0
   47.6370   34.3460   41.4960 C   0  0  1  0  0  0  0  0  0  0  0  0
   48.9220   32.7370   41.8420 H   0  0  0  0  0  0  0  0  0  0  0  0
   47.6000   31.0110   40.6480 H   0  0  0  0  0  0  0  0  0  0  0  0
   46.4080   32.2550   40.1300 H   0  0  0  0  0  0  0  0  0  0  0  0
   48.2530   31.9180   38.4580 H   0  0  0  0  0  0  0  0  0  0  0  0
   49.4580   32.4200   39.7780 H   0  0  0  0  0  0  0  0  0  0  0  0
   47.1460   33.9560   38.4770 H   0  0  0  0  0  0  0  0  0  0  0  0
   48.8960   34.2420   38.3020 H   0  0  0  0  0  0  0  0  0  0  0  0
   49.1470   35.2850   40.2880 H   0  0  0  0  0  0  0  0  0  0  0  0
   47.4840   35.7540   39.9240 H   0  0  0  0  0  0  0  0  0  0  0  0
   48.2710   34.8090   42.3120 H   0  0  0  0  0  0  0  0  0  0  0  0
   45.4530   31.1150   44.0690 C   0  0  0  0  0  0  0  0  0  0  0  0
   46.0970   31.5530   42.9120 C   0  0  0  0  0  0  0  0  0  0  0  0
   47.1810   32.4210   42.9250 C   0  0  0  0  0  0  0  0  0  0  0  0
   47.5960   32.8320   44.1350 N   0  0  0  0  0  0  0  0  0  0  0  0
   46.9740   32.4080   45.2680 C   0  0  0  0  0  0  0  0  0  0  0  0
   45.9340   31.5770   45.2500 N   0  0  0  0  0  0  0  0  0  0  0  0
   44.6190   30.4440   44.0170 H   0  0  0  0  0  0  0  0  0  0  0  0
   45.6800   31.1600   41.9770 H   0  0  0  0  0  0  0  0  0  0  0  0
   47.3580   32.7780   46.2160 H   0  0  0  0  0  0  0  0  0  0  0  0
   46.2660   34.7710   41.8290 C   0  0  0  0  0  0  0  0  0  0  0  0
   45.8630   35.5220   42.9340 C   0  0  0  0  0  0  0  0  0  0  0  0
   44.4960   35.8200   43.0120 C   0  0  0  0  0  0  0  0  0  0  0  0
   43.6720   35.3580   42.0090 C   0  0  0  0  0  0  0  0  0  0  0  0
   44.0820   34.6250   40.9350 C   0  0  0  0  0  0  0  0  0  0  0  0
   45.4080   34.3340   40.8580 N   0  0  0  0  0  0  0  0  0  0  0  0
   46.6380   35.7910   43.6060 H   0  0  0  0  0  0  0  0  0  0  0  0
   44.2020   36.3920   43.8560 H   0  0  0  0  0  0  0  0  0  0  0  0
   42.6360   35.6330   42.1470 H   0  0  0  0  0  0  0  0  0  0  0  0
   43.1170   34.1520   39.8740 C   0  0  0  0  0  0  0  0  0  0  0  0
   42.3950   35.3520   39.3290 C   0  0  0  0  0  0  0  0  0  0  0  0
   41.2240   35.0430   38.4590 C   0  0  0  0  0  0  0  0  0  0  0  0
   40.2910   34.0260   39.0420 C   0  0  0  0  0  0  0  0  0  0  0  0
   40.7770   33.7300   40.4660 C   0  0  0  0  0  0  0  0  0  0  0  0
   42.1430   33.1480   40.3630 C   0  0  0  0  0  0  0  0  0  0  0  0
  1  7  1  1  0  0  0
  1 19  1  0  0  0  0
  2  8  1  0  0  0  0
  2  1  1  0  0  0  0
  3 11  1  0  0  0  0
  3  2  1  0  0  0  0
  4  3  1  0  0  0  0
  4  5  1  0  0  0  0
  5 14  1  0  0  0  0
  5  6  1  0  0  0  0
  6  1  1  0  0  0  0
  6 26  1  0  0  0  0
  6 16  1  1  0  0  0
  9  2  1  0  0  0  0
 10  3  1  0  0  0  0
 12  4  1  0  0  0  0
 13  4  1  0  0  0  0
 15  5  1  0  0  0  0
 17 22  1  0  0  0  0
 18 19  1  0  0  0  0
 18 17  2  0  0  0  0
 19 20  2  0  0  0  0
 20 21  1  0  0  0  0
 21 25  1  0  0  0  0
 22 21  2  0  0  0  0
 23 17  1  0  0  0  0
 24 18  1  0  0  0  0
 26 27  1  0  0  0  0
 27 28  2  0  0  0  0
 27 32  1  0  0  0  0
 28 33  1  0  0  0  0
 29 34  1  0  0  0  0
 29 28  1  0  0  0  0
 30 29  2  0  0  0  0
 31 30  1  0  0  0  0
 31 26  2  0  0  0  0
 35 40  1  0  0  0  0
 35 30  1  0  0  0  0
 36 35  1  0  0  0  0
 37 38  1  0  0  0  0
 37 36  1  0  0  0  0
 38 39  1  0  0  0  0
 40 39  1  0  0  0  0
M  END
>  <minimizedAffinity>
-5.87935781

>  <minimizedRMSD>
0.569118917

$$$$
