
 OpenBabel03242516013D

 25 27  0  0  0  0  0  0  0  0999 V2000
   44.7480   33.2190   41.1350 Cl  0  0  0  0  0  0  0  0  0  0  0  0
   46.2880   34.0140   40.9710 C   0  0  0  0  0  0  0  0  0  0  0  0
   46.8180   34.7540   41.9780 C   0  0  0  0  0  0  0  0  0  0  0  0
   48.0470   35.3460   41.7440 C   0  0  0  0  0  0  0  0  0  0  0  0
   48.7190   35.2090   40.5630 C   0  0  0  0  0  0  0  0  0  0  0  0
   48.1700   34.4520   39.5450 C   0  0  0  0  0  0  0  0  0  0  0  0
   46.9520   33.8610   39.7660 C   0  0  0  0  0  0  0  0  0  0  0  0
   48.4790   35.9380   42.5400 H   0  0  0  0  0  0  0  0  0  0  0  0
   49.6670   35.6950   40.4530 H   0  0  0  0  0  0  0  0  0  0  0  0
   48.7440   34.3870   38.6550 H   0  0  0  0  0  0  0  0  0  0  0  0
   44.4830   36.0270   44.6730 C   0  0  0  0  0  0  0  0  0  0  0  0
   45.1940   35.9080   43.4790 C   0  0  0  0  0  0  0  0  0  0  0  0
   46.0790   34.8790   43.2180 C   0  0  0  0  0  0  0  0  0  0  0  0
   46.2200   33.9640   44.2240 N   0  0  0  0  0  0  0  0  0  0  0  0
   45.5410   34.0710   45.3750 C   0  0  0  0  0  0  0  0  0  0  0  0
   44.6780   35.0870   45.6100 N   0  0  0  0  0  0  0  0  0  0  0  0
   43.8390   36.8890   44.7050 H   0  0  0  0  0  0  0  0  0  0  0  0
   45.0970   36.6220   42.6680 H   0  0  0  0  0  0  0  0  0  0  0  0
   45.6600   33.3340   46.1750 H   0  0  0  0  0  0  0  0  0  0  0  0
   46.3560   33.0450   38.6720 C   0  0  0  0  0  0  0  0  0  0  0  0
   46.8270   31.6070   38.8180 C   0  0  0  0  0  0  0  0  0  0  0  0
   45.9520   30.7510   37.9690 C   0  0  0  0  0  0  0  0  0  0  0  0
   45.1700   31.5540   36.9760 C   0  0  0  0  0  0  0  0  0  0  0  0
   45.9420   32.6610   36.3210 C   0  0  0  0  0  0  0  0  0  0  0  0
   46.7260   33.5110   37.2990 C   0  0  0  0  0  0  0  0  0  0  0  0
  2  1  1  0  0  0  0
  2  3  1  0  0  0  0
  3 13  1  0  0  0  0
  4  3  2  0  0  0  0
  4  8  1  0  0  0  0
  5  4  1  0  0  0  0
  6  7  1  0  0  0  0
  6  5  2  0  0  0  0
  7  2  2  0  0  0  0
  9  5  1  0  0  0  0
 10  6  1  0  0  0  0
 11 17  1  0  0  0  0
 11 16  1  0  0  0  0
 12 11  2  0  0  0  0
 13 12  1  0  0  0  0
 13 14  2  0  0  0  0
 14 15  1  0  0  0  0
 15 16  2  0  0  0  0
 15 19  1  0  0  0  0
 18 12  1  0  0  0  0
 20 21  1  0  0  0  0
 20  7  1  0  0  0  0
 22 21  1  0  0  0  0
 23 22  1  0  0  0  0
 24 23  1  0  0  0  0
 24 25  1  0  0  0  0
 25 20  1  0  0  0  0
M  END
>  <minimizedAffinity>
-5.68237925

>  <minimizedRMSD>
1.23156238

$$$$
