
 OpenBabel03242521313D

 44 47  0  0  1  0  0  0  0  0999 V2000
   47.9270   33.3790   42.4990 C   0  0  1  0  0  0  0  0  0  0  0  0
   46.4620   33.7080   42.2280 C   0  0  2  0  0  0  0  0  0  0  0  0
   46.3140   34.5820   41.1910 O   0  0  0  0  0  0  0  0  0  0  0  0
   46.6530   33.9230   40.0410 C   0  0  0  0  0  0  0  0  0  0  0  0
   48.1370   33.7110   40.0190 C   0  0  2  0  0  0  0  0  0  0  0  0
   48.7360   33.1550   41.2940 C   0  0  2  0  0  0  0  0  0  0  0  0
   47.9040   32.4040   43.0750 H   0  0  0  0  0  0  0  0  0  0  0  0
   45.9650   32.7360   42.0040 H   0  0  0  0  0  0  0  0  0  0  0  0
   46.3900   34.5260   39.1720 H   0  0  0  0  0  0  0  0  0  0  0  0
   46.1510   32.9300   40.0500 H   0  0  0  0  0  0  0  0  0  0  0  0
   48.3300   33.0640   39.1540 H   0  0  0  0  0  0  0  0  0  0  0  0
   49.7120   33.6760   41.3820 H   0  0  0  0  0  0  0  0  0  0  0  0
   44.5500   35.9820   44.5800 C   0  0  0  0  0  0  0  0  0  0  0  0
   45.1310   35.4950   43.4050 C   0  0  0  0  0  0  0  0  0  0  0  0
   45.8290   34.2430   43.4440 C   0  0  0  0  0  0  0  0  0  0  0  0
   45.9030   33.5790   44.6110 N   0  0  0  0  0  0  0  0  0  0  0  0
   45.3170   34.0930   45.7430 C   0  0  0  0  0  0  0  0  0  0  0  0
   44.6480   35.2830   45.7230 N   0  0  0  0  0  0  0  0  0  0  0  0
   44.0280   36.9190   44.5460 H   0  0  0  0  0  0  0  0  0  0  0  0
   45.0710   36.0300   42.4710 H   0  0  0  0  0  0  0  0  0  0  0  0
   45.3800   33.5620   46.6600 H   0  0  0  0  0  0  0  0  0  0  0  0
   48.5090   34.2830   43.3740 O   0  0  0  0  0  0  0  0  0  0  0  0
   49.0170   33.8730   44.1150 H   0  0  0  0  0  0  0  0  0  0  0  0
   48.6850   34.9700   39.7320 O   0  0  0  0  0  0  0  0  0  0  0  0
   48.0440   35.6900   39.6560 H   0  0  0  0  0  0  0  0  0  0  0  0
   49.0820   31.8140   41.0730 O   0  0  0  0  0  0  0  0  0  0  0  0
   51.3230   32.4130   41.4750 N   0  0  0  0  0  0  0  0  0  0  0  0
   51.2440   31.7420   42.7810 C   0  0  0  0  0  0  0  0  0  0  0  0
   51.6750   30.3580   42.3380 C   0  0  0  0  0  0  0  0  0  0  0  0
   50.8050   30.1790   41.1240 C   0  0  0  0  0  0  0  0  0  0  0  0
   50.3890   31.6180   40.7260 C   0  0  1  0  0  0  0  0  0  0  0  0
   51.0830   33.4120   41.5460 H   0  0  0  0  0  0  0  0  0  0  0  0
   52.0140   32.1980   43.4460 H   0  0  0  0  0  0  0  0  0  0  0  0
   50.2480   31.7340   43.2100 H   0  0  0  0  0  0  0  0  0  0  0  0
   52.7510   30.2930   42.1590 H   0  0  0  0  0  0  0  0  0  0  0  0
   51.3020   29.6590   43.1100 H   0  0  0  0  0  0  0  0  0  0  0  0
   49.8620   29.6180   41.3730 H   0  0  0  0  0  0  0  0  0  0  0  0
   51.3160   29.6230   40.3750 H   0  0  0  0  0  0  0  0  0  0  0  0
   50.7830   31.6770   39.2890 C   0  0  0  0  0  0  0  0  0  0  0  0
   52.2780   31.3270   39.1930 C   0  0  0  0  0  0  0  0  0  0  0  0
   52.6920   31.7060   37.7770 C   0  0  0  0  0  0  0  0  0  0  0  0
   51.9230   30.8560   36.7870 C   0  0  0  0  0  0  0  0  0  0  0  0
   51.0690   29.8790   37.5330 C   0  0  0  0  0  0  0  0  0  0  0  0
   50.1000   30.6290   38.4120 C   0  0  0  0  0  0  0  0  0  0  0  0
  1  7  1  1  0  0  0
  1 22  1  0  0  0  0
  2  8  1  6  0  0  0
  2  1  1  0  0  0  0
  2 15  1  0  0  0  0
  3  2  1  0  0  0  0
  4 10  1  0  0  0  0
  4  3  1  0  0  0  0
  5 11  1  6  0  0  0
  5  4  1  0  0  0  0
  5  6  1  0  0  0  0
  6 12  1  1  0  0  0
  6  1  1  0  0  0  0
  9  4  1  0  0  0  0
 13 18  1  0  0  0  0
 14 15  1  0  0  0  0
 14 13  2  0  0  0  0
 15 16  2  0  0  0  0
 16 17  1  0  0  0  0
 17 21  1  0  0  0  0
 18 17  2  0  0  0  0
 19 13  1  0  0  0  0
 20 14  1  0  0  0  0
 22 23  1  0  0  0  0
 24  5  1  0  0  0  0
 25 24  1  0  0  0  0
 26  6  1  0  0  0  0
 27 32  1  0  0  0  0
 27 28  1  0  0  0  0
 28 34  1  0  0  0  0
 28 33  1  0  0  0  0
 29 28  1  0  0  0  0
 29 36  1  0  0  0  0
 30 37  1  0  0  0  0
 30 29  1  0  0  0  0
 31 26  1  1  0  0  0
 31 30  1  0  0  0  0
 31 27  1  0  0  0  0
 35 29  1  0  0  0  0
 38 30  1  0  0  0  0
 39 31  1  0  0  0  0
 40 39  1  0  0  0  0
 41 40  1  0  0  0  0
 42 43  1  0  0  0  0
 42 41  1  0  0  0  0
 43 44  1  0  0  0  0
 44 39  1  0  0  0  0
M  END
>  <minimizedAffinity>
-5.8767786

>  <minimizedRMSD>
1.13097155

$$$$
