
 OpenBabel03242516393D

 17 18  0  0  0  0  0  0  0  0999 V2000
   37.8890   32.8680   40.2640 C   0  0  0  0  0  0  0  0  0  0  0  0
   37.5470   31.5800   40.7050 C   0  0  0  0  0  0  0  0  0  0  0  0
   38.5610   30.7590   41.2640 C   0  0  0  0  0  0  0  0  0  0  0  0
   39.8050   31.2900   41.3310 N   0  0  0  0  0  0  0  0  0  0  0  0
   40.1110   32.5210   40.9040 C   0  0  0  0  0  0  0  0  0  0  0  0
   39.1560   33.2950   40.3770 N   0  0  0  0  0  0  0  0  0  0  0  0
   36.8880   33.7060   39.7000 N   0  0  0  0  0  0  0  0  0  0  0  0
   36.5340   31.1900   40.6330 H   0  0  0  0  0  0  0  0  0  0  0  0
   41.1460   32.8360   41.0090 H   0  0  0  0  0  0  0  0  0  0  0  0
   35.9310   33.3160   39.5250 H   0  0  0  0  0  0  0  0  0  0  0  0
   37.1090   34.6800   39.4700 H   0  0  0  0  0  0  0  0  0  0  0  0
   38.1890   29.4190   41.7190 C   0  0  0  0  0  3  0  0  0  0  0  0
   38.3890   29.2620   43.2090 C   0  0  0  0  0  2  0  0  0  0  0  0
   38.1850   27.7860   43.4890 C   0  0  0  0  0  2  0  0  0  0  0  0
   36.6970   27.5540   43.2830 C   0  0  0  0  0  2  0  0  0  0  0  0
   36.2410   27.8340   41.8850 C   0  0  0  0  0  2  0  0  0  0  0  0
   36.7900   29.0940   41.2910 C   0  0  0  0  0  2  0  0  0  0  0  0
  1  6  2  0  0  0  0
  1  2  1  0  0  0  0
  2  3  2  0  0  0  0
  3  4  1  0  0  0  0
  3 12  1  0  0  0  0
  5  9  1  0  0  0  0
  5  4  2  0  0  0  0
  6  5  1  0  0  0  0
  7  1  1  0  0  0  0
  8  2  1  0  0  0  0
 10  7  1  0  0  0  0
 11  7  1  0  0  0  0
 12 13  1  0  0  0  0
 13 14  1  0  0  0  0
 15 14  1  0  0  0  0
 16 15  1  0  0  0  0
 17 12  1  0  0  0  0
 17 16  1  0  0  0  0
M  END
>  <minimizedAffinity>
-4.78164387

$$$$

 OpenBabel03242516393D

 17 18  0  0  0  0  0  0  0  0999 V2000
   36.9010   30.1120   41.6120 C   0  0  0  0  0  0  0  0  0  0  0  0
   36.7880   28.7260   41.8070 C   0  0  0  0  0  0  0  0  0  0  0  0
   37.9540   27.9860   42.1330 C   0  0  0  0  0  0  0  0  0  0  0  0
   39.1090   28.6860   42.2340 N   0  0  0  0  0  0  0  0  0  0  0  0
   39.1960   30.0080   42.0450 C   0  0  0  0  0  0  0  0  0  0  0  0
   38.0970   30.7050   41.7370 N   0  0  0  0  0  0  0  0  0  0  0  0
   35.7440   30.8710   41.2850 N   0  0  0  0  0  0  0  0  0  0  0  0
   35.8400   28.2010   41.7150 H   0  0  0  0  0  0  0  0  0  0  0  0
   40.1790   30.4580   42.1540 H   0  0  0  0  0  0  0  0  0  0  0  0
   34.8420   30.3740   41.0890 H   0  0  0  0  0  0  0  0  0  0  0  0
   35.8000   31.8930   41.2410 H   0  0  0  0  0  0  0  0  0  0  0  0
   37.8210   26.5430   42.3320 C   0  0  0  0  0  3  0  0  0  0  0  0
   37.0620   25.8930   41.1980 C   0  0  0  0  0  2  0  0  0  0  0  0
   36.8110   24.4670   41.6480 C   0  0  0  0  0  2  0  0  0  0  0  0
   38.1780   23.8030   41.6150 C   0  0  0  0  0  2  0  0  0  0  0  0
   39.1630   24.4250   42.5550 C   0  0  0  0  0  2  0  0  0  0  0  0
   39.1680   25.9220   42.5510 C   0  0  0  0  0  2  0  0  0  0  0  0
  1  6  2  0  0  0  0
  1  2  1  0  0  0  0
  2  3  2  0  0  0  0
  3  4  1  0  0  0  0
  3 12  1  0  0  0  0
  5  9  1  0  0  0  0
  5  4  2  0  0  0  0
  6  5  1  0  0  0  0
  7  1  1  0  0  0  0
  8  2  1  0  0  0  0
 10  7  1  0  0  0  0
 11  7  1  0  0  0  0
 12 17  1  0  0  0  0
 13 14  1  0  0  0  0
 13 12  1  0  0  0  0
 15 14  1  0  0  0  0
 15 16  1  0  0  0  0
 17 16  1  0  0  0  0
M  END
>  <minimizedAffinity>
-4.74629974

$$$$

 OpenBabel03242516393D

 17 18  0  0  0  0  0  0  0  0999 V2000
   37.2490   32.2830   39.5160 C   0  0  0  0  0  0  0  0  0  0  0  0
   37.4140   31.2780   40.4820 C   0  0  0  0  0  0  0  0  0  0  0  0
   37.7110   29.9590   40.0500 C   0  0  0  0  0  0  0  0  0  0  0  0
   37.8160   29.7670   38.7140 N   0  0  0  0  0  0  0  0  0  0  0  0
   37.6550   30.7380   37.8080 C   0  0  0  0  0  0  0  0  0  0  0  0
   37.3740   31.9810   38.2150 N   0  0  0  0  0  0  0  0  0  0  0  0
   36.9510   33.6110   39.9280 N   0  0  0  0  0  0  0  0  0  0  0  0
   37.3210   31.4740   41.5480 H   0  0  0  0  0  0  0  0  0  0  0  0
   37.7620   30.4620   36.7630 H   0  0  0  0  0  0  0  0  0  0  0  0
   36.7540   33.8030   40.9400 H   0  0  0  0  0  0  0  0  0  0  0  0
   36.9290   34.3670   39.2370 H   0  0  0  0  0  0  0  0  0  0  0  0
   37.8790   28.9220   41.0680 C   0  0  0  0  0  3  0  0  0  0  0  0
   38.6290   29.4420   42.2740 C   0  0  0  0  0  2  0  0  0  0  0  0
   38.9200   28.2210   43.1230 C   0  0  0  0  0  2  0  0  0  0  0  0
   37.5670   27.8000   43.6750 C   0  0  0  0  0  2  0  0  0  0  0  0
   36.5890   27.4100   42.6110 C   0  0  0  0  0  2  0  0  0  0  0  0
   36.5510   28.3290   41.4300 C   0  0  0  0  0  2  0  0  0  0  0  0
  1  7  1  0  0  0  0
  1  2  1  0  0  0  0
  2  8  1  0  0  0  0
  3  2  2  0  0  0  0
  3 12  1  0  0  0  0
  4  3  1  0  0  0  0
  5  6  1  0  0  0  0
  5  4  2  0  0  0  0
  6  1  2  0  0  0  0
  7 10  1  0  0  0  0
  9  5  1  0  0  0  0
 11  7  1  0  0  0  0
 12 17  1  0  0  0  0
 12 13  1  0  0  0  0
 13 14  1  0  0  0  0
 14 15  1  0  0  0  0
 16 15  1  0  0  0  0
 17 16  1  0  0  0  0
M  END
>  <minimizedAffinity>
-4.6736412

$$$$

 OpenBabel03242516393D

 17 18  0  0  0  0  0  0  0  0999 V2000
   36.7030   29.7630   41.5210 C   0  0  0  0  0  0  0  0  0  0  0  0
   36.5920   28.4630   41.0010 C   0  0  0  0  0  0  0  0  0  0  0  0
   37.5790   27.5040   41.3460 C   0  0  0  0  0  0  0  0  0  0  0  0
   38.5720   27.9220   42.1660 N   0  0  0  0  0  0  0  0  0  0  0  0
   38.6610   29.1660   42.6520 C   0  0  0  0  0  0  0  0  0  0  0  0
   37.7310   30.0700   42.3270 N   0  0  0  0  0  0  0  0  0  0  0  0
   35.7240   30.7390   41.1880 N   0  0  0  0  0  0  0  0  0  0  0  0
   35.7770   28.1680   40.3440 H   0  0  0  0  0  0  0  0  0  0  0  0
   39.5050   29.3830   43.3010 H   0  0  0  0  0  0  0  0  0  0  0  0
   34.9910   30.5080   40.4760 H   0  0  0  0  0  0  0  0  0  0  0  0
   35.7430   31.6560   41.6440 H   0  0  0  0  0  0  0  0  0  0  0  0
   37.4500   26.1550   40.7950 C   0  0  0  0  0  3  0  0  0  0  0  0
   37.0500   25.1560   41.8560 C   0  0  0  0  0  2  0  0  0  0  0  0
   37.1780   23.7970   41.1980 C   0  0  0  0  0  2  0  0  0  0  0  0
   36.0430   23.7470   40.1880 C   0  0  0  0  0  2  0  0  0  0  0  0
   36.1480   24.7950   39.1250 C   0  0  0  0  0  2  0  0  0  0  0  0
   36.5100   26.1580   39.6270 C   0  0  0  0  0  2  0  0  0  0  0  0
  1  6  1  0  0  0  0
  2  3  1  0  0  0  0
  2  1  2  0  0  0  0
  3  4  2  0  0  0  0
  4  5  1  0  0  0  0
  5  9  1  0  0  0  0
  6  5  2  0  0  0  0
  7  1  1  0  0  0  0
  7 11  1  0  0  0  0
  8  2  1  0  0  0  0
 10  7  1  0  0  0  0
 12  3  1  0  0  0  0
 12 13  1  0  0  0  0
 14 13  1  0  0  0  0
 15 14  1  0  0  0  0
 16 17  1  0  0  0  0
 16 15  1  0  0  0  0
 17 12  1  0  0  0  0
M  END
>  <minimizedAffinity>
-4.55660772

$$$$

 OpenBabel03242516393D

 17 18  0  0  0  0  0  0  0  0999 V2000
   42.8060   25.9920   43.5350 C   0  0  0  0  0  0  0  0  0  0  0  0
   41.4060   26.0840   43.5700 C   0  0  0  0  0  0  0  0  0  0  0  0
   40.8040   27.3650   43.4670 C   0  0  0  0  0  0  0  0  0  0  0  0
   41.6420   28.4220   43.3420 N   0  0  0  0  0  0  0  0  0  0  0  0
   42.9750   28.3130   43.3110 C   0  0  0  0  0  0  0  0  0  0  0  0
   43.5430   27.1060   43.4080 N   0  0  0  0  0  0  0  0  0  0  0  0
   43.4290   24.7170   43.6360 N   0  0  0  0  0  0  0  0  0  0  0  0
   40.7680   25.2090   43.6720 H   0  0  0  0  0  0  0  0  0  0  0  0
   43.5430   29.2340   43.2080 H   0  0  0  0  0  0  0  0  0  0  0  0
   42.8420   23.8740   43.8410 H   0  0  0  0  0  0  0  0  0  0  0  0
   44.4420   24.6340   43.5110 H   0  0  0  0  0  0  0  0  0  0  0  0
   39.3440   27.4450   43.5050 C   0  0  0  0  0  3  0  0  0  0  0  0
   38.8430   28.7510   42.9330 C   0  0  0  0  0  2  0  0  0  0  0  0
   37.3600   28.7840   43.2440 C   0  0  0  0  0  2  0  0  0  0  0  0
   36.7500   27.7200   42.3450 C   0  0  0  0  0  2  0  0  0  0  0  0
   37.2590   26.3410   42.6280 C   0  0  0  0  0  2  0  0  0  0  0  0
   38.7400   26.2510   42.8280 C   0  0  0  0  0  2  0  0  0  0  0  0
  1  2  1  0  0  0  0
  1  7  1  0  0  0  0
  2  8  1  0  0  0  0
  3 12  1  0  0  0  0
  3  2  2  0  0  0  0
  4  3  1  0  0  0  0
  5  4  2  0  0  0  0
  5  6  1  0  0  0  0
  6  1  2  0  0  0  0
  7 10  1  0  0  0  0
  9  5  1  0  0  0  0
 11  7  1  0  0  0  0
 13 14  1  0  0  0  0
 13 12  1  0  0  0  0
 15 16  1  0  0  0  0
 15 14  1  0  0  0  0
 16 17  1  0  0  0  0
 17 12  1  0  0  0  0
M  END
>  <minimizedAffinity>
-4.49061155

$$$$

 OpenBabel03242516393D

 17 18  0  0  0  0  0  0  0  0999 V2000
   37.5470   31.1360   37.9760 C   0  0  0  0  0  0  0  0  0  0  0  0
   37.6820   30.0660   38.8760 C   0  0  0  0  0  0  0  0  0  0  0  0
   37.5790   30.3280   40.2660 C   0  0  0  0  0  0  0  0  0  0  0  0
   37.3550   31.6140   40.6280 N   0  0  0  0  0  0  0  0  0  0  0  0
   37.2300   32.6200   39.7550 C   0  0  0  0  0  0  0  0  0  0  0  0
   37.3260   32.3740   38.4430 N   0  0  0  0  0  0  0  0  0  0  0  0
   37.6460   30.8940   36.5780 N   0  0  0  0  0  0  0  0  0  0  0  0
   37.8620   29.0460   38.5440 H   0  0  0  0  0  0  0  0  0  0  0  0
   37.0520   33.6100   40.1650 H   0  0  0  0  0  0  0  0  0  0  0  0
   37.9230   29.9420   36.2400 H   0  0  0  0  0  0  0  0  0  0  0  0
   37.4490   31.6500   35.9150 H   0  0  0  0  0  0  0  0  0  0  0  0
   37.7230   29.2040   41.1910 C   0  0  0  0  0  3  0  0  0  0  0  0
   38.4440   29.6110   42.4550 C   0  0  0  0  0  2  0  0  0  0  0  0
   38.7150   28.3190   43.1990 C   0  0  0  0  0  2  0  0  0  0  0  0
   37.3490   27.8540   43.6790 C   0  0  0  0  0  2  0  0  0  0  0  0
   36.3950   27.5630   42.5620 C   0  0  0  0  0  2  0  0  0  0  0  0
   36.3860   28.5840   41.4680 C   0  0  0  0  0  2  0  0  0  0  0  0
  1  6  2  0  0  0  0
  1  2  1  0  0  0  0
  2  3  2  0  0  0  0
  3  4  1  0  0  0  0
  3 12  1  0  0  0  0
  5  9  1  0  0  0  0
  5  4  2  0  0  0  0
  6  5  1  0  0  0  0
  7  1  1  0  0  0  0
  8  2  1  0  0  0  0
 10  7  1  0  0  0  0
 11  7  1  0  0  0  0
 12 17  1  0  0  0  0
 12 13  1  0  0  0  0
 13 14  1  0  0  0  0
 14 15  1  0  0  0  0
 16 15  1  0  0  0  0
 17 16  1  0  0  0  0
M  END
>  <minimizedAffinity>
-4.42777443

$$$$

 OpenBabel03242516393D

 17 18  0  0  0  0  0  0  0  0999 V2000
   39.4890   32.2710   41.0780 C   0  0  0  0  0  0  0  0  0  0  0  0
   39.0460   31.0240   41.5480 C   0  0  0  0  0  0  0  0  0  0  0  0
   37.7180   30.6190   41.2580 C   0  0  0  0  0  0  0  0  0  0  0  0
   36.9630   31.4830   40.5380 N   0  0  0  0  0  0  0  0  0  0  0  0
   37.4030   32.6680   40.0990 C   0  0  0  0  0  0  0  0  0  0  0  0
   38.6550   33.0500   40.3720 N   0  0  0  0  0  0  0  0  0  0  0  0
   40.8170   32.6960   41.3570 N   0  0  0  0  0  0  0  0  0  0  0  0
   39.6850   30.3600   42.1240 H   0  0  0  0  0  0  0  0  0  0  0  0
   36.7030   33.2740   39.5300 H   0  0  0  0  0  0  0  0  0  0  0  0
   41.4160   32.1210   41.9980 H   0  0  0  0  0  0  0  0  0  0  0  0
   41.1770   33.5560   40.9340 H   0  0  0  0  0  0  0  0  0  0  0  0
   37.2710   29.3180   41.7540 C   0  0  0  0  0  3  0  0  0  0  0  0
   37.6760   28.1980   40.8240 C   0  0  0  0  0  2  0  0  0  0  0  0
   36.9610   26.9660   41.3410 C   0  0  0  0  0  2  0  0  0  0  0  0
   37.6550   26.6360   42.6520 C   0  0  0  0  0  2  0  0  0  0  0  0
   37.5300   27.7170   43.6790 C   0  0  0  0  0  2  0  0  0  0  0  0
   37.7550   29.1020   43.1570 C   0  0  0  0  0  2  0  0  0  0  0  0
  1  7  1  0  0  0  0
  1  2  1  0  0  0  0
  2  8  1  0  0  0  0
  3  2  2  0  0  0  0
  3 12  1  0  0  0  0
  4  3  1  0  0  0  0
  5  6  1  0  0  0  0
  5  4  2  0  0  0  0
  6  1  2  0  0  0  0
  7 10  1  0  0  0  0
  9  5  1  0  0  0  0
 11  7  1  0  0  0  0
 12 17  1  0  0  0  0
 13 14  1  0  0  0  0
 13 12  1  0  0  0  0
 14 15  1  0  0  0  0
 15 16  1  0  0  0  0
 17 16  1  0  0  0  0
M  END
>  <minimizedAffinity>
-4.39847946

$$$$

 OpenBabel03242516393D

 17 18  0  0  0  0  0  0  0  0999 V2000
   39.4960   32.4240   41.1410 C   0  0  0  0  0  0  0  0  0  0  0  0
   38.5000   31.5140   40.7520 C   0  0  0  0  0  0  0  0  0  0  0  0
   37.4050   31.9890   39.9860 C   0  0  0  0  0  0  0  0  0  0  0  0
   37.4020   33.3090   39.6830 N   0  0  0  0  0  0  0  0  0  0  0  0
   38.3610   34.1610   40.0630 C   0  0  0  0  0  0  0  0  0  0  0  0
   39.3940   33.7140   40.7850 N   0  0  0  0  0  0  0  0  0  0  0  0
   40.6030   31.9680   41.9090 N   0  0  0  0  0  0  0  0  0  0  0  0
   38.5400   30.4600   41.0170 H   0  0  0  0  0  0  0  0  0  0  0  0
   38.2490   35.1980   39.7590 H   0  0  0  0  0  0  0  0  0  0  0  0
   40.6100   30.9820   42.2650 H   0  0  0  0  0  0  0  0  0  0  0  0
   41.3810   32.6040   42.1090 H   0  0  0  0  0  0  0  0  0  0  0  0
   36.3740   31.0300   39.5890 C   0  0  0  0  0  3  0  0  0  0  0  0
   36.7960   30.2300   38.3770 C   0  0  0  0  0  2  0  0  0  0  0  0
   35.5610   29.4580   37.9560 C   0  0  0  0  0  2  0  0  0  0  0  0
   35.3650   28.4150   39.0450 C   0  0  0  0  0  2  0  0  0  0  0  0
   35.1090   29.0090   40.3950 C   0  0  0  0  0  2  0  0  0  0  0  0
   36.0000   30.1580   40.7500 C   0  0  0  0  0  2  0  0  0  0  0  0
  1  7  1  0  0  0  0
  2  8  1  0  0  0  0
  2  1  2  0  0  0  0
  3  2  1  0  0  0  0
  4  3  2  0  0  0  0
  4  5  1  0  0  0  0
  5  6  2  0  0  0  0
  6  1  1  0  0  0  0
  7 11  1  0  0  0  0
  7 10  1  0  0  0  0
  9  5  1  0  0  0  0
 12  3  1  0  0  0  0
 12 17  1  0  0  0  0
 13 12  1  0  0  0  0
 14 13  1  0  0  0  0
 14 15  1  0  0  0  0
 15 16  1  0  0  0  0
 16 17  1  0  0  0  0
M  END
>  <minimizedAffinity>
-4.38578224

$$$$

 OpenBabel03242516393D

 17 18  0  0  0  0  0  0  0  0999 V2000
   39.7970   32.6530   38.5370 C   0  0  0  0  0  0  0  0  0  0  0  0
   38.8830   31.5870   38.5120 C   0  0  0  0  0  0  0  0  0  0  0  0
   38.0200   31.4030   39.6230 C   0  0  0  0  0  0  0  0  0  0  0  0
   38.1450   32.2850   40.6430 N   0  0  0  0  0  0  0  0  0  0  0  0
   39.0230   33.2950   40.6480 C   0  0  0  0  0  0  0  0  0  0  0  0
   39.8370   33.4690   39.6010 N   0  0  0  0  0  0  0  0  0  0  0  0
   40.6700   32.8550   37.4330 N   0  0  0  0  0  0  0  0  0  0  0  0
   38.8140   30.9000   37.6720 H   0  0  0  0  0  0  0  0  0  0  0  0
   39.0300   33.9380   41.5240 H   0  0  0  0  0  0  0  0  0  0  0  0
   40.6960   32.1460   36.6620 H   0  0  0  0  0  0  0  0  0  0  0  0
   41.2670   33.6870   37.4010 H   0  0  0  0  0  0  0  0  0  0  0  0
   37.0730   30.2880   39.5820 C   0  0  0  0  0  3  0  0  0  0  0  0
   36.0650   30.3730   40.7050 C   0  0  0  0  0  2  0  0  0  0  0  0
   35.3120   29.0580   40.6690 C   0  0  0  0  0  2  0  0  0  0  0  0
   34.4730   29.1250   39.4040 C   0  0  0  0  0  2  0  0  0  0  0  0
   35.2900   29.2320   38.1540 C   0  0  0  0  0  2  0  0  0  0  0  0
   36.4250   30.2060   38.2330 C   0  0  0  0  0  2  0  0  0  0  0  0
  1  6  1  0  0  0  0
  2  1  2  0  0  0  0
  2  3  1  0  0  0  0
  3  4  2  0  0  0  0
  4  5  1  0  0  0  0
  5  9  1  0  0  0  0
  6  5  2  0  0  0  0
  7  1  1  0  0  0  0
  8  2  1  0  0  0  0
 10  7  1  0  0  0  0
 11  7  1  0  0  0  0
 12  3  1  0  0  0  0
 12 13  1  0  0  0  0
 14 13  1  0  0  0  0
 15 14  1  0  0  0  0
 16 17  1  0  0  0  0
 16 15  1  0  0  0  0
 17 12  1  0  0  0  0
M  END
>  <minimizedAffinity>
-4.33694172

$$$$
