
 OpenBabel03242513153D

 27 29  0  0  0  0  0  0  0  0999 V2000
   39.4860   28.0390   40.0010 Cl  0  0  0  0  0  0  0  0  0  0  0  0
   38.4810   27.9170   41.4580 C   0  0  0  0  0  0  0  0  0  0  0  0
   38.3830   28.9770   42.2840 C   0  0  0  0  0  0  0  0  0  0  0  0
   37.5680   28.8310   43.3730 C   0  0  0  0  0  0  0  0  0  0  0  0
   36.8920   27.6660   43.6080 C   0  0  0  0  0  0  0  0  0  0  0  0
   37.0100   26.5740   42.7370 C   0  0  0  0  0  0  0  0  0  0  0  0
   37.8370   26.7190   41.6250 C   0  0  0  0  0  0  0  0  0  0  0  0
   37.3450   29.5510   44.1310 H   0  0  0  0  0  0  0  0  0  0  0  0
   36.2230   27.4900   44.4690 H   0  0  0  0  0  0  0  0  0  0  0  0
   36.4410   25.6660   42.9690 H   0  0  0  0  0  0  0  0  0  0  0  0
   37.9900   25.6230   40.6740 C   0  0  0  0  0  3  0  0  0  0  0  0
   37.0060   25.2570   39.7010 C   0  0  0  0  0  2  0  0  0  0  0  0
   36.2010   24.0540   40.2110 C   0  0  0  0  0  2  0  0  0  0  0  0
   37.0450   22.8010   40.0630 C   0  0  0  0  0  2  0  0  0  0  0  0
   38.4370   23.1650   40.5490 C   0  0  0  0  0  2  0  0  0  0  0  0
   38.3970   24.3890   41.4480 C   0  0  0  0  0  2  0  0  0  0  0  0
   39.1290   30.1860   42.0180 C   0  0  0  0  0  0  0  0  0  0  0  0
   40.2790   30.2580   42.5240 O   0  0  0  0  0  0  0  0  0  0  0  0
   36.9990   31.9970   39.7100 C   0  0  0  0  0  0  0  0  0  0  0  0
   37.5120   33.2870   39.6750 C   0  0  0  0  0  0  0  0  0  0  0  0
   38.6250   33.5040   40.4790 C   0  0  0  0  0  0  0  0  0  0  0  0
   39.1290   32.4850   41.2250 N   0  0  0  0  0  0  0  0  0  0  0  0
   38.5970   31.2590   41.2220 C   0  0  0  0  0  0  0  0  0  0  0  0
   37.5290   31.0400   40.4540 N   0  0  0  0  0  0  0  0  0  0  0  0
   36.1300   31.7500   39.1070 H   0  0  0  0  0  0  0  0  0  0  0  0
   37.0460   34.0230   39.0570 H   0  0  0  0  0  0  0  0  0  0  0  0
   39.0610   34.4980   40.4860 H   0  0  0  0  0  0  0  0  0  0  0  0
  1  2  1  0  0  0  0
  2  7  2  0  0  0  0
  2  3  1  0  0  0  0
  3  4  2  0  0  0  0
  4  5  1  0  0  0  0
  4  8  1  0  0  0  0
  5  9  1  0  0  0  0
  6 10  1  0  0  0  0
  6  5  2  0  0  0  0
  7  6  1  0  0  0  0
 11 16  1  0  0  0  0
 11  7  1  0  0  0  0
 12 13  1  0  0  0  0
 12 11  1  0  0  0  0
 14 13  1  0  0  0  0
 14 15  1  0  0  0  0
 15 16  1  0  0  0  0
 17  3  1  0  0  0  0
 17 18  2  0  0  0  0
 19 24  1  0  0  0  0
 20 19  2  0  0  0  0
 20 21  1  0  0  0  0
 21 27  1  0  0  0  0
 21 22  2  0  0  0  0
 23 22  1  0  0  0  0
 23 17  1  0  0  0  0
 24 23  2  0  0  0  0
 25 19  1  0  0  0  0
 26 20  1  0  0  0  0
M  END
>  <minimizedAffinity>
-5.76544333

$$$$

 OpenBabel03242513153D

 27 29  0  0  0  0  0  0  0  0999 V2000
   36.7180   26.4580   39.7700 Cl  0  0  0  0  0  0  0  0  0  0  0  0
   37.1830   27.3420   41.2360 C   0  0  0  0  0  0  0  0  0  0  0  0
   36.7520   28.6070   41.4110 C   0  0  0  0  0  0  0  0  0  0  0  0
   37.1190   29.2240   42.5740 C   0  0  0  0  0  0  0  0  0  0  0  0
   37.8860   28.5860   43.5100 C   0  0  0  0  0  0  0  0  0  0  0  0
   38.3270   27.2710   43.3070 C   0  0  0  0  0  0  0  0  0  0  0  0
   37.9530   26.6380   42.1230 C   0  0  0  0  0  0  0  0  0  0  0  0
   36.8680   30.2090   42.9070 H   0  0  0  0  0  0  0  0  0  0  0  0
   38.2130   29.0330   44.4660 H   0  0  0  0  0  0  0  0  0  0  0  0
   38.9340   26.8050   44.0920 H   0  0  0  0  0  0  0  0  0  0  0  0
   38.3690   25.2640   41.8620 C   0  0  0  0  0  3  0  0  0  0  0  0
   39.5310   24.9030   41.1080 C   0  0  0  0  0  2  0  0  0  0  0  0
   39.1220   24.5350   39.6750 C   0  0  0  0  0  2  0  0  0  0  0  0
   38.5010   23.1500   39.6840 C   0  0  0  0  0  2  0  0  0  0  0  0
   37.5620   23.1110   40.8760 C   0  0  0  0  0  2  0  0  0  0  0  0
   37.1760   24.5140   41.3110 C   0  0  0  0  0  2  0  0  0  0  0  0
   35.9610   29.2590   40.3920 C   0  0  0  0  0  0  0  0  0  0  0  0
   34.7190   29.0630   40.4350 O   0  0  0  0  0  0  0  0  0  0  0  0
   37.3030   32.1850   38.7220 C   0  0  0  0  0  0  0  0  0  0  0  0
   37.6940   31.7410   37.4660 C   0  0  0  0  0  0  0  0  0  0  0  0
   37.4730   30.3910   37.2190 C   0  0  0  0  0  0  0  0  0  0  0  0
   36.9100   29.6110   38.1800 N   0  0  0  0  0  0  0  0  0  0  0  0
   36.5490   30.0890   39.3750 C   0  0  0  0  0  0  0  0  0  0  0  0
   36.7570   31.3830   39.6220 N   0  0  0  0  0  0  0  0  0  0  0  0
   37.4420   33.2280   38.9890 H   0  0  0  0  0  0  0  0  0  0  0  0
   38.1300   32.4300   36.7760 H   0  0  0  0  0  0  0  0  0  0  0  0
   37.7640   29.9980   36.2500 H   0  0  0  0  0  0  0  0  0  0  0  0
  1  2  1  0  0  0  0
  2  3  2  0  0  0  0
  2  7  1  0  0  0  0
  3  4  1  0  0  0  0
  4  8  1  0  0  0  0
  4  5  2  0  0  0  0
  5  9  1  0  0  0  0
  6  5  1  0  0  0  0
  6 10  1  0  0  0  0
  7  6  2  0  0  0  0
 11  7  1  0  0  0  0
 12 11  1  0  0  0  0
 13 14  1  0  0  0  0
 13 12  1  0  0  0  0
 14 15  1  0  0  0  0
 15 16  1  0  0  0  0
 16 11  1  0  0  0  0
 17 18  2  0  0  0  0
 17  3  1  0  0  0  0
 19 25  1  0  0  0  0
 19 24  1  0  0  0  0
 20 19  2  0  0  0  0
 21 20  1  0  0  0  0
 21 22  2  0  0  0  0
 22 23  1  0  0  0  0
 23 24  2  0  0  0  0
 23 17  1  0  0  0  0
 26 20  1  0  0  0  0
 27 21  1  0  0  0  0
M  END
>  <minimizedAffinity>
-5.59326887

$$$$

 OpenBabel03242513153D

 27 29  0  0  0  0  0  0  0  0999 V2000
   39.2690   28.9620   42.4010 Cl  0  0  0  0  0  0  0  0  0  0  0  0
   37.7900   29.2680   41.4710 C   0  0  0  0  0  0  0  0  0  0  0  0
   36.7350   28.4420   41.6150 C   0  0  0  0  0  0  0  0  0  0  0  0
   35.6140   28.7470   40.8950 C   0  0  0  0  0  0  0  0  0  0  0  0
   35.5710   29.8370   40.0700 C   0  0  0  0  0  0  0  0  0  0  0  0
   36.6800   30.6820   39.9310 C   0  0  0  0  0  0  0  0  0  0  0  0
   37.8240   30.3750   40.6650 C   0  0  0  0  0  0  0  0  0  0  0  0
   34.6760   28.2330   40.8820 H   0  0  0  0  0  0  0  0  0  0  0  0
   34.6950   30.1330   39.4640 H   0  0  0  0  0  0  0  0  0  0  0  0
   36.5890   31.5460   39.2610 H   0  0  0  0  0  0  0  0  0  0  0  0
   39.0060   31.2260   40.5750 C   0  0  0  0  0  3  0  0  0  0  0  0
   39.2380   32.3730   41.3980 C   0  0  0  0  0  2  0  0  0  0  0  0
   38.8650   33.6460   40.6240 C   0  0  0  0  0  2  0  0  0  0  0  0
   39.9620   33.9460   39.6180 C   0  0  0  0  0  2  0  0  0  0  0  0
   40.3150   32.6220   38.9650 C   0  0  0  0  0  2  0  0  0  0  0  0
   39.1870   31.6170   39.1250 C   0  0  0  0  0  2  0  0  0  0  0  0
   36.8220   27.2860   42.4790 C   0  0  0  0  0  0  0  0  0  0  0  0
   36.3610   27.4190   43.6420 O   0  0  0  0  0  0  0  0  0  0  0  0
   37.3560   24.2360   40.5910 C   0  0  0  0  0  0  0  0  0  0  0  0
   38.4840   23.6530   41.1520 C   0  0  0  0  0  0  0  0  0  0  0  0
   39.0510   24.3550   42.2100 C   0  0  0  0  0  0  0  0  0  0  0  0
   38.4940   25.5250   42.6210 N   0  0  0  0  0  0  0  0  0  0  0  0
   37.4040   26.0440   42.0470 C   0  0  0  0  0  0  0  0  0  0  0  0
   36.8530   25.3780   41.0310 N   0  0  0  0  0  0  0  0  0  0  0  0
   36.8560   23.7470   39.7610 H   0  0  0  0  0  0  0  0  0  0  0  0
   38.8510   22.7290   40.7590 H   0  0  0  0  0  0  0  0  0  0  0  0
   39.9370   23.9380   42.6790 H   0  0  0  0  0  0  0  0  0  0  0  0
  2  3  1  0  0  0  0
  2  1  1  0  0  0  0
  3 17  1  0  0  0  0
  4  3  2  0  0  0  0
  5  4  1  0  0  0  0
  6  5  2  0  0  0  0
  6  7  1  0  0  0  0
  7  2  2  0  0  0  0
  8  4  1  0  0  0  0
  9  5  1  0  0  0  0
 10  6  1  0  0  0  0
 11  7  1  0  0  0  0
 11 12  1  0  0  0  0
 13 12  1  0  0  0  0
 14 13  1  0  0  0  0
 15 16  1  0  0  0  0
 15 14  1  0  0  0  0
 16 11  1  0  0  0  0
 17 18  2  0  0  0  0
 19 24  2  0  0  0  0
 19 20  1  0  0  0  0
 20 21  2  0  0  0  0
 21 22  1  0  0  0  0
 21 27  1  0  0  0  0
 23 17  1  0  0  0  0
 23 22  2  0  0  0  0
 24 23  1  0  0  0  0
 25 19  1  0  0  0  0
 26 20  1  0  0  0  0
M  END
>  <minimizedAffinity>
-5.43905926

$$$$

 OpenBabel03242513153D

 27 29  0  0  0  0  0  0  0  0999 V2000
   37.4910   28.4470   39.2470 Cl  0  0  0  0  0  0  0  0  0  0  0  0
   37.5380   28.1900   41.0020 C   0  0  0  0  0  0  0  0  0  0  0  0
   37.4500   29.2510   41.8270 C   0  0  0  0  0  0  0  0  0  0  0  0
   37.4600   28.9860   43.1690 C   0  0  0  0  0  0  0  0  0  0  0  0
   37.5570   27.7070   43.6430 C   0  0  0  0  0  0  0  0  0  0  0  0
   37.6500   26.6170   42.7670 C   0  0  0  0  0  0  0  0  0  0  0  0
   37.6380   26.8830   41.3990 C   0  0  0  0  0  0  0  0  0  0  0  0
   37.3840   29.6790   43.9800 H   0  0  0  0  0  0  0  0  0  0  0  0
   37.5710   27.4320   44.7130 H   0  0  0  0  0  0  0  0  0  0  0  0
   37.7190   25.6120   43.2000 H   0  0  0  0  0  0  0  0  0  0  0  0
   37.7170   25.7890   40.4360 C   0  0  0  0  0  3  0  0  0  0  0  0
   36.5830   25.0860   39.9200 C   0  0  0  0  0  2  0  0  0  0  0  0
   36.4120   23.7600   40.6740 C   0  0  0  0  0  2  0  0  0  0  0  0
   37.4520   22.7740   40.1730 C   0  0  0  0  0  2  0  0  0  0  0  0
   38.7580   23.5430   40.0820 C   0  0  0  0  0  2  0  0  0  0  0  0
   38.7220   24.7850   40.9560 C   0  0  0  0  0  2  0  0  0  0  0  0
   37.3710   30.5920   41.2930 C   0  0  0  0  0  0  0  0  0  0  0  0
   36.2170   31.0740   41.1550 O   0  0  0  0  0  0  0  0  0  0  0  0
   39.5480   32.8740   39.5040 C   0  0  0  0  0  0  0  0  0  0  0  0
   40.7550   32.8390   40.1890 C   0  0  0  0  0  0  0  0  0  0  0  0
   40.7870   31.9940   41.2920 C   0  0  0  0  0  0  0  0  0  0  0  0
   39.6810   31.2770   41.6270 N   0  0  0  0  0  0  0  0  0  0  0  0
   38.5410   31.3460   40.9320 C   0  0  0  0  0  0  0  0  0  0  0  0
   38.5000   32.1540   39.8720 N   0  0  0  0  0  0  0  0  0  0  0  0
   39.4460   33.5100   38.6300 H   0  0  0  0  0  0  0  0  0  0  0  0
   41.5700   33.4410   39.8500 H   0  0  0  0  0  0  0  0  0  0  0  0
   41.7100   31.9340   41.8600 H   0  0  0  0  0  0  0  0  0  0  0  0
  1  2  1  0  0  0  0
  2  7  2  0  0  0  0
  2  3  1  0  0  0  0
  3  4  2  0  0  0  0
  4  5  1  0  0  0  0
  4  8  1  0  0  0  0
  5  9  1  0  0  0  0
  6 10  1  0  0  0  0
  6  5  2  0  0  0  0
  7  6  1  0  0  0  0
 11 16  1  0  0  0  0
 11  7  1  0  0  0  0
 12 11  1  0  0  0  0
 12 13  1  0  0  0  0
 14 13  1  0  0  0  0
 15 14  1  0  0  0  0
 15 16  1  0  0  0  0
 17  3  1  0  0  0  0
 18 17  2  0  0  0  0
 19 24  2  0  0  0  0
 19 20  1  0  0  0  0
 20 21  2  0  0  0  0
 21 22  1  0  0  0  0
 21 27  1  0  0  0  0
 23 17  1  0  0  0  0
 23 22  2  0  0  0  0
 24 23  1  0  0  0  0
 25 19  1  0  0  0  0
 26 20  1  0  0  0  0
M  END
>  <minimizedAffinity>
-5.39288616

$$$$

 OpenBabel03242513153D

 27 29  0  0  0  0  0  0  0  0999 V2000
   39.4520   30.9300   41.7340 Cl  0  0  0  0  0  0  0  0  0  0  0  0
   38.2260   30.7240   40.4690 C   0  0  0  0  0  0  0  0  0  0  0  0
   38.0390   31.7040   39.5630 C   0  0  0  0  0  0  0  0  0  0  0  0
   37.1010   31.4740   38.5950 C   0  0  0  0  0  0  0  0  0  0  0  0
   36.3900   30.3070   38.5540 C   0  0  0  0  0  0  0  0  0  0  0  0
   36.5980   29.3000   39.5070 C   0  0  0  0  0  0  0  0  0  0  0  0
   37.5550   29.5310   40.4940 C   0  0  0  0  0  0  0  0  0  0  0  0
   36.8180   32.1110   37.7840 H   0  0  0  0  0  0  0  0  0  0  0  0
   35.6210   30.0650   37.7980 H   0  0  0  0  0  0  0  0  0  0  0  0
   36.0060   28.3810   39.4240 H   0  0  0  0  0  0  0  0  0  0  0  0
   37.8260   28.5150   41.5060 C   0  0  0  0  0  3  0  0  0  0  0  0
   38.5330   27.2970   41.2550 C   0  0  0  0  0  2  0  0  0  0  0  0
   37.5300   26.1480   41.0750 C   0  0  0  0  0  2  0  0  0  0  0  0
   36.9970   25.7450   42.4380 C   0  0  0  0  0  2  0  0  0  0  0  0
   36.6910   27.0380   43.1750 C   0  0  0  0  0  2  0  0  0  0  0  0
   36.5230   28.1920   42.2020 C   0  0  0  0  0  2  0  0  0  0  0  0
   38.7920   32.9360   39.6490 C   0  0  0  0  0  0  0  0  0  0  0  0
   38.2670   33.8690   40.3090 O   0  0  0  0  0  0  0  0  0  0  0  0
   42.1380   34.1580   38.9740 C   0  0  0  0  0  0  0  0  0  0  0  0
   42.5650   33.4550   37.8560 C   0  0  0  0  0  0  0  0  0  0  0  0
   41.6490   32.5430   37.3440 C   0  0  0  0  0  0  0  0  0  0  0  0
   40.4360   32.3950   37.9400 N   0  0  0  0  0  0  0  0  0  0  0  0
   40.0730   33.1000   39.0160 C   0  0  0  0  0  0  0  0  0  0  0  0
   40.9440   33.9770   39.5160 N   0  0  0  0  0  0  0  0  0  0  0  0
   42.7970   34.8900   39.4310 H   0  0  0  0  0  0  0  0  0  0  0  0
   43.5390   33.6380   37.4580 H   0  0  0  0  0  0  0  0  0  0  0  0
   41.9390   31.9680   36.4700 H   0  0  0  0  0  0  0  0  0  0  0  0
  2  7  1  0  0  0  0
  2  1  1  0  0  0  0
  3 17  1  0  0  0  0
  3  2  2  0  0  0  0
  4  3  1  0  0  0  0
  5  4  2  0  0  0  0
  5  6  1  0  0  0  0
  6  7  2  0  0  0  0
  7 11  1  0  0  0  0
  8  4  1  0  0  0  0
  9  5  1  0  0  0  0
 10  6  1  0  0  0  0
 11 16  1  0  0  0  0
 12 11  1  0  0  0  0
 13 12  1  0  0  0  0
 13 14  1  0  0  0  0
 14 15  1  0  0  0  0
 16 15  1  0  0  0  0
 17 18  2  0  0  0  0
 19 25  1  0  0  0  0
 19 24  1  0  0  0  0
 20 19  2  0  0  0  0
 21 20  1  0  0  0  0
 21 22  2  0  0  0  0
 22 23  1  0  0  0  0
 23 24  2  0  0  0  0
 23 17  1  0  0  0  0
 26 20  1  0  0  0  0
 27 21  1  0  0  0  0
M  END
>  <minimizedAffinity>
-5.36845446

$$$$

 OpenBabel03242513153D

 27 29  0  0  0  0  0  0  0  0999 V2000
   40.7220   29.8530   39.9200 Cl  0  0  0  0  0  0  0  0  0  0  0  0
   39.3110   30.9280   39.9670 C   0  0  0  0  0  0  0  0  0  0  0  0
   39.3580   32.1080   39.3190 C   0  0  0  0  0  0  0  0  0  0  0  0
   38.2290   32.8790   39.3660 C   0  0  0  0  0  0  0  0  0  0  0  0
   37.1130   32.4670   40.0400 C   0  0  0  0  0  0  0  0  0  0  0  0
   37.0860   31.2360   40.7100 C   0  0  0  0  0  0  0  0  0  0  0  0
   38.2340   30.4470   40.6620 C   0  0  0  0  0  0  0  0  0  0  0  0
   38.0590   33.8300   38.9100 H   0  0  0  0  0  0  0  0  0  0  0  0
   36.1740   33.0450   40.1140 H   0  0  0  0  0  0  0  0  0  0  0  0
   36.1620   30.9520   41.2290 H   0  0  0  0  0  0  0  0  0  0  0  0
   38.2620   29.1490   41.3270 C   0  0  0  0  0  3  0  0  0  0  0  0
   37.4260   28.0430   40.9720 C   0  0  0  0  0  2  0  0  0  0  0  0
   36.2370   27.9660   41.9410 C   0  0  0  0  0  2  0  0  0  0  0  0
   36.7170   27.3860   43.2590 C   0  0  0  0  0  2  0  0  0  0  0  0
   38.0310   28.0770   43.5750 C   0  0  0  0  0  2  0  0  0  0  0  0
   38.1540   29.3870   42.8170 C   0  0  0  0  0  2  0  0  0  0  0  0
   40.5630   32.5230   38.6360 C   0  0  0  0  0  0  0  0  0  0  0  0
   40.5740   32.3840   37.3850 O   0  0  0  0  0  0  0  0  0  0  0  0
   43.9750   33.5070   39.3690 C   0  0  0  0  0  0  0  0  0  0  0  0
   43.9210   34.1060   40.6200 C   0  0  0  0  0  0  0  0  0  0  0  0
   42.6590   34.1540   41.2010 C   0  0  0  0  0  0  0  0  0  0  0  0
   41.5900   33.6340   40.5400 N   0  0  0  0  0  0  0  0  0  0  0  0
   41.6960   33.0650   39.3350 C   0  0  0  0  0  0  0  0  0  0  0  0
   42.9030   33.0140   38.7690 N   0  0  0  0  0  0  0  0  0  0  0  0
   44.9260   33.4310   38.8520 H   0  0  0  0  0  0  0  0  0  0  0  0
   44.8160   34.4880   41.0600 H   0  0  0  0  0  0  0  0  0  0  0  0
   42.5670   34.6140   42.1790 H   0  0  0  0  0  0  0  0  0  0  0  0
  1  2  1  0  0  0  0
  2  7  1  0  0  0  0
  3  4  1  0  0  0  0
  3  2  2  0  0  0  0
  4  5  2  0  0  0  0
  5  9  1  0  0  0  0
  5  6  1  0  0  0  0
  6 10  1  0  0  0  0
  7  6  2  0  0  0  0
  7 11  1  0  0  0  0
  8  4  1  0  0  0  0
 11 16  1  0  0  0  0
 12 11  1  0  0  0  0
 12 13  1  0  0  0  0
 13 14  1  0  0  0  0
 14 15  1  0  0  0  0
 16 15  1  0  0  0  0
 17  3  1  0  0  0  0
 17 23  1  0  0  0  0
 18 17  2  0  0  0  0
 19 20  1  0  0  0  0
 20 26  1  0  0  0  0
 20 21  2  0  0  0  0
 21 27  1  0  0  0  0
 22 21  1  0  0  0  0
 23 22  2  0  0  0  0
 24 23  1  0  0  0  0
 24 19  2  0  0  0  0
 25 19  1  0  0  0  0
M  END
>  <minimizedAffinity>
-5.29508162

$$$$

 OpenBabel03242513153D

 27 29  0  0  0  0  0  0  0  0999 V2000
   40.0670   28.6020   41.1730 Cl  0  0  0  0  0  0  0  0  0  0  0  0
   38.4050   29.1990   41.0010 C   0  0  0  0  0  0  0  0  0  0  0  0
   38.1850   30.5260   40.9170 C   0  0  0  0  0  0  0  0  0  0  0  0
   36.8870   30.9230   40.7540 C   0  0  0  0  0  0  0  0  0  0  0  0
   35.8670   30.0150   40.6850 C   0  0  0  0  0  0  0  0  0  0  0  0
   36.1160   28.6390   40.7780 C   0  0  0  0  0  0  0  0  0  0  0  0
   37.4390   28.2310   40.9410 C   0  0  0  0  0  0  0  0  0  0  0  0
   36.5080   31.9180   40.6510 H   0  0  0  0  0  0  0  0  0  0  0  0
   34.8000   30.2760   40.5560 H   0  0  0  0  0  0  0  0  0  0  0  0
   35.2620   27.9540   40.7090 H   0  0  0  0  0  0  0  0  0  0  0  0
   37.7640   26.8110   41.0290 C   0  0  0  0  0  3  0  0  0  0  0  0
   37.8020   25.9210   39.9090 C   0  0  0  0  0  2  0  0  0  0  0  0
   36.4960   25.1170   39.8460 C   0  0  0  0  0  2  0  0  0  0  0  0
   36.5360   24.0350   40.9100 C   0  0  0  0  0  2  0  0  0  0  0  0
   37.0720   24.6940   42.1680 C   0  0  0  0  0  2  0  0  0  0  0  0
   36.8990   26.2020   42.1100 C   0  0  0  0  0  2  0  0  0  0  0  0
   39.2840   31.4600   41.0170 C   0  0  0  0  0  0  0  0  0  0  0  0
   39.6360   31.7890   42.1790 O   0  0  0  0  0  0  0  0  0  0  0  0
   41.3340   33.6160   38.9430 C   0  0  0  0  0  0  0  0  0  0  0  0
   41.2690   33.0660   37.6700 C   0  0  0  0  0  0  0  0  0  0  0  0
   40.4860   31.9220   37.5560 C   0  0  0  0  0  0  0  0  0  0  0  0
   39.8540   31.4240   38.6530 N   0  0  0  0  0  0  0  0  0  0  0  0
   39.9480   31.9930   39.8580 C   0  0  0  0  0  0  0  0  0  0  0  0
   40.6970   33.0910   39.9770 N   0  0  0  0  0  0  0  0  0  0  0  0
   41.9240   34.5110   39.1110 H   0  0  0  0  0  0  0  0  0  0  0  0
   41.8030   33.5280   36.8680 H   0  0  0  0  0  0  0  0  0  0  0  0
   40.4060   31.4560   36.5790 H   0  0  0  0  0  0  0  0  0  0  0  0
  2  1  1  0  0  0  0
  3  2  2  0  0  0  0
  3 17  1  0  0  0  0
  4  3  1  0  0  0  0
  5  4  2  0  0  0  0
  5  6  1  0  0  0  0
  6  7  2  0  0  0  0
  7  2  1  0  0  0  0
  7 11  1  0  0  0  0
  8  4  1  0  0  0  0
  9  5  1  0  0  0  0
 10  6  1  0  0  0  0
 11 16  1  0  0  0  0
 12 11  1  0  0  0  0
 13 12  1  0  0  0  0
 13 14  1  0  0  0  0
 14 15  1  0  0  0  0
 16 15  1  0  0  0  0
 17 18  2  0  0  0  0
 19 25  1  0  0  0  0
 19 24  1  0  0  0  0
 20 19  2  0  0  0  0
 21 20  1  0  0  0  0
 21 22  2  0  0  0  0
 22 23  1  0  0  0  0
 23 24  2  0  0  0  0
 23 17  1  0  0  0  0
 26 20  1  0  0  0  0
 27 21  1  0  0  0  0
M  END
>  <minimizedAffinity>
-5.18135452

$$$$

 OpenBabel03242513153D

 27 29  0  0  0  0  0  0  0  0999 V2000
   39.4130   28.6790   38.8480 Cl  0  0  0  0  0  0  0  0  0  0  0  0
   37.8170   29.0340   39.5390 C   0  0  0  0  0  0  0  0  0  0  0  0
   37.2010   30.1880   39.2170 C   0  0  0  0  0  0  0  0  0  0  0  0
   35.9600   30.3910   39.7560 C   0  0  0  0  0  0  0  0  0  0  0  0
   35.3810   29.4670   40.5810 C   0  0  0  0  0  0  0  0  0  0  0  0
   36.0410   28.2740   40.9050 C   0  0  0  0  0  0  0  0  0  0  0  0
   37.3050   28.0620   40.3560 C   0  0  0  0  0  0  0  0  0  0  0  0
   35.3060   31.2240   39.6130 H   0  0  0  0  0  0  0  0  0  0  0  0
   34.3850   29.5760   41.0460 H   0  0  0  0  0  0  0  0  0  0  0  0
   35.5280   27.5640   41.5660 H   0  0  0  0  0  0  0  0  0  0  0  0
   38.0360   26.8330   40.6440 C   0  0  0  0  0  3  0  0  0  0  0  0
   37.7450   25.5640   40.0500 C   0  0  0  0  0  2  0  0  0  0  0  0
   36.9120   24.7190   41.0240 C   0  0  0  0  0  2  0  0  0  0  0  0
   37.8260   24.1800   42.1100 C   0  0  0  0  0  2  0  0  0  0  0  0
   38.7150   25.3370   42.5300 C   0  0  0  0  0  2  0  0  0  0  0  0
   38.0950   26.6690   42.1470 C   0  0  0  0  0  2  0  0  0  0  0  0
   37.8510   31.1540   38.3600 C   0  0  0  0  0  0  0  0  0  0  0  0
   37.6280   31.0490   37.1260 O   0  0  0  0  0  0  0  0  0  0  0  0
   40.7840   33.2300   38.8460 C   0  0  0  0  0  0  0  0  0  0  0  0
   40.4190   34.1550   39.8140 C   0  0  0  0  0  0  0  0  0  0  0  0
   39.1210   34.0300   40.2950 C   0  0  0  0  0  0  0  0  0  0  0  0
   38.3110   33.0510   39.8100 N   0  0  0  0  0  0  0  0  0  0  0  0
   38.7120   32.1830   38.8760 C   0  0  0  0  0  0  0  0  0  0  0  0
   39.9560   32.2940   38.4080 N   0  0  0  0  0  0  0  0  0  0  0  0
   41.7830   33.2630   38.4230 H   0  0  0  0  0  0  0  0  0  0  0  0
   41.1260   34.8910   40.1330 H   0  0  0  0  0  0  0  0  0  0  0  0
   38.7900   34.7320   41.0540 H   0  0  0  0  0  0  0  0  0  0  0  0
  1  2  1  0  0  0  0
  2  7  1  0  0  0  0
  3  2  2  0  0  0  0
  3  4  1  0  0  0  0
  4  5  2  0  0  0  0
  5  6  1  0  0  0  0
  5  9  1  0  0  0  0
  6 10  1  0  0  0  0
  7 11  1  0  0  0  0
  7  6  2  0  0  0  0
  8  4  1  0  0  0  0
 11 16  1  0  0  0  0
 12 11  1  0  0  0  0
 12 13  1  0  0  0  0
 13 14  1  0  0  0  0
 14 15  1  0  0  0  0
 16 15  1  0  0  0  0
 17 23  1  0  0  0  0
 17  3  1  0  0  0  0
 18 17  2  0  0  0  0
 19 20  1  0  0  0  0
 20 26  1  0  0  0  0
 20 21  2  0  0  0  0
 21 27  1  0  0  0  0
 22 21  1  0  0  0  0
 23 22  2  0  0  0  0
 24 19  2  0  0  0  0
 24 23  1  0  0  0  0
 25 19  1  0  0  0  0
M  END
>  <minimizedAffinity>
-5.169415

$$$$

 OpenBabel03242513153D

 27 29  0  0  0  0  0  0  0  0999 V2000
   40.1610   27.5080   40.3210 Cl  0  0  0  0  0  0  0  0  0  0  0  0
   38.9460   27.6640   41.6050 C   0  0  0  0  0  0  0  0  0  0  0  0
   38.9420   28.7660   42.3810 C   0  0  0  0  0  0  0  0  0  0  0  0
   37.9630   28.8420   43.3330 C   0  0  0  0  0  0  0  0  0  0  0  0
   37.0400   27.8450   43.4870 C   0  0  0  0  0  0  0  0  0  0  0  0
   37.0640   26.7050   42.6720 C   0  0  0  0  0  0  0  0  0  0  0  0
   38.0590   26.6250   41.6990 C   0  0  0  0  0  0  0  0  0  0  0  0
   37.7790   29.6310   44.0290 H   0  0  0  0  0  0  0  0  0  0  0  0
   36.2290   27.8500   44.2370 H   0  0  0  0  0  0  0  0  0  0  0  0
   36.2960   25.9390   42.8340 H   0  0  0  0  0  0  0  0  0  0  0  0
   38.1270   25.4700   40.8100 C   0  0  0  0  0  3  0  0  0  0  0  0
   37.4580   25.3840   39.5480 C   0  0  0  0  0  2  0  0  0  0  0  0
   36.1650   24.5700   39.7060 C   0  0  0  0  0  2  0  0  0  0  0  0
   36.5220   23.0970   39.7980 C   0  0  0  0  0  2  0  0  0  0  0  0
   37.7090   23.0050   40.7400 C   0  0  0  0  0  2  0  0  0  0  0  0
   37.8010   24.2380   41.6240 C   0  0  0  0  0  2  0  0  0  0  0  0
   39.9470   29.7900   42.2050 C   0  0  0  0  0  0  0  0  0  0  0  0
   40.9940   29.6720   42.8920 O   0  0  0  0  0  0  0  0  0  0  0  0
   40.5460   32.0990   39.4740 C   0  0  0  0  0  0  0  0  0  0  0  0
   39.4840   32.9920   39.5110 C   0  0  0  0  0  0  0  0  0  0  0  0
   38.5540   32.7660   40.5200 C   0  0  0  0  0  0  0  0  0  0  0  0
   38.7280   31.7260   41.3790 N   0  0  0  0  0  0  0  0  0  0  0  0
   39.7710   30.8940   41.3000 C   0  0  0  0  0  0  0  0  0  0  0  0
   40.6680   31.1020   40.3360 N   0  0  0  0  0  0  0  0  0  0  0  0
   41.3140   32.2110   38.7150 H   0  0  0  0  0  0  0  0  0  0  0  0
   39.4320   33.7800   38.7920 H   0  0  0  0  0  0  0  0  0  0  0  0
   37.7050   33.4390   40.5890 H   0  0  0  0  0  0  0  0  0  0  0  0
  1  2  1  0  0  0  0
  2  7  2  0  0  0  0
  2  3  1  0  0  0  0
  3  4  2  0  0  0  0
  4  5  1  0  0  0  0
  4  8  1  0  0  0  0
  5  9  1  0  0  0  0
  6 10  1  0  0  0  0
  6  5  2  0  0  0  0
  7  6  1  0  0  0  0
 11 16  1  0  0  0  0
 11  7  1  0  0  0  0
 12 13  1  0  0  0  0
 12 11  1  0  0  0  0
 13 14  1  0  0  0  0
 14 15  1  0  0  0  0
 15 16  1  0  0  0  0
 17  3  1  0  0  0  0
 17 18  2  0  0  0  0
 19 20  2  0  0  0  0
 19 24  1  0  0  0  0
 20 21  1  0  0  0  0
 21 27  1  0  0  0  0
 21 22  2  0  0  0  0
 23 22  1  0  0  0  0
 23 17  1  0  0  0  0
 24 23  2  0  0  0  0
 25 19  1  0  0  0  0
 26 20  1  0  0  0  0
M  END
>  <minimizedAffinity>
-5.13988924

$$$$
