
 OpenBabel03252501173D

 32 35  0  0  1  0  0  0  0  0999 V2000
   35.0810   29.4110   38.6740 C   0  0  1  0  0  0  0  0  0  0  0  0
   35.8690   29.2110   37.4400 C   0  0  0  0  0  0  0  0  0  0  0  0
   34.8570   28.1320   37.9890 C   0  0  2  0  0  0  0  0  0  0  0  0
   34.2700   30.1700   38.6620 H   0  0  0  0  0  0  0  0  0  0  0  0
   35.5870   29.6910   36.4850 H   0  0  0  0  0  0  0  0  0  0  0  0
   36.9130   28.8800   37.4510 H   0  0  0  0  0  0  0  0  0  0  0  0
   35.3360   27.2150   38.3380 H   0  0  0  0  0  0  0  0  0  0  0  0
   36.7230   28.5060   41.9280 C   0  0  0  0  0  0  0  0  0  0  0  0
   35.9580   28.3400   40.7770 C   0  0  0  0  0  0  0  0  0  0  0  0
   35.8750   29.4510   39.9380 C   0  0  0  0  0  0  0  0  0  0  0  0
   36.5080   30.6020   40.2560 N   0  0  0  0  0  0  0  0  0  0  0  0
   37.2460   30.7080   41.4030 C   0  0  0  0  0  0  0  0  0  0  0  0
   37.3430   29.6430   42.2340 N   0  0  0  0  0  0  0  0  0  0  0  0
   35.4520   27.4310   40.5160 H   0  0  0  0  0  0  0  0  0  0  0  0
   37.7310   31.6500   41.6080 H   0  0  0  0  0  0  0  0  0  0  0  0
   36.8470   27.3320   42.8490 C   0  0  0  0  0  0  0  0  0  0  0  0
   35.8070   27.3890   43.7470 F   0  0  0  0  0  0  0  0  0  0  0  0
   38.0320   27.4720   43.5410 F   0  0  0  0  0  0  0  0  0  0  0  0
   36.7860   26.1480   42.1580 F   0  0  0  0  0  0  0  0  0  0  0  0
   33.6080   28.0620   37.1650 C   0  0  0  0  0  0  0  0  0  0  0  0
   33.1800   27.0180   36.3500 C   0  0  0  0  0  0  0  0  0  0  0  0
   31.9880   27.5080   35.8580 C   0  0  0  0  0  0  0  0  0  0  0  0
   31.7270   28.7770   36.3590 C   0  0  0  0  0  0  0  0  0  0  0  0
   32.7500   29.0330   37.1360 O   0  0  0  0  0  0  0  0  0  0  0  0
   33.6820   26.0960   36.1820 H   0  0  0  0  0  0  0  0  0  0  0  0
   31.3310   26.9780   35.1660 H   0  0  0  0  0  0  0  0  0  0  0  0
   30.5860   29.6830   36.1160 C   0  0  0  0  0  3  0  0  0  0  0  0
   31.0200   31.1180   35.9320 C   0  0  0  0  0  2  0  0  0  0  0  0
   30.0180   32.0920   36.4770 C   0  0  0  0  0  2  0  0  0  0  0  0
   29.9250   31.8810   37.9600 C   0  0  0  0  0  2  0  0  0  0  0  0
   29.7030   30.4500   38.3500 C   0  0  0  0  0  2  0  0  0  0  0  0
   29.5350   29.5230   37.1680 C   0  0  0  0  0  2  0  0  0  0  0  0
  1  4  1  6  0  0  0
  1 10  1  0  0  0  0
  2  6  1  0  0  0  0
  2  3  1  0  0  0  0
  2  1  1  0  0  0  0
  3  7  1  1  0  0  0
  3  1  1  0  0  0  0
  5  2  1  0  0  0  0
  8 13  1  0  0  0  0
  8 16  1  0  0  0  0
  9  8  2  0  0  0  0
 10 11  2  0  0  0  0
 10  9  1  0  0  0  0
 11 12  1  0  0  0  0
 12 15  1  0  0  0  0
 12 13  2  0  0  0  0
 14  9  1  0  0  0  0
 16 18  1  0  0  0  0
 16 17  1  0  0  0  0
 19 16  1  0  0  0  0
 20  3  1  0  0  0  0
 21 20  2  0  0  0  0
 22 21  1  0  0  0  0
 22 23  2  0  0  0  0
 23 24  1  0  0  0  0
 24 20  1  0  0  0  0
 25 21  1  0  0  0  0
 26 22  1  0  0  0  0
 27 23  1  0  0  0  0
 27 32  1  0  0  0  0
 28 27  1  0  0  0  0
 28 29  1  0  0  0  0
 29 30  1  0  0  0  0
 30 31  1  0  0  0  0
 32 31  1  0  0  0  0
M  END
>  <minimizedAffinity>
-6.24194431

$$$$

 OpenBabel03252501173D

 32 35  0  0  1  0  0  0  0  0999 V2000
   35.8470   28.7280   38.5790 C   0  0  1  0  0  0  0  0  0  0  0  0
   35.4380   27.3370   38.2940 C   0  0  0  0  0  0  0  0  0  0  0  0
   34.4010   28.5190   38.4310 C   0  0  2  0  0  0  0  0  0  0  0  0
   36.3870   29.2900   37.7880 H   0  0  0  0  0  0  0  0  0  0  0  0
   35.5340   26.8980   37.2840 H   0  0  0  0  0  0  0  0  0  0  0  0
   35.3430   26.5760   39.0750 H   0  0  0  0  0  0  0  0  0  0  0  0
   33.7520   28.4370   39.3050 H   0  0  0  0  0  0  0  0  0  0  0  0
   36.9590   28.3070   42.1410 C   0  0  0  0  0  0  0  0  0  0  0  0
   36.3840   27.9710   40.9200 C   0  0  0  0  0  0  0  0  0  0  0  0
   36.4330   28.9550   39.9330 C   0  0  0  0  0  0  0  0  0  0  0  0
   37.0100   30.1520   40.1840 N   0  0  0  0  0  0  0  0  0  0  0  0
   37.5600   30.4280   41.4060 C   0  0  0  0  0  0  0  0  0  0  0  0
   37.5240   29.4880   42.3800 N   0  0  0  0  0  0  0  0  0  0  0  0
   35.9230   27.0240   40.7110 H   0  0  0  0  0  0  0  0  0  0  0  0
   38.0080   31.3990   41.5520 H   0  0  0  0  0  0  0  0  0  0  0  0
   36.9370   27.2720   43.2240 C   0  0  0  0  0  0  0  0  0  0  0  0
   36.9030   26.0360   42.6220 F   0  0  0  0  0  0  0  0  0  0  0  0
   35.7700   27.4440   43.9380 F   0  0  0  0  0  0  0  0  0  0  0  0
   38.0510   27.3600   44.0200 F   0  0  0  0  0  0  0  0  0  0  0  0
   33.8320   28.9250   37.1070 C   0  0  0  0  0  0  0  0  0  0  0  0
   34.5000   29.0460   35.8910 C   0  0  0  0  0  0  0  0  0  0  0  0
   33.4840   29.4410   35.0450 C   0  0  0  0  0  0  0  0  0  0  0  0
   32.2790   29.5460   35.7270 C   0  0  0  0  0  0  0  0  0  0  0  0
   32.5780   29.2180   36.9590 O   0  0  0  0  0  0  0  0  0  0  0  0
   35.5320   28.8690   35.7140 H   0  0  0  0  0  0  0  0  0  0  0  0
   33.6020   29.6460   33.9790 H   0  0  0  0  0  0  0  0  0  0  0  0
   30.9380   29.9310   35.2420 C   0  0  0  0  0  3  0  0  0  0  0  0
   30.8640   29.9810   33.7350 C   0  0  0  0  0  2  0  0  0  0  0  0
   29.9390   31.0540   33.2430 C   0  0  0  0  0  2  0  0  0  0  0  0
   30.5000   32.3800   33.6670 C   0  0  0  0  0  2  0  0  0  0  0  0
   30.8400   32.4480   35.1260 C   0  0  0  0  0  2  0  0  0  0  0  0
   30.4730   31.1970   35.8900 C   0  0  0  0  0  2  0  0  0  0  0  0
  1  4  1  6  0  0  0
  1 10  1  0  0  0  0
  2  3  1  0  0  0  0
  2  1  1  0  0  0  0
  2  6  1  0  0  0  0
  3  1  1  0  0  0  0
  3  7  1  1  0  0  0
  5  2  1  0  0  0  0
  8 13  1  0  0  0  0
  8 16  1  0  0  0  0
  9  8  2  0  0  0  0
 10 11  2  0  0  0  0
 10  9  1  0  0  0  0
 11 12  1  0  0  0  0
 12 15  1  0  0  0  0
 12 13  2  0  0  0  0
 14  9  1  0  0  0  0
 16 18  1  0  0  0  0
 16 19  1  0  0  0  0
 17 16  1  0  0  0  0
 20  3  1  0  0  0  0
 21 20  2  0  0  0  0
 22 23  2  0  0  0  0
 22 21  1  0  0  0  0
 23 24  1  0  0  0  0
 24 20  1  0  0  0  0
 25 21  1  0  0  0  0
 26 22  1  0  0  0  0
 27 23  1  0  0  0  0
 27 32  1  0  0  0  0
 28 27  1  0  0  0  0
 29 30  1  0  0  0  0
 29 28  1  0  0  0  0
 30 31  1  0  0  0  0
 31 32  1  0  0  0  0
M  END
>  <minimizedAffinity>
-6.21663141

$$$$

 OpenBabel03252501173D

 32 35  0  0  1  0  0  0  0  0999 V2000
   35.3390   28.8210   38.8410 C   0  0  1  0  0  0  0  0  0  0  0  0
   36.1780   29.6970   37.9970 C   0  0  0  0  0  0  0  0  0  0  0  0
   35.3410   28.4940   37.4090 C   0  0  2  0  0  0  0  0  0  0  0  0
   34.4150   29.2480   39.2870 H   0  0  0  0  0  0  0  0  0  0  0  0
   35.8440   30.7060   37.6940 H   0  0  0  0  0  0  0  0  0  0  0  0
   37.2600   29.5660   37.9020 H   0  0  0  0  0  0  0  0  0  0  0  0
   35.9550   27.6790   37.0190 H   0  0  0  0  0  0  0  0  0  0  0  0
   36.9450   27.4340   41.9390 C   0  0  0  0  0  0  0  0  0  0  0  0
   36.2230   28.3190   41.1450 C   0  0  0  0  0  0  0  0  0  0  0  0
   36.0840   27.9580   39.8040 C   0  0  0  0  0  0  0  0  0  0  0  0
   36.6340   26.8130   39.3400 N   0  0  0  0  0  0  0  0  0  0  0  0
   37.3360   25.9810   40.1690 C   0  0  0  0  0  0  0  0  0  0  0  0
   37.4830   26.3090   41.4740 N   0  0  0  0  0  0  0  0  0  0  0  0
   35.7830   29.2300   41.5030 H   0  0  0  0  0  0  0  0  0  0  0  0
   37.7530   25.0800   39.7460 H   0  0  0  0  0  0  0  0  0  0  0  0
   37.1060   27.7790   43.3880 C   0  0  0  0  0  0  0  0  0  0  0  0
   38.2180   27.1190   43.8570 F   0  0  0  0  0  0  0  0  0  0  0  0
   35.9980   27.3000   44.0530 F   0  0  0  0  0  0  0  0  0  0  0  0
   37.2720   29.1300   43.5620 F   0  0  0  0  0  0  0  0  0  0  0  0
   34.1400   28.9630   36.6480 C   0  0  0  0  0  0  0  0  0  0  0  0
   33.9590   28.9850   35.2680 C   0  0  0  0  0  0  0  0  0  0  0  0
   32.6860   29.5060   35.1540 C   0  0  0  0  0  0  0  0  0  0  0  0
   32.1460   29.7780   36.4040 C   0  0  0  0  0  0  0  0  0  0  0  0
   33.0850   29.4220   37.2440 O   0  0  0  0  0  0  0  0  0  0  0  0
   34.6560   28.6680   34.5310 H   0  0  0  0  0  0  0  0  0  0  0  0
   32.1660   29.6860   34.2120 H   0  0  0  0  0  0  0  0  0  0  0  0
   30.8300   30.3370   36.7740 C   0  0  0  0  0  3  0  0  0  0  0  0
   30.5450   30.2100   38.2510 C   0  0  0  0  0  2  0  0  0  0  0  0
   29.0900   29.9840   38.5360 C   0  0  0  0  0  2  0  0  0  0  0  0
   28.6990   28.6670   37.9310 C   0  0  0  0  0  2  0  0  0  0  0  0
   29.1000   28.5250   36.4930 C   0  0  0  0  0  2  0  0  0  0  0  0
   29.7410   29.7680   35.9200 C   0  0  0  0  0  2  0  0  0  0  0  0
  1  4  1  1  0  0  0
  1 10  1  0  0  0  0
  2  1  1  0  0  0  0
  3  7  1  6  0  0  0
  3  2  1  0  0  0  0
  3  1  1  0  0  0  0
  5  2  1  0  0  0  0
  6  2  1  0  0  0  0
  8 16  1  0  0  0  0
  9 14  1  0  0  0  0
  9  8  2  0  0  0  0
 10  9  1  0  0  0  0
 11 10  2  0  0  0  0
 11 12  1  0  0  0  0
 12 13  2  0  0  0  0
 13  8  1  0  0  0  0
 15 12  1  0  0  0  0
 16 19  1  0  0  0  0
 16 17  1  0  0  0  0
 16 18  1  0  0  0  0
 20 24  1  0  0  0  0
 20  3  1  0  0  0  0
 21 20  2  0  0  0  0
 22 21  1  0  0  0  0
 22 23  2  0  0  0  0
 23 27  1  0  0  0  0
 23 24  1  0  0  0  0
 25 21  1  0  0  0  0
 26 22  1  0  0  0  0
 27 28  1  0  0  0  0
 28 29  1  0  0  0  0
 30 29  1  0  0  0  0
 31 30  1  0  0  0  0
 32 31  1  0  0  0  0
 32 27  1  0  0  0  0
M  END
>  <minimizedAffinity>
-6.0538516

$$$$

 OpenBabel03252501173D

 32 35  0  0  1  0  0  0  0  0999 V2000
   39.4890   30.4380   41.3850 C   0  0  1  0  0  0  0  0  0  0  0  0
   40.3760   29.9500   42.4610 C   0  0  0  0  0  0  0  0  0  0  0  0
   38.8320   30.1940   42.6760 C   0  0  2  0  0  0  0  0  0  0  0  0
   39.2650   29.7570   40.5370 H   0  0  0  0  0  0  0  0  0  0  0  0
   40.7060   28.8950   42.5090 H   0  0  0  0  0  0  0  0  0  0  0  0
   41.0130   30.6160   43.0520 H   0  0  0  0  0  0  0  0  0  0  0  0
   38.6070   31.0170   43.3570 H   0  0  0  0  0  0  0  0  0  0  0  0
   41.0960   33.5460   40.0200 C   0  0  0  0  0  0  0  0  0  0  0  0
   40.9800   32.2120   40.3990 C   0  0  0  0  0  0  0  0  0  0  0  0
   39.7460   31.8380   40.9330 C   0  0  0  0  0  0  0  0  0  0  0  0
   38.7500   32.7420   41.0610 N   0  0  0  0  0  0  0  0  0  0  0  0
   38.9220   34.0420   40.6720 C   0  0  0  0  0  0  0  0  0  0  0  0
   40.1100   34.4300   40.1500 N   0  0  0  0  0  0  0  0  0  0  0  0
   41.7650   31.4870   40.3010 H   0  0  0  0  0  0  0  0  0  0  0  0
   38.0930   34.7220   40.7960 H   0  0  0  0  0  0  0  0  0  0  0  0
   42.4010   33.9850   39.4310 C   0  0  0  0  0  0  0  0  0  0  0  0
   43.1260   32.8570   39.1270 F   0  0  0  0  0  0  0  0  0  0  0  0
   43.0770   34.6920   40.4020 F   0  0  0  0  0  0  0  0  0  0  0  0
   42.2100   34.7230   38.2900 F   0  0  0  0  0  0  0  0  0  0  0  0
   38.0660   28.9100   42.7670 C   0  0  0  0  0  0  0  0  0  0  0  0
   37.3770   28.4030   43.8650 C   0  0  0  0  0  0  0  0  0  0  0  0
   36.8790   27.2170   43.3660 C   0  0  0  0  0  0  0  0  0  0  0  0
   37.2550   27.0360   42.0420 C   0  0  0  0  0  0  0  0  0  0  0  0
   37.9650   28.0990   41.7610 O   0  0  0  0  0  0  0  0  0  0  0  0
   37.2890   28.8540   44.8230 H   0  0  0  0  0  0  0  0  0  0  0  0
   36.2690   26.5080   43.9310 H   0  0  0  0  0  0  0  0  0  0  0  0
   36.9600   25.9280   41.1090 C   0  0  0  0  0  3  0  0  0  0  0  0
   36.9000   24.5900   41.8060 C   0  0  0  0  0  2  0  0  0  0  0  0
   37.4050   23.4730   40.9410 C   0  0  0  0  0  2  0  0  0  0  0  0
   38.8590   23.7240   40.6640 C   0  0  0  0  0  2  0  0  0  0  0  0
   39.1440   25.1050   40.1550 C   0  0  0  0  0  2  0  0  0  0  0  0
   37.9000   25.9380   39.9450 C   0  0  0  0  0  2  0  0  0  0  0  0
  1  4  1  6  0  0  0
  1  2  1  0  0  0  0
  1  3  1  0  0  0  0
  2  5  1  0  0  0  0
  2  3  1  0  0  0  0
  2  6  1  0  0  0  0
  3 20  1  0  0  0  0
  3  7  1  1  0  0  0
  8 13  2  0  0  0  0
  8  9  1  0  0  0  0
  9 10  2  0  0  0  0
 10 11  1  0  0  0  0
 10  1  1  0  0  0  0
 12 15  1  0  0  0  0
 12 11  2  0  0  0  0
 13 12  1  0  0  0  0
 14  9  1  0  0  0  0
 16  8  1  0  0  0  0
 16 18  1  0  0  0  0
 17 16  1  0  0  0  0
 19 16  1  0  0  0  0
 20 21  2  0  0  0  0
 21 25  1  0  0  0  0
 22 21  1  0  0  0  0
 22 26  1  0  0  0  0
 23 22  2  0  0  0  0
 24 23  1  0  0  0  0
 24 20  1  0  0  0  0
 27 28  1  0  0  0  0
 27 23  1  0  0  0  0
 29 28  1  0  0  0  0
 30 29  1  0  0  0  0
 31 30  1  0  0  0  0
 32 31  1  0  0  0  0
 32 27  1  0  0  0  0
M  END
>  <minimizedAffinity>
-6.00374269

$$$$

 OpenBabel03252501173D

 32 35  0  0  1  0  0  0  0  0999 V2000
   40.3040   32.9810   40.7490 C   0  0  1  0  0  0  0  0  0  0  0  0
   39.2870   33.9000   40.1980 C   0  0  0  0  0  0  0  0  0  0  0  0
   39.3710   32.3770   39.7890 C   0  0  2  0  0  0  0  0  0  0  0  0
   40.2270   32.6920   41.8190 H   0  0  0  0  0  0  0  0  0  0  0  0
   38.3910   34.1920   40.7770 H   0  0  0  0  0  0  0  0  0  0  0  0
   39.4960   34.5880   39.3730 H   0  0  0  0  0  0  0  0  0  0  0  0
   39.6610   32.2160   38.7490 H   0  0  0  0  0  0  0  0  0  0  0  0
   43.5620   33.1060   38.8860 C   0  0  0  0  0  0  0  0  0  0  0  0
   42.2360   32.7740   39.1490 C   0  0  0  0  0  0  0  0  0  0  0  0
   41.7110   33.2690   40.3420 C   0  0  0  0  0  0  0  0  0  0  0  0
   42.4720   34.0200   41.1690 N   0  0  0  0  0  0  0  0  0  0  0  0
   43.7720   34.3150   40.8590 C   0  0  0  0  0  0  0  0  0  0  0  0
   44.3040   33.8460   39.7050 N   0  0  0  0  0  0  0  0  0  0  0  0
   41.6240   32.1780   38.4990 H   0  0  0  0  0  0  0  0  0  0  0  0
   44.3340   34.9180   41.5540 H   0  0  0  0  0  0  0  0  0  0  0  0
   44.1590   32.6040   37.6070 C   0  0  0  0  0  0  0  0  0  0  0  0
   43.1260   32.2690   36.7630 F   0  0  0  0  0  0  0  0  0  0  0  0
   44.8710   31.4610   37.9040 F   0  0  0  0  0  0  0  0  0  0  0  0
   44.9400   33.5620   37.0120 F   0  0  0  0  0  0  0  0  0  0  0  0
   38.2670   31.5690   40.3970 C   0  0  0  0  0  0  0  0  0  0  0  0
   36.9070   31.6260   40.1050 C   0  0  0  0  0  0  0  0  0  0  0  0
   36.3910   30.6710   40.9570 C   0  0  0  0  0  0  0  0  0  0  0  0
   37.3970   30.0820   41.7120 C   0  0  0  0  0  0  0  0  0  0  0  0
   38.4910   30.6800   41.3120 O   0  0  0  0  0  0  0  0  0  0  0  0
   36.4360   32.2620   39.3970 H   0  0  0  0  0  0  0  0  0  0  0  0
   35.3350   30.4070   41.0350 H   0  0  0  0  0  0  0  0  0  0  0  0
   37.3220   29.0250   42.7420 C   0  0  0  0  0  3  0  0  0  0  0  0
   38.6880   28.5770   43.2060 C   0  0  0  0  0  2  0  0  0  0  0  0
   38.7240   27.1180   43.5500 C   0  0  0  0  0  2  0  0  0  0  0  0
   38.4430   26.3400   42.2980 C   0  0  0  0  0  2  0  0  0  0  0  0
   37.2120   26.7950   41.5720 C   0  0  0  0  0  2  0  0  0  0  0  0
   36.4590   27.8900   42.2910 C   0  0  0  0  0  2  0  0  0  0  0  0
  1  4  1  1  0  0  0
  2  1  1  0  0  0  0
  2  5  1  0  0  0  0
  3  7  1  6  0  0  0
  3  2  1  0  0  0  0
  3 20  1  0  0  0  0
  3  1  1  0  0  0  0
  6  2  1  0  0  0  0
  8  9  2  0  0  0  0
  8 13  1  0  0  0  0
  9 10  1  0  0  0  0
 10  1  1  0  0  0  0
 10 11  2  0  0  0  0
 12 11  1  0  0  0  0
 12 15  1  0  0  0  0
 13 12  2  0  0  0  0
 14  9  1  0  0  0  0
 16 18  1  0  0  0  0
 16  8  1  0  0  0  0
 17 16  1  0  0  0  0
 19 16  1  0  0  0  0
 20 24  1  0  0  0  0
 21 20  2  0  0  0  0
 21 22  1  0  0  0  0
 22 26  1  0  0  0  0
 22 23  2  0  0  0  0
 23 27  1  0  0  0  0
 24 23  1  0  0  0  0
 25 21  1  0  0  0  0
 27 28  1  0  0  0  0
 28 29  1  0  0  0  0
 30 29  1  0  0  0  0
 31 32  1  0  0  0  0
 31 30  1  0  0  0  0
 32 27  1  0  0  0  0
M  END
>  <minimizedAffinity>
-5.8435955

$$$$

 OpenBabel03252501173D

 32 35  0  0  1  0  0  0  0  0999 V2000
   39.1400   31.5910   39.3060 C   0  0  1  0  0  0  0  0  0  0  0  0
   37.9180   32.3290   38.9240 C   0  0  0  0  0  0  0  0  0  0  0  0
   38.0550   30.7650   38.7620 C   0  0  2  0  0  0  0  0  0  0  0  0
   39.3850   31.5030   40.3860 H   0  0  0  0  0  0  0  0  0  0  0  0
   37.1850   32.6710   39.6770 H   0  0  0  0  0  0  0  0  0  0  0  0
   37.8220   32.8620   37.9730 H   0  0  0  0  0  0  0  0  0  0  0  0
   38.0710   30.4290   37.7230 H   0  0  0  0  0  0  0  0  0  0  0  0
   42.1600   31.2550   37.1000 C   0  0  0  0  0  0  0  0  0  0  0  0
   41.0510   30.8580   37.8400 C   0  0  0  0  0  0  0  0  0  0  0  0
   40.3460   31.8800   38.4750 C   0  0  0  0  0  0  0  0  0  0  0  0
   40.7460   33.1660   38.3590 N   0  0  0  0  0  0  0  0  0  0  0  0
   41.8480   33.4990   37.6180 C   0  0  0  0  0  0  0  0  0  0  0  0
   42.5480   32.5240   36.9910 N   0  0  0  0  0  0  0  0  0  0  0  0
   40.7250   29.8400   37.9380 H   0  0  0  0  0  0  0  0  0  0  0  0
   42.1220   34.5400   37.5590 H   0  0  0  0  0  0  0  0  0  0  0  0
   42.9370   30.1880   36.3920 C   0  0  0  0  0  0  0  0  0  0  0  0
   43.7630   29.5880   37.3140 F   0  0  0  0  0  0  0  0  0  0  0  0
   43.7190   30.8070   35.4400 F   0  0  0  0  0  0  0  0  0  0  0  0
   42.1030   29.2440   35.8470 F   0  0  0  0  0  0  0  0  0  0  0  0
   37.2490   30.0210   39.7820 C   0  0  0  0  0  0  0  0  0  0  0  0
   35.8720   29.8150   39.7970 C   0  0  0  0  0  0  0  0  0  0  0  0
   35.7070   29.0770   40.9510 C   0  0  0  0  0  0  0  0  0  0  0  0
   36.9240   28.8590   41.5830 C   0  0  0  0  0  0  0  0  0  0  0  0
   37.7970   29.4600   40.8130 O   0  0  0  0  0  0  0  0  0  0  0  0
   35.1710   30.1600   39.0780 H   0  0  0  0  0  0  0  0  0  0  0  0
   34.7500   28.7090   41.3270 H   0  0  0  0  0  0  0  0  0  0  0  0
   37.2360   28.1330   42.8310 C   0  0  0  0  0  3  0  0  0  0  0  0
   38.7030   28.1960   43.1820 C   0  0  0  0  0  2  0  0  0  0  0  0
   39.1860   26.9420   43.8490 C   0  0  0  0  0  2  0  0  0  0  0  0
   39.0500   25.8140   42.8680 C   0  0  0  0  0  2  0  0  0  0  0  0
   37.6900   25.7230   42.2420 C   0  0  0  0  0  2  0  0  0  0  0  0
   36.7070   26.7340   42.7870 C   0  0  0  0  0  2  0  0  0  0  0  0
  1  4  1  1  0  0  0
  2  1  1  0  0  0  0
  2  5  1  0  0  0  0
  3  7  1  6  0  0  0
  3  2  1  0  0  0  0
  3  1  1  0  0  0  0
  3 20  1  0  0  0  0
  6  2  1  0  0  0  0
  8  9  1  0  0  0  0
  9 14  1  0  0  0  0
  9 10  2  0  0  0  0
 10  1  1  0  0  0  0
 11 10  1  0  0  0  0
 12 11  2  0  0  0  0
 13  8  2  0  0  0  0
 13 12  1  0  0  0  0
 15 12  1  0  0  0  0
 16  8  1  0  0  0  0
 16 17  1  0  0  0  0
 18 16  1  0  0  0  0
 19 16  1  0  0  0  0
 20 21  2  0  0  0  0
 20 24  1  0  0  0  0
 21 22  1  0  0  0  0
 22 26  1  0  0  0  0
 22 23  2  0  0  0  0
 23 27  1  0  0  0  0
 24 23  1  0  0  0  0
 25 21  1  0  0  0  0
 27 28  1  0  0  0  0
 28 29  1  0  0  0  0
 30 29  1  0  0  0  0
 31 32  1  0  0  0  0
 31 30  1  0  0  0  0
 32 27  1  0  0  0  0
M  END
>  <minimizedAffinity>
-5.83662271

$$$$

 OpenBabel03252501173D

 32 35  0  0  1  0  0  0  0  0999 V2000
   35.8050   29.7140   37.9680 C   0  0  1  0  0  0  0  0  0  0  0  0
   36.3750   28.5030   37.3420 C   0  0  0  0  0  0  0  0  0  0  0  0
   35.0560   28.4740   38.2090 C   0  0  2  0  0  0  0  0  0  0  0  0
   35.3570   30.4860   37.3070 H   0  0  0  0  0  0  0  0  0  0  0  0
   36.2460   28.2880   36.2660 H   0  0  0  0  0  0  0  0  0  0  0  0
   37.2040   27.9420   37.7860 H   0  0  0  0  0  0  0  0  0  0  0  0
   35.1590   27.9290   39.1500 H   0  0  0  0  0  0  0  0  0  0  0  0
   37.8100   32.0820   40.0840 C   0  0  0  0  0  0  0  0  0  0  0  0
   37.0450   31.6430   39.0080 C   0  0  0  0  0  0  0  0  0  0  0  0
   36.6260   30.3140   39.0610 C   0  0  0  0  0  0  0  0  0  0  0  0
   36.9640   29.5280   40.1080 N   0  0  0  0  0  0  0  0  0  0  0  0
   37.7200   30.0140   41.1400 C   0  0  0  0  0  0  0  0  0  0  0  0
   38.1380   31.3020   41.1110 N   0  0  0  0  0  0  0  0  0  0  0  0
   36.7720   32.2590   38.1720 H   0  0  0  0  0  0  0  0  0  0  0  0
   37.9600   29.3430   41.9510 H   0  0  0  0  0  0  0  0  0  0  0  0
   38.2680   33.5070   40.0710 C   0  0  0  0  0  0  0  0  0  0  0  0
   39.3810   33.5830   39.2670 F   0  0  0  0  0  0  0  0  0  0  0  0
   38.6340   33.8370   41.3580 F   0  0  0  0  0  0  0  0  0  0  0  0
   37.2940   34.3390   39.5780 F   0  0  0  0  0  0  0  0  0  0  0  0
   33.8320   28.2960   37.3650 C   0  0  0  0  0  0  0  0  0  0  0  0
   33.4740   27.1870   36.6030 C   0  0  0  0  0  0  0  0  0  0  0  0
   32.2720   27.5910   36.0590 C   0  0  0  0  0  0  0  0  0  0  0  0
   31.9390   28.8720   36.4800 C   0  0  0  0  0  0  0  0  0  0  0  0
   32.9300   29.2210   37.2610 O   0  0  0  0  0  0  0  0  0  0  0  0
   34.0230   26.2840   36.5000 H   0  0  0  0  0  0  0  0  0  0  0  0
   31.6570   26.9900   35.3860 H   0  0  0  0  0  0  0  0  0  0  0  0
   30.7620   29.7060   36.1600 C   0  0  0  0  0  3  0  0  0  0  0  0
   31.1330   31.1440   35.8870 C   0  0  0  0  0  2  0  0  0  0  0  0
   30.0790   32.1040   36.3510 C   0  0  0  0  0  2  0  0  0  0  0  0
   29.9710   31.9870   37.8440 C   0  0  0  0  0  2  0  0  0  0  0  0
   29.8070   30.5770   38.3250 C   0  0  0  0  0  2  0  0  0  0  0  0
   29.7010   29.5670   37.2060 C   0  0  0  0  0  2  0  0  0  0  0  0
  1  4  1  6  0  0  0
  1  3  1  0  0  0  0
  1 10  1  0  0  0  0
  2  6  1  0  0  0  0
  2  1  1  0  0  0  0
  2  3  1  0  0  0  0
  3  7  1  1  0  0  0
  5  2  1  0  0  0  0
  8 13  1  0  0  0  0
  9 10  1  0  0  0  0
  9  8  2  0  0  0  0
 10 11  2  0  0  0  0
 11 12  1  0  0  0  0
 12 15  1  0  0  0  0
 13 12  2  0  0  0  0
 14  9  1  0  0  0  0
 16  8  1  0  0  0  0
 16 18  1  0  0  0  0
 17 16  1  0  0  0  0
 19 16  1  0  0  0  0
 20  3  1  0  0  0  0
 21 20  2  0  0  0  0
 22 23  2  0  0  0  0
 22 21  1  0  0  0  0
 23 24  1  0  0  0  0
 24 20  1  0  0  0  0
 25 21  1  0  0  0  0
 26 22  1  0  0  0  0
 27 23  1  0  0  0  0
 27 32  1  0  0  0  0
 28 27  1  0  0  0  0
 28 29  1  0  0  0  0
 29 30  1  0  0  0  0
 30 31  1  0  0  0  0
 32 31  1  0  0  0  0
M  END
>  <minimizedAffinity>
-5.81468678

$$$$

 OpenBabel03252501173D

 32 35  0  0  1  0  0  0  0  0999 V2000
   35.2500   28.4860   38.5770 C   0  0  1  0  0  0  0  0  0  0  0  0
   36.1300   29.6220   38.2340 C   0  0  0  0  0  0  0  0  0  0  0  0
   35.2950   29.5650   39.5720 C   0  0  2  0  0  0  0  0  0  0  0  0
   35.7210   27.5120   38.8280 H   0  0  0  0  0  0  0  0  0  0  0  0
   37.2280   29.5640   38.3520 H   0  0  0  0  0  0  0  0  0  0  0  0
   35.8220   30.4270   37.5580 H   0  0  0  0  0  0  0  0  0  0  0  0
   34.5000   30.3120   39.6280 H   0  0  0  0  0  0  0  0  0  0  0  0
   31.9920   29.0400   36.7930 C   0  0  0  0  0  0  0  0  0  0  0  0
   33.0660   29.3120   37.6360 C   0  0  0  0  0  0  0  0  0  0  0  0
   34.0480   28.3250   37.7060 C   0  0  0  0  0  0  0  0  0  0  0  0
   33.9310   27.1850   36.9890 N   0  0  0  0  0  0  0  0  0  0  0  0
   32.8510   26.9710   36.1760 C   0  0  0  0  0  0  0  0  0  0  0  0
   31.8840   27.9150   36.0900 N   0  0  0  0  0  0  0  0  0  0  0  0
   33.1680   30.2130   38.2100 H   0  0  0  0  0  0  0  0  0  0  0  0
   32.8070   26.0440   35.6250 H   0  0  0  0  0  0  0  0  0  0  0  0
   30.9210   30.0810   36.6800 C   0  0  0  0  0  0  0  0  0  0  0  0
   30.6400   30.5340   37.9480 F   0  0  0  0  0  0  0  0  0  0  0  0
   29.7960   29.4650   36.1750 F   0  0  0  0  0  0  0  0  0  0  0  0
   31.3310   31.1350   35.9020 F   0  0  0  0  0  0  0  0  0  0  0  0
   36.1600   29.2950   40.7650 C   0  0  0  0  0  0  0  0  0  0  0  0
   36.8500   30.2190   41.5460 C   0  0  0  0  0  0  0  0  0  0  0  0
   37.4570   29.4050   42.4800 C   0  0  0  0  0  0  0  0  0  0  0  0
   37.1410   28.0710   42.2600 C   0  0  0  0  0  0  0  0  0  0  0  0
   36.3580   28.0950   41.2120 O   0  0  0  0  0  0  0  0  0  0  0  0
   36.8700   31.2720   41.4140 H   0  0  0  0  0  0  0  0  0  0  0  0
   38.1030   29.7550   43.2880 H   0  0  0  0  0  0  0  0  0  0  0  0
   37.5560   26.8580   42.9950 C   0  0  0  0  0  3  0  0  0  0  0  0
   38.9520   26.9770   43.5590 C   0  0  0  0  0  2  0  0  0  0  0  0
   39.6800   25.6660   43.5610 C   0  0  0  0  0  2  0  0  0  0  0  0
   39.8520   25.2290   42.1350 C   0  0  0  0  0  2  0  0  0  0  0  0
   38.5790   25.2520   41.3430 C   0  0  0  0  0  2  0  0  0  0  0  0
   37.3670   25.6300   42.1620 C   0  0  0  0  0  2  0  0  0  0  0  0
  1  4  1  1  0  0  0
  1  3  1  0  0  0  0
  2  5  1  0  0  0  0
  2  1  1  0  0  0  0
  2  3  1  0  0  0  0
  3  7  1  1  0  0  0
  3 20  1  0  0  0  0
  6  2  1  0  0  0  0
  8  9  1  0  0  0  0
  9 10  2  0  0  0  0
  9 14  1  0  0  0  0
 10  1  1  0  0  0  0
 11 10  1  0  0  0  0
 12 11  2  0  0  0  0
 13 12  1  0  0  0  0
 13  8  2  0  0  0  0
 15 12  1  0  0  0  0
 16  8  1  0  0  0  0
 16 17  1  0  0  0  0
 18 16  1  0  0  0  0
 19 16  1  0  0  0  0
 20 24  1  0  0  0  0
 20 21  2  0  0  0  0
 21 22  1  0  0  0  0
 22 26  1  0  0  0  0
 23 22  2  0  0  0  0
 23 27  1  0  0  0  0
 24 23  1  0  0  0  0
 25 21  1  0  0  0  0
 27 28  1  0  0  0  0
 28 29  1  0  0  0  0
 30 29  1  0  0  0  0
 31 30  1  0  0  0  0
 31 32  1  0  0  0  0
 32 27  1  0  0  0  0
M  END
>  <minimizedAffinity>
-5.80572701

$$$$

 OpenBabel03252501173D

 32 35  0  0  1  0  0  0  0  0999 V2000
   37.8780   30.2260   39.2910 C   0  0  1  0  0  0  0  0  0  0  0  0
   36.9460   30.9390   38.3940 C   0  0  0  0  0  0  0  0  0  0  0  0
   37.2020   31.3850   39.8860 C   0  0  2  0  0  0  0  0  0  0  0  0
   38.9670   30.2950   39.0820 H   0  0  0  0  0  0  0  0  0  0  0  0
   37.3060   31.6370   37.6160 H   0  0  0  0  0  0  0  0  0  0  0  0
   35.9230   30.5950   38.2080 H   0  0  0  0  0  0  0  0  0  0  0  0
   36.3360   31.2580   40.5390 H   0  0  0  0  0  0  0  0  0  0  0  0
   37.0290   27.1270   41.2360 C   0  0  0  0  0  0  0  0  0  0  0  0
   37.4250   28.4410   41.0100 C   0  0  0  0  0  0  0  0  0  0  0  0
   37.4630   28.8440   39.6740 C   0  0  0  0  0  0  0  0  0  0  0  0
   37.1300   27.9820   38.6870 N   0  0  0  0  0  0  0  0  0  0  0  0
   36.7480   26.6990   38.9690 C   0  0  0  0  0  0  0  0  0  0  0  0
   36.7030   26.2850   40.2580 N   0  0  0  0  0  0  0  0  0  0  0  0
   37.6920   29.1330   41.7860 H   0  0  0  0  0  0  0  0  0  0  0  0
   36.4920   26.0540   38.1430 H   0  0  0  0  0  0  0  0  0  0  0  0
   36.9630   26.6600   42.6580 C   0  0  0  0  0  0  0  0  0  0  0  0
   36.0340   27.4340   43.3120 F   0  0  0  0  0  0  0  0  0  0  0  0
   38.2000   26.8850   43.2250 F   0  0  0  0  0  0  0  0  0  0  0  0
   36.5900   25.3420   42.7320 F   0  0  0  0  0  0  0  0  0  0  0  0
   38.0290   32.6320   39.9660 C   0  0  0  0  0  0  0  0  0  0  0  0
   37.5930   33.9520   39.8930 C   0  0  0  0  0  0  0  0  0  0  0  0
   38.7750   34.6510   40.0270 C   0  0  0  0  0  0  0  0  0  0  0  0
   39.8520   33.7860   40.1720 C   0  0  0  0  0  0  0  0  0  0  0  0
   39.3150   32.5930   40.1240 O   0  0  0  0  0  0  0  0  0  0  0  0
   36.5920   34.2840   39.7660 H   0  0  0  0  0  0  0  0  0  0  0  0
   38.8630   35.7390   40.0210 H   0  0  0  0  0  0  0  0  0  0  0  0
   41.2910   34.0740   40.3420 C   0  0  0  0  0  3  0  0  0  0  0  0
   41.9610   34.4460   39.0410 C   0  0  0  0  0  2  0  0  0  0  0  0
   43.3810   33.9680   38.9710 C   0  0  0  0  0  2  0  0  0  0  0  0
   43.3660   32.4670   39.0070 C   0  0  0  0  0  2  0  0  0  0  0  0
   42.5550   31.9020   40.1350 C   0  0  0  0  0  2  0  0  0  0  0  0
   41.9850   32.9560   41.0550 C   0  0  0  0  0  2  0  0  0  0  0  0
  1  4  1  6  0  0  0
  1 10  1  0  0  0  0
  1  3  1  0  0  0  0
  2  1  1  0  0  0  0
  2  3  1  0  0  0  0
  3 20  1  0  0  0  0
  3  7  1  1  0  0  0
  5  2  1  0  0  0  0
  6  2  1  0  0  0  0
  8 16  1  0  0  0  0
  9  8  1  0  0  0  0
  9 14  1  0  0  0  0
 10  9  2  0  0  0  0
 11 12  2  0  0  0  0
 11 10  1  0  0  0  0
 12 13  1  0  0  0  0
 13  8  2  0  0  0  0
 15 12  1  0  0  0  0
 16 19  1  0  0  0  0
 16 18  1  0  0  0  0
 16 17  1  0  0  0  0
 20 24  1  0  0  0  0
 21 20  2  0  0  0  0
 21 22  1  0  0  0  0
 22 23  2  0  0  0  0
 23 27  1  0  0  0  0
 24 23  1  0  0  0  0
 25 21  1  0  0  0  0
 26 22  1  0  0  0  0
 27 32  1  0  0  0  0
 28 27  1  0  0  0  0
 29 30  1  0  0  0  0
 29 28  1  0  0  0  0
 30 31  1  0  0  0  0
 31 32  1  0  0  0  0
M  END
>  <minimizedAffinity>
-5.7196207

$$$$
