
 OpenBabel03252504543D

 18 19  0  0  0  0  0  0  0  0999 V2000
   44.4120   35.6570   44.5960 C   0  0  0  0  0  0  0  0  0  0  0  0
   44.9410   34.8970   43.5240 C   0  0  0  0  0  0  0  0  0  0  0  0
   45.6130   33.7210   43.8450 C   0  0  0  0  0  0  0  0  0  0  0  0
   45.7360   33.3540   45.1510 N   0  0  0  0  0  0  0  0  0  0  0  0
   45.2090   34.1210   46.1510 C   0  0  0  0  0  0  0  0  0  0  0  0
   44.5530   35.2620   45.8710 N   0  0  0  0  0  0  0  0  0  0  0  0
   43.8880   36.5710   44.3670 H   0  0  0  0  0  0  0  0  0  0  0  0
   44.8010   35.2550   42.5260 H   0  0  0  0  0  0  0  0  0  0  0  0
   45.3060   33.8320   47.1770 H   0  0  0  0  0  0  0  0  0  0  0  0
   46.1550   32.9420   42.7340 C   0  0  0  0  0  0  0  0  0  0  0  0
   46.6020   32.0210   43.1640 H   0  0  0  0  0  0  0  0  0  0  0  0
   45.4010   32.6260   42.0030 H   0  0  0  0  0  0  0  0  0  0  0  0
   47.2700   33.6360   42.0000 C   0  0  0  0  0  3  0  0  0  0  0  0
   46.8440   34.3710   40.7650 C   0  0  0  0  0  2  0  0  0  0  0  0
   48.1280   34.6220   39.9720 C   0  0  0  0  0  2  0  0  0  0  0  0
   48.9830   35.5410   40.8030 C   0  0  0  0  0  2  0  0  0  0  0  0
   49.3260   34.9000   42.1270 C   0  0  0  0  0  2  0  0  0  0  0  0
   48.0210   34.6180   42.8800 C   0  0  0  0  0  2  0  0  0  0  0  0
  1  6  1  0  0  0  0
  2  3  1  0  0  0  0
  2  1  2  0  0  0  0
  3  4  2  0  0  0  0
  4  5  1  0  0  0  0
  5  9  1  0  0  0  0
  6  5  2  0  0  0  0
  7  1  1  0  0  0  0
  8  2  1  0  0  0  0
 10 11  1  0  0  0  0
 10  3  1  0  0  0  0
 12 10  1  0  0  0  0
 13 10  1  0  0  0  0
 13 18  1  0  0  0  0
 14 13  1  0  0  0  0
 15 14  1  0  0  0  0
 15 16  1  0  0  0  0
 16 17  1  0  0  0  0
 17 18  1  0  0  0  0
M  END
>  <minimizedAffinity>
-4.45337343

>  <minimizedRMSD>
1.88631165

$$$$
