
 OpenBabel03252509163D

 22 24  0  0  0  0  0  0  0  0999 V2000
   45.8540   33.1550   46.0510 C   0  0  0  0  0  0  0  0  0  0  0  0
   45.3360   33.0030   47.3610 C   0  0  0  0  0  0  0  0  0  0  0  0
   45.7330   31.9270   48.0800 C   0  0  0  0  0  0  0  0  0  0  0  0
   46.6420   30.9950   47.5150 C   0  0  0  0  0  0  0  0  0  0  0  0
   46.9430   31.7020   45.8610 S   0  0  0  0  0  0  0  0  0  0  0  0
   44.6460   33.7200   47.7770 H   0  0  0  0  0  0  0  0  0  0  0  0
   45.4520   31.6590   49.0550 H   0  0  0  0  0  0  0  0  0  0  0  0
   44.4890   36.2290   44.4680 C   0  0  0  0  0  0  0  0  0  0  0  0
   45.1370   36.1600   43.2160 C   0  0  0  0  0  0  0  0  0  0  0  0
   46.0010   35.0750   42.9750 C   0  0  0  0  0  0  0  0  0  0  0  0
   46.1680   34.1470   43.9680 N   0  0  0  0  0  0  0  0  0  0  0  0
   45.5190   34.2630   45.1550 C   0  0  0  0  0  0  0  0  0  0  0  0
   44.6820   35.2990   45.4080 N   0  0  0  0  0  0  0  0  0  0  0  0
   43.8220   37.0410   44.6880 H   0  0  0  0  0  0  0  0  0  0  0  0
   44.9840   36.9080   42.4560 H   0  0  0  0  0  0  0  0  0  0  0  0
   46.5300   34.9590   42.0400 H   0  0  0  0  0  0  0  0  0  0  0  0
   47.2730   29.7900   47.9280 C   0  0  0  0  0  3  0  0  0  0  0  0
   46.5770   28.5610   47.4090 C   0  0  0  0  0  2  0  0  0  0  0  0
   47.4880   27.4550   46.9780 C   0  0  0  0  0  2  0  0  0  0  0  0
   48.6510   27.2370   47.9060 C   0  0  0  0  0  2  0  0  0  0  0  0
   49.3010   28.5240   48.3420 C   0  0  0  0  0  2  0  0  0  0  0  0
   48.7460   29.6830   47.5160 C   0  0  0  0  0  2  0  0  0  0  0  0
  1  2  2  0  0  0  0
  2  6  1  0  0  0  0
  2  3  1  0  0  0  0
  3  7  1  0  0  0  0
  4 17  1  0  0  0  0
  4  3  2  0  0  0  0
  5  1  1  0  0  0  0
  5  4  1  0  0  0  0
  8 14  1  0  0  0  0
  8 13  1  0  0  0  0
  9  8  2  0  0  0  0
 10  9  1  0  0  0  0
 10 11  2  0  0  0  0
 11 12  1  0  0  0  0
 12 13  2  0  0  0  0
 12  1  1  0  0  0  0
 15  9  1  0  0  0  0
 16 10  1  0  0  0  0
 18 17  1  0  0  0  0
 19 18  1  0  0  0  0
 19 20  1  0  0  0  0
 20 21  1  0  0  0  0
 22 17  1  0  0  0  0
 22 21  1  0  0  0  0
M  END
>  <minimizedAffinity>
-4.62909174

>  <minimizedRMSD>
1.09990406

$$$$
