
 OpenBabel03252502213D

 30 32  0  0  1  0  0  0  0  0999 V2000
   38.3030   31.0300   40.8210 N   0  0  0  0  0  0  0  0  0  0  0  0
   39.5300   31.8100   40.6530 C   0  0  0  0  0  0  0  0  0  0  0  0
   39.1230   33.2460   40.9990 C   0  0  0  0  0  0  0  0  0  0  0  0
   38.1610   33.7680   39.9910 C   0  0  0  0  0  0  0  0  0  0  0  0
   37.1340   32.7890   39.5780 C   0  0  0  0  0  0  0  0  0  0  0  0
   37.0590   31.5190   40.3510 C   0  0  1  0  0  0  0  0  0  0  0  0
   40.3250   31.4860   41.3420 H   0  0  0  0  0  0  0  0  0  0  0  0
   39.8620   31.8290   39.6150 H   0  0  0  0  0  0  0  0  0  0  0  0
   38.5700   33.1630   41.9760 H   0  0  0  0  0  0  0  0  0  0  0  0
   39.9880   33.8910   41.1500 H   0  0  0  0  0  0  0  0  0  0  0  0
   37.7550   34.7260   40.3330 H   0  0  0  0  0  0  0  0  0  0  0  0
   38.7770   34.0290   39.0810 H   0  0  0  0  0  0  0  0  0  0  0  0
   37.1760   32.5670   38.4900 H   0  0  0  0  0  0  0  0  0  0  0  0
   36.1340   33.3080   39.6930 H   0  0  0  0  0  0  0  0  0  0  0  0
   36.4730   31.7750   41.2900 H   0  0  0  0  0  0  0  0  0  0  0  0
   39.0610   27.4540   41.5540 C   0  0  0  0  0  0  0  0  0  0  0  0
   39.0100   28.6670   40.8700 C   0  0  0  0  0  0  0  0  0  0  0  0
   38.3690   29.7650   41.4610 C   0  0  0  0  0  0  0  0  0  0  0  0
   37.8120   29.5960   42.7060 N   0  0  0  0  0  0  0  0  0  0  0  0
   37.8940   28.3790   43.3320 C   0  0  0  0  0  0  0  0  0  0  0  0
   38.5140   27.3260   42.7550 N   0  0  0  0  0  0  0  0  0  0  0  0
   39.5370   26.5720   41.1600 H   0  0  0  0  0  0  0  0  0  0  0  0
   39.4530   28.7570   39.9030 H   0  0  0  0  0  0  0  0  0  0  0  0
   37.4110   28.3960   44.3050 H   0  0  0  0  0  0  0  0  0  0  0  0
   36.1620   30.6060   39.5910 C   0  0  0  0  0  3  0  0  0  0  0  0
   35.4420   29.5570   40.3960 C   0  0  0  0  0  2  0  0  0  0  0  0
   34.2910   29.0550   39.5020 C   0  0  0  0  0  2  0  0  0  0  0  0
   34.8250   28.4810   38.2260 C   0  0  0  0  0  2  0  0  0  0  0  0
   35.7500   29.4360   37.5020 C   0  0  0  0  0  2  0  0  0  0  0  0
   36.8400   29.8650   38.4670 C   0  0  0  0  0  2  0  0  0  0  0  0
  1 18  1  0  0  0  0
  2  1  1  0  0  0  0
  2  3  1  0  0  0  0
  2  7  1  0  0  0  0
  3 10  1  0  0  0  0
  3  9  1  0  0  0  0
  4 11  1  0  0  0  0
  4  3  1  0  0  0  0
  5 14  1  0  0  0  0
  5  4  1  0  0  0  0
  5  6  1  0  0  0  0
  6  1  1  0  0  0  0
  6 15  1  1  0  0  0
  8  2  1  0  0  0  0
 12  4  1  0  0  0  0
 13  5  1  0  0  0  0
 16 21  1  0  0  0  0
 17 18  1  0  0  0  0
 17 16  2  0  0  0  0
 18 19  2  0  0  0  0
 19 20  1  0  0  0  0
 20 24  1  0  0  0  0
 21 20  2  0  0  0  0
 22 16  1  0  0  0  0
 23 17  1  0  0  0  0
 25  6  1  0  0  0  0
 25 26  1  0  0  0  0
 27 26  1  0  0  0  0
 28 27  1  0  0  0  0
 29 28  1  0  0  0  0
 29 30  1  0  0  0  0
 30 25  1  0  0  0  0
M  END
>  <minimizedAffinity>
-5.22549582

$$$$

 OpenBabel03252502213D

 30 32  0  0  1  0  0  0  0  0999 V2000
   36.6990   28.3630   40.9720 N   0  0  0  0  0  0  0  0  0  0  0  0
   36.9820   27.0750   41.6060 C   0  0  0  0  0  0  0  0  0  0  0  0
   36.6680   27.3000   43.0890 C   0  0  0  0  0  0  0  0  0  0  0  0
   37.6290   28.2710   43.6800 C   0  0  0  0  0  0  0  0  0  0  0  0
   37.9310   29.4230   42.8050 C   0  0  0  0  0  0  0  0  0  0  0  0
   37.1030   29.5770   41.5780 C   0  0  1  0  0  0  0  0  0  0  0  0
   36.3370   26.2720   41.2200 H   0  0  0  0  0  0  0  0  0  0  0  0
   38.0400   26.8180   41.5540 H   0  0  0  0  0  0  0  0  0  0  0  0
   35.6530   27.7870   43.0990 H   0  0  0  0  0  0  0  0  0  0  0  0
   36.6020   26.3620   43.6400 H   0  0  0  0  0  0  0  0  0  0  0  0
   37.2990   28.5460   44.6870 H   0  0  0  0  0  0  0  0  0  0  0  0
   38.5890   27.6960   43.8410 H   0  0  0  0  0  0  0  0  0  0  0  0
   39.0100   29.4840   42.5450 H   0  0  0  0  0  0  0  0  0  0  0  0
   37.7700   30.3510   43.4350 H   0  0  0  0  0  0  0  0  0  0  0  0
   36.1380   30.0630   41.9280 H   0  0  0  0  0  0  0  0  0  0  0  0
   34.1060   28.9300   38.3540 C   0  0  0  0  0  0  0  0  0  0  0  0
   34.7220   28.9150   39.6040 C   0  0  0  0  0  0  0  0  0  0  0  0
   36.0140   28.3860   39.7290 C   0  0  0  0  0  0  0  0  0  0  0  0
   36.6260   27.8990   38.5990 N   0  0  0  0  0  0  0  0  0  0  0  0
   35.9710   27.9410   37.3950 C   0  0  0  0  0  0  0  0  0  0  0  0
   34.7260   28.4530   37.2840 N   0  0  0  0  0  0  0  0  0  0  0  0
   33.1170   29.3210   38.1870 H   0  0  0  0  0  0  0  0  0  0  0  0
   34.2120   29.3020   40.4580 H   0  0  0  0  0  0  0  0  0  0  0  0
   36.5760   27.5220   36.5960 H   0  0  0  0  0  0  0  0  0  0  0  0
   37.7630   30.6200   40.7430 C   0  0  0  0  0  3  0  0  0  0  0  0
   39.0860   31.1330   41.2450 C   0  0  0  0  0  2  0  0  0  0  0  0
   39.7480   31.8350   40.0430 C   0  0  0  0  0  2  0  0  0  0  0  0
   38.8880   32.9570   39.5470 C   0  0  0  0  0  2  0  0  0  0  0  0
   37.4710   32.5160   39.2530 C   0  0  0  0  0  2  0  0  0  0  0  0
   36.9160   31.8420   40.4960 C   0  0  0  0  0  2  0  0  0  0  0  0
  1  6  1  0  0  0  0
  1  2  1  0  0  0  0
  2  3  1  0  0  0  0
  3  9  1  0  0  0  0
  3 10  1  0  0  0  0
  3  4  1  0  0  0  0
  4 12  1  0  0  0  0
  4 11  1  0  0  0  0
  5 14  1  0  0  0  0
  5  4  1  0  0  0  0
  6 15  1  1  0  0  0
  6  5  1  0  0  0  0
  7  2  1  0  0  0  0
  8  2  1  0  0  0  0
 13  5  1  0  0  0  0
 16 17  1  0  0  0  0
 17 18  2  0  0  0  0
 17 23  1  0  0  0  0
 18  1  1  0  0  0  0
 19 18  1  0  0  0  0
 20 19  2  0  0  0  0
 21 20  1  0  0  0  0
 21 16  2  0  0  0  0
 22 16  1  0  0  0  0
 24 20  1  0  0  0  0
 25 26  1  0  0  0  0
 25  6  1  0  0  0  0
 27 26  1  0  0  0  0
 28 27  1  0  0  0  0
 29 28  1  0  0  0  0
 29 30  1  0  0  0  0
 30 25  1  0  0  0  0
M  END
>  <minimizedAffinity>
-5.02073288

$$$$

 OpenBabel03252502213D

 30 32  0  0  1  0  0  0  0  0999 V2000
   37.4010   30.1520   39.2180 N   0  0  0  0  0  0  0  0  0  0  0  0
   37.2860   29.9060   37.7800 C   0  0  0  0  0  0  0  0  0  0  0  0
   35.7990   29.6100   37.5580 C   0  0  0  0  0  0  0  0  0  0  0  0
   35.4200   28.3360   38.2260 C   0  0  0  0  0  0  0  0  0  0  0  0
   36.0160   28.1610   39.5670 C   0  0  0  0  0  0  0  0  0  0  0  0
   36.7210   29.3330   40.1530 C   0  0  1  0  0  0  0  0  0  0  0  0
   37.5700   30.7870   37.1850 H   0  0  0  0  0  0  0  0  0  0  0  0
   37.8240   29.0090   37.4750 H   0  0  0  0  0  0  0  0  0  0  0  0
   35.2560   30.4400   38.0910 H   0  0  0  0  0  0  0  0  0  0  0  0
   35.5280   29.6470   36.5040 H   0  0  0  0  0  0  0  0  0  0  0  0
   34.3320   28.2170   38.2000 H   0  0  0  0  0  0  0  0  0  0  0  0
   35.8120   27.5100   37.5620 H   0  0  0  0  0  0  0  0  0  0  0  0
   36.6650   27.2600   39.6260 H   0  0  0  0  0  0  0  0  0  0  0  0
   35.1610   27.9030   40.2640 H   0  0  0  0  0  0  0  0  0  0  0  0
   35.9000   29.9940   40.5770 H   0  0  0  0  0  0  0  0  0  0  0  0
   38.5020   33.4000   40.6800 C   0  0  0  0  0  0  0  0  0  0  0  0
   37.6570   32.3880   40.2290 C   0  0  0  0  0  0  0  0  0  0  0  0
   38.2100   31.2240   39.6750 C   0  0  0  0  0  0  0  0  0  0  0  0
   39.5790   31.1320   39.5980 N   0  0  0  0  0  0  0  0  0  0  0  0
   40.3610   32.1610   40.0570 C   0  0  0  0  0  0  0  0  0  0  0  0
   39.8190   33.2780   40.5910 N   0  0  0  0  0  0  0  0  0  0  0  0
   38.1460   34.3170   41.1160 H   0  0  0  0  0  0  0  0  0  0  0  0
   36.5990   32.4990   40.3060 H   0  0  0  0  0  0  0  0  0  0  0  0
   41.4180   31.9470   39.9310 H   0  0  0  0  0  0  0  0  0  0  0  0
   37.4550   28.8380   41.3510 C   0  0  0  0  0  3  0  0  0  0  0  0
   38.6260   27.9310   41.0860 C   0  0  0  0  0  2  0  0  0  0  0  0
   39.4510   27.9170   42.3880 C   0  0  0  0  0  2  0  0  0  0  0  0
   38.6270   27.4110   43.5310 C   0  0  0  0  0  2  0  0  0  0  0  0
   37.3200   28.1600   43.6800 C   0  0  0  0  0  2  0  0  0  0  0  0
   36.5900   28.1110   42.3490 C   0  0  0  0  0  2  0  0  0  0  0  0
  1 18  1  0  0  0  0
  1  6  1  0  0  0  0
  2  1  1  0  0  0  0
  3  2  1  0  0  0  0
  3  9  1  0  0  0  0
  3  4  1  0  0  0  0
  4  5  1  0  0  0  0
  5 13  1  0  0  0  0
  5  6  1  0  0  0  0
  5 14  1  0  0  0  0
  6 15  1  1  0  0  0
  6 25  1  0  0  0  0
  7  2  1  0  0  0  0
  8  2  1  0  0  0  0
 10  3  1  0  0  0  0
 11  4  1  0  0  0  0
 12  4  1  0  0  0  0
 16 22  1  0  0  0  0
 17 23  1  0  0  0  0
 17 16  2  0  0  0  0
 18 17  1  0  0  0  0
 19 18  2  0  0  0  0
 19 20  1  0  0  0  0
 20 21  2  0  0  0  0
 21 16  1  0  0  0  0
 24 20  1  0  0  0  0
 25 30  1  0  0  0  0
 26 25  1  0  0  0  0
 26 27  1  0  0  0  0
 27 28  1  0  0  0  0
 28 29  1  0  0  0  0
 30 29  1  0  0  0  0
M  END
>  <minimizedAffinity>
-4.93466759

$$$$

 OpenBabel03252502213D

 30 32  0  0  1  0  0  0  0  0999 V2000
   37.7070   29.3060   41.3820 N   0  0  0  0  0  0  0  0  0  0  0  0
   37.7340   29.3470   42.8440 C   0  0  0  0  0  0  0  0  0  0  0  0
   38.4400   28.0500   43.2520 C   0  0  0  0  0  0  0  0  0  0  0  0
   37.6080   26.8710   42.8880 C   0  0  0  0  0  0  0  0  0  0  0  0
   36.9660   26.9770   41.5610 C   0  0  0  0  0  0  0  0  0  0  0  0
   37.3880   28.1100   40.6930 C   0  0  1  0  0  0  0  0  0  0  0  0
   38.3100   30.2040   43.2240 H   0  0  0  0  0  0  0  0  0  0  0  0
   36.7330   29.2970   43.2730 H   0  0  0  0  0  0  0  0  0  0  0  0
   39.3680   28.0130   42.6150 H   0  0  0  0  0  0  0  0  0  0  0  0
   38.7450   28.0610   44.2980 H   0  0  0  0  0  0  0  0  0  0  0  0
   38.1880   25.9540   43.0330 H   0  0  0  0  0  0  0  0  0  0  0  0
   36.7910   26.8180   43.6660 H   0  0  0  0  0  0  0  0  0  0  0  0
   35.8570   26.9420   41.6250 H   0  0  0  0  0  0  0  0  0  0  0  0
   37.2180   26.0210   41.0080 H   0  0  0  0  0  0  0  0  0  0  0  0
   38.3660   27.7760   40.2210 H   0  0  0  0  0  0  0  0  0  0  0  0
   37.4930   32.7360   39.9370 C   0  0  0  0  0  0  0  0  0  0  0  0
   37.1430   31.5960   40.6570 C   0  0  0  0  0  0  0  0  0  0  0  0
   38.0000   30.4860   40.6510 C   0  0  0  0  0  0  0  0  0  0  0  0
   39.1630   30.5720   39.9240 N   0  0  0  0  0  0  0  0  0  0  0  0
   39.4560   31.7200   39.2340 C   0  0  0  0  0  0  0  0  0  0  0  0
   38.6240   32.7850   39.2470 N   0  0  0  0  0  0  0  0  0  0  0  0
   36.8830   33.6220   39.8990 H   0  0  0  0  0  0  0  0  0  0  0  0
   36.2300   31.5690   41.2080 H   0  0  0  0  0  0  0  0  0  0  0  0
   40.4030   31.6410   38.7090 H   0  0  0  0  0  0  0  0  0  0  0  0
   36.4260   28.1620   39.5570 C   0  0  0  0  0  3  0  0  0  0  0  0
   35.0530   28.6920   39.8720 C   0  0  0  0  0  2  0  0  0  0  0  0
   34.4180   29.0510   38.5140 C   0  0  0  0  0  2  0  0  0  0  0  0
   34.3390   27.8440   37.6320 C   0  0  0  0  0  2  0  0  0  0  0  0
   35.6740   27.1460   37.4830 C   0  0  0  0  0  2  0  0  0  0  0  0
   36.2070   26.8380   38.8710 C   0  0  0  0  0  2  0  0  0  0  0  0
  1  2  1  0  0  0  0
  2  7  1  0  0  0  0
  2  3  1  0  0  0  0
  2  8  1  0  0  0  0
  3 10  1  0  0  0  0
  4 11  1  0  0  0  0
  4  3  1  0  0  0  0
  4 12  1  0  0  0  0
  5 13  1  0  0  0  0
  5  4  1  0  0  0  0
  6 15  1  6  0  0  0
  6  1  1  0  0  0  0
  6  5  1  0  0  0  0
  9  3  1  0  0  0  0
 14  5  1  0  0  0  0
 16 17  1  0  0  0  0
 17 23  1  0  0  0  0
 18 17  2  0  0  0  0
 18  1  1  0  0  0  0
 19 18  1  0  0  0  0
 20 21  1  0  0  0  0
 20 19  2  0  0  0  0
 21 16  2  0  0  0  0
 22 16  1  0  0  0  0
 24 20  1  0  0  0  0
 25 26  1  0  0  0  0
 25  6  1  0  0  0  0
 27 26  1  0  0  0  0
 28 27  1  0  0  0  0
 29 28  1  0  0  0  0
 29 30  1  0  0  0  0
 30 25  1  0  0  0  0
M  END
>  <minimizedAffinity>
-4.86658907

$$$$

 OpenBabel03252502213D

 30 32  0  0  1  0  0  0  0  0999 V2000
   38.6290   31.2540   40.7830 N   0  0  0  0  0  0  0  0  0  0  0  0
   39.6250   32.3220   40.6930 C   0  0  0  0  0  0  0  0  0  0  0  0
   38.8310   33.6100   40.9320 C   0  0  0  0  0  0  0  0  0  0  0  0
   37.8750   33.8430   39.8160 C   0  0  0  0  0  0  0  0  0  0  0  0
   37.1800   32.6220   39.3560 C   0  0  0  0  0  0  0  0  0  0  0  0
   37.3560   31.3930   40.1780 C   0  0  1  0  0  0  0  0  0  0  0  0
   40.4020   32.2300   41.4670 H   0  0  0  0  0  0  0  0  0  0  0  0
   40.0450   32.4040   39.6910 H   0  0  0  0  0  0  0  0  0  0  0  0
   38.2220   33.4070   41.8570 H   0  0  0  0  0  0  0  0  0  0  0  0
   39.4820   34.4600   41.1330 H   0  0  0  0  0  0  0  0  0  0  0  0
   37.2040   34.6690   40.0740 H   0  0  0  0  0  0  0  0  0  0  0  0
   38.4930   34.2360   38.9560 H   0  0  0  0  0  0  0  0  0  0  0  0
   37.3880   32.3960   38.2880 H   0  0  0  0  0  0  0  0  0  0  0  0
   36.0750   32.8660   39.3530 H   0  0  0  0  0  0  0  0  0  0  0  0
   36.6320   31.5080   41.0450 H   0  0  0  0  0  0  0  0  0  0  0  0
   38.6080   28.4830   43.2780 C   0  0  0  0  0  0  0  0  0  0  0  0
   38.2600   29.6730   42.6410 C   0  0  0  0  0  0  0  0  0  0  0  0
   38.9510   30.0640   41.4850 C   0  0  0  0  0  0  0  0  0  0  0  0
   39.9550   29.2450   41.0240 N   0  0  0  0  0  0  0  0  0  0  0  0
   40.2530   28.0850   41.6920 C   0  0  0  0  0  0  0  0  0  0  0  0
   39.5810   27.7170   42.8040 N   0  0  0  0  0  0  0  0  0  0  0  0
   38.1190   28.1230   44.1670 H   0  0  0  0  0  0  0  0  0  0  0  0
   37.4760   30.2810   43.0320 H   0  0  0  0  0  0  0  0  0  0  0  0
   41.0640   27.5450   41.2120 H   0  0  0  0  0  0  0  0  0  0  0  0
   36.8040   30.2620   39.3810 C   0  0  0  0  0  3  0  0  0  0  0  0
   36.5840   30.5260   37.9160 C   0  0  0  0  0  2  0  0  0  0  0  0
   36.4430   29.1410   37.2550 C   0  0  0  0  0  2  0  0  0  0  0  0
   35.2900   28.3890   37.8450 C   0  0  0  0  0  2  0  0  0  0  0  0
   35.3620   28.3080   39.3550 C   0  0  0  0  0  2  0  0  0  0  0  0
   35.4980   29.7180   39.9010 C   0  0  0  0  0  2  0  0  0  0  0  0
  1 18  1  0  0  0  0
  2  1  1  0  0  0  0
  2  3  1  0  0  0  0
  2  7  1  0  0  0  0
  3 10  1  0  0  0  0
  3  9  1  0  0  0  0
  4 11  1  0  0  0  0
  4  3  1  0  0  0  0
  5  4  1  0  0  0  0
  5  6  1  0  0  0  0
  6  1  1  0  0  0  0
  6 15  1  1  0  0  0
  8  2  1  0  0  0  0
 12  4  1  0  0  0  0
 13  5  1  0  0  0  0
 14  5  1  0  0  0  0
 16 22  1  0  0  0  0
 17 23  1  0  0  0  0
 17 16  2  0  0  0  0
 18 17  1  0  0  0  0
 19 18  2  0  0  0  0
 19 20  1  0  0  0  0
 20 21  2  0  0  0  0
 21 16  1  0  0  0  0
 24 20  1  0  0  0  0
 25 30  1  0  0  0  0
 25  6  1  0  0  0  0
 26 25  1  0  0  0  0
 27 28  1  0  0  0  0
 27 26  1  0  0  0  0
 28 29  1  0  0  0  0
 29 30  1  0  0  0  0
M  END
>  <minimizedAffinity>
-4.82543755

$$$$

 OpenBabel03252502213D

 30 32  0  0  1  0  0  0  0  0999 V2000
   37.8230   26.6880   41.5190 N   0  0  0  0  0  0  0  0  0  0  0  0
   39.0030   26.8630   42.3660 C   0  0  0  0  0  0  0  0  0  0  0  0
   38.4530   27.4320   43.6780 C   0  0  0  0  0  0  0  0  0  0  0  0
   37.8960   28.7950   43.4580 C   0  0  0  0  0  0  0  0  0  0  0  0
   37.1160   28.9300   42.2100 C   0  0  0  0  0  0  0  0  0  0  0  0
   36.8130   27.6790   41.4620 C   0  0  1  0  0  0  0  0  0  0  0  0
   39.5110   25.9090   42.5730 H   0  0  0  0  0  0  0  0  0  0  0  0
   39.6820   27.6170   41.9690 H   0  0  0  0  0  0  0  0  0  0  0  0
   37.5910   26.7590   43.9470 H   0  0  0  0  0  0  0  0  0  0  0  0
   39.1850   27.3860   44.4830 H   0  0  0  0  0  0  0  0  0  0  0  0
   37.3630   29.1230   44.3570 H   0  0  0  0  0  0  0  0  0  0  0  0
   38.7870   29.4850   43.3880 H   0  0  0  0  0  0  0  0  0  0  0  0
   37.5510   29.6870   41.5210 H   0  0  0  0  0  0  0  0  0  0  0  0
   36.1250   29.3920   42.5020 H   0  0  0  0  0  0  0  0  0  0  0  0
   35.9230   27.2200   41.9980 H   0  0  0  0  0  0  0  0  0  0  0  0
   36.6550   23.3910   40.2280 C   0  0  0  0  0  0  0  0  0  0  0  0
   36.7450   24.5210   41.0380 C   0  0  0  0  0  0  0  0  0  0  0  0
   37.6980   25.5060   40.7430 C   0  0  0  0  0  0  0  0  0  0  0  0
   38.5130   25.3120   39.6530 N   0  0  0  0  0  0  0  0  0  0  0  0
   38.3790   24.1790   38.8920 C   0  0  0  0  0  0  0  0  0  0  0  0
   37.4570   23.2360   39.1830 N   0  0  0  0  0  0  0  0  0  0  0  0
   35.9470   22.5980   40.3960 H   0  0  0  0  0  0  0  0  0  0  0  0
   36.0940   24.6340   41.8750 H   0  0  0  0  0  0  0  0  0  0  0  0
   39.0880   24.1640   38.0690 H   0  0  0  0  0  0  0  0  0  0  0  0
   36.2760   28.0920   40.1360 C   0  0  0  0  0  3  0  0  0  0  0  0
   37.2570   28.7340   39.1920 C   0  0  0  0  0  2  0  0  0  0  0  0
   36.6060   28.6640   37.7960 C   0  0  0  0  0  2  0  0  0  0  0  0
   35.2950   29.3900   37.7870 C   0  0  0  0  0  2  0  0  0  0  0  0
   34.3660   28.9220   38.8860 C   0  0  0  0  0  2  0  0  0  0  0  0
   35.1010   29.0330   40.2100 C   0  0  0  0  0  2  0  0  0  0  0  0
  1  2  1  0  0  0  0
  2  7  1  0  0  0  0
  2  3  1  0  0  0  0
  3  9  1  0  0  0  0
  3 10  1  0  0  0  0
  4  3  1  0  0  0  0
  4 11  1  0  0  0  0
  5 14  1  0  0  0  0
  5  4  1  0  0  0  0
  6  1  1  0  0  0  0
  6 15  1  1  0  0  0
  6  5  1  0  0  0  0
  8  2  1  0  0  0  0
 12  4  1  0  0  0  0
 13  5  1  0  0  0  0
 16 22  1  0  0  0  0
 16 17  1  0  0  0  0
 17 23  1  0  0  0  0
 18 17  2  0  0  0  0
 18  1  1  0  0  0  0
 19 18  1  0  0  0  0
 20 21  1  0  0  0  0
 20 19  2  0  0  0  0
 21 16  2  0  0  0  0
 24 20  1  0  0  0  0
 25 30  1  0  0  0  0
 25  6  1  0  0  0  0
 26 25  1  0  0  0  0
 27 26  1  0  0  0  0
 28 27  1  0  0  0  0
 28 29  1  0  0  0  0
 29 30  1  0  0  0  0
M  END
>  <minimizedAffinity>
-4.80570269

$$$$

 OpenBabel03252502213D

 30 32  0  0  1  0  0  0  0  0999 V2000
   37.0470   30.5730   39.7620 N   0  0  0  0  0  0  0  0  0  0  0  0
   36.9870   32.0300   39.8790 C   0  0  0  0  0  0  0  0  0  0  0  0
   38.4530   32.4700   39.9520 C   0  0  0  0  0  0  0  0  0  0  0  0
   39.0780   31.9800   41.2110 C   0  0  0  0  0  0  0  0  0  0  0  0
   38.7040   30.5960   41.5670 C   0  0  0  0  0  0  0  0  0  0  0  0
   37.9480   29.8150   40.5490 C   0  0  1  0  0  0  0  0  0  0  0  0
   36.5150   32.4980   39.0020 H   0  0  0  0  0  0  0  0  0  0  0  0
   36.5280   32.3460   40.8150 H   0  0  0  0  0  0  0  0  0  0  0  0
   38.9590   31.9370   39.0990 H   0  0  0  0  0  0  0  0  0  0  0  0
   38.5670   33.5430   39.7990 H   0  0  0  0  0  0  0  0  0  0  0  0
   40.1580   32.1580   41.1780 H   0  0  0  0  0  0  0  0  0  0  0  0
   38.7020   32.6630   42.0290 H   0  0  0  0  0  0  0  0  0  0  0  0
   38.1870   30.5380   42.5490 H   0  0  0  0  0  0  0  0  0  0  0  0
   39.6740   30.0430   41.7580 H   0  0  0  0  0  0  0  0  0  0  0  0
   38.7320   29.4420   39.8170 H   0  0  0  0  0  0  0  0  0  0  0  0
   34.1350   28.7610   38.2990 C   0  0  0  0  0  0  0  0  0  0  0  0
   34.9520   29.3770   39.2460 C   0  0  0  0  0  0  0  0  0  0  0  0
   36.1830   29.9170   38.8470 C   0  0  0  0  0  0  0  0  0  0  0  0
   36.5360   29.8130   37.5230 N   0  0  0  0  0  0  0  0  0  0  0  0
   35.6920   29.1970   36.6360 C   0  0  0  0  0  0  0  0  0  0  0  0
   34.5070   28.6800   37.0290 N   0  0  0  0  0  0  0  0  0  0  0  0
   33.1790   28.3270   38.5360 H   0  0  0  0  0  0  0  0  0  0  0  0
   34.6420   29.4350   40.2650 H   0  0  0  0  0  0  0  0  0  0  0  0
   36.1030   29.1910   35.6310 H   0  0  0  0  0  0  0  0  0  0  0  0
   37.4590   28.5840   41.2290 C   0  0  0  0  0  3  0  0  0  0  0  0
   37.5780   28.5610   42.7300 C   0  0  0  0  0  2  0  0  0  0  0  0
   36.6410   27.4350   43.2090 C   0  0  0  0  0  2  0  0  0  0  0  0
   37.0480   26.1210   42.6170 C   0  0  0  0  0  2  0  0  0  0  0  0
   37.1660   26.1760   41.1090 C   0  0  0  0  0  2  0  0  0  0  0  0
   38.1060   27.3120   40.7470 C   0  0  0  0  0  2  0  0  0  0  0  0
  1  2  1  0  0  0  0
  1  6  1  0  0  0  0
  2  3  1  0  0  0  0
  2  8  1  0  0  0  0
  3  4  1  0  0  0  0
  4  5  1  0  0  0  0
  4 12  1  0  0  0  0
  5 14  1  0  0  0  0
  5 13  1  0  0  0  0
  6 15  1  6  0  0  0
  6 25  1  0  0  0  0
  6  5  1  0  0  0  0
  7  2  1  0  0  0  0
  9  3  1  0  0  0  0
 10  3  1  0  0  0  0
 11  4  1  0  0  0  0
 16 22  1  0  0  0  0
 16 17  1  0  0  0  0
 17 23  1  0  0  0  0
 18 17  2  0  0  0  0
 18  1  1  0  0  0  0
 19 18  1  0  0  0  0
 20 21  1  0  0  0  0
 20 19  2  0  0  0  0
 21 16  2  0  0  0  0
 24 20  1  0  0  0  0
 25 26  1  0  0  0  0
 26 27  1  0  0  0  0
 28 27  1  0  0  0  0
 29 28  1  0  0  0  0
 30 29  1  0  0  0  0
 30 25  1  0  0  0  0
M  END
>  <minimizedAffinity>
-4.78346205

$$$$

 OpenBabel03252502213D

 30 32  0  0  1  0  0  0  0  0999 V2000
   36.9870   28.9990   39.8100 N   0  0  0  0  0  0  0  0  0  0  0  0
   35.7510   28.2670   39.5300 C   0  0  0  0  0  0  0  0  0  0  0  0
   35.8350   27.9270   38.0380 C   0  0  0  0  0  0  0  0  0  0  0  0
   35.7740   29.1680   37.2200 C   0  0  0  0  0  0  0  0  0  0  0  0
   36.5680   30.2880   37.7680 C   0  0  0  0  0  0  0  0  0  0  0  0
   37.4710   29.9820   38.9120 C   0  0  1  0  0  0  0  0  0  0  0  0
   35.6820   27.3330   40.1080 H   0  0  0  0  0  0  0  0  0  0  0  0
   34.8690   28.8960   39.6500 H   0  0  0  0  0  0  0  0  0  0  0  0
   36.8620   27.4860   37.9000 H   0  0  0  0  0  0  0  0  0  0  0  0
   35.1000   27.1770   37.7480 H   0  0  0  0  0  0  0  0  0  0  0  0
   35.9970   28.9300   36.1750 H   0  0  0  0  0  0  0  0  0  0  0  0
   34.6880   29.4820   37.2150 H   0  0  0  0  0  0  0  0  0  0  0  0
   35.9400   31.1730   38.0080 H   0  0  0  0  0  0  0  0  0  0  0  0
   37.2190   30.6610   36.9210 H   0  0  0  0  0  0  0  0  0  0  0  0
   38.3970   29.5200   38.4460 H   0  0  0  0  0  0  0  0  0  0  0  0
   37.9540   28.7640   43.4030 C   0  0  0  0  0  0  0  0  0  0  0  0
   37.2170   29.0850   42.2650 C   0  0  0  0  0  0  0  0  0  0  0  0
   37.7030   28.7170   41.0020 C   0  0  0  0  0  0  0  0  0  0  0  0
   38.9010   28.0460   40.9410 N   0  0  0  0  0  0  0  0  0  0  0  0
   39.5830   27.7560   42.0950 C   0  0  0  0  0  0  0  0  0  0  0  0
   39.1060   28.1150   43.3070 N   0  0  0  0  0  0  0  0  0  0  0  0
   37.6400   29.0150   44.4010 H   0  0  0  0  0  0  0  0  0  0  0  0
   36.2920   29.6090   42.3550 H   0  0  0  0  0  0  0  0  0  0  0  0
   40.5080   27.2260   41.8900 H   0  0  0  0  0  0  0  0  0  0  0  0
   37.9380   31.2890   39.4510 C   0  0  0  0  0  3  0  0  0  0  0  0
   37.3040   32.5180   38.8580 C   0  0  0  0  0  2  0  0  0  0  0  0
   37.6060   33.6650   39.8420 C   0  0  0  0  0  2  0  0  0  0  0  0
   39.0840   33.8470   40.0040 C   0  0  0  0  0  2  0  0  0  0  0  0
   39.7900   32.5610   40.3760 C   0  0  0  0  0  2  0  0  0  0  0  0
   39.4260   31.5050   39.3470 C   0  0  0  0  0  2  0  0  0  0  0  0
  1 18  1  0  0  0  0
  2  8  1  0  0  0  0
  2  1  1  0  0  0  0
  2  7  1  0  0  0  0
  3  2  1  0  0  0  0
  4  5  1  0  0  0  0
  4  3  1  0  0  0  0
  5 13  1  0  0  0  0
  5  6  1  0  0  0  0
  6 15  1  6  0  0  0
  6 25  1  0  0  0  0
  6  1  1  0  0  0  0
  9  3  1  0  0  0  0
 10  3  1  0  0  0  0
 11  4  1  0  0  0  0
 12  4  1  0  0  0  0
 14  5  1  0  0  0  0
 16 22  1  0  0  0  0
 17 23  1  0  0  0  0
 17 16  2  0  0  0  0
 18 17  1  0  0  0  0
 19 18  2  0  0  0  0
 19 20  1  0  0  0  0
 20 21  2  0  0  0  0
 21 16  1  0  0  0  0
 24 20  1  0  0  0  0
 26 25  1  0  0  0  0
 26 27  1  0  0  0  0
 27 28  1  0  0  0  0
 28 29  1  0  0  0  0
 30 25  1  0  0  0  0
 30 29  1  0  0  0  0
M  END
>  <minimizedAffinity>
-4.68184805

$$$$

 OpenBabel03252502213D

 30 32  0  0  1  0  0  0  0  0999 V2000
   38.6420   25.7010   41.2190 N   0  0  0  0  0  0  0  0  0  0  0  0
   39.9080   24.9850   41.3780 C   0  0  0  0  0  0  0  0  0  0  0  0
   39.9740   24.6470   42.8710 C   0  0  0  0  0  0  0  0  0  0  0  0
   40.0980   25.8910   43.6780 C   0  0  0  0  0  0  0  0  0  0  0  0
   39.2410   26.9990   43.2090 C   0  0  0  0  0  0  0  0  0  0  0  0
   38.2360   26.6800   42.1580 C   0  0  1  0  0  0  0  0  0  0  0  0
   39.9330   24.0510   40.7970 H   0  0  0  0  0  0  0  0  0  0  0  0
   40.7670   25.6240   41.1730 H   0  0  0  0  0  0  0  0  0  0  0  0
   38.9710   24.1940   43.1090 H   0  0  0  0  0  0  0  0  0  0  0  0
   40.7420   23.9070   43.0900 H   0  0  0  0  0  0  0  0  0  0  0  0
   39.9810   25.6520   44.7410 H   0  0  0  0  0  0  0  0  0  0  0  0
   41.1750   26.2180   43.5780 H   0  0  0  0  0  0  0  0  0  0  0  0
   39.8320   27.8910   42.9090 H   0  0  0  0  0  0  0  0  0  0  0  0
   38.6700   27.3660   44.1150 H   0  0  0  0  0  0  0  0  0  0  0  0
   37.3650   26.2070   42.7130 H   0  0  0  0  0  0  0  0  0  0  0  0
   35.8450   24.4400   39.1010 C   0  0  0  0  0  0  0  0  0  0  0  0
   36.6260   24.6800   40.2300 C   0  0  0  0  0  0  0  0  0  0  0  0
   37.8180   25.4080   40.1020 C   0  0  0  0  0  0  0  0  0  0  0  0
   38.1690   25.8580   38.8520 N   0  0  0  0  0  0  0  0  0  0  0  0
   37.3610   25.5910   37.7760 C   0  0  0  0  0  0  0  0  0  0  0  0
   36.2150   24.8900   37.9090 N   0  0  0  0  0  0  0  0  0  0  0  0
   34.9200   23.8900   39.1270 H   0  0  0  0  0  0  0  0  0  0  0  0
   36.3180   24.3120   41.1830 H   0  0  0  0  0  0  0  0  0  0  0  0
   37.7660   26.0080   36.8590 H   0  0  0  0  0  0  0  0  0  0  0  0
   37.7020   27.9800   41.6660 C   0  0  0  0  0  3  0  0  0  0  0  0
   38.2860   29.2180   42.2910 C   0  0  0  0  0  2  0  0  0  0  0  0
   37.9190   30.3800   41.3470 C   0  0  0  0  0  2  0  0  0  0  0  0
   36.4320   30.4980   41.2070 C   0  0  0  0  0  2  0  0  0  0  0  0
   35.7830   29.1920   40.8020 C   0  0  0  0  0  2  0  0  0  0  0  0
   36.2070   28.1230   41.7930 C   0  0  0  0  0  2  0  0  0  0  0  0
  1  2  1  0  0  0  0
  1  6  1  0  0  0  0
  2  3  1  0  0  0  0
  3 10  1  0  0  0  0
  3  9  1  0  0  0  0
  3  4  1  0  0  0  0
  4 11  1  0  0  0  0
  5  4  1  0  0  0  0
  5 14  1  0  0  0  0
  6 15  1  1  0  0  0
  6  5  1  0  0  0  0
  7  2  1  0  0  0  0
  8  2  1  0  0  0  0
 12  4  1  0  0  0  0
 13  5  1  0  0  0  0
 16 22  1  0  0  0  0
 16 17  1  0  0  0  0
 17 23  1  0  0  0  0
 18 17  2  0  0  0  0
 18  1  1  0  0  0  0
 19 18  1  0  0  0  0
 20 21  1  0  0  0  0
 20 19  2  0  0  0  0
 21 16  2  0  0  0  0
 24 20  1  0  0  0  0
 25 30  1  0  0  0  0
 25  6  1  0  0  0  0
 25 26  1  0  0  0  0
 27 26  1  0  0  0  0
 28 27  1  0  0  0  0
 29 28  1  0  0  0  0
 29 30  1  0  0  0  0
M  END
>  <minimizedAffinity>
-4.64122772

$$$$
