
 OpenBabel03242521503D

 17 18  0  0  1  0  0  0  0  0999 V2000
   37.5520   30.2470   38.4630 C   0  0  0  0  0  0  0  0  0  0  0  0
   37.3620   31.6300   38.4830 C   0  0  0  0  0  0  0  0  0  0  0  0
   37.1370   32.2450   39.7070 C   0  0  0  0  0  0  0  0  0  0  0  0
   37.1150   31.4590   40.8240 N   0  0  0  0  0  0  0  0  0  0  0  0
   37.3010   30.1320   40.7790 C   0  0  0  0  0  0  0  0  0  0  0  0
   37.5180   29.5330   39.6030 N   0  0  0  0  0  0  0  0  0  0  0  0
   37.7310   29.7200   37.5270 H   0  0  0  0  0  0  0  0  0  0  0  0
   37.3970   32.1670   37.5390 H   0  0  0  0  0  0  0  0  0  0  0  0
   37.2400   29.4550   42.1130 C   0  0  2  0  0  3  0  0  0  0  0  0
   38.5490   29.3370   42.7770 C   0  0  0  0  0  3  0  0  0  0  0  0
   39.0210   28.0390   43.2670 C   0  0  0  0  0  3  0  0  0  0  0  0
   38.1270   26.8600   43.0080 C   0  0  0  0  0  2  0  0  0  0  0  0
   36.6750   27.3120   43.1410 C   0  0  0  0  0  2  0  0  0  0  0  0
   36.4640   28.1950   41.9290 C   0  0  0  0  0  2  0  0  0  0  0  0
   36.9400   33.6450   39.7530 N   0  0  0  0  0  0  0  0  0  0  0  0
   37.8700   34.0680   39.4980 H   0  0  0  0  0  0  0  0  0  0  0  0
   36.0840   34.2300   39.9830 H   0  0  0  0  0  0  0  0  0  0  0  0
  1  2  2  0  0  0  0
  1  6  1  0  0  0  0
  2  3  1  0  0  0  0
  3 15  1  0  0  0  0
  3  4  2  0  0  0  0
  5  4  1  0  0  0  0
  6  5  2  0  0  0  0
  7  1  1  0  0  0  0
  8  2  1  0  0  0  0
  9  5  1  6  0  0  0
  9 10  1  0  0  0  0
 10 11  2  0  0  0  0
 12 13  1  0  0  0  0
 12 11  1  0  0  0  0
 14  9  1  0  0  0  0
 14 13  1  0  0  0  0
 15 17  1  0  0  0  0
 16 15  1  0  0  0  0
M  END
>  <minimizedAffinity>
-5.00412321

$$$$

 OpenBabel03242521503D

 17 18  0  0  1  0  0  0  0  0999 V2000
   37.7190   30.3750   38.0040 C   0  0  0  0  0  0  0  0  0  0  0  0
   37.3500   31.6550   38.4230 C   0  0  0  0  0  0  0  0  0  0  0  0
   37.3120   31.9150   39.7850 C   0  0  0  0  0  0  0  0  0  0  0  0
   37.6380   30.9010   40.6410 N   0  0  0  0  0  0  0  0  0  0  0  0
   37.9900   29.6800   40.2140 C   0  0  0  0  0  0  0  0  0  0  0  0
   38.0290   29.4220   38.9030 N   0  0  0  0  0  0  0  0  0  0  0  0
   37.7640   30.1230   36.9450 H   0  0  0  0  0  0  0  0  0  0  0  0
   37.1080   32.3940   37.6630 H   0  0  0  0  0  0  0  0  0  0  0  0
   38.3100   28.7120   41.3110 C   0  0  2  0  0  3  0  0  0  0  0  0
   37.8050   27.3510   41.0650 C   0  0  0  0  0  3  0  0  0  0  0  0
   36.9890   26.6670   42.0720 C   0  0  0  0  0  3  0  0  0  0  0  0
   36.6670   27.4460   43.3150 C   0  0  0  0  0  2  0  0  0  0  0  0
   37.8790   28.3020   43.6800 C   0  0  0  0  0  2  0  0  0  0  0  0
   37.9090   29.3570   42.5940 C   0  0  0  0  0  2  0  0  0  0  0  0
   36.9400   33.2050   40.2340 N   0  0  0  0  0  0  0  0  0  0  0  0
   37.7260   33.8410   39.9430 H   0  0  0  0  0  0  0  0  0  0  0  0
   36.0810   33.5500   40.7550 H   0  0  0  0  0  0  0  0  0  0  0  0
  1  2  2  0  0  0  0
  1  6  1  0  0  0  0
  2  3  1  0  0  0  0
  3 15  1  0  0  0  0
  3  4  2  0  0  0  0
  5  4  1  0  0  0  0
  6  5  2  0  0  0  0
  7  1  1  0  0  0  0
  8  2  1  0  0  0  0
  9  5  1  6  0  0  0
  9 14  1  0  0  0  0
 10  9  1  0  0  0  0
 10 11  2  0  0  0  0
 11 12  1  0  0  0  0
 12 13  1  0  0  0  0
 14 13  1  0  0  0  0
 15 17  1  0  0  0  0
 16 15  1  0  0  0  0
M  END
>  <minimizedAffinity>
-4.67569733

$$$$

 OpenBabel03242521503D

 17 18  0  0  1  0  0  0  0  0999 V2000
   36.9060   27.8070   39.0820 C   0  0  0  0  0  0  0  0  0  0  0  0
   36.2930   29.0150   39.4220 C   0  0  0  0  0  0  0  0  0  0  0  0
   36.1870   29.3420   40.7670 C   0  0  0  0  0  0  0  0  0  0  0  0
   36.6900   28.4610   41.6820 N   0  0  0  0  0  0  0  0  0  0  0  0
   37.2740   27.3070   41.3300 C   0  0  0  0  0  0  0  0  0  0  0  0
   37.3800   26.9860   40.0360 N   0  0  0  0  0  0  0  0  0  0  0  0
   37.0120   27.5070   38.0400 H   0  0  0  0  0  0  0  0  0  0  0  0
   35.9240   29.6480   38.6200 H   0  0  0  0  0  0  0  0  0  0  0  0
   37.7590   26.4840   42.4830 C   0  0  2  0  0  3  0  0  0  0  0  0
   38.7170   27.1880   43.3510 C   0  0  0  0  0  3  0  0  0  0  0  0
   40.0100   26.5820   43.6800 C   0  0  0  0  0  3  0  0  0  0  0  0
   40.3060   25.2530   43.0460 C   0  0  0  0  0  2  0  0  0  0  0  0
   39.0110   24.4460   42.9790 C   0  0  0  0  0  2  0  0  0  0  0  0
   38.1950   25.1700   41.9290 C   0  0  0  0  0  2  0  0  0  0  0  0
   35.5700   30.5600   41.1370 N   0  0  0  0  0  0  0  0  0  0  0  0
   36.2240   31.3170   40.8100 H   0  0  0  0  0  0  0  0  0  0  0  0
   34.6540   30.7640   41.6350 H   0  0  0  0  0  0  0  0  0  0  0  0
  1  2  2  0  0  0  0
  1  6  1  0  0  0  0
  2  3  1  0  0  0  0
  3 15  1  0  0  0  0
  3  4  2  0  0  0  0
  5  4  1  0  0  0  0
  6  5  2  0  0  0  0
  7  1  1  0  0  0  0
  8  2  1  0  0  0  0
  9  5  1  6  0  0  0
  9 10  1  0  0  0  0
 10 11  2  0  0  0  0
 12 11  1  0  0  0  0
 13 12  1  0  0  0  0
 14  9  1  0  0  0  0
 14 13  1  0  0  0  0
 15 17  1  0  0  0  0
 16 15  1  0  0  0  0
M  END
>  <minimizedAffinity>
-4.45350552

$$$$

 OpenBabel03242521503D

 17 18  0  0  1  0  0  0  0  0999 V2000
   39.8210   32.8840   40.5550 C   0  0  0  0  0  0  0  0  0  0  0  0
   40.3310   32.9200   39.2560 C   0  0  0  0  0  0  0  0  0  0  0  0
   39.6000   32.3110   38.2450 C   0  0  0  0  0  0  0  0  0  0  0  0
   38.4210   31.7100   38.5810 N   0  0  0  0  0  0  0  0  0  0  0  0
   37.9520   31.6890   39.8370 C   0  0  0  0  0  0  0  0  0  0  0  0
   38.6510   32.2730   40.8150 N   0  0  0  0  0  0  0  0  0  0  0  0
   40.3590   33.3480   41.3810 H   0  0  0  0  0  0  0  0  0  0  0  0
   41.2810   33.4240   39.0900 H   0  0  0  0  0  0  0  0  0  0  0  0
   36.6420   30.9800   39.9940 C   0  0  2  0  0  3  0  0  0  0  0  0
   36.5430   30.1880   41.2310 C   0  0  0  0  0  3  0  0  0  0  0  0
   36.1510   28.7760   41.1810 C   0  0  0  0  0  3  0  0  0  0  0  0
   35.9150   28.1950   39.8170 C   0  0  0  0  0  2  0  0  0  0  0  0
   35.2640   29.2610   38.9390 C   0  0  0  0  0  2  0  0  0  0  0  0
   36.3760   30.2640   38.7140 C   0  0  0  0  0  2  0  0  0  0  0  0
   40.0970   32.3340   36.9200 N   0  0  0  0  0  0  0  0  0  0  0  0
   40.0380   33.3400   36.6160 H   0  0  0  0  0  0  0  0  0  0  0  0
   40.4680   31.5620   36.2930 H   0  0  0  0  0  0  0  0  0  0  0  0
  1  6  1  0  0  0  0
  1  7  1  0  0  0  0
  2  1  2  0  0  0  0
  3  4  2  0  0  0  0
  3  2  1  0  0  0  0
  4  5  1  0  0  0  0
  5  6  2  0  0  0  0
  8  2  1  0  0  0  0
  9  5  1  6  0  0  0
  9 10  1  0  0  0  0
 11 10  2  0  0  0  0
 12 11  1  0  0  0  0
 13 12  1  0  0  0  0
 14 13  1  0  0  0  0
 14  9  1  0  0  0  0
 15  3  1  0  0  0  0
 16 15  1  0  0  0  0
 17 15  1  0  0  0  0
M  END
>  <minimizedAffinity>
-4.410182

$$$$

 OpenBabel03242521503D

 17 18  0  0  1  0  0  0  0  0999 V2000
   40.3310   31.7310   40.0410 C   0  0  0  0  0  0  0  0  0  0  0  0
   39.2420   32.6010   39.9620 C   0  0  0  0  0  0  0  0  0  0  0  0
   37.9940   32.1290   40.3440 C   0  0  0  0  0  0  0  0  0  0  0  0
   37.9030   30.8360   40.7750 N   0  0  0  0  0  0  0  0  0  0  0  0
   38.9640   30.0200   40.8430 C   0  0  0  0  0  0  0  0  0  0  0  0
   40.1690   30.4680   40.4760 N   0  0  0  0  0  0  0  0  0  0  0  0
   41.3300   32.0560   39.7520 H   0  0  0  0  0  0  0  0  0  0  0  0
   39.4170   33.6120   39.6040 H   0  0  0  0  0  0  0  0  0  0  0  0
   38.6530   28.6440   41.3430 C   0  0  2  0  0  3  0  0  0  0  0  0
   37.2560   28.2350   41.1210 C   0  0  0  0  0  3  0  0  0  0  0  0
   36.4420   27.7290   42.2310 C   0  0  0  0  0  3  0  0  0  0  0  0
   37.0950   27.7050   43.5830 C   0  0  0  0  0  2  0  0  0  0  0  0
   38.5670   27.3380   43.4060 C   0  0  0  0  0  2  0  0  0  0  0  0
   39.1630   28.5610   42.7420 C   0  0  0  0  0  2  0  0  0  0  0  0
   36.8750   32.9920   40.2710 N   0  0  0  0  0  0  0  0  0  0  0  0
   37.0350   33.7220   41.0130 H   0  0  0  0  0  0  0  0  0  0  0  0
   36.0180   32.9850   39.6440 H   0  0  0  0  0  0  0  0  0  0  0  0
  1  6  1  0  0  0  0
  2  1  2  0  0  0  0
  2  3  1  0  0  0  0
  3  4  2  0  0  0  0
  4  5  1  0  0  0  0
  6  5  2  0  0  0  0
  7  1  1  0  0  0  0
  8  2  1  0  0  0  0
  9  5  1  1  0  0  0
  9 14  1  0  0  0  0
 10  9  1  0  0  0  0
 10 11  2  0  0  0  0
 11 12  1  0  0  0  0
 13 12  1  0  0  0  0
 14 13  1  0  0  0  0
 15  3  1  0  0  0  0
 15 16  1  0  0  0  0
 17 15  1  0  0  0  0
M  END
>  <minimizedAffinity>
-4.36027908

$$$$

 OpenBabel03242521503D

 17 18  0  0  1  0  0  0  0  0999 V2000
   38.0000   31.9560   39.5630 C   0  0  0  0  0  0  0  0  0  0  0  0
   37.2610   31.4160   38.5080 C   0  0  0  0  0  0  0  0  0  0  0  0
   36.5500   30.2460   38.7350 C   0  0  0  0  0  0  0  0  0  0  0  0
   36.6160   29.6880   39.9800 N   0  0  0  0  0  0  0  0  0  0  0  0
   37.3330   30.2260   40.9770 C   0  0  0  0  0  0  0  0  0  0  0  0
   38.0200   31.3530   40.7650 N   0  0  0  0  0  0  0  0  0  0  0  0
   38.5740   32.8730   39.4330 H   0  0  0  0  0  0  0  0  0  0  0  0
   37.2740   31.9350   37.5530 H   0  0  0  0  0  0  0  0  0  0  0  0
   37.2710   29.4620   42.2630 C   0  0  2  0  0  3  0  0  0  0  0  0
   38.5800   29.2990   42.9180 C   0  0  0  0  0  3  0  0  0  0  0  0
   39.0510   27.9720   43.3220 C   0  0  0  0  0  3  0  0  0  0  0  0
   38.1570   26.8130   42.9840 C   0  0  0  0  0  2  0  0  0  0  0  0
   36.7050   27.2560   43.1460 C   0  0  0  0  0  2  0  0  0  0  0  0
   36.4950   28.2170   41.9950 C   0  0  0  0  0  2  0  0  0  0  0  0
   35.7950   29.6790   37.6820 N   0  0  0  0  0  0  0  0  0  0  0  0
   35.0020   30.3510   37.5120 H   0  0  0  0  0  0  0  0  0  0  0  0
   35.9210   28.7830   37.1260 H   0  0  0  0  0  0  0  0  0  0  0  0
  1  6  1  0  0  0  0
  2  3  1  0  0  0  0
  2  1  2  0  0  0  0
  3  4  2  0  0  0  0
  4  5  1  0  0  0  0
  6  5  2  0  0  0  0
  7  1  1  0  0  0  0
  8  2  1  0  0  0  0
  9  5  1  6  0  0  0
  9 10  1  0  0  0  0
 10 11  2  0  0  0  0
 12 13  1  0  0  0  0
 12 11  1  0  0  0  0
 14  9  1  0  0  0  0
 14 13  1  0  0  0  0
 15  3  1  0  0  0  0
 16 15  1  0  0  0  0
 17 15  1  0  0  0  0
M  END
>  <minimizedAffinity>
-4.32408142

$$$$

 OpenBabel03242521503D

 17 18  0  0  1  0  0  0  0  0999 V2000
   41.0930   27.2540   43.6250 C   0  0  0  0  0  0  0  0  0  0  0  0
   41.0100   25.8610   43.6080 C   0  0  0  0  0  0  0  0  0  0  0  0
   39.7980   25.2790   43.2640 C   0  0  0  0  0  0  0  0  0  0  0  0
   38.7530   26.1060   42.9620 N   0  0  0  0  0  0  0  0  0  0  0  0
   38.8590   27.4420   42.9850 C   0  0  0  0  0  0  0  0  0  0  0  0
   40.0240   28.0090   43.3160 N   0  0  0  0  0  0  0  0  0  0  0  0
   42.0230   27.7570   43.8890 H   0  0  0  0  0  0  0  0  0  0  0  0
   41.8990   25.2900   43.8650 H   0  0  0  0  0  0  0  0  0  0  0  0
   37.6000   28.1660   42.6210 C   0  0  2  0  0  3  0  0  0  0  0  0
   36.7330   27.4180   41.6960 C   0  0  0  0  0  3  0  0  0  0  0  0
   36.2530   28.0390   40.4580 C   0  0  0  0  0  3  0  0  0  0  0  0
   36.7340   29.4330   40.1790 C   0  0  0  0  0  2  0  0  0  0  0  0
   36.8200   30.1920   41.5020 C   0  0  0  0  0  2  0  0  0  0  0  0
   37.9920   29.5440   42.2080 C   0  0  0  0  0  2  0  0  0  0  0  0
   39.6880   23.8680   43.2400 N   0  0  0  0  0  0  0  0  0  0  0  0
   40.2840   23.5540   42.4320 H   0  0  0  0  0  0  0  0  0  0  0  0
   39.1510   23.1920   43.8580 H   0  0  0  0  0  0  0  0  0  0  0  0
  1  7  1  0  0  0  0
  2  1  1  0  0  0  0
  2  8  1  0  0  0  0
  3  2  2  0  0  0  0
  4  5  2  0  0  0  0
  4  3  1  0  0  0  0
  5  6  1  0  0  0  0
  6  1  2  0  0  0  0
  9  5  1  6  0  0  0
 10  9  1  0  0  0  0
 11 10  2  0  0  0  0
 12 11  1  0  0  0  0
 12 13  1  0  0  0  0
 13 14  1  0  0  0  0
 14  9  1  0  0  0  0
 15  3  1  0  0  0  0
 15 17  1  0  0  0  0
 16 15  1  0  0  0  0
M  END
>  <minimizedAffinity>
-4.29430485

$$$$

 OpenBabel03242521503D

 17 18  0  0  1  0  0  0  0  0999 V2000
   36.9340   29.1690   37.9850 C   0  0  0  0  0  0  0  0  0  0  0  0
   35.5920   29.0460   37.6180 C   0  0  0  0  0  0  0  0  0  0  0  0
   34.6400   28.9700   38.6250 C   0  0  0  0  0  0  0  0  0  0  0  0
   35.0720   29.0190   39.9200 N   0  0  0  0  0  0  0  0  0  0  0  0
   36.3660   29.1380   40.2470 C   0  0  0  0  0  0  0  0  0  0  0  0
   37.2890   29.2120   39.2820 N   0  0  0  0  0  0  0  0  0  0  0  0
   37.7170   29.2330   37.2310 H   0  0  0  0  0  0  0  0  0  0  0  0
   35.3500   29.0150   36.5590 H   0  0  0  0  0  0  0  0  0  0  0  0
   36.6300   29.1740   41.7200 C   0  0  2  0  0  3  0  0  0  0  0  0
   37.9000   29.8290   42.0780 C   0  0  0  0  0  3  0  0  0  0  0  0
   38.8690   29.1500   42.9430 C   0  0  0  0  0  3  0  0  0  0  0  0
   38.5140   27.7600   43.3850 C   0  0  0  0  0  2  0  0  0  0  0  0
   37.0070   27.6970   43.6280 C   0  0  0  0  0  2  0  0  0  0  0  0
   36.4170   27.7920   42.2370 C   0  0  0  0  0  2  0  0  0  0  0  0
   33.2740   28.8440   38.2790 N   0  0  0  0  0  0  0  0  0  0  0  0
   33.0100   29.7630   37.8390 H   0  0  0  0  0  0  0  0  0  0  0  0
   32.5870   28.0420   38.3960 H   0  0  0  0  0  0  0  0  0  0  0  0
  1  6  1  0  0  0  0
  2  1  2  0  0  0  0
  2  3  1  0  0  0  0
  3  4  2  0  0  0  0
  4  5  1  0  0  0  0
  6  5  2  0  0  0  0
  7  1  1  0  0  0  0
  8  2  1  0  0  0  0
  9  5  1  6  0  0  0
  9 10  1  0  0  0  0
  9 14  1  0  0  0  0
 10 11  2  0  0  0  0
 11 12  1  0  0  0  0
 12 13  1  0  0  0  0
 14 13  1  0  0  0  0
 15 17  1  0  0  0  0
 15  3  1  0  0  0  0
 16 15  1  0  0  0  0
M  END
>  <minimizedAffinity>
-4.27542973

$$$$

 OpenBabel03242521503D

 17 18  0  0  1  0  0  0  0  0999 V2000
   36.5370   28.0070   40.2350 C   0  0  0  0  0  0  0  0  0  0  0  0
   36.6120   28.0010   41.6290 C   0  0  0  0  0  0  0  0  0  0  0  0
   37.0910   29.1380   42.2670 C   0  0  0  0  0  0  0  0  0  0  0  0
   37.4610   30.1990   41.4910 N   0  0  0  0  0  0  0  0  0  0  0  0
   37.3780   30.1810   40.1530 C   0  0  0  0  0  0  0  0  0  0  0  0
   36.9190   29.0890   39.5330 N   0  0  0  0  0  0  0  0  0  0  0  0
   36.1680   27.1390   39.6910 H   0  0  0  0  0  0  0  0  0  0  0  0
   36.2940   27.1060   42.1580 H   0  0  0  0  0  0  0  0  0  0  0  0
   37.8320   31.4440   39.4890 C   0  0  2  0  0  3  0  0  0  0  0  0
   39.2910   31.6380   39.5210 C   0  0  0  0  0  3  0  0  0  0  0  0
   39.8650   32.8880   40.0260 C   0  0  0  0  0  3  0  0  0  0  0  0
   38.8940   33.9100   40.5430 C   0  0  0  0  0  2  0  0  0  0  0  0
   37.6390   33.8720   39.6740 C   0  0  0  0  0  2  0  0  0  0  0  0
   36.9950   32.5500   40.0360 C   0  0  0  0  0  2  0  0  0  0  0  0
   37.1780   29.1560   43.6790 N   0  0  0  0  0  0  0  0  0  0  0  0
   36.1820   29.1520   44.0210 H   0  0  0  0  0  0  0  0  0  0  0  0
   38.0140   29.1700   44.3340 H   0  0  0  0  0  0  0  0  0  0  0  0
  1  2  1  0  0  0  0
  2  8  1  0  0  0  0
  2  3  2  0  0  0  0
  3 15  1  0  0  0  0
  4  3  1  0  0  0  0
  5  4  2  0  0  0  0
  6  5  1  0  0  0  0
  6  1  2  0  0  0  0
  7  1  1  0  0  0  0
  9 10  1  0  0  0  0
  9 14  1  0  0  0  0
  9  5  1  1  0  0  0
 10 11  2  0  0  0  0
 11 12  1  0  0  0  0
 13 14  1  0  0  0  0
 13 12  1  0  0  0  0
 15 16  1  0  0  0  0
 15 17  1  0  0  0  0
M  END
>  <minimizedAffinity>
-4.26030731

$$$$
