
 OpenBabel03252501183D

 18 19  0  0  0  0  0  0  0  0999 V2000
   45.2870   33.5960   46.3690 C   0  0  0  0  0  0  0  0  0  0  0  0
   45.9930   33.2790   45.1720 C   0  0  0  0  0  0  0  0  0  0  0  0
   46.8720   32.2090   45.2340 C   0  0  0  0  0  0  0  0  0  0  0  0
   47.0220   31.5180   46.4110 N   0  0  0  0  0  0  0  0  0  0  0  0
   46.3150   31.8750   47.5180 C   0  0  0  0  0  0  0  0  0  0  0  0
   45.4620   32.9000   47.4890 N   0  0  0  0  0  0  0  0  0  0  0  0
   44.5790   34.4110   46.4280 H   0  0  0  0  0  0  0  0  0  0  0  0
   46.4450   31.3160   48.4450 H   0  0  0  0  0  0  0  0  0  0  0  0
   45.6700   34.1350   44.0540 C   0  0  0  0  0  0  0  0  0  0  0  0
   44.6450   33.4750   43.1540 C   0  0  0  0  0  0  0  0  0  0  0  0
   44.6040   34.2280   41.8170 C   0  0  0  0  0  0  0  0  0  0  0  0
   44.1500   35.6460   42.1320 C   0  0  0  0  0  0  0  0  0  0  0  0
   45.0760   36.2790   43.1340 C   0  0  0  0  0  0  0  0  0  0  0  0
   45.0630   35.4660   44.4360 C   0  0  0  0  0  0  0  0  0  0  0  0
   47.5740   31.9030   43.9970 C   0  0  0  0  0  0  0  0  0  0  0  0
   48.5610   30.9450   44.2580 F   0  0  0  0  0  0  0  0  0  0  0  0
   48.2650   33.0250   43.6160 F   0  0  0  0  0  0  0  0  0  0  0  0
   46.7750   31.3850   43.0230 F   0  0  0  0  0  0  0  0  0  0  0  0
  1  7  1  0  0  0  0
  1  6  1  0  0  0  0
  2  3  1  0  0  0  0
  2  1  2  0  0  0  0
  3  4  2  0  0  0  0
  4  5  1  0  0  0  0
  5  8  1  0  0  0  0
  6  5  2  0  0  0  0
  9 14  1  0  0  0  0
  9  2  1  0  0  0  0
 10  9  1  0  0  0  0
 11 12  1  0  0  0  0
 11 10  1  0  0  0  0
 12 13  1  0  0  0  0
 13 14  1  0  0  0  0
 15 16  1  0  0  0  0
 15  3  1  0  0  0  0
 17 15  1  0  0  0  0
 18 15  1  0  0  0  0
M  END
>  <minimizedAffinity>
-4.07252502

>  <minimizedRMSD>
3.47344494

$$$$
