
 OpenBabel03252506563D

 35 39  0  0  0  0  0  0  0  0999 V2000
   47.2660   31.4660   45.0920 C   0  0  0  0  0  0  0  0  0  0  0  0
   46.8800   32.7930   45.0660 C   0  0  0  0  0  0  0  0  0  0  0  0
   46.2400   33.4200   46.1220 C   0  0  0  0  0  0  0  0  0  0  0  0
   45.9630   32.7000   47.2790 C   0  0  0  0  0  0  0  0  0  0  0  0
   45.3720   32.9690   48.4770 N   0  0  0  0  0  0  0  0  0  0  0  0
   45.3950   31.8370   49.2200 C   0  0  0  0  0  0  0  0  0  0  0  0
   45.9990   30.8830   48.4760 N   0  0  0  0  0  0  0  0  0  0  0  0
   46.3540   31.3860   47.2910 C   0  0  0  0  0  0  0  0  0  0  0  0
   46.9860   30.7450   46.2590 C   0  0  0  0  0  0  0  0  0  0  0  0
   47.7590   31.0090   44.2590 H   0  0  0  0  0  0  0  0  0  0  0  0
   45.9450   34.4510   46.0890 H   0  0  0  0  0  0  0  0  0  0  0  0
   44.9830   33.9240   48.7160 H   0  0  0  0  0  0  0  0  0  0  0  0
   44.9860   31.7790   50.2200 H   0  0  0  0  0  0  0  0  0  0  0  0
   46.4880   35.1920   42.2960 C   0  0  0  0  0  0  0  0  0  0  0  0
   47.6750   35.0490   41.5970 C   0  0  0  0  0  0  0  0  0  0  0  0
   48.6170   34.1290   42.0710 C   0  0  0  0  0  0  0  0  0  0  0  0
   48.3190   33.4170   43.2020 N   0  0  0  0  0  0  0  0  0  0  0  0
   47.1590   33.5770   43.8580 C   0  0  0  0  0  0  0  0  0  0  0  0
   46.2380   34.4600   43.4150 N   0  0  0  0  0  0  0  0  0  0  0  0
   45.7210   35.9010   41.9620 H   0  0  0  0  0  0  0  0  0  0  0  0
   47.8780   35.6210   40.7160 H   0  0  0  0  0  0  0  0  0  0  0  0
   49.5660   33.9780   41.5600 H   0  0  0  0  0  0  0  0  0  0  0  0
   47.3660   29.3260   46.3660 C   0  0  0  0  0  0  0  0  0  0  0  0
   48.6780   28.8680   46.2970 C   0  0  0  0  0  0  0  0  0  0  0  0
   48.5340   27.4750   46.4470 C   0  0  0  0  0  0  0  0  0  0  0  0
   47.1870   27.1900   46.5910 C   0  0  0  0  0  0  0  0  0  0  0  0
   46.5370   28.3400   46.5350 O   0  0  0  0  0  0  0  0  0  0  0  0
   49.5970   29.4280   46.1630 H   0  0  0  0  0  0  0  0  0  0  0  0
   49.3390   26.7550   46.4490 H   0  0  0  0  0  0  0  0  0  0  0  0
   46.5310   25.8560   46.7790 C   0  0  0  0  0  3  0  0  0  0  0  0
   45.5470   25.5620   45.6840 C   0  0  0  0  0  2  0  0  0  0  0  0
   44.1250   25.8790   46.0800 C   0  0  0  0  0  2  0  0  0  0  0  0
   43.6840   25.0250   47.2430 C   0  0  0  0  0  2  0  0  0  0  0  0
   44.8300   24.7370   48.1690 C   0  0  0  0  0  2  0  0  0  0  0  0
   45.9150   25.7800   48.1460 C   0  0  0  0  0  2  0  0  0  0  0  0
  1  9  1  0  0  0  0
  2  1  2  0  0  0  0
  2  3  1  0  0  0  0
  3  4  2  0  0  0  0
  4  8  1  0  0  0  0
  4  5  1  0  0  0  0
  5 12  1  0  0  0  0
  5  6  1  0  0  0  0
  6 13  1  0  0  0  0
  7  6  2  0  0  0  0
  8  7  1  0  0  0  0
  9 23  1  0  0  0  0
  9  8  2  0  0  0  0
 10  1  1  0  0  0  0
 11  3  1  0  0  0  0
 14 19  1  0  0  0  0
 15 16  1  0  0  0  0
 15 14  2  0  0  0  0
 16 17  2  0  0  0  0
 17 18  1  0  0  0  0
 18  2  1  0  0  0  0
 19 18  2  0  0  0  0
 20 14  1  0  0  0  0
 21 15  1  0  0  0  0
 22 16  1  0  0  0  0
 23 27  1  0  0  0  0
 24 23  2  0  0  0  0
 24 25  1  0  0  0  0
 25 29  1  0  0  0  0
 25 26  2  0  0  0  0
 26 30  1  0  0  0  0
 27 26  1  0  0  0  0
 28 24  1  0  0  0  0
 30 35  1  0  0  0  0
 31 32  1  0  0  0  0
 31 30  1  0  0  0  0
 32 33  1  0  0  0  0
 33 34  1  0  0  0  0
 35 34  1  0  0  0  0
M  END
>  <minimizedAffinity>
-5.69434643

>  <minimizedRMSD>
0.672833562

$$$$
