
 OpenBabel03242511333D

 32 34  0  0  1  0  0  0  0  0999 V2000
   47.1300   33.5970   44.1120 C   0  0  0  0  0  0  0  0  0  0  0  0
   46.9580   32.9150   44.9500 H   0  0  0  0  0  0  0  0  0  0  0  0
   47.6990   34.4770   44.5180 H   0  0  0  0  0  0  0  0  0  0  0  0
   44.7280   36.2100   43.4610 C   0  0  1  0  0  0  0  0  0  0  0  0
   45.9110   35.4200   42.8850 C   0  0  0  0  0  0  0  0  0  0  0  0
   45.7850   34.1530   43.6570 C   0  0  2  0  0  0  0  0  0  0  0  0
   44.9190   34.3340   44.6960 O   0  0  0  0  0  0  0  0  0  0  0  0
   44.6920   35.6840   44.8760 C   0  0  0  0  0  0  0  0  0  0  0  0
   43.8360   35.9350   42.8810 H   0  0  0  0  0  0  0  0  0  0  0  0
   46.8250   35.9640   43.1910 H   0  0  0  0  0  0  0  0  0  0  0  0
   45.8000   35.2950   41.7910 H   0  0  0  0  0  0  0  0  0  0  0  0
   45.3700   33.3720   42.9760 H   0  0  0  0  0  0  0  0  0  0  0  0
   43.6480   35.8200   45.2290 H   0  0  0  0  0  0  0  0  0  0  0  0
   45.4430   36.1890   45.4880 H   0  0  0  0  0  0  0  0  0  0  0  0
   45.0100   37.5850   43.4090 O   0  0  0  0  0  0  0  0  0  0  0  0
   45.7730   37.7160   42.7990 H   0  0  0  0  0  0  0  0  0  0  0  0
   49.0880   33.4250   42.6410 C   0  0  0  0  0  0  0  0  0  0  0  0
   47.8830   33.0120   42.9920 C   0  0  0  0  0  0  0  0  0  0  0  0
   49.7530   32.7780   41.5150 C   0  0  0  0  0  0  0  0  0  0  0  0
   51.0360   32.2460   41.7530 C   0  0  0  0  0  0  0  0  0  0  0  0
   51.7250   31.6130   40.7070 C   0  0  0  0  0  0  0  0  0  0  0  0
   51.0970   31.5490   39.4930 N   0  0  0  0  0  0  0  0  0  0  0  0
   49.8600   32.0760   39.3130 C   0  0  0  0  0  0  0  0  0  0  0  0
   49.2100   32.6730   40.2970 N   0  0  0  0  0  0  0  0  0  0  0  0
   51.5420   32.2860   42.6910 H   0  0  0  0  0  0  0  0  0  0  0  0
   52.7050   31.1940   40.8460 H   0  0  0  0  0  0  0  0  0  0  0  0
   49.3050   31.9310   37.9430 C   0  0  0  0  0  0  0  0  0  0  0  0
   50.2990   31.4150   36.9510 C   0  0  0  0  0  0  0  0  0  0  0  0
   49.5730   31.1550   35.6530 C   0  0  0  0  0  0  0  0  0  0  0  0
   48.7470   32.3240   35.1800 C   0  0  0  0  0  0  0  0  0  0  0  0
   47.8160   32.8350   36.2670 C   0  0  0  0  0  0  0  0  0  0  0  0
   48.7220   33.2460   37.4320 C   0  0  0  0  0  0  0  0  0  0  0  0
  1  3  1  0  0  0  0
  1  2  1  0  0  0  0
  4  9  1  6  0  0  0
  4  8  1  0  0  0  0
  5 10  1  0  0  0  0
  5  4  1  0  0  0  0
  5  6  1  0  0  0  0
  6 12  1  6  0  0  0
  6  1  1  0  0  0  0
  6  7  1  0  0  0  0
  7  8  1  0  0  0  0
  8 13  1  0  0  0  0
  8 14  1  0  0  0  0
 11  5  1  0  0  0  0
 15  4  1  0  0  0  0
 16 15  1  0  0  0  0
 17 18  2  0  0  0  0
 18  1  1  0  0  0  0
 19 20  1  0  0  0  0
 19 17  1  0  0  0  0
 20 25  1  0  0  0  0
 21 26  1  0  0  0  0
 21 20  2  0  0  0  0
 22 21  1  0  0  0  0
 23 22  2  0  0  0  0
 23 24  1  0  0  0  0
 24 19  2  0  0  0  0
 27 23  1  0  0  0  0
 28 27  1  0  0  0  0
 29 28  1  0  0  0  0
 30 29  1  0  0  0  0
 30 31  1  0  0  0  0
 31 32  1  0  0  0  0
 32 27  1  0  0  0  0
M  END
>  <minimizedAffinity>
-5.11048031

>  <minimizedRMSD>
0.744587421

$$$$
