
 OpenBabel03252508263D

 38 42  0  0  1  0  0  0  0  0999 V2000
   46.2900   32.3060   46.1810 C   0  0  1  0  0  0  0  0  0  0  0  0
   46.5680   32.3580   47.6220 C   0  0  0  0  0  0  0  0  0  0  0  0
   45.3170   31.6130   47.0020 C   0  0  2  0  0  0  0  0  0  0  0  0
   47.2270   31.8350   45.7120 H   0  0  0  0  0  0  0  0  0  0  0  0
   47.2230   31.6530   48.1610 H   0  0  0  0  0  0  0  0  0  0  0  0
   46.3690   33.2720   48.2040 H   0  0  0  0  0  0  0  0  0  0  0  0
   44.4710   32.1220   47.5460 H   0  0  0  0  0  0  0  0  0  0  0  0
   45.2010   30.1580   47.1320 C   0  0  0  0  0  0  0  0  0  0  0  0
   45.1410   29.4320   48.2820 C   0  0  0  0  0  0  0  0  0  0  0  0
   45.1580   28.0470   48.3710 C   0  0  0  0  0  0  0  0  0  0  0  0
   45.2440   27.3470   47.1570 C   0  0  0  0  0  0  0  0  0  0  0  0
   45.3030   28.0600   45.9640 C   0  0  0  0  0  0  0  0  0  0  0  0
   45.3300   27.3320   44.7880 C   0  0  0  0  0  0  0  0  0  0  0  0
   45.3230   28.0080   43.5780 C   0  0  0  0  0  0  0  0  0  0  0  0
   45.2880   29.3830   43.5340 C   0  0  0  0  0  0  0  0  0  0  0  0
   45.2640   30.0650   44.7300 C   0  0  0  0  0  0  0  0  0  0  0  0
   45.2790   29.4430   45.9620 C   0  0  0  0  0  0  0  0  0  0  0  0
   45.0770   30.0170   49.1950 H   0  0  0  0  0  0  0  0  0  0  0  0
   45.1070   27.5370   49.3240 H   0  0  0  0  0  0  0  0  0  0  0  0
   45.2640   26.2660   47.1690 H   0  0  0  0  0  0  0  0  0  0  0  0
   45.3550   26.2440   44.8520 H   0  0  0  0  0  0  0  0  0  0  0  0
   45.3490   27.3240   42.7130 H   0  0  0  0  0  0  0  0  0  0  0  0
   45.2840   29.7170   42.5100 H   0  0  0  0  0  0  0  0  0  0  0  0
   45.1540   31.0700   44.4420 H   0  0  0  0  0  0  0  0  0  0  0  0
   44.6070   35.4800   45.3250 C   0  0  0  0  0  0  0  0  0  0  0  0
   45.0580   35.7240   43.9810 C   0  0  0  0  0  0  0  0  0  0  0  0
   45.9630   34.7540   43.4170 C   0  0  0  0  0  0  0  0  0  0  0  0
   46.3280   33.7160   44.1450 N   0  0  0  0  0  0  0  0  0  0  0  0
   45.8670   33.5250   45.4330 C   0  0  0  0  0  0  0  0  0  0  0  0
   45.0320   34.3870   45.9970 N   0  0  0  0  0  0  0  0  0  0  0  0
   43.9240   36.2110   45.7470 H   0  0  0  0  0  0  0  0  0  0  0  0
   44.7280   36.5810   43.4470 H   0  0  0  0  0  0  0  0  0  0  0  0
   46.4430   34.9820   42.0250 C   0  0  0  0  0  3  0  0  0  0  0  0
   47.9090   35.3110   42.0540 C   0  0  0  0  0  2  0  0  0  0  0  0
   48.5930   35.2490   40.7390 C   0  0  0  0  0  2  0  0  0  0  0  0
   48.3050   33.9930   39.9830 C   0  0  0  0  0  2  0  0  0  0  0  0
   46.8100   33.8660   39.8360 C   0  0  0  0  0  2  0  0  0  0  0  0
   46.1300   33.7890   41.1570 C   0  0  0  0  0  2  0  0  0  0  0  0
  1  4  1  6  0  0  0
  1  3  1  0  0  0  0
  1  2  1  0  0  0  0
  2  5  1  0  0  0  0
  2  6  1  0  0  0  0
  3  8  1  0  0  0  0
  3  7  1  1  0  0  0
  3  2  1  0  0  0  0
  8  9  1  0  0  0  0
  9 10  2  0  0  0  0
  9 18  1  0  0  0  0
 10 19  1  0  0  0  0
 11 20  1  0  0  0  0
 11 10  1  0  0  0  0
 12 11  2  0  0  0  0
 13 21  1  0  0  0  0
 13 12  1  0  0  0  0
 14 13  2  0  0  0  0
 15 14  1  0  0  0  0
 15 16  2  0  0  0  0
 16 17  1  0  0  0  0
 17 12  1  0  0  0  0
 17  8  2  0  0  0  0
 22 14  1  0  0  0  0
 23 15  1  0  0  0  0
 24 16  1  0  0  0  0
 25 31  1  0  0  0  0
 25 30  1  0  0  0  0
 26 25  2  0  0  0  0
 27 26  1  0  0  0  0
 27 28  2  0  0  0  0
 28 29  1  0  0  0  0
 29 30  2  0  0  0  0
 29  1  1  0  0  0  0
 32 26  1  0  0  0  0
 33 34  1  0  0  0  0
 33 27  1  0  0  0  0
 35 34  1  0  0  0  0
 36 35  1  0  0  0  0
 37 36  1  0  0  0  0
 37 38  1  0  0  0  0
 38 33  1  0  0  0  0
M  END
>  <minimizedAffinity>
-6.02346992

>  <minimizedRMSD>
0.797632217

$$$$
