
 OpenBabel03252508323D

 29 31  0  0  1  0  0  0  0  0999 V2000
   44.5800   34.5390   42.1310 N   0  0  0  0  0  0  0  0  0  0  0  0
   45.0400   33.5880   41.2140 C   0  0  1  0  0  0  0  0  0  0  0  0
   44.3250   33.5340   39.8910 C   0  0  0  0  0  0  0  0  0  0  0  0
   43.1040   34.1790   39.7430 N   0  0  0  0  0  0  0  0  0  0  0  0
   42.8250   35.2630   40.5670 C   0  0  0  0  0  0  0  0  0  0  0  0
   43.9130   35.6440   41.4960 C   0  0  0  0  0  0  0  0  0  0  0  0
   44.9920   32.5710   41.6600 H   0  0  0  0  0  0  0  0  0  0  0  0
   44.1980   32.4290   39.6340 H   0  0  0  0  0  0  0  0  0  0  0  0
   45.0020   33.8820   39.0860 H   0  0  0  0  0  0  0  0  0  0  0  0
   42.8870   34.2850   38.7320 H   0  0  0  0  0  0  0  0  0  0  0  0
   41.8760   35.0820   41.1490 H   0  0  0  0  0  0  0  0  0  0  0  0
   42.5930   36.1740   39.9450 H   0  0  0  0  0  0  0  0  0  0  0  0
   44.6210   36.4030   41.0660 H   0  0  0  0  0  0  0  0  0  0  0  0
   43.4070   36.2360   42.3230 H   0  0  0  0  0  0  0  0  0  0  0  0
   44.3990   35.4620   44.3320 C   0  0  0  0  0  0  0  0  0  0  0  0
   44.7840   34.3930   43.5310 C   0  0  0  0  0  0  0  0  0  0  0  0
   45.3410   33.2800   44.1250 C   0  0  0  0  0  0  0  0  0  0  0  0
   45.5150   33.2240   45.4720 N   0  0  0  0  0  0  0  0  0  0  0  0
   45.1270   34.2920   46.2420 C   0  0  0  0  0  0  0  0  0  0  0  0
   44.5800   35.3860   45.6670 N   0  0  0  0  0  0  0  0  0  0  0  0
   43.9570   36.4100   44.0770 H   0  0  0  0  0  0  0  0  0  0  0  0
   45.6440   32.4320   43.5590 H   0  0  0  0  0  0  0  0  0  0  0  0
   45.2730   34.2320   47.3220 H   0  0  0  0  0  0  0  0  0  0  0  0
   46.5270   33.7570   40.8580 C   0  0  0  0  0  3  0  0  0  0  0  0
   46.8340   33.6210   39.4130 C   0  0  0  0  0  2  0  0  0  0  0  0
   48.3220   33.3190   39.2990 C   0  0  0  0  0  2  0  0  0  0  0  0
   49.0630   33.6300   40.5600 C   0  0  0  0  0  2  0  0  0  0  0  0
   48.6590   34.9270   41.1910 C   0  0  0  0  0  2  0  0  0  0  0  0
   47.1610   34.9810   41.4110 C   0  0  0  0  0  2  0  0  0  0  0  0
  1 16  1  0  0  0  0
  2  7  1  1  0  0  0
  2  1  1  0  0  0  0
  3  2  1  0  0  0  0
  4  3  1  0  0  0  0
  4  5  1  0  0  0  0
  5 11  1  0  0  0  0
  5  6  1  0  0  0  0
  6  1  1  0  0  0  0
  6 14  1  0  0  0  0
  8  3  1  0  0  0  0
  9  3  1  0  0  0  0
 10  4  1  0  0  0  0
 12  5  1  0  0  0  0
 13  6  1  0  0  0  0
 15 20  1  0  0  0  0
 16 17  1  0  0  0  0
 16 15  2  0  0  0  0
 17 18  2  0  0  0  0
 18 19  1  0  0  0  0
 19 23  1  0  0  0  0
 20 19  2  0  0  0  0
 21 15  1  0  0  0  0
 22 17  1  0  0  0  0
 24  2  1  0  0  0  0
 24 29  1  0  0  0  0
 25 24  1  0  0  0  0
 26 25  1  0  0  0  0
 26 27  1  0  0  0  0
 27 28  1  0  0  0  0
 28 29  1  0  0  0  0
M  END
>  <minimizedAffinity>
-4.57641602

>  <minimizedRMSD>
0.803947687

$$$$
