
 OpenBabel03242514073D

 40 43  0  0  1  0  0  0  0  0999 V2000
   38.2820   29.4210   41.3750 C   0  0  1  0  0  0  0  0  0  0  0  0
   38.7040   29.5670   42.8610 C   0  0  0  0  0  0  0  0  0  0  0  0
   38.9170   28.1230   43.3350 C   0  0  0  0  0  0  0  0  0  0  0  0
   37.5570   27.4980   43.4250 C   0  0  0  0  0  0  0  0  0  0  0  0
   36.5830   27.9300   42.4020 C   0  0  0  0  0  0  0  0  0  0  0  0
   37.2880   28.4690   41.1070 C   0  0  1  0  0  0  0  0  0  0  0  0
   39.3510   29.0590   41.0360 H   0  0  0  0  0  0  0  0  0  0  0  0
   37.8400   30.0310   43.3530 H   0  0  0  0  0  0  0  0  0  0  0  0
   39.5900   30.1720   42.9290 H   0  0  0  0  0  0  0  0  0  0  0  0
   39.4670   27.6160   42.5030 H   0  0  0  0  0  0  0  0  0  0  0  0
   39.4550   28.0740   44.2810 H   0  0  0  0  0  0  0  0  0  0  0  0
   37.1390   27.7830   44.4300 H   0  0  0  0  0  0  0  0  0  0  0  0
   37.5870   26.3790   43.4680 H   0  0  0  0  0  0  0  0  0  0  0  0
   35.9220   28.7610   42.7300 H   0  0  0  0  0  0  0  0  0  0  0  0
   35.9240   27.0900   42.1150 H   0  0  0  0  0  0  0  0  0  0  0  0
   37.9270   27.5300   41.0770 H   0  0  0  0  0  0  0  0  0  0  0  0
   39.4720   32.4130   39.6070 C   0  0  0  0  0  0  0  0  0  0  0  0
   38.2940   33.0890   39.4770 C   0  0  0  0  0  0  0  0  0  0  0  0
   37.0860   32.6460   39.9670 C   0  0  0  0  0  0  0  0  0  0  0  0
   37.1600   31.4210   40.6190 C   0  0  0  0  0  0  0  0  0  0  0  0
   38.3290   30.7230   40.7520 C   0  0  0  0  0  0  0  0  0  0  0  0
   39.4860   31.2140   40.2520 N   0  0  0  0  0  0  0  0  0  0  0  0
   38.3840   34.0280   38.9440 H   0  0  0  0  0  0  0  0  0  0  0  0
   36.2320   33.2780   39.7990 H   0  0  0  0  0  0  0  0  0  0  0  0
   36.1660   31.1960   40.9580 H   0  0  0  0  0  0  0  0  0  0  0  0
   42.7330   34.0470   39.4530 C   0  0  0  0  0  0  0  0  0  0  0  0
   43.0930   33.9660   38.1170 C   0  0  0  0  0  0  0  0  0  0  0  0
   42.1840   33.3320   37.2750 C   0  0  0  0  0  0  0  0  0  0  0  0
   41.0190   32.8420   37.8030 N   0  0  0  0  0  0  0  0  0  0  0  0
   40.7320   32.9580   39.1280 C   0  0  0  0  0  0  0  0  0  0  0  0
   41.5680   33.5470   39.9370 N   0  0  0  0  0  0  0  0  0  0  0  0
   43.3870   34.5260   40.1750 H   0  0  0  0  0  0  0  0  0  0  0  0
   44.0250   34.3720   37.7600 H   0  0  0  0  0  0  0  0  0  0  0  0
   42.3930   33.2310   36.2310 H   0  0  0  0  0  0  0  0  0  0  0  0
   36.3130   28.1880   40.0890 C   0  0  0  0  0  3  0  0  0  0  0  0
   34.9680   28.8280   40.0810 C   0  0  0  0  0  2  0  0  0  0  0  0
   34.4920   29.1060   38.6700 C   0  0  0  0  0  2  0  0  0  0  0  0
   34.5960   27.9600   37.7320 C   0  0  0  0  0  2  0  0  0  0  0  0
   35.9160   27.2300   37.7870 C   0  0  0  0  0  2  0  0  0  0  0  0
   36.3080   26.9380   39.2460 C   0  0  0  0  0  2  0  0  0  0  0  0
  1  7  1  6  0  0  0
  1  2  1  0  0  0  0
  2  9  1  0  0  0  0
  2  3  1  0  0  0  0
  2  8  1  0  0  0  0
  3  4  1  0  0  0  0
  3 11  1  0  0  0  0
  4 13  1  0  0  0  0
  4 12  1  0  0  0  0
  5 14  1  0  0  0  0
  5  4  1  0  0  0  0
  6 16  1  6  0  0  0
  6  1  1  0  0  0  0
  6  5  1  0  0  0  0
 10  3  1  0  0  0  0
 15  5  1  0  0  0  0
 17 22  1  0  0  0  0
 18 17  2  0  0  0  0
 18 19  1  0  0  0  0
 19 20  2  0  0  0  0
 20 21  1  0  0  0  0
 20 25  1  0  0  0  0
 21  1  1  0  0  0  0
 22 21  2  0  0  0  0
 23 18  1  0  0  0  0
 24 19  1  0  0  0  0
 26 31  1  0  0  0  0
 26 32  1  0  0  0  0
 27 26  2  0  0  0  0
 28 29  2  0  0  0  0
 28 27  1  0  0  0  0
 29 30  1  0  0  0  0
 30 17  1  0  0  0  0
 30 31  2  0  0  0  0
 33 27  1  0  0  0  0
 34 28  1  0  0  0  0
 35  6  1  0  0  0  0
 36 35  1  0  0  0  0
 37 36  1  0  0  0  0
 38 39  1  0  0  0  0
 38 37  1  0  0  0  0
 39 40  1  0  0  0  0
 40 35  1  0  0  0  0
M  END
>  <minimizedAffinity>
-6.35756636

$$$$

 OpenBabel03242514073D

 40 43  0  0  1  0  0  0  0  0999 V2000
   36.3380   29.8350   39.2150 C   0  0  1  0  0  0  0  0  0  0  0  0
   35.9730   29.6240   37.7220 C   0  0  0  0  0  0  0  0  0  0  0  0
   34.7370   28.7150   37.7610 C   0  0  0  0  0  0  0  0  0  0  0  0
   35.2160   27.3610   38.1920 C   0  0  0  0  0  0  0  0  0  0  0  0
   36.3190   27.3530   39.1750 C   0  0  0  0  0  0  0  0  0  0  0  0
   36.3740   28.6810   40.0110 C   0  0  1  0  0  0  0  0  0  0  0  0
   35.3840   30.4930   39.4250 H   0  0  0  0  0  0  0  0  0  0  0  0
   36.8410   29.1080   37.2920 H   0  0  0  0  0  0  0  0  0  0  0  0
   35.7870   30.5740   37.2550 H   0  0  0  0  0  0  0  0  0  0  0  0
   34.0960   29.1240   38.5830 H   0  0  0  0  0  0  0  0  0  0  0  0
   34.2190   28.6820   36.8050 H   0  0  0  0  0  0  0  0  0  0  0  0
   35.5870   26.8420   37.2650 H   0  0  0  0  0  0  0  0  0  0  0  0
   34.3910   26.6920   38.5470 H   0  0  0  0  0  0  0  0  0  0  0  0
   37.3290   27.2640   38.7210 H   0  0  0  0  0  0  0  0  0  0  0  0
   36.2070   26.5060   39.8770 H   0  0  0  0  0  0  0  0  0  0  0  0
   35.2660   28.5710   40.2380 H   0  0  0  0  0  0  0  0  0  0  0  0
   39.3460   31.8800   38.6970 C   0  0  0  0  0  0  0  0  0  0  0  0
   38.9980   32.9890   39.4110 C   0  0  0  0  0  0  0  0  0  0  0  0
   37.8180   33.1250   40.1090 C   0  0  0  0  0  0  0  0  0  0  0  0
   36.9850   32.0160   40.0240 C   0  0  0  0  0  0  0  0  0  0  0  0
   37.3110   30.8980   39.3060 C   0  0  0  0  0  0  0  0  0  0  0  0
   38.4880   30.8230   38.6440 N   0  0  0  0  0  0  0  0  0  0  0  0
   39.7410   33.7770   39.3880 H   0  0  0  0  0  0  0  0  0  0  0  0
   37.6690   34.0510   40.6340 H   0  0  0  0  0  0  0  0  0  0  0  0
   36.1160   32.2440   40.6120 H   0  0  0  0  0  0  0  0  0  0  0  0
   42.2960   30.5360   37.0170 C   0  0  0  0  0  0  0  0  0  0  0  0
   43.0930   31.6460   36.7880 C   0  0  0  0  0  0  0  0  0  0  0  0
   42.5860   32.8660   37.2250 C   0  0  0  0  0  0  0  0  0  0  0  0
   41.3620   32.8950   37.8400 N   0  0  0  0  0  0  0  0  0  0  0  0
   40.6340   31.7620   38.0320 C   0  0  0  0  0  0  0  0  0  0  0  0
   41.0880   30.6080   37.6310 N   0  0  0  0  0  0  0  0  0  0  0  0
   42.6190   29.5470   36.7070 H   0  0  0  0  0  0  0  0  0  0  0  0
   44.0500   31.5600   36.2980 H   0  0  0  0  0  0  0  0  0  0  0  0
   43.1450   33.7670   37.0820 H   0  0  0  0  0  0  0  0  0  0  0  0
   36.9660   28.2420   41.2440 C   0  0  0  0  0  3  0  0  0  0  0  0
   37.0130   26.8040   41.6320 C   0  0  0  0  0  2  0  0  0  0  0  0
   38.2890   26.4700   42.3780 C   0  0  0  0  0  2  0  0  0  0  0  0
   38.6230   27.3850   43.4980 C   0  0  0  0  0  2  0  0  0  0  0  0
   38.4900   28.8510   43.1630 C   0  0  0  0  0  2  0  0  0  0  0  0
   37.1510   29.1210   42.4540 C   0  0  0  0  0  2  0  0  0  0  0  0
  1 21  1  0  0  0  0
  1  7  1  1  0  0  0
  1  6  1  0  0  0  0
  2  3  1  0  0  0  0
  2  1  1  0  0  0  0
  3  4  1  0  0  0  0
  3 10  1  0  0  0  0
  4 13  1  0  0  0  0
  4  5  1  0  0  0  0
  5 15  1  0  0  0  0
  5  6  1  0  0  0  0
  6 16  1  1  0  0  0
  6 35  1  0  0  0  0
  8  2  1  0  0  0  0
  9  2  1  0  0  0  0
 11  3  1  0  0  0  0
 12  4  1  0  0  0  0
 14  5  1  0  0  0  0
 17 18  1  0  0  0  0
 18 19  2  0  0  0  0
 19 24  1  0  0  0  0
 20 19  1  0  0  0  0
 20 25  1  0  0  0  0
 21 20  2  0  0  0  0
 22 17  2  0  0  0  0
 22 21  1  0  0  0  0
 23 18  1  0  0  0  0
 26 31  1  0  0  0  0
 27 26  2  0  0  0  0
 27 28  1  0  0  0  0
 28 29  2  0  0  0  0
 29 30  1  0  0  0  0
 30 17  1  0  0  0  0
 31 30  2  0  0  0  0
 32 26  1  0  0  0  0
 33 27  1  0  0  0  0
 34 28  1  0  0  0  0
 35 36  1  0  0  0  0
 35 40  1  0  0  0  0
 36 37  1  0  0  0  0
 37 38  1  0  0  0  0
 39 38  1  0  0  0  0
 40 39  1  0  0  0  0
M  END
>  <minimizedAffinity>
-6.19618464

$$$$

 OpenBabel03242514073D

 40 43  0  0  1  0  0  0  0  0999 V2000
   38.4530   26.9280   41.6020 C   0  0  1  0  0  0  0  0  0  0  0  0
   38.9740   27.0400   43.0600 C   0  0  0  0  0  0  0  0  0  0  0  0
   40.0460   25.9470   43.1610 C   0  0  0  0  0  0  0  0  0  0  0  0
   39.3200   24.6350   43.1560 C   0  0  0  0  0  0  0  0  0  0  0  0
   38.1100   24.5740   42.3110 C   0  0  0  0  0  0  0  0  0  0  0  0
   38.1430   25.6370   41.1550 C   0  0  1  0  0  0  0  0  0  0  0  0
   39.4590   27.3330   41.1400 H   0  0  0  0  0  0  0  0  0  0  0  0
   38.1020   26.8120   43.6870 H   0  0  0  0  0  0  0  0  0  0  0  0
   39.3570   28.0300   43.2340 H   0  0  0  0  0  0  0  0  0  0  0  0
   40.6280   26.0150   42.2080 H   0  0  0  0  0  0  0  0  0  0  0  0
   40.6740   26.0650   44.0430 H   0  0  0  0  0  0  0  0  0  0  0  0
   39.0000   24.4420   44.2170 H   0  0  0  0  0  0  0  0  0  0  0  0
   39.9840   23.7630   42.9260 H   0  0  0  0  0  0  0  0  0  0  0  0
   37.1650   24.7830   42.8580 H   0  0  0  0  0  0  0  0  0  0  0  0
   38.0030   23.5710   41.8580 H   0  0  0  0  0  0  0  0  0  0  0  0
   39.1840   25.2790   40.8710 H   0  0  0  0  0  0  0  0  0  0  0  0
   37.4200   30.3440   40.7250 C   0  0  0  0  0  0  0  0  0  0  0  0
   36.0720   30.1610   40.6310 C   0  0  0  0  0  0  0  0  0  0  0  0
   35.4320   28.9650   40.8690 C   0  0  0  0  0  0  0  0  0  0  0  0
   36.2890   27.9290   41.2200 C   0  0  0  0  0  0  0  0  0  0  0  0
   37.6450   28.0900   41.3110 C   0  0  0  0  0  0  0  0  0  0  0  0
   38.2150   29.2920   41.0680 N   0  0  0  0  0  0  0  0  0  0  0  0
   35.5270   31.0530   40.3460 H   0  0  0  0  0  0  0  0  0  0  0  0
   34.3620   28.9570   40.7630 H   0  0  0  0  0  0  0  0  0  0  0  0
   35.6720   27.0670   41.3870 H   0  0  0  0  0  0  0  0  0  0  0  0
   39.8420   33.0730   40.5990 C   0  0  0  0  0  0  0  0  0  0  0  0
   39.1140   34.1530   40.1230 C   0  0  0  0  0  0  0  0  0  0  0  0
   37.7720   33.9140   39.8460 C   0  0  0  0  0  0  0  0  0  0  0  0
   37.2640   32.6580   40.0560 N   0  0  0  0  0  0  0  0  0  0  0  0
   38.0390   31.6450   40.5260 C   0  0  0  0  0  0  0  0  0  0  0  0
   39.3000   31.8450   40.7930 N   0  0  0  0  0  0  0  0  0  0  0  0
   40.8950   33.1770   40.8390 H   0  0  0  0  0  0  0  0  0  0  0  0
   39.5700   35.1190   39.9790 H   0  0  0  0  0  0  0  0  0  0  0  0
   37.1470   34.6980   39.4750 H   0  0  0  0  0  0  0  0  0  0  0  0
   37.3380   25.0120   40.1420 C   0  0  0  0  0  3  0  0  0  0  0  0
   36.8720   23.6010   40.2590 C   0  0  0  0  0  2  0  0  0  0  0  0
   35.4870   23.4230   39.6730 C   0  0  0  0  0  2  0  0  0  0  0  0
   35.3000   23.9850   38.3120 C   0  0  0  0  0  2  0  0  0  0  0  0
   35.8510   25.3800   38.1350 C   0  0  0  0  0  2  0  0  0  0  0  0
   37.2760   25.4710   38.7080 C   0  0  0  0  0  2  0  0  0  0  0  0
  1  7  1  6  0  0  0
  1  2  1  0  0  0  0
  2  3  1  0  0  0  0
  2  9  1  0  0  0  0
  2  8  1  0  0  0  0
  3 11  1  0  0  0  0
  4  3  1  0  0  0  0
  4 12  1  0  0  0  0
  5 14  1  0  0  0  0
  5  4  1  0  0  0  0
  6 16  1  6  0  0  0
  6  1  1  0  0  0  0
  6  5  1  0  0  0  0
 10  3  1  0  0  0  0
 13  4  1  0  0  0  0
 15  5  1  0  0  0  0
 17 22  1  0  0  0  0
 18 17  2  0  0  0  0
 18 19  1  0  0  0  0
 19 20  2  0  0  0  0
 20 21  1  0  0  0  0
 20 25  1  0  0  0  0
 21  1  1  0  0  0  0
 22 21  2  0  0  0  0
 23 18  1  0  0  0  0
 24 19  1  0  0  0  0
 26 31  1  0  0  0  0
 26 32  1  0  0  0  0
 27 26  2  0  0  0  0
 28 29  2  0  0  0  0
 28 27  1  0  0  0  0
 29 30  1  0  0  0  0
 30 17  1  0  0  0  0
 30 31  2  0  0  0  0
 33 27  1  0  0  0  0
 34 28  1  0  0  0  0
 35 36  1  0  0  0  0
 35  6  1  0  0  0  0
 37 36  1  0  0  0  0
 38 37  1  0  0  0  0
 39 38  1  0  0  0  0
 39 40  1  0  0  0  0
 40 35  1  0  0  0  0
M  END
>  <minimizedAffinity>
-6.18279171

$$$$

 OpenBabel03242514073D

 40 43  0  0  1  0  0  0  0  0999 V2000
   37.1710   27.1610   39.7440 C   0  0  1  0  0  0  0  0  0  0  0  0
   36.4260   25.8150   39.5480 C   0  0  0  0  0  0  0  0  0  0  0  0
   36.2740   25.6880   38.0260 C   0  0  0  0  0  0  0  0  0  0  0  0
   35.2550   26.7070   37.6130 C   0  0  0  0  0  0  0  0  0  0  0  0
   35.2700   27.9750   38.3710 C   0  0  0  0  0  0  0  0  0  0  0  0
   36.6710   28.2550   39.0240 C   0  0  1  0  0  0  0  0  0  0  0  0
   38.1770   26.7490   39.2910 H   0  0  0  0  0  0  0  0  0  0  0  0
   35.4560   25.9560   40.0410 H   0  0  0  0  0  0  0  0  0  0  0  0
   36.9970   25.0160   39.9860 H   0  0  0  0  0  0  0  0  0  0  0  0
   37.2600   26.0050   37.6020 H   0  0  0  0  0  0  0  0  0  0  0  0
   35.9940   24.6810   37.7220 H   0  0  0  0  0  0  0  0  0  0  0  0
   34.2460   26.2330   37.7690 H   0  0  0  0  0  0  0  0  0  0  0  0
   35.2680   26.9250   36.5140 H   0  0  0  0  0  0  0  0  0  0  0  0
   34.5530   28.0030   39.2200 H   0  0  0  0  0  0  0  0  0  0  0  0
   35.0190   28.8250   37.7100 H   0  0  0  0  0  0  0  0  0  0  0  0
   37.1650   28.0620   38.0180 H   0  0  0  0  0  0  0  0  0  0  0  0
   39.3130   27.3200   42.7250 C   0  0  0  0  0  0  0  0  0  0  0  0
   38.3670   27.5640   43.6780 C   0  0  0  0  0  0  0  0  0  0  0  0
   37.0170   27.6570   43.4250 C   0  0  0  0  0  0  0  0  0  0  0  0
   36.6820   27.4820   42.0870 C   0  0  0  0  0  0  0  0  0  0  0  0
   37.6160   27.2460   41.1160 C   0  0  0  0  0  0  0  0  0  0  0  0
   38.9300   27.1610   41.4280 N   0  0  0  0  0  0  0  0  0  0  0  0
   38.7700   27.6820   44.6760 H   0  0  0  0  0  0  0  0  0  0  0  0
   36.3770   27.8490   44.2670 H   0  0  0  0  0  0  0  0  0  0  0  0
   35.6140   27.5670   42.0270 H   0  0  0  0  0  0  0  0  0  0  0  0
   42.5440   25.8930   43.6500 C   0  0  0  0  0  0  0  0  0  0  0  0
   43.4020   26.9820   43.6790 C   0  0  0  0  0  0  0  0  0  0  0  0
   42.8380   28.2160   43.3700 C   0  0  0  0  0  0  0  0  0  0  0  0
   41.5030   28.2780   43.0650 N   0  0  0  0  0  0  0  0  0  0  0  0
   40.7210   27.1660   43.0570 C   0  0  0  0  0  0  0  0  0  0  0  0
   41.2270   25.9990   43.3420 N   0  0  0  0  0  0  0  0  0  0  0  0
   42.9060   24.8960   43.8800 H   0  0  0  0  0  0  0  0  0  0  0  0
   44.4450   26.8700   43.9280 H   0  0  0  0  0  0  0  0  0  0  0  0
   43.4380   29.1010   43.3720 H   0  0  0  0  0  0  0  0  0  0  0  0
   36.6960   29.6900   39.0880 C   0  0  0  0  0  3  0  0  0  0  0  0
   36.0680   30.4440   40.2090 C   0  0  0  0  0  2  0  0  0  0  0  0
   36.8660   31.6830   40.5620 C   0  0  0  0  0  2  0  0  0  0  0  0
   37.2290   32.5480   39.4110 C   0  0  0  0  0  2  0  0  0  0  0  0
   37.7790   31.8000   38.2210 C   0  0  0  0  0  2  0  0  0  0  0  0
   36.8910   30.5870   37.8920 C   0  0  0  0  0  2  0  0  0  0  0  0
  1  7  1  6  0  0  0
  1 21  1  0  0  0  0
  2  1  1  0  0  0  0
  2  9  1  0  0  0  0
  2  8  1  0  0  0  0
  3  2  1  0  0  0  0
  4 12  1  0  0  0  0
  4  3  1  0  0  0  0
  4  5  1  0  0  0  0
  5  6  1  0  0  0  0
  5 14  1  0  0  0  0
  6 16  1  6  0  0  0
  6 35  1  0  0  0  0
  6  1  1  0  0  0  0
 10  3  1  0  0  0  0
 11  3  1  0  0  0  0
 13  4  1  0  0  0  0
 15  5  1  0  0  0  0
 17 30  1  0  0  0  0
 17 18  1  0  0  0  0
 18 23  1  0  0  0  0
 19 18  2  0  0  0  0
 19 24  1  0  0  0  0
 20 19  1  0  0  0  0
 21 22  1  0  0  0  0
 21 20  2  0  0  0  0
 22 17  2  0  0  0  0
 25 20  1  0  0  0  0
 26 27  1  0  0  0  0
 26 32  1  0  0  0  0
 27 33  1  0  0  0  0
 28 34  1  0  0  0  0
 28 27  2  0  0  0  0
 29 28  1  0  0  0  0
 30 29  2  0  0  0  0
 30 31  1  0  0  0  0
 31 26  2  0  0  0  0
 35 36  1  0  0  0  0
 36 37  1  0  0  0  0
 38 37  1  0  0  0  0
 39 38  1  0  0  0  0
 40 39  1  0  0  0  0
 40 35  1  0  0  0  0
M  END
>  <minimizedAffinity>
-6.08144522

$$$$

 OpenBabel03242514073D

 40 43  0  0  1  0  0  0  0  0999 V2000
   37.4500   25.7260   40.5380 C   0  0  1  0  0  0  0  0  0  0  0  0
   37.2990   24.4240   41.3690 C   0  0  0  0  0  0  0  0  0  0  0  0
   37.5920   23.3010   40.3640 C   0  0  0  0  0  0  0  0  0  0  0  0
   36.4210   23.2490   39.4290 C   0  0  0  0  0  0  0  0  0  0  0  0
   35.7990   24.5500   39.1060 C   0  0  0  0  0  0  0  0  0  0  0  0
   36.7990   25.7460   39.2970 C   0  0  1  0  0  0  0  0  0  0  0  0
   38.6170   25.6020   40.4300 H   0  0  0  0  0  0  0  0  0  0  0  0
   36.2500   24.4170   41.6900 H   0  0  0  0  0  0  0  0  0  0  0  0
   37.9830   24.4410   42.1990 H   0  0  0  0  0  0  0  0  0  0  0  0
   38.4780   23.6530   39.7770 H   0  0  0  0  0  0  0  0  0  0  0  0
   37.7690   22.3450   40.8540 H   0  0  0  0  0  0  0  0  0  0  0  0
   35.6370   22.6170   39.9310 H   0  0  0  0  0  0  0  0  0  0  0  0
   36.6350   22.6890   38.4840 H   0  0  0  0  0  0  0  0  0  0  0  0
   34.9280   24.8060   39.7460 H   0  0  0  0  0  0  0  0  0  0  0  0
   35.4430   24.5600   38.0590 H   0  0  0  0  0  0  0  0  0  0  0  0
   37.5670   25.1890   38.6710 H   0  0  0  0  0  0  0  0  0  0  0  0
   37.7170   29.1380   41.8770 C   0  0  0  0  0  0  0  0  0  0  0  0
   37.3490   28.9080   43.1700 C   0  0  0  0  0  0  0  0  0  0  0  0
   37.0320   27.6680   43.6800 C   0  0  0  0  0  0  0  0  0  0  0  0
   37.1150   26.6400   42.7480 C   0  0  0  0  0  0  0  0  0  0  0  0
   37.4750   26.8510   41.4450 C   0  0  0  0  0  0  0  0  0  0  0  0
   37.7780   28.0930   41.0040 N   0  0  0  0  0  0  0  0  0  0  0  0
   37.3230   29.8010   43.7840 H   0  0  0  0  0  0  0  0  0  0  0  0
   36.7610   27.6250   44.7190 H   0  0  0  0  0  0  0  0  0  0  0  0
   36.8580   25.7380   43.2680 H   0  0  0  0  0  0  0  0  0  0  0  0
   39.6250   32.1700   41.1760 C   0  0  0  0  0  0  0  0  0  0  0  0
   38.7390   32.9770   40.4790 C   0  0  0  0  0  0  0  0  0  0  0  0
   37.4710   32.4470   40.2570 C   0  0  0  0  0  0  0  0  0  0  0  0
   37.1830   31.1940   40.7290 N   0  0  0  0  0  0  0  0  0  0  0  0
   38.1050   30.4580   41.4070 C   0  0  0  0  0  0  0  0  0  0  0  0
   39.2990   30.9330   41.6270 N   0  0  0  0  0  0  0  0  0  0  0  0
   40.6330   32.5110   41.3910 H   0  0  0  0  0  0  0  0  0  0  0  0
   39.0240   33.9580   40.1330 H   0  0  0  0  0  0  0  0  0  0  0  0
   36.7340   33.0120   39.7260 H   0  0  0  0  0  0  0  0  0  0  0  0
   36.3040   26.7120   38.3560 C   0  0  0  0  0  3  0  0  0  0  0  0
   34.9870   26.5530   37.6760 C   0  0  0  0  0  2  0  0  0  0  0  0
   34.3020   27.8890   37.4730 C   0  0  0  0  0  2  0  0  0  0  0  0
   35.1480   28.9440   36.8610 C   0  0  0  0  0  2  0  0  0  0  0  0
   36.5260   29.0640   37.4650 C   0  0  0  0  0  2  0  0  0  0  0  0
   37.1780   27.6750   37.5940 C   0  0  0  0  0  2  0  0  0  0  0  0
  1  7  1  6  0  0  0
  1  2  1  0  0  0  0
  1 21  1  0  0  0  0
  2  8  1  0  0  0  0
  2  9  1  0  0  0  0
  3 11  1  0  0  0  0
  3  2  1  0  0  0  0
  4 12  1  0  0  0  0
  4  3  1  0  0  0  0
  5  6  1  0  0  0  0
  5  4  1  0  0  0  0
  5 14  1  0  0  0  0
  6 16  1  6  0  0  0
  6  1  1  0  0  0  0
 10  3  1  0  0  0  0
 13  4  1  0  0  0  0
 15  5  1  0  0  0  0
 17 18  1  0  0  0  0
 18 19  2  0  0  0  0
 18 23  1  0  0  0  0
 19 24  1  0  0  0  0
 20 25  1  0  0  0  0
 20 19  1  0  0  0  0
 21 20  2  0  0  0  0
 22 21  1  0  0  0  0
 22 17  2  0  0  0  0
 26 32  1  0  0  0  0
 26 31  1  0  0  0  0
 27 26  2  0  0  0  0
 28 27  1  0  0  0  0
 28 29  2  0  0  0  0
 29 30  1  0  0  0  0
 30 31  2  0  0  0  0
 30 17  1  0  0  0  0
 33 27  1  0  0  0  0
 34 28  1  0  0  0  0
 35  6  1  0  0  0  0
 36 35  1  0  0  0  0
 37 36  1  0  0  0  0
 38 39  1  0  0  0  0
 38 37  1  0  0  0  0
 39 40  1  0  0  0  0
 40 35  1  0  0  0  0
M  END
>  <minimizedAffinity>
-6.07707882

$$$$

 OpenBabel03242514073D

 40 43  0  0  1  0  0  0  0  0999 V2000
   36.9230   30.1430   40.7110 C   0  0  1  0  0  0  0  0  0  0  0  0
   38.0060   31.2540   40.7220 C   0  0  0  0  0  0  0  0  0  0  0  0
   37.3500   32.4260   39.9780 C   0  0  0  0  0  0  0  0  0  0  0  0
   37.2800   32.0290   38.5340 C   0  0  0  0  0  0  0  0  0  0  0  0
   37.0260   30.5970   38.2730 C   0  0  0  0  0  0  0  0  0  0  0  0
   36.3030   29.8970   39.4780 C   0  0  1  0  0  0  0  0  0  0  0  0
   36.2210   30.7260   41.4560 H   0  0  0  0  0  0  0  0  0  0  0  0
   38.8450   30.8330   40.1540 H   0  0  0  0  0  0  0  0  0  0  0  0
   38.2740   31.4910   41.7360 H   0  0  0  0  0  0  0  0  0  0  0  0
   36.3010   32.4730   40.3670 H   0  0  0  0  0  0  0  0  0  0  0  0
   37.8910   33.3600   40.1220 H   0  0  0  0  0  0  0  0  0  0  0  0
   38.2790   32.2820   38.0830 H   0  0  0  0  0  0  0  0  0  0  0  0
   36.5650   32.6530   37.9390 H   0  0  0  0  0  0  0  0  0  0  0  0
   37.9480   29.9970   38.1100 H   0  0  0  0  0  0  0  0  0  0  0  0
   36.3980   30.4730   37.3710 H   0  0  0  0  0  0  0  0  0  0  0  0
   35.5300   30.7300   39.4840 H   0  0  0  0  0  0  0  0  0  0  0  0
   38.9610   27.9420   42.8320 C   0  0  0  0  0  0  0  0  0  0  0  0
   37.9720   27.2360   43.4510 C   0  0  0  0  0  0  0  0  0  0  0  0
   36.6270   27.4020   43.2040 C   0  0  0  0  0  0  0  0  0  0  0  0
   36.3470   28.3740   42.2510 C   0  0  0  0  0  0  0  0  0  0  0  0
   37.3250   29.0990   41.6250 C   0  0  0  0  0  0  0  0  0  0  0  0
   38.6300   28.8870   41.9090 N   0  0  0  0  0  0  0  0  0  0  0  0
   38.3340   26.5130   44.1730 H   0  0  0  0  0  0  0  0  0  0  0  0
   35.9500   26.7780   43.7590 H   0  0  0  0  0  0  0  0  0  0  0  0
   35.2800   28.3980   42.1450 H   0  0  0  0  0  0  0  0  0  0  0  0
   42.1080   26.2950   43.6780 C   0  0  0  0  0  0  0  0  0  0  0  0
   43.0620   27.2910   43.5400 C   0  0  0  0  0  0  0  0  0  0  0  0
   42.5920   28.5400   43.1460 C   0  0  0  0  0  0  0  0  0  0  0  0
   41.2500   28.7060   42.9260 N   0  0  0  0  0  0  0  0  0  0  0  0
   40.3700   27.6800   43.0830 C   0  0  0  0  0  0  0  0  0  0  0  0
   40.7860   26.5010   43.4500 N   0  0  0  0  0  0  0  0  0  0  0  0
   42.3930   25.2930   43.9820 H   0  0  0  0  0  0  0  0  0  0  0  0
   44.1060   27.1000   43.7280 H   0  0  0  0  0  0  0  0  0  0  0  0
   43.2700   29.3580   43.0180 H   0  0  0  0  0  0  0  0  0  0  0  0
   35.5820   28.8380   38.8280 C   0  0  0  0  0  3  0  0  0  0  0  0
   34.1020   28.8790   38.6520 C   0  0  0  0  0  2  0  0  0  0  0  0
   33.6810   28.2530   37.3390 C   0  0  0  0  0  2  0  0  0  0  0  0
   34.2610   26.9160   37.0620 C   0  0  0  0  0  2  0  0  0  0  0  0
   35.7450   26.8160   37.3250 C   0  0  0  0  0  2  0  0  0  0  0  0
   36.0900   27.4250   38.6950 C   0  0  0  0  0  2  0  0  0  0  0  0
  1  2  1  0  0  0  0
  1  7  1  1  0  0  0
  1 21  1  0  0  0  0
  2  9  1  0  0  0  0
  3 11  1  0  0  0  0
  3 10  1  0  0  0  0
  3  2  1  0  0  0  0
  4  3  1  0  0  0  0
  5  4  1  0  0  0  0
  5  6  1  0  0  0  0
  6 16  1  1  0  0  0
  6  1  1  0  0  0  0
  8  2  1  0  0  0  0
 12  4  1  0  0  0  0
 13  4  1  0  0  0  0
 14  5  1  0  0  0  0
 15  5  1  0  0  0  0
 17 30  1  0  0  0  0
 17 18  1  0  0  0  0
 18 23  1  0  0  0  0
 19 18  2  0  0  0  0
 19 24  1  0  0  0  0
 20 19  1  0  0  0  0
 21 22  1  0  0  0  0
 21 20  2  0  0  0  0
 22 17  2  0  0  0  0
 25 20  1  0  0  0  0
 26 32  1  0  0  0  0
 27 26  1  0  0  0  0
 27 33  1  0  0  0  0
 28 27  2  0  0  0  0
 29 30  2  0  0  0  0
 29 28  1  0  0  0  0
 30 31  1  0  0  0  0
 31 26  2  0  0  0  0
 34 28  1  0  0  0  0
 35  6  1  0  0  0  0
 36 35  1  0  0  0  0
 37 36  1  0  0  0  0
 38 39  1  0  0  0  0
 38 37  1  0  0  0  0
 39 40  1  0  0  0  0
 40 35  1  0  0  0  0
M  END
>  <minimizedAffinity>
-6.06243086

$$$$

 OpenBabel03242514073D

 40 43  0  0  1  0  0  0  0  0999 V2000
   37.1230   30.4030   40.7220 C   0  0  1  0  0  0  0  0  0  0  0  0
   38.3520   31.3260   40.9320 C   0  0  0  0  0  0  0  0  0  0  0  0
   37.9140   32.6750   40.3440 C   0  0  0  0  0  0  0  0  0  0  0  0
   37.8690   32.4970   38.8560 C   0  0  0  0  0  0  0  0  0  0  0  0
   37.4270   31.1690   38.3810 C   0  0  0  0  0  0  0  0  0  0  0  0
   36.5440   30.4250   39.4460 C   0  0  1  0  0  0  0  0  0  0  0  0
   36.4710   30.9760   41.5190 H   0  0  0  0  0  0  0  0  0  0  0  0
   39.1530   30.8660   40.3380 H   0  0  0  0  0  0  0  0  0  0  0  0
   38.5940   31.3770   41.9780 H   0  0  0  0  0  0  0  0  0  0  0  0
   36.8630   32.8240   40.6990 H   0  0  0  0  0  0  0  0  0  0  0  0
   38.5740   33.4880   40.6400 H   0  0  0  0  0  0  0  0  0  0  0  0
   38.9170   32.6560   38.4810 H   0  0  0  0  0  0  0  0  0  0  0  0
   37.2850   33.2970   38.3330 H   0  0  0  0  0  0  0  0  0  0  0  0
   38.2600   30.4660   38.1650 H   0  0  0  0  0  0  0  0  0  0  0  0
   36.8390   31.2670   37.4490 H   0  0  0  0  0  0  0  0  0  0  0  0
   35.9000   31.3570   39.5460 H   0  0  0  0  0  0  0  0  0  0  0  0
   37.8110   26.9110   41.6370 C   0  0  0  0  0  0  0  0  0  0  0  0
   37.8200   27.0260   42.9970 C   0  0  0  0  0  0  0  0  0  0  0  0
   37.5800   28.1980   43.6790 C   0  0  0  0  0  0  0  0  0  0  0  0
   37.3240   29.2860   42.8540 C   0  0  0  0  0  0  0  0  0  0  0  0
   37.3180   29.1940   41.4890 C   0  0  0  0  0  0  0  0  0  0  0  0
   37.5580   28.0120   40.8760 N   0  0  0  0  0  0  0  0  0  0  0  0
   38.0360   26.0980   43.5130 H   0  0  0  0  0  0  0  0  0  0  0  0
   37.6140   28.1500   44.7530 H   0  0  0  0  0  0  0  0  0  0  0  0
   37.1460   30.1230   43.5010 H   0  0  0  0  0  0  0  0  0  0  0  0
   38.7480   24.3520   39.2080 C   0  0  0  0  0  0  0  0  0  0  0  0
   38.3180   23.1650   39.7800 C   0  0  0  0  0  0  0  0  0  0  0  0
   37.7000   23.2710   41.0220 C   0  0  0  0  0  0  0  0  0  0  0  0
   37.5570   24.5110   41.5890 N   0  0  0  0  0  0  0  0  0  0  0  0
   38.0050   25.6350   40.9680 C   0  0  0  0  0  0  0  0  0  0  0  0
   38.5870   25.5610   39.8040 N   0  0  0  0  0  0  0  0  0  0  0  0
   39.2390   24.3550   38.2400 H   0  0  0  0  0  0  0  0  0  0  0  0
   38.4570   22.2180   39.2840 H   0  0  0  0  0  0  0  0  0  0  0  0
   37.3420   22.3980   41.5250 H   0  0  0  0  0  0  0  0  0  0  0  0
   35.7150   29.5870   38.6240 C   0  0  0  0  0  3  0  0  0  0  0  0
   34.4550   28.9760   39.1330 C   0  0  0  0  0  2  0  0  0  0  0  0
   33.3940   28.9110   38.0550 C   0  0  0  0  0  2  0  0  0  0  0  0
   33.8400   28.3300   36.7640 C   0  0  0  0  0  2  0  0  0  0  0  0
   35.1650   28.8600   36.2700 C   0  0  0  0  0  2  0  0  0  0  0  0
   36.2050   28.8490   37.4040 C   0  0  0  0  0  2  0  0  0  0  0  0
  1  2  1  0  0  0  0
  1 21  1  0  0  0  0
  1  7  1  1  0  0  0
  2  9  1  0  0  0  0
  3 11  1  0  0  0  0
  3 10  1  0  0  0  0
  3  2  1  0  0  0  0
  4  3  1  0  0  0  0
  5  4  1  0  0  0  0
  5  6  1  0  0  0  0
  6 16  1  1  0  0  0
  6  1  1  0  0  0  0
  8  2  1  0  0  0  0
 12  4  1  0  0  0  0
 13  4  1  0  0  0  0
 14  5  1  0  0  0  0
 15  5  1  0  0  0  0
 17 18  1  0  0  0  0
 18 23  1  0  0  0  0
 18 19  2  0  0  0  0
 19 24  1  0  0  0  0
 20 25  1  0  0  0  0
 20 19  1  0  0  0  0
 21 20  2  0  0  0  0
 22 21  1  0  0  0  0
 22 17  2  0  0  0  0
 26 27  2  0  0  0  0
 26 31  1  0  0  0  0
 27 28  1  0  0  0  0
 28 34  1  0  0  0  0
 28 29  2  0  0  0  0
 30 29  1  0  0  0  0
 30 17  1  0  0  0  0
 31 30  2  0  0  0  0
 32 26  1  0  0  0  0
 33 27  1  0  0  0  0
 35 36  1  0  0  0  0
 35  6  1  0  0  0  0
 37 36  1  0  0  0  0
 38 37  1  0  0  0  0
 39 38  1  0  0  0  0
 39 40  1  0  0  0  0
 40 35  1  0  0  0  0
M  END
>  <minimizedAffinity>
-6.05367184

$$$$

 OpenBabel03242514073D

 40 43  0  0  1  0  0  0  0  0999 V2000
   36.2850   29.6360   39.6560 C   0  0  1  0  0  0  0  0  0  0  0  0
   35.8910   29.7350   38.1580 C   0  0  0  0  0  0  0  0  0  0  0  0
   34.7370   28.7350   38.0050 C   0  0  0  0  0  0  0  0  0  0  0  0
   35.3410   27.3670   38.1110 C   0  0  0  0  0  0  0  0  0  0  0  0
   36.4720   27.2350   39.0520 C   0  0  0  0  0  0  0  0  0  0  0  0
   36.4430   28.3410   40.1670 C   0  0  1  0  0  0  0  0  0  0  0  0
   35.2860   30.1430   40.0220 H   0  0  0  0  0  0  0  0  0  0  0  0
   36.7850   29.4090   37.6110 H   0  0  0  0  0  0  0  0  0  0  0  0
   35.6120   30.7470   37.9220 H   0  0  0  0  0  0  0  0  0  0  0  0
   34.0910   28.8900   38.9060 H   0  0  0  0  0  0  0  0  0  0  0  0
   34.1930   28.8730   37.0730 H   0  0  0  0  0  0  0  0  0  0  0  0
   35.7240   27.1060   37.0860 H   0  0  0  0  0  0  0  0  0  0  0  0
   34.5860   26.5650   38.3140 H   0  0  0  0  0  0  0  0  0  0  0  0
   37.4710   27.3410   38.5770 H   0  0  0  0  0  0  0  0  0  0  0  0
   36.4530   26.2450   39.5440 H   0  0  0  0  0  0  0  0  0  0  0  0
   35.3550   28.0850   40.3770 H   0  0  0  0  0  0  0  0  0  0  0  0
   39.1930   31.5710   40.7960 C   0  0  0  0  0  0  0  0  0  0  0  0
   38.8140   32.8170   40.3920 C   0  0  0  0  0  0  0  0  0  0  0  0
   37.6170   33.1040   39.7730 C   0  0  0  0  0  0  0  0  0  0  0  0
   36.8040   31.9930   39.5840 C   0  0  0  0  0  0  0  0  0  0  0  0
   37.1680   30.7340   39.9740 C   0  0  0  0  0  0  0  0  0  0  0  0
   38.3580   30.5160   40.5810 N   0  0  0  0  0  0  0  0  0  0  0  0
   39.5470   33.5870   40.6000 H   0  0  0  0  0  0  0  0  0  0  0  0
   37.4410   34.1300   39.5090 H   0  0  0  0  0  0  0  0  0  0  0  0
   35.9100   32.3490   39.1080 H   0  0  0  0  0  0  0  0  0  0  0  0
   42.5480   31.9630   42.1820 C   0  0  0  0  0  0  0  0  0  0  0  0
   42.7710   30.7830   42.8730 C   0  0  0  0  0  0  0  0  0  0  0  0
   41.7370   29.8520   42.8490 C   0  0  0  0  0  0  0  0  0  0  0  0
   40.5900   30.1520   42.1620 N   0  0  0  0  0  0  0  0  0  0  0  0
   40.4400   31.3340   41.5040 C   0  0  0  0  0  0  0  0  0  0  0  0
   41.3960   32.2210   41.5130 N   0  0  0  0  0  0  0  0  0  0  0  0
   43.3050   32.7400   42.1510 H   0  0  0  0  0  0  0  0  0  0  0  0
   43.6970   30.6030   43.3960 H   0  0  0  0  0  0  0  0  0  0  0  0
   41.8360   28.9180   43.3600 H   0  0  0  0  0  0  0  0  0  0  0  0
   37.1090   27.6890   41.2610 C   0  0  0  0  0  3  0  0  0  0  0  0
   38.0050   26.5150   41.0570 C   0  0  0  0  0  2  0  0  0  0  0  0
   39.1720   26.5330   42.0210 C   0  0  0  0  0  2  0  0  0  0  0  0
   38.8120   26.7480   43.4450 C   0  0  0  0  0  2  0  0  0  0  0  0
   37.8280   27.8690   43.6750 C   0  0  0  0  0  2  0  0  0  0  0  0
   36.6470   27.7570   42.6940 C   0  0  0  0  0  2  0  0  0  0  0  0
  1 21  1  0  0  0  0
  1  7  1  1  0  0  0
  1  6  1  0  0  0  0
  2  1  1  0  0  0  0
  3  4  1  0  0  0  0
  3  2  1  0  0  0  0
  3 10  1  0  0  0  0
  4 13  1  0  0  0  0
  4  5  1  0  0  0  0
  5 15  1  0  0  0  0
  5  6  1  0  0  0  0
  6 16  1  1  0  0  0
  6 35  1  0  0  0  0
  8  2  1  0  0  0  0
  9  2  1  0  0  0  0
 11  3  1  0  0  0  0
 12  4  1  0  0  0  0
 14  5  1  0  0  0  0
 17 30  1  0  0  0  0
 18 23  1  0  0  0  0
 18 17  2  0  0  0  0
 19 18  1  0  0  0  0
 20 19  2  0  0  0  0
 20 21  1  0  0  0  0
 21 22  2  0  0  0  0
 22 17  1  0  0  0  0
 24 19  1  0  0  0  0
 25 20  1  0  0  0  0
 26 27  1  0  0  0  0
 27 33  1  0  0  0  0
 28 27  2  0  0  0  0
 28 34  1  0  0  0  0
 29 28  1  0  0  0  0
 30 31  1  0  0  0  0
 30 29  2  0  0  0  0
 31 26  2  0  0  0  0
 32 26  1  0  0  0  0
 35 40  1  0  0  0  0
 36 35  1  0  0  0  0
 36 37  1  0  0  0  0
 37 38  1  0  0  0  0
 38 39  1  0  0  0  0
 40 39  1  0  0  0  0
M  END
>  <minimizedAffinity>
-5.94116497

$$$$

 OpenBabel03242514073D

 40 43  0  0  1  0  0  0  0  0999 V2000
   36.3410   28.8850   41.2710 C   0  0  1  0  0  0  0  0  0  0  0  0
   36.5910   27.5560   42.0310 C   0  0  0  0  0  0  0  0  0  0  0  0
   36.8880   27.9950   43.4710 C   0  0  0  0  0  0  0  0  0  0  0  0
   38.2420   28.6380   43.4500 C   0  0  0  0  0  0  0  0  0  0  0  0
   38.5680   29.4100   42.2330 C   0  0  0  0  0  0  0  0  0  0  0  0
   37.2800   29.9040   41.4850 C   0  0  1  0  0  0  0  0  0  0  0  0
   35.3230   29.0900   41.8270 H   0  0  0  0  0  0  0  0  0  0  0  0
   37.4760   27.1200   41.5500 H   0  0  0  0  0  0  0  0  0  0  0  0
   35.7260   26.9220   41.9490 H   0  0  0  0  0  0  0  0  0  0  0  0
   36.1370   28.7950   43.6960 H   0  0  0  0  0  0  0  0  0  0  0  0
   36.8380   27.1660   44.1740 H   0  0  0  0  0  0  0  0  0  0  0  0
   38.9940   27.8060   43.5330 H   0  0  0  0  0  0  0  0  0  0  0  0
   38.4490   29.2620   44.3580 H   0  0  0  0  0  0  0  0  0  0  0  0
   39.1330   28.8320   41.4700 H   0  0  0  0  0  0  0  0  0  0  0  0
   39.1830   30.2930   42.4870 H   0  0  0  0  0  0  0  0  0  0  0  0
   36.8850   30.3240   42.4650 H   0  0  0  0  0  0  0  0  0  0  0  0
   35.7830   27.3850   37.9640 C   0  0  0  0  0  0  0  0  0  0  0  0
   34.5810   27.9510   37.6530 C   0  0  0  0  0  0  0  0  0  0  0  0
   33.9140   28.8490   38.4560 C   0  0  0  0  0  0  0  0  0  0  0  0
   34.5760   29.1400   39.6430 C   0  0  0  0  0  0  0  0  0  0  0  0
   35.7780   28.5780   39.9770 C   0  0  0  0  0  0  0  0  0  0  0  0
   36.3860   27.7030   39.1430 N   0  0  0  0  0  0  0  0  0  0  0  0
   34.1790   27.6310   36.6990 H   0  0  0  0  0  0  0  0  0  0  0  0
   32.9740   29.2230   38.0910 H   0  0  0  0  0  0  0  0  0  0  0  0
   33.9640   29.8500   40.1660 H   0  0  0  0  0  0  0  0  0  0  0  0
   38.3880   25.5460   36.1870 C   0  0  0  0  0  0  0  0  0  0  0  0
   37.6950   24.7760   35.2660 C   0  0  0  0  0  0  0  0  0  0  0  0
   36.3090   24.9070   35.2770 C   0  0  0  0  0  0  0  0  0  0  0  0
   35.7300   25.7670   36.1730 N   0  0  0  0  0  0  0  0  0  0  0  0
   36.4760   26.4930   37.0490 C   0  0  0  0  0  0  0  0  0  0  0  0
   37.7750   26.3870   37.0580 N   0  0  0  0  0  0  0  0  0  0  0  0
   39.4710   25.5020   36.2420 H   0  0  0  0  0  0  0  0  0  0  0  0
   38.2070   24.1160   34.5850 H   0  0  0  0  0  0  0  0  0  0  0  0
   35.7070   24.3440   34.5960 H   0  0  0  0  0  0  0  0  0  0  0  0
   37.7450   31.0950   40.8290 C   0  0  0  0  0  3  0  0  0  0  0  0
   37.0700   31.6500   39.6220 C   0  0  0  0  0  2  0  0  0  0  0  0
   37.0990   33.1640   39.6150 C   0  0  0  0  0  2  0  0  0  0  0  0
   38.4310   33.7700   39.8660 C   0  0  0  0  0  2  0  0  0  0  0  0
   39.1830   33.1610   41.0250 C   0  0  0  0  0  2  0  0  0  0  0  0
   39.1520   31.6250   40.9370 C   0  0  0  0  0  2  0  0  0  0  0  0
  1  6  1  0  0  0  0
  1  7  1  1  0  0  0
  1  2  1  0  0  0  0
  2  3  1  0  0  0  0
  3 10  1  0  0  0  0
  3 11  1  0  0  0  0
  4  3  1  0  0  0  0
  4 12  1  0  0  0  0
  4 13  1  0  0  0  0
  5 15  1  0  0  0  0
  5  4  1  0  0  0  0
  6  5  1  0  0  0  0
  6 16  1  1  0  0  0
  8  2  1  0  0  0  0
  9  2  1  0  0  0  0
 14  5  1  0  0  0  0
 17 22  1  0  0  0  0
 18 17  2  0  0  0  0
 18 19  1  0  0  0  0
 19 20  2  0  0  0  0
 20 21  1  0  0  0  0
 20 25  1  0  0  0  0
 21  1  1  0  0  0  0
 22 21  2  0  0  0  0
 23 18  1  0  0  0  0
 24 19  1  0  0  0  0
 26 32  1  0  0  0  0
 26 31  1  0  0  0  0
 27 28  1  0  0  0  0
 27 26  2  0  0  0  0
 28 29  2  0  0  0  0
 29 30  1  0  0  0  0
 30 31  2  0  0  0  0
 30 17  1  0  0  0  0
 33 27  1  0  0  0  0
 34 28  1  0  0  0  0
 35 40  1  0  0  0  0
 35  6  1  0  0  0  0
 36 35  1  0  0  0  0
 37 36  1  0  0  0  0
 37 38  1  0  0  0  0
 38 39  1  0  0  0  0
 40 39  1  0  0  0  0
M  END
>  <minimizedAffinity>
-5.89092779

$$$$
