
 OpenBabel03252504453D

 18 19  0  0  0  0  0  0  0  0999 V2000
   37.3400   32.4720   39.4650 C   0  0  0  0  0  0  0  0  0  0  0  0
   37.6890   31.9060   38.2360 C   0  0  0  0  0  0  0  0  0  0  0  0
   37.6940   30.5050   38.1520 C   0  0  0  0  0  0  0  0  0  0  0  0
   37.3650   29.7900   39.2510 N   0  0  0  0  0  0  0  0  0  0  0  0
   37.0310   30.3800   40.4330 C   0  0  0  0  0  0  0  0  0  0  0  0
   37.0190   31.7240   40.5360 N   0  0  0  0  0  0  0  0  0  0  0  0
   37.9500   32.4850   37.3610 H   0  0  0  0  0  0  0  0  0  0  0  0
   37.9580   30.0060   37.2180 H   0  0  0  0  0  0  0  0  0  0  0  0
   36.6910   29.5170   41.5640 C   0  0  0  0  0  3  0  0  0  0  0  0
   36.1530   28.1800   41.1890 C   0  0  0  0  0  2  0  0  0  0  0  0
   36.8800   27.0320   41.8500 C   0  0  0  0  0  2  0  0  0  0  0  0
   37.1330   27.2260   43.3180 C   0  0  0  0  0  2  0  0  0  0  0  0
   37.6240   28.6120   43.6750 C   0  0  0  0  0  2  0  0  0  0  0  0
   37.9520   29.3950   42.4260 C   0  0  0  0  0  2  0  0  0  0  0  0
   37.3370   33.9760   39.5460 C   0  0  0  0  0  0  0  0  0  0  0  0
   36.8680   34.4070   38.6440 H   0  0  0  0  0  0  0  0  0  0  0  0
   36.8230   34.3330   40.4410 H   0  0  0  0  0  0  0  0  0  0  0  0
   38.4080   34.2930   39.5590 H   0  0  0  0  0  0  0  0  0  0  0  0
  1 15  1  0  0  0  0
  1  6  1  0  0  0  0
  2  1  2  0  0  0  0
  3  2  1  0  0  0  0
  3  4  2  0  0  0  0
  4  5  1  0  0  0  0
  5  6  2  0  0  0  0
  5  9  1  0  0  0  0
  7  2  1  0  0  0  0
  8  3  1  0  0  0  0
  9 14  1  0  0  0  0
 10  9  1  0  0  0  0
 10 11  1  0  0  0  0
 11 12  1  0  0  0  0
 12 13  1  0  0  0  0
 14 13  1  0  0  0  0
 15 18  1  0  0  0  0
 15 17  1  0  0  0  0
 16 15  1  0  0  0  0
M  END
>  <minimizedAffinity>
-4.52311993

$$$$

 OpenBabel03252504453D

 18 19  0  0  0  0  0  0  0  0999 V2000
   38.2850   31.9630   40.5860 C   0  0  0  0  0  0  0  0  0  0  0  0
   36.9480   31.8390   40.1980 C   0  0  0  0  0  0  0  0  0  0  0  0
   36.2120   30.7840   40.7590 C   0  0  0  0  0  0  0  0  0  0  0  0
   36.8290   29.9570   41.6320 N   0  0  0  0  0  0  0  0  0  0  0  0
   38.1370   30.1100   41.9840 C   0  0  0  0  0  0  0  0  0  0  0  0
   38.8630   31.1170   41.4580 N   0  0  0  0  0  0  0  0  0  0  0  0
   36.4610   32.5060   39.4990 H   0  0  0  0  0  0  0  0  0  0  0  0
   35.1630   30.6370   40.4950 H   0  0  0  0  0  0  0  0  0  0  0  0
   38.7120   29.1610   42.9360 C   0  0  0  0  0  3  0  0  0  0  0  0
   37.8030   28.0510   43.3370 C   0  0  0  0  0  2  0  0  0  0  0  0
   38.4160   26.6810   43.1660 C   0  0  0  0  0  2  0  0  0  0  0  0
   39.8230   26.5670   43.6800 C   0  0  0  0  0  2  0  0  0  0  0  0
   40.7060   27.7360   43.3060 C   0  0  0  0  0  2  0  0  0  0  0  0
   40.0060   28.6320   42.3110 C   0  0  0  0  0  2  0  0  0  0  0  0
   39.0680   33.0980   39.9780 C   0  0  0  0  0  0  0  0  0  0  0  0
   38.4620   34.0200   39.9700 H   0  0  0  0  0  0  0  0  0  0  0  0
   40.0060   33.2730   40.5100 H   0  0  0  0  0  0  0  0  0  0  0  0
   39.2690   32.8100   38.9170 H   0  0  0  0  0  0  0  0  0  0  0  0
  1  6  1  0  0  0  0
  2  1  2  0  0  0  0
  2  3  1  0  0  0  0
  3  4  2  0  0  0  0
  4  5  1  0  0  0  0
  5  9  1  0  0  0  0
  6  5  2  0  0  0  0
  7  2  1  0  0  0  0
  8  3  1  0  0  0  0
  9 10  1  0  0  0  0
 11 10  1  0  0  0  0
 11 12  1  0  0  0  0
 13 12  1  0  0  0  0
 14  9  1  0  0  0  0
 14 13  1  0  0  0  0
 15 17  1  0  0  0  0
 15  1  1  0  0  0  0
 16 15  1  0  0  0  0
 18 15  1  0  0  0  0
M  END
>  <minimizedAffinity>
-4.51214218

$$$$

 OpenBabel03252504453D

 18 19  0  0  0  0  0  0  0  0999 V2000
   37.1400   30.8950   38.1500 C   0  0  0  0  0  0  0  0  0  0  0  0
   37.3780   32.2580   38.3420 C   0  0  0  0  0  0  0  0  0  0  0  0
   37.3610   32.7330   39.6620 C   0  0  0  0  0  0  0  0  0  0  0  0
   37.1190   31.8570   40.6620 N   0  0  0  0  0  0  0  0  0  0  0  0
   36.8910   30.5330   40.4340 C   0  0  0  0  0  0  0  0  0  0  0  0
   36.9030   30.0550   39.1740 N   0  0  0  0  0  0  0  0  0  0  0  0
   37.5710   32.9540   37.5360 H   0  0  0  0  0  0  0  0  0  0  0  0
   37.5400   33.7890   39.8750 H   0  0  0  0  0  0  0  0  0  0  0  0
   36.6390   29.6660   41.5850 C   0  0  0  0  0  3  0  0  0  0  0  0
   36.1020   28.3190   41.2450 C   0  0  0  0  0  2  0  0  0  0  0  0
   36.8890   27.1860   41.8590 C   0  0  0  0  0  2  0  0  0  0  0  0
   37.2310   27.3860   43.3070 C   0  0  0  0  0  2  0  0  0  0  0  0
   37.7180   28.7810   43.6330 C   0  0  0  0  0  2  0  0  0  0  0  0
   37.9530   29.5690   42.3650 C   0  0  0  0  0  2  0  0  0  0  0  0
   37.1600   30.3940   36.7290 C   0  0  0  0  0  0  0  0  0  0  0  0
   38.0070   30.8370   36.1780 H   0  0  0  0  0  0  0  0  0  0  0  0
   37.2160   29.3040   36.6840 H   0  0  0  0  0  0  0  0  0  0  0  0
   36.2160   30.7560   36.2540 H   0  0  0  0  0  0  0  0  0  0  0  0
  1  2  2  0  0  0  0
  1  6  1  0  0  0  0
  2  3  1  0  0  0  0
  3  8  1  0  0  0  0
  3  4  2  0  0  0  0
  5  4  1  0  0  0  0
  5  9  1  0  0  0  0
  6  5  2  0  0  0  0
  7  2  1  0  0  0  0
  9 14  1  0  0  0  0
 10  9  1  0  0  0  0
 10 11  1  0  0  0  0
 11 12  1  0  0  0  0
 12 13  1  0  0  0  0
 14 13  1  0  0  0  0
 15  1  1  0  0  0  0
 16 15  1  0  0  0  0
 17 15  1  0  0  0  0
 18 15  1  0  0  0  0
M  END
>  <minimizedAffinity>
-4.50882053

$$$$

 OpenBabel03252504453D

 18 19  0  0  0  0  0  0  0  0999 V2000
   35.6410   29.1770   40.3670 C   0  0  0  0  0  0  0  0  0  0  0  0
   36.1320   30.4700   40.5660 C   0  0  0  0  0  0  0  0  0  0  0  0
   37.1410   30.6330   41.5280 C   0  0  0  0  0  0  0  0  0  0  0  0
   37.5770   29.5430   42.1990 N   0  0  0  0  0  0  0  0  0  0  0  0
   37.0720   28.2980   41.9770 C   0  0  0  0  0  0  0  0  0  0  0  0
   36.1020   28.1180   41.0580 N   0  0  0  0  0  0  0  0  0  0  0  0
   35.7790   31.3370   40.0250 H   0  0  0  0  0  0  0  0  0  0  0  0
   37.5650   31.6190   41.7270 H   0  0  0  0  0  0  0  0  0  0  0  0
   37.6110   27.1840   42.7570 C   0  0  0  0  0  3  0  0  0  0  0  0
   37.2140   25.8330   42.2710 C   0  0  0  0  0  2  0  0  0  0  0  0
   38.3860   24.9070   42.0480 C   0  0  0  0  0  2  0  0  0  0  0  0
   39.3950   24.9100   43.1610 C   0  0  0  0  0  2  0  0  0  0  0  0
   39.7340   26.2920   43.6730 C   0  0  0  0  0  2  0  0  0  0  0  0
   39.1330   27.3510   42.7780 C   0  0  0  0  0  2  0  0  0  0  0  0
   34.5580   29.0110   39.3340 C   0  0  0  0  0  0  0  0  0  0  0  0
   34.7960   29.6010   38.4320 H   0  0  0  0  0  0  0  0  0  0  0  0
   34.4100   27.9630   39.0650 H   0  0  0  0  0  0  0  0  0  0  0  0
   33.6260   29.4340   39.7830 H   0  0  0  0  0  0  0  0  0  0  0  0
  1  2  2  0  0  0  0
  1  6  1  0  0  0  0
  2  3  1  0  0  0  0
  3  8  1  0  0  0  0
  3  4  2  0  0  0  0
  5  4  1  0  0  0  0
  5  9  1  0  0  0  0
  6  5  2  0  0  0  0
  7  2  1  0  0  0  0
  9 14  1  0  0  0  0
 10  9  1  0  0  0  0
 11 10  1  0  0  0  0
 11 12  1  0  0  0  0
 12 13  1  0  0  0  0
 14 13  1  0  0  0  0
 15 18  1  0  0  0  0
 15  1  1  0  0  0  0
 16 15  1  0  0  0  0
 17 15  1  0  0  0  0
M  END
>  <minimizedAffinity>
-4.46044064

$$$$

 OpenBabel03252504453D

 18 19  0  0  0  0  0  0  0  0999 V2000
   37.1470   26.7470   42.2370 C   0  0  0  0  0  0  0  0  0  0  0  0
   37.6080   27.2290   43.4650 C   0  0  0  0  0  0  0  0  0  0  0  0
   37.7240   28.6200   43.6060 C   0  0  0  0  0  0  0  0  0  0  0  0
   37.3890   29.4070   42.5600 N   0  0  0  0  0  0  0  0  0  0  0  0
   36.9440   28.8990   41.3770 C   0  0  0  0  0  0  0  0  0  0  0  0
   36.8240   27.5650   41.2190 N   0  0  0  0  0  0  0  0  0  0  0  0
   37.8740   26.5920   44.2980 H   0  0  0  0  0  0  0  0  0  0  0  0
   38.0780   29.0550   44.5430 H   0  0  0  0  0  0  0  0  0  0  0  0
   36.6070   29.8350   40.3050 C   0  0  0  0  0  3  0  0  0  0  0  0
   36.4370   31.2480   40.7420 C   0  0  0  0  0  2  0  0  0  0  0  0
   37.2670   32.2280   39.9470 C   0  0  0  0  0  2  0  0  0  0  0  0
   37.2190   32.0130   38.4610 C   0  0  0  0  0  2  0  0  0  0  0  0
   37.3350   30.5620   38.0500 C   0  0  0  0  0  2  0  0  0  0  0  0
   37.6990   29.7030   39.2390 C   0  0  0  0  0  2  0  0  0  0  0  0
   37.0250   25.2520   42.0930 C   0  0  0  0  0  0  0  0  0  0  0  0
   36.5770   24.8160   43.0030 H   0  0  0  0  0  0  0  0  0  0  0  0
   36.4350   24.9760   41.2170 H   0  0  0  0  0  0  0  0  0  0  0  0
   38.0670   24.8590   42.0020 H   0  0  0  0  0  0  0  0  0  0  0  0
  1  2  1  0  0  0  0
  2  3  2  0  0  0  0
  2  7  1  0  0  0  0
  3  8  1  0  0  0  0
  4  3  1  0  0  0  0
  5  4  2  0  0  0  0
  6  5  1  0  0  0  0
  6  1  2  0  0  0  0
  9 10  1  0  0  0  0
  9  5  1  0  0  0  0
 11 10  1  0  0  0  0
 12 11  1  0  0  0  0
 13 12  1  0  0  0  0
 13 14  1  0  0  0  0
 14  9  1  0  0  0  0
 15  1  1  0  0  0  0
 15 16  1  0  0  0  0
 17 15  1  0  0  0  0
 18 15  1  0  0  0  0
M  END
>  <minimizedAffinity>
-4.45960617

$$$$

 OpenBabel03252504453D

 18 19  0  0  0  0  0  0  0  0999 V2000
   38.1370   24.5300   41.8410 C   0  0  0  0  0  0  0  0  0  0  0  0
   39.2430   24.4930   42.6940 C   0  0  0  0  0  0  0  0  0  0  0  0
   39.5450   25.6650   43.4050 C   0  0  0  0  0  0  0  0  0  0  0  0
   38.7590   26.7500   43.2260 N   0  0  0  0  0  0  0  0  0  0  0  0
   37.6890   26.7460   42.3830 C   0  0  0  0  0  0  0  0  0  0  0  0
   37.3800   25.6320   41.6910 N   0  0  0  0  0  0  0  0  0  0  0  0
   39.8670   23.6210   42.8320 H   0  0  0  0  0  0  0  0  0  0  0  0
   40.3970   25.6970   44.0870 H   0  0  0  0  0  0  0  0  0  0  0  0
   36.9010   27.9730   42.2600 C   0  0  0  0  0  3  0  0  0  0  0  0
   37.6220   29.2180   42.6440 C   0  0  0  0  0  2  0  0  0  0  0  0
   37.5700   30.2940   41.5850 C   0  0  0  0  0  2  0  0  0  0  0  0
   36.2080   30.5070   40.9880 C   0  0  0  0  0  2  0  0  0  0  0  0
   35.4760   29.2230   40.6620 C   0  0  0  0  0  2  0  0  0  0  0  0
   36.3980   28.0360   40.8140 C   0  0  0  0  0  2  0  0  0  0  0  0
   37.8200   23.2670   41.0820 C   0  0  0  0  0  0  0  0  0  0  0  0
   37.9140   22.3890   41.7440 H   0  0  0  0  0  0  0  0  0  0  0  0
   36.8210   23.2980   40.6420 H   0  0  0  0  0  0  0  0  0  0  0  0
   38.5960   23.1770   40.2820 H   0  0  0  0  0  0  0  0  0  0  0  0
  1  2  1  0  0  0  0
  2  7  1  0  0  0  0
  2  3  2  0  0  0  0
  3  8  1  0  0  0  0
  4  3  1  0  0  0  0
  5  4  2  0  0  0  0
  6  1  2  0  0  0  0
  6  5  1  0  0  0  0
  9  5  1  0  0  0  0
  9 10  1  0  0  0  0
 11 10  1  0  0  0  0
 12 11  1  0  0  0  0
 13 14  1  0  0  0  0
 13 12  1  0  0  0  0
 14  9  1  0  0  0  0
 15 16  1  0  0  0  0
 15  1  1  0  0  0  0
 17 15  1  0  0  0  0
 18 15  1  0  0  0  0
M  END
>  <minimizedAffinity>
-4.42953253

$$$$

 OpenBabel03252504453D

 18 19  0  0  0  0  0  0  0  0999 V2000
   39.4830   25.4310   42.7430 C   0  0  0  0  0  0  0  0  0  0  0  0
   38.9220   24.2130   42.3480 C   0  0  0  0  0  0  0  0  0  0  0  0
   37.6010   24.2380   41.8740 C   0  0  0  0  0  0  0  0  0  0  0  0
   36.9540   25.4240   41.8250 N   0  0  0  0  0  0  0  0  0  0  0  0
   37.5360   26.5900   42.2200 C   0  0  0  0  0  0  0  0  0  0  0  0
   38.8030   26.5900   42.6790 N   0  0  0  0  0  0  0  0  0  0  0  0
   39.4460   23.2680   42.3900 H   0  0  0  0  0  0  0  0  0  0  0  0
   37.1100   23.3180   41.5510 H   0  0  0  0  0  0  0  0  0  0  0  0
   36.7500   27.8210   42.1280 C   0  0  0  0  0  3  0  0  0  0  0  0
   37.4480   29.0440   42.6130 C   0  0  0  0  0  2  0  0  0  0  0  0
   37.4410   30.1760   41.6130 C   0  0  0  0  0  2  0  0  0  0  0  0
   36.1070   30.4200   40.9680 C   0  0  0  0  0  2  0  0  0  0  0  0
   35.3950   29.1550   40.5390 C   0  0  0  0  0  2  0  0  0  0  0  0
   36.3140   27.9630   40.6670 C   0  0  0  0  0  2  0  0  0  0  0  0
   40.9010   25.3940   43.2510 C   0  0  0  0  0  0  0  0  0  0  0  0
   41.5200   24.7400   42.6130 H   0  0  0  0  0  0  0  0  0  0  0  0
   41.3400   26.3930   43.2990 H   0  0  0  0  0  0  0  0  0  0  0  0
   40.8590   24.9370   44.2700 H   0  0  0  0  0  0  0  0  0  0  0  0
  1 15  1  0  0  0  0
  2  7  1  0  0  0  0
  2  1  2  0  0  0  0
  3  2  1  0  0  0  0
  4  3  2  0  0  0  0
  4  5  1  0  0  0  0
  5  6  2  0  0  0  0
  6  1  1  0  0  0  0
  8  3  1  0  0  0  0
  9  5  1  0  0  0  0
  9 10  1  0  0  0  0
 11 10  1  0  0  0  0
 12 11  1  0  0  0  0
 13 14  1  0  0  0  0
 13 12  1  0  0  0  0
 14  9  1  0  0  0  0
 15 17  1  0  0  0  0
 15 18  1  0  0  0  0
 16 15  1  0  0  0  0
M  END
>  <minimizedAffinity>
-4.36683941

$$$$

 OpenBabel03252504453D

 18 19  0  0  0  0  0  0  0  0999 V2000
   36.9090   27.5620   42.2810 C   0  0  0  0  0  0  0  0  0  0  0  0
   37.0600   26.4220   41.4860 C   0  0  0  0  0  0  0  0  0  0  0  0
   37.5440   26.6090   40.1820 C   0  0  0  0  0  0  0  0  0  0  0  0
   37.8330   27.8650   39.7720 N   0  0  0  0  0  0  0  0  0  0  0  0
   37.6700   28.9510   40.5780 C   0  0  0  0  0  0  0  0  0  0  0  0
   37.2070   28.7960   41.8350 N   0  0  0  0  0  0  0  0  0  0  0  0
   36.8270   25.4210   41.8210 H   0  0  0  0  0  0  0  0  0  0  0  0
   37.6830   25.7570   39.5140 H   0  0  0  0  0  0  0  0  0  0  0  0
   38.0110   30.2680   40.0400 C   0  0  0  0  0  3  0  0  0  0  0  0
   38.1900   30.3110   38.5630 C   0  0  0  0  0  2  0  0  0  0  0  0
   37.3650   31.3800   37.8870 C   0  0  0  0  0  2  0  0  0  0  0  0
   37.4090   32.7170   38.5710 C   0  0  0  0  0  2  0  0  0  0  0  0
   37.2830   32.6370   40.0770 C   0  0  0  0  0  2  0  0  0  0  0  0
   36.9160   31.2350   40.5030 C   0  0  0  0  0  2  0  0  0  0  0  0
   36.3890   27.3520   43.6790 C   0  0  0  0  0  0  0  0  0  0  0  0
   36.8790   26.4790   44.1430 H   0  0  0  0  0  0  0  0  0  0  0  0
   36.5350   28.2370   44.3030 H   0  0  0  0  0  0  0  0  0  0  0  0
   35.3000   27.1210   43.5800 H   0  0  0  0  0  0  0  0  0  0  0  0
  1 15  1  0  0  0  0
  2  7  1  0  0  0  0
  2  1  2  0  0  0  0
  3  2  1  0  0  0  0
  4  3  2  0  0  0  0
  4  5  1  0  0  0  0
  5  6  2  0  0  0  0
  6  1  1  0  0  0  0
  8  3  1  0  0  0  0
  9 14  1  0  0  0  0
  9  5  1  0  0  0  0
 10  9  1  0  0  0  0
 11 10  1  0  0  0  0
 11 12  1  0  0  0  0
 12 13  1  0  0  0  0
 13 14  1  0  0  0  0
 15 16  1  0  0  0  0
 15 17  1  0  0  0  0
 18 15  1  0  0  0  0
M  END
>  <minimizedAffinity>
-4.03901815

$$$$

 OpenBabel03252504453D

 18 19  0  0  0  0  0  0  0  0999 V2000
   37.0940   26.7830   42.2830 C   0  0  0  0  0  0  0  0  0  0  0  0
   37.5440   27.4820   43.4060 C   0  0  0  0  0  0  0  0  0  0  0  0
   37.5820   28.8820   43.3180 C   0  0  0  0  0  0  0  0  0  0  0  0
   37.1850   29.4690   42.1670 N   0  0  0  0  0  0  0  0  0  0  0  0
   36.7530   28.7520   41.0920 C   0  0  0  0  0  0  0  0  0  0  0  0
   36.7070   27.4060   41.1540 N   0  0  0  0  0  0  0  0  0  0  0  0
   37.8600   27.0050   44.3230 H   0  0  0  0  0  0  0  0  0  0  0  0
   37.9250   29.4820   44.1630 H   0  0  0  0  0  0  0  0  0  0  0  0
   36.3450   29.4820   39.8920 C   0  0  0  0  0  3  0  0  0  0  0  0
   37.3900   30.3780   39.3230 C   0  0  0  0  0  2  0  0  0  0  0  0
   37.6460   30.1450   37.8530 C   0  0  0  0  0  2  0  0  0  0  0  0
   36.4000   30.0140   37.0230 C   0  0  0  0  0  2  0  0  0  0  0  0
   35.3340   29.1450   37.6540 C   0  0  0  0  0  2  0  0  0  0  0  0
   35.8810   28.4380   38.8720 C   0  0  0  0  0  2  0  0  0  0  0  0
   37.0560   25.2800   42.3850 C   0  0  0  0  0  0  0  0  0  0  0  0
   36.6490   24.9730   43.3640 H   0  0  0  0  0  0  0  0  0  0  0  0
   36.4700   24.8330   41.5800 H   0  0  0  0  0  0  0  0  0  0  0  0
   38.1180   24.9350   42.3330 H   0  0  0  0  0  0  0  0  0  0  0  0
  1 15  1  0  0  0  0
  1  2  1  0  0  0  0
  2  7  1  0  0  0  0
  3  2  2  0  0  0  0
  3  8  1  0  0  0  0
  4  3  1  0  0  0  0
  5  6  1  0  0  0  0
  5  4  2  0  0  0  0
  6  1  2  0  0  0  0
  9  5  1  0  0  0  0
 10  9  1  0  0  0  0
 11 10  1  0  0  0  0
 12 13  1  0  0  0  0
 12 11  1  0  0  0  0
 13 14  1  0  0  0  0
 14  9  1  0  0  0  0
 15 16  1  0  0  0  0
 17 15  1  0  0  0  0
 18 15  1  0  0  0  0
M  END
>  <minimizedAffinity>
-4.03360558

$$$$
