
 OpenBabel03252501313D

 17 18  0  0  0  0  0  0  0  0999 V2000
   47.0020   33.2600   41.1550 C   0  0  0  0  0  0  0  0  0  0  0  0
   47.6850   34.4640   40.9770 C   0  0  0  0  0  0  0  0  0  0  0  0
   48.2430   34.7200   39.7300 C   0  0  0  0  0  0  0  0  0  0  0  0
   48.0950   33.7870   38.7560 N   0  0  0  0  0  0  0  0  0  0  0  0
   47.4300   32.6320   38.9560 C   0  0  0  0  0  0  0  0  0  0  0  0
   46.8800   32.3630   40.1590 N   0  0  0  0  0  0  0  0  0  0  0  0
   48.7560   35.6460   39.6320 H   0  0  0  0  0  0  0  0  0  0  0  0
   47.3890   31.9730   38.0810 H   0  0  0  0  0  0  0  0  0  0  0  0
   46.3530   32.8500   42.4330 C   0  0  0  0  0  0  0  0  0  0  0  0
   47.4540   32.6260   43.4190 C   0  0  0  0  0  0  0  0  0  0  0  0
   47.0000   32.5130   44.8390 C   0  0  0  0  0  0  0  0  0  0  0  0
   46.2840   33.8000   45.1680 C   0  0  0  0  0  0  0  0  0  0  0  0
   45.1140   34.0670   44.2760 C   0  0  0  0  0  0  0  0  0  0  0  0
   45.3100   33.8200   42.8360 C   0  0  0  0  0  0  0  0  0  0  0  0
   47.7470   35.3310   42.1050 N   0  0  0  0  0  0  0  0  0  0  0  0
   48.5660   34.9490   42.6310 H   0  0  0  0  0  0  0  0  0  0  0  0
   47.1460   36.1570   42.3840 H   0  0  0  0  0  0  0  0  0  0  0  0
  1  9  1  0  0  0  0
  2  1  1  0  0  0  0
  2 15  1  0  0  0  0
  3  2  2  0  0  0  0
  4  5  2  0  0  0  0
  4  3  1  0  0  0  0
  5  6  1  0  0  0  0
  6  1  2  0  0  0  0
  7  3  1  0  0  0  0
  8  5  1  0  0  0  0
  9 14  1  0  0  0  0
  9 10  1  0  0  0  0
 10 11  1  0  0  0  0
 11 12  1  0  0  0  0
 13 12  1  0  0  0  0
 14 13  1  0  0  0  0
 15 17  1  0  0  0  0
 15 16  1  0  0  0  0
M  END
>  <minimizedAffinity>
-3.05744982

>  <minimizedRMSD>
5.70805502

$$$$
