
 OpenBabel03252504103D

 22 23  0  0  0  0  0  0  0  0999 V2000
   46.4430   33.8870   43.7900 C   0  0  0  0  0  0  0  0  0  0  0  0
   45.5360   34.8030   44.3360 C   0  0  0  0  0  0  0  0  0  0  0  0
   45.0850   34.5630   45.6520 C   0  0  0  0  0  0  0  0  0  0  0  0
   45.5470   33.4740   46.3040 N   0  0  0  0  0  0  0  0  0  0  0  0
   46.4190   32.6240   45.7290 C   0  0  0  0  0  0  0  0  0  0  0  0
   46.8690   32.8220   44.4810 N   0  0  0  0  0  0  0  0  0  0  0  0
   44.3850   35.2580   46.0910 H   0  0  0  0  0  0  0  0  0  0  0  0
   46.8280   31.4710   46.5880 C   0  0  0  0  0  0  0  0  0  0  0  0
   47.3780   32.0530   47.8360 C   0  0  0  0  0  0  0  0  0  0  0  0
   47.1360   31.2530   49.0780 C   0  0  0  0  0  0  0  0  0  0  0  0
   45.6120   31.1190   49.1710 C   0  0  0  0  0  0  0  0  0  0  0  0
   45.2060   30.1980   48.0780 C   0  0  0  0  0  0  0  0  0  0  0  0
   45.6690   30.5540   46.7190 C   0  0  0  0  0  0  0  0  0  0  0  0
   45.0890   35.9690   43.5390 C   0  0  0  0  0  0  0  0  0  0  0  0
   46.1410   36.4060   42.7320 F   0  0  0  0  0  0  0  0  0  0  0  0
   44.0890   35.5400   42.6880 F   0  0  0  0  0  0  0  0  0  0  0  0
   44.6640   37.0310   44.2630 F   0  0  0  0  0  0  0  0  0  0  0  0
   46.8730   34.1200   42.5310 O   0  0  0  0  0  0  0  0  0  0  0  0
   48.2010   34.2030   42.0840 C   0  0  0  0  0  0  0  0  0  0  0  0
   48.9300   34.7860   43.1170 F   0  0  0  0  0  0  0  0  0  0  0  0
   48.6620   32.9690   41.7340 F   0  0  0  0  0  0  0  0  0  0  0  0
   48.2820   35.1090   41.0340 F   0  0  0  0  0  0  0  0  0  0  0  0
  1  2  2  0  0  0  0
  1  6  1  0  0  0  0
  2  3  1  0  0  0  0
  3  7  1  0  0  0  0
  3  4  2  0  0  0  0
  5  4  1  0  0  0  0
  5  8  1  0  0  0  0
  6  5  2  0  0  0  0
  8 13  1  0  0  0  0
  8  9  1  0  0  0  0
  9 10  1  0  0  0  0
 10 11  1  0  0  0  0
 12 11  1  0  0  0  0
 13 12  1  0  0  0  0
 14 17  1  0  0  0  0
 14  2  1  0  0  0  0
 15 14  1  0  0  0  0
 16 14  1  0  0  0  0
 18  1  1  0  0  0  0
 19 18  1  0  0  0  0
 19 20  1  0  0  0  0
 21 19  1  0  0  0  0
 22 19  1  0  0  0  0
M  END
>  <minimizedAffinity>
-5.95516109

>  <minimizedRMSD>
2.18628216

$$$$
