
 OpenBabel03242510053D

 15 16  0  0  1  0  0  0  0  0999 V2000
   44.7440   35.2830   45.4140 C   0  0  0  0  0  0  0  0  0  0  0  0
   44.7280   36.2030   44.3500 C   0  0  0  0  0  0  0  0  0  0  0  0
   45.1310   35.7500   43.0900 C   0  0  0  0  0  0  0  0  0  0  0  0
   45.5130   34.4510   42.9630 N   0  0  0  0  0  0  0  0  0  0  0  0
   45.5180   33.5870   44.0040 C   0  0  0  0  0  0  0  0  0  0  0  0
   45.1330   34.0020   45.2350 N   0  0  0  0  0  0  0  0  0  0  0  0
   44.4320   35.6210   46.4070 H   0  0  0  0  0  0  0  0  0  0  0  0
   44.4250   37.2150   44.4790 H   0  0  0  0  0  0  0  0  0  0  0  0
   45.1510   36.3830   42.2130 H   0  0  0  0  0  0  0  0  0  0  0  0
   45.9510   32.1780   43.7800 C   0  0  2  0  0  3  0  0  0  0  0  0
   45.9000   31.4980   45.0940 C   0  0  0  0  0  2  0  0  0  0  0  0
   47.2430   31.2600   45.7270 C   0  0  0  0  0  2  0  0  0  0  0  0
   48.0430   30.4600   44.7320 C   0  0  0  0  0  2  0  0  0  0  0  0
   48.2670   31.1830   43.4560 C   0  0  0  0  0  3  0  0  0  0  0  0
   47.2490   32.1870   43.0660 C   0  0  0  0  0  3  0  0  0  0  0  0
  1  7  1  0  0  0  0
  2  8  1  0  0  0  0
  2  1  2  0  0  0  0
  3  2  1  0  0  0  0
  4  3  2  0  0  0  0
  4  5  1  0  0  0  0
  5  6  2  0  0  0  0
  6  1  1  0  0  0  0
  9  3  1  0  0  0  0
 10  5  1  1  0  0  0
 10 11  1  0  0  0  0
 11 12  1  0  0  0  0
 13 12  1  0  0  0  0
 14 13  1  0  0  0  0
 15 14  2  0  0  0  0
 15 10  1  0  0  0  0
M  END
>  <minimizedAffinity>
-3.17278814

>  <minimizedRMSD>
3.85511684

$$$$
