
 OpenBabel03252508263D

 38 42  0  0  1  0  0  0  0  0999 V2000
   46.3210   32.4240   46.1230 C   0  0  1  0  0  0  0  0  0  0  0  0
   46.8830   32.5600   47.4740 C   0  0  0  0  0  0  0  0  0  0  0  0
   45.4610   31.9310   47.1800 C   0  0  2  0  0  0  0  0  0  0  0  0
   47.0910   31.8000   45.5410 H   0  0  0  0  0  0  0  0  0  0  0  0
   47.5520   31.8250   47.9530 H   0  0  0  0  0  0  0  0  0  0  0  0
   46.9030   33.5380   47.9820 H   0  0  0  0  0  0  0  0  0  0  0  0
   44.7990   32.5870   47.8150 H   0  0  0  0  0  0  0  0  0  0  0  0
   45.2170   30.5180   47.4840 C   0  0  0  0  0  0  0  0  0  0  0  0
   45.0950   29.9450   48.7130 C   0  0  0  0  0  0  0  0  0  0  0  0
   44.9880   28.5850   48.9690 C   0  0  0  0  0  0  0  0  0  0  0  0
   45.0100   27.7380   47.8490 C   0  0  0  0  0  0  0  0  0  0  0  0
   45.1300   28.2930   46.5800 C   0  0  0  0  0  0  0  0  0  0  0  0
   45.0900   27.4290   45.5000 C   0  0  0  0  0  0  0  0  0  0  0  0
   45.1410   27.9510   44.2170 C   0  0  0  0  0  0  0  0  0  0  0  0
   45.2280   29.3090   44.0070 C   0  0  0  0  0  0  0  0  0  0  0  0
   45.2670   30.1290   45.1120 C   0  0  0  0  0  0  0  0  0  0  0  0
   45.2280   29.6630   46.4100 C   0  0  0  0  0  0  0  0  0  0  0  0
   45.0840   30.6400   49.5480 H   0  0  0  0  0  0  0  0  0  0  0  0
   44.8940   28.2000   49.9760 H   0  0  0  0  0  0  0  0  0  0  0  0
   44.9330   26.6690   47.9920 H   0  0  0  0  0  0  0  0  0  0  0  0
   45.0180   26.3590   45.6950 H   0  0  0  0  0  0  0  0  0  0  0  0
   45.1040   27.1680   43.4420 H   0  0  0  0  0  0  0  0  0  0  0  0
   45.2520   29.5150   42.9510 H   0  0  0  0  0  0  0  0  0  0  0  0
   45.2460   31.0980   44.7040 H   0  0  0  0  0  0  0  0  0  0  0  0
   44.6160   35.5580   45.1740 C   0  0  0  0  0  0  0  0  0  0  0  0
   45.0760   35.7730   43.8280 C   0  0  0  0  0  0  0  0  0  0  0  0
   45.9950   34.7990   43.2970 C   0  0  0  0  0  0  0  0  0  0  0  0
   46.3640   33.7830   44.0540 N   0  0  0  0  0  0  0  0  0  0  0  0
   45.8930   33.6190   45.3420 C   0  0  0  0  0  0  0  0  0  0  0  0
   45.0460   34.4870   45.8770 N   0  0  0  0  0  0  0  0  0  0  0  0
   43.9220   36.2930   45.5720 H   0  0  0  0  0  0  0  0  0  0  0  0
   44.7420   36.6140   43.2710 H   0  0  0  0  0  0  0  0  0  0  0  0
   46.4850   34.9970   41.9040 C   0  0  0  0  0  3  0  0  0  0  0  0
   47.9530   35.3150   41.9350 C   0  0  0  0  0  2  0  0  0  0  0  0
   48.6450   35.2240   40.6270 C   0  0  0  0  0  2  0  0  0  0  0  0
   48.3520   33.9550   39.8930 C   0  0  0  0  0  2  0  0  0  0  0  0
   46.8560   33.8370   39.7380 C   0  0  0  0  0  2  0  0  0  0  0  0
   46.1670   33.7890   41.0570 C   0  0  0  0  0  2  0  0  0  0  0  0
  1  4  1  6  0  0  0
  1  3  1  0  0  0  0
  1  2  1  0  0  0  0
  2  5  1  0  0  0  0
  2  6  1  0  0  0  0
  3  2  1  0  0  0  0
  3  8  1  0  0  0  0
  3  7  1  1  0  0  0
  8  9  1  0  0  0  0
  9 10  2  0  0  0  0
  9 18  1  0  0  0  0
 10 19  1  0  0  0  0
 11 20  1  0  0  0  0
 11 10  1  0  0  0  0
 12 11  2  0  0  0  0
 13 21  1  0  0  0  0
 13 12  1  0  0  0  0
 14 13  2  0  0  0  0
 15 14  1  0  0  0  0
 15 16  2  0  0  0  0
 16 17  1  0  0  0  0
 17 12  1  0  0  0  0
 17  8  2  0  0  0  0
 22 14  1  0  0  0  0
 23 15  1  0  0  0  0
 24 16  1  0  0  0  0
 25 31  1  0  0  0  0
 25 30  1  0  0  0  0
 26 25  2  0  0  0  0
 27 26  1  0  0  0  0
 27 28  2  0  0  0  0
 28 29  1  0  0  0  0
 29 30  2  0  0  0  0
 29  1  1  0  0  0  0
 32 26  1  0  0  0  0
 33 34  1  0  0  0  0
 33 27  1  0  0  0  0
 35 34  1  0  0  0  0
 36 35  1  0  0  0  0
 37 36  1  0  0  0  0
 37 38  1  0  0  0  0
 38 33  1  0  0  0  0
M  END
>  <minimizedAffinity>
-6.20848227

>  <minimizedRMSD>
0.386410266

$$$$
