
 OpenBabel03242523533D

 42 45  0  0  1  0  0  0  0  0999 V2000
   42.6880   34.4310   38.8690 C   0  0  1  0  0  0  0  0  0  0  0  0
   42.9850   35.1800   40.1630 C   0  0  1  0  0  0  0  0  0  0  0  0
   41.7660   35.5460   40.7540 O   0  0  0  0  0  0  0  0  0  0  0  0
   40.7930   35.8890   39.8110 C   0  0  0  0  0  0  0  0  0  0  0  0
   40.3250   34.6870   39.0190 C   0  0  2  0  0  0  0  0  0  0  0  0
   41.4640   33.6160   39.1330 C   0  0  1  0  0  0  0  0  0  0  0  0
   43.5640   33.8070   38.5750 H   0  0  0  0  0  0  0  0  0  0  0  0
   43.6410   36.0510   40.0230 H   0  0  0  0  0  0  0  0  0  0  0  0
   41.0740   36.7540   39.1840 H   0  0  0  0  0  0  0  0  0  0  0  0
   39.9230   36.2250   40.4080 H   0  0  0  0  0  0  0  0  0  0  0  0
   39.3760   34.2520   39.3940 H   0  0  0  0  0  0  0  0  0  0  0  0
   41.3200   33.4230   40.2460 H   0  0  0  0  0  0  0  0  0  0  0  0
   42.4670   35.3260   37.8130 O   0  0  0  0  0  0  0  0  0  0  0  0
   43.3560   35.6410   37.5230 H   0  0  0  0  0  0  0  0  0  0  0  0
   40.2660   35.0110   37.6700 O   0  0  0  0  0  0  0  0  0  0  0  0
   40.3430   34.2510   37.0590 H   0  0  0  0  0  0  0  0  0  0  0  0
   43.5100   34.2150   41.0350 O   0  0  0  0  0  0  0  0  0  0  0  0
   44.6270   34.3570   41.7570 C   0  0  0  0  0  0  0  0  0  0  0  0
   45.8800   34.4660   41.1370 C   0  0  0  0  0  0  0  0  0  0  0  0
   47.0060   34.6120   41.9260 C   0  0  0  0  0  0  0  0  0  0  0  0
   46.8630   34.6460   43.3040 N   0  0  0  0  0  0  0  0  0  0  0  0
   45.6400   34.5370   43.8670 C   0  0  0  0  0  0  0  0  0  0  0  0
   44.5310   34.3940   43.0970 N   0  0  0  0  0  0  0  0  0  0  0  0
   46.0010   34.4410   40.0620 H   0  0  0  0  0  0  0  0  0  0  0  0
   45.5650   34.5670   44.9280 H   0  0  0  0  0  0  0  0  0  0  0  0
   48.3760   34.7190   41.3400 C   0  0  0  0  0  0  0  0  0  0  0  0
   49.0980   36.0540   41.5120 C   0  0  0  0  0  0  0  0  0  0  0  0
   49.5400   34.7280   42.1660 C   0  0  0  0  0  0  0  0  0  0  0  0
   48.4150   34.2870   40.3020 H   0  0  0  0  0  0  0  0  0  0  0  0
   48.5570   36.7730   42.1260 H   0  0  0  0  0  0  0  0  0  0  0  0
   49.7270   36.3700   40.6660 H   0  0  0  0  0  0  0  0  0  0  0  0
   50.4970   34.2840   41.8410 H   0  0  0  0  0  0  0  0  0  0  0  0
   49.4230   34.7370   43.2830 H   0  0  0  0  0  0  0  0  0  0  0  0
   41.1870   32.6320   38.2580 O   0  0  0  0  0  0  0  0  0  0  0  0
   40.2880   31.6290   38.3530 C   0  0  0  0  0  0  0  0  0  0  0  0
   39.5080   31.3150   37.3440 O   0  0  0  0  0  0  0  0  0  0  0  0
   39.7310   30.5690   39.2610 C   0  0  0  0  0  3  0  0  0  0  0  0
   38.2540   30.9080   39.4360 C   0  0  0  0  0  2  0  0  0  0  0  0
   37.5370   29.8630   40.2210 C   0  0  0  0  0  2  0  0  0  0  0  0
   38.3790   29.2490   41.2860 C   0  0  0  0  0  2  0  0  0  0  0  0
   39.3700   30.3030   41.7450 C   0  0  0  0  0  2  0  0  0  0  0  0
   40.3430   30.4850   40.6060 C   0  0  0  0  0  2  0  0  0  0  0  0
  1  7  1  6  0  0  0
  1  6  1  0  0  0  0
  1  2  1  0  0  0  0
  2  8  1  6  0  0  0
  2  3  1  0  0  0  0
  2 17  1  0  0  0  0
  4 10  1  0  0  0  0
  4  3  1  0  0  0  0
  5  6  1  0  0  0  0
  5 11  1  1  0  0  0
  5  4  1  0  0  0  0
  6 12  1  1  0  0  0
  9  4  1  0  0  0  0
 13  1  1  0  0  0  0
 14 13  1  0  0  0  0
 15  5  1  0  0  0  0
 16 15  1  0  0  0  0
 17 18  1  0  0  0  0
 18 23  1  0  0  0  0
 19 18  2  0  0  0  0
 19 20  1  0  0  0  0
 20 21  2  0  0  0  0
 21 22  1  0  0  0  0
 22 25  1  0  0  0  0
 23 22  2  0  0  0  0
 24 19  1  0  0  0  0
 26 27  1  0  0  0  0
 26 20  1  0  0  0  0
 26 28  1  0  0  0  0
 27 30  1  0  0  0  0
 27 28  1  0  0  0  0
 28 33  1  0  0  0  0
 29 26  1  0  0  0  0
 31 27  1  0  0  0  0
 32 28  1  0  0  0  0
 34 35  1  0  0  0  0
 34  6  1  0  0  0  0
 35 37  1  0  0  0  0
 36 35  2  0  0  0  0
 37 38  1  0  0  0  0
 37 42  1  0  0  0  0
 38 39  1  0  0  0  0
 39 40  1  0  0  0  0
 40 41  1  0  0  0  0
 42 41  1  0  0  0  0
M  END
>  <minimizedAffinity>
-6.27207708

>  <minimizedRMSD>
1.42476237

$$$$
