
 OpenBabel03242523563D

 42 45  0  0  1  0  0  0  0  0999 V2000
   36.9250   30.6070   40.4990 C   0  0  1  0  0  0  0  0  0  0  0  0
   36.5690   30.0000   39.1470 C   0  0  1  0  0  0  0  0  0  0  0  0
   37.0890   30.8260   38.1390 O   0  0  0  0  0  0  0  0  0  0  0  0
   37.0300   32.1830   38.4720 C   0  0  0  0  0  0  0  0  0  0  0  0
   37.9910   32.5320   39.5880 C   0  0  2  0  0  0  0  0  0  0  0  0
   38.2910   31.1920   40.3440 C   0  0  1  0  0  0  0  0  0  0  0  0
   36.8790   29.8280   41.2960 H   0  0  0  0  0  0  0  0  0  0  0  0
   35.4900   29.8340   39.0140 H   0  0  0  0  0  0  0  0  0  0  0  0
   36.0030   32.5510   38.6360 H   0  0  0  0  0  0  0  0  0  0  0  0
   37.3960   32.7140   37.5710 H   0  0  0  0  0  0  0  0  0  0  0  0
   38.9440   32.9710   39.2300 H   0  0  0  0  0  0  0  0  0  0  0  0
   38.8600   30.7080   39.4840 H   0  0  0  0  0  0  0  0  0  0  0  0
   36.0020   31.5970   40.8610 O   0  0  0  0  0  0  0  0  0  0  0  0
   35.2010   31.1260   41.1920 H   0  0  0  0  0  0  0  0  0  0  0  0
   37.3510   33.3380   40.5200 O   0  0  0  0  0  0  0  0  0  0  0  0
   37.7310   33.3110   41.4200 H   0  0  0  0  0  0  0  0  0  0  0  0
   37.3340   28.8280   39.0560 O   0  0  0  0  0  0  0  0  0  0  0  0
   36.8390   27.5970   38.8860 C   0  0  0  0  0  0  0  0  0  0  0  0
   37.0810   26.5850   39.8250 C   0  0  0  0  0  0  0  0  0  0  0  0
   36.5470   25.3280   39.6050 C   0  0  0  0  0  0  0  0  0  0  0  0
   35.7910   25.1080   38.4660 N   0  0  0  0  0  0  0  0  0  0  0  0
   35.5780   26.1070   37.5820 C   0  0  0  0  0  0  0  0  0  0  0  0
   36.0990   27.3430   37.7920 N   0  0  0  0  0  0  0  0  0  0  0  0
   37.6710   26.7480   40.7170 H   0  0  0  0  0  0  0  0  0  0  0  0
   34.9920   25.9040   36.7170 H   0  0  0  0  0  0  0  0  0  0  0  0
   36.7740   24.1940   40.5510 C   0  0  0  0  0  0  0  0  0  0  0  0
   38.1450   24.1200   41.2220 C   0  0  0  0  0  0  0  0  0  0  0  0
   36.8200   24.4010   41.9620 C   0  0  0  0  0  0  0  0  0  0  0  0
   36.3990   23.2210   40.1260 H   0  0  0  0  0  0  0  0  0  0  0  0
   38.7940   24.9650   40.9960 H   0  0  0  0  0  0  0  0  0  0  0  0
   38.5450   23.1070   41.3830 H   0  0  0  0  0  0  0  0  0  0  0  0
   36.4580   23.6440   42.6800 H   0  0  0  0  0  0  0  0  0  0  0  0
   36.7640   25.4460   42.3690 H   0  0  0  0  0  0  0  0  0  0  0  0
   38.9530   31.5010   41.4750 O   0  0  0  0  0  0  0  0  0  0  0  0
   39.5990   30.6890   42.3390 C   0  0  0  0  0  0  0  0  0  0  0  0
   40.7760   31.0090   42.8250 O   0  0  0  0  0  0  0  0  0  0  0  0
   39.5170   29.3870   43.0850 C   0  0  0  0  0  3  0  0  0  0  0  0
   40.0360   28.3250   42.1210 C   0  0  0  0  0  2  0  0  0  0  0  0
   40.1300   26.9870   42.7720 C   0  0  0  0  0  2  0  0  0  0  0  0
   39.0530   26.7450   43.7730 C   0  0  0  0  0  2  0  0  0  0  0  0
   37.8310   27.5240   43.3210 C   0  0  0  0  0  2  0  0  0  0  0  0
   38.1660   28.9820   43.5290 C   0  0  0  0  0  2  0  0  0  0  0  0
  1 13  1  0  0  0  0
  1  7  1  1  0  0  0
  2  8  1  6  0  0  0
  2  1  1  0  0  0  0
  3  4  1  0  0  0  0
  3  2  1  0  0  0  0
  4  9  1  0  0  0  0
  4  5  1  0  0  0  0
  5 11  1  6  0  0  0
  5  6  1  0  0  0  0
  5 15  1  0  0  0  0
  6 12  1  6  0  0  0
  6  1  1  0  0  0  0
  6 34  1  0  0  0  0
 10  4  1  0  0  0  0
 13 14  1  0  0  0  0
 15 16  1  0  0  0  0
 17  2  1  0  0  0  0
 18 17  1  0  0  0  0
 18 19  1  0  0  0  0
 19 24  1  0  0  0  0
 20 19  2  0  0  0  0
 20 26  1  0  0  0  0
 21 20  1  0  0  0  0
 22 23  1  0  0  0  0
 22 21  2  0  0  0  0
 23 18  2  0  0  0  0
 25 22  1  0  0  0  0
 26 27  1  0  0  0  0
 26 28  1  0  0  0  0
 27 31  1  0  0  0  0
 27 28  1  0  0  0  0
 28 33  1  0  0  0  0
 28 32  1  0  0  0  0
 29 26  1  0  0  0  0
 30 27  1  0  0  0  0
 34 35  1  0  0  0  0
 35 36  2  0  0  0  0
 35 37  1  0  0  0  0
 37 42  1  0  0  0  0
 38 39  1  0  0  0  0
 38 37  1  0  0  0  0
 39 40  1  0  0  0  0
 41 42  1  0  0  0  0
 41 40  1  0  0  0  0
M  END
>  <minimizedAffinity>
-6.08977222

$$$$

 OpenBabel03242523563D

 42 45  0  0  1  0  0  0  0  0999 V2000
   37.4810   31.7860   39.7420 C   0  0  1  0  0  0  0  0  0  0  0  0
   38.0530   31.7810   38.3290 C   0  0  1  0  0  0  0  0  0  0  0  0
   39.3890   32.2090   38.3900 O   0  0  0  0  0  0  0  0  0  0  0  0
   39.5920   33.1990   39.3550 C   0  0  0  0  0  0  0  0  0  0  0  0
   39.4510   32.6550   40.7610 C   0  0  2  0  0  0  0  0  0  0  0  0
   38.5910   31.3500   40.6410 C   0  0  1  0  0  0  0  0  0  0  0  0
   36.5920   31.1160   39.8000 H   0  0  0  0  0  0  0  0  0  0  0  0
   37.4690   32.3850   37.6200 H   0  0  0  0  0  0  0  0  0  0  0  0
   39.0090   34.1190   39.1710 H   0  0  0  0  0  0  0  0  0  0  0  0
   40.6540   33.4930   39.2420 H   0  0  0  0  0  0  0  0  0  0  0  0
   40.4200   32.4120   41.2400 H   0  0  0  0  0  0  0  0  0  0  0  0
   39.3800   30.7530   40.0750 H   0  0  0  0  0  0  0  0  0  0  0  0
   37.0340   33.0670   40.0950 O   0  0  0  0  0  0  0  0  0  0  0  0
   36.1610   33.1910   39.6530 H   0  0  0  0  0  0  0  0  0  0  0  0
   38.6830   33.5250   41.5220 O   0  0  0  0  0  0  0  0  0  0  0  0
   38.2310   33.1170   42.2870 H   0  0  0  0  0  0  0  0  0  0  0  0
   38.1450   30.4270   37.9740 O   0  0  0  0  0  0  0  0  0  0  0  0
   37.1720   29.5230   38.1320 C   0  0  0  0  0  0  0  0  0  0  0  0
   37.3920   28.3450   38.8590 C   0  0  0  0  0  0  0  0  0  0  0  0
   36.3550   27.4400   38.9960 C   0  0  0  0  0  0  0  0  0  0  0  0
   35.1320   27.7240   38.4100 N   0  0  0  0  0  0  0  0  0  0  0  0
   34.9560   28.8700   37.7160 C   0  0  0  0  0  0  0  0  0  0  0  0
   35.9700   29.7620   37.5790 N   0  0  0  0  0  0  0  0  0  0  0  0
   38.3440   28.1150   39.3200 H   0  0  0  0  0  0  0  0  0  0  0  0
   34.0040   29.0570   37.2790 H   0  0  0  0  0  0  0  0  0  0  0  0
   36.5160   26.1560   39.7420 C   0  0  0  0  0  0  0  0  0  0  0  0
   36.2330   24.8690   38.9690 C   0  0  0  0  0  0  0  0  0  0  0  0
   37.6220   25.2880   39.4970 C   0  0  0  0  0  0  0  0  0  0  0  0
   36.0470   26.2100   40.7640 H   0  0  0  0  0  0  0  0  0  0  0  0
   36.0180   25.0260   37.9130 H   0  0  0  0  0  0  0  0  0  0  0  0
   35.7580   24.0600   39.5450 H   0  0  0  0  0  0  0  0  0  0  0  0
   38.0790   24.6760   40.2940 H   0  0  0  0  0  0  0  0  0  0  0  0
   38.3430   25.5320   38.6710 H   0  0  0  0  0  0  0  0  0  0  0  0
   38.2530   30.9690   41.8870 O   0  0  0  0  0  0  0  0  0  0  0  0
   38.0530   29.7280   42.3790 C   0  0  0  0  0  0  0  0  0  0  0  0
   36.9140   29.0990   42.1990 O   0  0  0  0  0  0  0  0  0  0  0  0
   38.6820   28.6050   43.1540 C   0  0  0  0  0  3  0  0  0  0  0  0
   40.1310   28.5400   42.6840 C   0  0  0  0  0  2  0  0  0  0  0  0
   40.9200   27.5430   43.4630 C   0  0  0  0  0  2  0  0  0  0  0  0
   40.1230   26.3500   43.8660 C   0  0  0  0  0  2  0  0  0  0  0  0
   39.0610   26.1350   42.8030 C   0  0  0  0  0  2  0  0  0  0  0  0
   38.0770   27.2690   42.9620 C   0  0  0  0  0  2  0  0  0  0  0  0
  1  7  1  1  0  0  0
  1 13  1  0  0  0  0
  1  6  1  0  0  0  0
  2  8  1  6  0  0  0
  2  3  1  0  0  0  0
  2  1  1  0  0  0  0
  3  4  1  0  0  0  0
  4  5  1  0  0  0  0
  5 11  1  1  0  0  0
  5 15  1  0  0  0  0
  6 12  1  6  0  0  0
  6  5  1  0  0  0  0
  6 34  1  0  0  0  0
  9  4  1  0  0  0  0
 10  4  1  0  0  0  0
 14 13  1  0  0  0  0
 15 16  1  0  0  0  0
 17 18  1  0  0  0  0
 17  2  1  0  0  0  0
 18 19  1  0  0  0  0
 19 20  2  0  0  0  0
 19 24  1  0  0  0  0
 20 26  1  0  0  0  0
 21 20  1  0  0  0  0
 22 21  2  0  0  0  0
 23 22  1  0  0  0  0
 23 18  2  0  0  0  0
 25 22  1  0  0  0  0
 26 29  1  0  0  0  0
 27 28  1  0  0  0  0
 27 31  1  0  0  0  0
 27 26  1  0  0  0  0
 28 26  1  0  0  0  0
 28 32  1  0  0  0  0
 30 27  1  0  0  0  0
 33 28  1  0  0  0  0
 34 35  1  0  0  0  0
 35 37  1  0  0  0  0
 36 35  2  0  0  0  0
 38 37  1  0  0  0  0
 38 39  1  0  0  0  0
 39 40  1  0  0  0  0
 41 42  1  0  0  0  0
 41 40  1  0  0  0  0
 42 37  1  0  0  0  0
M  END
>  <minimizedAffinity>
-6.02564287

$$$$

 OpenBabel03242523563D

 42 45  0  0  1  0  0  0  0  0999 V2000
   37.8140   29.2040   42.6280 C   0  0  1  0  0  0  0  0  0  0  0  0
   39.3000   28.9160   42.8140 C   0  0  1  0  0  0  0  0  0  0  0  0
   39.4610   27.5370   43.0210 O   0  0  0  0  0  0  0  0  0  0  0  0
   38.4170   26.9790   43.7640 C   0  0  0  0  0  0  0  0  0  0  0  0
   37.1190   26.9540   42.9840 C   0  0  2  0  0  0  0  0  0  0  0  0
   37.2580   28.0450   41.8670 C   0  0  1  0  0  0  0  0  0  0  0  0
   37.6730   30.1740   42.0970 H   0  0  0  0  0  0  0  0  0  0  0  0
   39.7600   29.5010   43.6230 H   0  0  0  0  0  0  0  0  0  0  0  0
   38.3200   27.4070   44.7770 H   0  0  0  0  0  0  0  0  0  0  0  0
   38.7080   25.9210   43.9150 H   0  0  0  0  0  0  0  0  0  0  0  0
   36.9060   25.9740   42.5120 H   0  0  0  0  0  0  0  0  0  0  0  0
   38.0690   27.4990   41.2820 H   0  0  0  0  0  0  0  0  0  0  0  0
   37.1720   29.3350   43.8670 O   0  0  0  0  0  0  0  0  0  0  0  0
   37.3890   30.2370   44.2010 H   0  0  0  0  0  0  0  0  0  0  0  0
   36.0810   27.3940   43.7920 O   0  0  0  0  0  0  0  0  0  0  0  0
   35.3120   27.7630   43.3130 H   0  0  0  0  0  0  0  0  0  0  0  0
   39.8790   29.1420   41.5560 O   0  0  0  0  0  0  0  0  0  0  0  0
   40.6570   30.1830   41.2430 C   0  0  0  0  0  0  0  0  0  0  0  0
   40.8990   30.5290   39.9060 C   0  0  0  0  0  0  0  0  0  0  0  0
   41.7100   31.6150   39.6330 C   0  0  0  0  0  0  0  0  0  0  0  0
   42.2580   32.3280   40.6860 N   0  0  0  0  0  0  0  0  0  0  0  0
   42.0040   31.9660   41.9630 C   0  0  0  0  0  0  0  0  0  0  0  0
   41.2080   30.9010   42.2370 N   0  0  0  0  0  0  0  0  0  0  0  0
   40.4740   29.9780   39.0780 H   0  0  0  0  0  0  0  0  0  0  0  0
   42.4410   32.5350   42.7490 H   0  0  0  0  0  0  0  0  0  0  0  0
   42.0270   32.0350   38.2350 C   0  0  0  0  0  0  0  0  0  0  0  0
   41.6570   31.0570   37.1200 C   0  0  0  0  0  0  0  0  0  0  0  0
   41.0010   32.4390   37.3280 C   0  0  0  0  0  0  0  0  0  0  0  0
   43.0620   32.4720   38.1600 H   0  0  0  0  0  0  0  0  0  0  0  0
   41.1170   30.1770   37.4660 H   0  0  0  0  0  0  0  0  0  0  0  0
   42.3550   31.0140   36.2700 H   0  0  0  0  0  0  0  0  0  0  0  0
   41.1670   33.2120   36.5580 H   0  0  0  0  0  0  0  0  0  0  0  0
   39.9260   32.3650   37.6440 H   0  0  0  0  0  0  0  0  0  0  0  0
   36.0460   28.2100   41.3050 O   0  0  0  0  0  0  0  0  0  0  0  0
   35.6110   29.1840   40.4780 C   0  0  0  0  0  0  0  0  0  0  0  0
   34.3790   29.1920   40.0230 O   0  0  0  0  0  0  0  0  0  0  0  0
   36.0050   30.4450   39.7620 C   0  0  0  0  0  3  0  0  0  0  0  0
   37.1310   30.0480   38.8150 C   0  0  0  0  0  2  0  0  0  0  0  0
   37.5440   31.1830   37.9410 C   0  0  0  0  0  2  0  0  0  0  0  0
   37.4580   32.5070   38.6190 C   0  0  0  0  0  2  0  0  0  0  0  0
   37.7100   32.2750   40.0980 C   0  0  0  0  0  2  0  0  0  0  0  0
   36.4930   31.5480   40.6190 C   0  0  0  0  0  2  0  0  0  0  0  0
  1  7  1  6  0  0  0
  1  2  1  0  0  0  0
  1 13  1  0  0  0  0
  2  3  1  0  0  0  0
  2  8  1  1  0  0  0
  3  4  1  0  0  0  0
  4 10  1  0  0  0  0
  4  9  1  0  0  0  0
  5 11  1  6  0  0  0
  5  4  1  0  0  0  0
  5 15  1  0  0  0  0
  6 12  1  6  0  0  0
  6  1  1  0  0  0  0
  6  5  1  0  0  0  0
 13 14  1  0  0  0  0
 16 15  1  0  0  0  0
 17  2  1  0  0  0  0
 18 17  1  0  0  0  0
 18 23  1  0  0  0  0
 19 18  2  0  0  0  0
 20 19  1  0  0  0  0
 20 21  2  0  0  0  0
 21 22  1  0  0  0  0
 22 23  2  0  0  0  0
 22 25  1  0  0  0  0
 24 19  1  0  0  0  0
 26 20  1  0  0  0  0
 27 28  1  0  0  0  0
 27 30  1  0  0  0  0
 27 26  1  0  0  0  0
 28 33  1  0  0  0  0
 28 26  1  0  0  0  0
 29 26  1  0  0  0  0
 31 27  1  0  0  0  0
 32 28  1  0  0  0  0
 34  6  1  0  0  0  0
 35 34  1  0  0  0  0
 36 35  2  0  0  0  0
 37 35  1  0  0  0  0
 37 42  1  0  0  0  0
 38 37  1  0  0  0  0
 39 40  1  0  0  0  0
 39 38  1  0  0  0  0
 40 41  1  0  0  0  0
 41 42  1  0  0  0  0
M  END
>  <minimizedAffinity>
-6.00961113

$$$$

 OpenBabel03242523563D

 42 45  0  0  1  0  0  0  0  0999 V2000
   35.7930   28.6950   40.2750 C   0  0  1  0  0  0  0  0  0  0  0  0
   36.1470   28.6650   38.7930 C   0  0  1  0  0  0  0  0  0  0  0  0
   36.8900   29.8180   38.4920 O   0  0  0  0  0  0  0  0  0  0  0  0
   36.4610   30.9370   39.2110 C   0  0  0  0  0  0  0  0  0  0  0  0
   36.7890   30.8200   40.6850 C   0  0  2  0  0  0  0  0  0  0  0  0
   36.9720   29.2890   40.9730 C   0  0  1  0  0  0  0  0  0  0  0  0
   35.5530   27.6670   40.6350 H   0  0  0  0  0  0  0  0  0  0  0  0
   35.2710   28.5680   38.1360 H   0  0  0  0  0  0  0  0  0  0  0  0
   35.4130   31.2150   39.0080 H   0  0  0  0  0  0  0  0  0  0  0  0
   37.0720   31.7760   38.8240 H   0  0  0  0  0  0  0  0  0  0  0  0
   37.7110   31.3600   40.9780 H   0  0  0  0  0  0  0  0  0  0  0  0
   37.9240   29.1770   40.3570 H   0  0  0  0  0  0  0  0  0  0  0  0
   34.6450   29.4690   40.4990 O   0  0  0  0  0  0  0  0  0  0  0  0
   33.8750   28.9090   40.2420 H   0  0  0  0  0  0  0  0  0  0  0  0
   35.6870   31.2000   41.4390 O   0  0  0  0  0  0  0  0  0  0  0  0
   35.6530   30.8220   42.3400 H   0  0  0  0  0  0  0  0  0  0  0  0
   37.0710   27.6190   38.6570 O   0  0  0  0  0  0  0  0  0  0  0  0
   36.7620   26.3540   38.3530 C   0  0  0  0  0  0  0  0  0  0  0  0
   37.5670   25.2900   38.7840 C   0  0  0  0  0  0  0  0  0  0  0  0
   37.2050   23.9980   38.4460 C   0  0  0  0  0  0  0  0  0  0  0  0
   36.0610   23.7950   37.6920 N   0  0  0  0  0  0  0  0  0  0  0  0
   35.3090   24.8450   37.2940 C   0  0  0  0  0  0  0  0  0  0  0  0
   35.6590   26.1150   37.6230 N   0  0  0  0  0  0  0  0  0  0  0  0
   38.4620   25.4390   39.3730 H   0  0  0  0  0  0  0  0  0  0  0  0
   34.4370   24.6540   36.7160 H   0  0  0  0  0  0  0  0  0  0  0  0
   38.0200   22.8150   38.8540 C   0  0  0  0  0  0  0  0  0  0  0  0
   37.9770   22.4240   40.3310 C   0  0  0  0  0  0  0  0  0  0  0  0
   37.4080   21.5670   39.1800 C   0  0  0  0  0  0  0  0  0  0  0  0
   39.0500   22.8460   38.4010 H   0  0  0  0  0  0  0  0  0  0  0  0
   37.2790   23.0130   40.9240 H   0  0  0  0  0  0  0  0  0  0  0  0
   38.9200   22.0420   40.7530 H   0  0  0  0  0  0  0  0  0  0  0  0
   37.8940   20.5990   38.9650 H   0  0  0  0  0  0  0  0  0  0  0  0
   36.2880   21.4930   39.2080 H   0  0  0  0  0  0  0  0  0  0  0  0
   37.0340   29.1310   42.3080 O   0  0  0  0  0  0  0  0  0  0  0  0
   37.1830   28.0000   43.0300 C   0  0  0  0  0  0  0  0  0  0  0  0
   36.2540   27.5970   43.8660 O   0  0  0  0  0  0  0  0  0  0  0  0
   38.0990   26.8420   43.3130 C   0  0  0  0  0  3  0  0  0  0  0  0
   39.4930   27.4440   43.4550 C   0  0  0  0  0  2  0  0  0  0  0  0
   40.4970   26.4200   43.8630 C   0  0  0  0  0  2  0  0  0  0  0  0
   40.2300   25.0730   43.2850 C   0  0  0  0  0  2  0  0  0  0  0  0
   39.5400   25.2830   41.9490 C   0  0  0  0  0  2  0  0  0  0  0  0
   38.1560   25.7940   42.2700 C   0  0  0  0  0  2  0  0  0  0  0  0
  1 13  1  0  0  0  0
  1  7  1  1  0  0  0
  1  6  1  0  0  0  0
  2  8  1  6  0  0  0
  2  1  1  0  0  0  0
  3  2  1  0  0  0  0
  3  4  1  0  0  0  0
  4  5  1  0  0  0  0
  5  6  1  0  0  0  0
  5 11  1  1  0  0  0
  5 15  1  0  0  0  0
  6 12  1  6  0  0  0
  6 34  1  0  0  0  0
  9  4  1  0  0  0  0
 10  4  1  0  0  0  0
 14 13  1  0  0  0  0
 15 16  1  0  0  0  0
 17  2  1  0  0  0  0
 18 17  1  0  0  0  0
 18 19  1  0  0  0  0
 19 24  1  0  0  0  0
 20 19  2  0  0  0  0
 20 26  1  0  0  0  0
 21 20  1  0  0  0  0
 22 23  1  0  0  0  0
 22 21  2  0  0  0  0
 23 18  2  0  0  0  0
 25 22  1  0  0  0  0
 26 28  1  0  0  0  0
 26 27  1  0  0  0  0
 27 31  1  0  0  0  0
 27 30  1  0  0  0  0
 28 33  1  0  0  0  0
 28 27  1  0  0  0  0
 29 26  1  0  0  0  0
 32 28  1  0  0  0  0
 34 35  1  0  0  0  0
 35 37  1  0  0  0  0
 35 36  2  0  0  0  0
 37 38  1  0  0  0  0
 38 39  1  0  0  0  0
 40 39  1  0  0  0  0
 41 42  1  0  0  0  0
 41 40  1  0  0  0  0
 42 37  1  0  0  0  0
M  END
>  <minimizedAffinity>
-5.99555063

$$$$

 OpenBabel03242523563D

 42 45  0  0  1  0  0  0  0  0999 V2000
   37.5220   31.4430   40.0780 C   0  0  1  0  0  0  0  0  0  0  0  0
   37.7950   31.5160   38.5800 C   0  0  1  0  0  0  0  0  0  0  0  0
   39.0290   32.1560   38.3850 O   0  0  0  0  0  0  0  0  0  0  0  0
   39.2570   33.1770   39.3120 C   0  0  0  0  0  0  0  0  0  0  0  0
   39.4880   32.6320   40.7060 C   0  0  2  0  0  0  0  0  0  0  0  0
   38.8450   31.2030   40.7300 C   0  0  1  0  0  0  0  0  0  0  0  0
   36.7830   30.6370   40.2960 H   0  0  0  0  0  0  0  0  0  0  0  0
   36.9930   32.0080   38.0130 H   0  0  0  0  0  0  0  0  0  0  0  0
   38.5090   33.9870   39.2680 H   0  0  0  0  0  0  0  0  0  0  0  0
   40.2140   33.6390   38.9980 H   0  0  0  0  0  0  0  0  0  0  0  0
   40.5590   32.5550   40.9790 H   0  0  0  0  0  0  0  0  0  0  0  0
   39.5910   30.7360   40.0060 H   0  0  0  0  0  0  0  0  0  0  0  0
   36.9530   32.6370   40.5400 O   0  0  0  0  0  0  0  0  0  0  0  0
   36.0010   32.6120   40.2830 H   0  0  0  0  0  0  0  0  0  0  0  0
   38.7550   33.3740   41.6230 O   0  0  0  0  0  0  0  0  0  0  0  0
   38.5370   32.9040   42.4530 H   0  0  0  0  0  0  0  0  0  0  0  0
   38.0330   30.1910   38.1840 O   0  0  0  0  0  0  0  0  0  0  0  0
   37.1340   29.2020   38.2290 C   0  0  0  0  0  0  0  0  0  0  0  0
   35.9780   29.2380   37.4370 C   0  0  0  0  0  0  0  0  0  0  0  0
   35.0790   28.1910   37.5170 C   0  0  0  0  0  0  0  0  0  0  0  0
   35.3460   27.1390   38.3780 N   0  0  0  0  0  0  0  0  0  0  0  0
   36.4700   27.1370   39.1270 C   0  0  0  0  0  0  0  0  0  0  0  0
   37.3570   28.1630   39.0520 N   0  0  0  0  0  0  0  0  0  0  0  0
   35.7610   30.0560   36.7620 H   0  0  0  0  0  0  0  0  0  0  0  0
   36.6460   26.3130   39.7780 H   0  0  0  0  0  0  0  0  0  0  0  0
   33.8170   28.1660   36.7180 C   0  0  0  0  0  0  0  0  0  0  0  0
   32.7290   29.1620   37.1150 C   0  0  0  0  0  0  0  0  0  0  0  0
   33.5080   29.2000   35.7840 C   0  0  0  0  0  0  0  0  0  0  0  0
   33.4590   27.1130   36.5450 H   0  0  0  0  0  0  0  0  0  0  0  0
   33.0270   29.8510   37.9040 H   0  0  0  0  0  0  0  0  0  0  0  0
   31.6930   28.8020   37.0200 H   0  0  0  0  0  0  0  0  0  0  0  0
   32.9510   29.0040   34.8510 H   0  0  0  0  0  0  0  0  0  0  0  0
   34.1860   30.0920   35.7050 H   0  0  0  0  0  0  0  0  0  0  0  0
   38.8260   30.7860   42.0090 O   0  0  0  0  0  0  0  0  0  0  0  0
   38.6760   29.5370   42.5010 C   0  0  0  0  0  0  0  0  0  0  0  0
   37.8760   29.2950   43.5140 O   0  0  0  0  0  0  0  0  0  0  0  0
   39.1020   28.1040   42.3470 C   0  0  0  0  0  3  0  0  0  0  0  0
   37.8590   27.2700   42.6380 C   0  0  0  0  0  2  0  0  0  0  0  0
   38.1010   25.8180   42.4010 C   0  0  0  0  0  2  0  0  0  0  0  0
   39.4870   25.3900   42.7430 C   0  0  0  0  0  2  0  0  0  0  0  0
   39.9730   26.2870   43.8670 C   0  0  0  0  0  2  0  0  0  0  0  0
   40.1810   27.6500   43.2520 C   0  0  0  0  0  2  0  0  0  0  0  0
  1  7  1  1  0  0  0
  1 13  1  0  0  0  0
  1  6  1  0  0  0  0
  2  8  1  6  0  0  0
  2  1  1  0  0  0  0
  3  2  1  0  0  0  0
  3  4  1  0  0  0  0
  4  5  1  0  0  0  0
  5  6  1  0  0  0  0
  5 11  1  1  0  0  0
  5 15  1  0  0  0  0
  6 12  1  6  0  0  0
  6 34  1  0  0  0  0
  9  4  1  0  0  0  0
 10  4  1  0  0  0  0
 14 13  1  0  0  0  0
 15 16  1  0  0  0  0
 17 18  1  0  0  0  0
 17  2  1  0  0  0  0
 18 23  1  0  0  0  0
 19 20  1  0  0  0  0
 19 18  2  0  0  0  0
 20 21  2  0  0  0  0
 21 22  1  0  0  0  0
 22 25  1  0  0  0  0
 23 22  2  0  0  0  0
 24 19  1  0  0  0  0
 26 27  1  0  0  0  0
 26 20  1  0  0  0  0
 27 30  1  0  0  0  0
 28 26  1  0  0  0  0
 28 27  1  0  0  0  0
 29 26  1  0  0  0  0
 31 27  1  0  0  0  0
 32 28  1  0  0  0  0
 33 28  1  0  0  0  0
 34 35  1  0  0  0  0
 35 36  2  0  0  0  0
 37 35  1  0  0  0  0
 37 38  1  0  0  0  0
 37 42  1  0  0  0  0
 39 38  1  0  0  0  0
 39 40  1  0  0  0  0
 40 41  1  0  0  0  0
 42 41  1  0  0  0  0
M  END
>  <minimizedAffinity>
-5.98914671

$$$$

 OpenBabel03242523563D

 42 45  0  0  1  0  0  0  0  0999 V2000
   37.5790   29.4370   42.3730 C   0  0  1  0  0  0  0  0  0  0  0  0
   39.0810   29.6120   42.5690 C   0  0  1  0  0  0  0  0  0  0  0  0
   39.6620   28.3410   42.7020 O   0  0  0  0  0  0  0  0  0  0  0  0
   38.8420   27.4450   43.3930 C   0  0  0  0  0  0  0  0  0  0  0  0
   37.6160   27.0650   42.5890 C   0  0  2  0  0  0  0  0  0  0  0  0
   37.4090   28.2100   41.5380 C   0  0  1  0  0  0  0  0  0  0  0  0
   37.1440   30.3460   41.8950 H   0  0  0  0  0  0  0  0  0  0  0  0
   39.3370   30.2620   43.4180 H   0  0  0  0  0  0  0  0  0  0  0  0
   38.6170   27.7610   44.4270 H   0  0  0  0  0  0  0  0  0  0  0  0
   39.4460   26.5220   43.4900 H   0  0  0  0  0  0  0  0  0  0  0  0
   37.7160   26.0970   42.0600 H   0  0  0  0  0  0  0  0  0  0  0  0
   38.3500   27.9770   40.9390 H   0  0  0  0  0  0  0  0  0  0  0  0
   36.9280   29.2900   43.6060 O   0  0  0  0  0  0  0  0  0  0  0  0
   36.8550   30.1930   43.9940 H   0  0  0  0  0  0  0  0  0  0  0  0
   36.4920   27.1140   43.4020 O   0  0  0  0  0  0  0  0  0  0  0  0
   35.6470   27.2550   42.9310 H   0  0  0  0  0  0  0  0  0  0  0  0
   39.5610   30.0800   41.3370 O   0  0  0  0  0  0  0  0  0  0  0  0
   39.9270   31.3410   41.0830 C   0  0  0  0  0  0  0  0  0  0  0  0
   41.2720   31.7310   41.1560 C   0  0  0  0  0  0  0  0  0  0  0  0
   41.6020   33.0460   40.8830 C   0  0  0  0  0  0  0  0  0  0  0  0
   40.5960   33.9360   40.5460 N   0  0  0  0  0  0  0  0  0  0  0  0
   39.3100   33.5250   40.4850 C   0  0  0  0  0  0  0  0  0  0  0  0
   38.9810   32.2350   40.7520 N   0  0  0  0  0  0  0  0  0  0  0  0
   42.0640   31.0420   41.4190 H   0  0  0  0  0  0  0  0  0  0  0  0
   38.5620   34.2350   40.2230 H   0  0  0  0  0  0  0  0  0  0  0  0
   43.0100   33.5410   40.9570 C   0  0  0  0  0  0  0  0  0  0  0  0
   43.3340   34.5330   42.0720 C   0  0  0  0  0  0  0  0  0  0  0  0
   43.9000   33.1010   41.9810 C   0  0  0  0  0  0  0  0  0  0  0  0
   43.4010   33.8240   39.9400 H   0  0  0  0  0  0  0  0  0  0  0  0
   42.5070   34.7150   42.7570 H   0  0  0  0  0  0  0  0  0  0  0  0
   44.0590   35.3210   41.8160 H   0  0  0  0  0  0  0  0  0  0  0  0
   44.9840   32.9820   41.8080 H   0  0  0  0  0  0  0  0  0  0  0  0
   43.5160   32.4300   42.7950 H   0  0  0  0  0  0  0  0  0  0  0  0
   36.2060   28.0250   40.9650 O   0  0  0  0  0  0  0  0  0  0  0  0
   35.5920   28.7520   40.0080 C   0  0  0  0  0  0  0  0  0  0  0  0
   34.3720   29.2090   40.1760 O   0  0  0  0  0  0  0  0  0  0  0  0
   35.7470   29.3450   38.6350 C   0  0  0  0  0  3  0  0  0  0  0  0
   36.1280   28.1830   37.7240 C   0  0  0  0  0  2  0  0  0  0  0  0
   36.1960   28.6010   36.2950 C   0  0  0  0  0  2  0  0  0  0  0  0
   36.6920   29.9950   36.1140 C   0  0  0  0  0  2  0  0  0  0  0  0
   37.6410   30.2890   37.2610 C   0  0  0  0  0  2  0  0  0  0  0  0
   36.7820   30.3930   38.4980 C   0  0  0  0  0  2  0  0  0  0  0  0
  1  7  1  6  0  0  0
  1  2  1  0  0  0  0
  1 13  1  0  0  0  0
  2  3  1  0  0  0  0
  2  8  1  1  0  0  0
  3  4  1  0  0  0  0
  4 10  1  0  0  0  0
  4  9  1  0  0  0  0
  5 11  1  6  0  0  0
  5  4  1  0  0  0  0
  5 15  1  0  0  0  0
  6 12  1  6  0  0  0
  6  1  1  0  0  0  0
  6  5  1  0  0  0  0
 13 14  1  0  0  0  0
 16 15  1  0  0  0  0
 17  2  1  0  0  0  0
 18 19  1  0  0  0  0
 18 17  1  0  0  0  0
 19 24  1  0  0  0  0
 20 26  1  0  0  0  0
 20 19  2  0  0  0  0
 21 20  1  0  0  0  0
 22 21  2  0  0  0  0
 22 23  1  0  0  0  0
 23 18  2  0  0  0  0
 25 22  1  0  0  0  0
 26 28  1  0  0  0  0
 26 27  1  0  0  0  0
 27 30  1  0  0  0  0
 28 27  1  0  0  0  0
 28 33  1  0  0  0  0
 29 26  1  0  0  0  0
 31 27  1  0  0  0  0
 32 28  1  0  0  0  0
 34  6  1  0  0  0  0
 35 36  2  0  0  0  0
 35 34  1  0  0  0  0
 37 35  1  0  0  0  0
 38 37  1  0  0  0  0
 39 38  1  0  0  0  0
 40 39  1  0  0  0  0
 40 41  1  0  0  0  0
 41 42  1  0  0  0  0
 42 37  1  0  0  0  0
M  END
>  <minimizedAffinity>
-5.89335918

$$$$

 OpenBabel03242523563D

 42 45  0  0  1  0  0  0  0  0999 V2000
   38.7690   31.5210   40.0360 C   0  0  1  0  0  0  0  0  0  0  0  0
   39.7590   32.2340   40.9500 C   0  0  1  0  0  0  0  0  0  0  0  0
   39.3220   33.5560   41.1310 O   0  0  0  0  0  0  0  0  0  0  0  0
   38.7350   34.0900   39.9810 C   0  0  0  0  0  0  0  0  0  0  0  0
   37.4030   33.4380   39.6720 C   0  0  2  0  0  0  0  0  0  0  0  0
   37.4180   32.0470   40.3960 C   0  0  1  0  0  0  0  0  0  0  0  0
   38.8500   30.4160   40.1680 H   0  0  0  0  0  0  0  0  0  0  0  0
   40.7950   32.1990   40.5840 H   0  0  0  0  0  0  0  0  0  0  0  0
   39.4200   34.1350   39.1170 H   0  0  0  0  0  0  0  0  0  0  0  0
   38.5110   35.1440   40.2380 H   0  0  0  0  0  0  0  0  0  0  0  0
   36.5310   34.0240   40.0250 H   0  0  0  0  0  0  0  0  0  0  0  0
   37.4020   32.4750   41.4510 H   0  0  0  0  0  0  0  0  0  0  0  0
   39.0580   31.7790   38.6890 O   0  0  0  0  0  0  0  0  0  0  0  0
   39.8210   31.2020   38.4500 H   0  0  0  0  0  0  0  0  0  0  0  0
   37.3330   33.1400   38.3180 O   0  0  0  0  0  0  0  0  0  0  0  0
   36.7190   32.4150   38.0860 H   0  0  0  0  0  0  0  0  0  0  0  0
   39.5880   31.6430   42.2110 O   0  0  0  0  0  0  0  0  0  0  0  0
   39.8120   30.3550   42.4940 C   0  0  0  0  0  0  0  0  0  0  0  0
   38.7590   29.4970   42.8390 C   0  0  0  0  0  0  0  0  0  0  0  0
   39.0400   28.1730   43.1230 C   0  0  0  0  0  0  0  0  0  0  0  0
   40.3530   27.7360   43.0570 N   0  0  0  0  0  0  0  0  0  0  0  0
   41.3440   28.5900   42.7210 C   0  0  0  0  0  0  0  0  0  0  0  0
   41.0730   29.8920   42.4410 N   0  0  0  0  0  0  0  0  0  0  0  0
   37.7310   29.8310   42.8940 H   0  0  0  0  0  0  0  0  0  0  0  0
   42.3410   28.2220   42.6790 H   0  0  0  0  0  0  0  0  0  0  0  0
   37.9750   27.2030   43.5140 C   0  0  0  0  0  0  0  0  0  0  0  0
   36.5440   27.5470   43.1040 C   0  0  0  0  0  0  0  0  0  0  0  0
   37.3510   26.3540   42.5520 C   0  0  0  0  0  0  0  0  0  0  0  0
   38.0960   26.8660   44.5820 H   0  0  0  0  0  0  0  0  0  0  0  0
   36.4630   28.4410   42.4880 H   0  0  0  0  0  0  0  0  0  0  0  0
   35.7590   27.2650   43.8230 H   0  0  0  0  0  0  0  0  0  0  0  0
   37.0060   25.3350   42.8000 H   0  0  0  0  0  0  0  0  0  0  0  0
   37.6070   26.4710   41.4650 H   0  0  0  0  0  0  0  0  0  0  0  0
   36.3550   31.3480   39.9570 O   0  0  0  0  0  0  0  0  0  0  0  0
   36.3190   30.1940   39.2560 C   0  0  0  0  0  0  0  0  0  0  0  0
   36.4230   30.1880   37.9470 O   0  0  0  0  0  0  0  0  0  0  0  0
   36.1950   28.7010   39.3670 C   0  0  0  0  0  3  0  0  0  0  0  0
   37.5270   28.1380   38.8820 C   0  0  0  0  0  2  0  0  0  0  0  0
   37.5960   26.6590   39.0520 C   0  0  0  0  0  2  0  0  0  0  0  0
   36.2850   25.9820   38.8470 C   0  0  0  0  0  2  0  0  0  0  0  0
   35.5000   26.8100   37.8470 C   0  0  0  0  0  2  0  0  0  0  0  0
   35.1160   28.0810   38.5670 C   0  0  0  0  0  2  0  0  0  0  0  0
  1  7  1  1  0  0  0
  1  6  1  0  0  0  0
  1  2  1  0  0  0  0
  2  8  1  6  0  0  0
  2  3  1  0  0  0  0
  2 17  1  0  0  0  0
  4 10  1  0  0  0  0
  4  3  1  0  0  0  0
  5  4  1  0  0  0  0
  5 11  1  1  0  0  0
  5  6  1  0  0  0  0
  6 12  1  1  0  0  0
  9  4  1  0  0  0  0
 13  1  1  0  0  0  0
 14 13  1  0  0  0  0
 15  5  1  0  0  0  0
 16 15  1  0  0  0  0
 17 18  1  0  0  0  0
 18 19  1  0  0  0  0
 19 24  1  0  0  0  0
 19 20  2  0  0  0  0
 20 26  1  0  0  0  0
 21 20  1  0  0  0  0
 22 21  2  0  0  0  0
 23 18  2  0  0  0  0
 23 22  1  0  0  0  0
 25 22  1  0  0  0  0
 26 29  1  0  0  0  0
 27 26  1  0  0  0  0
 27 31  1  0  0  0  0
 28 32  1  0  0  0  0
 28 27  1  0  0  0  0
 28 26  1  0  0  0  0
 30 27  1  0  0  0  0
 33 28  1  0  0  0  0
 34  6  1  0  0  0  0
 35 37  1  0  0  0  0
 35 34  1  0  0  0  0
 36 35  2  0  0  0  0
 38 39  1  0  0  0  0
 38 37  1  0  0  0  0
 40 39  1  0  0  0  0
 41 42  1  0  0  0  0
 41 40  1  0  0  0  0
 42 37  1  0  0  0  0
M  END
>  <minimizedAffinity>
-5.89130926

$$$$

 OpenBabel03242523563D

 42 45  0  0  1  0  0  0  0  0999 V2000
   38.0040   32.0810   39.0990 C   0  0  1  0  0  0  0  0  0  0  0  0
   37.5900   30.6660   39.4850 C   0  0  1  0  0  0  0  0  0  0  0  0
   38.4850   29.7640   38.8860 O   0  0  0  0  0  0  0  0  0  0  0  0
   38.9010   30.1820   37.6190 C   0  0  0  0  0  0  0  0  0  0  0  0
   39.8010   31.3980   37.6930 C   0  0  2  0  0  0  0  0  0  0  0  0
   39.4980   32.0840   39.0700 C   0  0  1  0  0  0  0  0  0  0  0  0
   37.5870   32.8160   39.8270 H   0  0  0  0  0  0  0  0  0  0  0  0
   36.5480   30.4300   39.2260 H   0  0  0  0  0  0  0  0  0  0  0  0
   38.0750   30.2820   36.8950 H   0  0  0  0  0  0  0  0  0  0  0  0
   39.5310   29.3540   37.2390 H   0  0  0  0  0  0  0  0  0  0  0  0
   40.8800   31.1540   37.6370 H   0  0  0  0  0  0  0  0  0  0  0  0
   39.9320   31.2460   39.7060 H   0  0  0  0  0  0  0  0  0  0  0  0
   37.4840   32.4290   37.8450 O   0  0  0  0  0  0  0  0  0  0  0  0
   36.5360   32.6580   37.9880 H   0  0  0  0  0  0  0  0  0  0  0  0
   39.4130   32.3240   36.7340 O   0  0  0  0  0  0  0  0  0  0  0  0
   39.6590   33.2490   36.9300 H   0  0  0  0  0  0  0  0  0  0  0  0
   37.8680   30.5620   40.8560 O   0  0  0  0  0  0  0  0  0  0  0  0
   37.7210   29.4520   41.5880 C   0  0  0  0  0  0  0  0  0  0  0  0
   38.7910   28.9260   42.3250 C   0  0  0  0  0  0  0  0  0  0  0  0
   38.5900   27.7780   43.0690 C   0  0  0  0  0  0  0  0  0  0  0  0
   37.3400   27.1820   43.0620 N   0  0  0  0  0  0  0  0  0  0  0  0
   36.3310   27.7160   42.3400 C   0  0  0  0  0  0  0  0  0  0  0  0
   36.5230   28.8440   41.6090 N   0  0  0  0  0  0  0  0  0  0  0  0
   39.7710   29.3850   42.3360 H   0  0  0  0  0  0  0  0  0  0  0  0
   35.3830   27.2340   42.3570 H   0  0  0  0  0  0  0  0  0  0  0  0
   39.6850   27.1480   43.8670 C   0  0  0  0  0  0  0  0  0  0  0  0
   40.1090   25.7360   43.4630 C   0  0  0  0  0  0  0  0  0  0  0  0
   40.9990   26.9900   43.3320 C   0  0  0  0  0  0  0  0  0  0  0  0
   39.5320   27.3010   44.9710 H   0  0  0  0  0  0  0  0  0  0  0  0
   39.6120   25.3650   42.5680 H   0  0  0  0  0  0  0  0  0  0  0  0
   40.3930   25.0670   44.2900 H   0  0  0  0  0  0  0  0  0  0  0  0
   41.9030   27.0520   43.9620 H   0  0  0  0  0  0  0  0  0  0  0  0
   41.1960   27.2710   42.2620 H   0  0  0  0  0  0  0  0  0  0  0  0
   40.1050   33.2860   39.0680 O   0  0  0  0  0  0  0  0  0  0  0  0
   41.3060   33.6380   39.5720 C   0  0  0  0  0  0  0  0  0  0  0  0
   41.5400   33.6090   40.8640 O   0  0  0  0  0  0  0  0  0  0  0  0
   42.6870   34.1160   39.2190 C   0  0  0  0  0  3  0  0  0  0  0  0
   43.2170   33.1220   38.1900 C   0  0  0  0  0  2  0  0  0  0  0  0
   44.5420   33.5410   37.6500 C   0  0  0  0  0  2  0  0  0  0  0  0
   45.3970   34.2260   38.6600 C   0  0  0  0  0  2  0  0  0  0  0  0
   45.0360   33.6570   40.0200 C   0  0  0  0  0  2  0  0  0  0  0  0
   43.6540   34.1790   40.3360 C   0  0  0  0  0  2  0  0  0  0  0  0
  1  2  1  0  0  0  0
  1  7  1  1  0  0  0
  2  8  1  6  0  0  0
  2 17  1  0  0  0  0
  3  2  1  0  0  0  0
  4  5  1  0  0  0  0
  4  3  1  0  0  0  0
  5 11  1  6  0  0  0
  5  6  1  0  0  0  0
  6  1  1  0  0  0  0
  6 12  1  1  0  0  0
  9  4  1  0  0  0  0
 10  4  1  0  0  0  0
 13 14  1  0  0  0  0
 13  1  1  0  0  0  0
 15 16  1  0  0  0  0
 15  5  1  0  0  0  0
 17 18  1  0  0  0  0
 18 23  2  0  0  0  0
 18 19  1  0  0  0  0
 19 24  1  0  0  0  0
 19 20  2  0  0  0  0
 20 26  1  0  0  0  0
 21 20  1  0  0  0  0
 22 25  1  0  0  0  0
 22 21  2  0  0  0  0
 23 22  1  0  0  0  0
 26 29  1  0  0  0  0
 27 26  1  0  0  0  0
 27 31  1  0  0  0  0
 28 27  1  0  0  0  0
 28 26  1  0  0  0  0
 28 32  1  0  0  0  0
 30 27  1  0  0  0  0
 33 28  1  0  0  0  0
 34  6  1  0  0  0  0
 34 35  1  0  0  0  0
 35 36  2  0  0  0  0
 37 35  1  0  0  0  0
 37 42  1  0  0  0  0
 38 37  1  0  0  0  0
 39 38  1  0  0  0  0
 39 40  1  0  0  0  0
 40 41  1  0  0  0  0
 41 42  1  0  0  0  0
M  END
>  <minimizedAffinity>
-5.88833809

$$$$

 OpenBabel03242523563D

 42 45  0  0  1  0  0  0  0  0999 V2000
   35.7690   28.6920   40.1720 C   0  0  1  0  0  0  0  0  0  0  0  0
   36.2110   28.7150   38.7130 C   0  0  1  0  0  0  0  0  0  0  0  0
   37.0080   29.8530   38.5100 O   0  0  0  0  0  0  0  0  0  0  0  0
   36.5740   30.9530   39.2540 C   0  0  0  0  0  0  0  0  0  0  0  0
   36.8090   30.7590   40.7380 C   0  0  2  0  0  0  0  0  0  0  0  0
   36.9240   29.2120   40.9640 C   0  0  1  0  0  0  0  0  0  0  0  0
   35.4750   27.6580   40.4690 H   0  0  0  0  0  0  0  0  0  0  0  0
   35.3730   28.6790   38.0030 H   0  0  0  0  0  0  0  0  0  0  0  0
   35.5500   31.2780   39.0030 H   0  0  0  0  0  0  0  0  0  0  0  0
   37.2350   31.7860   38.9430 H   0  0  0  0  0  0  0  0  0  0  0  0
   37.7300   31.2520   41.1080 H   0  0  0  0  0  0  0  0  0  0  0  0
   37.9070   29.0930   40.4010 H   0  0  0  0  0  0  0  0  0  0  0  0
   34.6370   29.4960   40.3640 O   0  0  0  0  0  0  0  0  0  0  0  0
   33.8650   28.9750   40.0370 H   0  0  0  0  0  0  0  0  0  0  0  0
   35.6770   31.1440   41.4430 O   0  0  0  0  0  0  0  0  0  0  0  0
   35.5760   30.7280   42.3220 H   0  0  0  0  0  0  0  0  0  0  0  0
   37.1060   27.6440   38.5830 O   0  0  0  0  0  0  0  0  0  0  0  0
   36.7600   26.3800   38.3150 C   0  0  0  0  0  0  0  0  0  0  0  0
   35.5150   26.0760   37.7470 C   0  0  0  0  0  0  0  0  0  0  0  0
   35.2030   24.7540   37.4870 C   0  0  0  0  0  0  0  0  0  0  0  0
   36.1280   23.7710   37.7970 N   0  0  0  0  0  0  0  0  0  0  0  0
   37.3190   24.1000   38.3440 C   0  0  0  0  0  0  0  0  0  0  0  0
   37.6310   25.3970   38.6000 N   0  0  0  0  0  0  0  0  0  0  0  0
   34.7860   26.8380   37.5030 H   0  0  0  0  0  0  0  0  0  0  0  0
   38.0070   23.3200   38.5690 H   0  0  0  0  0  0  0  0  0  0  0  0
   33.8900   24.3510   36.8990 C   0  0  0  0  0  0  0  0  0  0  0  0
   32.9910   25.4730   36.3830 C   0  0  0  0  0  0  0  0  0  0  0  0
   33.6580   24.4040   35.4920 C   0  0  0  0  0  0  0  0  0  0  0  0
   33.3720   23.5810   37.5360 H   0  0  0  0  0  0  0  0  0  0  0  0
   33.4480   26.4610   36.4270 H   0  0  0  0  0  0  0  0  0  0  0  0
   31.9100   25.3260   36.5300 H   0  0  0  0  0  0  0  0  0  0  0  0
   33.0040   23.6800   34.9750 H   0  0  0  0  0  0  0  0  0  0  0  0
   34.4470   24.8330   34.8190 H   0  0  0  0  0  0  0  0  0  0  0  0
   36.9010   28.9920   42.2920 O   0  0  0  0  0  0  0  0  0  0  0  0
   37.0560   27.8350   42.9710 C   0  0  0  0  0  0  0  0  0  0  0  0
   36.1520   27.4200   43.8270 O   0  0  0  0  0  0  0  0  0  0  0  0
   37.9630   26.6550   43.1820 C   0  0  0  0  0  3  0  0  0  0  0  0
   39.3330   27.2390   43.5090 C   0  0  0  0  0  2  0  0  0  0  0  0
   40.3150   26.1770   43.8670 C   0  0  0  0  0  2  0  0  0  0  0  0
   40.1120   24.9100   43.1090 C   0  0  0  0  0  2  0  0  0  0  0  0
   39.5280   25.2810   41.7580 C   0  0  0  0  0  2  0  0  0  0  0  0
   38.1160   25.7440   42.0270 C   0  0  0  0  0  2  0  0  0  0  0  0
  1 13  1  0  0  0  0
  1  7  1  1  0  0  0
  1  6  1  0  0  0  0
  2  8  1  6  0  0  0
  2  1  1  0  0  0  0
  3  2  1  0  0  0  0
  3  4  1  0  0  0  0
  4  5  1  0  0  0  0
  5  6  1  0  0  0  0
  5 11  1  1  0  0  0
  5 15  1  0  0  0  0
  6 12  1  6  0  0  0
  6 34  1  0  0  0  0
  9  4  1  0  0  0  0
 10  4  1  0  0  0  0
 14 13  1  0  0  0  0
 15 16  1  0  0  0  0
 17  2  1  0  0  0  0
 18 17  1  0  0  0  0
 18 23  1  0  0  0  0
 19 18  2  0  0  0  0
 20 19  1  0  0  0  0
 20 21  2  0  0  0  0
 21 22  1  0  0  0  0
 22 25  1  0  0  0  0
 22 23  2  0  0  0  0
 24 19  1  0  0  0  0
 26 20  1  0  0  0  0
 26 29  1  0  0  0  0
 27 30  1  0  0  0  0
 27 31  1  0  0  0  0
 27 26  1  0  0  0  0
 28 27  1  0  0  0  0
 28 26  1  0  0  0  0
 32 28  1  0  0  0  0
 33 28  1  0  0  0  0
 34 35  1  0  0  0  0
 35 37  1  0  0  0  0
 35 36  2  0  0  0  0
 37 38  1  0  0  0  0
 38 39  1  0  0  0  0
 40 39  1  0  0  0  0
 41 42  1  0  0  0  0
 41 40  1  0  0  0  0
 42 37  1  0  0  0  0
M  END
>  <minimizedAffinity>
-5.86317825

$$$$
