
 OpenBabel03242523533D

 42 45  0  0  1  0  0  0  0  0999 V2000
   42.8040   34.3640   38.9380 C   0  0  1  0  0  0  0  0  0  0  0  0
   43.0290   35.1960   40.1950 C   0  0  1  0  0  0  0  0  0  0  0  0
   41.7810   35.6370   40.6630 O   0  0  0  0  0  0  0  0  0  0  0  0
   40.8940   35.9380   39.6260 C   0  0  0  0  0  0  0  0  0  0  0  0
   40.4470   34.6950   38.8870 C   0  0  2  0  0  0  0  0  0  0  0  0
   41.5380   33.6040   39.1630 C   0  0  1  0  0  0  0  0  0  0  0  0
   43.6800   33.6960   38.7560 H   0  0  0  0  0  0  0  0  0  0  0  0
   43.7220   36.0360   40.0450 H   0  0  0  0  0  0  0  0  0  0  0  0
   41.2490   36.7470   38.9650 H   0  0  0  0  0  0  0  0  0  0  0  0
   39.9930   36.3400   40.1300 H   0  0  0  0  0  0  0  0  0  0  0  0
   39.4590   34.3150   39.2170 H   0  0  0  0  0  0  0  0  0  0  0  0
   41.3050   33.4960   40.2730 H   0  0  0  0  0  0  0  0  0  0  0  0
   42.6930   35.1860   37.8080 O   0  0  0  0  0  0  0  0  0  0  0  0
   43.6110   35.4540   37.5650 H   0  0  0  0  0  0  0  0  0  0  0  0
   40.5000   34.9220   37.5190 O   0  0  0  0  0  0  0  0  0  0  0  0
   40.5970   34.1180   36.9700 H   0  0  0  0  0  0  0  0  0  0  0  0
   43.4560   34.2820   41.1700 O   0  0  0  0  0  0  0  0  0  0  0  0
   44.5970   34.3720   41.8620 C   0  0  0  0  0  0  0  0  0  0  0  0
   45.8310   34.4940   41.2080 C   0  0  0  0  0  0  0  0  0  0  0  0
   46.9840   34.5850   41.9660 C   0  0  0  0  0  0  0  0  0  0  0  0
   46.8840   34.5510   43.3480 N   0  0  0  0  0  0  0  0  0  0  0  0
   45.6780   34.4320   43.9450 C   0  0  0  0  0  0  0  0  0  0  0  0
   44.5430   34.3430   43.2040 N   0  0  0  0  0  0  0  0  0  0  0  0
   45.9170   34.5210   40.1290 H   0  0  0  0  0  0  0  0  0  0  0  0
   45.6380   34.4090   45.0070 H   0  0  0  0  0  0  0  0  0  0  0  0
   48.3360   34.7010   41.3420 C   0  0  0  0  0  0  0  0  0  0  0  0
   49.0660   36.0320   41.5210 C   0  0  0  0  0  0  0  0  0  0  0  0
   49.5230   34.6910   42.1330 C   0  0  0  0  0  0  0  0  0  0  0  0
   48.3430   34.2910   40.2940 H   0  0  0  0  0  0  0  0  0  0  0  0
   48.5450   36.7390   42.1650 H   0  0  0  0  0  0  0  0  0  0  0  0
   49.6700   36.3640   40.6630 H   0  0  0  0  0  0  0  0  0  0  0  0
   50.4690   34.2520   41.7710 H   0  0  0  0  0  0  0  0  0  0  0  0
   49.4400   34.6770   43.2530 H   0  0  0  0  0  0  0  0  0  0  0  0
   41.2950   32.5670   38.3400 O   0  0  0  0  0  0  0  0  0  0  0  0
   40.3860   31.5760   38.4570 C   0  0  0  0  0  0  0  0  0  0  0  0
   39.8110   31.0500   37.4000 O   0  0  0  0  0  0  0  0  0  0  0  0
   39.6560   30.6960   39.4330 C   0  0  0  0  0  3  0  0  0  0  0  0
   38.5610   31.5690   40.0370 C   0  0  0  0  0  2  0  0  0  0  0  0
   37.6690   30.7890   40.9420 C   0  0  0  0  0  2  0  0  0  0  0  0
   38.3860   29.7180   41.6910 C   0  0  0  0  0  2  0  0  0  0  0  0
   39.8130   30.1900   41.9010 C   0  0  0  0  0  2  0  0  0  0  0  0
   40.4690   30.1500   40.5410 C   0  0  0  0  0  2  0  0  0  0  0  0
  1  7  1  6  0  0  0
  1  6  1  0  0  0  0
  1  2  1  0  0  0  0
  2  8  1  6  0  0  0
  2  3  1  0  0  0  0
  2 17  1  0  0  0  0
  4 10  1  0  0  0  0
  4  3  1  0  0  0  0
  5  6  1  0  0  0  0
  5 11  1  1  0  0  0
  5  4  1  0  0  0  0
  6 12  1  1  0  0  0
  9  4  1  0  0  0  0
 13  1  1  0  0  0  0
 14 13  1  0  0  0  0
 15  5  1  0  0  0  0
 16 15  1  0  0  0  0
 17 18  1  0  0  0  0
 18 23  1  0  0  0  0
 19 18  2  0  0  0  0
 19 20  1  0  0  0  0
 20 21  2  0  0  0  0
 21 22  1  0  0  0  0
 22 25  1  0  0  0  0
 23 22  2  0  0  0  0
 24 19  1  0  0  0  0
 26 27  1  0  0  0  0
 26 20  1  0  0  0  0
 26 28  1  0  0  0  0
 27 28  1  0  0  0  0
 27 30  1  0  0  0  0
 28 33  1  0  0  0  0
 29 26  1  0  0  0  0
 31 27  1  0  0  0  0
 32 28  1  0  0  0  0
 34 35  1  0  0  0  0
 34  6  1  0  0  0  0
 35 37  1  0  0  0  0
 36 35  2  0  0  0  0
 37 38  1  0  0  0  0
 37 42  1  0  0  0  0
 38 39  1  0  0  0  0
 39 40  1  0  0  0  0
 40 41  1  0  0  0  0
 42 41  1  0  0  0  0
M  END
>  <minimizedAffinity>
-6.37517214

>  <minimizedRMSD>
1.89666164

$$$$
