
 OpenBabel03242523533D

 42 45  0  0  1  0  0  0  0  0999 V2000
   42.8120   34.5420   38.7330 C   0  0  1  0  0  0  0  0  0  0  0  0
   42.9430   35.1860   40.1080 C   0  0  1  0  0  0  0  0  0  0  0  0
   41.6550   35.3880   40.6280 O   0  0  0  0  0  0  0  0  0  0  0  0
   40.7260   35.7360   39.6430 C   0  0  0  0  0  0  0  0  0  0  0  0
   40.4300   34.5790   38.7120 C   0  0  2  0  0  0  0  0  0  0  0  0
   41.6520   33.6040   38.8230 C   0  0  1  0  0  0  0  0  0  0  0  0
   43.7610   34.0260   38.4570 H   0  0  0  0  0  0  0  0  0  0  0  0
   43.5240   36.1190   40.0990 H   0  0  0  0  0  0  0  0  0  0  0  0
   40.9710   36.6780   39.1210 H   0  0  0  0  0  0  0  0  0  0  0  0
   39.7870   35.9380   40.1950 H   0  0  0  0  0  0  0  0  0  0  0  0
   39.5010   34.0320   38.9680 H   0  0  0  0  0  0  0  0  0  0  0  0
   41.4460   33.2940   39.8990 H   0  0  0  0  0  0  0  0  0  0  0  0
   42.5870   35.5120   37.7460 O   0  0  0  0  0  0  0  0  0  0  0  0
   43.4620   35.9270   37.5580 H   0  0  0  0  0  0  0  0  0  0  0  0
   40.4410   35.0250   37.3970 O   0  0  0  0  0  0  0  0  0  0  0  0
   40.6330   34.3360   36.7290 H   0  0  0  0  0  0  0  0  0  0  0  0
   43.4900   34.1900   40.9310 O   0  0  0  0  0  0  0  0  0  0  0  0
   44.5910   34.3280   41.6770 C   0  0  0  0  0  0  0  0  0  0  0  0
   45.8580   34.4300   41.0850 C   0  0  0  0  0  0  0  0  0  0  0  0
   46.9670   34.5730   41.8990 C   0  0  0  0  0  0  0  0  0  0  0  0
   46.7930   34.6090   43.2720 N   0  0  0  0  0  0  0  0  0  0  0  0
   45.5580   34.5070   43.8090 C   0  0  0  0  0  0  0  0  0  0  0  0
   44.4650   34.3680   43.0150 N   0  0  0  0  0  0  0  0  0  0  0  0
   46.0020   34.4030   40.0130 H   0  0  0  0  0  0  0  0  0  0  0  0
   45.4600   34.5390   44.8680 H   0  0  0  0  0  0  0  0  0  0  0  0
   48.3500   34.6710   41.3430 C   0  0  0  0  0  0  0  0  0  0  0  0
   49.0650   36.0120   41.5070 C   0  0  0  0  0  0  0  0  0  0  0  0
   49.4940   34.6990   42.1960 C   0  0  0  0  0  0  0  0  0  0  0  0
   48.4140   34.2210   40.3140 H   0  0  0  0  0  0  0  0  0  0  0  0
   48.5090   36.7410   42.0940 H   0  0  0  0  0  0  0  0  0  0  0  0
   49.7130   36.3140   40.6700 H   0  0  0  0  0  0  0  0  0  0  0  0
   50.4590   34.2510   41.9010 H   0  0  0  0  0  0  0  0  0  0  0  0
   49.3510   34.7280   43.3090 H   0  0  0  0  0  0  0  0  0  0  0  0
   41.5330   32.6880   37.8440 O   0  0  0  0  0  0  0  0  0  0  0  0
   40.8770   31.5070   37.8510 C   0  0  0  0  0  0  0  0  0  0  0  0
   39.6020   31.4340   37.5490 O   0  0  0  0  0  0  0  0  0  0  0  0
   41.0230   30.0310   38.0920 C   0  0  0  0  0  3  0  0  0  0  0  0
   42.4390   29.6780   37.6480 C   0  0  0  0  0  2  0  0  0  0  0  0
   42.7720   28.2550   37.9450 C   0  0  0  0  0  2  0  0  0  0  0  0
   41.6050   27.3370   37.8050 C   0  0  0  0  0  2  0  0  0  0  0  0
   40.6940   27.9240   36.7420 C   0  0  0  0  0  2  0  0  0  0  0  0
   40.0820   29.1610   37.3530 C   0  0  0  0  0  2  0  0  0  0  0  0
  1  7  1  6  0  0  0
  1  6  1  0  0  0  0
  1  2  1  0  0  0  0
  2  8  1  6  0  0  0
  2  3  1  0  0  0  0
  2 17  1  0  0  0  0
  4 10  1  0  0  0  0
  4  3  1  0  0  0  0
  5  6  1  0  0  0  0
  5 11  1  1  0  0  0
  5  4  1  0  0  0  0
  6 12  1  1  0  0  0
  9  4  1  0  0  0  0
 13  1  1  0  0  0  0
 14 13  1  0  0  0  0
 15  5  1  0  0  0  0
 16 15  1  0  0  0  0
 17 18  1  0  0  0  0
 18 23  1  0  0  0  0
 19 18  2  0  0  0  0
 19 20  1  0  0  0  0
 20 21  2  0  0  0  0
 21 22  1  0  0  0  0
 22 25  1  0  0  0  0
 23 22  2  0  0  0  0
 24 19  1  0  0  0  0
 26 27  1  0  0  0  0
 26 20  1  0  0  0  0
 26 28  1  0  0  0  0
 27 30  1  0  0  0  0
 27 28  1  0  0  0  0
 28 33  1  0  0  0  0
 29 26  1  0  0  0  0
 31 27  1  0  0  0  0
 32 28  1  0  0  0  0
 34 35  1  0  0  0  0
 34  6  1  0  0  0  0
 35 37  1  0  0  0  0
 36 35  2  0  0  0  0
 38 39  1  0  0  0  0
 38 37  1  0  0  0  0
 40 39  1  0  0  0  0
 41 42  1  0  0  0  0
 41 40  1  0  0  0  0
 42 37  1  0  0  0  0
M  END
>  <minimizedAffinity>
-5.66798353

>  <minimizedRMSD>
0.173829973

$$$$
