
 OpenBabel03242523533D

 42 45  0  0  1  0  0  0  0  0999 V2000
   42.8110   34.5120   38.7400 C   0  0  1  0  0  0  0  0  0  0  0  0
   42.9610   35.1840   40.1010 C   0  0  1  0  0  0  0  0  0  0  0  0
   41.6780   35.4180   40.6220 O   0  0  0  0  0  0  0  0  0  0  0  0
   40.7500   35.7600   39.6340 C   0  0  0  0  0  0  0  0  0  0  0  0
   40.4310   34.5880   38.7300 C   0  0  2  0  0  0  0  0  0  0  0  0
   41.6380   33.5950   38.8560 C   0  0  1  0  0  0  0  0  0  0  0  0
   43.7510   33.9760   38.4710 H   0  0  0  0  0  0  0  0  0  0  0  0
   43.5560   36.1070   40.0690 H   0  0  0  0  0  0  0  0  0  0  0  0
   41.0070   36.6860   39.0910 H   0  0  0  0  0  0  0  0  0  0  0  0
   39.8170   35.9880   40.1860 H   0  0  0  0  0  0  0  0  0  0  0  0
   39.4950   34.0610   39.0020 H   0  0  0  0  0  0  0  0  0  0  0  0
   41.4320   33.3120   39.9400 H   0  0  0  0  0  0  0  0  0  0  0  0
   42.5980   35.4640   37.7340 O   0  0  0  0  0  0  0  0  0  0  0  0
   43.4770   35.8620   37.5330 H   0  0  0  0  0  0  0  0  0  0  0  0
   40.4420   35.0040   37.4060 O   0  0  0  0  0  0  0  0  0  0  0  0
   40.6190   34.2990   36.7520 H   0  0  0  0  0  0  0  0  0  0  0  0
   43.4960   34.1980   40.9420 O   0  0  0  0  0  0  0  0  0  0  0  0
   44.5980   34.3360   41.6860 C   0  0  0  0  0  0  0  0  0  0  0  0
   45.8640   34.4380   41.0910 C   0  0  0  0  0  0  0  0  0  0  0  0
   46.9740   34.5820   41.9030 C   0  0  0  0  0  0  0  0  0  0  0  0
   46.8030   34.6200   43.2770 N   0  0  0  0  0  0  0  0  0  0  0  0
   45.5690   34.5190   43.8160 C   0  0  0  0  0  0  0  0  0  0  0  0
   44.4750   34.3780   43.0240 N   0  0  0  0  0  0  0  0  0  0  0  0
   46.0060   34.4090   40.0190 H   0  0  0  0  0  0  0  0  0  0  0  0
   45.4720   34.5520   44.8750 H   0  0  0  0  0  0  0  0  0  0  0  0
   48.3560   34.6800   41.3450 C   0  0  0  0  0  0  0  0  0  0  0  0
   49.0730   36.0190   41.5080 C   0  0  0  0  0  0  0  0  0  0  0  0
   49.5020   34.7050   42.1950 C   0  0  0  0  0  0  0  0  0  0  0  0
   48.4180   34.2300   40.3140 H   0  0  0  0  0  0  0  0  0  0  0  0
   48.5190   36.7480   42.0980 H   0  0  0  0  0  0  0  0  0  0  0  0
   49.7200   36.3210   40.6710 H   0  0  0  0  0  0  0  0  0  0  0  0
   50.4660   34.2560   41.8980 H   0  0  0  0  0  0  0  0  0  0  0  0
   49.3620   34.7330   43.3090 H   0  0  0  0  0  0  0  0  0  0  0  0
   41.4980   32.6600   37.8980 O   0  0  0  0  0  0  0  0  0  0  0  0
   40.7920   31.5100   37.9200 C   0  0  0  0  0  0  0  0  0  0  0  0
   39.5590   31.4580   37.4720 O   0  0  0  0  0  0  0  0  0  0  0  0
   40.8380   30.0550   38.2940 C   0  0  0  0  0  3  0  0  0  0  0  0
   42.0030   29.4630   37.5070 C   0  0  0  0  0  2  0  0  0  0  0  0
   42.2490   28.0390   37.8730 C   0  0  0  0  0  2  0  0  0  0  0  0
   41.0010   27.2920   38.1980 C   0  0  0  0  0  2  0  0  0  0  0  0
   39.8800   27.9070   37.3790 C   0  0  0  0  0  2  0  0  0  0  0  0
   39.6260   29.2700   37.9770 C   0  0  0  0  0  2  0  0  0  0  0  0
  1  7  1  6  0  0  0
  1  6  1  0  0  0  0
  1  2  1  0  0  0  0
  2  8  1  6  0  0  0
  2  3  1  0  0  0  0
  2 17  1  0  0  0  0
  4 10  1  0  0  0  0
  4  3  1  0  0  0  0
  5  6  1  0  0  0  0
  5 11  1  1  0  0  0
  5  4  1  0  0  0  0
  6 12  1  1  0  0  0
  9  4  1  0  0  0  0
 13  1  1  0  0  0  0
 14 13  1  0  0  0  0
 15  5  1  0  0  0  0
 16 15  1  0  0  0  0
 17 18  1  0  0  0  0
 18 23  1  0  0  0  0
 19 18  2  0  0  0  0
 19 20  1  0  0  0  0
 20 21  2  0  0  0  0
 21 22  1  0  0  0  0
 22 25  1  0  0  0  0
 23 22  2  0  0  0  0
 24 19  1  0  0  0  0
 26 27  1  0  0  0  0
 26 20  1  0  0  0  0
 26 28  1  0  0  0  0
 27 30  1  0  0  0  0
 27 28  1  0  0  0  0
 28 33  1  0  0  0  0
 29 26  1  0  0  0  0
 31 27  1  0  0  0  0
 32 28  1  0  0  0  0
 34 35  1  0  0  0  0
 34  6  1  0  0  0  0
 35 37  1  0  0  0  0
 36 35  2  0  0  0  0
 38 39  1  0  0  0  0
 38 37  1  0  0  0  0
 39 40  1  0  0  0  0
 41 42  1  0  0  0  0
 41 40  1  0  0  0  0
 42 37  1  0  0  0  0
M  END
>  <minimizedAffinity>
-5.67711449

>  <minimizedRMSD>
0.18682003

$$$$
