
 OpenBabel03242523543D

 42 45  0  0  1  0  0  0  0  0999 V2000
   42.8150   34.3470   38.9560 C   0  0  1  0  0  0  0  0  0  0  0  0
   43.0170   35.1820   40.2140 C   0  0  1  0  0  0  0  0  0  0  0  0
   41.7590   35.6040   40.6730 O   0  0  0  0  0  0  0  0  0  0  0  0
   40.8750   35.8910   39.6290 C   0  0  0  0  0  0  0  0  0  0  0  0
   40.4530   34.6400   38.8860 C   0  0  2  0  0  0  0  0  0  0  0  0
   41.5590   33.5670   39.1710 C   0  0  1  0  0  0  0  0  0  0  0  0
   43.7020   33.6930   38.7800 H   0  0  0  0  0  0  0  0  0  0  0  0
   43.6980   36.0330   40.0690 H   0  0  0  0  0  0  0  0  0  0  0  0
   41.2230   36.7050   38.9690 H   0  0  0  0  0  0  0  0  0  0  0  0
   39.9640   36.2790   40.1250 H   0  0  0  0  0  0  0  0  0  0  0  0
   39.4690   34.2450   39.2090 H   0  0  0  0  0  0  0  0  0  0  0  0
   41.3190   33.4560   40.2790 H   0  0  0  0  0  0  0  0  0  0  0  0
   42.7000   35.1670   37.8250 O   0  0  0  0  0  0  0  0  0  0  0  0
   43.6150   35.4490   37.5890 H   0  0  0  0  0  0  0  0  0  0  0  0
   40.5130   34.8680   37.5180 O   0  0  0  0  0  0  0  0  0  0  0  0
   40.6270   34.0660   36.9710 H   0  0  0  0  0  0  0  0  0  0  0  0
   43.4500   34.2760   41.1930 O   0  0  0  0  0  0  0  0  0  0  0  0
   44.5960   34.3710   41.8770 C   0  0  0  0  0  0  0  0  0  0  0  0
   45.8250   34.4960   41.2150 C   0  0  0  0  0  0  0  0  0  0  0  0
   46.9820   34.5920   41.9660 C   0  0  0  0  0  0  0  0  0  0  0  0
   46.8920   34.5620   43.3480 N   0  0  0  0  0  0  0  0  0  0  0  0
   45.6900   34.4410   43.9530 C   0  0  0  0  0  0  0  0  0  0  0  0
   44.5500   34.3460   43.2200 N   0  0  0  0  0  0  0  0  0  0  0  0
   45.9040   34.5190   40.1360 H   0  0  0  0  0  0  0  0  0  0  0  0
   45.6560   34.4220   45.0160 H   0  0  0  0  0  0  0  0  0  0  0  0
   48.3300   34.7110   41.3330 C   0  0  0  0  0  0  0  0  0  0  0  0
   49.0670   36.0360   41.5220 C   0  0  0  0  0  0  0  0  0  0  0  0
   49.5240   34.6860   42.1150 C   0  0  0  0  0  0  0  0  0  0  0  0
   48.3280   34.3140   40.2800 H   0  0  0  0  0  0  0  0  0  0  0  0
   48.5540   36.7370   42.1800 H   0  0  0  0  0  0  0  0  0  0  0  0
   49.6670   36.3770   40.6640 H   0  0  0  0  0  0  0  0  0  0  0  0
   50.4650   34.2480   41.7400 H   0  0  0  0  0  0  0  0  0  0  0  0
   49.4490   34.6580   43.2350 H   0  0  0  0  0  0  0  0  0  0  0  0
   41.3390   32.5260   38.3470 O   0  0  0  0  0  0  0  0  0  0  0  0
   40.3940   31.5650   38.4150 C   0  0  0  0  0  0  0  0  0  0  0  0
   39.8410   31.0740   37.3300 O   0  0  0  0  0  0  0  0  0  0  0  0
   39.6000   30.6960   39.3500 C   0  0  0  0  0  3  0  0  0  0  0  0
   38.3150   30.3520   38.6050 C   0  0  0  0  0  2  0  0  0  0  0  0
   37.4760   29.3850   39.3690 C   0  0  0  0  0  2  0  0  0  0  0  0
   37.5530   29.5780   40.8440 C   0  0  0  0  0  2  0  0  0  0  0  0
   37.8110   31.0530   41.0940 C   0  0  0  0  0  2  0  0  0  0  0  0
   39.2300   31.3100   40.6440 C   0  0  0  0  0  2  0  0  0  0  0  0
  1  7  1  6  0  0  0
  1  6  1  0  0  0  0
  1  2  1  0  0  0  0
  2  8  1  6  0  0  0
  2  3  1  0  0  0  0
  2 17  1  0  0  0  0
  4 10  1  0  0  0  0
  4  3  1  0  0  0  0
  5  6  1  0  0  0  0
  5 11  1  1  0  0  0
  5  4  1  0  0  0  0
  6 12  1  1  0  0  0
  9  4  1  0  0  0  0
 13  1  1  0  0  0  0
 14 13  1  0  0  0  0
 15  5  1  0  0  0  0
 16 15  1  0  0  0  0
 17 18  1  0  0  0  0
 18 23  1  0  0  0  0
 19 18  2  0  0  0  0
 19 20  1  0  0  0  0
 20 21  2  0  0  0  0
 21 22  1  0  0  0  0
 22 25  1  0  0  0  0
 23 22  2  0  0  0  0
 24 19  1  0  0  0  0
 26 27  1  0  0  0  0
 26 20  1  0  0  0  0
 26 28  1  0  0  0  0
 27 28  1  0  0  0  0
 27 30  1  0  0  0  0
 28 33  1  0  0  0  0
 29 26  1  0  0  0  0
 31 27  1  0  0  0  0
 32 28  1  0  0  0  0
 34 35  1  0  0  0  0
 34  6  1  0  0  0  0
 35 37  1  0  0  0  0
 36 35  2  0  0  0  0
 37 42  1  0  0  0  0
 38 37  1  0  0  0  0
 38 39  1  0  0  0  0
 39 40  1  0  0  0  0
 40 41  1  0  0  0  0
 42 41  1  0  0  0  0
M  END
>  <minimizedAffinity>
-6.56584978

>  <minimizedRMSD>
1.49306285

$$$$
