
 OpenBabel03242514323D

 23 24  0  0  0  0  0  0  0  0999 V2000
   49.4360   35.3180   42.8130 O   0  0  0  0  0  0  0  0  0  0  0  0
   48.9230   34.1270   42.0720 P   0  0  1  0  0  0  0  0  0  0  0  0
   50.2000   33.0460   41.9170 O   0  0  0  0  0  0  0  0  0  0  0  0
   49.9980   32.3350   41.2410 H   0  0  0  0  0  0  0  0  0  0  0  0
   47.6140   33.4030   42.9050 O   0  0  0  0  0  0  0  0  0  0  0  0
   46.1250   35.2550   42.7400 C   0  0  0  0  0  0  0  0  0  0  0  0
   46.6070   34.1830   43.4750 C   0  0  0  0  0  0  0  0  0  0  0  0
   46.0600   33.9440   44.7370 C   0  0  0  0  0  0  0  0  0  0  0  0
   45.0790   34.7790   45.1790 N   0  0  0  0  0  0  0  0  0  0  0  0
   44.6390   35.8030   44.4440 C   0  0  0  0  0  0  0  0  0  0  0  0
   45.1550   36.0380   43.2400 N   0  0  0  0  0  0  0  0  0  0  0  0
   46.4740   35.5300   41.7580 H   0  0  0  0  0  0  0  0  0  0  0  0
   46.4520   33.1000   45.2950 H   0  0  0  0  0  0  0  0  0  0  0  0
   43.8570   36.3640   44.9480 H   0  0  0  0  0  0  0  0  0  0  0  0
   48.4330   34.6230   40.5550 O   0  0  0  0  0  0  0  0  0  0  0  0
   47.9670   33.8210   39.5670 C   0  0  0  0  0  0  0  0  0  0  0  0
   46.6830   33.7320   39.5990 O   0  0  0  0  0  0  0  0  0  0  0  0
   47.9150   32.9120   38.3910 C   0  0  0  0  0  3  0  0  0  0  0  0
   47.1640   33.6200   37.2640 C   0  0  0  0  0  2  0  0  0  0  0  0
   47.1740   32.6240   36.1170 C   0  0  0  0  0  2  0  0  0  0  0  0
   48.5930   32.6020   35.5890 C   0  0  0  0  0  2  0  0  0  0  0  0
   49.4000   31.8600   36.6590 C   0  0  0  0  0  2  0  0  0  0  0  0
   49.3050   32.5450   37.9760 C   0  0  0  0  0  2  0  0  0  0  0  0
  2  1  2  1  0  0  0
  2  5  1  0  0  0  0
  3  2  1  0  0  0  0
  4  3  1  0  0  0  0
  5  7  1  0  0  0  0
  6 11  2  0  0  0  0
  6  7  1  0  0  0  0
  7  8  2  0  0  0  0
  8  9  1  0  0  0  0
  8 13  1  0  0  0  0
 10 14  1  0  0  0  0
 10  9  2  0  0  0  0
 11 10  1  0  0  0  0
 12  6  1  0  0  0  0
 15  2  1  0  0  0  0
 16 17  2  0  0  0  0
 16 15  1  0  0  0  0
 18 16  1  0  0  0  0
 19 18  1  0  0  0  0
 20 19  1  0  0  0  0
 21 20  1  0  0  0  0
 21 22  1  0  0  0  0
 22 23  1  0  0  0  0
 23 18  1  0  0  0  0
M  END
>  <minimizedAffinity>
-4.33393383

>  <minimizedRMSD>
0.961959064

$$$$
