
 OpenBabel03242514323D

 23 24  0  0  0  0  0  0  0  0999 V2000
   49.3800   35.5800   42.4510 O   0  0  0  0  0  0  0  0  0  0  0  0
   48.9040   34.3230   41.7980 P   0  0  1  0  0  0  0  0  0  0  0  0
   50.2500   33.3520   41.5410 O   0  0  0  0  0  0  0  0  0  0  0  0
   50.0460   32.6030   40.9090 H   0  0  0  0  0  0  0  0  0  0  0  0
   47.7550   33.5200   42.7810 O   0  0  0  0  0  0  0  0  0  0  0  0
   46.1590   35.2850   42.6840 C   0  0  0  0  0  0  0  0  0  0  0  0
   46.7080   34.2200   43.3810 C   0  0  0  0  0  0  0  0  0  0  0  0
   46.1850   33.9100   44.6370 C   0  0  0  0  0  0  0  0  0  0  0  0
   45.1610   34.6710   45.1110 N   0  0  0  0  0  0  0  0  0  0  0  0
   44.6560   35.6900   44.4120 C   0  0  0  0  0  0  0  0  0  0  0  0
   45.1490   35.9930   43.2130 N   0  0  0  0  0  0  0  0  0  0  0  0
   46.4840   35.6110   41.7090 H   0  0  0  0  0  0  0  0  0  0  0  0
   46.6300   33.0720   45.1650 H   0  0  0  0  0  0  0  0  0  0  0  0
   43.8460   36.1880   44.9380 H   0  0  0  0  0  0  0  0  0  0  0  0
   48.2210   34.7210   40.3270 O   0  0  0  0  0  0  0  0  0  0  0  0
   47.7970   33.8450   39.3840 C   0  0  0  0  0  0  0  0  0  0  0  0
   46.5350   33.6170   39.4860 O   0  0  0  0  0  0  0  0  0  0  0  0
   47.7860   32.9030   38.2320 C   0  0  0  0  0  3  0  0  0  0  0  0
   46.8930   33.4870   37.1380 C   0  0  0  0  0  2  0  0  0  0  0  0
   46.9550   32.4660   36.0140 C   0  0  0  0  0  2  0  0  0  0  0  0
   48.3350   32.5970   35.4020 C   0  0  0  0  0  2  0  0  0  0  0  0
   49.2840   31.9860   36.4360 C   0  0  0  0  0  2  0  0  0  0  0  0
   49.1840   32.6910   37.7420 C   0  0  0  0  0  2  0  0  0  0  0  0
  2  1  2  1  0  0  0
  2  5  1  0  0  0  0
  3  2  1  0  0  0  0
  4  3  1  0  0  0  0
  5  7  1  0  0  0  0
  6 11  2  0  0  0  0
  6  7  1  0  0  0  0
  7  8  2  0  0  0  0
  8  9  1  0  0  0  0
  8 13  1  0  0  0  0
 10 14  1  0  0  0  0
 10  9  2  0  0  0  0
 11 10  1  0  0  0  0
 12  6  1  0  0  0  0
 15  2  1  0  0  0  0
 16 17  2  0  0  0  0
 16 15  1  0  0  0  0
 18 16  1  0  0  0  0
 19 18  1  0  0  0  0
 20 19  1  0  0  0  0
 21 20  1  0  0  0  0
 21 22  1  0  0  0  0
 22 23  1  0  0  0  0
 23 18  1  0  0  0  0
M  END
>  <minimizedAffinity>
-4.47223949

>  <minimizedRMSD>
1.01137078

$$$$
