
 OpenBabel03242514323D

 23 24  0  0  0  0  0  0  0  0999 V2000
   49.5490   35.5340   42.6520 O   0  0  0  0  0  0  0  0  0  0  0  0
   49.0740   34.3060   41.9470 P   0  0  1  0  0  0  0  0  0  0  0  0
   50.4130   33.3220   41.6980 O   0  0  0  0  0  0  0  0  0  0  0  0
   50.2160   32.5960   41.0370 H   0  0  0  0  0  0  0  0  0  0  0  0
   47.8860   33.4890   42.8720 O   0  0  0  0  0  0  0  0  0  0  0  0
   46.2730   35.2320   42.6980 C   0  0  0  0  0  0  0  0  0  0  0  0
   46.8060   34.1800   43.4240 C   0  0  0  0  0  0  0  0  0  0  0  0
   46.2370   33.8700   44.6600 C   0  0  0  0  0  0  0  0  0  0  0  0
   45.1850   34.6210   45.0860 N   0  0  0  0  0  0  0  0  0  0  0  0
   44.6950   35.6280   44.3610 C   0  0  0  0  0  0  0  0  0  0  0  0
   45.2320   35.9310   43.1800 N   0  0  0  0  0  0  0  0  0  0  0  0
   46.6320   35.5570   41.7340 H   0  0  0  0  0  0  0  0  0  0  0  0
   46.6710   33.0420   45.2120 H   0  0  0  0  0  0  0  0  0  0  0  0
   43.8580   36.1190   44.8500 H   0  0  0  0  0  0  0  0  0  0  0  0
   48.4400   34.7580   40.4710 O   0  0  0  0  0  0  0  0  0  0  0  0
   48.1200   33.9240   39.4520 C   0  0  0  0  0  0  0  0  0  0  0  0
   46.8470   33.7610   39.3580 O   0  0  0  0  0  0  0  0  0  0  0  0
   48.2370   33.0050   38.2870 C   0  0  0  0  0  3  0  0  0  0  0  0
   46.8990   32.2920   38.0980 C   0  0  0  0  0  2  0  0  0  0  0  0
   47.1160   31.3940   36.8920 C   0  0  0  0  0  2  0  0  0  0  0  0
   47.1620   32.3100   35.6850 C   0  0  0  0  0  2  0  0  0  0  0  0
   48.5090   33.0300   35.7900 C   0  0  0  0  0  2  0  0  0  0  0  0
   48.6190   33.7830   37.0690 C   0  0  0  0  0  2  0  0  0  0  0  0
  2  1  2  1  0  0  0
  2  5  1  0  0  0  0
  3  2  1  0  0  0  0
  4  3  1  0  0  0  0
  5  7  1  0  0  0  0
  6 11  2  0  0  0  0
  6  7  1  0  0  0  0
  7  8  2  0  0  0  0
  8  9  1  0  0  0  0
  8 13  1  0  0  0  0
 10 14  1  0  0  0  0
 10  9  2  0  0  0  0
 11 10  1  0  0  0  0
 12  6  1  0  0  0  0
 15  2  1  0  0  0  0
 16 15  1  0  0  0  0
 17 16  2  0  0  0  0
 18 16  1  0  0  0  0
 19 18  1  0  0  0  0
 20 19  1  0  0  0  0
 21 22  1  0  0  0  0
 21 20  1  0  0  0  0
 22 23  1  0  0  0  0
 23 18  1  0  0  0  0
M  END
>  <minimizedAffinity>
-4.49978924

>  <minimizedRMSD>
0.937416792

$$$$
