
 OpenBabel03242514323D

 23 24  0  0  0  0  0  0  0  0999 V2000
   49.5370   35.5230   42.6130 O   0  0  0  0  0  0  0  0  0  0  0  0
   49.0600   34.2890   41.9190 P   0  0  1  0  0  0  0  0  0  0  0  0
   50.3990   33.3050   41.6710 O   0  0  0  0  0  0  0  0  0  0  0  0
   50.2000   32.5740   41.0150 H   0  0  0  0  0  0  0  0  0  0  0  0
   47.8770   33.4780   42.8550 O   0  0  0  0  0  0  0  0  0  0  0  0
   46.2820   35.2400   42.7080 C   0  0  0  0  0  0  0  0  0  0  0  0
   46.8080   34.1730   43.4200 C   0  0  0  0  0  0  0  0  0  0  0  0
   46.2400   33.8550   44.6550 C   0  0  0  0  0  0  0  0  0  0  0  0
   45.1980   34.6120   45.0940 N   0  0  0  0  0  0  0  0  0  0  0  0
   44.7160   35.6330   44.3830 C   0  0  0  0  0  0  0  0  0  0  0  0
   45.2520   35.9440   43.2040 N   0  0  0  0  0  0  0  0  0  0  0  0
   46.6420   35.5720   41.7470 H   0  0  0  0  0  0  0  0  0  0  0  0
   46.6670   33.0160   45.1940 H   0  0  0  0  0  0  0  0  0  0  0  0
   43.8860   36.1270   44.8810 H   0  0  0  0  0  0  0  0  0  0  0  0
   48.4180   34.7310   40.4430 O   0  0  0  0  0  0  0  0  0  0  0  0
   47.9620   33.8850   39.4870 C   0  0  0  0  0  0  0  0  0  0  0  0
   46.6870   33.7330   39.5630 O   0  0  0  0  0  0  0  0  0  0  0  0
   47.9180   32.9480   38.3320 C   0  0  0  0  0  3  0  0  0  0  0  0
   47.1830   33.6320   37.1810 C   0  0  0  0  0  2  0  0  0  0  0  0
   47.2000   32.6090   36.0580 C   0  0  0  0  0  2  0  0  0  0  0  0
   48.6250   32.5690   35.5470 C   0  0  0  0  0  2  0  0  0  0  0  0
   49.4170   31.8510   36.6410 C   0  0  0  0  0  2  0  0  0  0  0  0
   49.3100   32.5660   37.9410 C   0  0  0  0  0  2  0  0  0  0  0  0
  2  1  2  1  0  0  0
  2  5  1  0  0  0  0
  3  2  1  0  0  0  0
  4  3  1  0  0  0  0
  5  7  1  0  0  0  0
  6 11  2  0  0  0  0
  6  7  1  0  0  0  0
  7  8  2  0  0  0  0
  8  9  1  0  0  0  0
  8 13  1  0  0  0  0
 10 14  1  0  0  0  0
 10  9  2  0  0  0  0
 11 10  1  0  0  0  0
 12  6  1  0  0  0  0
 15  2  1  0  0  0  0
 16 17  2  0  0  0  0
 16 15  1  0  0  0  0
 18 16  1  0  0  0  0
 19 18  1  0  0  0  0
 20 19  1  0  0  0  0
 21 20  1  0  0  0  0
 21 22  1  0  0  0  0
 22 23  1  0  0  0  0
 23 18  1  0  0  0  0
M  END
>  <minimizedAffinity>
-4.4779253

>  <minimizedRMSD>
1.00573599

$$$$
