
 OpenBabel03242514323D

 23 24  0  0  0  0  0  0  0  0999 V2000
   49.4740   35.3870   42.5570 O   0  0  0  0  0  0  0  0  0  0  0  0
   48.8880   34.2700   41.7570 P   0  0  1  0  0  0  0  0  0  0  0  0
   50.1410   33.2210   41.3690 O   0  0  0  0  0  0  0  0  0  0  0  0
   49.8710   32.5780   40.6500 H   0  0  0  0  0  0  0  0  0  0  0  0
   47.6690   33.4560   42.6430 O   0  0  0  0  0  0  0  0  0  0  0  0
   46.1380   35.2800   42.6880 C   0  0  0  0  0  0  0  0  0  0  0  0
   46.6740   34.1670   43.3160 C   0  0  0  0  0  0  0  0  0  0  0  0
   46.1910   33.8200   44.5780 C   0  0  0  0  0  0  0  0  0  0  0  0
   45.2160   34.5970   45.1260 N   0  0  0  0  0  0  0  0  0  0  0  0
   44.7230   35.6630   44.4930 C   0  0  0  0  0  0  0  0  0  0  0  0
   45.1780   36.0010   43.2880 N   0  0  0  0  0  0  0  0  0  0  0  0
   46.4350   35.6370   41.7150 H   0  0  0  0  0  0  0  0  0  0  0  0
   46.6250   32.9450   45.0510 H   0  0  0  0  0  0  0  0  0  0  0  0
   43.9540   36.1660   45.0740 H   0  0  0  0  0  0  0  0  0  0  0  0
   48.2470   34.9080   40.3540 O   0  0  0  0  0  0  0  0  0  0  0  0
   47.7230   34.1990   39.3240 C   0  0  0  0  0  0  0  0  0  0  0  0
   46.6120   33.6410   39.6520 O   0  0  0  0  0  0  0  0  0  0  0  0
   47.5370   33.5820   37.9820 C   0  0  0  0  0  3  0  0  0  0  0  0
   48.8350   33.7390   37.1920 C   0  0  0  0  0  2  0  0  0  0  0  0
   48.5490   33.0760   35.8550 C   0  0  0  0  0  2  0  0  0  0  0  0
   48.5180   31.5850   36.1240 C   0  0  0  0  0  2  0  0  0  0  0  0
   47.2080   31.3480   36.8820 C   0  0  0  0  0  2  0  0  0  0  0  0
   47.1620   32.1420   38.1380 C   0  0  0  0  0  2  0  0  0  0  0  0
  2  1  2  1  0  0  0
  2  5  1  0  0  0  0
  3  2  1  0  0  0  0
  4  3  1  0  0  0  0
  5  7  1  0  0  0  0
  6 11  2  0  0  0  0
  6  7  1  0  0  0  0
  7  8  2  0  0  0  0
  8 13  1  0  0  0  0
  8  9  1  0  0  0  0
 10 14  1  0  0  0  0
 10  9  2  0  0  0  0
 11 10  1  0  0  0  0
 12  6  1  0  0  0  0
 15  2  1  0  0  0  0
 16 17  2  0  0  0  0
 16 15  1  0  0  0  0
 18 23  1  0  0  0  0
 18 16  1  0  0  0  0
 19 18  1  0  0  0  0
 20 21  1  0  0  0  0
 20 19  1  0  0  0  0
 21 22  1  0  0  0  0
 22 23  1  0  0  0  0
M  END
>  <minimizedAffinity>
-4.57041836

>  <minimizedRMSD>
0.42539838

$$$$
