
 OpenBabel03252509293D

 19 20  0  0  0  0  0  0  0  0999 V2000
   46.9240   34.9410   41.8950 C   0  0  0  0  0  0  0  0  0  0  0  0
   47.9070   34.4630   42.0840 H   0  0  0  0  0  0  0  0  0  0  0  0
   47.1920   35.9930   41.5900 H   0  0  0  0  0  0  0  0  0  0  0  0
   44.5830   36.0520   44.5690 C   0  0  0  0  0  0  0  0  0  0  0  0
   45.3240   36.0250   43.3590 C   0  0  0  0  0  0  0  0  0  0  0  0
   46.1720   34.9480   43.1470 C   0  0  0  0  0  0  0  0  0  0  0  0
   46.2570   33.9720   44.0990 N   0  0  0  0  0  0  0  0  0  0  0  0
   45.5320   34.0410   45.2360 C   0  0  0  0  0  0  0  0  0  0  0  0
   44.7030   35.0710   45.4680 N   0  0  0  0  0  0  0  0  0  0  0  0
   43.9350   36.9120   44.6880 H   0  0  0  0  0  0  0  0  0  0  0  0
   45.2180   36.8170   42.6490 H   0  0  0  0  0  0  0  0  0  0  0  0
   45.6700   33.2080   45.9380 H   0  0  0  0  0  0  0  0  0  0  0  0
   46.2910   34.2160   40.7780 C   0  0  0  0  0  0  0  0  0  0  0  0
   44.9160   34.0730   40.7640 C   0  0  0  0  0  3  0  0  0  0  0  0
   44.2320   33.4030   39.7490 C   0  0  0  0  0  0  0  0  0  0  0  0
   43.1780   33.2710   39.6980 H   0  0  0  0  0  0  0  0  0  0  0  0
   44.9540   32.8780   38.7470 N   0  0  0  0  0  0  0  0  0  0  0  0
   46.2880   33.0140   38.7570 C   0  0  0  0  0  3  0  0  0  0  0  0
   46.9810   33.6630   39.7360 N   0  0  0  0  0  0  0  0  0  0  0  0
  1  2  1  0  0  0  0
  1  6  1  0  0  0  0
  3  1  1  0  0  0  0
  4 10  1  0  0  0  0
  4  9  1  0  0  0  0
  5  4  2  0  0  0  0
  6  5  1  0  0  0  0
  6  7  2  0  0  0  0
  7  8  1  0  0  0  0
  8  9  2  0  0  0  0
  8 12  1  0  0  0  0
 11  5  1  0  0  0  0
 13  1  1  0  0  0  0
 14 13  1  0  0  0  0
 15 14  2  0  0  0  0
 16 15  1  0  0  0  0
 17 18  2  0  0  0  0
 17 15  1  0  0  0  0
 18 19  1  0  0  0  0
 19 13  2  0  0  0  0
M  END
>  <minimizedAffinity>
-3.92326164

>  <minimizedRMSD>
0.210201874

$$$$
