
 OpenBabel03252507583D

 25 27  0  0  1  0  0  0  0  0999 V2000
   46.8200   32.3150   46.1750 C   0  0  1  0  0  0  0  0  0  0  0  0
   47.1000   32.4870   47.6280 C   0  0  0  0  0  0  0  0  0  0  0  0
   45.8910   31.7350   47.1980 C   0  0  2  0  0  0  0  0  0  0  0  0
   47.5470   31.7440   45.5930 H   0  0  0  0  0  0  0  0  0  0  0  0
   46.9080   33.5020   48.0510 H   0  0  0  0  0  0  0  0  0  0  0  0
   47.9880   31.9950   48.0180 H   0  0  0  0  0  0  0  0  0  0  0  0
   44.9040   32.1770   47.3590 H   0  0  0  0  0  0  0  0  0  0  0  0
   46.1080   34.6600   43.4470 C   0  0  0  0  0  0  0  0  0  0  0  0
   45.1080   35.5020   43.9830 C   0  0  0  0  0  0  0  0  0  0  0  0
   44.6790   35.2440   45.2970 C   0  0  0  0  0  0  0  0  0  0  0  0
   45.2490   34.2100   45.9690 N   0  0  0  0  0  0  0  0  0  0  0  0
   46.2110   33.4370   45.3890 C   0  0  0  0  0  0  0  0  0  0  0  0
   46.6500   33.6410   44.1480 N   0  0  0  0  0  0  0  0  0  0  0  0
   44.6690   36.3070   43.4490 H   0  0  0  0  0  0  0  0  0  0  0  0
   43.9190   35.8500   45.7610 H   0  0  0  0  0  0  0  0  0  0  0  0
   46.4990   34.9870   42.1090 C   0  0  0  0  0  0  0  0  0  0  0  0
   47.6850   35.2100   41.7210 O   0  0  0  0  0  0  0  0  0  0  0  0
   45.6220   35.0160   41.4580 H   0  0  0  0  0  0  0  0  0  0  0  0
   45.9160   30.2340   47.2230 C   0  0  0  0  0  0  0  0  0  0  0  0
   44.7500   29.4970   47.0570 C   0  0  0  0  0  3  0  0  0  0  0  0
   44.8740   28.1250   47.0960 C   0  0  0  0  0  0  0  0  0  0  0  0
   43.9580   27.5540   46.9660 H   0  0  0  0  0  0  0  0  0  0  0  0
   46.0320   27.4680   47.2790 N   0  0  0  0  0  0  0  0  0  0  0  0
   47.1430   28.2160   47.4360 C   0  0  0  0  0  3  0  0  0  0  0  0
   47.0670   29.5580   47.4060 N   0  0  0  0  0  0  0  0  0  0  0  0
  1  4  1  6  0  0  0
  1  3  1  0  0  0  0
  1  2  1  0  0  0  0
  2  6  1  0  0  0  0
  2  5  1  0  0  0  0
  3 19  1  0  0  0  0
  3  7  1  1  0  0  0
  3  2  1  0  0  0  0
  8  9  2  0  0  0  0
  8 13  1  0  0  0  0
  9 10  1  0  0  0  0
 10 15  1  0  0  0  0
 10 11  2  0  0  0  0
 12 11  1  0  0  0  0
 12  1  1  0  0  0  0
 13 12  2  0  0  0  0
 14  9  1  0  0  0  0
 16  8  1  0  0  0  0
 17 16  2  0  0  0  0
 18 16  1  0  0  0  0
 19 25  1  0  0  0  0
 20 21  1  0  0  0  0
 20 19  2  0  0  0  0
 21 23  2  0  0  0  0
 22 21  1  0  0  0  0
 23 24  1  0  0  0  0
 25 24  2  0  0  0  0
M  END
>  <minimizedAffinity>
-4.60752201

>  <minimizedRMSD>
1.52060199

$$$$
