
 OpenBabel03252506423D

 38 41  0  0  1  0  0  0  0  0999 V2000
   49.3930   33.3260   41.4640 N   0  0  1  0  0  0  0  0  0  0  0  0
   50.6940   33.1480   42.1130 C   0  0  0  0  0  0  0  0  0  0  0  0
   51.3280   31.8400   41.7590 C   0  0  0  0  0  0  0  0  0  0  0  0
   50.5230   30.7400   42.4080 C   0  0  0  0  0  0  0  0  0  0  0  0
   49.0460   31.0420   42.3690 C   0  0  0  0  0  0  0  0  0  0  0  0
   48.7780   32.0370   41.2580 C   0  0  2  0  0  0  0  0  0  0  0  0
   51.3380   33.9540   41.6630 H   0  0  0  0  0  0  0  0  0  0  0  0
   50.6710   33.3110   43.1920 H   0  0  0  0  0  0  0  0  0  0  0  0
   52.3400   31.8460   42.2120 H   0  0  0  0  0  0  0  0  0  0  0  0
   51.4260   31.7150   40.6800 H   0  0  0  0  0  0  0  0  0  0  0  0
   50.8780   30.6820   43.4760 H   0  0  0  0  0  0  0  0  0  0  0  0
   50.7980   29.7700   41.9700 H   0  0  0  0  0  0  0  0  0  0  0  0
   48.7600   31.5210   43.3140 H   0  0  0  0  0  0  0  0  0  0  0  0
   48.4920   30.1340   42.1100 H   0  0  0  0  0  0  0  0  0  0  0  0
   47.6670   32.2310   41.3340 H   0  0  0  0  0  0  0  0  0  0  0  0
   47.2310   34.6220   41.9980 C   0  0  1  0  0  0  0  0  0  0  0  0
   48.3480   35.5490   41.7530 C   0  0  0  0  0  0  0  0  0  0  0  0
   48.6360   34.1970   42.2950 C   0  0  2  0  0  0  0  0  0  0  0  0
   46.7610   34.1790   41.1040 H   0  0  0  0  0  0  0  0  0  0  0  0
   48.6110   35.8020   40.7080 H   0  0  0  0  0  0  0  0  0  0  0  0
   48.4410   36.4020   42.4600 H   0  0  0  0  0  0  0  0  0  0  0  0
   48.8640   34.0840   43.3800 H   0  0  0  0  0  0  0  0  0  0  0  0
   45.5130   36.0420   43.1660 C   0  0  0  0  0  0  0  0  0  0  0  0
   46.3070   34.8750   43.1430 C   0  0  0  0  0  0  0  0  0  0  0  0
   46.1990   33.9680   44.2110 C   0  0  0  0  0  0  0  0  0  0  0  0
   45.3340   34.2650   45.2170 N   0  0  0  0  0  0  0  0  0  0  0  0
   44.5820   35.4010   45.2090 C   0  0  0  0  0  0  0  0  0  0  0  0
   44.6670   36.2980   44.1820 N   0  0  0  0  0  0  0  0  0  0  0  0
   45.6460   36.6920   42.3150 H   0  0  0  0  0  0  0  0  0  0  0  0
   46.7980   33.0740   44.2100 H   0  0  0  0  0  0  0  0  0  0  0  0
   43.9170   35.5500   46.0610 H   0  0  0  0  0  0  0  0  0  0  0  0
   48.9910   31.4670   39.9200 C   0  0  0  0  0  0  0  0  0  0  0  0
   49.1180   32.4310   38.9120 C   0  0  0  0  0  3  0  0  0  0  0  0
   49.3240   31.9620   37.6100 C   0  0  0  0  0  0  0  0  0  0  0  0
   49.4270   32.6760   36.7990 H   0  0  0  0  0  0  0  0  0  0  0  0
   49.4050   30.6500   37.2750 N   0  0  0  0  0  0  0  0  0  0  0  0
   49.2730   29.7860   38.3000 C   0  0  0  0  0  3  0  0  0  0  0  0
   49.0740   30.1520   39.5800 N   0  0  0  0  0  0  0  0  0  0  0  0
  1  2  1  1  0  0  0
  1 18  1  0  0  0  0
  2  8  1  0  0  0  0
  3  2  1  0  0  0  0
  3  9  1  0  0  0  0
  3  4  1  0  0  0  0
  4 11  1  0  0  0  0
  5  4  1  0  0  0  0
  5 13  1  0  0  0  0
  6 15  1  1  0  0  0
  6  1  1  0  0  0  0
  6  5  1  0  0  0  0
  7  2  1  0  0  0  0
 10  3  1  0  0  0  0
 12  4  1  0  0  0  0
 14  5  1  0  0  0  0
 16 19  1  6  0  0  0
 16 18  1  0  0  0  0
 16 24  1  0  0  0  0
 17 16  1  0  0  0  0
 17 18  1  0  0  0  0
 17 21  1  0  0  0  0
 18 22  1  1  0  0  0
 20 17  1  0  0  0  0
 23 28  1  0  0  0  0
 24 23  2  0  0  0  0
 24 25  1  0  0  0  0
 25 26  2  0  0  0  0
 27 26  1  0  0  0  0
 27 31  1  0  0  0  0
 28 27  2  0  0  0  0
 29 23  1  0  0  0  0
 30 25  1  0  0  0  0
 32  6  1  0  0  0  0
 33 32  2  0  0  0  0
 34 33  1  0  0  0  0
 35 34  1  0  0  0  0
 36 34  2  0  0  0  0
 36 37  1  0  0  0  0
 37 38  2  0  0  0  0
 38 32  1  0  0  0  0
M  END
>  <minimizedAffinity>
-4.88936996

>  <minimizedRMSD>
0.345102876

$$$$
