
 OpenBabel03242516413D

 30 31  0  0  0  0  0  0  0  0999 V2000
   49.0920   34.4290   41.8450 C   0  0  0  0  0  0  0  0  0  0  0  0
   49.1860   34.0350   42.8790 H   0  0  0  0  0  0  0  0  0  0  0  0
   49.9690   35.1070   41.6890 H   0  0  0  0  0  0  0  0  0  0  0  0
   47.7700   35.1250   41.6910 C   0  0  0  0  0  0  0  0  0  0  0  0
   47.3040   35.0310   40.7110 H   0  0  0  0  0  0  0  0  0  0  0  0
   48.0070   36.2240   41.8010 H   0  0  0  0  0  0  0  0  0  0  0  0
   44.8540   35.1280   44.0600 C   0  0  0  0  0  0  0  0  0  0  0  0
   45.6950   35.4350   42.9690 C   0  0  0  0  0  0  0  0  0  0  0  0
   46.9070   34.7910   42.8360 C   0  0  0  0  0  0  0  0  0  0  0  0
   47.2390   33.8880   43.7620 N   0  0  0  0  0  0  0  0  0  0  0  0
   46.4250   33.5950   44.8130 C   0  0  0  0  0  0  0  0  0  0  0  0
   45.2460   34.2040   44.9660 N   0  0  0  0  0  0  0  0  0  0  0  0
   43.6120   35.7670   44.2250 N   0  0  0  0  0  0  0  0  0  0  0  0
   45.3960   36.1700   42.2400 H   0  0  0  0  0  0  0  0  0  0  0  0
   46.7050   32.8500   45.5710 H   0  0  0  0  0  0  0  0  0  0  0  0
   43.4600   36.7210   43.8340 H   0  0  0  0  0  0  0  0  0  0  0  0
   42.8420   35.3030   44.7310 H   0  0  0  0  0  0  0  0  0  0  0  0
   49.1380   33.3310   41.0060 O   0  0  0  0  0  0  0  0  0  0  0  0
   49.9200   31.4860   42.6830 O   0  0  0  0  0  0  0  0  0  0  0  0
   50.3650   32.2550   41.4730 P   0  0  2  0  0  0  0  0  0  0  0  0
   51.7620   33.1560   41.7620 O   0  0  0  0  0  0  0  0  0  0  0  0
   52.3110   33.2740   40.9480 H   0  0  0  0  0  0  0  0  0  0  0  0
   50.7120   31.2280   40.1690 O   0  0  0  0  0  0  0  0  0  0  0  0
   51.9190   31.1010   39.5290 C   0  0  0  0  0  0  0  0  0  0  0  0
   52.8340   30.2450   40.1540 C   0  0  0  0  0  0  0  0  0  0  0  0
   54.0920   30.0520   39.5730 C   0  0  0  0  0  0  0  0  0  0  0  0
   54.8080   29.3870   40.0540 H   0  0  0  0  0  0  0  0  0  0  0  0
   54.4600   30.6610   38.4280 N   0  0  0  0  0  0  0  0  0  0  0  0
   53.5350   31.4870   37.8540 C   0  0  0  0  0  0  0  0  0  0  0  0
   52.3120   31.6950   38.3880 N   0  0  0  0  0  0  0  0  0  0  0  0
  1  2  1  0  0  0  0
  3  1  1  0  0  0  0
  4  6  1  0  0  0  0
  4  1  1  0  0  0  0
  4  9  1  0  0  0  0
  5  4  1  0  0  0  0
  7 13  1  0  0  0  0
  7 12  1  0  0  0  0
  8  7  2  0  0  0  0
  9  8  1  0  0  0  0
  9 10  2  0  0  0  0
 10 11  1  0  0  0  0
 11 12  2  0  0  0  0
 11 15  1  0  0  0  0
 13 17  1  0  0  0  0
 14  8  1  0  0  0  0
 16 13  1  0  0  0  0
 18 20  1  0  0  0  0
 18  1  1  0  0  0  0
 20 21  1  0  0  0  0
 20 19  2  1  0  0  0
 22 21  1  0  0  0  0
 23 20  1  0  0  0  0
 24 25  1  0  0  0  0
 24 23  1  0  0  0  0
 26 27  1  0  0  0  0
 26 25  2  0  0  0  0
 28 26  1  0  0  0  0
 29 30  1  0  0  0  0
 29 28  2  0  0  0  0
 30 24  2  0  0  0  0
M  END
>  <minimizedAffinity>
-4.86496735

>  <minimizedRMSD>
1.89491224

$$$$
