
 OpenBabel03252503503D

 19 20  0  0  0  0  0  0  0  0999 V2000
   47.5980   34.9670   42.3190 C   0  0  0  0  0  0  0  0  0  0  0  0
   47.8080   33.9760   43.2980 C   0  0  0  0  0  0  0  0  0  0  0  0
   46.7530   33.6580   44.1550 C   0  0  0  0  0  0  0  0  0  0  0  0
   45.5830   34.3100   44.0060 N   0  0  0  0  0  0  0  0  0  0  0  0
   45.3940   35.2620   43.0590 C   0  0  0  0  0  0  0  0  0  0  0  0
   46.4030   35.5840   42.2210 N   0  0  0  0  0  0  0  0  0  0  0  0
   48.7360   33.4360   43.4400 H   0  0  0  0  0  0  0  0  0  0  0  0
   44.4600   35.7990   42.9230 H   0  0  0  0  0  0  0  0  0  0  0  0
   46.9210   32.6540   45.1690 C   0  0  0  0  0  0  0  0  0  0  0  0
   46.6060   32.9430   46.4800 C   0  0  0  0  0  0  0  0  0  0  0  0
   46.7830   31.9430   47.4390 C   0  0  0  0  0  0  0  0  0  0  0  0
   46.5550   32.0940   48.5020 H   0  0  0  0  0  0  0  0  0  0  0  0
   47.2540   30.7090   47.0950 N   0  0  0  0  0  0  0  0  0  0  0  0
   47.5440   30.4790   45.8090 C   0  0  0  0  0  0  0  0  0  0  0  0
   47.3820   31.4320   44.8650 N   0  0  0  0  0  0  0  0  0  0  0  0
   48.7460   35.2870   41.4160 C   0  0  0  0  0  0  0  0  0  0  0  0
   48.3970   35.2000   40.0970 F   0  0  0  0  0  0  0  0  0  0  0  0
   49.2000   36.5600   41.7590 F   0  0  0  0  0  0  0  0  0  0  0  0
   49.8120   34.4180   41.7140 F   0  0  0  0  0  0  0  0  0  0  0  0
  1  2  1  0  0  0  0
  2  7  1  0  0  0  0
  2  3  2  0  0  0  0
  3  9  1  0  0  0  0
  4  3  1  0  0  0  0
  5  4  2  0  0  0  0
  6  1  2  0  0  0  0
  6  5  1  0  0  0  0
  8  5  1  0  0  0  0
  9 10  1  0  0  0  0
 10 11  2  0  0  0  0
 11 12  1  0  0  0  0
 13 11  1  0  0  0  0
 14 13  2  0  0  0  0
 15  9  2  0  0  0  0
 15 14  1  0  0  0  0
 16 19  1  0  0  0  0
 16 18  1  0  0  0  0
 16  1  1  0  0  0  0
 17 16  1  0  0  0  0
M  END
>  <minimizedAffinity>
-4.98194122

>  <minimizedRMSD>
0.464744598

$$$$
