
 OpenBabel03252508383D

 39 42  0  0  0  0  0  0  0  0999 V2000
   45.1500   33.9610   40.7030 C   0  0  0  0  0  0  0  0  0  0  0  0
   44.1110   33.6380   39.8820 C   0  0  0  0  0  0  0  0  0  0  0  0
   44.4110   33.1460   38.6520 C   0  0  0  0  0  0  0  0  0  0  0  0
   45.6910   32.9560   38.1870 C   0  0  0  0  0  0  0  0  0  0  0  0
   46.7190   33.2890   39.0320 C   0  0  0  0  0  0  0  0  0  0  0  0
   46.4700   33.7920   40.2910 C   0  0  0  0  0  0  0  0  0  0  0  0
   43.5780   32.8870   37.9900 H   0  0  0  0  0  0  0  0  0  0  0  0
   45.9010   32.5670   37.2130 H   0  0  0  0  0  0  0  0  0  0  0  0
   47.7410   33.1440   38.6780 H   0  0  0  0  0  0  0  0  0  0  0  0
   40.8240   35.2630   40.7860 C   0  0  0  0  0  0  0  0  0  0  0  0
   42.1200   35.0900   40.2720 C   0  0  0  0  0  0  0  0  0  0  0  0
   42.7760   33.8500   40.4000 C   0  0  0  0  0  0  0  0  0  0  0  0
   42.0630   32.8900   41.0390 N   0  0  0  0  0  0  0  0  0  0  0  0
   40.8410   33.0660   41.5190 C   0  0  0  0  0  0  0  0  0  0  0  0
   40.2170   34.2430   41.3980 N   0  0  0  0  0  0  0  0  0  0  0  0
   40.2150   36.5220   40.6310 N   0  0  0  0  0  0  0  0  0  0  0  0
   42.6360   35.8920   39.7730 H   0  0  0  0  0  0  0  0  0  0  0  0
   40.3200   32.2580   42.0210 H   0  0  0  0  0  0  0  0  0  0  0  0
   39.7110   37.1030   41.3390 H   0  0  0  0  0  0  0  0  0  0  0  0
   40.2330   36.9940   39.7000 H   0  0  0  0  0  0  0  0  0  0  0  0
   47.6270   34.1130   41.1100 C   0  0  0  0  0  0  0  0  0  0  0  0
   48.1400   35.3790   40.9540 C   0  0  0  0  0  0  0  0  0  0  0  0
   49.2460   35.8610   41.6550 C   0  0  0  0  0  0  0  0  0  0  0  0
   49.8470   35.0040   42.5520 C   0  0  0  0  0  0  0  0  0  0  0  0
   49.3520   33.7300   42.7250 C   0  0  0  0  0  0  0  0  0  0  0  0
   48.2530   33.2770   42.0170 C   0  0  0  0  0  0  0  0  0  0  0  0
   47.7000   36.0950   40.2580 H   0  0  0  0  0  0  0  0  0  0  0  0
   49.6080   36.8630   41.4960 H   0  0  0  0  0  0  0  0  0  0  0  0
   50.7190   35.3120   43.1380 H   0  0  0  0  0  0  0  0  0  0  0  0
   49.7980   33.0220   43.4230 H   0  0  0  0  0  0  0  0  0  0  0  0
   47.6710   31.9350   42.1480 C   0  0  0  0  0  0  0  0  0  0  0  0
   48.3390   31.0060   41.3460 C   0  0  0  0  0  3  0  0  0  0  0  0
   47.9530   29.6610   41.3130 C   0  0  0  0  0  0  0  0  0  0  0  0
   48.4770   28.9440   40.6870 H   0  0  0  0  0  0  0  0  0  0  0  0
   46.9140   29.2500   42.0720 N   0  0  0  0  0  0  0  0  0  0  0  0
   46.3210   30.2000   42.8190 C   0  0  0  0  0  3  0  0  0  0  0  0
   46.6490   31.5070   42.8900 N   0  0  0  0  0  0  0  0  0  0  0  0
   44.7470   34.9100   43.0990 N   0  0  0  0  0  0  0  0  0  0  0  0
   44.9350   34.4910   42.0300 C   0  0  0  0  0  0  0  0  0  0  0  0
  1 39  1  0  0  0  0
  2 12  1  0  0  0  0
  2  1  2  0  0  0  0
  3  2  1  0  0  0  0
  4  3  2  0  0  0  0
  4  5  1  0  0  0  0
  5  6  2  0  0  0  0
  6  1  1  0  0  0  0
  6 21  1  0  0  0  0
  7  3  1  0  0  0  0
  8  4  1  0  0  0  0
  9  5  1  0  0  0  0
 10 15  1  0  0  0  0
 11 12  1  0  0  0  0
 11 10  2  0  0  0  0
 12 13  2  0  0  0  0
 13 14  1  0  0  0  0
 14 18  1  0  0  0  0
 15 14  2  0  0  0  0
 16 10  1  0  0  0  0
 16 19  1  0  0  0  0
 17 11  1  0  0  0  0
 20 16  1  0  0  0  0
 21 26  1  0  0  0  0
 22 21  2  0  0  0  0
 22 23  1  0  0  0  0
 23 24  2  0  0  0  0
 24 25  1  0  0  0  0
 24 29  1  0  0  0  0
 25 30  1  0  0  0  0
 26 31  1  0  0  0  0
 26 25  2  0  0  0  0
 27 22  1  0  0  0  0
 28 23  1  0  0  0  0
 31 37  1  0  0  0  0
 32 31  2  0  0  0  0
 33 32  1  0  0  0  0
 33 35  2  0  0  0  0
 34 33  1  0  0  0  0
 35 36  1  0  0  0  0
 36 37  2  0  0  0  0
 39 38  3  0  0  0  0
M  END
>  <minimizedAffinity>
-5.95579004

>  <minimizedRMSD>
0.0866401866

$$$$
