
 OpenBabel03242521273D

 33 35  0  0  1  0  0  0  0  0999 V2000
   48.0730   33.4450   42.5750 C   0  0  1  0  0  0  0  0  0  0  0  0
   46.6070   33.7170   42.3280 C   0  0  2  0  0  0  0  0  0  0  0  0
   46.4170   34.6740   41.3530 O   0  0  0  0  0  0  0  0  0  0  0  0
   46.7810   34.0850   40.1530 C   0  0  0  0  0  0  0  0  0  0  0  0
   48.2850   33.9740   40.1210 C   0  0  2  0  0  0  0  0  0  0  0  0
   48.8890   33.3580   41.3310 C   0  0  2  0  0  0  0  0  0  0  0  0
   48.1060   32.4360   43.0850 H   0  0  0  0  0  0  0  0  0  0  0  0
   46.1780   32.7530   41.9800 H   0  0  0  0  0  0  0  0  0  0  0  0
   46.3790   33.0460   40.0660 H   0  0  0  0  0  0  0  0  0  0  0  0
   46.4890   34.7040   39.2700 H   0  0  0  0  0  0  0  0  0  0  0  0
   48.5700   33.3980   39.2130 H   0  0  0  0  0  0  0  0  0  0  0  0
   49.8470   33.9150   41.5340 H   0  0  0  0  0  0  0  0  0  0  0  0
   44.5560   35.7100   44.8160 C   0  0  0  0  0  0  0  0  0  0  0  0
   45.1550   35.3250   43.6070 C   0  0  0  0  0  0  0  0  0  0  0  0
   45.9500   34.1430   43.5730 C   0  0  0  0  0  0  0  0  0  0  0  0
   46.0810   33.4500   44.7250 N   0  0  0  0  0  0  0  0  0  0  0  0
   45.4910   33.8440   45.8780 C   0  0  0  0  0  0  0  0  0  0  0  0
   44.7310   34.9680   45.9240 N   0  0  0  0  0  0  0  0  0  0  0  0
   43.9810   36.6210   44.7070 H   0  0  0  0  0  0  0  0  0  0  0  0
   45.0770   35.8490   42.6650 H   0  0  0  0  0  0  0  0  0  0  0  0
   45.6090   33.2740   46.7920 H   0  0  0  0  0  0  0  0  0  0  0  0
   48.6210   34.3290   43.5140 O   0  0  0  0  0  0  0  0  0  0  0  0
   49.3970   33.9690   43.9710 H   0  0  0  0  0  0  0  0  0  0  0  0
   48.7520   35.2790   39.9240 O   0  0  0  0  0  0  0  0  0  0  0  0
   49.3640   35.3410   39.1500 H   0  0  0  0  0  0  0  0  0  0  0  0
   49.3250   32.0340   41.0920 O   0  0  0  0  0  0  0  0  0  0  0  0
   50.4490   31.7450   40.3240 C   0  0  0  0  0  0  0  0  0  0  0  0
   50.4230   31.4680   38.9740 C   0  0  0  0  0  3  0  0  0  0  0  0
   51.6130   31.1960   38.3230 C   0  0  0  0  0  0  0  0  0  0  0  0
   51.5930   30.9810   37.2690 H   0  0  0  0  0  0  0  0  0  0  0  0
   52.8040   31.1920   38.9730 N   0  0  0  0  0  0  0  0  0  0  0  0
   52.7920   31.4660   40.2920 C   0  0  0  0  0  3  0  0  0  0  0  0
   51.6620   31.7330   40.9520 N   0  0  0  0  0  0  0  0  0  0  0  0
  1  7  1  1  0  0  0
  1 22  1  0  0  0  0
  2  8  1  6  0  0  0
  2  1  1  0  0  0  0
  2 15  1  0  0  0  0
  3  2  1  0  0  0  0
  4  3  1  0  0  0  0
  5 11  1  6  0  0  0
  5  4  1  0  0  0  0
  5  6  1  0  0  0  0
  6 12  1  1  0  0  0
  6  1  1  0  0  0  0
  9  4  1  0  0  0  0
 10  4  1  0  0  0  0
 13 18  1  0  0  0  0
 14 13  2  0  0  0  0
 15 14  1  0  0  0  0
 15 16  2  0  0  0  0
 16 17  1  0  0  0  0
 17 18  2  0  0  0  0
 17 21  1  0  0  0  0
 19 13  1  0  0  0  0
 20 14  1  0  0  0  0
 22 23  1  0  0  0  0
 24  5  1  0  0  0  0
 25 24  1  0  0  0  0
 26  6  1  0  0  0  0
 27 33  1  0  0  0  0
 27 26  1  0  0  0  0
 28 27  2  0  0  0  0
 29 31  2  0  0  0  0
 29 28  1  0  0  0  0
 30 29  1  0  0  0  0
 31 32  1  0  0  0  0
 32 33  2  0  0  0  0
M  END
>  <minimizedAffinity>
-5.6364336

>  <minimizedRMSD>
1.14661503

$$$$
