
 OpenBabel03252505153D

 23 25  0  0  0  0  0  0  0  0999 V2000
   44.5270   35.9290   44.5500 C   0  0  0  0  0  0  0  0  0  0  0  0
   45.1750   35.9030   43.3030 C   0  0  0  0  0  0  0  0  0  0  0  0
   46.0990   34.8830   43.1270 C   0  0  0  0  0  0  0  0  0  0  0  0
   46.3450   33.9730   44.1270 N   0  0  0  0  0  0  0  0  0  0  0  0
   45.6840   34.0490   45.3190 C   0  0  0  0  0  0  0  0  0  0  0  0
   44.7840   35.0300   45.5080 N   0  0  0  0  0  0  0  0  0  0  0  0
   43.8060   36.7370   44.6690 H   0  0  0  0  0  0  0  0  0  0  0  0
   44.9760   36.6220   42.5210 H   0  0  0  0  0  0  0  0  0  0  0  0
   46.8380   34.7360   41.8240 C   0  0  0  0  0  0  0  0  0  0  0  0
   48.2080   35.3790   41.8490 C   0  0  0  0  0  0  0  0  0  0  0  0
   47.9910   33.8470   41.7770 C   0  0  0  0  0  0  0  0  0  0  0  0
   46.2400   34.8770   40.8890 H   0  0  0  0  0  0  0  0  0  0  0  0
   48.4860   35.8870   40.9230 H   0  0  0  0  0  0  0  0  0  0  0  0
   48.5680   35.8280   42.7720 H   0  0  0  0  0  0  0  0  0  0  0  0
   48.3080   33.3590   42.7390 H   0  0  0  0  0  0  0  0  0  0  0  0
   48.3250   33.3280   40.8580 H   0  0  0  0  0  0  0  0  0  0  0  0
   45.9610   33.0700   46.3650 C   0  0  0  0  0  0  0  0  0  0  0  0
   46.9930   32.1790   46.2090 C   0  0  0  0  0  0  0  0  0  0  0  0
   47.2150   31.2740   47.2240 C   0  0  0  0  0  0  0  0  0  0  0  0
   47.9800   30.5240   47.2410 H   0  0  0  0  0  0  0  0  0  0  0  0
   46.4410   31.2620   48.3420 N   0  0  0  0  0  0  0  0  0  0  0  0
   45.4390   32.1530   48.4550 C   0  0  0  0  0  0  0  0  0  0  0  0
   45.1910   33.0630   47.4690 N   0  0  0  0  0  0  0  0  0  0  0  0
  1  7  1  0  0  0  0
  1  6  1  0  0  0  0
  2  1  2  0  0  0  0
  3  2  1  0  0  0  0
  3  4  2  0  0  0  0
  4  5  1  0  0  0  0
  5  6  2  0  0  0  0
  5 17  1  0  0  0  0
  8  2  1  0  0  0  0
  9 10  1  0  0  0  0
  9  3  1  0  0  0  0
 10 14  1  0  0  0  0
 11  9  1  0  0  0  0
 11 10  1  0  0  0  0
 11 15  1  0  0  0  0
 12  9  1  0  0  0  0
 13 10  1  0  0  0  0
 16 11  1  0  0  0  0
 17 23  1  0  0  0  0
 18 17  2  0  0  0  0
 18 19  1  0  0  0  0
 19 20  1  0  0  0  0
 19 21  2  0  0  0  0
 21 22  1  0  0  0  0
 23 22  2  0  0  0  0
M  END
>  <minimizedAffinity>
-5.16498137

>  <minimizedRMSD>
0.348822474

$$$$
