
 OpenBabel03252508543D

 41 44  0  0  1  0  0  0  0  0999 V2000
   43.2840   34.4250   40.7130 C   0  0  0  0  0  0  0  0  0  0  0  0
   43.2680   35.5870   40.1860 O   0  0  0  0  0  0  0  0  0  0  0  0
   41.8970   34.0430   40.5120 N   0  0  0  0  0  0  0  0  0  0  0  0
   41.4760   33.9930   39.1320 C   0  0  0  0  0  0  0  0  0  0  0  0
   40.7260   35.3220   38.8980 C   0  0  0  0  0  0  0  0  0  0  0  0
   39.9910   35.6350   40.2140 C   0  0  0  0  0  0  0  0  0  0  0  0
   39.6100   34.3590   40.9330 C   0  0  0  0  0  0  0  0  0  0  0  0
   40.8830   33.7070   41.4930 C   0  0  1  0  0  0  0  0  0  0  0  0
   42.3030   33.9910   38.4030 H   0  0  0  0  0  0  0  0  0  0  0  0
   40.7460   33.1720   38.9490 H   0  0  0  0  0  0  0  0  0  0  0  0
   39.9820   35.1920   38.0680 H   0  0  0  0  0  0  0  0  0  0  0  0
   41.4380   36.1340   38.6880 H   0  0  0  0  0  0  0  0  0  0  0  0
   40.6540   36.2740   40.8380 H   0  0  0  0  0  0  0  0  0  0  0  0
   39.0740   36.1550   39.9090 H   0  0  0  0  0  0  0  0  0  0  0  0
   38.9020   34.6440   41.7330 H   0  0  0  0  0  0  0  0  0  0  0  0
   39.1280   33.7170   40.1820 H   0  0  0  0  0  0  0  0  0  0  0  0
   41.1560   34.2540   42.4170 H   0  0  0  0  0  0  0  0  0  0  0  0
   40.6930   32.2540   41.6800 C   0  0  0  0  0  0  0  0  0  0  0  0
   41.6560   31.3430   42.0490 C   0  0  0  0  0  3  0  0  0  0  0  0
   41.4140   30.0030   42.2060 C   0  0  0  0  0  0  0  0  0  0  0  0
   42.2650   29.3710   42.5040 H   0  0  0  0  0  0  0  0  0  0  0  0
   40.1720   29.5380   41.9900 N   0  0  0  0  0  0  0  0  0  0  0  0
   39.1960   30.4130   41.6250 C   0  0  0  0  0  3  0  0  0  0  0  0
   39.4490   31.7380   41.4720 N   0  0  0  0  0  0  0  0  0  0  0  0
   44.3490   33.8010   41.2810 O   0  0  0  0  0  0  0  0  0  0  0  0
   45.6800   34.0990   41.1170 C   0  0  0  0  0  0  0  0  0  0  0  0
   46.3330   34.7130   42.1880 C   0  0  0  0  0  0  0  0  0  0  0  0
   47.6940   35.0140   42.0130 C   0  0  0  0  0  0  0  0  0  0  0  0
   48.2800   34.6900   40.8170 N   0  0  0  0  0  0  0  0  0  0  0  0
   47.6060   34.1070   39.8360 C   0  0  0  0  0  0  0  0  0  0  0  0
   46.3060   33.8090   39.9790 N   0  0  0  0  0  0  0  0  0  0  0  0
   48.2210   35.4910   42.8320 H   0  0  0  0  0  0  0  0  0  0  0  0
   48.1650   33.8900   38.9230 H   0  0  0  0  0  0  0  0  0  0  0  0
   45.6150   35.0130   43.4130 C   0  0  0  0  0  0  0  0  0  0  0  0
   44.9980   36.2510   43.6360 C   0  0  0  0  0  0  0  0  0  0  0  0
   44.4460   36.1180   44.8870 C   0  0  0  0  0  0  0  0  0  0  0  0
   44.7040   34.9000   45.3830 N   0  0  0  0  0  0  0  0  0  0  0  0
   45.4090   34.2490   44.4800 N   0  0  0  0  0  0  0  0  0  0  0  0
   44.9270   37.1440   43.0280 H   0  0  0  0  0  0  0  0  0  0  0  0
   43.8630   36.8140   45.4980 H   0  0  0  0  0  0  0  0  0  0  0  0
   44.5000   34.3650   46.2550 H   0  0  0  0  0  0  0  0  0  0  0  0
  1 25  1  0  0  0  0
  2  1  2  0  0  0  0
  3  1  1  0  0  0  0
  3  8  1  0  0  0  0
  4  3  1  0  0  0  0
  5  4  1  0  0  0  0
  5  6  1  0  0  0  0
  6 13  1  0  0  0  0
  6  7  1  0  0  0  0
  7  8  1  0  0  0  0
  7 15  1  0  0  0  0
  8 18  1  0  0  0  0
  8 17  1  1  0  0  0
  9  4  1  0  0  0  0
 10  4  1  0  0  0  0
 11  5  1  0  0  0  0
 12  5  1  0  0  0  0
 14  6  1  0  0  0  0
 16  7  1  0  0  0  0
 18 19  1  0  0  0  0
 19 20  2  0  0  0  0
 20 21  1  0  0  0  0
 22 20  1  0  0  0  0
 23 22  2  0  0  0  0
 24 23  1  0  0  0  0
 24 18  2  0  0  0  0
 26 25  1  0  0  0  0
 26 27  1  0  0  0  0
 27 34  1  0  0  0  0
 28 27  2  0  0  0  0
 28 32  1  0  0  0  0
 29 28  1  0  0  0  0
 30 31  1  0  0  0  0
 30 29  2  0  0  0  0
 31 26  2  0  0  0  0
 33 30  1  0  0  0  0
 34 35  1  0  0  0  0
 34 38  2  0  0  0  0
 35 36  2  0  0  0  0
 36 37  1  0  0  0  0
 36 40  1  0  0  0  0
 37 41  1  0  0  0  0
 38 37  1  0  0  0  0
 39 35  1  0  0  0  0
M  END
>  <minimizedAffinity>
-6.70937586

>  <minimizedRMSD>
0.657644749

$$$$
