
 OpenBabel03242518353D

 33 36  0  0  1  0  0  0  0  0999 V2000
   47.5110   33.7250   39.6710 C   0  0  0  0  0  0  0  0  0  0  0  0
   48.3510   34.4480   38.8320 C   0  0  0  0  0  0  0  0  0  0  0  0
   47.9350   34.2620   37.5200 C   0  0  0  0  0  0  0  0  0  0  0  0
   46.8530   33.4270   37.6310 C   0  0  0  0  0  0  0  0  0  0  0  0
   46.6110   33.1160   38.8890 O   0  0  0  0  0  0  0  0  0  0  0  0
   49.1760   35.0390   39.2110 H   0  0  0  0  0  0  0  0  0  0  0  0
   48.3910   34.6970   36.6410 H   0  0  0  0  0  0  0  0  0  0  0  0
   46.0580   32.9400   36.4930 C   0  0  2  0  0  0  0  0  0  0  0  0
   45.3530   31.6450   36.6060 C   0  0  0  0  0  0  0  0  0  0  0  0
   46.6330   31.6570   35.8480 C   0  0  2  0  0  0  0  0  0  0  0  0
   45.8140   33.7230   35.7410 H   0  0  0  0  0  0  0  0  0  0  0  0
   44.3930   31.5330   36.0240 H   0  0  0  0  0  0  0  0  0  0  0  0
   45.3200   31.1790   37.6030 H   0  0  0  0  0  0  0  0  0  0  0  0
   46.5270   31.5650   34.7490 H   0  0  0  0  0  0  0  0  0  0  0  0
   47.8780   31.1160   36.3870 C   0  0  0  0  0  0  0  0  0  0  0  0
   49.0600   31.3830   35.6870 C   0  0  0  0  0  0  0  0  0  0  0  0
   50.2970   30.9220   36.1040 C   0  0  0  0  0  0  0  0  0  0  0  0
   51.1940   31.1560   35.5260 H   0  0  0  0  0  0  0  0  0  0  0  0
   50.3380   30.1820   37.2460 N   0  0  0  0  0  0  0  0  0  0  0  0
   49.1910   29.9170   37.9360 C   0  0  0  0  0  0  0  0  0  0  0  0
   48.0010   30.3850   37.4940 N   0  0  0  0  0  0  0  0  0  0  0  0
   47.5010   33.5820   41.0740 O   0  0  0  0  0  0  0  0  0  0  0  0
   47.5290   34.7340   41.8910 C   0  0  0  0  0  0  0  0  0  0  0  0
   48.3550   35.6210   41.5650 O   0  0  0  0  0  0  0  0  0  0  0  0
   46.6170   34.7480   42.9860 C   0  0  0  0  0  0  0  0  0  0  0  0
   45.6630   35.7260   42.9170 C   0  0  0  0  0  0  0  0  0  0  0  0
   44.7300   35.8010   43.9610 C   0  0  0  0  0  0  0  0  0  0  0  0
   44.8230   34.9140   44.9650 N   0  0  0  0  0  0  0  0  0  0  0  0
   45.7710   33.9710   44.9960 C   0  0  0  0  0  0  0  0  0  0  0  0
   46.6570   33.9060   43.9990 N   0  0  0  0  0  0  0  0  0  0  0  0
   45.5570   36.4630   42.1180 H   0  0  0  0  0  0  0  0  0  0  0  0
   43.9510   36.5750   43.9340 H   0  0  0  0  0  0  0  0  0  0  0  0
   45.7900   33.2890   45.8350 H   0  0  0  0  0  0  0  0  0  0  0  0
  1 22  1  0  0  0  0
  2  6  1  0  0  0  0
  2  1  2  0  0  0  0
  3  4  2  0  0  0  0
  3  2  1  0  0  0  0
  4  5  1  0  0  0  0
  5  1  1  0  0  0  0
  7  3  1  0  0  0  0
  8 11  1  6  0  0  0
  8  9  1  0  0  0  0
  8  4  1  0  0  0  0
  9 13  1  0  0  0  0
 10 14  1  6  0  0  0
 10 15  1  0  0  0  0
 10  8  1  0  0  0  0
 10  9  1  0  0  0  0
 12  9  1  0  0  0  0
 15 21  1  0  0  0  0
 16 17  1  0  0  0  0
 16 15  2  0  0  0  0
 17 19  2  0  0  0  0
 18 17  1  0  0  0  0
 19 20  1  0  0  0  0
 21 20  2  0  0  0  0
 22 23  1  0  0  0  0
 23 25  1  0  0  0  0
 24 23  2  0  0  0  0
 25 30  1  0  0  0  0
 26 25  2  0  0  0  0
 26 27  1  0  0  0  0
 27 28  2  0  0  0  0
 28 29  1  0  0  0  0
 29 33  1  0  0  0  0
 30 29  2  0  0  0  0
 31 26  1  0  0  0  0
 32 27  1  0  0  0  0
M  END
>  <minimizedAffinity>
-4.56449747

>  <minimizedRMSD>
0.956241906

$$$$
