
 OpenBabel03252507583D

 25 27  0  0  1  0  0  0  0  0999 V2000
   46.5230   32.3800   46.1180 C   0  0  1  0  0  0  0  0  0  0  0  0
   46.8560   32.5770   47.5570 C   0  0  0  0  0  0  0  0  0  0  0  0
   45.5460   31.9830   47.1820 C   0  0  2  0  0  0  0  0  0  0  0  0
   47.1510   31.6870   45.5540 H   0  0  0  0  0  0  0  0  0  0  0  0
   46.8170   33.6270   47.9330 H   0  0  0  0  0  0  0  0  0  0  0  0
   47.6760   31.9840   47.9570 H   0  0  0  0  0  0  0  0  0  0  0  0
   44.6330   32.5650   47.3370 H   0  0  0  0  0  0  0  0  0  0  0  0
   46.2030   34.7650   43.3510 C   0  0  0  0  0  0  0  0  0  0  0  0
   45.2190   35.6710   43.8040 C   0  0  0  0  0  0  0  0  0  0  0  0
   44.6630   35.4450   45.0760 C   0  0  0  0  0  0  0  0  0  0  0  0
   45.1040   34.3750   45.7890 N   0  0  0  0  0  0  0  0  0  0  0  0
   46.0590   33.5390   45.2890 C   0  0  0  0  0  0  0  0  0  0  0  0
   46.6140   33.7120   44.0910 N   0  0  0  0  0  0  0  0  0  0  0  0
   44.8820   36.5030   43.2390 H   0  0  0  0  0  0  0  0  0  0  0  0
   43.9100   36.1010   45.4760 H   0  0  0  0  0  0  0  0  0  0  0  0
   46.7260   35.0630   42.0520 C   0  0  0  0  0  0  0  0  0  0  0  0
   47.9180   35.4130   41.8010 O   0  0  0  0  0  0  0  0  0  0  0  0
   45.9470   34.9450   41.2960 H   0  0  0  0  0  0  0  0  0  0  0  0
   45.3610   30.4960   47.2790 C   0  0  0  0  0  0  0  0  0  0  0  0
   45.3570   29.7010   46.1410 C   0  0  0  0  0  3  0  0  0  0  0  0
   45.1810   28.3460   46.3310 C   0  0  0  0  0  0  0  0  0  0  0  0
   45.1790   27.7300   45.4380 H   0  0  0  0  0  0  0  0  0  0  0  0
   45.0160   27.7600   47.5300 N   0  0  0  0  0  0  0  0  0  0  0  0
   45.0250   28.5630   48.6120 C   0  0  0  0  0  3  0  0  0  0  0  0
   45.1940   29.8910   48.4710 N   0  0  0  0  0  0  0  0  0  0  0  0
  1  4  1  6  0  0  0
  1  3  1  0  0  0  0
  1  2  1  0  0  0  0
  2  5  1  0  0  0  0
  2  6  1  0  0  0  0
  3 19  1  0  0  0  0
  3  7  1  1  0  0  0
  3  2  1  0  0  0  0
  8  9  2  0  0  0  0
  8 13  1  0  0  0  0
  9 10  1  0  0  0  0
 10 15  1  0  0  0  0
 10 11  2  0  0  0  0
 12 11  1  0  0  0  0
 12  1  1  0  0  0  0
 13 12  2  0  0  0  0
 14  9  1  0  0  0  0
 16  8  1  0  0  0  0
 17 16  2  0  0  0  0
 18 16  1  0  0  0  0
 19 25  1  0  0  0  0
 20 21  1  0  0  0  0
 20 19  2  0  0  0  0
 21 23  2  0  0  0  0
 22 21  1  0  0  0  0
 23 24  1  0  0  0  0
 25 24  2  0  0  0  0
M  END
>  <minimizedAffinity>
-4.34897518

>  <minimizedRMSD>
1.0790168

$$$$
