
 OpenBabel03242520153D

 23 25  0  0  0  0  0  0  0  0999 V2000
   45.4950   34.5340   44.1410 C   0  0  0  0  0  0  0  0  0  0  0  0
   46.5530   34.2310   43.2630 C   0  0  0  0  0  0  0  0  0  0  0  0
   47.4930   33.2690   43.6850 C   0  0  0  0  0  0  0  0  0  0  0  0
   47.3350   32.6880   44.9080 N   0  0  0  0  0  0  0  0  0  0  0  0
   46.2940   33.0170   45.7160 C   0  0  0  0  0  0  0  0  0  0  0  0
   45.3740   33.9440   45.3270 N   0  0  0  0  0  0  0  0  0  0  0  0
   46.6640   34.6920   42.3150 H   0  0  0  0  0  0  0  0  0  0  0  0
   46.2770   32.4860   46.6640 H   0  0  0  0  0  0  0  0  0  0  0  0
   44.4860   35.5340   43.7300 C   0  0  0  0  0  0  0  0  0  0  0  0
   45.0970   36.8990   43.3190 C   0  0  0  0  0  0  0  0  0  0  0  0
   44.3500   36.0090   42.3710 C   0  0  0  0  0  0  0  0  0  0  0  0
   43.6250   35.6140   44.4310 H   0  0  0  0  0  0  0  0  0  0  0  0
   44.5150   37.8070   43.5980 H   0  0  0  0  0  0  0  0  0  0  0  0
   46.1880   36.9590   43.2550 H   0  0  0  0  0  0  0  0  0  0  0  0
   44.9900   35.5930   41.5560 H   0  0  0  0  0  0  0  0  0  0  0  0
   43.3310   36.3120   42.0020 H   0  0  0  0  0  0  0  0  0  0  0  0
   48.6300   32.8670   42.8760 C   0  0  0  0  0  0  0  0  0  0  0  0
   48.6470   31.7520   42.0680 C   0  0  0  0  0  0  0  0  0  0  0  0
   49.7050   31.3540   41.2980 C   0  0  0  0  0  0  0  0  0  0  0  0
   49.6700   30.4680   40.6770 H   0  0  0  0  0  0  0  0  0  0  0  0
   50.8210   32.1140   41.3300 N   0  0  0  0  0  0  0  0  0  0  0  0
   50.8230   33.2240   42.1250 C   0  0  0  0  0  0  0  0  0  0  0  0
   49.7670   33.5850   42.8680 N   0  0  0  0  0  0  0  0  0  0  0  0
  1  6  1  0  0  0  0
  2  3  1  0  0  0  0
  2  1  2  0  0  0  0
  3  4  2  0  0  0  0
  4  5  1  0  0  0  0
  5  8  1  0  0  0  0
  6  5  2  0  0  0  0
  7  2  1  0  0  0  0
  9  1  1  0  0  0  0
  9 12  1  0  0  0  0
 10 13  1  0  0  0  0
 10  9  1  0  0  0  0
 11 10  1  0  0  0  0
 11  9  1  0  0  0  0
 14 10  1  0  0  0  0
 15 11  1  0  0  0  0
 16 11  1  0  0  0  0
 17  3  1  0  0  0  0
 18 17  2  0  0  0  0
 19 21  2  0  0  0  0
 19 18  1  0  0  0  0
 20 19  1  0  0  0  0
 21 22  1  0  0  0  0
 22 23  2  0  0  0  0
 23 17  1  0  0  0  0
M  END
>  <minimizedAffinity>
-3.9639802

>  <minimizedRMSD>
1.90533531

$$$$
