
 OpenBabel03252508363D

 29 31  0  0  0  0  0  0  0  0999 V2000
   45.6450   33.9410   40.2170 C   0  0  0  0  0  0  0  0  0  0  0  0
   44.7670   34.4210   41.1810 C   0  0  0  0  0  0  0  0  0  0  0  0
   45.3090   35.0440   42.2620 C   0  0  0  0  0  0  0  0  0  0  0  0
   46.6780   35.2120   42.4290 C   0  0  0  0  0  0  0  0  0  0  0  0
   47.5140   34.7250   41.4560 C   0  0  0  0  0  0  0  0  0  0  0  0
   47.0030   34.0930   40.3560 C   0  0  0  0  0  0  0  0  0  0  0  0
   44.6290   35.4240   43.0230 H   0  0  0  0  0  0  0  0  0  0  0  0
   47.0420   35.7190   43.3180 H   0  0  0  0  0  0  0  0  0  0  0  0
   48.5610   34.8840   41.6400 H   0  0  0  0  0  0  0  0  0  0  0  0
   41.3050   32.9150   41.2390 C   0  0  0  0  0  0  0  0  0  0  0  0
   42.6740   33.0950   41.4820 C   0  0  0  0  0  0  0  0  0  0  0  0
   43.3510   34.2110   40.9450 C   0  0  0  0  0  0  0  0  0  0  0  0
   42.5890   35.0500   40.2080 N   0  0  0  0  0  0  0  0  0  0  0  0
   41.2890   34.8680   39.9840 C   0  0  0  0  0  0  0  0  0  0  0  0
   40.6480   33.7900   40.5060 N   0  0  0  0  0  0  0  0  0  0  0  0
   40.6750   31.7880   41.7910 N   0  0  0  0  0  0  0  0  0  0  0  0
   43.2290   32.3760   42.0870 H   0  0  0  0  0  0  0  0  0  0  0  0
   40.8030   35.6200   39.3760 H   0  0  0  0  0  0  0  0  0  0  0  0
   40.9960   31.2390   42.6180 H   0  0  0  0  0  0  0  0  0  0  0  0
   39.7950   31.4430   41.3510 H   0  0  0  0  0  0  0  0  0  0  0  0
   47.8900   33.5740   39.3220 C   0  0  0  0  0  0  0  0  0  0  0  0
   48.1360   34.2140   38.1400 C   0  0  0  0  0  3  0  0  0  0  0  0
   48.9730   33.7260   37.1580 C   0  0  0  0  0  0  0  0  0  0  0  0
   49.1450   34.2680   36.2260 H   0  0  0  0  0  0  0  0  0  0  0  0
   49.6020   32.5590   37.3360 N   0  0  0  0  0  0  0  0  0  0  0  0
   49.3750   31.9070   38.4960 C   0  0  0  0  0  3  0  0  0  0  0  0
   48.5540   32.4040   39.4350 N   0  0  0  0  0  0  0  0  0  0  0  0
   44.7480   32.7450   38.0680 N   0  0  0  0  0  0  0  0  0  0  0  0
   45.1530   33.2780   39.0470 C   0  0  0  0  0  0  0  0  0  0  0  0
  1  6  2  0  0  0  0
  1  2  1  0  0  0  0
  2  3  2  0  0  0  0
  3  4  1  0  0  0  0
  3  7  1  0  0  0  0
  4  8  1  0  0  0  0
  5  9  1  0  0  0  0
  5  4  2  0  0  0  0
  6  5  1  0  0  0  0
 10 11  1  0  0  0  0
 10 16  1  0  0  0  0
 11 17  1  0  0  0  0
 12  2  1  0  0  0  0
 12 11  2  0  0  0  0
 13 12  1  0  0  0  0
 14 13  2  0  0  0  0
 14 15  1  0  0  0  0
 15 10  2  0  0  0  0
 16 19  1  0  0  0  0
 18 14  1  0  0  0  0
 20 16  1  0  0  0  0
 21 27  1  0  0  0  0
 21  6  1  0  0  0  0
 22 21  2  0  0  0  0
 23 25  2  0  0  0  0
 23 22  1  0  0  0  0
 24 23  1  0  0  0  0
 25 26  1  0  0  0  0
 26 27  2  0  0  0  0
 28 29  3  0  0  0  0
 29  1  1  0  0  0  0
M  END
>  <minimizedAffinity>
-4.9641757

>  <minimizedRMSD>
4.47073126

$$$$
