
 OpenBabel03252509293D

 19 20  0  0  0  0  0  0  0  0999 V2000
   46.9500   34.9950   41.8610 C   0  0  0  0  0  0  0  0  0  0  0  0
   48.0150   34.7900   42.0960 H   0  0  0  0  0  0  0  0  0  0  0  0
   46.9680   36.0350   41.4250 H   0  0  0  0  0  0  0  0  0  0  0  0
   44.5800   36.0370   44.5370 C   0  0  0  0  0  0  0  0  0  0  0  0
   45.3240   36.0340   43.3280 C   0  0  0  0  0  0  0  0  0  0  0  0
   46.1960   34.9780   43.1120 C   0  0  0  0  0  0  0  0  0  0  0  0
   46.3030   33.9990   44.0590 N   0  0  0  0  0  0  0  0  0  0  0  0
   45.5750   34.0450   45.1950 C   0  0  0  0  0  0  0  0  0  0  0  0
   44.7220   35.0550   45.4320 N   0  0  0  0  0  0  0  0  0  0  0  0
   43.9130   36.8820   44.6600 H   0  0  0  0  0  0  0  0  0  0  0  0
   45.2000   36.8270   42.6220 H   0  0  0  0  0  0  0  0  0  0  0  0
   45.7310   33.2120   45.8930 H   0  0  0  0  0  0  0  0  0  0  0  0
   46.5260   34.0090   40.8500 C   0  0  0  0  0  0  0  0  0  0  0  0
   45.1900   33.9400   40.5000 C   0  0  0  0  0  3  0  0  0  0  0  0
   44.6980   33.0380   39.5550 C   0  0  0  0  0  0  0  0  0  0  0  0
   43.6810   32.9510   39.2560 H   0  0  0  0  0  0  0  0  0  0  0  0
   45.5740   32.2070   38.9660 N   0  0  0  0  0  0  0  0  0  0  0  0
   46.8690   32.2710   39.3030 C   0  0  0  0  0  3  0  0  0  0  0  0
   47.3750   33.1420   40.2230 N   0  0  0  0  0  0  0  0  0  0  0  0
  1  2  1  0  0  0  0
  1  6  1  0  0  0  0
  3  1  1  0  0  0  0
  4 10  1  0  0  0  0
  4  9  1  0  0  0  0
  5  4  2  0  0  0  0
  6  5  1  0  0  0  0
  6  7  2  0  0  0  0
  7  8  1  0  0  0  0
  8  9  2  0  0  0  0
  8 12  1  0  0  0  0
 11  5  1  0  0  0  0
 13  1  1  0  0  0  0
 14 13  1  0  0  0  0
 15 14  2  0  0  0  0
 16 15  1  0  0  0  0
 17 18  2  0  0  0  0
 17 15  1  0  0  0  0
 18 19  1  0  0  0  0
 19 13  2  0  0  0  0
M  END
>  <minimizedAffinity>
-3.69931197

>  <minimizedRMSD>
0.423322201

$$$$
