
 OpenBabel03252507223D

 45 48  0  0  1  0  0  0  0  0999 V2000
   46.2470   30.7670   43.8680 C   0  0  0  0  0  0  0  0  0  0  0  0
   45.0040   30.9140   44.0410 O   0  0  0  0  0  0  0  0  0  0  0  0
   47.0780   31.7460   43.2680 N   0  0  0  0  0  0  0  0  0  0  0  0
   48.4130   32.2280   43.6590 C   0  0  0  0  0  0  0  0  0  0  0  0
   49.3520   32.1430   42.4610 C   0  0  0  0  0  0  0  0  0  0  0  0
   48.8970   33.0630   41.3800 C   0  0  0  0  0  0  0  0  0  0  0  0
   47.4790   33.5220   41.6610 C   0  0  0  0  0  0  0  0  0  0  0  0
   46.5910   32.4150   42.0970 C   0  0  2  0  0  0  0  0  0  0  0  0
   48.8090   31.5360   44.4370 H   0  0  0  0  0  0  0  0  0  0  0  0
   48.3710   33.2840   43.9740 H   0  0  0  0  0  0  0  0  0  0  0  0
   49.3580   31.0940   42.1070 H   0  0  0  0  0  0  0  0  0  0  0  0
   50.3610   32.3780   42.8510 H   0  0  0  0  0  0  0  0  0  0  0  0
   49.0110   32.6740   40.3530 H   0  0  0  0  0  0  0  0  0  0  0  0
   49.5270   33.9790   41.4350 H   0  0  0  0  0  0  0  0  0  0  0  0
   47.0920   33.8920   40.6690 H   0  0  0  0  0  0  0  0  0  0  0  0
   47.4450   34.3730   42.3480 H   0  0  0  0  0  0  0  0  0  0  0  0
   46.6350   31.6350   41.2740 H   0  0  0  0  0  0  0  0  0  0  0  0
   47.2240   28.5930   43.3280 C   0  0  0  0  0  0  0  0  0  0  0  0
   46.8370   29.5290   44.3140 C   0  0  0  0  0  0  0  0  0  0  0  0
   47.0300   29.2480   45.6600 C   0  0  0  0  0  0  0  0  0  0  0  0
   47.5940   28.0570   45.9730 N   0  0  0  0  0  0  0  0  0  0  0  0
   47.9730   27.1440   45.0380 C   0  0  0  0  0  0  0  0  0  0  0  0
   47.7780   27.4320   43.7310 N   0  0  0  0  0  0  0  0  0  0  0  0
   47.0550   28.8520   42.2930 H   0  0  0  0  0  0  0  0  0  0  0  0
   48.4190   26.2100   45.3540 H   0  0  0  0  0  0  0  0  0  0  0  0
   46.6170   30.2230   46.6360 C   0  0  0  0  0  0  0  0  0  0  0  0
   47.4240   31.2570   46.9680 C   0  0  0  0  0  0  0  0  0  0  0  0
   46.9970   32.1760   47.9070 C   0  0  0  0  0  0  0  0  0  0  0  0
   45.7590   32.0870   48.5360 C   0  0  0  0  0  0  0  0  0  0  0  0
   44.9720   31.0130   48.1610 C   0  0  0  0  0  0  0  0  0  0  0  0
   45.4130   30.1380   47.2490 N   0  0  0  0  0  0  0  0  0  0  0  0
   48.4060   31.4470   46.5640 H   0  0  0  0  0  0  0  0  0  0  0  0
   47.6080   33.0180   48.2020 H   0  0  0  0  0  0  0  0  0  0  0  0
   45.4200   32.8040   49.2710 H   0  0  0  0  0  0  0  0  0  0  0  0
   43.9970   30.8860   48.6140 H   0  0  0  0  0  0  0  0  0  0  0  0
   45.1700   32.8520   42.1580 C   0  0  0  0  0  0  0  0  0  0  0  0
   44.6020   32.9250   41.2390 H   0  0  0  0  0  0  0  0  0  0  0  0
   44.6040   32.1200   42.7710 H   0  0  0  0  0  0  0  0  0  0  0  0
   45.0390   34.1540   42.9400 C   0  0  0  0  0  0  0  0  0  0  0  0
   44.9990   34.1640   44.3240 C   0  0  0  0  0  3  0  0  0  0  0  0
   44.8700   35.3680   45.0040 C   0  0  0  0  0  0  0  0  0  0  0  0
   44.8370   35.3820   46.0980 H   0  0  0  0  0  0  0  0  0  0  0  0
   44.7850   36.5180   44.3090 N   0  0  0  0  0  0  0  0  0  0  0  0
   44.8290   36.4670   42.9660 C   0  0  0  0  0  3  0  0  0  0  0  0
   44.9530   35.3220   42.2710 N   0  0  0  0  0  0  0  0  0  0  0  0
  1  2  2  0  0  0  0
  1 19  1  0  0  0  0
  3  4  1  0  0  0  0
  3  1  1  0  0  0  0
  4 10  1  0  0  0  0
  4  9  1  0  0  0  0
  5 12  1  0  0  0  0
  5  4  1  0  0  0  0
  6 14  1  0  0  0  0
  6  7  1  0  0  0  0
  6  5  1  0  0  0  0
  7  8  1  0  0  0  0
  7 16  1  0  0  0  0
  8 17  1  6  0  0  0
  8 36  1  0  0  0  0
  8  3  1  0  0  0  0
 11  5  1  0  0  0  0
 13  6  1  0  0  0  0
 15  7  1  0  0  0  0
 18 23  2  0  0  0  0
 18 19  1  0  0  0  0
 19 20  2  0  0  0  0
 20 21  1  0  0  0  0
 20 26  1  0  0  0  0
 22 25  1  0  0  0  0
 22 21  2  0  0  0  0
 23 22  1  0  0  0  0
 24 18  1  0  0  0  0
 26 27  2  0  0  0  0
 26 31  1  0  0  0  0
 27 28  1  0  0  0  0
 28 33  1  0  0  0  0
 28 29  2  0  0  0  0
 29 34  1  0  0  0  0
 30 29  1  0  0  0  0
 30 35  1  0  0  0  0
 31 30  2  0  0  0  0
 32 27  1  0  0  0  0
 36 38  1  0  0  0  0
 36 39  1  0  0  0  0
 37 36  1  0  0  0  0
 39 40  1  0  0  0  0
 40 41  2  0  0  0  0
 41 42  1  0  0  0  0
 43 41  1  0  0  0  0
 44 43  2  0  0  0  0
 45 39  2  0  0  0  0
 45 44  1  0  0  0  0
M  END
>  <minimizedAffinity>
-4.44027281

>  <minimizedRMSD>
5.91443062

$$$$
