
 OpenBabel03252506493D

 27 29  0  0  0  0  0  0  0  0999 V2000
   36.6110   28.9390   41.7290 C   0  0  0  0  0  0  0  0  0  0  0  0
   35.5890   28.8690   40.7810 C   0  0  0  0  0  0  0  0  0  0  0  0
   35.5490   29.8500   39.7780 C   0  0  0  0  0  0  0  0  0  0  0  0
   36.5000   30.8140   39.7790 N   0  0  0  0  0  0  0  0  0  0  0  0
   37.4760   30.8500   40.7160 C   0  0  0  0  0  0  0  0  0  0  0  0
   37.5440   29.9180   41.6970 N   0  0  0  0  0  0  0  0  0  0  0  0
   34.8340   28.0970   40.7870 H   0  0  0  0  0  0  0  0  0  0  0  0
   34.7490   29.7800   39.0500 H   0  0  0  0  0  0  0  0  0  0  0  0
   38.4750   31.9100   40.6690 C   0  0  0  0  0  0  0  0  0  0  0  0
   39.8000   31.6350   40.8860 C   0  0  0  0  0  3  0  0  0  0  0  0
   40.7150   32.6910   40.8300 C   0  0  0  0  0  0  0  0  0  0  0  0
   41.7620   32.4730   41.0020 H   0  0  0  0  0  0  0  0  0  0  0  0
   40.3070   33.9630   40.5670 N   0  0  0  0  0  0  0  0  0  0  0  0
   38.9880   34.1600   40.3630 C   0  0  0  0  0  3  0  0  0  0  0  0
   38.0490   33.1750   40.4050 N   0  0  0  0  0  0  0  0  0  0  0  0
   36.5930   27.6540   42.9720 S   0  0  0  0  0  0  0  0  0  0  0  0
   39.7620   27.6610   43.4170 Cl  0  0  0  0  0  0  0  0  0  0  0  0
   39.0170   26.2130   42.7420 C   0  0  0  0  0  0  0  0  0  0  0  0
   37.6640   26.2980   42.5870 C   0  0  0  0  0  0  0  0  0  0  0  0
   37.0090   25.1790   42.0560 C   0  0  0  0  0  0  0  0  0  0  0  0
   37.7530   24.0550   41.7170 C   0  0  0  0  0  0  0  0  0  0  0  0
   39.1170   23.9770   41.8760 C   0  0  0  0  0  0  0  0  0  0  0  0
   39.7470   25.1020   42.4060 C   0  0  0  0  0  0  0  0  0  0  0  0
   41.4820   25.1320   42.6600 Cl  0  0  0  0  0  0  0  0  0  0  0  0
   35.9420   25.1380   41.8910 H   0  0  0  0  0  0  0  0  0  0  0  0
   37.2600   23.1750   41.3010 H   0  0  0  0  0  0  0  0  0  0  0  0
   39.6830   23.0950   41.6080 H   0  0  0  0  0  0  0  0  0  0  0  0
  1 16  1  0  0  0  0
  2  7  1  0  0  0  0
  2  1  2  0  0  0  0
  3  4  2  0  0  0  0
  3  2  1  0  0  0  0
  4  5  1  0  0  0  0
  5  6  2  0  0  0  0
  6  1  1  0  0  0  0
  8  3  1  0  0  0  0
  9  5  1  0  0  0  0
  9 10  1  0  0  0  0
 11 10  2  0  0  0  0
 11 12  1  0  0  0  0
 13 11  1  0  0  0  0
 14 15  1  0  0  0  0
 14 13  2  0  0  0  0
 15  9  2  0  0  0  0
 18 17  1  0  0  0  0
 19 18  1  0  0  0  0
 19 16  1  0  0  0  0
 20 19  2  0  0  0  0
 21 22  2  0  0  0  0
 21 20  1  0  0  0  0
 22 23  1  0  0  0  0
 23 24  1  0  0  0  0
 23 18  2  0  0  0  0
 25 20  1  0  0  0  0
 26 21  1  0  0  0  0
 27 22  1  0  0  0  0
M  END
>  <minimizedAffinity>
-5.58176279

$$$$

 OpenBabel03252506493D

 27 29  0  0  0  0  0  0  0  0999 V2000
   38.2690   26.7500   43.0760 C   0  0  0  0  0  0  0  0  0  0  0  0
   39.4880   26.4400   43.6790 C   0  0  0  0  0  0  0  0  0  0  0  0
   40.0920   25.2130   43.3580 C   0  0  0  0  0  0  0  0  0  0  0  0
   39.4630   24.3940   42.4820 N   0  0  0  0  0  0  0  0  0  0  0  0
   38.2800   24.7290   41.9180 C   0  0  0  0  0  0  0  0  0  0  0  0
   37.6710   25.9050   42.2060 N   0  0  0  0  0  0  0  0  0  0  0  0
   39.9840   27.0990   44.3770 H   0  0  0  0  0  0  0  0  0  0  0  0
   41.0390   24.9890   43.8360 H   0  0  0  0  0  0  0  0  0  0  0  0
   37.6470   23.8090   40.9810 C   0  0  0  0  0  0  0  0  0  0  0  0
   36.3810   24.0450   40.5140 C   0  0  0  0  0  3  0  0  0  0  0  0
   35.8240   23.1280   39.6170 C   0  0  0  0  0  0  0  0  0  0  0  0
   34.8220   23.3150   39.2480 H   0  0  0  0  0  0  0  0  0  0  0  0
   36.5160   22.0270   39.2130 N   0  0  0  0  0  0  0  0  0  0  0  0
   37.7560   21.8590   39.7140 C   0  0  0  0  0  3  0  0  0  0  0  0
   38.3540   22.7140   40.5890 N   0  0  0  0  0  0  0  0  0  0  0  0
   37.5660   28.3280   43.5360 S   0  0  0  0  0  0  0  0  0  0  0  0
   35.8600   29.3810   41.0420 Cl  0  0  0  0  0  0  0  0  0  0  0  0
   37.4030   30.1610   41.3870 C   0  0  0  0  0  0  0  0  0  0  0  0
   38.0610   29.6500   42.4670 C   0  0  0  0  0  0  0  0  0  0  0  0
   39.2940   30.2270   42.7970 C   0  0  0  0  0  0  0  0  0  0  0  0
   39.7820   31.2740   42.0240 C   0  0  0  0  0  0  0  0  0  0  0  0
   39.1120   31.7840   40.9370 C   0  0  0  0  0  0  0  0  0  0  0  0
   37.8870   31.1950   40.6270 C   0  0  0  0  0  0  0  0  0  0  0  0
   36.9330   31.7520   39.2660 Cl  0  0  0  0  0  0  0  0  0  0  0  0
   39.8990   29.9000   43.6310 H   0  0  0  0  0  0  0  0  0  0  0  0
   40.7410   31.7350   42.2650 H   0  0  0  0  0  0  0  0  0  0  0  0
   39.5040   32.6000   40.3440 H   0  0  0  0  0  0  0  0  0  0  0  0
  1 16  1  0  0  0  0
  1  2  1  0  0  0  0
  2  7  1  0  0  0  0
  3  2  2  0  0  0  0
  3  8  1  0  0  0  0
  4  3  1  0  0  0  0
  5  6  1  0  0  0  0
  5  4  2  0  0  0  0
  6  1  2  0  0  0  0
  9  5  1  0  0  0  0
 10  9  2  0  0  0  0
 11 10  1  0  0  0  0
 12 11  1  0  0  0  0
 13 11  2  0  0  0  0
 13 14  1  0  0  0  0
 14 15  2  0  0  0  0
 15  9  1  0  0  0  0
 17 18  1  0  0  0  0
 18 19  1  0  0  0  0
 19 20  2  0  0  0  0
 19 16  1  0  0  0  0
 20 25  1  0  0  0  0
 21 26  1  0  0  0  0
 21 20  1  0  0  0  0
 22 21  2  0  0  0  0
 23 22  1  0  0  0  0
 23 18  2  0  0  0  0
 24 23  1  0  0  0  0
 27 22  1  0  0  0  0
M  END
>  <minimizedAffinity>
-5.52902079

$$$$

 OpenBabel03252506493D

 27 29  0  0  0  0  0  0  0  0999 V2000
   37.5100   31.1940   39.6620 C   0  0  0  0  0  0  0  0  0  0  0  0
   36.9670   30.8930   38.4130 C   0  0  0  0  0  0  0  0  0  0  0  0
   37.6890   31.2680   37.2680 C   0  0  0  0  0  0  0  0  0  0  0  0
   38.8740   31.9020   37.4330 N   0  0  0  0  0  0  0  0  0  0  0  0
   39.3690   32.1800   38.6610 C   0  0  0  0  0  0  0  0  0  0  0  0
   38.6980   31.8310   39.7850 N   0  0  0  0  0  0  0  0  0  0  0  0
   36.0210   30.3850   38.2900 H   0  0  0  0  0  0  0  0  0  0  0  0
   37.2520   31.0250   36.3070 H   0  0  0  0  0  0  0  0  0  0  0  0
   40.6500   32.8650   38.7790 C   0  0  0  0  0  0  0  0  0  0  0  0
   41.1380   33.2320   40.0060 C   0  0  0  0  0  3  0  0  0  0  0  0
   42.3720   33.8870   40.0600 C   0  0  0  0  0  0  0  0  0  0  0  0
   42.7570   34.1780   41.0300 H   0  0  0  0  0  0  0  0  0  0  0  0
   43.0760   34.1570   38.9260 N   0  0  0  0  0  0  0  0  0  0  0  0
   42.5350   33.7670   37.7540 C   0  0  0  0  0  3  0  0  0  0  0  0
   41.3400   33.1260   37.6360 N   0  0  0  0  0  0  0  0  0  0  0  0
   36.5310   30.6840   41.0680 S   0  0  0  0  0  0  0  0  0  0  0  0
   35.8920   27.8040   39.8280 Cl  0  0  0  0  0  0  0  0  0  0  0  0
   36.8420   27.8820   41.3120 C   0  0  0  0  0  0  0  0  0  0  0  0
   37.0660   29.1480   41.7680 C   0  0  0  0  0  0  0  0  0  0  0  0
   37.8160   29.2810   42.9440 C   0  0  0  0  0  0  0  0  0  0  0  0
   38.2880   28.1390   43.5800 C   0  0  0  0  0  0  0  0  0  0  0  0
   38.0570   26.8660   43.1150 C   0  0  0  0  0  0  0  0  0  0  0  0
   37.3090   26.7580   41.9430 C   0  0  0  0  0  0  0  0  0  0  0  0
   36.9440   25.1920   41.2430 Cl  0  0  0  0  0  0  0  0  0  0  0  0
   38.0530   30.2350   43.3930 H   0  0  0  0  0  0  0  0  0  0  0  0
   38.8730   28.2230   44.4980 H   0  0  0  0  0  0  0  0  0  0  0  0
   38.4310   25.9860   43.6200 H   0  0  0  0  0  0  0  0  0  0  0  0
  1  6  1  0  0  0  0
  1 16  1  0  0  0  0
  2  1  2  0  0  0  0
  3  4  2  0  0  0  0
  3  2  1  0  0  0  0
  4  5  1  0  0  0  0
  5  9  1  0  0  0  0
  5  6  2  0  0  0  0
  7  2  1  0  0  0  0
  8  3  1  0  0  0  0
  9 10  1  0  0  0  0
 10 11  2  0  0  0  0
 11 12  1  0  0  0  0
 13 11  1  0  0  0  0
 14 13  2  0  0  0  0
 15 14  1  0  0  0  0
 15  9  2  0  0  0  0
 16 19  1  0  0  0  0
 17 18  1  0  0  0  0
 18 19  2  0  0  0  0
 18 23  1  0  0  0  0
 19 20  1  0  0  0  0
 20 25  1  0  0  0  0
 20 21  2  0  0  0  0
 21 26  1  0  0  0  0
 22 21  1  0  0  0  0
 22 27  1  0  0  0  0
 23 22  2  0  0  0  0
 24 23  1  0  0  0  0
M  END
>  <minimizedAffinity>
-5.45880651

$$$$

 OpenBabel03252506493D

 27 29  0  0  0  0  0  0  0  0999 V2000
   38.3350   26.8280   43.0710 C   0  0  0  0  0  0  0  0  0  0  0  0
   39.5490   26.5070   43.6800 C   0  0  0  0  0  0  0  0  0  0  0  0
   40.1290   25.2630   43.3850 C   0  0  0  0  0  0  0  0  0  0  0  0
   39.4840   24.4370   42.5280 N   0  0  0  0  0  0  0  0  0  0  0  0
   38.3070   24.7820   41.9570 C   0  0  0  0  0  0  0  0  0  0  0  0
   37.7210   25.9750   42.2200 N   0  0  0  0  0  0  0  0  0  0  0  0
   40.0580   27.1730   44.3620 H   0  0  0  0  0  0  0  0  0  0  0  0
   41.0720   25.0320   43.8670 H   0  0  0  0  0  0  0  0  0  0  0  0
   37.6560   23.8540   41.0410 C   0  0  0  0  0  0  0  0  0  0  0  0
   36.4190   24.1330   40.5230 C   0  0  0  0  0  3  0  0  0  0  0  0
   35.8410   23.2060   39.6490 C   0  0  0  0  0  0  0  0  0  0  0  0
   34.8630   23.4270   39.2400 H   0  0  0  0  0  0  0  0  0  0  0  0
   36.4860   22.0540   39.3170 N   0  0  0  0  0  0  0  0  0  0  0  0
   37.7010   21.8460   39.8650 C   0  0  0  0  0  3  0  0  0  0  0  0
   38.3150   22.7070   40.7210 N   0  0  0  0  0  0  0  0  0  0  0  0
   37.6630   28.4290   43.4960 S   0  0  0  0  0  0  0  0  0  0  0  0
   39.6070   30.7760   42.5210 Cl  0  0  0  0  0  0  0  0  0  0  0  0
   38.1340   30.4750   41.5990 C   0  0  0  0  0  0  0  0  0  0  0  0
   37.3670   29.4570   42.0860 C   0  0  0  0  0  0  0  0  0  0  0  0
   36.1820   29.1640   41.3970 C   0  0  0  0  0  0  0  0  0  0  0  0
   35.8480   29.9100   40.2730 C   0  0  0  0  0  0  0  0  0  0  0  0
   36.6270   30.9350   39.7890 C   0  0  0  0  0  0  0  0  0  0  0  0
   37.8020   31.2080   40.4900 C   0  0  0  0  0  0  0  0  0  0  0  0
   38.8840   32.4890   39.9770 Cl  0  0  0  0  0  0  0  0  0  0  0  0
   35.5010   28.3800   41.6950 H   0  0  0  0  0  0  0  0  0  0  0  0
   34.9290   29.6970   39.7250 H   0  0  0  0  0  0  0  0  0  0  0  0
   36.3550   31.5070   38.9130 H   0  0  0  0  0  0  0  0  0  0  0  0
  1 16  1  0  0  0  0
  1  2  1  0  0  0  0
  2  7  1  0  0  0  0
  3  2  2  0  0  0  0
  3  8  1  0  0  0  0
  4  3  1  0  0  0  0
  5  6  1  0  0  0  0
  5  4  2  0  0  0  0
  6  1  2  0  0  0  0
  9  5  1  0  0  0  0
 10  9  2  0  0  0  0
 11 10  1  0  0  0  0
 12 11  1  0  0  0  0
 13 11  2  0  0  0  0
 13 14  1  0  0  0  0
 14 15  2  0  0  0  0
 15  9  1  0  0  0  0
 18 19  1  0  0  0  0
 18 17  1  0  0  0  0
 19 16  1  0  0  0  0
 20 25  1  0  0  0  0
 20 19  2  0  0  0  0
 21 20  1  0  0  0  0
 22 21  2  0  0  0  0
 22 23  1  0  0  0  0
 23 18  2  0  0  0  0
 24 23  1  0  0  0  0
 26 21  1  0  0  0  0
 27 22  1  0  0  0  0
M  END
>  <minimizedAffinity>
-5.45441055

$$$$

 OpenBabel03252506493D

 27 29  0  0  0  0  0  0  0  0999 V2000
   36.8920   29.1090   41.7240 C   0  0  0  0  0  0  0  0  0  0  0  0
   35.8080   28.9220   40.8650 C   0  0  0  0  0  0  0  0  0  0  0  0
   35.6960   29.7650   39.7470 C   0  0  0  0  0  0  0  0  0  0  0  0
   36.6420   30.7140   39.5580 N   0  0  0  0  0  0  0  0  0  0  0  0
   37.6800   30.8670   40.4140 C   0  0  0  0  0  0  0  0  0  0  0  0
   37.8170   30.0700   41.5010 N   0  0  0  0  0  0  0  0  0  0  0  0
   35.0570   28.1610   41.0220 H   0  0  0  0  0  0  0  0  0  0  0  0
   34.8480   29.6050   39.0910 H   0  0  0  0  0  0  0  0  0  0  0  0
   38.6700   31.9060   40.1610 C   0  0  0  0  0  0  0  0  0  0  0  0
   38.4430   33.2000   40.5520 C   0  0  0  0  0  3  0  0  0  0  0  0
   39.4280   34.1560   40.2830 C   0  0  0  0  0  0  0  0  0  0  0  0
   39.2480   35.1780   40.5910 H   0  0  0  0  0  0  0  0  0  0  0  0
   40.5850   33.8170   39.6510 N   0  0  0  0  0  0  0  0  0  0  0  0
   40.7400   32.5250   39.2960 C   0  0  0  0  0  3  0  0  0  0  0  0
   39.8200   31.5490   39.5280 N   0  0  0  0  0  0  0  0  0  0  0  0
   36.9630   27.9970   43.1210 S   0  0  0  0  0  0  0  0  0  0  0  0
   36.5920   25.4360   41.2400 Cl  0  0  0  0  0  0  0  0  0  0  0  0
   38.0910   25.5900   42.1540 C   0  0  0  0  0  0  0  0  0  0  0  0
   38.1640   26.7110   42.9280 C   0  0  0  0  0  0  0  0  0  0  0  0
   39.3320   26.8940   43.6800 C   0  0  0  0  0  0  0  0  0  0  0  0
   40.3440   25.9450   43.6050 C   0  0  0  0  0  0  0  0  0  0  0  0
   40.2630   24.8170   42.8220 C   0  0  0  0  0  0  0  0  0  0  0  0
   39.0920   24.6550   42.0830 C   0  0  0  0  0  0  0  0  0  0  0  0
   38.8630   23.2600   41.0450 Cl  0  0  0  0  0  0  0  0  0  0  0  0
   39.4940   27.7460   44.3260 H   0  0  0  0  0  0  0  0  0  0  0  0
   41.2600   26.0710   44.1840 H   0  0  0  0  0  0  0  0  0  0  0  0
   41.0580   24.0860   42.7730 H   0  0  0  0  0  0  0  0  0  0  0  0
  1 16  1  0  0  0  0
  2  7  1  0  0  0  0
  2  1  2  0  0  0  0
  3  2  1  0  0  0  0
  4  3  2  0  0  0  0
  4  5  1  0  0  0  0
  5  6  2  0  0  0  0
  6  1  1  0  0  0  0
  8  3  1  0  0  0  0
  9  5  1  0  0  0  0
  9 10  1  0  0  0  0
 11 10  2  0  0  0  0
 11 12  1  0  0  0  0
 13 11  1  0  0  0  0
 14 15  1  0  0  0  0
 14 13  2  0  0  0  0
 15  9  2  0  0  0  0
 17 18  1  0  0  0  0
 18 19  1  0  0  0  0
 19 16  1  0  0  0  0
 19 20  2  0  0  0  0
 20 25  1  0  0  0  0
 21 20  1  0  0  0  0
 21 26  1  0  0  0  0
 22 21  2  0  0  0  0
 23 18  2  0  0  0  0
 23 22  1  0  0  0  0
 24 23  1  0  0  0  0
 27 22  1  0  0  0  0
M  END
>  <minimizedAffinity>
-5.3239212

$$$$

 OpenBabel03252506493D

 27 29  0  0  0  0  0  0  0  0999 V2000
   38.2940   31.2270   39.5960 C   0  0  0  0  0  0  0  0  0  0  0  0
   37.3110   32.1510   39.9530 C   0  0  0  0  0  0  0  0  0  0  0  0
   37.6670   33.5080   40.0070 C   0  0  0  0  0  0  0  0  0  0  0  0
   38.9420   33.8520   39.7130 N   0  0  0  0  0  0  0  0  0  0  0  0
   39.8700   32.9280   39.3720 C   0  0  0  0  0  0  0  0  0  0  0  0
   39.5590   31.6100   39.3090 N   0  0  0  0  0  0  0  0  0  0  0  0
   36.2950   31.8670   40.1860 H   0  0  0  0  0  0  0  0  0  0  0  0
   36.8900   34.2110   40.2860 H   0  0  0  0  0  0  0  0  0  0  0  0
   41.2290   33.3560   39.0640 C   0  0  0  0  0  0  0  0  0  0  0  0
   42.1220   33.6260   40.0670 C   0  0  0  0  0  3  0  0  0  0  0  0
   43.4130   34.0330   39.7130 C   0  0  0  0  0  0  0  0  0  0  0  0
   44.1180   34.2480   40.5060 H   0  0  0  0  0  0  0  0  0  0  0  0
   43.7780   34.1600   38.4080 N   0  0  0  0  0  0  0  0  0  0  0  0
   42.8470   33.8770   37.4750 C   0  0  0  0  0  3  0  0  0  0  0  0
   41.5760   33.4770   37.7540 N   0  0  0  0  0  0  0  0  0  0  0  0
   37.7620   29.5210   39.5490 S   0  0  0  0  0  0  0  0  0  0  0  0
   40.5290   28.6220   40.8810 Cl  0  0  0  0  0  0  0  0  0  0  0  0
   39.0350   28.2860   41.7540 C   0  0  0  0  0  0  0  0  0  0  0  0
   37.9050   28.7040   41.1130 C   0  0  0  0  0  0  0  0  0  0  0  0
   36.6820   28.4680   41.7550 C   0  0  0  0  0  0  0  0  0  0  0  0
   36.6760   27.8310   42.9910 C   0  0  0  0  0  0  0  0  0  0  0  0
   37.8190   27.4130   43.6300 C   0  0  0  0  0  0  0  0  0  0  0  0
   39.0240   27.6590   42.9730 C   0  0  0  0  0  0  0  0  0  0  0  0
   40.5550   27.1760   43.6800 Cl  0  0  0  0  0  0  0  0  0  0  0  0
   35.7280   28.7560   41.3380 H   0  0  0  0  0  0  0  0  0  0  0  0
   35.7330   27.6390   43.5050 H   0  0  0  0  0  0  0  0  0  0  0  0
   37.7990   26.9190   44.5910 H   0  0  0  0  0  0  0  0  0  0  0  0
  1  2  1  0  0  0  0
  2  3  2  0  0  0  0
  2  7  1  0  0  0  0
  3  8  1  0  0  0  0
  4  3  1  0  0  0  0
  5  4  2  0  0  0  0
  6  5  1  0  0  0  0
  6  1  2  0  0  0  0
  9  5  1  0  0  0  0
  9 10  1  0  0  0  0
 11 10  2  0  0  0  0
 11 12  1  0  0  0  0
 13 11  1  0  0  0  0
 14 15  1  0  0  0  0
 14 13  2  0  0  0  0
 15  9  2  0  0  0  0
 16  1  1  0  0  0  0
 16 19  1  0  0  0  0
 17 18  1  0  0  0  0
 18 23  1  0  0  0  0
 19 18  2  0  0  0  0
 19 20  1  0  0  0  0
 20 21  2  0  0  0  0
 21 26  1  0  0  0  0
 21 22  1  0  0  0  0
 22 27  1  0  0  0  0
 23 22  2  0  0  0  0
 23 24  1  0  0  0  0
 25 20  1  0  0  0  0
M  END
>  <minimizedAffinity>
-5.25485516

$$$$

 OpenBabel03252506493D

 27 29  0  0  0  0  0  0  0  0999 V2000
   36.7720   28.7110   38.5230 C   0  0  0  0  0  0  0  0  0  0  0  0
   36.4540   28.6710   37.1650 C   0  0  0  0  0  0  0  0  0  0  0  0
   36.7910   29.7810   36.3730 C   0  0  0  0  0  0  0  0  0  0  0  0
   37.4050   30.8320   36.9650 N   0  0  0  0  0  0  0  0  0  0  0  0
   37.6970   30.8360   38.2860 C   0  0  0  0  0  0  0  0  0  0  0  0
   37.3860   29.7810   39.0780 N   0  0  0  0  0  0  0  0  0  0  0  0
   35.9640   27.8280   36.7010 H   0  0  0  0  0  0  0  0  0  0  0  0
   36.5370   29.7320   35.3210 H   0  0  0  0  0  0  0  0  0  0  0  0
   38.3600   31.9950   38.8700 C   0  0  0  0  0  0  0  0  0  0  0  0
   37.6520   32.9110   39.6030 C   0  0  0  0  0  3  0  0  0  0  0  0
   38.3400   34.0050   40.1400 C   0  0  0  0  0  0  0  0  0  0  0  0
   37.7800   34.7290   40.7190 H   0  0  0  0  0  0  0  0  0  0  0  0
   39.6780   34.1610   39.9430 N   0  0  0  0  0  0  0  0  0  0  0  0
   40.3090   33.2200   39.2120 C   0  0  0  0  0  3  0  0  0  0  0  0
   39.6970   32.1350   38.6630 N   0  0  0  0  0  0  0  0  0  0  0  0
   36.3120   27.2610   39.4610 S   0  0  0  0  0  0  0  0  0  0  0  0
   38.6960   25.2680   40.2230 Cl  0  0  0  0  0  0  0  0  0  0  0  0
   38.1030   26.3720   41.4630 C   0  0  0  0  0  0  0  0  0  0  0  0
   37.0870   27.1850   41.0510 C   0  0  0  0  0  0  0  0  0  0  0  0
   36.5710   28.0880   41.9890 C   0  0  0  0  0  0  0  0  0  0  0  0
   37.1060   28.1150   43.2720 C   0  0  0  0  0  0  0  0  0  0  0  0
   38.1290   27.2930   43.6790 C   0  0  0  0  0  0  0  0  0  0  0  0
   38.6280   26.4020   42.7290 C   0  0  0  0  0  0  0  0  0  0  0  0
   39.9340   25.2990   43.1210 Cl  0  0  0  0  0  0  0  0  0  0  0  0
   35.7670   28.7770   41.7700 H   0  0  0  0  0  0  0  0  0  0  0  0
   36.7150   28.8110   44.0160 H   0  0  0  0  0  0  0  0  0  0  0  0
   38.5360   27.3250   44.6810 H   0  0  0  0  0  0  0  0  0  0  0  0
  1  6  1  0  0  0  0
  1 16  1  0  0  0  0
  2  1  2  0  0  0  0
  3  4  2  0  0  0  0
  3  2  1  0  0  0  0
  4  5  1  0  0  0  0
  5  9  1  0  0  0  0
  5  6  2  0  0  0  0
  7  2  1  0  0  0  0
  8  3  1  0  0  0  0
  9 10  1  0  0  0  0
 10 11  2  0  0  0  0
 11 12  1  0  0  0  0
 13 11  1  0  0  0  0
 14 13  2  0  0  0  0
 15  9  2  0  0  0  0
 15 14  1  0  0  0  0
 16 19  1  0  0  0  0
 17 18  1  0  0  0  0
 18 23  1  0  0  0  0
 19 18  2  0  0  0  0
 19 20  1  0  0  0  0
 20 21  2  0  0  0  0
 21 22  1  0  0  0  0
 21 26  1  0  0  0  0
 22 27  1  0  0  0  0
 23 24  1  0  0  0  0
 23 22  2  0  0  0  0
 25 20  1  0  0  0  0
M  END
>  <minimizedAffinity>
-5.25328875

$$$$

 OpenBabel03252506493D

 27 29  0  0  0  0  0  0  0  0999 V2000
   37.8410   30.0760   41.0660 C   0  0  0  0  0  0  0  0  0  0  0  0
   36.8860   31.0480   40.7670 C   0  0  0  0  0  0  0  0  0  0  0  0
   37.0260   31.7670   39.5690 C   0  0  0  0  0  0  0  0  0  0  0  0
   38.0770   31.4820   38.7650 N   0  0  0  0  0  0  0  0  0  0  0  0
   38.9860   30.5330   39.0890 C   0  0  0  0  0  0  0  0  0  0  0  0
   38.8790   29.8210   40.2370 N   0  0  0  0  0  0  0  0  0  0  0  0
   36.0490   31.2690   41.4140 H   0  0  0  0  0  0  0  0  0  0  0  0
   36.2740   32.5180   39.3530 H   0  0  0  0  0  0  0  0  0  0  0  0
   40.0980   30.2680   38.1860 C   0  0  0  0  0  0  0  0  0  0  0  0
   40.3200   29.0070   37.6990 C   0  0  0  0  0  3  0  0  0  0  0  0
   41.4030   28.8100   36.8360 C   0  0  0  0  0  0  0  0  0  0  0  0
   41.5790   27.8120   36.4520 H   0  0  0  0  0  0  0  0  0  0  0  0
   42.2210   29.8410   36.4850 N   0  0  0  0  0  0  0  0  0  0  0  0
   41.9420   31.0540   37.0030 C   0  0  0  0  0  3  0  0  0  0  0  0
   40.9050   31.3100   37.8460 N   0  0  0  0  0  0  0  0  0  0  0  0
   37.5930   29.2060   42.6080 S   0  0  0  0  0  0  0  0  0  0  0  0
   40.5250   28.0450   43.1500 Cl  0  0  0  0  0  0  0  0  0  0  0  0
   39.2420   26.9100   42.7310 C   0  0  0  0  0  0  0  0  0  0  0  0
   38.0270   27.4920   42.5180 C   0  0  0  0  0  0  0  0  0  0  0  0
   36.9620   26.6450   42.1820 C   0  0  0  0  0  0  0  0  0  0  0  0
   37.1890   25.2770   42.0830 C   0  0  0  0  0  0  0  0  0  0  0  0
   38.4170   24.6980   42.2990 C   0  0  0  0  0  0  0  0  0  0  0  0
   39.4610   25.5610   42.6320 C   0  0  0  0  0  0  0  0  0  0  0  0
   41.0770   24.9500   42.9340 Cl  0  0  0  0  0  0  0  0  0  0  0  0
   35.9590   26.9990   41.9920 H   0  0  0  0  0  0  0  0  0  0  0  0
   36.3720   24.6020   41.8220 H   0  0  0  0  0  0  0  0  0  0  0  0
   38.5790   23.6320   42.2190 H   0  0  0  0  0  0  0  0  0  0  0  0
  1 16  1  0  0  0  0
  2  1  1  0  0  0  0
  2  7  1  0  0  0  0
  3  2  2  0  0  0  0
  4  5  2  0  0  0  0
  4  3  1  0  0  0  0
  5  6  1  0  0  0  0
  6  1  2  0  0  0  0
  8  3  1  0  0  0  0
  9  5  1  0  0  0  0
 10  9  2  0  0  0  0
 11 10  1  0  0  0  0
 12 11  1  0  0  0  0
 13 11  2  0  0  0  0
 13 14  1  0  0  0  0
 14 15  2  0  0  0  0
 15  9  1  0  0  0  0
 18 17  1  0  0  0  0
 19 16  1  0  0  0  0
 19 18  2  0  0  0  0
 20 19  1  0  0  0  0
 21 20  2  0  0  0  0
 21 22  1  0  0  0  0
 22 23  2  0  0  0  0
 23 18  1  0  0  0  0
 23 24  1  0  0  0  0
 25 20  1  0  0  0  0
 26 21  1  0  0  0  0
 27 22  1  0  0  0  0
M  END
>  <minimizedAffinity>
-4.99717808

$$$$

 OpenBabel03252506493D

 27 29  0  0  0  0  0  0  0  0999 V2000
   37.3000   29.9120   38.6580 C   0  0  0  0  0  0  0  0  0  0  0  0
   36.5740   31.0140   39.1120 C   0  0  0  0  0  0  0  0  0  0  0  0
   37.1980   32.2720   39.0920 C   0  0  0  0  0  0  0  0  0  0  0  0
   38.4690   32.3530   38.6340 N   0  0  0  0  0  0  0  0  0  0  0  0
   39.1430   31.2620   38.2020 C   0  0  0  0  0  0  0  0  0  0  0  0
   38.5700   30.0340   38.2080 N   0  0  0  0  0  0  0  0  0  0  0  0
   35.5590   30.9400   39.4760 H   0  0  0  0  0  0  0  0  0  0  0  0
   36.6190   33.1160   39.4490 H   0  0  0  0  0  0  0  0  0  0  0  0
   40.5100   31.4090   37.7190 C   0  0  0  0  0  0  0  0  0  0  0  0
   41.2550   30.3090   37.3820 C   0  0  0  0  0  3  0  0  0  0  0  0
   42.5620   30.5090   36.9250 C   0  0  0  0  0  0  0  0  0  0  0  0
   43.1510   29.6400   36.6590 H   0  0  0  0  0  0  0  0  0  0  0  0
   43.0870   31.7610   36.8150 N   0  0  0  0  0  0  0  0  0  0  0  0
   42.2950   32.7950   37.1650 C   0  0  0  0  0  3  0  0  0  0  0  0
   41.0170   32.6670   37.6160 N   0  0  0  0  0  0  0  0  0  0  0  0
   36.4360   28.3480   38.7150 S   0  0  0  0  0  0  0  0  0  0  0  0
   37.3140   25.2790   38.9260 Cl  0  0  0  0  0  0  0  0  0  0  0  0
   37.0480   26.1750   40.4210 C   0  0  0  0  0  0  0  0  0  0  0  0
   36.6770   27.4750   40.2370 C   0  0  0  0  0  0  0  0  0  0  0  0
   36.4510   28.2450   41.3850 C   0  0  0  0  0  0  0  0  0  0  0  0
   36.6110   27.6600   42.6360 C   0  0  0  0  0  0  0  0  0  0  0  0
   36.9850   26.3490   42.8140 C   0  0  0  0  0  0  0  0  0  0  0  0
   37.2050   25.6030   41.6560 C   0  0  0  0  0  0  0  0  0  0  0  0
   37.6860   23.9180   41.7440 Cl  0  0  0  0  0  0  0  0  0  0  0  0
   36.1540   29.2830   41.3550 H   0  0  0  0  0  0  0  0  0  0  0  0
   36.4380   28.2440   43.5420 H   0  0  0  0  0  0  0  0  0  0  0  0
   37.1050   25.9070   43.7930 H   0  0  0  0  0  0  0  0  0  0  0  0
  1 16  1  0  0  0  0
  1  2  1  0  0  0  0
  2  7  1  0  0  0  0
  3  2  2  0  0  0  0
  3  8  1  0  0  0  0
  4  3  1  0  0  0  0
  5  6  1  0  0  0  0
  5  4  2  0  0  0  0
  6  1  2  0  0  0  0
  9  5  1  0  0  0  0
 10  9  2  0  0  0  0
 11 10  1  0  0  0  0
 12 11  1  0  0  0  0
 13 11  2  0  0  0  0
 13 14  1  0  0  0  0
 14 15  2  0  0  0  0
 15  9  1  0  0  0  0
 16 19  1  0  0  0  0
 17 18  1  0  0  0  0
 18 23  1  0  0  0  0
 19 18  2  0  0  0  0
 19 20  1  0  0  0  0
 20 21  2  0  0  0  0
 21 22  1  0  0  0  0
 21 26  1  0  0  0  0
 22 27  1  0  0  0  0
 23 24  1  0  0  0  0
 23 22  2  0  0  0  0
 25 20  1  0  0  0  0
M  END
>  <minimizedAffinity>
-4.97692204

$$$$
