
 OpenBabel03252502553D

 35 37  0  0  0  0  0  0  0  0999 V2000
   45.6180   29.9290   44.7430 Br  0  0  0  0  0  0  0  0  0  0  0  0
   45.6660   30.5750   46.5680 C   0  0  0  0  0  0  0  0  0  0  0  0
   46.3430   31.7400   46.7570 C   0  0  0  0  0  0  0  0  0  0  0  0
   46.3600   32.1830   48.0870 C   0  0  0  0  0  0  0  0  0  0  0  0
   45.7490   31.5040   49.1150 C   0  0  0  0  0  0  0  0  0  0  0  0
   45.0860   30.3330   48.8380 C   0  0  0  0  0  0  0  0  0  0  0  0
   45.0350   29.8500   47.5550 C   0  0  0  0  0  0  0  0  0  0  0  0
   46.8760   33.1070   48.3360 H   0  0  0  0  0  0  0  0  0  0  0  0
   45.8020   31.9070   50.1310 H   0  0  0  0  0  0  0  0  0  0  0  0
   44.5890   29.7620   49.6130 H   0  0  0  0  0  0  0  0  0  0  0  0
   47.0340   32.5630   45.7630 C   0  0  0  0  0  0  0  0  0  0  0  0
   47.4190   31.9470   44.9270 H   0  0  0  0  0  0  0  0  0  0  0  0
   47.9230   33.0190   46.2530 H   0  0  0  0  0  0  0  0  0  0  0  0
   44.5450   35.3120   45.3970 C   0  0  0  0  0  0  0  0  0  0  0  0
   44.7550   35.7220   44.0780 C   0  0  0  0  0  0  0  0  0  0  0  0
   45.7360   35.0580   43.3420 C   0  0  0  0  0  0  0  0  0  0  0  0
   46.4290   34.0660   43.9230 N   0  0  0  0  0  0  0  0  0  0  0  0
   46.2150   33.6740   45.2110 C   0  0  0  0  0  0  0  0  0  0  0  0
   45.2640   34.3230   45.9110 N   0  0  0  0  0  0  0  0  0  0  0  0
   43.8270   35.7260   46.0880 H   0  0  0  0  0  0  0  0  0  0  0  0
   44.1270   36.5400   43.7270 H   0  0  0  0  0  0  0  0  0  0  0  0
   45.8810   35.3880   42.3330 H   0  0  0  0  0  0  0  0  0  0  0  0
   44.3620   28.6600   47.2680 O   0  0  0  0  0  0  0  0  0  0  0  0
   44.1000   26.0880   47.0480 O   0  0  0  0  0  0  0  0  0  0  0  0
   44.9220   27.1390   47.7750 P   0  0  2  0  0  0  0  0  0  0  0  0
   44.7030   27.0200   49.4370 O   0  0  0  0  0  0  0  0  0  0  0  0
   45.5400   27.3300   49.8680 H   0  0  0  0  0  0  0  0  0  0  0  0
   46.5320   26.8980   47.3640 O   0  0  0  0  0  0  0  0  0  0  0  0
   47.4960   26.2500   48.0840 C   0  0  0  0  0  0  0  0  0  0  0  0
   47.1120   24.9560   48.4400 C   0  0  0  0  0  0  0  0  0  0  0  0
   47.9650   24.1410   49.1770 C   0  0  0  0  0  0  0  0  0  0  0  0
   47.6970   23.1230   49.4730 H   0  0  0  0  0  0  0  0  0  0  0  0
   49.1500   24.6560   49.5180 N   0  0  0  0  0  0  0  0  0  0  0  0
   49.5090   25.9000   49.1710 C   0  0  0  0  0  0  0  0  0  0  0  0
   48.6910   26.6950   48.4580 N   0  0  0  0  0  0  0  0  0  0  0  0
  1  2  1  0  0  0  0
  2  3  2  0  0  0  0
  2  7  1  0  0  0  0
  3  4  1  0  0  0  0
  4  8  1  0  0  0  0
  4  5  2  0  0  0  0
  5  9  1  0  0  0  0
  6  5  1  0  0  0  0
  6 10  1  0  0  0  0
  7  6  2  0  0  0  0
 11 13  1  0  0  0  0
 11  3  1  0  0  0  0
 12 11  1  0  0  0  0
 14 19  1  0  0  0  0
 14 20  1  0  0  0  0
 15 14  2  0  0  0  0
 16 17  2  0  0  0  0
 16 15  1  0  0  0  0
 17 18  1  0  0  0  0
 18 11  1  0  0  0  0
 18 19  2  0  0  0  0
 21 15  1  0  0  0  0
 22 16  1  0  0  0  0
 23  7  1  0  0  0  0
 23 25  1  0  0  0  0
 25 24  2  6  0  0  0
 25 26  1  0  0  0  0
 26 27  1  0  0  0  0
 28 25  1  0  0  0  0
 28 29  1  0  0  0  0
 29 30  2  0  0  0  0
 29 35  1  0  0  0  0
 30 31  1  0  0  0  0
 31 32  1  0  0  0  0
 31 33  2  0  0  0  0
 34 33  1  0  0  0  0
 35 34  2  0  0  0  0
M  END
>  <minimizedAffinity>
-5.3057251

>  <minimizedRMSD>
0.627766132

$$$$
