
 OpenBabel03252506493D

 27 29  0  0  0  0  0  0  0  0999 V2000
   44.3840   34.5580   42.1140 C   0  0  0  0  0  0  0  0  0  0  0  0
   44.7190   33.5380   43.0050 C   0  0  0  0  0  0  0  0  0  0  0  0
   45.1840   33.8980   44.2800 C   0  0  0  0  0  0  0  0  0  0  0  0
   45.2850   35.2140   44.5820 N   0  0  0  0  0  0  0  0  0  0  0  0
   44.9510   36.1770   43.6910 C   0  0  0  0  0  0  0  0  0  0  0  0
   44.4990   35.8630   42.4530 N   0  0  0  0  0  0  0  0  0  0  0  0
   44.6350   32.4900   42.7570 H   0  0  0  0  0  0  0  0  0  0  0  0
   45.4390   33.0920   44.9590 H   0  0  0  0  0  0  0  0  0  0  0  0
   45.0790   37.5780   44.0700 C   0  0  0  0  0  0  0  0  0  0  0  0
   44.9550   37.9650   45.3790 C   0  0  0  0  0  3  0  0  0  0  0  0
   45.0870   39.3240   45.6840 C   0  0  0  0  0  0  0  0  0  0  0  0
   44.9890   39.6300   46.7180 H   0  0  0  0  0  0  0  0  0  0  0  0
   45.3330   40.2440   44.7100 N   0  0  0  0  0  0  0  0  0  0  0  0
   45.4430   39.7910   43.4440 C   0  0  0  0  0  3  0  0  0  0  0  0
   45.3250   38.4840   43.0840 N   0  0  0  0  0  0  0  0  0  0  0  0
   43.8010   34.0180   40.5140 S   0  0  0  0  0  0  0  0  0  0  0  0
   41.6880   31.8540   41.5600 Cl  0  0  0  0  0  0  0  0  0  0  0  0
   41.0760   33.2900   40.7400 C   0  0  0  0  0  0  0  0  0  0  0  0
   42.0450   34.1570   40.3280 C   0  0  0  0  0  0  0  0  0  0  0  0
   41.6250   35.3210   39.6700 C   0  0  0  0  0  0  0  0  0  0  0  0
   40.2670   35.5340   39.4700 C   0  0  0  0  0  0  0  0  0  0  0  0
   39.2950   34.6540   39.8870 C   0  0  0  0  0  0  0  0  0  0  0  0
   39.7370   33.5040   40.5400 C   0  0  0  0  0  0  0  0  0  0  0  0
   38.6000   32.3020   41.1230 Cl  0  0  0  0  0  0  0  0  0  0  0  0
   42.3070   36.0740   39.3030 H   0  0  0  0  0  0  0  0  0  0  0  0
   39.9210   36.4340   38.9580 H   0  0  0  0  0  0  0  0  0  0  0  0
   38.2420   34.8330   39.7240 H   0  0  0  0  0  0  0  0  0  0  0  0
  1  6  2  0  0  0  0
  1  2  1  0  0  0  0
  2  3  2  0  0  0  0
  3  4  1  0  0  0  0
  3  8  1  0  0  0  0
  5  9  1  0  0  0  0
  5  4  2  0  0  0  0
  6  5  1  0  0  0  0
  7  2  1  0  0  0  0
  9 10  1  0  0  0  0
 10 11  2  0  0  0  0
 11 12  1  0  0  0  0
 13 11  1  0  0  0  0
 14 13  2  0  0  0  0
 15 14  1  0  0  0  0
 15  9  2  0  0  0  0
 16  1  1  0  0  0  0
 18 17  1  0  0  0  0
 19 16  1  0  0  0  0
 19 18  2  0  0  0  0
 20 19  1  0  0  0  0
 21 20  2  0  0  0  0
 21 22  1  0  0  0  0
 22 23  2  0  0  0  0
 23 18  1  0  0  0  0
 23 24  1  0  0  0  0
 25 20  1  0  0  0  0
 26 21  1  0  0  0  0
 27 22  1  0  0  0  0
M  END
>  <minimizedAffinity>
-3.14243269

>  <minimizedRMSD>
1.52058184

$$$$
