
 OpenBabel03242519273D

 41 44  0  0  0  0  0  0  0  0999 V2000
   47.8670   33.6940   42.8710 C   0  0  0  0  0  0  0  0  0  0  0  0
   48.6010   34.8930   42.6820 C   0  0  0  0  0  0  0  0  0  0  0  0
   49.9740   34.8340   42.3700 C   0  0  0  0  0  0  0  0  0  0  0  0
   50.5150   33.5750   42.2700 N   0  0  0  0  0  0  0  0  0  0  0  0
   49.7560   32.4380   42.4650 C   0  0  0  0  0  0  0  0  0  0  0  0
   48.4760   32.5250   42.7540 N   0  0  0  0  0  0  0  0  0  0  0  0
   48.2500   35.9150   42.7440 H   0  0  0  0  0  0  0  0  0  0  0  0
   50.5800   35.6910   42.2160 H   0  0  0  0  0  0  0  0  0  0  0  0
   46.4450   33.9020   43.1970 C   0  0  0  0  0  0  0  0  0  0  0  0
   45.7910   34.9450   42.4280 C   0  0  0  0  0  0  0  0  0  0  0  0
   45.3850   36.1320   43.2060 C   0  0  0  0  0  0  0  0  0  0  0  0
   44.5140   35.7500   44.4030 C   0  0  0  0  0  0  0  0  0  0  0  0
   44.9790   34.5300   45.1260 C   0  0  0  0  0  0  0  0  0  0  0  0
   46.3990   34.1560   44.7270 C   0  0  0  0  0  0  0  0  0  0  0  0
   45.9240   32.9030   43.1100 H   0  0  0  0  0  0  0  0  0  0  0  0
   46.4260   35.2810   41.5860 H   0  0  0  0  0  0  0  0  0  0  0  0
   44.8670   34.5360   41.9420 H   0  0  0  0  0  0  0  0  0  0  0  0
   44.7290   36.7770   42.5590 H   0  0  0  0  0  0  0  0  0  0  0  0
   46.1670   36.7830   43.5900 H   0  0  0  0  0  0  0  0  0  0  0  0
   44.3640   36.6460   45.0350 H   0  0  0  0  0  0  0  0  0  0  0  0
   43.5140   35.5040   43.9700 H   0  0  0  0  0  0  0  0  0  0  0  0
   44.3370   33.6440   45.0040 H   0  0  0  0  0  0  0  0  0  0  0  0
   45.0270   34.7820   46.2020 H   0  0  0  0  0  0  0  0  0  0  0  0
   46.6990   33.2580   45.2660 H   0  0  0  0  0  0  0  0  0  0  0  0
   47.0990   34.9860   44.9590 H   0  0  0  0  0  0  0  0  0  0  0  0
   50.5140   31.2030   42.3220 C   0  0  0  0  0  0  0  0  0  0  0  0
   50.5590   30.6140   41.1070 N   0  0  0  0  0  0  0  0  0  0  0  0
   51.3170   29.4920   41.2110 C   0  0  0  0  0  0  0  0  0  0  0  0
   51.7350   29.4000   42.5030 N   0  0  0  0  0  0  0  0  0  0  0  0
   51.2480   30.4410   43.1830 N   0  0  0  0  0  0  0  0  0  0  0  0
   51.5320   28.8100   40.3910 H   0  0  0  0  0  0  0  0  0  0  0  0
   52.5740   28.3540   43.0670 C   0  0  0  0  0  0  0  0  0  0  0  0
   52.1730   28.0150   44.0450 H   0  0  0  0  0  0  0  0  0  0  0  0
   52.7190   27.5120   42.3610 H   0  0  0  0  0  0  0  0  0  0  0  0
   53.9020   28.9740   43.3140 C   0  0  0  0  0  0  0  0  0  0  0  0
   54.3110   29.2570   44.5890 C   0  0  0  0  0  0  0  0  0  0  0  0
   55.5120   29.8280   44.9380 C   0  0  0  0  0  0  0  0  0  0  0  0
   55.7660   30.0230   45.9740 H   0  0  0  0  0  0  0  0  0  0  0  0
   56.3570   30.1310   43.9330 N   0  0  0  0  0  0  0  0  0  0  0  0
   55.9840   29.8630   42.6600 C   0  0  0  0  0  0  0  0  0  0  0  0
   54.8040   29.3070   42.3520 N   0  0  0  0  0  0  0  0  0  0  0  0
  1  9  1  0  0  0  0
  2  7  1  0  0  0  0
  2  1  2  0  0  0  0
  3  2  1  0  0  0  0
  4  3  2  0  0  0  0
  4  5  1  0  0  0  0
  5  6  2  0  0  0  0
  6  1  1  0  0  0  0
  8  3  1  0  0  0  0
  9 14  1  0  0  0  0
 10  9  1  0  0  0  0
 10 11  1  0  0  0  0
 11 19  1  0  0  0  0
 11 12  1  0  0  0  0
 12 20  1  0  0  0  0
 12 13  1  0  0  0  0
 13 23  1  0  0  0  0
 14 25  1  0  0  0  0
 14 13  1  0  0  0  0
 14 24  1  0  0  0  0
 15  9  1  0  0  0  0
 16 10  1  0  0  0  0
 17 10  1  0  0  0  0
 18 11  1  0  0  0  0
 21 12  1  0  0  0  0
 22 13  1  0  0  0  0
 26  5  1  0  0  0  0
 26 30  2  0  0  0  0
 27 28  2  0  0  0  0
 27 26  1  0  0  0  0
 28 29  1  0  0  0  0
 29 32  1  0  0  0  0
 29 30  1  0  0  0  0
 31 28  1  0  0  0  0
 32 35  1  0  0  0  0
 32 33  1  0  0  0  0
 34 32  1  0  0  0  0
 35 36  1  0  0  0  0
 36 37  2  0  0  0  0
 37 38  1  0  0  0  0
 39 37  1  0  0  0  0
 40 39  2  0  0  0  0
 41 40  1  0  0  0  0
 41 35  2  0  0  0  0
M  END
>  <minimizedAffinity>
-4.48322678

>  <minimizedRMSD>
1.49030697

$$$$
