
 OpenBabel03252506493D

 27 29  0  0  0  0  0  0  0  0999 V2000
   44.3860   34.5700   42.1170 C   0  0  0  0  0  0  0  0  0  0  0  0
   44.7180   33.5490   43.0090 C   0  0  0  0  0  0  0  0  0  0  0  0
   45.1810   33.9090   44.2850 C   0  0  0  0  0  0  0  0  0  0  0  0
   45.2820   35.2250   44.5870 N   0  0  0  0  0  0  0  0  0  0  0  0
   44.9510   36.1880   43.6950 C   0  0  0  0  0  0  0  0  0  0  0  0
   44.5010   35.8740   42.4560 N   0  0  0  0  0  0  0  0  0  0  0  0
   44.6340   32.5010   42.7610 H   0  0  0  0  0  0  0  0  0  0  0  0
   45.4340   33.1030   44.9640 H   0  0  0  0  0  0  0  0  0  0  0  0
   45.0790   37.5900   44.0740 C   0  0  0  0  0  0  0  0  0  0  0  0
   44.9580   37.9760   45.3830 C   0  0  0  0  0  3  0  0  0  0  0  0
   45.0900   39.3350   45.6880 C   0  0  0  0  0  0  0  0  0  0  0  0
   44.9950   39.6410   46.7230 H   0  0  0  0  0  0  0  0  0  0  0  0
   45.3340   40.2560   44.7140 N   0  0  0  0  0  0  0  0  0  0  0  0
   45.4410   39.8030   43.4480 C   0  0  0  0  0  3  0  0  0  0  0  0
   45.3220   38.4950   43.0870 N   0  0  0  0  0  0  0  0  0  0  0  0
   43.8060   34.0300   40.5160 S   0  0  0  0  0  0  0  0  0  0  0  0
   41.7010   31.8640   41.5730 Cl  0  0  0  0  0  0  0  0  0  0  0  0
   41.0830   33.2930   40.7460 C   0  0  0  0  0  0  0  0  0  0  0  0
   42.0500   34.1620   40.3300 C   0  0  0  0  0  0  0  0  0  0  0  0
   41.6250   35.3200   39.6660 C   0  0  0  0  0  0  0  0  0  0  0  0
   40.2660   35.5280   39.4650 C   0  0  0  0  0  0  0  0  0  0  0  0
   39.2980   34.6470   39.8860 C   0  0  0  0  0  0  0  0  0  0  0  0
   39.7440   33.5010   40.5450 C   0  0  0  0  0  0  0  0  0  0  0  0
   38.6110   32.2980   41.1330 Cl  0  0  0  0  0  0  0  0  0  0  0  0
   42.3050   36.0750   39.2950 H   0  0  0  0  0  0  0  0  0  0  0  0
   39.9170   36.4240   38.9490 H   0  0  0  0  0  0  0  0  0  0  0  0
   38.2440   34.8210   39.7230 H   0  0  0  0  0  0  0  0  0  0  0  0
  1  6  2  0  0  0  0
  1  2  1  0  0  0  0
  2  3  2  0  0  0  0
  3  4  1  0  0  0  0
  3  8  1  0  0  0  0
  5  9  1  0  0  0  0
  5  4  2  0  0  0  0
  6  5  1  0  0  0  0
  7  2  1  0  0  0  0
  9 10  1  0  0  0  0
 10 11  2  0  0  0  0
 11 12  1  0  0  0  0
 13 11  1  0  0  0  0
 14 13  2  0  0  0  0
 15 14  1  0  0  0  0
 15  9  2  0  0  0  0
 16  1  1  0  0  0  0
 18 17  1  0  0  0  0
 19 16  1  0  0  0  0
 19 18  2  0  0  0  0
 20 19  1  0  0  0  0
 21 20  2  0  0  0  0
 21 22  1  0  0  0  0
 22 23  2  0  0  0  0
 23 18  1  0  0  0  0
 23 24  1  0  0  0  0
 25 20  1  0  0  0  0
 26 21  1  0  0  0  0
 27 22  1  0  0  0  0
M  END
>  <minimizedAffinity>
-3.14034915

>  <minimizedRMSD>
1.54458523

$$$$
