
 OpenBabel03242510583D

 34 36  0  0  0  0  0  0  0  0999 V2000
   39.9350   32.4980   40.5930 C   0  0  0  0  0  0  0  0  0  0  0  0
   39.0600   33.2340   39.7900 C   0  0  0  0  0  0  0  0  0  0  0  0
   37.7260   32.9120   39.6170 C   0  0  0  0  0  0  0  0  0  0  0  0
   37.2510   31.8090   40.2780 C   0  0  0  0  0  0  0  0  0  0  0  0
   38.1270   31.0760   41.0800 C   0  0  0  0  0  0  0  0  0  0  0  0
   39.4030   31.4410   41.2030 N   0  0  0  0  0  0  0  0  0  0  0  0
   39.4710   34.1010   39.2810 H   0  0  0  0  0  0  0  0  0  0  0  0
   37.0980   33.5200   38.9810 H   0  0  0  0  0  0  0  0  0  0  0  0
   36.2100   31.5000   40.1860 H   0  0  0  0  0  0  0  0  0  0  0  0
   44.5610   35.8490   42.5230 C   0  0  0  0  0  0  0  0  0  0  0  0
   45.5620   35.2840   41.7460 C   0  0  0  0  0  0  0  0  0  0  0  0
   45.1840   34.2940   40.8200 C   0  0  0  0  0  0  0  0  0  0  0  0
   43.8660   33.9430   40.7360 N   0  0  0  0  0  0  0  0  0  0  0  0
   42.9380   34.5300   41.5210 C   0  0  0  0  0  0  0  0  0  0  0  0
   43.2730   35.5010   42.4360 N   0  0  0  0  0  0  0  0  0  0  0  0
   41.3280   32.9070   40.7180 C   0  0  0  0  0  0  0  0  0  0  0  0
   42.2240   32.1610   40.2230 O   0  0  0  0  0  0  0  0  0  0  0  0
   41.5800   34.1360   41.4010 N   0  0  0  0  0  0  0  0  0  0  0  0
   44.8020   36.6270   43.2630 H   0  0  0  0  0  0  0  0  0  0  0  0
   46.5850   35.5730   41.8280 H   0  0  0  0  0  0  0  0  0  0  0  0
   45.9040   33.8040   40.1760 H   0  0  0  0  0  0  0  0  0  0  0  0
   40.8140   34.7170   41.7930 H   0  0  0  0  0  0  0  0  0  0  0  0
   37.6020   29.9090   41.7720 C   0  0  0  0  0  3  0  0  0  0  0  0
   38.1740   29.4670   42.8950 C   0  0  0  0  0  3  0  0  0  0  0  0
   37.7230   28.2950   43.6740 C   0  0  0  0  0  0  0  0  0  0  0  0
   36.6430   28.0620   43.4740 H   0  0  0  0  0  0  0  0  0  0  0  0
   37.8540   28.4690   44.7430 H   0  0  0  0  0  0  0  0  0  0  0  0
   38.4520   27.0540   43.2740 C   0  0  0  0  0  0  0  0  0  0  0  0
   39.6470   26.8260   43.9270 C   0  0  0  0  0  3  0  0  0  0  0  0
   40.3910   25.7070   43.6270 C   0  0  0  0  0  0  0  0  0  0  0  0
   41.3230   25.5440   44.1470 H   0  0  0  0  0  0  0  0  0  0  0  0
   39.8940   24.8810   42.6860 N   0  0  0  0  0  0  0  0  0  0  0  0
   38.7310   25.1260   42.0660 C   0  0  0  0  0  3  0  0  0  0  0  0
   37.9680   26.2090   42.3280 N   0  0  0  0  0  0  0  0  0  0  0  0
  1 16  1  0  0  0  0
  1  6  1  0  0  0  0
  2  1  2  0  0  0  0
  3  2  1  0  0  0  0
  3  4  2  0  0  0  0
  4  5  1  0  0  0  0
  5  6  2  0  0  0  0
  5 23  1  0  0  0  0
  7  2  1  0  0  0  0
  8  3  1  0  0  0  0
  9  4  1  0  0  0  0
 10 19  1  0  0  0  0
 11 20  1  0  0  0  0
 11 10  2  0  0  0  0
 12 11  1  0  0  0  0
 13 12  2  0  0  0  0
 13 14  1  0  0  0  0
 14 15  2  0  0  0  0
 15 10  1  0  0  0  0
 16 18  1  0  0  0  0
 17 16  2  0  0  0  0
 18 14  1  0  0  0  0
 18 22  1  0  0  0  0
 21 12  1  0  0  0  0
 23 24  2  0  0  0  0
 24 25  1  0  0  0  0
 25 27  1  0  0  0  0
 26 25  1  0  0  0  0
 28 25  1  0  0  0  0
 28 29  1  0  0  0  0
 30 29  2  0  0  0  0
 30 31  1  0  0  0  0
 32 30  1  0  0  0  0
 33 34  1  0  0  0  0
 33 32  2  0  0  0  0
 34 28  2  0  0  0  0
M  END
>  <minimizedAffinity>
-6.43261719

$$$$

 OpenBabel03242510583D

 34 36  0  0  0  0  0  0  0  0999 V2000
   37.1720   30.6860   40.9060 C   0  0  0  0  0  0  0  0  0  0  0  0
   36.0310   30.2540   40.2240 C   0  0  0  0  0  0  0  0  0  0  0  0
   35.4010   29.0490   40.4750 C   0  0  0  0  0  0  0  0  0  0  0  0
   35.9340   28.2470   41.4500 C   0  0  0  0  0  0  0  0  0  0  0  0
   37.0730   28.6810   42.1300 C   0  0  0  0  0  0  0  0  0  0  0  0
   37.6330   29.8550   41.8380 N   0  0  0  0  0  0  0  0  0  0  0  0
   35.6360   30.9150   39.4580 H   0  0  0  0  0  0  0  0  0  0  0  0
   34.5200   28.7690   39.9130 H   0  0  0  0  0  0  0  0  0  0  0  0
   35.4870   27.2850   41.6970 H   0  0  0  0  0  0  0  0  0  0  0  0
   41.5930   34.7520   40.3920 C   0  0  0  0  0  0  0  0  0  0  0  0
   40.8240   35.8490   40.0280 C   0  0  0  0  0  0  0  0  0  0  0  0
   39.4280   35.6760   39.9900 C   0  0  0  0  0  0  0  0  0  0  0  0
   38.9080   34.4520   40.3070 N   0  0  0  0  0  0  0  0  0  0  0  0
   39.7110   33.4240   40.6530 C   0  0  0  0  0  0  0  0  0  0  0  0
   41.0790   33.5590   40.7020 N   0  0  0  0  0  0  0  0  0  0  0  0
   37.7730   31.9720   40.5780 C   0  0  0  0  0  0  0  0  0  0  0  0
   37.0690   32.8290   39.9650 O   0  0  0  0  0  0  0  0  0  0  0  0
   39.1300   32.1710   40.9760 N   0  0  0  0  0  0  0  0  0  0  0  0
   42.6910   34.8320   40.4380 H   0  0  0  0  0  0  0  0  0  0  0  0
   41.2510   36.7940   39.7840 H   0  0  0  0  0  0  0  0  0  0  0  0
   38.7570   36.4810   39.7160 H   0  0  0  0  0  0  0  0  0  0  0  0
   39.6710   31.4400   41.4770 H   0  0  0  0  0  0  0  0  0  0  0  0
   37.6240   27.8130   43.1600 C   0  0  0  0  0  3  0  0  0  0  0  0
   38.8690   27.3440   43.0610 C   0  0  0  0  0  3  0  0  0  0  0  0
   39.5240   26.4590   44.0470 C   0  0  0  0  0  0  0  0  0  0  0  0
   39.1200   25.4130   43.9900 H   0  0  0  0  0  0  0  0  0  0  0  0
   39.3810   26.8370   45.0600 H   0  0  0  0  0  0  0  0  0  0  0  0
   40.9840   26.3080   43.7680 C   0  0  0  0  0  0  0  0  0  0  0  0
   41.8120   27.1990   44.4220 C   0  0  0  0  0  3  0  0  0  0  0  0
   43.1740   27.1390   44.2300 C   0  0  0  0  0  0  0  0  0  0  0  0
   43.8070   27.8430   44.7490 H   0  0  0  0  0  0  0  0  0  0  0  0
   43.6280   26.1890   43.3900 N   0  0  0  0  0  0  0  0  0  0  0  0
   42.8020   25.3360   42.7660 C   0  0  0  0  0  3  0  0  0  0  0  0
   41.4610   25.3580   42.9250 N   0  0  0  0  0  0  0  0  0  0  0  0
  1  6  1  0  0  0  0
  2  3  1  0  0  0  0
  2  1  2  0  0  0  0
  3  4  2  0  0  0  0
  4  9  1  0  0  0  0
  4  5  1  0  0  0  0
  5 23  1  0  0  0  0
  6  5  2  0  0  0  0
  7  2  1  0  0  0  0
  8  3  1  0  0  0  0
 10 19  1  0  0  0  0
 10 15  1  0  0  0  0
 11 10  2  0  0  0  0
 12 11  1  0  0  0  0
 12 13  2  0  0  0  0
 13 14  1  0  0  0  0
 14 15  2  0  0  0  0
 14 18  1  0  0  0  0
 16  1  1  0  0  0  0
 16 18  1  0  0  0  0
 17 16  2  0  0  0  0
 18 22  1  0  0  0  0
 20 11  1  0  0  0  0
 21 12  1  0  0  0  0
 24 23  2  0  0  0  0
 24 25  1  0  0  0  0
 25 27  1  0  0  0  0
 26 25  1  0  0  0  0
 28 25  1  0  0  0  0
 28 29  1  0  0  0  0
 30 29  2  0  0  0  0
 30 31  1  0  0  0  0
 32 30  1  0  0  0  0
 33 34  1  0  0  0  0
 33 32  2  0  0  0  0
 34 28  2  0  0  0  0
M  END
>  <minimizedAffinity>
-6.40924883

$$$$

 OpenBabel03242510583D

 34 36  0  0  0  0  0  0  0  0999 V2000
   39.9210   33.3420   40.3280 C   0  0  0  0  0  0  0  0  0  0  0  0
   39.1350   34.4670   40.0670 C   0  0  0  0  0  0  0  0  0  0  0  0
   37.7900   34.4050   39.7510 C   0  0  0  0  0  0  0  0  0  0  0  0
   37.2100   33.1640   39.6970 C   0  0  0  0  0  0  0  0  0  0  0  0
   37.9970   32.0420   39.9580 C   0  0  0  0  0  0  0  0  0  0  0  0
   39.2900   32.1720   40.2570 N   0  0  0  0  0  0  0  0  0  0  0  0
   39.6280   35.4340   40.1190 H   0  0  0  0  0  0  0  0  0  0  0  0
   37.2350   35.3130   39.5590 H   0  0  0  0  0  0  0  0  0  0  0  0
   36.1550   33.0440   39.4540 H   0  0  0  0  0  0  0  0  0  0  0  0
   44.7550   35.8490   42.9150 C   0  0  0  0  0  0  0  0  0  0  0  0
   45.7380   35.0990   42.2860 C   0  0  0  0  0  0  0  0  0  0  0  0
   45.3220   34.1740   41.3090 C   0  0  0  0  0  0  0  0  0  0  0  0
   43.9870   34.0630   41.0370 N   0  0  0  0  0  0  0  0  0  0  0  0
   43.0790   34.8220   41.6860 C   0  0  0  0  0  0  0  0  0  0  0  0
   43.4520   35.7350   42.6440 N   0  0  0  0  0  0  0  0  0  0  0  0
   41.3330   33.4980   40.6520 C   0  0  0  0  0  0  0  0  0  0  0  0
   42.1410   32.5940   40.2850 O   0  0  0  0  0  0  0  0  0  0  0  0
   41.7030   34.6750   41.3710 N   0  0  0  0  0  0  0  0  0  0  0  0
   45.0260   36.5870   43.6870 H   0  0  0  0  0  0  0  0  0  0  0  0
   46.7740   35.2010   42.5140 H   0  0  0  0  0  0  0  0  0  0  0  0
   46.0260   33.5500   40.7720 H   0  0  0  0  0  0  0  0  0  0  0  0
   41.0070   35.3920   41.6540 H   0  0  0  0  0  0  0  0  0  0  0  0
   37.3610   30.7340   39.8940 C   0  0  0  0  0  3  0  0  0  0  0  0
   36.1860   30.5180   40.4890 C   0  0  0  0  0  3  0  0  0  0  0  0
   35.4560   29.2320   40.4860 C   0  0  0  0  0  0  0  0  0  0  0  0
   35.2700   28.8710   39.4390 H   0  0  0  0  0  0  0  0  0  0  0  0
   34.5000   29.3300   41.0010 H   0  0  0  0  0  0  0  0  0  0  0  0
   36.2580   28.1420   41.1180 C   0  0  0  0  0  0  0  0  0  0  0  0
   36.6190   27.1040   40.2820 C   0  0  0  0  0  3  0  0  0  0  0  0
   37.3600   26.0520   40.7730 C   0  0  0  0  0  0  0  0  0  0  0  0
   37.6340   25.2500   40.1050 H   0  0  0  0  0  0  0  0  0  0  0  0
   37.6950   26.1010   42.0760 N   0  0  0  0  0  0  0  0  0  0  0  0
   37.3300   27.1210   42.8680 C   0  0  0  0  0  3  0  0  0  0  0  0
   36.6050   28.1730   42.4300 N   0  0  0  0  0  0  0  0  0  0  0  0
  1 16  1  0  0  0  0
  2  7  1  0  0  0  0
  2  1  2  0  0  0  0
  3  2  1  0  0  0  0
  4  3  2  0  0  0  0
  4  5  1  0  0  0  0
  5  6  2  0  0  0  0
  6  1  1  0  0  0  0
  8  3  1  0  0  0  0
  9  4  1  0  0  0  0
 10 19  1  0  0  0  0
 11 20  1  0  0  0  0
 11 10  2  0  0  0  0
 12 11  1  0  0  0  0
 13 12  2  0  0  0  0
 13 14  1  0  0  0  0
 14 15  2  0  0  0  0
 15 10  1  0  0  0  0
 16 18  1  0  0  0  0
 17 16  2  0  0  0  0
 18 22  1  0  0  0  0
 18 14  1  0  0  0  0
 21 12  1  0  0  0  0
 23  5  1  0  0  0  0
 23 24  2  0  0  0  0
 25 24  1  0  0  0  0
 25 27  1  0  0  0  0
 25 28  1  0  0  0  0
 26 25  1  0  0  0  0
 28 34  1  0  0  0  0
 29 30  1  0  0  0  0
 29 28  2  0  0  0  0
 30 32  2  0  0  0  0
 31 30  1  0  0  0  0
 32 33  1  0  0  0  0
 34 33  2  0  0  0  0
M  END
>  <minimizedAffinity>
-6.26050282

$$$$

 OpenBabel03242510583D

 34 36  0  0  0  0  0  0  0  0999 V2000
   38.4250   30.2710   41.8800 C   0  0  0  0  0  0  0  0  0  0  0  0
   38.7650   29.4070   42.9240 C   0  0  0  0  0  0  0  0  0  0  0  0
   38.0150   28.2990   43.2750 C   0  0  0  0  0  0  0  0  0  0  0  0
   36.8800   28.0480   42.5480 C   0  0  0  0  0  0  0  0  0  0  0  0
   36.5430   28.9130   41.5060 C   0  0  0  0  0  0  0  0  0  0  0  0
   37.3110   29.9650   41.2200 N   0  0  0  0  0  0  0  0  0  0  0  0
   39.6710   29.6360   43.4770 H   0  0  0  0  0  0  0  0  0  0  0  0
   38.3290   27.6670   44.0930 H   0  0  0  0  0  0  0  0  0  0  0  0
   36.2430   27.1920   42.7720 H   0  0  0  0  0  0  0  0  0  0  0  0
   39.7180   35.8490   39.9900 C   0  0  0  0  0  0  0  0  0  0  0  0
   41.1020   35.7680   40.0420 C   0  0  0  0  0  0  0  0  0  0  0  0
   41.6660   34.5280   40.3970 C   0  0  0  0  0  0  0  0  0  0  0  0
   40.8320   33.4810   40.6700 N   0  0  0  0  0  0  0  0  0  0  0  0
   39.4910   33.6240   40.6020 C   0  0  0  0  0  0  0  0  0  0  0  0
   38.9080   34.8210   40.2580 N   0  0  0  0  0  0  0  0  0  0  0  0
   39.2730   31.4170   41.5780 C   0  0  0  0  0  0  0  0  0  0  0  0
   40.4890   31.3790   41.9340 O   0  0  0  0  0  0  0  0  0  0  0  0
   38.6610   32.5110   40.8930 N   0  0  0  0  0  0  0  0  0  0  0  0
   39.2250   36.7950   39.7180 H   0  0  0  0  0  0  0  0  0  0  0  0
   41.7350   36.5980   39.8250 H   0  0  0  0  0  0  0  0  0  0  0  0
   42.7380   34.3820   40.4610 H   0  0  0  0  0  0  0  0  0  0  0  0
   37.6600   32.5000   40.6200 H   0  0  0  0  0  0  0  0  0  0  0  0
   35.3340   28.6290   40.7480 C   0  0  0  0  0  3  0  0  0  0  0  0
   35.1460   29.1610   39.5390 C   0  0  0  0  0  3  0  0  0  0  0  0
   33.9580   28.9390   38.6880 C   0  0  0  0  0  0  0  0  0  0  0  0
   33.1690   29.7150   38.8770 H   0  0  0  0  0  0  0  0  0  0  0  0
   33.5320   27.9510   38.8690 H   0  0  0  0  0  0  0  0  0  0  0  0
   34.2840   29.0870   37.2370 C   0  0  0  0  0  0  0  0  0  0  0  0
   35.6210   29.2560   36.9400 C   0  0  0  0  0  3  0  0  0  0  0  0
   36.0210   29.4000   35.6300 C   0  0  0  0  0  0  0  0  0  0  0  0
   37.0710   29.5310   35.4150 H   0  0  0  0  0  0  0  0  0  0  0  0
   35.0540   29.3690   34.6930 N   0  0  0  0  0  0  0  0  0  0  0  0
   33.7610   29.2040   35.0090 C   0  0  0  0  0  3  0  0  0  0  0  0
   33.3240   29.0580   36.2780 N   0  0  0  0  0  0  0  0  0  0  0  0
  1  2  1  0  0  0  0
  2  3  2  0  0  0  0
  2  7  1  0  0  0  0
  3  8  1  0  0  0  0
  4  9  1  0  0  0  0
  4  3  1  0  0  0  0
  5  4  2  0  0  0  0
  6  5  1  0  0  0  0
  6  1  2  0  0  0  0
 10 11  2  0  0  0  0
 10 15  1  0  0  0  0
 11 12  1  0  0  0  0
 12 21  1  0  0  0  0
 12 13  2  0  0  0  0
 14 13  1  0  0  0  0
 14 18  1  0  0  0  0
 15 14  2  0  0  0  0
 16  1  1  0  0  0  0
 16 17  2  0  0  0  0
 18 16  1  0  0  0  0
 19 10  1  0  0  0  0
 20 11  1  0  0  0  0
 22 18  1  0  0  0  0
 23  5  1  0  0  0  0
 24 23  2  0  0  0  0
 25 27  1  0  0  0  0
 25 26  1  0  0  0  0
 25 24  1  0  0  0  0
 28 25  1  0  0  0  0
 29 28  1  0  0  0  0
 30 29  2  0  0  0  0
 31 30  1  0  0  0  0
 32 33  2  0  0  0  0
 32 30  1  0  0  0  0
 33 34  1  0  0  0  0
 34 28  2  0  0  0  0
M  END
>  <minimizedAffinity>
-6.07996655

$$$$

 OpenBabel03242510583D

 34 36  0  0  0  0  0  0  0  0999 V2000
   37.7430   30.9190   40.4900 C   0  0  0  0  0  0  0  0  0  0  0  0
   36.4990   30.8020   39.8650 C   0  0  0  0  0  0  0  0  0  0  0  0
   35.5790   29.8160   40.1700 C   0  0  0  0  0  0  0  0  0  0  0  0
   35.9190   28.9120   41.1430 C   0  0  0  0  0  0  0  0  0  0  0  0
   37.1620   29.0310   41.7670 C   0  0  0  0  0  0  0  0  0  0  0  0
   38.0050   30.0070   41.4240 N   0  0  0  0  0  0  0  0  0  0  0  0
   36.2630   31.5350   39.0990 H   0  0  0  0  0  0  0  0  0  0  0  0
   34.6310   29.7770   39.6510 H   0  0  0  0  0  0  0  0  0  0  0  0
   35.2410   28.1100   41.4320 H   0  0  0  0  0  0  0  0  0  0  0  0
   42.1460   33.5680   37.3370 C   0  0  0  0  0  0  0  0  0  0  0  0
   42.2580   34.7350   38.0790 C   0  0  0  0  0  0  0  0  0  0  0  0
   41.4560   34.8500   39.2300 C   0  0  0  0  0  0  0  0  0  0  0  0
   40.6170   33.8200   39.5510 N   0  0  0  0  0  0  0  0  0  0  0  0
   40.5550   32.7090   38.7870 C   0  0  0  0  0  0  0  0  0  0  0  0
   41.3250   32.5640   37.6570 N   0  0  0  0  0  0  0  0  0  0  0  0
   38.6540   31.9890   40.1060 C   0  0  0  0  0  0  0  0  0  0  0  0
   38.4940   33.1340   40.6260 O   0  0  0  0  0  0  0  0  0  0  0  0
   39.6710   31.6630   39.1580 N   0  0  0  0  0  0  0  0  0  0  0  0
   42.7510   33.4260   36.4270 H   0  0  0  0  0  0  0  0  0  0  0  0
   42.9190   35.5270   37.8090 H   0  0  0  0  0  0  0  0  0  0  0  0
   41.4830   35.7290   39.8630 H   0  0  0  0  0  0  0  0  0  0  0  0
   39.7660   30.7100   38.7560 H   0  0  0  0  0  0  0  0  0  0  0  0
   37.5050   28.0610   42.7950 C   0  0  0  0  0  3  0  0  0  0  0  0
   38.7800   27.7950   43.0840 C   0  0  0  0  0  3  0  0  0  0  0  0
   39.2370   26.8310   44.1070 C   0  0  0  0  0  0  0  0  0  0  0  0
   38.6720   25.8630   44.0370 H   0  0  0  0  0  0  0  0  0  0  0  0
   39.1090   27.2420   45.1100 H   0  0  0  0  0  0  0  0  0  0  0  0
   40.6650   26.4440   43.9010 C   0  0  0  0  0  0  0  0  0  0  0  0
   40.8950   25.5260   42.8960 C   0  0  0  0  0  3  0  0  0  0  0  0
   42.1810   25.1080   42.6290 C   0  0  0  0  0  0  0  0  0  0  0  0
   42.3430   24.3900   41.8390 H   0  0  0  0  0  0  0  0  0  0  0  0
   43.1600   25.6330   43.3900 N   0  0  0  0  0  0  0  0  0  0  0  0
   42.9090   26.5230   44.3620 C   0  0  0  0  0  3  0  0  0  0  0  0
   41.6660   26.9620   44.6570 N   0  0  0  0  0  0  0  0  0  0  0  0
  1  6  1  0  0  0  0
  2  3  1  0  0  0  0
  2  1  2  0  0  0  0
  3  4  2  0  0  0  0
  4  9  1  0  0  0  0
  4  5  1  0  0  0  0
  5 23  1  0  0  0  0
  6  5  2  0  0  0  0
  7  2  1  0  0  0  0
  8  3  1  0  0  0  0
 10 15  2  0  0  0  0
 10 11  1  0  0  0  0
 11 12  2  0  0  0  0
 12 13  1  0  0  0  0
 12 21  1  0  0  0  0
 14 18  1  0  0  0  0
 14 13  2  0  0  0  0
 15 14  1  0  0  0  0
 16  1  1  0  0  0  0
 16 17  2  0  0  0  0
 18 16  1  0  0  0  0
 19 10  1  0  0  0  0
 20 11  1  0  0  0  0
 22 18  1  0  0  0  0
 23 24  2  0  0  0  0
 24 25  1  0  0  0  0
 25 27  1  0  0  0  0
 26 25  1  0  0  0  0
 28 25  1  0  0  0  0
 28 34  1  0  0  0  0
 29 28  2  0  0  0  0
 30 29  1  0  0  0  0
 30 32  2  0  0  0  0
 31 30  1  0  0  0  0
 32 33  1  0  0  0  0
 33 34  2  0  0  0  0
M  END
>  <minimizedAffinity>
-6.0620923

$$$$

 OpenBabel03242510583D

 34 36  0  0  0  0  0  0  0  0999 V2000
   39.5240   32.4680   40.5750 C   0  0  0  0  0  0  0  0  0  0  0  0
   38.6460   33.1160   39.7020 C   0  0  0  0  0  0  0  0  0  0  0  0
   37.3420   32.7060   39.4850 C   0  0  0  0  0  0  0  0  0  0  0  0
   36.9030   31.6050   40.1720 C   0  0  0  0  0  0  0  0  0  0  0  0
   37.7810   30.9600   41.0430 C   0  0  0  0  0  0  0  0  0  0  0  0
   39.0270   31.4070   41.2070 N   0  0  0  0  0  0  0  0  0  0  0  0
   39.0280   33.9840   39.1750 H   0  0  0  0  0  0  0  0  0  0  0  0
   36.7100   33.2490   38.7960 H   0  0  0  0  0  0  0  0  0  0  0  0
   35.8870   31.2290   40.0470 H   0  0  0  0  0  0  0  0  0  0  0  0
   45.0160   32.8270   43.0370 C   0  0  0  0  0  0  0  0  0  0  0  0
   45.4780   33.9390   42.3470 C   0  0  0  0  0  0  0  0  0  0  0  0
   44.5800   34.5780   41.4710 C   0  0  0  0  0  0  0  0  0  0  0  0
   43.3160   34.0760   41.3460 N   0  0  0  0  0  0  0  0  0  0  0  0
   42.9260   32.9890   42.0450 C   0  0  0  0  0  0  0  0  0  0  0  0
   43.7770   32.3420   42.9100 N   0  0  0  0  0  0  0  0  0  0  0  0
   40.8820   32.9660   40.7440 C   0  0  0  0  0  0  0  0  0  0  0  0
   41.3420   33.7730   39.8810 O   0  0  0  0  0  0  0  0  0  0  0  0
   41.6030   32.5010   41.8860 N   0  0  0  0  0  0  0  0  0  0  0  0
   45.6760   32.2900   43.7350 H   0  0  0  0  0  0  0  0  0  0  0  0
   46.4700   34.3140   42.4600 H   0  0  0  0  0  0  0  0  0  0  0  0
   44.8630   35.4510   40.8950 H   0  0  0  0  0  0  0  0  0  0  0  0
   41.1880   31.8390   42.5690 H   0  0  0  0  0  0  0  0  0  0  0  0
   37.2940   29.7920   41.7620 C   0  0  0  0  0  3  0  0  0  0  0  0
   37.8890   29.3870   42.8860 C   0  0  0  0  0  3  0  0  0  0  0  0
   37.4760   28.2180   43.6910 C   0  0  0  0  0  0  0  0  0  0  0  0
   36.4280   27.9010   43.4450 H   0  0  0  0  0  0  0  0  0  0  0  0
   37.5350   28.4430   44.7570 H   0  0  0  0  0  0  0  0  0  0  0  0
   38.3100   27.0170   43.3850 C   0  0  0  0  0  0  0  0  0  0  0  0
   37.7620   26.1230   42.4870 C   0  0  0  0  0  3  0  0  0  0  0  0
   38.4560   24.9850   42.1400 C   0  0  0  0  0  0  0  0  0  0  0  0
   38.0140   24.2970   41.4360 H   0  0  0  0  0  0  0  0  0  0  0  0
   39.6600   24.8080   42.7180 N   0  0  0  0  0  0  0  0  0  0  0  0
   40.1690   25.6920   43.5900 C   0  0  0  0  0  3  0  0  0  0  0  0
   39.5250   26.8200   43.9580 N   0  0  0  0  0  0  0  0  0  0  0  0
  1 16  1  0  0  0  0
  1  6  1  0  0  0  0
  2  1  2  0  0  0  0
  3  2  1  0  0  0  0
  3  4  2  0  0  0  0
  4  5  1  0  0  0  0
  5  6  2  0  0  0  0
  5 23  1  0  0  0  0
  7  2  1  0  0  0  0
  8  3  1  0  0  0  0
  9  4  1  0  0  0  0
 10 19  1  0  0  0  0
 11 20  1  0  0  0  0
 11 10  2  0  0  0  0
 12 11  1  0  0  0  0
 13 12  2  0  0  0  0
 13 14  1  0  0  0  0
 14 15  2  0  0  0  0
 15 10  1  0  0  0  0
 16 18  1  0  0  0  0
 17 16  2  0  0  0  0
 18 14  1  0  0  0  0
 18 22  1  0  0  0  0
 21 12  1  0  0  0  0
 23 24  2  0  0  0  0
 24 25  1  0  0  0  0
 25 27  1  0  0  0  0
 26 25  1  0  0  0  0
 28 25  1  0  0  0  0
 28 34  1  0  0  0  0
 29 28  2  0  0  0  0
 30 29  1  0  0  0  0
 30 32  2  0  0  0  0
 31 30  1  0  0  0  0
 32 33  1  0  0  0  0
 33 34  2  0  0  0  0
M  END
>  <minimizedAffinity>
-6.01532507

$$$$

 OpenBabel03242510583D

 34 36  0  0  0  0  0  0  0  0999 V2000
   38.9490   33.2560   40.6400 C   0  0  0  0  0  0  0  0  0  0  0  0
   38.2500   34.3900   40.2140 C   0  0  0  0  0  0  0  0  0  0  0  0
   38.8570   35.5980   39.9220 C   0  0  0  0  0  0  0  0  0  0  0  0
   40.2190   35.6710   40.0600 C   0  0  0  0  0  0  0  0  0  0  0  0
   40.9140   34.5380   40.4840 C   0  0  0  0  0  0  0  0  0  0  0  0
   40.2670   33.4030   40.7500 N   0  0  0  0  0  0  0  0  0  0  0  0
   37.1730   34.2950   40.1160 H   0  0  0  0  0  0  0  0  0  0  0  0
   38.2620   36.4400   39.5970 H   0  0  0  0  0  0  0  0  0  0  0  0
   40.7600   36.5920   39.8460 H   0  0  0  0  0  0  0  0  0  0  0  0
   37.8880   27.9780   43.3520 C   0  0  0  0  0  0  0  0  0  0  0  0
   36.8040   27.5680   42.5890 C   0  0  0  0  0  0  0  0  0  0  0  0
   36.4210   28.3910   41.5130 C   0  0  0  0  0  0  0  0  0  0  0  0
   37.1270   29.5380   41.2810 N   0  0  0  0  0  0  0  0  0  0  0  0
   38.1720   29.8820   42.0610 C   0  0  0  0  0  0  0  0  0  0  0  0
   38.5730   29.1010   43.1190 N   0  0  0  0  0  0  0  0  0  0  0  0
   38.2290   32.0230   40.9270 C   0  0  0  0  0  0  0  0  0  0  0  0
   37.0850   31.8560   40.4090 O   0  0  0  0  0  0  0  0  0  0  0  0
   38.8780   31.0820   41.7840 N   0  0  0  0  0  0  0  0  0  0  0  0
   38.2290   27.3720   44.2060 H   0  0  0  0  0  0  0  0  0  0  0  0
   36.2680   26.6680   42.7880 H   0  0  0  0  0  0  0  0  0  0  0  0
   35.5860   28.1430   40.8680 H   0  0  0  0  0  0  0  0  0  0  0  0
   39.8170   31.2590   42.1880 H   0  0  0  0  0  0  0  0  0  0  0  0
   42.3590   34.6380   40.6250 C   0  0  0  0  0  3  0  0  0  0  0  0
   43.1650   33.7630   40.0200 C   0  0  0  0  0  3  0  0  0  0  0  0
   44.6410   33.7730   40.0970 C   0  0  0  0  0  0  0  0  0  0  0  0
   45.0810   34.5440   39.4090 H   0  0  0  0  0  0  0  0  0  0  0  0
   45.0480   32.7950   39.8360 H   0  0  0  0  0  0  0  0  0  0  0  0
   45.1190   34.1700   41.4550 C   0  0  0  0  0  0  0  0  0  0  0  0
   45.1020   33.1730   42.4090 C   0  0  0  0  0  3  0  0  0  0  0  0
   45.5260   33.4420   43.6920 C   0  0  0  0  0  0  0  0  0  0  0  0
   45.5060   32.6510   44.4260 H   0  0  0  0  0  0  0  0  0  0  0  0
   45.9400   34.6990   43.9440 N   0  0  0  0  0  0  0  0  0  0  0  0
   45.9460   35.6500   42.9980 C   0  0  0  0  0  3  0  0  0  0  0  0
   45.5410   35.4320   41.7280 N   0  0  0  0  0  0  0  0  0  0  0  0
  1  6  1  0  0  0  0
  1 16  1  0  0  0  0
  2  1  2  0  0  0  0
  3  4  2  0  0  0  0
  3  2  1  0  0  0  0
  4  5  1  0  0  0  0
  5 23  1  0  0  0  0
  5  6  2  0  0  0  0
  7  2  1  0  0  0  0
  8  3  1  0  0  0  0
  9  4  1  0  0  0  0
 10 19  1  0  0  0  0
 11 20  1  0  0  0  0
 11 10  2  0  0  0  0
 12 11  1  0  0  0  0
 13 12  2  0  0  0  0
 13 14  1  0  0  0  0
 14 15  2  0  0  0  0
 15 10  1  0  0  0  0
 16 18  1  0  0  0  0
 17 16  2  0  0  0  0
 18 14  1  0  0  0  0
 18 22  1  0  0  0  0
 21 12  1  0  0  0  0
 24 25  1  0  0  0  0
 24 23  2  0  0  0  0
 25 28  1  0  0  0  0
 26 25  1  0  0  0  0
 27 25  1  0  0  0  0
 28 34  2  0  0  0  0
 28 29  1  0  0  0  0
 29 30  2  0  0  0  0
 30 32  1  0  0  0  0
 30 31  1  0  0  0  0
 33 32  2  0  0  0  0
 34 33  1  0  0  0  0
M  END
>  <minimizedAffinity>
-6.01455355

$$$$

 OpenBabel03242510583D

 34 36  0  0  0  0  0  0  0  0999 V2000
   37.4520   30.2200   40.5080 C   0  0  0  0  0  0  0  0  0  0  0  0
   36.4750   29.6770   39.6710 C   0  0  0  0  0  0  0  0  0  0  0  0
   36.0210   28.3740   39.7690 C   0  0  0  0  0  0  0  0  0  0  0  0
   36.5700   27.5850   40.7470 C   0  0  0  0  0  0  0  0  0  0  0  0
   37.5460   28.1300   41.5820 C   0  0  0  0  0  0  0  0  0  0  0  0
   37.9380   29.3960   41.4340 N   0  0  0  0  0  0  0  0  0  0  0  0
   36.0630   30.3300   38.9070 H   0  0  0  0  0  0  0  0  0  0  0  0
   35.2620   28.0100   39.0910 H   0  0  0  0  0  0  0  0  0  0  0  0
   36.2580   26.5500   40.8790 H   0  0  0  0  0  0  0  0  0  0  0  0
   41.3450   34.7990   40.0270 C   0  0  0  0  0  0  0  0  0  0  0  0
   40.4340   35.8450   40.0220 C   0  0  0  0  0  0  0  0  0  0  0  0
   39.0750   35.5210   40.1950 C   0  0  0  0  0  0  0  0  0  0  0  0
   38.7280   34.2090   40.3560 N   0  0  0  0  0  0  0  0  0  0  0  0
   39.6640   33.2360   40.3510 C   0  0  0  0  0  0  0  0  0  0  0  0
   40.9990   33.5180   40.1850 N   0  0  0  0  0  0  0  0  0  0  0  0
   37.8720   31.6050   40.3350 C   0  0  0  0  0  0  0  0  0  0  0  0
   36.9960   32.4680   40.0320 O   0  0  0  0  0  0  0  0  0  0  0  0
   39.2600   31.8860   40.5220 N   0  0  0  0  0  0  0  0  0  0  0  0
   42.4210   34.9960   39.8960 H   0  0  0  0  0  0  0  0  0  0  0  0
   40.7270   36.8620   39.8950 H   0  0  0  0  0  0  0  0  0  0  0  0
   38.3000   36.2780   40.2030 H   0  0  0  0  0  0  0  0  0  0  0  0
   39.9450   31.1470   40.7690 H   0  0  0  0  0  0  0  0  0  0  0  0
   38.1150   27.2760   42.6130 C   0  0  0  0  0  3  0  0  0  0  0  0
   38.9430   26.2800   42.2920 C   0  0  0  0  0  3  0  0  0  0  0  0
   39.5750   25.3550   43.2570 C   0  0  0  0  0  0  0  0  0  0  0  0
   39.7180   24.3340   42.8110 H   0  0  0  0  0  0  0  0  0  0  0  0
   38.9680   25.2650   44.1590 H   0  0  0  0  0  0  0  0  0  0  0  0
   40.9540   25.7980   43.6210 C   0  0  0  0  0  0  0  0  0  0  0  0
   41.9820   25.1610   42.9550 C   0  0  0  0  0  3  0  0  0  0  0  0
   43.2900   25.5010   43.2230 C   0  0  0  0  0  0  0  0  0  0  0  0
   44.0810   24.9930   42.6930 H   0  0  0  0  0  0  0  0  0  0  0  0
   43.4910   26.4610   44.1460 N   0  0  0  0  0  0  0  0  0  0  0  0
   42.4740   27.0640   44.7800 C   0  0  0  0  0  3  0  0  0  0  0  0
   41.1780   26.7640   44.5500 N   0  0  0  0  0  0  0  0  0  0  0  0
  1  6  1  0  0  0  0
  2  3  1  0  0  0  0
  2  1  2  0  0  0  0
  3  4  2  0  0  0  0
  4  9  1  0  0  0  0
  4  5  1  0  0  0  0
  5 23  1  0  0  0  0
  6  5  2  0  0  0  0
  7  2  1  0  0  0  0
  8  3  1  0  0  0  0
 10 15  1  0  0  0  0
 11 10  2  0  0  0  0
 11 12  1  0  0  0  0
 12 21  1  0  0  0  0
 12 13  2  0  0  0  0
 14 13  1  0  0  0  0
 14 18  1  0  0  0  0
 15 14  2  0  0  0  0
 16  1  1  0  0  0  0
 16 18  1  0  0  0  0
 17 16  2  0  0  0  0
 18 22  1  0  0  0  0
 19 10  1  0  0  0  0
 20 11  1  0  0  0  0
 24 23  2  0  0  0  0
 24 25  1  0  0  0  0
 25 28  1  0  0  0  0
 25 27  1  0  0  0  0
 26 25  1  0  0  0  0
 28 34  1  0  0  0  0
 29 30  1  0  0  0  0
 29 28  2  0  0  0  0
 30 32  2  0  0  0  0
 31 30  1  0  0  0  0
 32 33  1  0  0  0  0
 34 33  2  0  0  0  0
M  END
>  <minimizedAffinity>
-5.88037491

$$$$

 OpenBabel03242510583D

 34 36  0  0  0  0  0  0  0  0999 V2000
   37.3380   30.7950   38.4180 C   0  0  0  0  0  0  0  0  0  0  0  0
   37.0510   30.6070   37.0640 C   0  0  0  0  0  0  0  0  0  0  0  0
   36.5630   29.4220   36.5420 C   0  0  0  0  0  0  0  0  0  0  0  0
   36.3530   28.3860   37.4150 C   0  0  0  0  0  0  0  0  0  0  0  0
   36.6400   28.5770   38.7680 C   0  0  0  0  0  0  0  0  0  0  0  0
   37.1090   29.7460   39.2050 N   0  0  0  0  0  0  0  0  0  0  0  0
   37.2300   31.4490   36.4010 H   0  0  0  0  0  0  0  0  0  0  0  0
   36.3600   29.3370   35.4840 H   0  0  0  0  0  0  0  0  0  0  0  0
   35.9700   27.4260   37.0710 H   0  0  0  0  0  0  0  0  0  0  0  0
   41.5320   34.8840   39.8480 C   0  0  0  0  0  0  0  0  0  0  0  0
   40.7000   35.8470   40.4020 C   0  0  0  0  0  0  0  0  0  0  0  0
   39.3310   35.5390   40.5040 C   0  0  0  0  0  0  0  0  0  0  0  0
   38.8960   34.3230   40.0570 N   0  0  0  0  0  0  0  0  0  0  0  0
   39.7560   33.4290   39.5270 C   0  0  0  0  0  0  0  0  0  0  0  0
   41.1000   33.6970   39.4120 N   0  0  0  0  0  0  0  0  0  0  0  0
   37.8510   32.0770   38.8830 C   0  0  0  0  0  0  0  0  0  0  0  0
   37.0280   33.0190   39.0860 O   0  0  0  0  0  0  0  0  0  0  0  0
   39.2620   32.1770   39.0750 N   0  0  0  0  0  0  0  0  0  0  0  0
   42.6120   35.0730   39.7440 H   0  0  0  0  0  0  0  0  0  0  0  0
   41.0610   36.7900   40.7440 H   0  0  0  0  0  0  0  0  0  0  0  0
   38.6150   36.2360   40.9240 H   0  0  0  0  0  0  0  0  0  0  0  0
   39.9020   31.3800   38.8950 H   0  0  0  0  0  0  0  0  0  0  0  0
   36.4110   27.4640   39.6760 C   0  0  0  0  0  3  0  0  0  0  0  0
   37.0870   27.3710   40.8230 C   0  0  0  0  0  3  0  0  0  0  0  0
   36.9320   26.2860   41.8150 C   0  0  0  0  0  0  0  0  0  0  0  0
   36.6880   25.3090   41.3180 H   0  0  0  0  0  0  0  0  0  0  0  0
   36.1430   26.5250   42.5290 H   0  0  0  0  0  0  0  0  0  0  0  0
   38.2080   26.0220   42.5460 C   0  0  0  0  0  0  0  0  0  0  0  0
   38.7420   24.7600   42.3780 C   0  0  0  0  0  3  0  0  0  0  0  0
   39.9170   24.4210   43.0120 C   0  0  0  0  0  0  0  0  0  0  0  0
   40.3210   23.4310   42.8690 H   0  0  0  0  0  0  0  0  0  0  0  0
   40.4880   25.3690   43.7800 N   0  0  0  0  0  0  0  0  0  0  0  0
   39.9470   26.5880   43.9280 C   0  0  0  0  0  3  0  0  0  0  0  0
   38.7980   26.9630   43.3260 N   0  0  0  0  0  0  0  0  0  0  0  0
  1 16  1  0  0  0  0
  1  6  1  0  0  0  0
  2  1  2  0  0  0  0
  3  2  1  0  0  0  0
  3  4  2  0  0  0  0
  4  5  1  0  0  0  0
  5  6  2  0  0  0  0
  5 23  1  0  0  0  0
  7  2  1  0  0  0  0
  8  3  1  0  0  0  0
  9  4  1  0  0  0  0
 10 11  1  0  0  0  0
 11 12  2  0  0  0  0
 11 20  1  0  0  0  0
 12 21  1  0  0  0  0
 13 12  1  0  0  0  0
 14 13  2  0  0  0  0
 15 14  1  0  0  0  0
 15 10  2  0  0  0  0
 16 18  1  0  0  0  0
 16 17  2  0  0  0  0
 18 14  1  0  0  0  0
 19 10  1  0  0  0  0
 22 18  1  0  0  0  0
 23 24  2  0  0  0  0
 24 25  1  0  0  0  0
 25 27  1  0  0  0  0
 25 28  1  0  0  0  0
 26 25  1  0  0  0  0
 28 34  1  0  0  0  0
 29 28  2  0  0  0  0
 29 30  1  0  0  0  0
 30 32  2  0  0  0  0
 31 30  1  0  0  0  0
 32 33  1  0  0  0  0
 34 33  2  0  0  0  0
M  END
>  <minimizedAffinity>
-5.8394928

$$$$
