
 OpenBabel03242518373D

 33 36  0  0  1  0  0  0  0  0999 V2000
   37.8690   28.6870   41.7580 C   0  0  0  0  0  0  0  0  0  0  0  0
   36.9750   28.4090   42.7870 C   0  0  0  0  0  0  0  0  0  0  0  0
   37.5660   27.5030   43.6570 C   0  0  0  0  0  0  0  0  0  0  0  0
   38.8020   27.2740   43.1070 C   0  0  0  0  0  0  0  0  0  0  0  0
   38.9720   27.9670   41.9990 O   0  0  0  0  0  0  0  0  0  0  0  0
   35.9930   28.8630   42.8360 H   0  0  0  0  0  0  0  0  0  0  0  0
   37.1170   27.0950   44.5530 H   0  0  0  0  0  0  0  0  0  0  0  0
   39.8140   26.3730   43.6790 C   0  0  2  0  0  0  0  0  0  0  0  0
   40.9450   25.9290   42.8370 C   0  0  0  0  0  0  0  0  0  0  0  0
   39.8240   24.9700   43.0270 C   0  0  2  0  0  0  0  0  0  0  0  0
   39.8040   26.3260   44.7910 H   0  0  0  0  0  0  0  0  0  0  0  0
   41.9200   25.7160   43.3620 H   0  0  0  0  0  0  0  0  0  0  0  0
   41.0700   26.4280   41.8630 H   0  0  0  0  0  0  0  0  0  0  0  0
   40.0480   24.1150   43.6950 H   0  0  0  0  0  0  0  0  0  0  0  0
   38.8370   24.6880   41.9880 C   0  0  0  0  0  0  0  0  0  0  0  0
   39.2450   24.8110   40.6540 C   0  0  0  0  0  3  0  0  0  0  0  0
   38.3960   24.5700   39.5880 C   0  0  0  0  0  0  0  0  0  0  0  0
   38.7570   24.6770   38.5620 H   0  0  0  0  0  0  0  0  0  0  0  0
   37.1180   24.1990   39.8760 N   0  0  0  0  0  0  0  0  0  0  0  0
   36.7110   24.0770   41.1720 C   0  0  0  0  0  3  0  0  0  0  0  0
   37.5720   24.3220   42.1870 N   0  0  0  0  0  0  0  0  0  0  0  0
   37.7570   29.5340   40.6370 O   0  0  0  0  0  0  0  0  0  0  0  0
   37.3670   30.8800   40.8180 C   0  0  0  0  0  0  0  0  0  0  0  0
   36.1510   31.0740   41.0580 O   0  0  0  0  0  0  0  0  0  0  0  0
   38.4030   31.8530   40.7080 C   0  0  0  0  0  0  0  0  0  0  0  0
   37.9720   33.1040   40.3570 C   0  0  0  0  0  0  0  0  0  0  0  0
   38.9350   34.1140   40.2300 C   0  0  0  0  0  0  0  0  0  0  0  0
   40.2220   33.8000   40.4570 N   0  0  0  0  0  0  0  0  0  0  0  0
   40.6040   32.5640   40.7980 C   0  0  0  0  0  0  0  0  0  0  0  0
   39.6800   31.6070   40.9180 N   0  0  0  0  0  0  0  0  0  0  0  0
   36.9360   33.3940   40.1660 H   0  0  0  0  0  0  0  0  0  0  0  0
   38.6210   35.1280   39.9500 H   0  0  0  0  0  0  0  0  0  0  0  0
   41.6560   32.3800   40.9650 H   0  0  0  0  0  0  0  0  0  0  0  0
  1  5  1  0  0  0  0
  1  2  2  0  0  0  0
  2  6  1  0  0  0  0
  2  3  1  0  0  0  0
  3  7  1  0  0  0  0
  4  3  2  0  0  0  0
  4  8  1  0  0  0  0
  5  4  1  0  0  0  0
  8 11  1  1  0  0  0
  9 10  1  0  0  0  0
  9 12  1  0  0  0  0
  9  8  1  0  0  0  0
 10  8  1  0  0  0  0
 10 14  1  1  0  0  0
 13  9  1  0  0  0  0
 15 21  1  0  0  0  0
 15 10  1  0  0  0  0
 16 15  2  0  0  0  0
 17 19  2  0  0  0  0
 17 16  1  0  0  0  0
 18 17  1  0  0  0  0
 19 20  1  0  0  0  0
 20 21  2  0  0  0  0
 22 23  1  0  0  0  0
 22  1  1  0  0  0  0
 23 24  2  0  0  0  0
 25 23  1  0  0  0  0
 25 30  1  0  0  0  0
 26 25  2  0  0  0  0
 27 26  1  0  0  0  0
 27 28  2  0  0  0  0
 28 29  1  0  0  0  0
 29 30  2  0  0  0  0
 29 33  1  0  0  0  0
 31 26  1  0  0  0  0
 32 27  1  0  0  0  0
M  END
>  <minimizedAffinity>
-5.44005537

$$$$

 OpenBabel03242518373D

 33 36  0  0  1  0  0  0  0  0999 V2000
   37.2880   29.0990   39.4470 C   0  0  0  0  0  0  0  0  0  0  0  0
   35.9650   28.8420   39.7880 C   0  0  0  0  0  0  0  0  0  0  0  0
   35.9010   28.5750   41.1490 C   0  0  0  0  0  0  0  0  0  0  0  0
   37.2020   28.6840   41.5690 C   0  0  0  0  0  0  0  0  0  0  0  0
   38.0070   28.9900   40.5710 O   0  0  0  0  0  0  0  0  0  0  0  0
   35.1660   28.8630   39.0570 H   0  0  0  0  0  0  0  0  0  0  0  0
   35.0070   28.3380   41.7100 H   0  0  0  0  0  0  0  0  0  0  0  0
   37.6480   28.4910   42.9580 C   0  0  2  0  0  0  0  0  0  0  0  0
   39.0720   28.1980   43.2250 C   0  0  0  0  0  0  0  0  0  0  0  0
   38.1260   27.0500   43.2530 C   0  0  2  0  0  0  0  0  0  0  0  0
   36.9310   28.8670   43.7210 H   0  0  0  0  0  0  0  0  0  0  0  0
   39.4930   28.5610   44.2070 H   0  0  0  0  0  0  0  0  0  0  0  0
   39.7710   28.3010   42.3810 H   0  0  0  0  0  0  0  0  0  0  0  0
   37.9030   26.6510   44.2620 H   0  0  0  0  0  0  0  0  0  0  0  0
   38.0440   26.0650   42.1770 C   0  0  0  0  0  0  0  0  0  0  0  0
   36.9610   25.1780   42.1880 C   0  0  0  0  0  3  0  0  0  0  0  0
   36.7810   24.2060   41.2200 C   0  0  0  0  0  0  0  0  0  0  0  0
   35.9200   23.5350   41.2690 H   0  0  0  0  0  0  0  0  0  0  0  0
   37.7090   24.1300   40.2270 N   0  0  0  0  0  0  0  0  0  0  0  0
   38.7680   24.9890   40.2070 C   0  0  0  0  0  3  0  0  0  0  0  0
   38.9090   25.9270   41.1730 N   0  0  0  0  0  0  0  0  0  0  0  0
   37.8790   29.4230   38.2080 O   0  0  0  0  0  0  0  0  0  0  0  0
   37.7150   30.7210   37.6770 C   0  0  0  0  0  0  0  0  0  0  0  0
   37.1660   30.7900   36.5500 O   0  0  0  0  0  0  0  0  0  0  0  0
   38.1930   31.7940   38.4840 C   0  0  0  0  0  0  0  0  0  0  0  0
   37.2140   32.6140   38.9760 C   0  0  0  0  0  0  0  0  0  0  0  0
   37.6100   33.6930   39.7790 C   0  0  0  0  0  0  0  0  0  0  0  0
   38.9210   33.8600   40.0210 N   0  0  0  0  0  0  0  0  0  0  0  0
   39.8480   33.0360   39.5220 C   0  0  0  0  0  0  0  0  0  0  0  0
   39.4640   32.0110   38.7570 N   0  0  0  0  0  0  0  0  0  0  0  0
   36.1410   32.5070   38.8000 H   0  0  0  0  0  0  0  0  0  0  0  0
   36.8480   34.3690   40.1890 H   0  0  0  0  0  0  0  0  0  0  0  0
   40.8860   33.2300   39.7550 H   0  0  0  0  0  0  0  0  0  0  0  0
  1  2  2  0  0  0  0
  1  5  1  0  0  0  0
  2  3  1  0  0  0  0
  3  4  2  0  0  0  0
  3  7  1  0  0  0  0
  4  8  1  0  0  0  0
  5  4  1  0  0  0  0
  6  2  1  0  0  0  0
  8  9  1  0  0  0  0
  8 10  1  0  0  0  0
  8 11  1  1  0  0  0
  9 10  1  0  0  0  0
  9 12  1  0  0  0  0
 10 14  1  1  0  0  0
 13  9  1  0  0  0  0
 15 16  1  0  0  0  0
 15 10  1  0  0  0  0
 17 18  1  0  0  0  0
 17 16  2  0  0  0  0
 19 17  1  0  0  0  0
 20 19  2  0  0  0  0
 20 21  1  0  0  0  0
 21 15  2  0  0  0  0
 22  1  1  0  0  0  0
 23 22  1  0  0  0  0
 23 25  1  0  0  0  0
 24 23  2  0  0  0  0
 25 30  2  0  0  0  0
 25 26  1  0  0  0  0
 26 27  2  0  0  0  0
 27 28  1  0  0  0  0
 27 32  1  0  0  0  0
 29 33  1  0  0  0  0
 29 28  2  0  0  0  0
 30 29  1  0  0  0  0
 31 26  1  0  0  0  0
M  END
>  <minimizedAffinity>
-5.36430693

$$$$

 OpenBabel03242518373D

 33 36  0  0  1  0  0  0  0  0999 V2000
   36.1470   28.5280   40.8740 C   0  0  0  0  0  0  0  0  0  0  0  0
   35.0890   29.2340   40.3120 C   0  0  0  0  0  0  0  0  0  0  0  0
   35.4180   29.5570   39.0020 C   0  0  0  0  0  0  0  0  0  0  0  0
   36.6710   29.0250   38.8340 C   0  0  0  0  0  0  0  0  0  0  0  0
   37.0910   28.4260   39.9300 O   0  0  0  0  0  0  0  0  0  0  0  0
   34.1860   29.4600   40.8660 H   0  0  0  0  0  0  0  0  0  0  0  0
   34.7960   30.1070   38.3070 H   0  0  0  0  0  0  0  0  0  0  0  0
   37.4490   29.1070   37.5890 C   0  0  2  0  0  0  0  0  0  0  0  0
   38.9030   28.8380   37.6270 C   0  0  0  0  0  0  0  0  0  0  0  0
   38.4770   30.2630   37.5830 C   0  0  2  0  0  0  0  0  0  0  0  0
   36.8310   29.0810   36.6640 H   0  0  0  0  0  0  0  0  0  0  0  0
   39.3650   28.3940   36.6980 H   0  0  0  0  0  0  0  0  0  0  0  0
   39.3110   28.4250   38.5620 H   0  0  0  0  0  0  0  0  0  0  0  0
   38.6440   30.7720   36.6130 H   0  0  0  0  0  0  0  0  0  0  0  0
   38.5290   31.1410   38.7490 C   0  0  0  0  0  0  0  0  0  0  0  0
   37.7520   32.3050   38.7210 C   0  0  0  0  0  3  0  0  0  0  0  0
   37.7220   33.2100   39.7690 C   0  0  0  0  0  0  0  0  0  0  0  0
   37.0990   34.1060   39.7040 H   0  0  0  0  0  0  0  0  0  0  0  0
   38.4890   32.9320   40.8580 N   0  0  0  0  0  0  0  0  0  0  0  0
   39.2500   31.8010   40.8950 C   0  0  0  0  0  3  0  0  0  0  0  0
   39.2520   30.9410   39.8500 N   0  0  0  0  0  0  0  0  0  0  0  0
   36.3120   27.9750   42.1610 O   0  0  0  0  0  0  0  0  0  0  0  0
   37.5650   28.0730   42.8050 C   0  0  0  0  0  0  0  0  0  0  0  0
   37.8790   29.2110   43.2300 O   0  0  0  0  0  0  0  0  0  0  0  0
   38.3210   26.8680   42.8940 C   0  0  0  0  0  0  0  0  0  0  0  0
   39.5180   26.9950   43.5440 C   0  0  0  0  0  0  0  0  0  0  0  0
   40.3160   25.8490   43.6700 C   0  0  0  0  0  0  0  0  0  0  0  0
   39.8640   24.6970   43.1480 N   0  0  0  0  0  0  0  0  0  0  0  0
   38.6870   24.6130   42.5190 C   0  0  0  0  0  0  0  0  0  0  0  0
   37.9320   25.7090   42.4020 N   0  0  0  0  0  0  0  0  0  0  0  0
   39.9160   27.9130   43.9810 H   0  0  0  0  0  0  0  0  0  0  0  0
   41.2820   25.9180   44.1870 H   0  0  0  0  0  0  0  0  0  0  0  0
   38.3840   23.6550   42.1210 H   0  0  0  0  0  0  0  0  0  0  0  0
  1 22  1  0  0  0  0
  2  6  1  0  0  0  0
  2  1  2  0  0  0  0
  3  2  1  0  0  0  0
  4  3  2  0  0  0  0
  4  5  1  0  0  0  0
  5  1  1  0  0  0  0
  7  3  1  0  0  0  0
  8 11  1  6  0  0  0
  8  9  1  0  0  0  0
  8  4  1  0  0  0  0
  9 13  1  0  0  0  0
 10 14  1  6  0  0  0
 10  8  1  0  0  0  0
 10  9  1  0  0  0  0
 10 15  1  0  0  0  0
 12  9  1  0  0  0  0
 15 21  1  0  0  0  0
 16 15  2  0  0  0  0
 16 17  1  0  0  0  0
 17 19  2  0  0  0  0
 18 17  1  0  0  0  0
 19 20  1  0  0  0  0
 21 20  2  0  0  0  0
 22 23  1  0  0  0  0
 23 25  1  0  0  0  0
 23 24  2  0  0  0  0
 25 26  1  0  0  0  0
 26 27  2  0  0  0  0
 26 31  1  0  0  0  0
 27 32  1  0  0  0  0
 28 27  1  0  0  0  0
 29 28  2  0  0  0  0
 30 29  1  0  0  0  0
 30 25  2  0  0  0  0
 33 29  1  0  0  0  0
M  END
>  <minimizedAffinity>
-5.35006428

$$$$

 OpenBabel03242518373D

 33 36  0  0  1  0  0  0  0  0999 V2000
   39.5170   30.6990   42.1630 C   0  0  0  0  0  0  0  0  0  0  0  0
   40.5540   29.7770   42.0770 C   0  0  0  0  0  0  0  0  0  0  0  0
   40.0980   28.5510   42.5450 C   0  0  0  0  0  0  0  0  0  0  0  0
   38.7950   28.7940   42.8960 C   0  0  0  0  0  0  0  0  0  0  0  0
   38.4610   30.0500   42.6710 O   0  0  0  0  0  0  0  0  0  0  0  0
   41.5320   30.0420   41.6960 H   0  0  0  0  0  0  0  0  0  0  0  0
   40.6760   27.6380   42.6040 H   0  0  0  0  0  0  0  0  0  0  0  0
   37.8790   27.7850   43.4490 C   0  0  2  0  0  0  0  0  0  0  0  0
   37.8660   26.4250   42.8670 C   0  0  0  0  0  0  0  0  0  0  0  0
   36.7750   27.3500   42.4560 C   0  0  2  0  0  0  0  0  0  0  0  0
   37.4730   28.0410   44.4520 H   0  0  0  0  0  0  0  0  0  0  0  0
   37.6070   25.5750   43.5610 H   0  0  0  0  0  0  0  0  0  0  0  0
   38.6650   26.1810   42.1490 H   0  0  0  0  0  0  0  0  0  0  0  0
   35.7810   27.1230   42.8890 H   0  0  0  0  0  0  0  0  0  0  0  0
   36.7350   27.9970   41.1470 C   0  0  0  0  0  0  0  0  0  0  0  0
   35.7500   28.9670   40.9310 C   0  0  0  0  0  3  0  0  0  0  0  0
   35.6190   29.6450   39.7300 C   0  0  0  0  0  0  0  0  0  0  0  0
   34.8350   30.3960   39.6070 H   0  0  0  0  0  0  0  0  0  0  0  0
   36.4960   29.3360   38.7370 N   0  0  0  0  0  0  0  0  0  0  0  0
   37.4590   28.3910   38.9380 C   0  0  0  0  0  3  0  0  0  0  0  0
   37.5550   27.7500   40.1260 N   0  0  0  0  0  0  0  0  0  0  0  0
   39.4600   32.0640   41.8170 O   0  0  0  0  0  0  0  0  0  0  0  0
   38.8990   32.4460   40.5780 C   0  0  0  0  0  0  0  0  0  0  0  0
   37.6460   32.4740   40.5260 O   0  0  0  0  0  0  0  0  0  0  0  0
   39.8250   32.7530   39.5380 C   0  0  0  0  0  0  0  0  0  0  0  0
   39.7570   31.9220   38.4530 C   0  0  0  0  0  0  0  0  0  0  0  0
   40.6380   32.1630   37.3900 C   0  0  0  0  0  0  0  0  0  0  0  0
   41.4960   33.1920   37.4950 N   0  0  0  0  0  0  0  0  0  0  0  0
   41.5320   33.9830   38.5720 C   0  0  0  0  0  0  0  0  0  0  0  0
   40.6890   33.7470   39.5820 N   0  0  0  0  0  0  0  0  0  0  0  0
   39.0730   31.0780   38.3350 H   0  0  0  0  0  0  0  0  0  0  0  0
   40.6070   31.5140   36.5050 H   0  0  0  0  0  0  0  0  0  0  0  0
   42.2470   34.7930   38.5910 H   0  0  0  0  0  0  0  0  0  0  0  0
  1  5  1  0  0  0  0
  2  1  2  0  0  0  0
  2  3  1  0  0  0  0
  3  7  1  0  0  0  0
  3  4  2  0  0  0  0
  4  8  1  0  0  0  0
  5  4  1  0  0  0  0
  6  2  1  0  0  0  0
  8 11  1  1  0  0  0
  9  8  1  0  0  0  0
  9 12  1  0  0  0  0
 10  9  1  0  0  0  0
 10 14  1  1  0  0  0
 10  8  1  0  0  0  0
 13  9  1  0  0  0  0
 15 10  1  0  0  0  0
 16 15  1  0  0  0  0
 17 16  2  0  0  0  0
 18 17  1  0  0  0  0
 19 20  2  0  0  0  0
 19 17  1  0  0  0  0
 20 21  1  0  0  0  0
 21 15  2  0  0  0  0
 22  1  1  0  0  0  0
 23 22  1  0  0  0  0
 24 23  2  0  0  0  0
 25 30  1  0  0  0  0
 25 23  1  0  0  0  0
 26 25  2  0  0  0  0
 27 28  2  0  0  0  0
 27 26  1  0  0  0  0
 28 29  1  0  0  0  0
 29 33  1  0  0  0  0
 29 30  2  0  0  0  0
 31 26  1  0  0  0  0
 32 27  1  0  0  0  0
M  END
>  <minimizedAffinity>
-5.28702402

$$$$

 OpenBabel03242518373D

 33 36  0  0  1  0  0  0  0  0999 V2000
   36.5870   28.8230   39.5410 C   0  0  0  0  0  0  0  0  0  0  0  0
   37.1270   27.6580   39.0080 C   0  0  0  0  0  0  0  0  0  0  0  0
   37.3720   26.7680   40.0450 C   0  0  0  0  0  0  0  0  0  0  0  0
   36.9650   27.4450   41.1660 C   0  0  0  0  0  0  0  0  0  0  0  0
   36.5080   28.6440   40.8660 O   0  0  0  0  0  0  0  0  0  0  0  0
   37.3000   27.5350   37.9460 H   0  0  0  0  0  0  0  0  0  0  0  0
   37.7920   25.7750   39.9460 H   0  0  0  0  0  0  0  0  0  0  0  0
   37.0240   26.9040   42.5330 C   0  0  2  0  0  0  0  0  0  0  0  0
   36.7890   27.8080   43.6790 C   0  0  0  0  0  0  0  0  0  0  0  0
   38.2020   27.4660   43.3640 C   0  0  2  0  0  0  0  0  0  0  0  0
   36.9570   25.7950   42.5860 H   0  0  0  0  0  0  0  0  0  0  0  0
   36.3270   27.3540   44.6020 H   0  0  0  0  0  0  0  0  0  0  0  0
   36.4140   28.8180   43.4500 H   0  0  0  0  0  0  0  0  0  0  0  0
   38.6850   26.7670   44.0760 H   0  0  0  0  0  0  0  0  0  0  0  0
   39.1170   28.4000   42.7130 C   0  0  0  0  0  0  0  0  0  0  0  0
   38.8790   29.7690   42.8840 C   0  0  0  0  0  3  0  0  0  0  0  0
   39.6800   30.7440   42.3140 C   0  0  0  0  0  0  0  0  0  0  0  0
   39.4570   31.8020   42.4750 H   0  0  0  0  0  0  0  0  0  0  0  0
   40.7360   30.3270   41.5630 N   0  0  0  0  0  0  0  0  0  0  0  0
   40.9760   28.9960   41.3900 C   0  0  0  0  0  3  0  0  0  0  0  0
   40.1690   28.0730   41.9630 N   0  0  0  0  0  0  0  0  0  0  0  0
   36.1650   30.0170   38.9210 O   0  0  0  0  0  0  0  0  0  0  0  0
   37.0460   30.6980   38.0520 C   0  0  0  0  0  0  0  0  0  0  0  0
   36.9830   30.3760   36.8400 O   0  0  0  0  0  0  0  0  0  0  0  0
   37.8970   31.6690   38.6560 C   0  0  0  0  0  0  0  0  0  0  0  0
   37.2780   32.4750   39.5720 C   0  0  0  0  0  0  0  0  0  0  0  0
   38.0540   33.4540   40.2080 C   0  0  0  0  0  0  0  0  0  0  0  0
   39.3550   33.5460   39.8840 N   0  0  0  0  0  0  0  0  0  0  0  0
   39.9240   32.7380   38.9830 C   0  0  0  0  0  0  0  0  0  0  0  0
   39.1780   31.8080   38.3810 N   0  0  0  0  0  0  0  0  0  0  0  0
   36.2250   32.4280   39.8590 H   0  0  0  0  0  0  0  0  0  0  0  0
   37.5870   34.1170   40.9480 H   0  0  0  0  0  0  0  0  0  0  0  0
   40.9750   32.8670   38.7700 H   0  0  0  0  0  0  0  0  0  0  0  0
  1  5  1  0  0  0  0
  2  1  2  0  0  0  0
  2  3  1  0  0  0  0
  3  4  2  0  0  0  0
  4  8  1  0  0  0  0
  5  4  1  0  0  0  0
  6  2  1  0  0  0  0
  7  3  1  0  0  0  0
  8 11  1  1  0  0  0
  8 10  1  0  0  0  0
  8  9  1  0  0  0  0
  9 12  1  0  0  0  0
 10  9  1  0  0  0  0
 10 14  1  1  0  0  0
 13  9  1  0  0  0  0
 15 16  1  0  0  0  0
 15 10  1  0  0  0  0
 17 18  1  0  0  0  0
 17 16  2  0  0  0  0
 19 17  1  0  0  0  0
 20 19  2  0  0  0  0
 20 21  1  0  0  0  0
 21 15  2  0  0  0  0
 22  1  1  0  0  0  0
 23 25  1  0  0  0  0
 23 22  1  0  0  0  0
 24 23  2  0  0  0  0
 25 26  1  0  0  0  0
 26 31  1  0  0  0  0
 26 27  2  0  0  0  0
 27 32  1  0  0  0  0
 28 27  1  0  0  0  0
 29 28  2  0  0  0  0
 30 25  2  0  0  0  0
 30 29  1  0  0  0  0
 33 29  1  0  0  0  0
M  END
>  <minimizedAffinity>
-5.27200365

$$$$

 OpenBabel03242518373D

 33 36  0  0  1  0  0  0  0  0999 V2000
   37.3330   28.7490   42.4170 C   0  0  0  0  0  0  0  0  0  0  0  0
   38.5500   28.3370   42.9500 C   0  0  0  0  0  0  0  0  0  0  0  0
   38.5560   26.9500   43.0230 C   0  0  0  0  0  0  0  0  0  0  0  0
   37.3300   26.5870   42.5250 C   0  0  0  0  0  0  0  0  0  0  0  0
   36.6210   27.6410   42.1740 O   0  0  0  0  0  0  0  0  0  0  0  0
   39.3210   29.0400   43.2390 H   0  0  0  0  0  0  0  0  0  0  0  0
   39.3650   26.3360   43.3950 H   0  0  0  0  0  0  0  0  0  0  0  0
   36.8640   25.1980   42.3940 C   0  0  2  0  0  0  0  0  0  0  0  0
   37.8250   24.1470   41.9990 C   0  0  0  0  0  0  0  0  0  0  0  0
   36.9180   24.6680   40.9420 C   0  0  2  0  0  0  0  0  0  0  0  0
   35.8850   25.0000   42.8840 H   0  0  0  0  0  0  0  0  0  0  0  0
   37.6370   23.1080   42.3940 H   0  0  0  0  0  0  0  0  0  0  0  0
   38.8910   24.4250   41.9820 H   0  0  0  0  0  0  0  0  0  0  0  0
   36.1090   23.9760   40.6360 H   0  0  0  0  0  0  0  0  0  0  0  0
   37.3660   25.5820   39.8940 C   0  0  0  0  0  0  0  0  0  0  0  0
   36.3870   26.1860   39.0960 C   0  0  0  0  0  3  0  0  0  0  0  0
   36.6940   27.0690   38.0750 C   0  0  0  0  0  0  0  0  0  0  0  0
   35.8960   27.5170   37.4770 H   0  0  0  0  0  0  0  0  0  0  0  0
   38.0100   27.3430   37.8590 N   0  0  0  0  0  0  0  0  0  0  0  0
   38.9710   26.7590   38.6300 C   0  0  0  0  0  3  0  0  0  0  0  0
   38.6300   25.9010   39.6190 N   0  0  0  0  0  0  0  0  0  0  0  0
   36.8330   30.0370   42.1380 O   0  0  0  0  0  0  0  0  0  0  0  0
   36.9680   30.5690   40.8360 C   0  0  0  0  0  0  0  0  0  0  0  0
   36.2460   30.0500   39.9510 O   0  0  0  0  0  0  0  0  0  0  0  0
   37.9070   31.6310   40.6870 C   0  0  0  0  0  0  0  0  0  0  0  0
   37.3960   32.7660   40.1190 C   0  0  0  0  0  0  0  0  0  0  0  0
   38.2620   33.8530   39.9410 C   0  0  0  0  0  0  0  0  0  0  0  0
   39.5400   33.7220   40.3360 N   0  0  0  0  0  0  0  0  0  0  0  0
   40.0020   32.5950   40.8880 C   0  0  0  0  0  0  0  0  0  0  0  0
   39.1710   31.5630   41.0550 N   0  0  0  0  0  0  0  0  0  0  0  0
   36.3650   32.9070   39.7870 H   0  0  0  0  0  0  0  0  0  0  0  0
   37.8820   34.7780   39.4870 H   0  0  0  0  0  0  0  0  0  0  0  0
   41.0410   32.5570   41.1820 H   0  0  0  0  0  0  0  0  0  0  0  0
  1  2  2  0  0  0  0
  2  3  1  0  0  0  0
  2  6  1  0  0  0  0
  3  7  1  0  0  0  0
  4  3  2  0  0  0  0
  5  1  1  0  0  0  0
  5  4  1  0  0  0  0
  8  4  1  0  0  0  0
  8 11  1  1  0  0  0
  9 12  1  0  0  0  0
  9  8  1  0  0  0  0
 10 14  1  6  0  0  0
 10  9  1  0  0  0  0
 10  8  1  0  0  0  0
 13  9  1  0  0  0  0
 15 10  1  0  0  0  0
 16 15  2  0  0  0  0
 17 16  1  0  0  0  0
 18 17  1  0  0  0  0
 19 17  2  0  0  0  0
 19 20  1  0  0  0  0
 20 21  2  0  0  0  0
 21 15  1  0  0  0  0
 22  1  1  0  0  0  0
 23 22  1  0  0  0  0
 24 23  2  0  0  0  0
 25 23  1  0  0  0  0
 25 30  1  0  0  0  0
 26 25  2  0  0  0  0
 27 26  1  0  0  0  0
 27 28  2  0  0  0  0
 28 29  1  0  0  0  0
 29 30  2  0  0  0  0
 29 33  1  0  0  0  0
 31 26  1  0  0  0  0
 32 27  1  0  0  0  0
M  END
>  <minimizedAffinity>
-5.20249939

$$$$

 OpenBabel03242518373D

 33 36  0  0  1  0  0  0  0  0999 V2000
   39.5760   29.4720   41.6630 C   0  0  0  0  0  0  0  0  0  0  0  0
   40.2320   29.0970   40.4960 C   0  0  0  0  0  0  0  0  0  0  0  0
   40.0410   30.0870   39.5410 C   0  0  0  0  0  0  0  0  0  0  0  0
   39.2700   31.0220   40.1830 C   0  0  0  0  0  0  0  0  0  0  0  0
   39.0010   30.6570   41.4210 O   0  0  0  0  0  0  0  0  0  0  0  0
   40.7840   28.1690   40.4180 H   0  0  0  0  0  0  0  0  0  0  0  0
   40.4290   30.0800   38.5310 H   0  0  0  0  0  0  0  0  0  0  0  0
   38.8030   32.2760   39.5730 C   0  0  2  0  0  0  0  0  0  0  0  0
   37.7320   33.0480   40.2390 C   0  0  0  0  0  0  0  0  0  0  0  0
   37.3390   32.2080   39.0750 C   0  0  2  0  0  0  0  0  0  0  0  0
   39.4940   32.6950   38.8090 H   0  0  0  0  0  0  0  0  0  0  0  0
   37.7480   34.1680   40.1030 H   0  0  0  0  0  0  0  0  0  0  0  0
   37.4440   32.7320   41.2540 H   0  0  0  0  0  0  0  0  0  0  0  0
   37.1040   32.7700   38.1500 H   0  0  0  0  0  0  0  0  0  0  0  0
   36.6240   30.9420   39.2180 C   0  0  0  0  0  0  0  0  0  0  0  0
   36.5740   30.0960   38.1040 C   0  0  0  0  0  3  0  0  0  0  0  0
   35.9250   28.8730   38.1230 C   0  0  0  0  0  0  0  0  0  0  0  0
   35.9120   28.2440   37.2300 H   0  0  0  0  0  0  0  0  0  0  0  0
   35.3200   28.5030   39.2850 N   0  0  0  0  0  0  0  0  0  0  0  0
   35.3630   29.3210   40.3760 C   0  0  0  0  0  3  0  0  0  0  0  0
   36.0080   30.5100   40.3160 N   0  0  0  0  0  0  0  0  0  0  0  0
   39.4650   28.8270   42.9120 O   0  0  0  0  0  0  0  0  0  0  0  0
   38.3150   28.0580   43.1990 C   0  0  0  0  0  0  0  0  0  0  0  0
   37.3390   28.6840   43.6790 O   0  0  0  0  0  0  0  0  0  0  0  0
   38.4030   26.6660   42.9070 C   0  0  0  0  0  0  0  0  0  0  0  0
   37.3360   26.1620   42.2150 C   0  0  0  0  0  0  0  0  0  0  0  0
   37.3530   24.7980   41.8920 C   0  0  0  0  0  0  0  0  0  0  0  0
   38.4110   24.0650   42.2780 N   0  0  0  0  0  0  0  0  0  0  0  0
   39.4360   24.5940   42.9540 C   0  0  0  0  0  0  0  0  0  0  0  0
   39.4130   25.8950   43.2580 N   0  0  0  0  0  0  0  0  0  0  0  0
   36.4610   26.7280   41.8860 H   0  0  0  0  0  0  0  0  0  0  0  0
   36.5110   24.3640   41.3370 H   0  0  0  0  0  0  0  0  0  0  0  0
   40.2550   23.9470   43.2340 H   0  0  0  0  0  0  0  0  0  0  0  0
  1 22  1  0  0  0  0
  2  1  2  0  0  0  0
  3  4  2  0  0  0  0
  3  2  1  0  0  0  0
  4  5  1  0  0  0  0
  5  1  1  0  0  0  0
  6  2  1  0  0  0  0
  7  3  1  0  0  0  0
  8 11  1  6  0  0  0
  8  4  1  0  0  0  0
  8  9  1  0  0  0  0
  9 13  1  0  0  0  0
 10 14  1  6  0  0  0
 10 15  1  0  0  0  0
 10  8  1  0  0  0  0
 10  9  1  0  0  0  0
 12  9  1  0  0  0  0
 15 21  1  0  0  0  0
 16 17  1  0  0  0  0
 16 15  2  0  0  0  0
 17 19  2  0  0  0  0
 18 17  1  0  0  0  0
 19 20  1  0  0  0  0
 21 20  2  0  0  0  0
 22 23  1  0  0  0  0
 23 24  2  0  0  0  0
 25 23  1  0  0  0  0
 25 30  1  0  0  0  0
 26 25  2  0  0  0  0
 27 26  1  0  0  0  0
 27 28  2  0  0  0  0
 28 29  1  0  0  0  0
 29 33  1  0  0  0  0
 29 30  2  0  0  0  0
 31 26  1  0  0  0  0
 32 27  1  0  0  0  0
M  END
>  <minimizedAffinity>
-5.18245459

$$$$

 OpenBabel03242518373D

 33 36  0  0  1  0  0  0  0  0999 V2000
   37.5410   28.8600   42.3810 C   0  0  0  0  0  0  0  0  0  0  0  0
   37.0220   28.2110   43.4960 C   0  0  0  0  0  0  0  0  0  0  0  0
   36.7710   26.8870   43.1620 C   0  0  0  0  0  0  0  0  0  0  0  0
   37.1540   26.7990   41.8480 C   0  0  0  0  0  0  0  0  0  0  0  0
   37.6020   27.9530   41.3980 O   0  0  0  0  0  0  0  0  0  0  0  0
   36.8660   28.7200   44.4390 H   0  0  0  0  0  0  0  0  0  0  0  0
   36.3640   26.1310   43.8210 H   0  0  0  0  0  0  0  0  0  0  0  0
   37.0810   25.5710   41.0410 C   0  0  2  0  0  0  0  0  0  0  0  0
   37.1740   24.2580   41.7130 C   0  0  0  0  0  0  0  0  0  0  0  0
   38.3990   24.7610   41.0360 C   0  0  2  0  0  0  0  0  0  0  0  0
   36.6710   25.7240   40.0180 H   0  0  0  0  0  0  0  0  0  0  0  0
   36.6190   23.3990   41.2350 H   0  0  0  0  0  0  0  0  0  0  0  0
   37.1270   24.2540   42.8130 H   0  0  0  0  0  0  0  0  0  0  0  0
   38.6590   24.2440   40.0920 H   0  0  0  0  0  0  0  0  0  0  0  0
   39.5410   25.3050   41.7670 C   0  0  0  0  0  0  0  0  0  0  0  0
   40.4710   26.0650   41.0480 C   0  0  0  0  0  3  0  0  0  0  0  0
   41.5900   26.6280   41.6360 C   0  0  0  0  0  0  0  0  0  0  0  0
   42.2900   27.2150   41.0360 H   0  0  0  0  0  0  0  0  0  0  0  0
   41.7700   26.4200   42.9690 N   0  0  0  0  0  0  0  0  0  0  0  0
   40.8690   25.6810   43.6790 C   0  0  0  0  0  3  0  0  0  0  0  0
   39.7870   25.1460   43.0670 N   0  0  0  0  0  0  0  0  0  0  0  0
   37.9580   30.1940   42.1970 O   0  0  0  0  0  0  0  0  0  0  0  0
   37.4310   30.9470   41.1240 C   0  0  0  0  0  0  0  0  0  0  0  0
   36.1800   31.0340   41.0750 O   0  0  0  0  0  0  0  0  0  0  0  0
   38.3830   31.5150   40.2280 C   0  0  0  0  0  0  0  0  0  0  0  0
   39.3500   32.2720   40.8330 C   0  0  0  0  0  0  0  0  0  0  0  0
   40.3220   32.8630   40.0140 C   0  0  0  0  0  0  0  0  0  0  0  0
   40.2510   32.6540   38.6880 N   0  0  0  0  0  0  0  0  0  0  0  0
   39.2900   31.9070   38.1350 C   0  0  0  0  0  0  0  0  0  0  0  0
   38.3670   31.3470   38.9210 N   0  0  0  0  0  0  0  0  0  0  0  0
   39.4380   32.4620   41.9050 H   0  0  0  0  0  0  0  0  0  0  0  0
   41.1110   33.4760   40.4690 H   0  0  0  0  0  0  0  0  0  0  0  0
   39.2920   31.7810   37.0620 H   0  0  0  0  0  0  0  0  0  0  0  0
  1  2  2  0  0  0  0
  2  6  1  0  0  0  0
  3  2  1  0  0  0  0
  3  7  1  0  0  0  0
  4  3  2  0  0  0  0
  5  4  1  0  0  0  0
  5  1  1  0  0  0  0
  8 11  1  6  0  0  0
  8  9  1  0  0  0  0
  8  4  1  0  0  0  0
  9 13  1  0  0  0  0
 10 14  1  6  0  0  0
 10  8  1  0  0  0  0
 10  9  1  0  0  0  0
 10 15  1  0  0  0  0
 12  9  1  0  0  0  0
 15 21  1  0  0  0  0
 16 17  1  0  0  0  0
 16 15  2  0  0  0  0
 17 19  2  0  0  0  0
 18 17  1  0  0  0  0
 19 20  1  0  0  0  0
 21 20  2  0  0  0  0
 22  1  1  0  0  0  0
 23 22  1  0  0  0  0
 24 23  2  0  0  0  0
 25 26  1  0  0  0  0
 25 23  1  0  0  0  0
 26 31  1  0  0  0  0
 27 32  1  0  0  0  0
 27 26  2  0  0  0  0
 28 27  1  0  0  0  0
 29 28  2  0  0  0  0
 29 30  1  0  0  0  0
 30 25  2  0  0  0  0
 33 29  1  0  0  0  0
M  END
>  <minimizedAffinity>
-5.05492926

$$$$

 OpenBabel03242518373D

 33 36  0  0  1  0  0  0  0  0999 V2000
   37.8530   27.9530   38.6220 C   0  0  0  0  0  0  0  0  0  0  0  0
   36.4900   27.7660   38.8280 C   0  0  0  0  0  0  0  0  0  0  0  0
   36.3090   26.6160   39.5840 C   0  0  0  0  0  0  0  0  0  0  0  0
   37.5830   26.1580   39.8010 C   0  0  0  0  0  0  0  0  0  0  0  0
   38.4800   26.9420   39.2370 O   0  0  0  0  0  0  0  0  0  0  0  0
   35.7480   28.4490   38.4320 H   0  0  0  0  0  0  0  0  0  0  0  0
   35.3590   26.2090   39.9050 H   0  0  0  0  0  0  0  0  0  0  0  0
   37.9130   24.9470   40.5690 C   0  0  2  0  0  0  0  0  0  0  0  0
   37.0640   24.5670   41.7180 C   0  0  0  0  0  0  0  0  0  0  0  0
   38.3530   25.2450   42.0220 C   0  0  2  0  0  0  0  0  0  0  0  0
   38.6090   24.2540   40.0470 H   0  0  0  0  0  0  0  0  0  0  0  0
   36.9770   23.4660   41.9460 H   0  0  0  0  0  0  0  0  0  0  0  0
   36.1200   25.1190   41.8460 H   0  0  0  0  0  0  0  0  0  0  0  0
   39.1380   24.5890   42.4460 H   0  0  0  0  0  0  0  0  0  0  0  0
   38.4330   26.6420   42.4430 C   0  0  0  0  0  0  0  0  0  0  0  0
   37.3160   27.1940   43.0800 C   0  0  0  0  0  3  0  0  0  0  0  0
   37.2790   28.5050   43.5210 C   0  0  0  0  0  0  0  0  0  0  0  0
   36.3850   28.8940   44.0150 H   0  0  0  0  0  0  0  0  0  0  0  0
   38.3880   29.2670   43.3150 N   0  0  0  0  0  0  0  0  0  0  0  0
   39.4810   28.7390   42.6940 C   0  0  0  0  0  3  0  0  0  0  0  0
   39.4780   27.4510   42.2760 N   0  0  0  0  0  0  0  0  0  0  0  0
   38.5560   28.9600   37.9300 O   0  0  0  0  0  0  0  0  0  0  0  0
   37.9530   30.2230   37.7370 C   0  0  0  0  0  0  0  0  0  0  0  0
   37.3130   30.3710   36.6680 O   0  0  0  0  0  0  0  0  0  0  0  0
   38.1430   31.1750   38.7810 C   0  0  0  0  0  0  0  0  0  0  0  0
   37.3260   32.2700   38.7070 C   0  0  0  0  0  0  0  0  0  0  0  0
   37.4560   33.2500   39.7010 C   0  0  0  0  0  0  0  0  0  0  0  0
   38.3720   33.0610   40.6650 N   0  0  0  0  0  0  0  0  0  0  0  0
   39.1540   31.9760   40.7030 C   0  0  0  0  0  0  0  0  0  0  0  0
   39.0240   31.0470   39.7530 N   0  0  0  0  0  0  0  0  0  0  0  0
   36.5710   32.4550   37.9390 H   0  0  0  0  0  0  0  0  0  0  0  0
   36.8140   34.1400   39.6700 H   0  0  0  0  0  0  0  0  0  0  0  0
   39.8710   31.8880   41.5070 H   0  0  0  0  0  0  0  0  0  0  0  0
  1  2  2  0  0  0  0
  1  5  1  0  0  0  0
  2  3  1  0  0  0  0
  3  4  2  0  0  0  0
  3  7  1  0  0  0  0
  4  8  1  0  0  0  0
  5  4  1  0  0  0  0
  6  2  1  0  0  0  0
  8 11  1  6  0  0  0
  8  9  1  0  0  0  0
  8 10  1  0  0  0  0
  9 13  1  0  0  0  0
  9 12  1  0  0  0  0
  9 10  1  0  0  0  0
 10 15  1  0  0  0  0
 10 14  1  1  0  0  0
 15 16  1  0  0  0  0
 16 17  2  0  0  0  0
 17 18  1  0  0  0  0
 19 17  1  0  0  0  0
 20 19  2  0  0  0  0
 21 15  2  0  0  0  0
 21 20  1  0  0  0  0
 22  1  1  0  0  0  0
 23 22  1  0  0  0  0
 23 25  1  0  0  0  0
 24 23  2  0  0  0  0
 25 30  1  0  0  0  0
 26 25  2  0  0  0  0
 26 27  1  0  0  0  0
 27 28  2  0  0  0  0
 28 29  1  0  0  0  0
 29 33  1  0  0  0  0
 30 29  2  0  0  0  0
 31 26  1  0  0  0  0
 32 27  1  0  0  0  0
M  END
>  <minimizedAffinity>
-5.02696085

$$$$
