
 OpenBabel03242517213D

 31 33  0  0  1  0  0  0  0  0999 V2000
   38.9170   32.6940   40.6650 C   0  0  0  0  0  0  0  0  0  0  0  0
   38.0960   33.0270   39.5790 C   0  0  0  0  0  0  0  0  0  0  0  0
   37.0230   32.1740   39.2520 C   0  0  0  0  0  0  0  0  0  0  0  0
   36.8550   31.0760   40.0200 N   0  0  0  0  0  0  0  0  0  0  0  0
   37.6530   30.7730   41.0580 C   0  0  0  0  0  0  0  0  0  0  0  0
   38.6760   31.5860   41.3700 N   0  0  0  0  0  0  0  0  0  0  0  0
   37.3920   29.5710   41.8130 N   0  0  0  0  0  0  0  0  0  0  0  0
   38.2200   29.3790   42.9970 C   0  0  0  0  0  0  0  0  0  0  0  0
   38.2520   27.9890   43.5010 C   0  0  0  0  0  0  0  0  0  0  0  0
   36.9080   27.3370   43.3160 C   0  0  0  0  0  0  0  0  0  0  0  0
   36.6850   27.2640   41.8280 C   0  0  0  0  0  0  0  0  0  0  0  0
   36.3580   28.6580   41.3620 C   0  0  2  0  0  0  0  0  0  0  0  0
   39.7450   33.3590   40.9120 H   0  0  0  0  0  0  0  0  0  0  0  0
   38.2790   33.9250   38.9940 H   0  0  0  0  0  0  0  0  0  0  0  0
   36.3680   32.4110   38.4080 H   0  0  0  0  0  0  0  0  0  0  0  0
   39.2430   29.7880   42.7710 H   0  0  0  0  0  0  0  0  0  0  0  0
   37.8100   30.0680   43.7630 H   0  0  0  0  0  0  0  0  0  0  0  0
   38.4540   28.0160   44.6040 H   0  0  0  0  0  0  0  0  0  0  0  0
   39.0020   27.3270   43.0490 H   0  0  0  0  0  0  0  0  0  0  0  0
   36.1230   27.9260   43.8200 H   0  0  0  0  0  0  0  0  0  0  0  0
   36.9620   26.2980   43.6980 H   0  0  0  0  0  0  0  0  0  0  0  0
   35.8880   26.5550   41.5350 H   0  0  0  0  0  0  0  0  0  0  0  0
   37.6480   26.9650   41.3300 H   0  0  0  0  0  0  0  0  0  0  0  0
   35.4160   28.9620   41.8570 H   0  0  0  0  0  0  0  0  0  0  0  0
   36.1740   28.7020   39.8880 C   0  0  0  0  0  0  0  0  0  0  0  0
   34.9340   29.0390   39.3450 C   0  0  0  0  0  3  0  0  0  0  0  0
   34.6540   29.0980   37.9890 C   0  0  0  0  0  0  0  0  0  0  0  0
   33.6560   29.3720   37.7270 H   0  0  0  0  0  0  0  0  0  0  0  0
   35.6330   28.8160   37.1290 N   0  0  0  0  0  0  0  0  0  0  0  0
   36.8430   28.4870   37.6460 C   0  0  0  0  0  3  0  0  0  0  0  0
   37.1150   28.4290   38.9710 N   0  0  0  0  0  0  0  0  0  0  0  0
  1 13  1  0  0  0  0
  1  6  1  0  0  0  0
  2  1  2  0  0  0  0
  3  2  1  0  0  0  0
  3  4  2  0  0  0  0
  4  5  1  0  0  0  0
  5  6  2  0  0  0  0
  5  7  1  0  0  0  0
  7  8  1  0  0  0  0
  8  9  1  0  0  0  0
  8 17  1  0  0  0  0
  9 18  1  0  0  0  0
 10  9  1  0  0  0  0
 10 21  1  0  0  0  0
 10 20  1  0  0  0  0
 11 10  1  0  0  0  0
 12  7  1  0  0  0  0
 12 11  1  0  0  0  0
 12 24  1  1  0  0  0
 14  2  1  0  0  0  0
 15  3  1  0  0  0  0
 16  8  1  0  0  0  0
 19  9  1  0  0  0  0
 22 11  1  0  0  0  0
 23 11  1  0  0  0  0
 25 12  1  0  0  0  0
 26 25  1  0  0  0  0
 27 26  2  0  0  0  0
 28 27  1  0  0  0  0
 29 30  2  0  0  0  0
 29 27  1  0  0  0  0
 30 31  1  0  0  0  0
 31 25  2  0  0  0  0
M  END
>  <minimizedAffinity>
-5.23329639

$$$$

 OpenBabel03242517213D

 31 33  0  0  1  0  0  0  0  0999 V2000
   35.0370   28.5120   38.1850 C   0  0  0  0  0  0  0  0  0  0  0  0
   35.7060   29.3370   37.2720 C   0  0  0  0  0  0  0  0  0  0  0  0
   36.9340   29.9160   37.6520 C   0  0  0  0  0  0  0  0  0  0  0  0
   37.3890   29.6310   38.8910 N   0  0  0  0  0  0  0  0  0  0  0  0
   36.7330   28.8370   39.7540 C   0  0  0  0  0  0  0  0  0  0  0  0
   35.5630   28.2850   39.3920 N   0  0  0  0  0  0  0  0  0  0  0  0
   37.3020   28.6010   41.0590 N   0  0  0  0  0  0  0  0  0  0  0  0
   36.5970   27.6300   41.8870 C   0  0  0  0  0  0  0  0  0  0  0  0
   36.9160   27.7140   43.3290 C   0  0  0  0  0  0  0  0  0  0  0  0
   38.3650   28.0690   43.5230 C   0  0  0  0  0  0  0  0  0  0  0  0
   38.5310   29.4530   42.9520 C   0  0  0  0  0  0  0  0  0  0  0  0
   38.5000   29.3190   41.4530 C   0  0  2  0  0  0  0  0  0  0  0  0
   34.0880   28.0670   37.8840 H   0  0  0  0  0  0  0  0  0  0  0  0
   35.2920   29.5310   36.2860 H   0  0  0  0  0  0  0  0  0  0  0  0
   37.4760   30.5640   36.9570 H   0  0  0  0  0  0  0  0  0  0  0  0
   35.4970   27.7310   41.6740 H   0  0  0  0  0  0  0  0  0  0  0  0
   36.8690   26.6360   41.4780 H   0  0  0  0  0  0  0  0  0  0  0  0
   36.7630   26.6990   43.7850 H   0  0  0  0  0  0  0  0  0  0  0  0
   36.3220   28.4260   43.9160 H   0  0  0  0  0  0  0  0  0  0  0  0
   39.0120   27.3350   43.0140 H   0  0  0  0  0  0  0  0  0  0  0  0
   38.5730   28.1270   44.6100 H   0  0  0  0  0  0  0  0  0  0  0  0
   39.4580   29.9580   43.2820 H   0  0  0  0  0  0  0  0  0  0  0  0
   37.6440   30.0770   43.2480 H   0  0  0  0  0  0  0  0  0  0  0  0
   39.3660   28.6960   41.1570 H   0  0  0  0  0  0  0  0  0  0  0  0
   38.6020   30.6460   40.7920 C   0  0  0  0  0  0  0  0  0  0  0  0
   39.6970   30.9440   39.9810 C   0  0  0  0  0  3  0  0  0  0  0  0
   39.8930   32.1530   39.3310 C   0  0  0  0  0  0  0  0  0  0  0  0
   40.7810   32.2310   38.7440 H   0  0  0  0  0  0  0  0  0  0  0  0
   38.9750   33.1070   39.4810 N   0  0  0  0  0  0  0  0  0  0  0  0
   37.9060   32.8280   40.2690 C   0  0  0  0  0  3  0  0  0  0  0  0
   37.7150   31.6480   40.9040 N   0  0  0  0  0  0  0  0  0  0  0  0
  1  6  1  0  0  0  0
  2  3  1  0  0  0  0
  2  1  2  0  0  0  0
  3  4  2  0  0  0  0
  4  5  1  0  0  0  0
  5  7  1  0  0  0  0
  6  5  2  0  0  0  0
  7 12  1  0  0  0  0
  7  8  1  0  0  0  0
  8  9  1  0  0  0  0
  9 10  1  0  0  0  0
  9 18  1  0  0  0  0
  9 19  1  0  0  0  0
 10 21  1  0  0  0  0
 11 23  1  0  0  0  0
 11 22  1  0  0  0  0
 11 10  1  0  0  0  0
 12 24  1  6  0  0  0
 12 11  1  0  0  0  0
 13  1  1  0  0  0  0
 14  2  1  0  0  0  0
 15  3  1  0  0  0  0
 16  8  1  0  0  0  0
 17  8  1  0  0  0  0
 20 10  1  0  0  0  0
 25 31  1  0  0  0  0
 25 12  1  0  0  0  0
 26 25  2  0  0  0  0
 27 29  2  0  0  0  0
 27 26  1  0  0  0  0
 28 27  1  0  0  0  0
 29 30  1  0  0  0  0
 30 31  2  0  0  0  0
M  END
>  <minimizedAffinity>
-4.86851454

$$$$

 OpenBabel03242517213D

 31 33  0  0  1  0  0  0  0  0999 V2000
   42.1180   30.5100   42.3420 C   0  0  0  0  0  0  0  0  0  0  0  0
   41.9510   31.7230   41.6610 C   0  0  0  0  0  0  0  0  0  0  0  0
   40.6570   32.0980   41.2480 C   0  0  0  0  0  0  0  0  0  0  0  0
   39.6490   31.2480   41.5400 N   0  0  0  0  0  0  0  0  0  0  0  0
   39.8280   30.0880   42.1940 C   0  0  0  0  0  0  0  0  0  0  0  0
   41.0610   29.7310   42.5890 N   0  0  0  0  0  0  0  0  0  0  0  0
   38.6840   29.2470   42.4530 N   0  0  0  0  0  0  0  0  0  0  0  0
   38.9400   28.0710   43.2750 C   0  0  0  0  0  0  0  0  0  0  0  0
   37.9040   27.0200   43.1760 C   0  0  0  0  0  0  0  0  0  0  0  0
   36.5420   27.6430   43.0240 C   0  0  0  0  0  0  0  0  0  0  0  0
   36.5660   28.3680   41.7030 C   0  0  0  0  0  0  0  0  0  0  0  0
   37.3940   29.6110   41.8970 C   0  0  2  0  0  0  0  0  0  0  0  0
   43.1220   30.2260   42.6590 H   0  0  0  0  0  0  0  0  0  0  0  0
   42.8010   32.3680   41.4520 H   0  0  0  0  0  0  0  0  0  0  0  0
   40.5000   33.0400   40.7140 H   0  0  0  0  0  0  0  0  0  0  0  0
   39.9710   27.6970   43.0280 H   0  0  0  0  0  0  0  0  0  0  0  0
   39.0240   28.4470   44.3160 H   0  0  0  0  0  0  0  0  0  0  0  0
   37.8950   26.4410   44.1370 H   0  0  0  0  0  0  0  0  0  0  0  0
   38.0270   26.2950   42.3610 H   0  0  0  0  0  0  0  0  0  0  0  0
   36.3370   28.3270   43.8640 H   0  0  0  0  0  0  0  0  0  0  0  0
   35.7900   26.8340   42.9480 H   0  0  0  0  0  0  0  0  0  0  0  0
   35.5590   28.6220   41.3220 H   0  0  0  0  0  0  0  0  0  0  0  0
   37.0980   27.7290   40.9460 H   0  0  0  0  0  0  0  0  0  0  0  0
   36.8800   30.2390   42.6490 H   0  0  0  0  0  0  0  0  0  0  0  0
   37.5240   30.3720   40.6270 C   0  0  0  0  0  0  0  0  0  0  0  0
   37.0260   31.6720   40.5350 C   0  0  0  0  0  3  0  0  0  0  0  0
   37.0860   32.4620   39.3970 C   0  0  0  0  0  0  0  0  0  0  0  0
   36.6610   33.4380   39.4810 H   0  0  0  0  0  0  0  0  0  0  0  0
   37.6590   31.9560   38.3060 N   0  0  0  0  0  0  0  0  0  0  0  0
   38.1470   30.6920   38.3850 C   0  0  0  0  0  3  0  0  0  0  0  0
   38.0880   29.9210   39.4960 N   0  0  0  0  0  0  0  0  0  0  0  0
  1  6  1  0  0  0  0
  1 13  1  0  0  0  0
  2  1  2  0  0  0  0
  3  4  2  0  0  0  0
  3  2  1  0  0  0  0
  4  5  1  0  0  0  0
  5  7  1  0  0  0  0
  5  6  2  0  0  0  0
  7  8  1  0  0  0  0
  8 17  1  0  0  0  0
  9  8  1  0  0  0  0
  9 18  1  0  0  0  0
 10  9  1  0  0  0  0
 10 20  1  0  0  0  0
 11 12  1  0  0  0  0
 11 10  1  0  0  0  0
 12  7  1  0  0  0  0
 12 24  1  1  0  0  0
 14  2  1  0  0  0  0
 15  3  1  0  0  0  0
 16  8  1  0  0  0  0
 19  9  1  0  0  0  0
 21 10  1  0  0  0  0
 22 11  1  0  0  0  0
 23 11  1  0  0  0  0
 25 12  1  0  0  0  0
 26 25  1  0  0  0  0
 27 28  1  0  0  0  0
 27 26  2  0  0  0  0
 29 30  2  0  0  0  0
 29 27  1  0  0  0  0
 30 31  1  0  0  0  0
 31 25  2  0  0  0  0
M  END
>  <minimizedAffinity>
-4.84771299

$$$$

 OpenBabel03242517213D

 31 33  0  0  1  0  0  0  0  0999 V2000
   37.4220   26.9700   42.7450 C   0  0  0  0  0  0  0  0  0  0  0  0
   37.9430   28.0100   43.5240 C   0  0  0  0  0  0  0  0  0  0  0  0
   37.9330   29.3200   43.0040 C   0  0  0  0  0  0  0  0  0  0  0  0
   37.4120   29.4860   41.7690 N   0  0  0  0  0  0  0  0  0  0  0  0
   36.9160   28.4760   41.0360 C   0  0  0  0  0  0  0  0  0  0  0  0
   36.9250   27.2270   41.5320 N   0  0  0  0  0  0  0  0  0  0  0  0
   36.3860   28.7580   39.7240 N   0  0  0  0  0  0  0  0  0  0  0  0
   35.7530   27.6340   39.0450 C   0  0  0  0  0  0  0  0  0  0  0  0
   35.6100   27.8060   37.5830 C   0  0  0  0  0  0  0  0  0  0  0  0
   35.3140   29.2450   37.2530 C   0  0  0  0  0  0  0  0  0  0  0  0
   36.5340   30.0230   37.6740 C   0  0  0  0  0  0  0  0  0  0  0  0
   36.5130   30.0970   39.1780 C   0  0  2  0  0  0  0  0  0  0  0  0
   37.4330   25.9590   43.1540 H   0  0  0  0  0  0  0  0  0  0  0  0
   38.3510   27.8180   44.5140 H   0  0  0  0  0  0  0  0  0  0  0  0
   38.3350   30.1500   43.5930 H   0  0  0  0  0  0  0  0  0  0  0  0
   36.3160   26.7020   39.3250 H   0  0  0  0  0  0  0  0  0  0  0  0
   34.7610   27.5140   39.5280 H   0  0  0  0  0  0  0  0  0  0  0  0
   34.7280   27.2030   37.2400 H   0  0  0  0  0  0  0  0  0  0  0  0
   36.4700   27.5000   36.9730 H   0  0  0  0  0  0  0  0  0  0  0  0
   34.4090   29.5820   37.7850 H   0  0  0  0  0  0  0  0  0  0  0  0
   35.2170   29.3440   36.1550 H   0  0  0  0  0  0  0  0  0  0  0  0
   36.5850   31.0360   37.2330 H   0  0  0  0  0  0  0  0  0  0  0  0
   37.4530   29.4460   37.3830 H   0  0  0  0  0  0  0  0  0  0  0  0
   35.6040   30.6560   39.4710 H   0  0  0  0  0  0  0  0  0  0  0  0
   37.7130   30.8040   39.6980 C   0  0  0  0  0  0  0  0  0  0  0  0
   37.5750   32.0150   40.3760 C   0  0  0  0  0  3  0  0  0  0  0  0
   38.6270   32.7580   40.8880 C   0  0  0  0  0  0  0  0  0  0  0  0
   38.3630   33.6660   41.3820 H   0  0  0  0  0  0  0  0  0  0  0  0
   39.8660   32.2910   40.7310 N   0  0  0  0  0  0  0  0  0  0  0  0
   40.0110   31.1130   40.0730 C   0  0  0  0  0  3  0  0  0  0  0  0
   38.9830   30.3890   39.5730 N   0  0  0  0  0  0  0  0  0  0  0  0
  1 13  1  0  0  0  0
  1  2  1  0  0  0  0
  2 14  1  0  0  0  0
  3  2  2  0  0  0  0
  3 15  1  0  0  0  0
  4  3  1  0  0  0  0
  5  6  1  0  0  0  0
  5  4  2  0  0  0  0
  6  1  2  0  0  0  0
  7  5  1  0  0  0  0
  8 16  1  0  0  0  0
  8 17  1  0  0  0  0
  8  7  1  0  0  0  0
  9  8  1  0  0  0  0
 10  9  1  0  0  0  0
 10 11  1  0  0  0  0
 10 20  1  0  0  0  0
 11 12  1  0  0  0  0
 12 24  1  1  0  0  0
 12 25  1  0  0  0  0
 12  7  1  0  0  0  0
 18  9  1  0  0  0  0
 19  9  1  0  0  0  0
 21 10  1  0  0  0  0
 22 11  1  0  0  0  0
 23 11  1  0  0  0  0
 25 26  1  0  0  0  0
 26 27  2  0  0  0  0
 27 28  1  0  0  0  0
 29 27  1  0  0  0  0
 30 29  2  0  0  0  0
 31 25  2  0  0  0  0
 31 30  1  0  0  0  0
M  END
>  <minimizedAffinity>
-4.81819534

$$$$

 OpenBabel03242517213D

 31 33  0  0  1  0  0  0  0  0999 V2000
   35.4450   28.7120   38.1600 C   0  0  0  0  0  0  0  0  0  0  0  0
   36.2420   29.7450   38.6700 C   0  0  0  0  0  0  0  0  0  0  0  0
   37.2680   29.4240   39.5820 C   0  0  0  0  0  0  0  0  0  0  0  0
   37.4150   28.1220   39.9080 N   0  0  0  0  0  0  0  0  0  0  0  0
   36.6390   27.1450   39.4090 C   0  0  0  0  0  0  0  0  0  0  0  0
   35.6620   27.4500   38.5390 N   0  0  0  0  0  0  0  0  0  0  0  0
   36.8740   25.7840   39.8260 N   0  0  0  0  0  0  0  0  0  0  0  0
   36.0780   24.7700   39.1450 C   0  0  0  0  0  0  0  0  0  0  0  0
   36.0050   23.4740   39.8550 C   0  0  0  0  0  0  0  0  0  0  0  0
   37.3140   23.1780   40.5360 C   0  0  0  0  0  0  0  0  0  0  0  0
   37.4840   24.2470   41.5840 C   0  0  0  0  0  0  0  0  0  0  0  0
   37.8540   25.5160   40.8630 C   0  0  2  0  0  0  0  0  0  0  0  0
   34.6540   28.9680   37.4540 H   0  0  0  0  0  0  0  0  0  0  0  0
   36.0790   30.7780   38.3720 H   0  0  0  0  0  0  0  0  0  0  0  0
   37.9040   30.2130   39.9950 H   0  0  0  0  0  0  0  0  0  0  0  0
   35.0660   25.2130   38.9340 H   0  0  0  0  0  0  0  0  0  0  0  0
   36.5420   24.6480   38.1450 H   0  0  0  0  0  0  0  0  0  0  0  0
   35.8400   22.6640   39.0950 H   0  0  0  0  0  0  0  0  0  0  0  0
   35.2130   23.3780   40.6090 H   0  0  0  0  0  0  0  0  0  0  0  0
   38.1390   23.1860   39.8040 H   0  0  0  0  0  0  0  0  0  0  0  0
   37.2280   22.2060   41.0600 H   0  0  0  0  0  0  0  0  0  0  0  0
   38.2410   23.9970   42.3500 H   0  0  0  0  0  0  0  0  0  0  0  0
   36.4940   24.4260   42.0850 H   0  0  0  0  0  0  0  0  0  0  0  0
   38.8230   25.3420   40.3590 H   0  0  0  0  0  0  0  0  0  0  0  0
   37.9920   26.6520   41.8120 C   0  0  0  0  0  0  0  0  0  0  0  0
   36.9290   27.0040   42.6440 C   0  0  0  0  0  3  0  0  0  0  0  0
   36.9500   28.0510   43.5530 C   0  0  0  0  0  0  0  0  0  0  0  0
   36.0580   28.1970   44.1200 H   0  0  0  0  0  0  0  0  0  0  0  0
   38.0600   28.7810   43.6500 N   0  0  0  0  0  0  0  0  0  0  0  0
   39.1000   28.4470   42.8450 C   0  0  0  0  0  3  0  0  0  0  0  0
   39.0790   27.4250   41.9570 N   0  0  0  0  0  0  0  0  0  0  0  0
  1  6  2  0  0  0  0
  1  2  1  0  0  0  0
  2  3  2  0  0  0  0
  3  4  1  0  0  0  0
  3 15  1  0  0  0  0
  5  7  1  0  0  0  0
  5  4  2  0  0  0  0
  6  5  1  0  0  0  0
  7 12  1  0  0  0  0
  8  7  1  0  0  0  0
  8  9  1  0  0  0  0
  9 10  1  0  0  0  0
  9 19  1  0  0  0  0
 10 21  1  0  0  0  0
 10 11  1  0  0  0  0
 11 23  1  0  0  0  0
 11 22  1  0  0  0  0
 12 24  1  6  0  0  0
 12 11  1  0  0  0  0
 12 25  1  0  0  0  0
 13  1  1  0  0  0  0
 14  2  1  0  0  0  0
 16  8  1  0  0  0  0
 17  8  1  0  0  0  0
 18  9  1  0  0  0  0
 20 10  1  0  0  0  0
 25 31  2  0  0  0  0
 25 26  1  0  0  0  0
 26 27  2  0  0  0  0
 27 29  1  0  0  0  0
 27 28  1  0  0  0  0
 30 29  2  0  0  0  0
 31 30  1  0  0  0  0
M  END
>  <minimizedAffinity>
-4.67587328

$$$$

 OpenBabel03242517213D

 31 33  0  0  1  0  0  0  0  0999 V2000
   36.9550   30.0340   41.7910 C   0  0  0  0  0  0  0  0  0  0  0  0
   35.9810   29.8430   40.8030 C   0  0  0  0  0  0  0  0  0  0  0  0
   35.7540   28.5410   40.3150 C   0  0  0  0  0  0  0  0  0  0  0  0
   36.5030   27.5480   40.8420 N   0  0  0  0  0  0  0  0  0  0  0  0
   37.4340   27.7510   41.7900 C   0  0  0  0  0  0  0  0  0  0  0  0
   37.6500   28.9920   42.2550 N   0  0  0  0  0  0  0  0  0  0  0  0
   38.1860   26.6230   42.2830 N   0  0  0  0  0  0  0  0  0  0  0  0
   39.0840   26.9030   43.3970 C   0  0  0  0  0  0  0  0  0  0  0  0
   40.1370   25.8840   43.6030 C   0  0  0  0  0  0  0  0  0  0  0  0
   39.6000   24.5110   43.2980 C   0  0  0  0  0  0  0  0  0  0  0  0
   39.2700   24.5150   41.8280 C   0  0  0  0  0  0  0  0  0  0  0  0
   38.0100   25.3230   41.6610 C   0  0  2  0  0  0  0  0  0  0  0  0
   37.1250   31.0450   42.1640 H   0  0  0  0  0  0  0  0  0  0  0  0
   35.4060   30.6810   40.4140 H   0  0  0  0  0  0  0  0  0  0  0  0
   34.9990   28.3650   39.5430 H   0  0  0  0  0  0  0  0  0  0  0  0
   39.4980   27.9390   43.2520 H   0  0  0  0  0  0  0  0  0  0  0  0
   38.4330   26.9870   44.2910 H   0  0  0  0  0  0  0  0  0  0  0  0
   40.4270   25.8900   44.6870 H   0  0  0  0  0  0  0  0  0  0  0  0
   41.0580   26.0140   43.0200 H   0  0  0  0  0  0  0  0  0  0  0  0
   38.7130   24.2990   43.9180 H   0  0  0  0  0  0  0  0  0  0  0  0
   40.4090   23.7720   43.4580 H   0  0  0  0  0  0  0  0  0  0  0  0
   39.1450   23.5020   41.4020 H   0  0  0  0  0  0  0  0  0  0  0  0
   40.0850   25.0530   41.2730 H   0  0  0  0  0  0  0  0  0  0  0  0
   37.2060   24.8030   42.2150 H   0  0  0  0  0  0  0  0  0  0  0  0
   37.6280   25.4330   40.2290 C   0  0  0  0  0  0  0  0  0  0  0  0
   36.4210   24.8970   39.7820 C   0  0  0  0  0  3  0  0  0  0  0  0
   35.9770   24.9350   38.4690 C   0  0  0  0  0  0  0  0  0  0  0  0
   35.0300   24.4810   38.2800 H   0  0  0  0  0  0  0  0  0  0  0  0
   36.7500   25.5260   37.5580 N   0  0  0  0  0  0  0  0  0  0  0  0
   37.9270   26.0510   37.9830 C   0  0  0  0  0  3  0  0  0  0  0  0
   38.3600   26.0120   39.2640 N   0  0  0  0  0  0  0  0  0  0  0  0
  1 13  1  0  0  0  0
  1  6  1  0  0  0  0
  2  1  2  0  0  0  0
  3  2  1  0  0  0  0
  3  4  2  0  0  0  0
  4  5  1  0  0  0  0
  5  6  2  0  0  0  0
  5  7  1  0  0  0  0
  7  8  1  0  0  0  0
  8  9  1  0  0  0  0
  8 17  1  0  0  0  0
  9 18  1  0  0  0  0
 10 21  1  0  0  0  0
 10  9  1  0  0  0  0
 10 20  1  0  0  0  0
 11 10  1  0  0  0  0
 12 11  1  0  0  0  0
 12 24  1  1  0  0  0
 12  7  1  0  0  0  0
 14  2  1  0  0  0  0
 15  3  1  0  0  0  0
 16  8  1  0  0  0  0
 19  9  1  0  0  0  0
 22 11  1  0  0  0  0
 23 11  1  0  0  0  0
 25 12  1  0  0  0  0
 26 25  1  0  0  0  0
 27 26  2  0  0  0  0
 28 27  1  0  0  0  0
 29 30  2  0  0  0  0
 29 27  1  0  0  0  0
 30 31  1  0  0  0  0
 31 25  2  0  0  0  0
M  END
>  <minimizedAffinity>
-4.60566187

$$$$

 OpenBabel03242517213D

 31 33  0  0  1  0  0  0  0  0999 V2000
   39.2380   27.6280   37.5970 C   0  0  0  0  0  0  0  0  0  0  0  0
   39.8680   28.8400   37.2870 C   0  0  0  0  0  0  0  0  0  0  0  0
   40.0190   29.8070   38.3010 C   0  0  0  0  0  0  0  0  0  0  0  0
   39.5380   29.4950   39.5240 N   0  0  0  0  0  0  0  0  0  0  0  0
   38.9360   28.3260   39.8030 C   0  0  0  0  0  0  0  0  0  0  0  0
   38.7930   27.4040   38.8360 N   0  0  0  0  0  0  0  0  0  0  0  0
   38.4510   28.0920   41.1410 N   0  0  0  0  0  0  0  0  0  0  0  0
   37.9270   26.7560   41.3970 C   0  0  0  0  0  0  0  0  0  0  0  0
   37.0610   26.6580   42.5920 C   0  0  0  0  0  0  0  0  0  0  0  0
   37.5670   27.5700   43.6780 C   0  0  0  0  0  0  0  0  0  0  0  0
   37.4240   28.9700   43.1410 C   0  0  0  0  0  0  0  0  0  0  0  0
   38.5120   29.1640   42.1180 C   0  0  2  0  0  0  0  0  0  0  0  0
   39.1250   26.8850   36.8070 H   0  0  0  0  0  0  0  0  0  0  0  0
   40.2360   29.0380   36.2830 H   0  0  0  0  0  0  0  0  0  0  0  0
   40.5070   30.7620   38.0840 H   0  0  0  0  0  0  0  0  0  0  0  0
   37.4200   26.4010   40.4570 H   0  0  0  0  0  0  0  0  0  0  0  0
   38.8160   26.1000   41.4970 H   0  0  0  0  0  0  0  0  0  0  0  0
   37.1220   25.6100   42.9880 H   0  0  0  0  0  0  0  0  0  0  0  0
   35.9980   26.8860   42.4400 H   0  0  0  0  0  0  0  0  0  0  0  0
   38.6140   27.3300   43.9240 H   0  0  0  0  0  0  0  0  0  0  0  0
   36.8990   27.4780   44.5570 H   0  0  0  0  0  0  0  0  0  0  0  0
   37.4770   29.7500   43.9230 H   0  0  0  0  0  0  0  0  0  0  0  0
   36.4420   29.0540   42.6000 H   0  0  0  0  0  0  0  0  0  0  0  0
   39.4820   29.0720   42.6430 H   0  0  0  0  0  0  0  0  0  0  0  0
   38.4220   30.5060   41.4860 C   0  0  0  0  0  0  0  0  0  0  0  0
   37.2660   30.8840   40.8040 C   0  0  0  0  0  3  0  0  0  0  0  0
   37.0850   32.1040   40.1710 C   0  0  0  0  0  0  0  0  0  0  0  0
   36.1430   32.2480   39.6900 H   0  0  0  0  0  0  0  0  0  0  0  0
   38.0800   32.9900   40.2100 N   0  0  0  0  0  0  0  0  0  0  0  0
   39.2100   32.6320   40.8710 C   0  0  0  0  0  3  0  0  0  0  0  0
   39.3860   31.4400   41.4880 N   0  0  0  0  0  0  0  0  0  0  0  0
  1  6  1  0  0  0  0
  2  1  2  0  0  0  0
  2  3  1  0  0  0  0
  3  4  2  0  0  0  0
  4  5  1  0  0  0  0
  5  7  1  0  0  0  0
  6  5  2  0  0  0  0
  7  8  1  0  0  0  0
  7 12  1  0  0  0  0
  8 17  1  0  0  0  0
  8  9  1  0  0  0  0
  9 18  1  0  0  0  0
  9 10  1  0  0  0  0
 10 20  1  0  0  0  0
 10 21  1  0  0  0  0
 11 10  1  0  0  0  0
 11 22  1  0  0  0  0
 12 24  1  1  0  0  0
 12 11  1  0  0  0  0
 13  1  1  0  0  0  0
 14  2  1  0  0  0  0
 15  3  1  0  0  0  0
 16  8  1  0  0  0  0
 19  9  1  0  0  0  0
 23 11  1  0  0  0  0
 25 31  1  0  0  0  0
 25 12  1  0  0  0  0
 26 25  2  0  0  0  0
 27 29  2  0  0  0  0
 27 26  1  0  0  0  0
 28 27  1  0  0  0  0
 29 30  1  0  0  0  0
 30 31  2  0  0  0  0
M  END
>  <minimizedAffinity>
-4.59375381

$$$$

 OpenBabel03242517213D

 31 33  0  0  1  0  0  0  0  0999 V2000
   36.7070   26.8040   37.9080 C   0  0  0  0  0  0  0  0  0  0  0  0
   36.6410   25.9830   39.0420 C   0  0  0  0  0  0  0  0  0  0  0  0
   36.7000   26.5800   40.3170 C   0  0  0  0  0  0  0  0  0  0  0  0
   36.8180   27.9240   40.3620 N   0  0  0  0  0  0  0  0  0  0  0  0
   36.8790   28.6960   39.2630 C   0  0  0  0  0  0  0  0  0  0  0  0
   36.8220   28.1280   38.0480 N   0  0  0  0  0  0  0  0  0  0  0  0
   37.0100   30.1240   39.4190 N   0  0  0  0  0  0  0  0  0  0  0  0
   36.9420   30.9010   38.1880 C   0  0  0  0  0  0  0  0  0  0  0  0
   37.4960   32.2690   38.2970 C   0  0  0  0  0  0  0  0  0  0  0  0
   37.1990   32.8440   39.6550 C   0  0  0  0  0  0  0  0  0  0  0  0
   37.9460   31.9840   40.6400 C   0  0  0  0  0  0  0  0  0  0  0  0
   37.1970   30.6820   40.7460 C   0  0  2  0  0  0  0  0  0  0  0  0
   36.6600   26.3360   36.9250 H   0  0  0  0  0  0  0  0  0  0  0  0
   36.5470   24.9050   38.9460 H   0  0  0  0  0  0  0  0  0  0  0  0
   36.6520   25.9600   41.2180 H   0  0  0  0  0  0  0  0  0  0  0  0
   37.4250   30.2950   37.3720 H   0  0  0  0  0  0  0  0  0  0  0  0
   35.8680   30.9300   37.9120 H   0  0  0  0  0  0  0  0  0  0  0  0
   36.9790   32.9210   37.5440 H   0  0  0  0  0  0  0  0  0  0  0  0
   38.5750   32.3690   38.1260 H   0  0  0  0  0  0  0  0  0  0  0  0
   36.1130   32.8370   39.8460 H   0  0  0  0  0  0  0  0  0  0  0  0
   37.6270   33.8640   39.7090 H   0  0  0  0  0  0  0  0  0  0  0  0
   38.0620   32.4510   41.6360 H   0  0  0  0  0  0  0  0  0  0  0  0
   38.9620   31.7490   40.2210 H   0  0  0  0  0  0  0  0  0  0  0  0
   36.1920   30.9080   41.1490 H   0  0  0  0  0  0  0  0  0  0  0  0
   37.8900   29.7360   41.6600 C   0  0  0  0  0  0  0  0  0  0  0  0
   39.2100   29.3600   41.4110 C   0  0  0  0  0  3  0  0  0  0  0  0
   39.9410   28.4780   42.1920 C   0  0  0  0  0  0  0  0  0  0  0  0
   40.9420   28.2890   41.8730 H   0  0  0  0  0  0  0  0  0  0  0  0
   39.3530   27.9450   43.2620 N   0  0  0  0  0  0  0  0  0  0  0  0
   38.0690   28.3040   43.5130 C   0  0  0  0  0  3  0  0  0  0  0  0
   37.3550   29.1640   42.7500 N   0  0  0  0  0  0  0  0  0  0  0  0
  1  6  2  0  0  0  0
  1  2  1  0  0  0  0
  2  3  2  0  0  0  0
  3  4  1  0  0  0  0
  3 15  1  0  0  0  0
  5  7  1  0  0  0  0
  5  4  2  0  0  0  0
  6  5  1  0  0  0  0
  7 12  1  0  0  0  0
  8  9  1  0  0  0  0
  8  7  1  0  0  0  0
  9 10  1  0  0  0  0
 10 21  1  0  0  0  0
 10 20  1  0  0  0  0
 10 11  1  0  0  0  0
 11 12  1  0  0  0  0
 11 22  1  0  0  0  0
 12 24  1  1  0  0  0
 12 25  1  0  0  0  0
 13  1  1  0  0  0  0
 14  2  1  0  0  0  0
 16  8  1  0  0  0  0
 17  8  1  0  0  0  0
 18  9  1  0  0  0  0
 19  9  1  0  0  0  0
 23 11  1  0  0  0  0
 25 31  1  0  0  0  0
 26 25  2  0  0  0  0
 26 27  1  0  0  0  0
 27 29  2  0  0  0  0
 28 27  1  0  0  0  0
 29 30  1  0  0  0  0
 31 30  2  0  0  0  0
M  END
>  <minimizedAffinity>
-4.57015181

$$$$

 OpenBabel03242517213D

 31 33  0  0  1  0  0  0  0  0999 V2000
   36.5430   24.0610   40.6220 C   0  0  0  0  0  0  0  0  0  0  0  0
   36.3530   24.1460   39.2370 C   0  0  0  0  0  0  0  0  0  0  0  0
   36.5730   25.3820   38.5960 C   0  0  0  0  0  0  0  0  0  0  0  0
   36.9580   26.4170   39.3730 N   0  0  0  0  0  0  0  0  0  0  0  0
   37.1350   26.3160   40.7010 C   0  0  0  0  0  0  0  0  0  0  0  0
   36.9260   25.1380   41.3120 N   0  0  0  0  0  0  0  0  0  0  0  0
   37.5430   27.4850   41.4430 N   0  0  0  0  0  0  0  0  0  0  0  0
   37.8370   27.2650   42.8530 C   0  0  0  0  0  0  0  0  0  0  0  0
   37.8280   28.4930   43.6780 C   0  0  0  0  0  0  0  0  0  0  0  0
   38.3750   29.6530   42.8900 C   0  0  0  0  0  0  0  0  0  0  0  0
   37.4090   29.8740   41.7560 C   0  0  0  0  0  0  0  0  0  0  0  0
   37.6330   28.7640   40.7630 C   0  0  2  0  0  0  0  0  0  0  0  0
   36.3710   23.1020   41.1110 H   0  0  0  0  0  0  0  0  0  0  0  0
   36.0410   23.2790   38.6600 H   0  0  0  0  0  0  0  0  0  0  0  0
   36.4310   25.4750   37.5150 H   0  0  0  0  0  0  0  0  0  0  0  0
   37.1300   26.4760   43.2320 H   0  0  0  0  0  0  0  0  0  0  0  0
   38.8340   26.7780   42.8780 H   0  0  0  0  0  0  0  0  0  0  0  0
   38.5140   28.3370   44.5520 H   0  0  0  0  0  0  0  0  0  0  0  0
   36.8540   28.7990   44.0800 H   0  0  0  0  0  0  0  0  0  0  0  0
   39.3900   29.4250   42.5250 H   0  0  0  0  0  0  0  0  0  0  0  0
   38.3530   30.5570   43.5300 H   0  0  0  0  0  0  0  0  0  0  0  0
   37.5160   30.8610   41.2700 H   0  0  0  0  0  0  0  0  0  0  0  0
   36.3590   29.7640   42.1450 H   0  0  0  0  0  0  0  0  0  0  0  0
   38.6680   28.8610   40.3840 H   0  0  0  0  0  0  0  0  0  0  0  0
   36.6820   28.8620   39.6240 C   0  0  0  0  0  0  0  0  0  0  0  0
   35.3070   28.8110   39.8510 C   0  0  0  0  0  3  0  0  0  0  0  0
   34.3390   28.8810   38.8610 C   0  0  0  0  0  0  0  0  0  0  0  0
   33.3260   28.8280   39.1910 H   0  0  0  0  0  0  0  0  0  0  0  0
   34.7380   29.0090   37.5960 N   0  0  0  0  0  0  0  0  0  0  0  0
   36.0740   29.0600   37.3640 C   0  0  0  0  0  3  0  0  0  0  0  0
   37.0180   28.9910   38.3310 N   0  0  0  0  0  0  0  0  0  0  0  0
  1 13  1  0  0  0  0
  1  6  1  0  0  0  0
  2  1  2  0  0  0  0
  3  2  1  0  0  0  0
  3  4  2  0  0  0  0
  4  5  1  0  0  0  0
  5  6  2  0  0  0  0
  5  7  1  0  0  0  0
  7  8  1  0  0  0  0
  8 17  1  0  0  0  0
  8 16  1  0  0  0  0
  8  9  1  0  0  0  0
  9 19  1  0  0  0  0
  9 18  1  0  0  0  0
 10 21  1  0  0  0  0
 10  9  1  0  0  0  0
 11 23  1  0  0  0  0
 11 10  1  0  0  0  0
 12 24  1  6  0  0  0
 12  7  1  0  0  0  0
 12 11  1  0  0  0  0
 14  2  1  0  0  0  0
 15  3  1  0  0  0  0
 20 10  1  0  0  0  0
 22 11  1  0  0  0  0
 25 26  1  0  0  0  0
 25 12  1  0  0  0  0
 27 28  1  0  0  0  0
 27 26  2  0  0  0  0
 29 27  1  0  0  0  0
 30 29  2  0  0  0  0
 30 31  1  0  0  0  0
 31 25  2  0  0  0  0
M  END
>  <minimizedAffinity>
-4.55611181

$$$$
