
 OpenBabel03242522443D

 45 48  0  0  0  0  0  0  0  0999 V2000
   36.7550   26.9260   38.8890 C   0  0  0  0  0  0  0  0  0  0  0  0
   37.3380   27.1860   39.7900 H   0  0  0  0  0  0  0  0  0  0  0  0
   37.2540   27.1320   37.9210 H   0  0  0  0  0  0  0  0  0  0  0  0
   37.3230   24.7820   39.9030 C   0  0  0  0  0  0  0  0  0  0  0  0
   36.5100   25.4930   39.0260 C   0  0  0  0  0  0  0  0  0  0  0  0
   35.5070   24.9530   38.3090 C   0  0  0  0  0  0  0  0  0  0  0  0
   35.2470   23.6070   38.4290 C   0  0  0  0  0  0  0  0  0  0  0  0
   35.9820   22.8180   39.2620 C   0  0  0  0  0  0  0  0  0  0  0  0
   37.0040   23.4190   39.9820 C   0  0  0  0  0  0  0  0  0  0  0  0
   34.8220   25.3770   37.6310 H   0  0  0  0  0  0  0  0  0  0  0  0
   34.4750   23.0380   37.9110 H   0  0  0  0  0  0  0  0  0  0  0  0
   35.8490   21.7470   39.4250 H   0  0  0  0  0  0  0  0  0  0  0  0
   37.6090   22.8120   40.6590 H   0  0  0  0  0  0  0  0  0  0  0  0
   38.5730   25.4190   40.8790 S   0  0  0  0  0  0  0  0  0  0  0  0
   39.6530   26.0830   39.9320 O   0  0  0  0  0  0  0  0  0  0  0  0
   39.3390   24.3180   41.5320 O   0  0  0  0  0  0  0  0  0  0  0  0
   38.2920   26.8090   41.8420 C   0  0  0  0  0  0  0  0  0  0  0  0
   37.1710   26.6980   42.6890 C   0  0  0  0  0  3  0  0  0  0  0  0
   36.7580   27.6630   43.5590 C   0  0  0  0  0  0  0  0  0  0  0  0
   35.9020   27.5760   44.2070 H   0  0  0  0  0  0  0  0  0  0  0  0
   37.4590   28.8070   43.6270 N   0  0  0  0  0  0  0  0  0  0  0  0
   38.5320   28.9420   42.8300 C   0  0  0  0  0  3  0  0  0  0  0  0
   38.9240   27.9820   41.9790 N   0  0  0  0  0  0  0  0  0  0  0  0
   35.5500   27.8120   39.0140 C   0  0  0  0  0  0  0  0  0  0  0  0
   34.7940   27.6860   38.2010 H   0  0  0  0  0  0  0  0  0  0  0  0
   34.9120   27.5960   39.9160 H   0  0  0  0  0  0  0  0  0  0  0  0
   35.7880   29.8070   40.4580 C   0  0  0  0  0  0  0  0  0  0  0  0
   36.0240   29.1800   39.2160 C   0  0  0  0  0  0  0  0  0  0  0  0
   36.7360   29.8780   38.2590 C   0  0  0  0  0  0  0  0  0  0  0  0
   37.1720   31.1200   38.5630 N   0  0  0  0  0  0  0  0  0  0  0  0
   36.9370   31.6880   39.7490 C   0  0  0  0  0  0  0  0  0  0  0  0
   36.2430   31.0450   40.7170 N   0  0  0  0  0  0  0  0  0  0  0  0
   35.2560   29.4400   41.3170 H   0  0  0  0  0  0  0  0  0  0  0  0
   36.9100   29.3900   37.3080 H   0  0  0  0  0  0  0  0  0  0  0  0
   37.4720   33.0700   39.9990 C   0  0  0  0  0  0  0  0  0  0  0  0
   37.2580   33.7050   39.0900 H   0  0  0  0  0  0  0  0  0  0  0  0
   36.8720   33.5560   40.7960 H   0  0  0  0  0  0  0  0  0  0  0  0
   38.8740   33.0840   40.3840 C   0  0  0  0  0  0  0  0  0  0  0  0
   39.8470   33.9280   39.8780 C   0  0  0  0  0  0  0  0  0  0  0  0
   41.0410   33.6420   40.4840 C   0  0  0  0  0  0  0  0  0  0  0  0
   40.7610   32.6260   41.3480 N   0  0  0  0  0  0  0  0  0  0  0  0
   39.4730   32.2880   41.2940 N   0  0  0  0  0  0  0  0  0  0  0  0
   39.7490   34.7070   39.1260 H   0  0  0  0  0  0  0  0  0  0  0  0
   42.0450   34.0500   40.3920 H   0  0  0  0  0  0  0  0  0  0  0  0
   41.3590   32.0840   42.0240 H   0  0  0  0  0  0  0  0  0  0  0  0
  1 24  1  0  0  0  0
  1  5  1  0  0  0  0
  1  2  1  0  0  0  0
  3  1  1  0  0  0  0
  4  9  1  0  0  0  0
  4 14  1  0  0  0  0
  5  4  2  0  0  0  0
  6  7  2  0  0  0  0
  6  5  1  0  0  0  0
  7  8  1  0  0  0  0
  8 12  1  0  0  0  0
  8  9  2  0  0  0  0
  9 13  1  0  0  0  0
 10  6  1  0  0  0  0
 11  7  1  0  0  0  0
 14 16  2  0  0  0  0
 14 17  1  0  0  0  0
 15 14  2  0  0  0  0
 17 23  2  0  0  0  0
 17 18  1  0  0  0  0
 18 19  2  0  0  0  0
 19 21  1  0  0  0  0
 19 20  1  0  0  0  0
 22 21  2  0  0  0  0
 23 22  1  0  0  0  0
 24 28  1  0  0  0  0
 24 26  1  0  0  0  0
 25 24  1  0  0  0  0
 27 32  1  0  0  0  0
 27 33  1  0  0  0  0
 28 27  2  0  0  0  0
 29 30  2  0  0  0  0
 29 28  1  0  0  0  0
 30 31  1  0  0  0  0
 31 35  1  0  0  0  0
 31 32  2  0  0  0  0
 34 29  1  0  0  0  0
 35 38  1  0  0  0  0
 35 37  1  0  0  0  0
 36 35  1  0  0  0  0
 38 42  2  0  0  0  0
 39 38  1  0  0  0  0
 39 40  2  0  0  0  0
 40 41  1  0  0  0  0
 41 45  1  0  0  0  0
 42 41  1  0  0  0  0
 43 39  1  0  0  0  0
 44 40  1  0  0  0  0
M  END
>  <minimizedAffinity>
-6.00553179

$$$$

 OpenBabel03242522443D

 45 48  0  0  0  0  0  0  0  0999 V2000
   37.1090   27.2710   42.1490 C   0  0  0  0  0  0  0  0  0  0  0  0
   37.2250   27.6980   41.1380 H   0  0  0  0  0  0  0  0  0  0  0  0
   36.1870   26.6790   42.3160 H   0  0  0  0  0  0  0  0  0  0  0  0
   38.6440   25.6100   41.2360 C   0  0  0  0  0  0  0  0  0  0  0  0
   38.2820   26.4170   42.3110 C   0  0  0  0  0  0  0  0  0  0  0  0
   38.9460   26.4710   43.4800 C   0  0  0  0  0  0  0  0  0  0  0  0
   40.0630   25.6850   43.6530 C   0  0  0  0  0  0  0  0  0  0  0  0
   40.5060   24.8600   42.6630 C   0  0  0  0  0  0  0  0  0  0  0  0
   39.7900   24.8390   41.4750 C   0  0  0  0  0  0  0  0  0  0  0  0
   38.7860   27.0380   44.3530 H   0  0  0  0  0  0  0  0  0  0  0  0
   40.6920   25.6240   44.5410 H   0  0  0  0  0  0  0  0  0  0  0  0
   41.3770   24.2050   42.7060 H   0  0  0  0  0  0  0  0  0  0  0  0
   40.1210   24.1880   40.6630 H   0  0  0  0  0  0  0  0  0  0  0  0
   37.8750   25.5370   39.7120 S   0  0  0  0  0  0  0  0  0  0  0  0
   36.4280   24.9280   39.9140 O   0  0  0  0  0  0  0  0  0  0  0  0
   38.5380   24.5260   38.8390 O   0  0  0  0  0  0  0  0  0  0  0  0
   37.3610   26.9760   38.9340 C   0  0  0  0  0  0  0  0  0  0  0  0
   35.9780   27.0170   38.6690 C   0  0  0  0  0  3  0  0  0  0  0  0
   35.3320   28.0620   38.0770 C   0  0  0  0  0  0  0  0  0  0  0  0
   34.2750   28.0920   37.8750 H   0  0  0  0  0  0  0  0  0  0  0  0
   36.0520   29.1370   37.7140 N   0  0  0  0  0  0  0  0  0  0  0  0
   37.3740   29.1260   37.9530 C   0  0  0  0  0  3  0  0  0  0  0  0
   37.9930   28.0880   38.5370 N   0  0  0  0  0  0  0  0  0  0  0  0
   37.0660   28.4950   43.0180 C   0  0  0  0  0  0  0  0  0  0  0  0
   36.1190   28.6220   43.5960 H   0  0  0  0  0  0  0  0  0  0  0  0
   37.8160   28.4900   43.8570 H   0  0  0  0  0  0  0  0  0  0  0  0
   36.4560   30.2750   41.4110 C   0  0  0  0  0  0  0  0  0  0  0  0
   37.4460   29.6390   42.1900 C   0  0  0  0  0  0  0  0  0  0  0  0
   38.7260   30.1580   42.1690 C   0  0  0  0  0  0  0  0  0  0  0  0
   38.9630   31.2500   41.4070 N   0  0  0  0  0  0  0  0  0  0  0  0
   38.0050   31.8350   40.6820 C   0  0  0  0  0  0  0  0  0  0  0  0
   36.7380   31.3610   40.6690 N   0  0  0  0  0  0  0  0  0  0  0  0
   35.4180   30.0240   41.2890 H   0  0  0  0  0  0  0  0  0  0  0  0
   39.4790   29.6620   42.7670 H   0  0  0  0  0  0  0  0  0  0  0  0
   38.3620   33.0500   39.8750 C   0  0  0  0  0  0  0  0  0  0  0  0
   37.4060   33.5290   39.5100 H   0  0  0  0  0  0  0  0  0  0  0  0
   38.7930   33.8220   40.5450 H   0  0  0  0  0  0  0  0  0  0  0  0
   39.3030   32.7740   38.8010 C   0  0  0  0  0  0  0  0  0  0  0  0
   40.6480   33.0980   38.7960 C   0  0  0  0  0  0  0  0  0  0  0  0
   41.2030   32.6770   37.6170 C   0  0  0  0  0  0  0  0  0  0  0  0
   40.1730   32.1040   36.9320 N   0  0  0  0  0  0  0  0  0  0  0  0
   39.0400   32.1590   37.6300 N   0  0  0  0  0  0  0  0  0  0  0  0
   41.2300   33.6010   39.5650 H   0  0  0  0  0  0  0  0  0  0  0  0
   42.2060   32.7240   37.2020 H   0  0  0  0  0  0  0  0  0  0  0  0
   40.1190   31.6450   35.9860 H   0  0  0  0  0  0  0  0  0  0  0  0
  1  5  1  0  0  0  0
  1  3  1  0  0  0  0
  1 24  1  0  0  0  0
  2  1  1  0  0  0  0
  4  9  2  0  0  0  0
  4  5  1  0  0  0  0
  5  6  2  0  0  0  0
  6  7  1  0  0  0  0
  6 10  1  0  0  0  0
  7 11  1  0  0  0  0
  8 12  1  0  0  0  0
  8  7  2  0  0  0  0
  9  8  1  0  0  0  0
 13  9  1  0  0  0  0
 14 15  2  0  0  0  0
 14  4  1  0  0  0  0
 16 14  2  0  0  0  0
 17 14  1  0  0  0  0
 18 17  1  0  0  0  0
 19 18  2  0  0  0  0
 20 19  1  0  0  0  0
 21 22  2  0  0  0  0
 21 19  1  0  0  0  0
 22 23  1  0  0  0  0
 23 17  2  0  0  0  0
 24 25  1  0  0  0  0
 24 26  1  0  0  0  0
 27 28  1  0  0  0  0
 28 24  1  0  0  0  0
 29 28  2  0  0  0  0
 29 34  1  0  0  0  0
 30 29  1  0  0  0  0
 31 30  2  0  0  0  0
 32 31  1  0  0  0  0
 32 27  2  0  0  0  0
 33 27  1  0  0  0  0
 35 37  1  0  0  0  0
 35 31  1  0  0  0  0
 36 35  1  0  0  0  0
 38 35  1  0  0  0  0
 39 38  1  0  0  0  0
 39 43  1  0  0  0  0
 40 39  2  0  0  0  0
 41 40  1  0  0  0  0
 41 42  1  0  0  0  0
 42 38  2  0  0  0  0
 44 40  1  0  0  0  0
 45 41  1  0  0  0  0
M  END
>  <minimizedAffinity>
-5.90152597

$$$$

 OpenBabel03242522443D

 45 48  0  0  0  0  0  0  0  0999 V2000
   36.5170   26.8580   38.5650 C   0  0  0  0  0  0  0  0  0  0  0  0
   35.9760   27.8140   38.6670 H   0  0  0  0  0  0  0  0  0  0  0  0
   37.4910   26.9150   38.0380 H   0  0  0  0  0  0  0  0  0  0  0  0
   36.7860   27.3960   40.9290 C   0  0  0  0  0  0  0  0  0  0  0  0
   36.7240   26.4170   39.9410 C   0  0  0  0  0  0  0  0  0  0  0  0
   36.8270   25.0950   40.1720 C   0  0  0  0  0  0  0  0  0  0  0  0
   37.0090   24.6520   41.4630 C   0  0  0  0  0  0  0  0  0  0  0  0
   37.0820   25.5270   42.5050 C   0  0  0  0  0  0  0  0  0  0  0  0
   36.9690   26.8790   42.2190 C   0  0  0  0  0  0  0  0  0  0  0  0
   36.7850   24.2640   39.5260 H   0  0  0  0  0  0  0  0  0  0  0  0
   37.1120   23.6190   41.7940 H   0  0  0  0  0  0  0  0  0  0  0  0
   37.2210   25.2720   43.5560 H   0  0  0  0  0  0  0  0  0  0  0  0
   37.0220   27.6040   43.0340 H   0  0  0  0  0  0  0  0  0  0  0  0
   36.6080   29.0800   40.7060 S   0  0  0  0  0  0  0  0  0  0  0  0
   37.0510   29.8080   42.0400 O   0  0  0  0  0  0  0  0  0  0  0  0
   35.1660   29.4450   40.5960 O   0  0  0  0  0  0  0  0  0  0  0  0
   37.6770   29.9320   39.6700 C   0  0  0  0  0  0  0  0  0  0  0  0
   37.0280   30.8290   38.7970 C   0  0  0  0  0  3  0  0  0  0  0  0
   37.6640   31.6300   37.8950 C   0  0  0  0  0  0  0  0  0  0  0  0
   37.1680   32.3160   37.2290 H   0  0  0  0  0  0  0  0  0  0  0  0
   39.0040   31.5710   37.8200 N   0  0  0  0  0  0  0  0  0  0  0  0
   39.6500   30.7230   38.6390 C   0  0  0  0  0  3  0  0  0  0  0  0
   39.0070   29.9430   39.5200 N   0  0  0  0  0  0  0  0  0  0  0  0
   35.5680   26.0310   37.7470 C   0  0  0  0  0  0  0  0  0  0  0  0
   36.0570   25.3910   36.9730 H   0  0  0  0  0  0  0  0  0  0  0  0
   35.0160   25.2470   38.3370 H   0  0  0  0  0  0  0  0  0  0  0  0
   34.7110   28.3170   37.3450 C   0  0  0  0  0  0  0  0  0  0  0  0
   34.5220   26.9210   37.2470 C   0  0  0  0  0  0  0  0  0  0  0  0
   33.3700   26.4600   36.6390 C   0  0  0  0  0  0  0  0  0  0  0  0
   32.4870   27.3680   36.1660 N   0  0  0  0  0  0  0  0  0  0  0  0
   32.6930   28.6840   36.2690 C   0  0  0  0  0  0  0  0  0  0  0  0
   33.8050   29.1830   36.8570 N   0  0  0  0  0  0  0  0  0  0  0  0
   35.5250   28.8660   37.7810 H   0  0  0  0  0  0  0  0  0  0  0  0
   33.2320   25.3890   36.5720 H   0  0  0  0  0  0  0  0  0  0  0  0
   31.6600   29.6160   35.7030 C   0  0  0  0  0  0  0  0  0  0  0  0
   32.1570   30.2740   34.9320 H   0  0  0  0  0  0  0  0  0  0  0  0
   30.9270   29.0330   35.1070 H   0  0  0  0  0  0  0  0  0  0  0  0
   30.9480   30.3730   36.7210 C   0  0  0  0  0  0  0  0  0  0  0  0
   30.4540   31.6580   36.5810 C   0  0  0  0  0  0  0  0  0  0  0  0
   29.8470   32.0310   37.7500 C   0  0  0  0  0  0  0  0  0  0  0  0
   29.9880   30.9550   38.5760 N   0  0  0  0  0  0  0  0  0  0  0  0
   30.6430   29.9650   37.9700 N   0  0  0  0  0  0  0  0  0  0  0  0
   30.5050   32.3170   35.7170 H   0  0  0  0  0  0  0  0  0  0  0  0
   29.3370   32.9340   38.0760 H   0  0  0  0  0  0  0  0  0  0  0  0
   29.6830   30.7770   39.5670 H   0  0  0  0  0  0  0  0  0  0  0  0
  1  2  1  0  0  0  0
  1  5  1  0  0  0  0
  3  1  1  0  0  0  0
  4  9  1  0  0  0  0
  5  6  1  0  0  0  0
  5  4  2  0  0  0  0
  6  7  2  0  0  0  0
  7 11  1  0  0  0  0
  7  8  1  0  0  0  0
  8 12  1  0  0  0  0
  9  8  2  0  0  0  0
  9 13  1  0  0  0  0
 10  6  1  0  0  0  0
 14  4  1  0  0  0  0
 14 15  2  0  0  0  0
 16 14  2  0  0  0  0
 17 14  1  0  0  0  0
 18 17  2  0  0  0  0
 19 18  1  0  0  0  0
 20 19  1  0  0  0  0
 21 19  2  0  0  0  0
 21 22  1  0  0  0  0
 22 23  2  0  0  0  0
 23 17  1  0  0  0  0
 24 26  1  0  0  0  0
 24  1  1  0  0  0  0
 25 24  1  0  0  0  0
 27 33  1  0  0  0  0
 28 27  1  0  0  0  0
 28 24  1  0  0  0  0
 29 28  2  0  0  0  0
 30 31  2  0  0  0  0
 30 29  1  0  0  0  0
 31 32  1  0  0  0  0
 32 27  2  0  0  0  0
 34 29  1  0  0  0  0
 35 31  1  0  0  0  0
 35 38  1  0  0  0  0
 36 35  1  0  0  0  0
 37 35  1  0  0  0  0
 38 42  2  0  0  0  0
 39 38  1  0  0  0  0
 39 40  2  0  0  0  0
 40 44  1  0  0  0  0
 40 41  1  0  0  0  0
 41 45  1  0  0  0  0
 42 41  1  0  0  0  0
 43 39  1  0  0  0  0
M  END
>  <minimizedAffinity>
-5.89687157

$$$$

 OpenBabel03242522443D

 45 48  0  0  0  0  0  0  0  0999 V2000
   36.6780   29.7870   40.9850 C   0  0  0  0  0  0  0  0  0  0  0  0
   35.9750   29.6310   41.8220 H   0  0  0  0  0  0  0  0  0  0  0  0
   37.7520   29.7850   41.2570 H   0  0  0  0  0  0  0  0  0  0  0  0
   36.7960   27.4070   40.4640 C   0  0  0  0  0  0  0  0  0  0  0  0
   36.3950   28.6820   40.0730 C   0  0  0  0  0  0  0  0  0  0  0  0
   35.7550   28.9600   38.9230 C   0  0  0  0  0  0  0  0  0  0  0  0
   35.4650   27.9340   38.0520 C   0  0  0  0  0  0  0  0  0  0  0  0
   35.8110   26.6480   38.3370 C   0  0  0  0  0  0  0  0  0  0  0  0
   36.4690   26.4090   39.5350 C   0  0  0  0  0  0  0  0  0  0  0  0
   35.3920   29.8640   38.5230 H   0  0  0  0  0  0  0  0  0  0  0  0
   34.9580   28.0130   37.0910 H   0  0  0  0  0  0  0  0  0  0  0  0
   35.6230   25.7730   37.7140 H   0  0  0  0  0  0  0  0  0  0  0  0
   36.7580   25.3880   39.7920 H   0  0  0  0  0  0  0  0  0  0  0  0
   37.5630   26.9840   41.9300 S   0  0  0  0  0  0  0  0  0  0  0  0
   37.8340   25.4250   41.9180 O   0  0  0  0  0  0  0  0  0  0  0  0
   36.6230   27.1450   43.0770 O   0  0  0  0  0  0  0  0  0  0  0  0
   39.1870   27.4510   42.2220 C   0  0  0  0  0  0  0  0  0  0  0  0
   39.8780   27.8590   41.0630 C   0  0  0  0  0  3  0  0  0  0  0  0
   41.1710   28.2910   41.0440 C   0  0  0  0  0  0  0  0  0  0  0  0
   41.6980   28.6030   40.1580 H   0  0  0  0  0  0  0  0  0  0  0  0
   41.8490   28.3370   42.2030 N   0  0  0  0  0  0  0  0  0  0  0  0
   41.2150   27.9530   43.3240 C   0  0  0  0  0  3  0  0  0  0  0  0
   39.9420   27.5300   43.3240 N   0  0  0  0  0  0  0  0  0  0  0  0
   36.3020   31.1540   40.4930 C   0  0  0  0  0  0  0  0  0  0  0  0
   35.7010   31.1610   39.5520 H   0  0  0  0  0  0  0  0  0  0  0  0
   35.6080   31.7150   41.1790 H   0  0  0  0  0  0  0  0  0  0  0  0
   38.7310   31.3910   40.9070 C   0  0  0  0  0  0  0  0  0  0  0  0
   37.5200   31.9620   40.4580 C   0  0  0  0  0  0  0  0  0  0  0  0
   37.5530   33.2520   39.9620 C   0  0  0  0  0  0  0  0  0  0  0  0
   38.7410   33.8960   39.9290 N   0  0  0  0  0  0  0  0  0  0  0  0
   39.8720   33.3290   40.3570 C   0  0  0  0  0  0  0  0  0  0  0  0
   39.8890   32.0700   40.8520 N   0  0  0  0  0  0  0  0  0  0  0  0
   38.9110   30.4180   41.3270 H   0  0  0  0  0  0  0  0  0  0  0  0
   36.6200   33.6830   39.6230 H   0  0  0  0  0  0  0  0  0  0  0  0
   41.1460   34.1200   40.2700 C   0  0  0  0  0  0  0  0  0  0  0  0
   40.9030   35.2080   40.4560 H   0  0  0  0  0  0  0  0  0  0  0  0
   41.8010   33.8560   41.1260 H   0  0  0  0  0  0  0  0  0  0  0  0
   41.8750   33.9050   39.0310 C   0  0  0  0  0  0  0  0  0  0  0  0
   43.2420   34.0260   38.8600 C   0  0  0  0  0  0  0  0  0  0  0  0
   43.5550   33.7450   37.5570 C   0  0  0  0  0  0  0  0  0  0  0  0
   42.3600   33.4580   36.9650 N   0  0  0  0  0  0  0  0  0  0  0  0
   41.3570   33.5520   37.8360 N   0  0  0  0  0  0  0  0  0  0  0  0
   43.9990   34.2960   39.5930 H   0  0  0  0  0  0  0  0  0  0  0  0
   44.4870   33.7190   36.9980 H   0  0  0  0  0  0  0  0  0  0  0  0
   42.1040   33.1860   35.9810 H   0  0  0  0  0  0  0  0  0  0  0  0
  1  3  1  0  0  0  0
  1  2  1  0  0  0  0
  4 14  1  0  0  0  0
  5  4  1  0  0  0  0
  5  1  1  0  0  0  0
  6  5  2  0  0  0  0
  7  8  2  0  0  0  0
  7  6  1  0  0  0  0
  8  9  1  0  0  0  0
  9 13  1  0  0  0  0
  9  4  2  0  0  0  0
 10  6  1  0  0  0  0
 11  7  1  0  0  0  0
 12  8  1  0  0  0  0
 14 17  1  0  0  0  0
 14 16  2  0  0  0  0
 15 14  2  0  0  0  0
 17 23  1  0  0  0  0
 18 17  2  0  0  0  0
 19 18  1  0  0  0  0
 19 21  2  0  0  0  0
 20 19  1  0  0  0  0
 21 22  1  0  0  0  0
 23 22  2  0  0  0  0
 24  1  1  0  0  0  0
 24 26  1  0  0  0  0
 25 24  1  0  0  0  0
 27 33  1  0  0  0  0
 28 24  1  0  0  0  0
 28 27  2  0  0  0  0
 29 28  1  0  0  0  0
 30 29  2  0  0  0  0
 30 31  1  0  0  0  0
 31 32  2  0  0  0  0
 32 27  1  0  0  0  0
 34 29  1  0  0  0  0
 35 31  1  0  0  0  0
 35 36  1  0  0  0  0
 35 37  1  0  0  0  0
 38 35  1  0  0  0  0
 39 38  1  0  0  0  0
 39 43  1  0  0  0  0
 40 39  2  0  0  0  0
 41 40  1  0  0  0  0
 41 42  1  0  0  0  0
 42 38  2  0  0  0  0
 44 40  1  0  0  0  0
 45 41  1  0  0  0  0
M  END
>  <minimizedAffinity>
-5.81938267

$$$$

 OpenBabel03242522443D

 45 48  0  0  0  0  0  0  0  0999 V2000
   38.6970   27.2190   43.0860 C   0  0  0  0  0  0  0  0  0  0  0  0
   38.8590   26.8670   44.1190 H   0  0  0  0  0  0  0  0  0  0  0  0
   39.5630   27.7210   42.6100 H   0  0  0  0  0  0  0  0  0  0  0  0
   39.3880   25.3640   41.6620 C   0  0  0  0  0  0  0  0  0  0  0  0
   38.3600   26.0060   42.3460 C   0  0  0  0  0  0  0  0  0  0  0  0
   37.0850   25.5770   42.3830 C   0  0  0  0  0  0  0  0  0  0  0  0
   36.7440   24.4290   41.7040 C   0  0  0  0  0  0  0  0  0  0  0  0
   37.6740   23.7210   41.0030 C   0  0  0  0  0  0  0  0  0  0  0  0
   38.9760   24.2010   40.9960 C   0  0  0  0  0  0  0  0  0  0  0  0
   36.2300   25.9580   42.8660 H   0  0  0  0  0  0  0  0  0  0  0  0
   35.7580   23.9700   41.6440 H   0  0  0  0  0  0  0  0  0  0  0  0
   37.5010   22.8040   40.4400 H   0  0  0  0  0  0  0  0  0  0  0  0
   39.7430   23.6540   40.4440 H   0  0  0  0  0  0  0  0  0  0  0  0
   41.0310   25.8270   41.6220 S   0  0  0  0  0  0  0  0  0  0  0  0
   41.7570   24.9910   40.4900 O   0  0  0  0  0  0  0  0  0  0  0  0
   41.7320   25.3810   42.8600 O   0  0  0  0  0  0  0  0  0  0  0  0
   41.4780   27.3710   41.0240 C   0  0  0  0  0  0  0  0  0  0  0  0
   40.7080   27.8010   39.9250 C   0  0  0  0  0  3  0  0  0  0  0  0
   40.8620   28.9980   39.2910 C   0  0  0  0  0  0  0  0  0  0  0  0
   40.2720   29.3260   38.4510 H   0  0  0  0  0  0  0  0  0  0  0  0
   41.8110   29.8400   39.7330 N   0  0  0  0  0  0  0  0  0  0  0  0
   42.5620   29.4560   40.7790 C   0  0  0  0  0  3  0  0  0  0  0  0
   42.3970   28.2740   41.3910 N   0  0  0  0  0  0  0  0  0  0  0  0
   37.5860   28.2150   43.2500 C   0  0  0  0  0  0  0  0  0  0  0  0
   36.5640   27.8090   43.0550 H   0  0  0  0  0  0  0  0  0  0  0  0
   37.4560   28.5890   44.3040 H   0  0  0  0  0  0  0  0  0  0  0  0
   36.9680   29.9800   41.6290 C   0  0  0  0  0  0  0  0  0  0  0  0
   37.9390   29.4050   42.4770 C   0  0  0  0  0  0  0  0  0  0  0  0
   39.1710   30.0240   42.5710 C   0  0  0  0  0  0  0  0  0  0  0  0
   39.3800   31.1480   41.8500 N   0  0  0  0  0  0  0  0  0  0  0  0
   38.4410   31.6730   41.0580 C   0  0  0  0  0  0  0  0  0  0  0  0
   37.2210   31.1020   40.9330 N   0  0  0  0  0  0  0  0  0  0  0  0
   35.9670   29.6510   41.4170 H   0  0  0  0  0  0  0  0  0  0  0  0
   39.9100   29.5740   43.2210 H   0  0  0  0  0  0  0  0  0  0  0  0
   38.7630   32.9320   40.3040 C   0  0  0  0  0  0  0  0  0  0  0  0
   37.8070   33.5150   40.1600 H   0  0  0  0  0  0  0  0  0  0  0  0
   39.3740   33.5980   40.9480 H   0  0  0  0  0  0  0  0  0  0  0  0
   39.4750   32.6920   39.0590 C   0  0  0  0  0  0  0  0  0  0  0  0
   40.7800   33.0610   38.7840 C   0  0  0  0  0  0  0  0  0  0  0  0
   41.0960   32.6640   37.5130 C   0  0  0  0  0  0  0  0  0  0  0  0
   39.9670   32.0590   37.0450 N   0  0  0  0  0  0  0  0  0  0  0  0
   38.9990   32.0730   37.9590 N   0  0  0  0  0  0  0  0  0  0  0  0
   41.4890   33.5810   39.4240 H   0  0  0  0  0  0  0  0  0  0  0  0
   41.9910   32.7470   36.9020 H   0  0  0  0  0  0  0  0  0  0  0  0
   39.7370   31.6020   36.1250 H   0  0  0  0  0  0  0  0  0  0  0  0
  1 24  1  0  0  0  0
  1  2  1  0  0  0  0
  3  1  1  0  0  0  0
  4  5  1  0  0  0  0
  5  6  2  0  0  0  0
  5  1  1  0  0  0  0
  6 10  1  0  0  0  0
  7  6  1  0  0  0  0
  8  7  2  0  0  0  0
  9  8  1  0  0  0  0
  9  4  2  0  0  0  0
 11  7  1  0  0  0  0
 12  8  1  0  0  0  0
 13  9  1  0  0  0  0
 14  4  1  0  0  0  0
 14 16  2  0  0  0  0
 15 14  2  0  0  0  0
 17 23  1  0  0  0  0
 17 14  1  0  0  0  0
 18 17  2  0  0  0  0
 19 21  2  0  0  0  0
 19 18  1  0  0  0  0
 20 19  1  0  0  0  0
 21 22  1  0  0  0  0
 22 23  2  0  0  0  0
 24 26  1  0  0  0  0
 25 24  1  0  0  0  0
 27 28  1  0  0  0  0
 28 29  2  0  0  0  0
 28 24  1  0  0  0  0
 29 34  1  0  0  0  0
 30 29  1  0  0  0  0
 31 30  2  0  0  0  0
 32 31  1  0  0  0  0
 32 27  2  0  0  0  0
 33 27  1  0  0  0  0
 35 37  1  0  0  0  0
 35 31  1  0  0  0  0
 36 35  1  0  0  0  0
 38 35  1  0  0  0  0
 39 38  1  0  0  0  0
 39 43  1  0  0  0  0
 40 39  2  0  0  0  0
 41 40  1  0  0  0  0
 41 42  1  0  0  0  0
 42 38  2  0  0  0  0
 44 40  1  0  0  0  0
 45 41  1  0  0  0  0
M  END
>  <minimizedAffinity>
-5.78484011

$$$$

 OpenBabel03242522443D

 45 48  0  0  0  0  0  0  0  0999 V2000
   36.6520   27.5640   41.7490 C   0  0  0  0  0  0  0  0  0  0  0  0
   36.8480   28.1470   40.8330 H   0  0  0  0  0  0  0  0  0  0  0  0
   35.5830   27.4270   42.0080 H   0  0  0  0  0  0  0  0  0  0  0  0
   37.9600   26.1150   40.2860 C   0  0  0  0  0  0  0  0  0  0  0  0
   37.2680   26.2670   41.4840 C   0  0  0  0  0  0  0  0  0  0  0  0
   37.1410   25.3060   42.4180 C   0  0  0  0  0  0  0  0  0  0  0  0
   37.7240   24.0780   42.1980 C   0  0  0  0  0  0  0  0  0  0  0  0
   38.4260   23.8230   41.0590 C   0  0  0  0  0  0  0  0  0  0  0  0
   38.5310   24.8450   40.1260 C   0  0  0  0  0  0  0  0  0  0  0  0
   36.6630   25.2970   43.3560 H   0  0  0  0  0  0  0  0  0  0  0  0
   37.7010   23.2120   42.8600 H   0  0  0  0  0  0  0  0  0  0  0  0
   38.9230   22.8880   40.7990 H   0  0  0  0  0  0  0  0  0  0  0  0
   39.0890   24.6710   39.2040 H   0  0  0  0  0  0  0  0  0  0  0  0
   38.2000   27.3110   39.0900 S   0  0  0  0  0  0  0  0  0  0  0  0
   38.8340   26.6190   37.8150 O   0  0  0  0  0  0  0  0  0  0  0  0
   39.2660   28.2650   39.5100 O   0  0  0  0  0  0  0  0  0  0  0  0
   36.8570   28.0000   38.2760 C   0  0  0  0  0  0  0  0  0  0  0  0
   35.7580   27.1270   38.1520 C   0  0  0  0  0  3  0  0  0  0  0  0
   34.5720   27.4510   37.5620 C   0  0  0  0  0  0  0  0  0  0  0  0
   33.7320   26.7830   37.4680 H   0  0  0  0  0  0  0  0  0  0  0  0
   34.4250   28.6880   37.0580 N   0  0  0  0  0  0  0  0  0  0  0  0
   35.4570   29.5420   37.1610 C   0  0  0  0  0  3  0  0  0  0  0  0
   36.6170   29.2050   37.7450 N   0  0  0  0  0  0  0  0  0  0  0  0
   37.3080   28.3960   42.8120 C   0  0  0  0  0  0  0  0  0  0  0  0
   36.7020   28.5260   43.7410 H   0  0  0  0  0  0  0  0  0  0  0  0
   38.2420   27.9380   43.2430 H   0  0  0  0  0  0  0  0  0  0  0  0
   39.0540   30.1190   42.4870 C   0  0  0  0  0  0  0  0  0  0  0  0
   37.7610   29.6370   42.1870 C   0  0  0  0  0  0  0  0  0  0  0  0
   36.9980   30.3430   41.2760 C   0  0  0  0  0  0  0  0  0  0  0  0
   37.5290   31.4530   40.7180 N   0  0  0  0  0  0  0  0  0  0  0  0
   38.7580   31.8850   41.0180 C   0  0  0  0  0  0  0  0  0  0  0  0
   39.5410   31.2280   41.9040 N   0  0  0  0  0  0  0  0  0  0  0  0
   39.7890   29.7230   43.1630 H   0  0  0  0  0  0  0  0  0  0  0  0
   36.0070   29.9670   41.0550 H   0  0  0  0  0  0  0  0  0  0  0  0
   39.2660   33.1230   40.3370 C   0  0  0  0  0  0  0  0  0  0  0  0
   38.4210   33.8700   40.2780 H   0  0  0  0  0  0  0  0  0  0  0  0
   40.0040   33.6270   40.9960 H   0  0  0  0  0  0  0  0  0  0  0  0
   39.8830   32.8600   39.0470 C   0  0  0  0  0  0  0  0  0  0  0  0
   41.1950   33.1300   38.7030 C   0  0  0  0  0  0  0  0  0  0  0  0
   41.4040   32.7430   37.4060 C   0  0  0  0  0  0  0  0  0  0  0  0
   40.2040   32.2450   36.9930 N   0  0  0  0  0  0  0  0  0  0  0  0
   39.2940   32.3120   37.9640 N   0  0  0  0  0  0  0  0  0  0  0  0
   41.9810   33.5730   39.3110 H   0  0  0  0  0  0  0  0  0  0  0  0
   42.2670   32.7700   36.7450 H   0  0  0  0  0  0  0  0  0  0  0  0
   39.8850   31.8340   36.0790 H   0  0  0  0  0  0  0  0  0  0  0  0
  1  3  1  0  0  0  0
  1 24  1  0  0  0  0
  2  1  1  0  0  0  0
  4  5  1  0  0  0  0
  5  1  1  0  0  0  0
  5  6  2  0  0  0  0
  6 10  1  0  0  0  0
  7  6  1  0  0  0  0
  7 11  1  0  0  0  0
  8  7  2  0  0  0  0
  9  4  2  0  0  0  0
  9  8  1  0  0  0  0
 12  8  1  0  0  0  0
 13  9  1  0  0  0  0
 14 16  2  0  0  0  0
 14  4  1  0  0  0  0
 15 14  2  0  0  0  0
 17 14  1  0  0  0  0
 18 17  1  0  0  0  0
 19 18  2  0  0  0  0
 20 19  1  0  0  0  0
 21 22  2  0  0  0  0
 21 19  1  0  0  0  0
 22 23  1  0  0  0  0
 23 17  2  0  0  0  0
 24 26  1  0  0  0  0
 24 25  1  0  0  0  0
 27 33  1  0  0  0  0
 28 27  1  0  0  0  0
 28 24  1  0  0  0  0
 29 28  2  0  0  0  0
 30 31  2  0  0  0  0
 30 29  1  0  0  0  0
 31 32  1  0  0  0  0
 32 27  2  0  0  0  0
 34 29  1  0  0  0  0
 35 37  1  0  0  0  0
 35 31  1  0  0  0  0
 36 35  1  0  0  0  0
 38 35  1  0  0  0  0
 39 38  1  0  0  0  0
 39 43  1  0  0  0  0
 40 39  2  0  0  0  0
 41 40  1  0  0  0  0
 41 42  1  0  0  0  0
 42 38  2  0  0  0  0
 44 40  1  0  0  0  0
 45 41  1  0  0  0  0
M  END
>  <minimizedAffinity>
-5.75872183

$$$$

 OpenBabel03242522443D

 45 48  0  0  0  0  0  0  0  0999 V2000
   36.3100   27.0630   39.9460 C   0  0  0  0  0  0  0  0  0  0  0  0
   35.2220   26.8830   39.9200 H   0  0  0  0  0  0  0  0  0  0  0  0
   36.6550   27.7990   40.7000 H   0  0  0  0  0  0  0  0  0  0  0  0
   37.6840   25.6360   41.3680 C   0  0  0  0  0  0  0  0  0  0  0  0
   36.8810   25.7510   40.2370 C   0  0  0  0  0  0  0  0  0  0  0  0
   36.5850   24.7350   39.4060 C   0  0  0  0  0  0  0  0  0  0  0  0
   37.1000   23.4860   39.6660 C   0  0  0  0  0  0  0  0  0  0  0  0
   37.8970   23.2620   40.7480 C   0  0  0  0  0  0  0  0  0  0  0  0
   38.1730   24.3390   41.5770 C   0  0  0  0  0  0  0  0  0  0  0  0
   35.9890   24.6890   38.5390 H   0  0  0  0  0  0  0  0  0  0  0  0
   36.9480   22.5780   39.0810 H   0  0  0  0  0  0  0  0  0  0  0  0
   38.3480   22.3110   41.0360 H   0  0  0  0  0  0  0  0  0  0  0  0
   38.8080   24.1900   42.4530 H   0  0  0  0  0  0  0  0  0  0  0  0
   38.0520   26.8720   42.4880 S   0  0  0  0  0  0  0  0  0  0  0  0
   39.1900   26.3470   43.4540 O   0  0  0  0  0  0  0  0  0  0  0  0
   36.9070   27.0930   43.4190 O   0  0  0  0  0  0  0  0  0  0  0  0
   38.8820   28.2820   41.9760 C   0  0  0  0  0  0  0  0  0  0  0  0
   38.7740   29.3640   42.8740 C   0  0  0  0  0  3  0  0  0  0  0  0
   39.3610   30.5810   42.6950 C   0  0  0  0  0  0  0  0  0  0  0  0
   39.2790   31.4070   43.3820 H   0  0  0  0  0  0  0  0  0  0  0  0
   40.0990   30.7810   41.5900 N   0  0  0  0  0  0  0  0  0  0  0  0
   40.2180   29.7680   40.7150 C   0  0  0  0  0  3  0  0  0  0  0  0
   39.6330   28.5770   40.9070 N   0  0  0  0  0  0  0  0  0  0  0  0
   36.5840   27.6070   38.5740 C   0  0  0  0  0  0  0  0  0  0  0  0
   37.3840   27.0670   38.0110 H   0  0  0  0  0  0  0  0  0  0  0  0
   35.7240   27.4980   37.8560 H   0  0  0  0  0  0  0  0  0  0  0  0
   36.2710   29.7100   39.8410 C   0  0  0  0  0  0  0  0  0  0  0  0
   36.7800   29.0510   38.7000 C   0  0  0  0  0  0  0  0  0  0  0  0
   37.4810   29.7980   37.7740 C   0  0  0  0  0  0  0  0  0  0  0  0
   37.6480   31.1190   38.0090 N   0  0  0  0  0  0  0  0  0  0  0  0
   37.1580   31.7170   39.0990 C   0  0  0  0  0  0  0  0  0  0  0  0
   36.4640   31.0260   40.0330 N   0  0  0  0  0  0  0  0  0  0  0  0
   35.7020   29.3130   40.6610 H   0  0  0  0  0  0  0  0  0  0  0  0
   37.8650   29.2850   36.9020 H   0  0  0  0  0  0  0  0  0  0  0  0
   37.4040   33.1870   39.2790 C   0  0  0  0  0  0  0  0  0  0  0  0
   37.1690   33.7100   38.3050 H   0  0  0  0  0  0  0  0  0  0  0  0
   36.6480   33.6020   39.9790 H   0  0  0  0  0  0  0  0  0  0  0  0
   38.7340   33.4930   39.7810 C   0  0  0  0  0  0  0  0  0  0  0  0
   39.9260   33.2620   39.1180 C   0  0  0  0  0  0  0  0  0  0  0  0
   40.9630   33.6820   39.9070 C   0  0  0  0  0  0  0  0  0  0  0  0
   40.3690   34.1600   41.0380 N   0  0  0  0  0  0  0  0  0  0  0  0
   39.0440   34.0500   40.9700 N   0  0  0  0  0  0  0  0  0  0  0  0
   40.0840   32.8260   38.1350 H   0  0  0  0  0  0  0  0  0  0  0  0
   42.0430   33.6910   39.7850 H   0  0  0  0  0  0  0  0  0  0  0  0
   40.7600   34.5840   41.9190 H   0  0  0  0  0  0  0  0  0  0  0  0
  1  5  1  0  0  0  0
  1  3  1  0  0  0  0
  2  1  1  0  0  0  0
  4  9  1  0  0  0  0
  4 14  1  0  0  0  0
  5  4  2  0  0  0  0
  6  7  2  0  0  0  0
  6  5  1  0  0  0  0
  7  8  1  0  0  0  0
  8 12  1  0  0  0  0
  8  9  2  0  0  0  0
  9 13  1  0  0  0  0
 10  6  1  0  0  0  0
 11  7  1  0  0  0  0
 14 16  2  0  0  0  0
 14 15  2  0  0  0  0
 17 14  1  0  0  0  0
 17 18  1  0  0  0  0
 19 18  2  0  0  0  0
 19 20  1  0  0  0  0
 21 19  1  0  0  0  0
 22 23  1  0  0  0  0
 22 21  2  0  0  0  0
 23 17  2  0  0  0  0
 24 28  1  0  0  0  0
 24  1  1  0  0  0  0
 25 24  1  0  0  0  0
 26 24  1  0  0  0  0
 27 32  1  0  0  0  0
 27 33  1  0  0  0  0
 28 27  2  0  0  0  0
 29 30  2  0  0  0  0
 29 28  1  0  0  0  0
 30 31  1  0  0  0  0
 31 35  1  0  0  0  0
 31 32  2  0  0  0  0
 34 29  1  0  0  0  0
 35 38  1  0  0  0  0
 35 37  1  0  0  0  0
 36 35  1  0  0  0  0
 38 42  2  0  0  0  0
 39 38  1  0  0  0  0
 39 40  2  0  0  0  0
 40 41  1  0  0  0  0
 41 45  1  0  0  0  0
 42 41  1  0  0  0  0
 43 39  1  0  0  0  0
 44 40  1  0  0  0  0
M  END
>  <minimizedAffinity>
-5.69900703

$$$$

 OpenBabel03242522443D

 45 48  0  0  0  0  0  0  0  0999 V2000
   37.1430   28.5660   41.6920 C   0  0  0  0  0  0  0  0  0  0  0  0
   37.6540   28.9770   40.8040 H   0  0  0  0  0  0  0  0  0  0  0  0
   36.1450   28.9940   41.9110 H   0  0  0  0  0  0  0  0  0  0  0  0
   36.5840   26.7790   40.1290 C   0  0  0  0  0  0  0  0  0  0  0  0
   37.0180   27.1400   41.4020 C   0  0  0  0  0  0  0  0  0  0  0  0
   37.3410   26.2670   42.3740 C   0  0  0  0  0  0  0  0  0  0  0  0
   37.2430   24.9170   42.1210 C   0  0  0  0  0  0  0  0  0  0  0  0
   36.8310   24.4540   40.9070 C   0  0  0  0  0  0  0  0  0  0  0  0
   36.5100   25.3920   39.9370 C   0  0  0  0  0  0  0  0  0  0  0  0
   37.6890   26.4090   43.3570 H   0  0  0  0  0  0  0  0  0  0  0  0
   37.4670   24.1030   42.8090 H   0  0  0  0  0  0  0  0  0  0  0  0
   36.7250   23.4090   40.6140 H   0  0  0  0  0  0  0  0  0  0  0  0
   36.1780   25.0510   38.9540 H   0  0  0  0  0  0  0  0  0  0  0  0
   36.2110   27.8360   38.8410 S   0  0  0  0  0  0  0  0  0  0  0  0
   35.0530   28.8060   39.3120 O   0  0  0  0  0  0  0  0  0  0  0  0
   35.5770   27.0880   37.7170 O   0  0  0  0  0  0  0  0  0  0  0  0
   37.3130   29.0700   38.3900 C   0  0  0  0  0  0  0  0  0  0  0  0
   36.7270   30.3480   38.2900 C   0  0  0  0  0  3  0  0  0  0  0  0
   37.4010   31.4870   37.9660 C   0  0  0  0  0  0  0  0  0  0  0  0
   36.9520   32.4640   37.8900 H   0  0  0  0  0  0  0  0  0  0  0  0
   38.7200   31.4040   37.7220 N   0  0  0  0  0  0  0  0  0  0  0  0
   39.3060   30.1980   37.8090 C   0  0  0  0  0  3  0  0  0  0  0  0
   38.6260   29.0870   38.1290 N   0  0  0  0  0  0  0  0  0  0  0  0
   38.0830   28.9270   42.8060 C   0  0  0  0  0  0  0  0  0  0  0  0
   37.5850   29.1620   43.7770 H   0  0  0  0  0  0  0  0  0  0  0  0
   38.7610   28.0870   43.1250 H   0  0  0  0  0  0  0  0  0  0  0  0
   40.3700   29.8400   42.5630 C   0  0  0  0  0  0  0  0  0  0  0  0
   38.9880   29.9610   42.3040 C   0  0  0  0  0  0  0  0  0  0  0  0
   38.5570   31.0330   41.5460 C   0  0  0  0  0  0  0  0  0  0  0  0
   39.4820   31.9070   41.0900 N   0  0  0  0  0  0  0  0  0  0  0  0
   40.7850   31.7670   41.3470 C   0  0  0  0  0  0  0  0  0  0  0  0
   41.2540   30.7340   42.0850 N   0  0  0  0  0  0  0  0  0  0  0  0
   40.8960   29.0930   43.1290 H   0  0  0  0  0  0  0  0  0  0  0  0
   37.4950   31.1190   41.3560 H   0  0  0  0  0  0  0  0  0  0  0  0
   41.7380   32.7840   40.7870 C   0  0  0  0  0  0  0  0  0  0  0  0
   41.4940   33.7890   41.2410 H   0  0  0  0  0  0  0  0  0  0  0  0
   42.7610   32.5750   41.1640 H   0  0  0  0  0  0  0  0  0  0  0  0
   41.7640   32.8100   39.3330 C   0  0  0  0  0  0  0  0  0  0  0  0
   42.4960   31.9660   38.5180 C   0  0  0  0  0  0  0  0  0  0  0  0
   42.2620   32.2960   37.2100 C   0  0  0  0  0  0  0  0  0  0  0  0
   41.3870   33.3410   37.2650 N   0  0  0  0  0  0  0  0  0  0  0  0
   41.0870   33.6520   38.5250 N   0  0  0  0  0  0  0  0  0  0  0  0
   43.1640   31.1560   38.8010 H   0  0  0  0  0  0  0  0  0  0  0  0
   42.6200   31.9040   36.2620 H   0  0  0  0  0  0  0  0  0  0  0  0
   40.9260   33.9190   36.5160 H   0  0  0  0  0  0  0  0  0  0  0  0
  1  3  1  0  0  0  0
  1 24  1  0  0  0  0
  2  1  1  0  0  0  0
  4  5  1  0  0  0  0
  5  1  1  0  0  0  0
  5  6  2  0  0  0  0
  6 10  1  0  0  0  0
  7  6  1  0  0  0  0
  7 11  1  0  0  0  0
  8  7  2  0  0  0  0
  9  4  2  0  0  0  0
  9  8  1  0  0  0  0
 12  8  1  0  0  0  0
 13  9  1  0  0  0  0
 14 15  2  0  0  0  0
 14  4  1  0  0  0  0
 16 14  2  0  0  0  0
 17 14  1  0  0  0  0
 18 17  1  0  0  0  0
 19 18  2  0  0  0  0
 20 19  1  0  0  0  0
 21 22  2  0  0  0  0
 21 19  1  0  0  0  0
 22 23  1  0  0  0  0
 23 17  2  0  0  0  0
 24 26  1  0  0  0  0
 24 25  1  0  0  0  0
 27 33  1  0  0  0  0
 28 27  1  0  0  0  0
 28 24  1  0  0  0  0
 29 28  2  0  0  0  0
 30 31  2  0  0  0  0
 30 29  1  0  0  0  0
 31 32  1  0  0  0  0
 32 27  2  0  0  0  0
 34 29  1  0  0  0  0
 35 37  1  0  0  0  0
 35 36  1  0  0  0  0
 35 31  1  0  0  0  0
 38 35  1  0  0  0  0
 39 43  1  0  0  0  0
 39 38  1  0  0  0  0
 40 41  1  0  0  0  0
 40 39  2  0  0  0  0
 41 42  1  0  0  0  0
 42 38  2  0  0  0  0
 44 40  1  0  0  0  0
 45 41  1  0  0  0  0
M  END
>  <minimizedAffinity>
-5.69107246

$$$$

 OpenBabel03242522443D

 45 48  0  0  0  0  0  0  0  0999 V2000
   37.7650   30.1090   38.8080 C   0  0  0  0  0  0  0  0  0  0  0  0
   37.4230   30.2610   37.7690 H   0  0  0  0  0  0  0  0  0  0  0  0
   38.7200   29.5590   38.9210 H   0  0  0  0  0  0  0  0  0  0  0  0
   38.8020   31.6530   40.3860 C   0  0  0  0  0  0  0  0  0  0  0  0
   37.9070   31.4630   39.3360 C   0  0  0  0  0  0  0  0  0  0  0  0
   37.1790   32.4420   38.7690 C   0  0  0  0  0  0  0  0  0  0  0  0
   37.3060   33.7290   39.2410 C   0  0  0  0  0  0  0  0  0  0  0  0
   38.1540   34.0260   40.2640 C   0  0  0  0  0  0  0  0  0  0  0  0
   38.8850   32.9840   40.8160 C   0  0  0  0  0  0  0  0  0  0  0  0
   36.4890   32.4330   37.9740 H   0  0  0  0  0  0  0  0  0  0  0  0
   36.7800   34.6150   38.8820 H   0  0  0  0  0  0  0  0  0  0  0  0
   38.3230   35.0110   40.7020 H   0  0  0  0  0  0  0  0  0  0  0  0
   39.5750   33.1920   41.6370 H   0  0  0  0  0  0  0  0  0  0  0  0
   39.7900   30.4630   41.1110 S   0  0  0  0  0  0  0  0  0  0  0  0
   40.6640   31.1580   42.2320 O   0  0  0  0  0  0  0  0  0  0  0  0
   40.8190   29.9790   40.1450 O   0  0  0  0  0  0  0  0  0  0  0  0
   39.0990   29.2690   42.1290 C   0  0  0  0  0  0  0  0  0  0  0  0
   39.8060   28.0500   42.1370 C   0  0  0  0  0  3  0  0  0  0  0  0
   39.4640   26.9600   42.8810 C   0  0  0  0  0  0  0  0  0  0  0  0
   40.0050   26.0280   42.8870 H   0  0  0  0  0  0  0  0  0  0  0  0
   38.3770   27.0360   43.6680 N   0  0  0  0  0  0  0  0  0  0  0  0
   37.6830   28.1870   43.6800 C   0  0  0  0  0  3  0  0  0  0  0  0
   38.0350   29.2500   42.9410 N   0  0  0  0  0  0  0  0  0  0  0  0
   36.6560   29.2890   39.4000 C   0  0  0  0  0  0  0  0  0  0  0  0
   36.9860   28.3280   39.8660 H   0  0  0  0  0  0  0  0  0  0  0  0
   36.1440   29.7730   40.2780 H   0  0  0  0  0  0  0  0  0  0  0  0
   34.2760   28.9610   38.8060 C   0  0  0  0  0  0  0  0  0  0  0  0
   35.6100   29.1600   38.3870 C   0  0  0  0  0  0  0  0  0  0  0  0
   35.8580   29.2690   37.0320 C   0  0  0  0  0  0  0  0  0  0  0  0
   34.8120   29.1850   36.1800 N   0  0  0  0  0  0  0  0  0  0  0  0
   33.5590   29.0000   36.6040 C   0  0  0  0  0  0  0  0  0  0  0  0
   33.2670   28.8850   37.9210 N   0  0  0  0  0  0  0  0  0  0  0  0
   33.8840   28.8470   39.8000 H   0  0  0  0  0  0  0  0  0  0  0  0
   36.8830   29.4190   36.7200 H   0  0  0  0  0  0  0  0  0  0  0  0
   32.4610   28.9290   35.5820 C   0  0  0  0  0  0  0  0  0  0  0  0
   32.8760   28.4560   34.6440 H   0  0  0  0  0  0  0  0  0  0  0  0
   31.6940   28.1990   35.9170 H   0  0  0  0  0  0  0  0  0  0  0  0
   31.8200   30.2110   35.3350 C   0  0  0  0  0  0  0  0  0  0  0  0
   30.9610   30.8700   36.1960 C   0  0  0  0  0  0  0  0  0  0  0  0
   30.5640   32.0450   35.6150 C   0  0  0  0  0  0  0  0  0  0  0  0
   31.1980   32.0690   34.4080 N   0  0  0  0  0  0  0  0  0  0  0  0
   31.9460   30.9810   34.2340 N   0  0  0  0  0  0  0  0  0  0  0  0
   30.6160   30.5630   37.1800 H   0  0  0  0  0  0  0  0  0  0  0  0
   29.9080   32.8530   35.9300 H   0  0  0  0  0  0  0  0  0  0  0  0
   31.1990   32.7690   33.6220 H   0  0  0  0  0  0  0  0  0  0  0  0
  1  3  1  0  0  0  0
  1  5  1  0  0  0  0
  1 24  1  0  0  0  0
  2  1  1  0  0  0  0
  4  9  1  0  0  0  0
  4 14  1  0  0  0  0
  5  4  2  0  0  0  0
  6  7  2  0  0  0  0
  6  5  1  0  0  0  0
  7  8  1  0  0  0  0
  8 12  1  0  0  0  0
  8  9  2  0  0  0  0
  9 13  1  0  0  0  0
 10  6  1  0  0  0  0
 11  7  1  0  0  0  0
 14 17  1  0  0  0  0
 14 15  2  0  0  0  0
 16 14  2  0  0  0  0
 17 18  2  0  0  0  0
 17 23  1  0  0  0  0
 18 19  1  0  0  0  0
 19 20  1  0  0  0  0
 19 21  2  0  0  0  0
 21 22  1  0  0  0  0
 23 22  2  0  0  0  0
 24 25  1  0  0  0  0
 24 26  1  0  0  0  0
 27 33  1  0  0  0  0
 28 27  1  0  0  0  0
 28 24  1  0  0  0  0
 29 28  2  0  0  0  0
 30 31  2  0  0  0  0
 30 29  1  0  0  0  0
 31 32  1  0  0  0  0
 32 27  2  0  0  0  0
 34 29  1  0  0  0  0
 35 37  1  0  0  0  0
 35 31  1  0  0  0  0
 36 35  1  0  0  0  0
 38 35  1  0  0  0  0
 38 39  1  0  0  0  0
 39 43  1  0  0  0  0
 40 44  1  0  0  0  0
 40 39  2  0  0  0  0
 41 40  1  0  0  0  0
 42 41  1  0  0  0  0
 42 38  2  0  0  0  0
 45 41  1  0  0  0  0
M  END
>  <minimizedAffinity>
-5.57402897

$$$$
