
 OpenBabel03242520113D

 27 29  0  0  0  0  0  0  0  0999 V2000
   39.3090   32.4700   40.0240 C   0  0  0  0  0  0  0  0  0  0  0  0
   38.1360   33.0310   39.6380 C   0  0  0  0  0  0  0  0  0  0  0  0
   36.9370   32.4540   39.9830 C   0  0  0  0  0  0  0  0  0  0  0  0
   36.9320   31.2880   40.7330 C   0  0  0  0  0  0  0  0  0  0  0  0
   38.1350   30.7380   41.1140 C   0  0  0  0  0  0  0  0  0  0  0  0
   39.2530   31.3290   40.7580 N   0  0  0  0  0  0  0  0  0  0  0  0
   38.2030   33.9440   39.0510 H   0  0  0  0  0  0  0  0  0  0  0  0
   36.0300   32.9550   39.6400 H   0  0  0  0  0  0  0  0  0  0  0  0
   36.0010   30.8460   40.9970 H   0  0  0  0  0  0  0  0  0  0  0  0
   42.1230   33.8310   38.1340 C   0  0  0  0  0  0  0  0  0  0  0  0
   43.0740   34.0610   39.1510 C   0  0  0  0  0  0  0  0  0  0  0  0
   42.7400   33.7460   40.4710 C   0  0  0  0  0  0  0  0  0  0  0  0
   41.4990   33.2340   40.6720 N   0  0  0  0  0  0  0  0  0  0  0  0
   40.6100   33.0230   39.6970 C   0  0  0  0  0  0  0  0  0  0  0  0
   40.9240   33.3230   38.4250 N   0  0  0  0  0  0  0  0  0  0  0  0
   42.4720   34.1530   36.7950 N   0  0  0  0  0  0  0  0  0  0  0  0
   44.0560   34.4750   38.9190 H   0  0  0  0  0  0  0  0  0  0  0  0
   43.4160   33.8960   41.2870 H   0  0  0  0  0  0  0  0  0  0  0  0
   43.2940   33.9150   36.2180 H   0  0  0  0  0  0  0  0  0  0  0  0
   41.7270   34.7490   36.3390 H   0  0  0  0  0  0  0  0  0  0  0  0
   38.1600   29.5110   41.9040 C   0  0  0  0  0  0  0  0  0  0  0  0
   37.0120   28.7580   42.0450 C   0  0  0  0  0  3  0  0  0  0  0  0
   36.9950   27.5770   42.7930 C   0  0  0  0  0  0  0  0  0  0  0  0
   36.1260   26.9680   42.9250 H   0  0  0  0  0  0  0  0  0  0  0  0
   38.1550   27.2040   43.3740 N   0  0  0  0  0  0  0  0  0  0  0  0
   39.2930   27.9330   43.2460 C   0  0  0  0  0  3  0  0  0  0  0  0
   39.2550   29.0490   42.5230 N   0  0  0  0  0  0  0  0  0  0  0  0
  1  6  1  0  0  0  0
  2  3  1  0  0  0  0
  2  1  2  0  0  0  0
  3  4  2  0  0  0  0
  4  9  1  0  0  0  0
  4  5  1  0  0  0  0
  5 21  1  0  0  0  0
  6  5  2  0  0  0  0
  7  2  1  0  0  0  0
  8  3  1  0  0  0  0
 10 15  2  0  0  0  0
 10 11  1  0  0  0  0
 11 12  2  0  0  0  0
 12 13  1  0  0  0  0
 12 18  1  0  0  0  0
 14  1  1  0  0  0  0
 14 13  2  0  0  0  0
 15 14  1  0  0  0  0
 16 10  1  0  0  0  0
 17 11  1  0  0  0  0
 19 16  1  0  0  0  0
 20 16  1  0  0  0  0
 21 22  2  0  0  0  0
 21 27  1  0  0  0  0
 22 23  1  0  0  0  0
 23 24  1  0  0  0  0
 23 25  2  0  0  0  0
 26 25  1  0  0  0  0
 27 26  2  0  0  0  0
M  END
>  <minimizedAffinity>
-5.65136433

$$$$

 OpenBabel03242520113D

 27 29  0  0  0  0  0  0  0  0999 V2000
   37.5080   28.3610   41.5870 C   0  0  0  0  0  0  0  0  0  0  0  0
   36.1990   28.2670   41.2430 C   0  0  0  0  0  0  0  0  0  0  0  0
   35.5450   29.3360   40.6790 C   0  0  0  0  0  0  0  0  0  0  0  0
   36.2340   30.5200   40.4620 C   0  0  0  0  0  0  0  0  0  0  0  0
   37.5610   30.5910   40.8200 C   0  0  0  0  0  0  0  0  0  0  0  0
   38.1400   29.5410   41.3550 N   0  0  0  0  0  0  0  0  0  0  0  0
   35.7130   27.3140   41.4370 H   0  0  0  0  0  0  0  0  0  0  0  0
   34.4940   29.1950   40.4250 H   0  0  0  0  0  0  0  0  0  0  0  0
   35.7230   31.3440   40.0250 H   0  0  0  0  0  0  0  0  0  0  0  0
   38.6900   25.0060   42.4180 C   0  0  0  0  0  0  0  0  0  0  0  0
   39.7170   25.2800   43.3470 C   0  0  0  0  0  0  0  0  0  0  0  0
   39.9900   26.6090   43.6780 C   0  0  0  0  0  0  0  0  0  0  0  0
   39.2290   27.5510   43.0640 N   0  0  0  0  0  0  0  0  0  0  0  0
   38.2620   27.2750   42.1860 C   0  0  0  0  0  0  0  0  0  0  0  0
   37.9920   25.9980   41.8620 N   0  0  0  0  0  0  0  0  0  0  0  0
   38.4190   23.6510   42.0880 N   0  0  0  0  0  0  0  0  0  0  0  0
   40.2900   24.4730   43.8050 H   0  0  0  0  0  0  0  0  0  0  0  0
   40.7550   26.8840   44.3750 H   0  0  0  0  0  0  0  0  0  0  0  0
   38.2480   22.8180   42.6730 H   0  0  0  0  0  0  0  0  0  0  0  0
   38.3960   23.5100   41.0400 H   0  0  0  0  0  0  0  0  0  0  0  0
   38.3110   31.8250   40.6040 C   0  0  0  0  0  0  0  0  0  0  0  0
   37.6600   32.9600   40.1640 C   0  0  0  0  0  3  0  0  0  0  0  0
   38.3420   34.1610   39.9450 C   0  0  0  0  0  0  0  0  0  0  0  0
   37.8720   35.0590   39.6060 H   0  0  0  0  0  0  0  0  0  0  0  0
   39.6710   34.1610   40.1840 N   0  0  0  0  0  0  0  0  0  0  0  0
   40.3270   33.0540   40.6160 C   0  0  0  0  0  3  0  0  0  0  0  0
   39.6300   31.9370   40.8090 N   0  0  0  0  0  0  0  0  0  0  0  0
  1 14  1  0  0  0  0
  2  7  1  0  0  0  0
  2  1  2  0  0  0  0
  3  2  1  0  0  0  0
  4  3  2  0  0  0  0
  4  5  1  0  0  0  0
  5  6  2  0  0  0  0
  6  1  1  0  0  0  0
  8  3  1  0  0  0  0
  9  4  1  0  0  0  0
 10 11  1  0  0  0  0
 11 12  2  0  0  0  0
 11 17  1  0  0  0  0
 12 18  1  0  0  0  0
 13 12  1  0  0  0  0
 14 13  2  0  0  0  0
 15 14  1  0  0  0  0
 15 10  2  0  0  0  0
 16 10  1  0  0  0  0
 16 19  1  0  0  0  0
 20 16  1  0  0  0  0
 21 27  1  0  0  0  0
 21  5  1  0  0  0  0
 22 21  2  0  0  0  0
 23 22  1  0  0  0  0
 23 25  2  0  0  0  0
 24 23  1  0  0  0  0
 25 26  1  0  0  0  0
 26 27  2  0  0  0  0
M  END
>  <minimizedAffinity>
-5.64553452

$$$$

 OpenBabel03242520113D

 27 29  0  0  0  0  0  0  0  0999 V2000
   37.3360   30.4430   40.8390 C   0  0  0  0  0  0  0  0  0  0  0  0
   36.0420   30.2210   40.4960 C   0  0  0  0  0  0  0  0  0  0  0  0
   35.4600   28.9970   40.7140 C   0  0  0  0  0  0  0  0  0  0  0  0
   36.2060   27.9790   41.2900 C   0  0  0  0  0  0  0  0  0  0  0  0
   37.5170   28.2280   41.6300 C   0  0  0  0  0  0  0  0  0  0  0  0
   38.0260   29.4160   41.4010 N   0  0  0  0  0  0  0  0  0  0  0  0
   35.5080   31.0570   40.0490 H   0  0  0  0  0  0  0  0  0  0  0  0
   34.4170   28.8840   40.4160 H   0  0  0  0  0  0  0  0  0  0  0  0
   35.7500   27.0330   41.4570 H   0  0  0  0  0  0  0  0  0  0  0  0
   39.9220   33.0220   40.7980 C   0  0  0  0  0  0  0  0  0  0  0  0
   39.2330   34.1180   40.2360 C   0  0  0  0  0  0  0  0  0  0  0  0
   37.8910   33.9600   39.8780 C   0  0  0  0  0  0  0  0  0  0  0  0
   37.3480   32.7370   40.1060 N   0  0  0  0  0  0  0  0  0  0  0  0
   38.0150   31.7090   40.6390 C   0  0  0  0  0  0  0  0  0  0  0  0
   39.3060   31.8540   40.9860 N   0  0  0  0  0  0  0  0  0  0  0  0
   41.2860   33.1930   41.1590 N   0  0  0  0  0  0  0  0  0  0  0  0
   39.7310   35.0760   40.0800 H   0  0  0  0  0  0  0  0  0  0  0  0
   37.3120   34.7510   39.4480 H   0  0  0  0  0  0  0  0  0  0  0  0
   41.7670   33.9130   41.7210 H   0  0  0  0  0  0  0  0  0  0  0  0
   41.8860   32.4200   40.7590 H   0  0  0  0  0  0  0  0  0  0  0  0
   38.3250   27.1760   42.2380 C   0  0  0  0  0  0  0  0  0  0  0  0
   39.3700   27.5060   43.0770 C   0  0  0  0  0  3  0  0  0  0  0  0
   40.1680   26.5280   43.6790 C   0  0  0  0  0  0  0  0  0  0  0  0
   40.9840   26.7460   44.3340 H   0  0  0  0  0  0  0  0  0  0  0  0
   39.8700   25.2410   43.4020 N   0  0  0  0  0  0  0  0  0  0  0  0
   38.8470   24.8980   42.5790 C   0  0  0  0  0  3  0  0  0  0  0  0
   38.1190   25.8680   42.0320 N   0  0  0  0  0  0  0  0  0  0  0  0
  1  6  1  0  0  0  0
  2  3  1  0  0  0  0
  2  1  2  0  0  0  0
  3  4  2  0  0  0  0
  4  9  1  0  0  0  0
  4  5  1  0  0  0  0
  5 21  1  0  0  0  0
  6  5  2  0  0  0  0
  7  2  1  0  0  0  0
  8  3  1  0  0  0  0
 10 15  1  0  0  0  0
 10 16  1  0  0  0  0
 11 10  2  0  0  0  0
 12 13  2  0  0  0  0
 12 11  1  0  0  0  0
 13 14  1  0  0  0  0
 14  1  1  0  0  0  0
 14 15  2  0  0  0  0
 16 19  1  0  0  0  0
 17 11  1  0  0  0  0
 18 12  1  0  0  0  0
 20 16  1  0  0  0  0
 21 22  1  0  0  0  0
 22 23  2  0  0  0  0
 23 24  1  0  0  0  0
 25 23  1  0  0  0  0
 26 25  2  0  0  0  0
 27 21  2  0  0  0  0
 27 26  1  0  0  0  0
M  END
>  <minimizedAffinity>
-5.53152275

$$$$

 OpenBabel03242520113D

 27 29  0  0  0  0  0  0  0  0999 V2000
   37.8730   29.3380   41.7340 C   0  0  0  0  0  0  0  0  0  0  0  0
   37.7370   29.2640   43.0820 C   0  0  0  0  0  0  0  0  0  0  0  0
   37.3030   28.1050   43.6800 C   0  0  0  0  0  0  0  0  0  0  0  0
   37.0020   27.0030   42.8930 C   0  0  0  0  0  0  0  0  0  0  0  0
   37.1480   27.1020   41.5280 C   0  0  0  0  0  0  0  0  0  0  0  0
   37.5670   28.2320   41.0070 N   0  0  0  0  0  0  0  0  0  0  0  0
   37.9880   30.1600   43.6460 H   0  0  0  0  0  0  0  0  0  0  0  0
   37.2150   28.1120   44.7670 H   0  0  0  0  0  0  0  0  0  0  0  0
   36.6670   26.1090   43.3610 H   0  0  0  0  0  0  0  0  0  0  0  0
   37.8960   32.6190   40.1300 C   0  0  0  0  0  0  0  0  0  0  0  0
   39.2420   32.7340   39.7200 C   0  0  0  0  0  0  0  0  0  0  0  0
   40.1240   31.6870   39.9980 C   0  0  0  0  0  0  0  0  0  0  0  0
   39.6030   30.6190   40.6550 N   0  0  0  0  0  0  0  0  0  0  0  0
   38.3260   30.5260   41.0360 C   0  0  0  0  0  0  0  0  0  0  0  0
   37.4710   31.5300   40.7720 N   0  0  0  0  0  0  0  0  0  0  0  0
   37.0070   33.6890   39.8420 N   0  0  0  0  0  0  0  0  0  0  0  0
   39.5950   33.6220   39.1940 H   0  0  0  0  0  0  0  0  0  0  0  0
   41.1560   31.7120   39.7150 H   0  0  0  0  0  0  0  0  0  0  0  0
   36.8020   34.2020   38.9700 H   0  0  0  0  0  0  0  0  0  0  0  0
   36.4740   33.9860   40.7060 H   0  0  0  0  0  0  0  0  0  0  0  0
   36.8390   25.9590   40.6750 C   0  0  0  0  0  0  0  0  0  0  0  0
   36.8890   24.6800   41.1910 C   0  0  0  0  0  3  0  0  0  0  0  0
   36.5990   23.5580   40.4080 C   0  0  0  0  0  0  0  0  0  0  0  0
   36.6270   22.5540   40.7720 H   0  0  0  0  0  0  0  0  0  0  0  0
   36.2670   23.7830   39.1180 N   0  0  0  0  0  0  0  0  0  0  0  0
   36.2130   25.0340   38.5950 C   0  0  0  0  0  3  0  0  0  0  0  0
   36.4980   26.0660   39.3840 N   0  0  0  0  0  0  0  0  0  0  0  0
  1  2  1  0  0  0  0
  2  7  1  0  0  0  0
  2  3  2  0  0  0  0
  3  8  1  0  0  0  0
  4  9  1  0  0  0  0
  4  3  1  0  0  0  0
  5  4  2  0  0  0  0
  6  5  1  0  0  0  0
  6  1  2  0  0  0  0
 10 15  1  0  0  0  0
 11 12  1  0  0  0  0
 11 10  2  0  0  0  0
 12 13  2  0  0  0  0
 13 14  1  0  0  0  0
 14  1  1  0  0  0  0
 15 14  2  0  0  0  0
 16 10  1  0  0  0  0
 16 20  1  0  0  0  0
 17 11  1  0  0  0  0
 18 12  1  0  0  0  0
 19 16  1  0  0  0  0
 21 22  1  0  0  0  0
 21  5  1  0  0  0  0
 23 24  1  0  0  0  0
 23 22  2  0  0  0  0
 25 23  1  0  0  0  0
 26 25  2  0  0  0  0
 26 27  1  0  0  0  0
 27 21  2  0  0  0  0
M  END
>  <minimizedAffinity>
-5.47858047

$$$$

 OpenBabel03242520113D

 27 29  0  0  0  0  0  0  0  0999 V2000
   37.2890   29.1120   41.2080 C   0  0  0  0  0  0  0  0  0  0  0  0
   37.3400   29.2570   42.5560 C   0  0  0  0  0  0  0  0  0  0  0  0
   37.3010   28.1590   43.3810 C   0  0  0  0  0  0  0  0  0  0  0  0
   37.2090   26.8920   42.8250 C   0  0  0  0  0  0  0  0  0  0  0  0
   37.1590   26.7700   41.4550 C   0  0  0  0  0  0  0  0  0  0  0  0
   37.2000   27.8510   40.7110 N   0  0  0  0  0  0  0  0  0  0  0  0
   37.4120   30.2750   42.9330 H   0  0  0  0  0  0  0  0  0  0  0  0
   37.3460   28.3440   44.4550 H   0  0  0  0  0  0  0  0  0  0  0  0
   37.1800   26.0450   43.4680 H   0  0  0  0  0  0  0  0  0  0  0  0
   37.5090   31.0380   38.1120 C   0  0  0  0  0  0  0  0  0  0  0  0
   37.3870   32.3630   38.5830 C   0  0  0  0  0  0  0  0  0  0  0  0
   37.2320   32.5800   39.9550 C   0  0  0  0  0  0  0  0  0  0  0  0
   37.2100   31.4730   40.7400 N   0  0  0  0  0  0  0  0  0  0  0  0
   37.3260   30.2250   40.2780 C   0  0  0  0  0  0  0  0  0  0  0  0
   37.4760   30.0080   38.9600 N   0  0  0  0  0  0  0  0  0  0  0  0
   37.6680   30.8270   36.7160 N   0  0  0  0  0  0  0  0  0  0  0  0
   37.4140   33.2090   37.8950 H   0  0  0  0  0  0  0  0  0  0  0  0
   37.1340   33.5590   40.3760 H   0  0  0  0  0  0  0  0  0  0  0  0
   38.3130   31.2390   36.0240 H   0  0  0  0  0  0  0  0  0  0  0  0
   36.9790   30.1100   36.3570 H   0  0  0  0  0  0  0  0  0  0  0  0
   37.0620   25.4490   40.8420 C   0  0  0  0  0  0  0  0  0  0  0  0
   37.7190   24.3750   41.4090 C   0  0  0  0  0  3  0  0  0  0  0  0
   37.6500   23.0940   40.8530 C   0  0  0  0  0  0  0  0  0  0  0  0
   38.1450   22.2390   41.2640 H   0  0  0  0  0  0  0  0  0  0  0  0
   36.9110   22.9520   39.7320 N   0  0  0  0  0  0  0  0  0  0  0  0
   36.2580   23.9970   39.1620 C   0  0  0  0  0  3  0  0  0  0  0  0
   36.3570   25.1950   39.7310 N   0  0  0  0  0  0  0  0  0  0  0  0
  1  2  1  0  0  0  0
  2  7  1  0  0  0  0
  2  3  2  0  0  0  0
  3  8  1  0  0  0  0
  4  3  1  0  0  0  0
  4  9  1  0  0  0  0
  5  4  2  0  0  0  0
  6  1  2  0  0  0  0
  6  5  1  0  0  0  0
 10 11  2  0  0  0  0
 10 15  1  0  0  0  0
 11 12  1  0  0  0  0
 12 18  1  0  0  0  0
 12 13  2  0  0  0  0
 14 13  1  0  0  0  0
 14  1  1  0  0  0  0
 15 14  2  0  0  0  0
 16 10  1  0  0  0  0
 17 11  1  0  0  0  0
 19 16  1  0  0  0  0
 20 16  1  0  0  0  0
 21 22  1  0  0  0  0
 21  5  1  0  0  0  0
 23 24  1  0  0  0  0
 23 22  2  0  0  0  0
 25 23  1  0  0  0  0
 26 27  1  0  0  0  0
 26 25  2  0  0  0  0
 27 21  2  0  0  0  0
M  END
>  <minimizedAffinity>
-5.20098972

$$$$

 OpenBabel03242520113D

 27 29  0  0  0  0  0  0  0  0999 V2000
   37.3000   26.8810   41.6180 C   0  0  0  0  0  0  0  0  0  0  0  0
   37.3350   26.8720   42.9740 C   0  0  0  0  0  0  0  0  0  0  0  0
   37.4980   28.0410   43.6780 C   0  0  0  0  0  0  0  0  0  0  0  0
   37.6290   29.2380   42.9910 C   0  0  0  0  0  0  0  0  0  0  0  0
   37.5900   29.2220   41.6150 C   0  0  0  0  0  0  0  0  0  0  0  0
   37.4310   28.0780   40.9900 N   0  0  0  0  0  0  0  0  0  0  0  0
   37.2270   25.9030   43.4570 H   0  0  0  0  0  0  0  0  0  0  0  0
   37.5180   27.9650   44.7660 H   0  0  0  0  0  0  0  0  0  0  0  0
   37.7560   30.1400   43.5410 H   0  0  0  0  0  0  0  0  0  0  0  0
   37.5230   23.4300   40.4410 C   0  0  0  0  0  0  0  0  0  0  0  0
   36.7700   23.4800   39.2480 C   0  0  0  0  0  0  0  0  0  0  0  0
   36.1960   24.6940   38.8610 C   0  0  0  0  0  0  0  0  0  0  0  0
   36.4140   25.7510   39.6850 N   0  0  0  0  0  0  0  0  0  0  0  0
   37.1290   25.6870   40.8110 C   0  0  0  0  0  0  0  0  0  0  0  0
   37.6850   24.5230   41.1900 N   0  0  0  0  0  0  0  0  0  0  0  0
   38.1030   22.1920   40.8250 N   0  0  0  0  0  0  0  0  0  0  0  0
   36.6350   22.5900   38.6310 H   0  0  0  0  0  0  0  0  0  0  0  0
   35.6150   24.7980   37.9690 H   0  0  0  0  0  0  0  0  0  0  0  0
   38.6860   21.5130   40.3110 H   0  0  0  0  0  0  0  0  0  0  0  0
   37.8720   21.9560   41.8290 H   0  0  0  0  0  0  0  0  0  0  0  0
   37.7250   30.4670   40.8660 C   0  0  0  0  0  0  0  0  0  0  0  0
   36.9530   30.6830   39.7420 C   0  0  0  0  0  3  0  0  0  0  0  0
   37.0530   31.8630   38.9980 C   0  0  0  0  0  0  0  0  0  0  0  0
   36.4720   32.0660   38.1230 H   0  0  0  0  0  0  0  0  0  0  0  0
   37.9410   32.7840   39.4280 N   0  0  0  0  0  0  0  0  0  0  0  0
   38.7080   32.5880   40.5310 C   0  0  0  0  0  3  0  0  0  0  0  0
   38.5740   31.4480   41.2030 N   0  0  0  0  0  0  0  0  0  0  0  0
  1  2  1  0  0  0  0
  2  7  1  0  0  0  0
  2  3  2  0  0  0  0
  3  8  1  0  0  0  0
  4  9  1  0  0  0  0
  4  3  1  0  0  0  0
  5  4  2  0  0  0  0
  6  5  1  0  0  0  0
  6  1  2  0  0  0  0
 10 16  1  0  0  0  0
 10 15  1  0  0  0  0
 11 10  2  0  0  0  0
 12 11  1  0  0  0  0
 12 13  2  0  0  0  0
 13 14  1  0  0  0  0
 14 15  2  0  0  0  0
 14  1  1  0  0  0  0
 16 20  1  0  0  0  0
 17 11  1  0  0  0  0
 18 12  1  0  0  0  0
 19 16  1  0  0  0  0
 21 27  1  0  0  0  0
 21  5  1  0  0  0  0
 22 21  2  0  0  0  0
 23 25  2  0  0  0  0
 23 22  1  0  0  0  0
 24 23  1  0  0  0  0
 25 26  1  0  0  0  0
 26 27  2  0  0  0  0
M  END
>  <minimizedAffinity>
-5.15567255

$$$$

 OpenBabel03242520113D

 27 29  0  0  0  0  0  0  0  0999 V2000
   37.6620   30.2570   40.1200 C   0  0  0  0  0  0  0  0  0  0  0  0
   36.3260   30.4860   40.1760 C   0  0  0  0  0  0  0  0  0  0  0  0
   35.4560   29.4770   40.5100 C   0  0  0  0  0  0  0  0  0  0  0  0
   35.9530   28.2130   40.7910 C   0  0  0  0  0  0  0  0  0  0  0  0
   37.3120   28.0050   40.7270 C   0  0  0  0  0  0  0  0  0  0  0  0
   38.1010   29.0030   40.4040 N   0  0  0  0  0  0  0  0  0  0  0  0
   35.9960   31.4970   39.9460 H   0  0  0  0  0  0  0  0  0  0  0  0
   34.3940   29.7270   40.5370 H   0  0  0  0  0  0  0  0  0  0  0  0
   35.2750   27.4350   41.0490 H   0  0  0  0  0  0  0  0  0  0  0  0
   39.9710   32.3390   38.2030 C   0  0  0  0  0  0  0  0  0  0  0  0
   40.4740   33.2080   39.1950 C   0  0  0  0  0  0  0  0  0  0  0  0
   40.0160   33.0690   40.5080 C   0  0  0  0  0  0  0  0  0  0  0  0
   39.1040   32.0870   40.7270 N   0  0  0  0  0  0  0  0  0  0  0  0
   38.6380   31.2740   39.7760 C   0  0  0  0  0  0  0  0  0  0  0  0
   39.0730   31.4010   38.5100 N   0  0  0  0  0  0  0  0  0  0  0  0
   40.4430   32.4870   36.8710 N   0  0  0  0  0  0  0  0  0  0  0  0
   41.2090   33.9760   38.9500 H   0  0  0  0  0  0  0  0  0  0  0  0
   40.3580   33.6950   41.3070 H   0  0  0  0  0  0  0  0  0  0  0  0
   41.3960   32.5470   36.4780 H   0  0  0  0  0  0  0  0  0  0  0  0
   39.6400   32.5430   36.1850 H   0  0  0  0  0  0  0  0  0  0  0  0
   37.8630   26.6850   41.0180 C   0  0  0  0  0  0  0  0  0  0  0  0
   37.2000   25.8340   41.8790 C   0  0  0  0  0  3  0  0  0  0  0  0
   37.6940   24.5620   42.1820 C   0  0  0  0  0  0  0  0  0  0  0  0
   37.2090   23.8760   42.8430 H   0  0  0  0  0  0  0  0  0  0  0  0
   38.8550   24.2010   41.5940 N   0  0  0  0  0  0  0  0  0  0  0  0
   39.5200   25.0250   40.7450 C   0  0  0  0  0  3  0  0  0  0  0  0
   39.0060   26.2250   40.4910 N   0  0  0  0  0  0  0  0  0  0  0  0
  1  2  2  0  0  0  0
  1  6  1  0  0  0  0
  2  3  1  0  0  0  0
  3  8  1  0  0  0  0
  3  4  2  0  0  0  0
  4  9  1  0  0  0  0
  5  4  1  0  0  0  0
  5 21  1  0  0  0  0
  6  5  2  0  0  0  0
  7  2  1  0  0  0  0
 10 15  2  0  0  0  0
 10 11  1  0  0  0  0
 11 12  2  0  0  0  0
 12 13  1  0  0  0  0
 12 18  1  0  0  0  0
 14  1  1  0  0  0  0
 14 13  2  0  0  0  0
 15 14  1  0  0  0  0
 16 10  1  0  0  0  0
 17 11  1  0  0  0  0
 19 16  1  0  0  0  0
 20 16  1  0  0  0  0
 21 22  1  0  0  0  0
 22 23  2  0  0  0  0
 23 24  1  0  0  0  0
 25 23  1  0  0  0  0
 26 25  2  0  0  0  0
 27 26  1  0  0  0  0
 27 21  2  0  0  0  0
M  END
>  <minimizedAffinity>
-5.1187501

$$$$

 OpenBabel03242520113D

 27 29  0  0  0  0  0  0  0  0999 V2000
   37.8560   30.7220   41.0150 C   0  0  0  0  0  0  0  0  0  0  0  0
   36.9140   31.4880   40.4090 C   0  0  0  0  0  0  0  0  0  0  0  0
   37.2480   32.7010   39.8570 C   0  0  0  0  0  0  0  0  0  0  0  0
   38.5620   33.1420   39.9220 C   0  0  0  0  0  0  0  0  0  0  0  0
   39.4990   32.3470   40.5410 C   0  0  0  0  0  0  0  0  0  0  0  0
   39.1280   31.1960   41.0530 N   0  0  0  0  0  0  0  0  0  0  0  0
   35.9020   31.0900   40.3890 H   0  0  0  0  0  0  0  0  0  0  0  0
   36.4450   33.2680   39.3850 H   0  0  0  0  0  0  0  0  0  0  0  0
   38.8140   34.0810   39.4920 H   0  0  0  0  0  0  0  0  0  0  0  0
   37.0870   27.1730   41.4130 C   0  0  0  0  0  0  0  0  0  0  0  0
   37.0550   27.0370   42.8170 C   0  0  0  0  0  0  0  0  0  0  0  0
   37.2960   28.1620   43.6100 C   0  0  0  0  0  0  0  0  0  0  0  0
   37.5480   29.3210   42.9490 N   0  0  0  0  0  0  0  0  0  0  0  0
   37.5760   29.4330   41.6180 C   0  0  0  0  0  0  0  0  0  0  0  0
   37.3440   28.3550   40.8480 N   0  0  0  0  0  0  0  0  0  0  0  0
   36.8400   26.0240   40.6150 N   0  0  0  0  0  0  0  0  0  0  0  0
   36.8450   26.0730   43.2840 H   0  0  0  0  0  0  0  0  0  0  0  0
   37.2860   28.1260   44.6800 H   0  0  0  0  0  0  0  0  0  0  0  0
   36.0830   25.3220   40.6300 H   0  0  0  0  0  0  0  0  0  0  0  0
   37.5920   25.8980   39.8820 H   0  0  0  0  0  0  0  0  0  0  0  0
   40.8880   32.7850   40.6240 C   0  0  0  0  0  0  0  0  0  0  0  0
   41.3750   33.7110   39.7240 C   0  0  0  0  0  3  0  0  0  0  0  0
   42.6990   34.1570   39.7710 C   0  0  0  0  0  0  0  0  0  0  0  0
   43.1110   34.8730   39.0920 H   0  0  0  0  0  0  0  0  0  0  0  0
   43.4850   33.6390   40.7390 N   0  0  0  0  0  0  0  0  0  0  0  0
   43.0230   32.7270   41.6320 C   0  0  0  0  0  3  0  0  0  0  0  0
   41.7540   32.3370   41.5430 N   0  0  0  0  0  0  0  0  0  0  0  0
  1  6  1  0  0  0  0
  1 14  1  0  0  0  0
  2  1  2  0  0  0  0
  3  4  2  0  0  0  0
  3  2  1  0  0  0  0
  4  5  1  0  0  0  0
  5 21  1  0  0  0  0
  5  6  2  0  0  0  0
  7  2  1  0  0  0  0
  8  3  1  0  0  0  0
  9  4  1  0  0  0  0
 10 11  1  0  0  0  0
 11 17  1  0  0  0  0
 11 12  2  0  0  0  0
 12 18  1  0  0  0  0
 13 12  1  0  0  0  0
 14 13  2  0  0  0  0
 15 10  2  0  0  0  0
 15 14  1  0  0  0  0
 16 19  1  0  0  0  0
 16 10  1  0  0  0  0
 20 16  1  0  0  0  0
 21 27  1  0  0  0  0
 22 23  1  0  0  0  0
 22 21  2  0  0  0  0
 23 25  2  0  0  0  0
 24 23  1  0  0  0  0
 25 26  1  0  0  0  0
 27 26  2  0  0  0  0
M  END
>  <minimizedAffinity>
-5.03524923

$$$$

 OpenBabel03242520113D

 27 29  0  0  0  0  0  0  0  0999 V2000
   37.6740   30.3110   40.5860 C   0  0  0  0  0  0  0  0  0  0  0  0
   36.8190   31.3640   40.5710 C   0  0  0  0  0  0  0  0  0  0  0  0
   37.0800   32.4670   39.7940 C   0  0  0  0  0  0  0  0  0  0  0  0
   38.2310   32.4990   39.0200 C   0  0  0  0  0  0  0  0  0  0  0  0
   39.0830   31.4180   39.0520 C   0  0  0  0  0  0  0  0  0  0  0  0
   38.7870   30.3890   39.8110 N   0  0  0  0  0  0  0  0  0  0  0  0
   35.9340   31.2810   41.1980 H   0  0  0  0  0  0  0  0  0  0  0  0
   36.3530   33.2790   39.8270 H   0  0  0  0  0  0  0  0  0  0  0  0
   38.4280   33.3550   38.4210 H   0  0  0  0  0  0  0  0  0  0  0  0
   37.1160   26.8250   41.5240 C   0  0  0  0  0  0  0  0  0  0  0  0
   37.0670   26.9060   42.9330 C   0  0  0  0  0  0  0  0  0  0  0  0
   37.2240   28.1530   43.5430 C   0  0  0  0  0  0  0  0  0  0  0  0
   37.4170   29.2090   42.7120 N   0  0  0  0  0  0  0  0  0  0  0  0
   37.4620   29.1150   41.3800 C   0  0  0  0  0  0  0  0  0  0  0  0
   37.3110   27.9190   40.7850 N   0  0  0  0  0  0  0  0  0  0  0  0
   36.9540   25.5530   40.9130 N   0  0  0  0  0  0  0  0  0  0  0  0
   36.9070   26.0150   43.5410 H   0  0  0  0  0  0  0  0  0  0  0  0
   37.1970   28.2820   44.6050 H   0  0  0  0  0  0  0  0  0  0  0  0
   36.2410   24.8150   41.0300 H   0  0  0  0  0  0  0  0  0  0  0  0
   37.7250   25.3630   40.2150 H   0  0  0  0  0  0  0  0  0  0  0  0
   40.3010   31.4250   38.2480 C   0  0  0  0  0  0  0  0  0  0  0  0
   40.9220   32.6200   37.9450 C   0  0  0  0  0  3  0  0  0  0  0  0
   42.0900   32.6680   37.1780 C   0  0  0  0  0  0  0  0  0  0  0  0
   42.5980   33.5730   36.9240 H   0  0  0  0  0  0  0  0  0  0  0  0
   42.5860   31.4890   36.7450 N   0  0  0  0  0  0  0  0  0  0  0  0
   41.9880   30.3050   37.0340 C   0  0  0  0  0  3  0  0  0  0  0  0
   40.8790   30.3160   37.7670 N   0  0  0  0  0  0  0  0  0  0  0  0
  1 14  1  0  0  0  0
  2  1  1  0  0  0  0
  2  7  1  0  0  0  0
  3  8  1  0  0  0  0
  3  2  2  0  0  0  0
  4  5  2  0  0  0  0
  4  3  1  0  0  0  0
  5  6  1  0  0  0  0
  6  1  2  0  0  0  0
  9  4  1  0  0  0  0
 10 11  1  0  0  0  0
 11 17  1  0  0  0  0
 11 12  2  0  0  0  0
 12 18  1  0  0  0  0
 13 12  1  0  0  0  0
 14 13  2  0  0  0  0
 15 14  1  0  0  0  0
 15 10  2  0  0  0  0
 16 19  1  0  0  0  0
 16 10  1  0  0  0  0
 20 16  1  0  0  0  0
 21  5  1  0  0  0  0
 22 21  1  0  0  0  0
 23 22  2  0  0  0  0
 24 23  1  0  0  0  0
 25 26  2  0  0  0  0
 25 23  1  0  0  0  0
 26 27  1  0  0  0  0
 27 21  2  0  0  0  0
M  END
>  <minimizedAffinity>
-4.9751296

$$$$
