
 OpenBabel03252506023D

 26 28  0  0  0  0  0  0  0  0999 V2000
   44.7830   36.3240   42.8510 Cl  0  0  0  0  0  0  0  0  0  0  0  0
   45.4060   35.1120   43.9170 C   0  0  0  0  0  0  0  0  0  0  0  0
   46.4470   34.3080   43.5240 C   0  0  0  0  0  0  0  0  0  0  0  0
   46.8700   33.3780   44.4350 C   0  0  0  0  0  0  0  0  0  0  0  0
   46.3520   33.1790   45.6910 C   0  0  0  0  0  0  0  0  0  0  0  0
   45.3110   33.9960   46.0600 C   0  0  0  0  0  0  0  0  0  0  0  0
   44.6400   33.7710   47.6600 Cl  0  0  0  0  0  0  0  0  0  0  0  0
   44.8380   34.9520   45.1890 C   0  0  0  0  0  0  0  0  0  0  0  0
   47.7070   32.7480   44.0950 H   0  0  0  0  0  0  0  0  0  0  0  0
   44.0100   35.5870   45.5080 H   0  0  0  0  0  0  0  0  0  0  0  0
   48.7370   35.4140   40.8940 C   0  0  0  0  0  0  0  0  0  0  0  0
   48.2900   34.7000   39.7640 C   0  0  0  0  0  0  0  0  0  0  0  0
   47.1810   33.8220   39.9120 C   0  0  0  0  0  0  0  0  0  0  0  0
   46.6240   33.7330   41.1460 N   0  0  0  0  0  0  0  0  0  0  0  0
   47.0740   34.4310   42.2140 C   0  0  0  0  0  0  0  0  0  0  0  0
   48.1300   35.2710   42.0850 N   0  0  0  0  0  0  0  0  0  0  0  0
   49.5820   36.0720   40.7420 H   0  0  0  0  0  0  0  0  0  0  0  0
   48.7110   34.7550   38.7900 H   0  0  0  0  0  0  0  0  0  0  0  0
   46.7880   33.2450   39.0890 H   0  0  0  0  0  0  0  0  0  0  0  0
   46.8440   32.1680   46.6200 C   0  0  0  0  0  0  0  0  0  0  0  0
   46.6470   30.8140   46.4660 C   0  0  0  0  0  0  0  0  0  0  0  0
   47.1480   29.9040   47.3970 C   0  0  0  0  0  0  0  0  0  0  0  0
   46.9460   28.8410   47.1990 H   0  0  0  0  0  0  0  0  0  0  0  0
   47.8390   30.3230   48.4750 N   0  0  0  0  0  0  0  0  0  0  0  0
   48.0220   31.6490   48.6100 C   0  0  0  0  0  0  0  0  0  0  0  0
   47.5400   32.5300   47.7130 N   0  0  0  0  0  0  0  0  0  0  0  0
  1  2  1  0  0  0  0
  2  8  1  0  0  0  0
  3  2  2  0  0  0  0
  3  4  1  0  0  0  0
  4  5  2  0  0  0  0
  5  6  1  0  0  0  0
  5 20  1  0  0  0  0
  6  7  1  0  0  0  0
  8 10  1  0  0  0  0
  8  6  2  0  0  0  0
  9  4  1  0  0  0  0
 11 16  1  0  0  0  0
 12 13  1  0  0  0  0
 12 11  2  0  0  0  0
 13 14  2  0  0  0  0
 14 15  1  0  0  0  0
 15  3  1  0  0  0  0
 16 15  2  0  0  0  0
 17 11  1  0  0  0  0
 18 12  1  0  0  0  0
 19 13  1  0  0  0  0
 20 26  1  0  0  0  0
 21 20  2  0  0  0  0
 21 22  1  0  0  0  0
 22 24  2  0  0  0  0
 23 22  1  0  0  0  0
 24 25  1  0  0  0  0
 26 25  2  0  0  0  0
M  END
>  <minimizedAffinity>
-5.85700417

>  <minimizedRMSD>
0.725206256

$$$$
