
 OpenBabel03252508223D

 32 34  0  0  0  0  0  0  0  0999 V2000
   36.1190   30.0450   38.8790 C   0  0  0  0  0  0  0  0  0  0  0  0
   35.5040   29.1780   37.9760 C   0  0  0  0  0  0  0  0  0  0  0  0
   35.7860   29.0820   36.6270 C   0  0  0  0  0  0  0  0  0  0  0  0
   36.7780   29.9410   36.1700 C   0  0  0  0  0  0  0  0  0  0  0  0
   37.3980   30.8030   37.0450 C   0  0  0  0  0  0  0  0  0  0  0  0
   37.1040   30.8850   38.3840 C   0  0  0  0  0  0  0  0  0  0  0  0
   34.7380   28.5350   38.3950 H   0  0  0  0  0  0  0  0  0  0  0  0
   35.2260   28.3620   36.0510 H   0  0  0  0  0  0  0  0  0  0  0  0
   36.9740   29.8390   35.1060 H   0  0  0  0  0  0  0  0  0  0  0  0
   38.1300   31.3800   36.5030 H   0  0  0  0  0  0  0  0  0  0  0  0
   37.8490   31.8380   39.2130 C   0  0  0  0  0  0  0  0  0  0  0  0
   37.4220   33.1390   39.3310 C   0  0  0  0  0  3  0  0  0  0  0  0
   38.0530   34.1020   40.0860 C   0  0  0  0  0  0  0  0  0  0  0  0
   37.7560   35.1200   40.2030 H   0  0  0  0  0  0  0  0  0  0  0  0
   39.1800   33.7500   40.7680 N   0  0  0  0  0  0  0  0  0  0  0  0
   39.5840   32.4540   40.6370 C   0  0  0  0  0  3  0  0  0  0  0  0
   38.9450   31.5550   39.8960 N   0  0  0  0  0  0  0  0  0  0  0  0
   35.7800   30.1340   40.3000 C   0  0  0  0  0  0  0  0  0  0  0  0
   34.8040   30.6730   40.3720 H   0  0  0  0  0  0  0  0  0  0  0  0
   36.5470   30.6870   40.8690 H   0  0  0  0  0  0  0  0  0  0  0  0
   35.5210   28.7510   40.9070 C   0  0  0  0  0  0  0  0  0  0  0  0
   35.3300   27.9820   40.1650 H   0  0  0  0  0  0  0  0  0  0  0  0
   34.6440   28.8740   41.5690 H   0  0  0  0  0  0  0  0  0  0  0  0
   38.1570   26.9750   42.9680 C   0  0  0  0  0  0  0  0  0  0  0  0
   37.0180   27.1380   42.1360 C   0  0  0  0  0  0  0  0  0  0  0  0
   36.6890   28.4340   41.7780 C   0  0  0  0  0  0  0  0  0  0  0  0
   37.4910   29.4560   42.2560 N   0  0  0  0  0  0  0  0  0  0  0  0
   38.5450   29.2530   43.0320 C   0  0  0  0  0  0  0  0  0  0  0  0
   38.8840   28.0090   43.3920 N   0  0  0  0  0  0  0  0  0  0  0  0
   38.3710   25.9460   43.2170 H   0  0  0  0  0  0  0  0  0  0  0  0
   36.4210   26.3090   41.7850 H   0  0  0  0  0  0  0  0  0  0  0  0
   39.0600   30.1610   43.3160 H   0  0  0  0  0  0  0  0  0  0  0  0
  1 18  1  0  0  0  0
  2  7  1  0  0  0  0
  2  1  2  0  0  0  0
  3  2  1  0  0  0  0
  4  3  2  0  0  0  0
  4  5  1  0  0  0  0
  5  6  2  0  0  0  0
  6  1  1  0  0  0  0
  6 11  1  0  0  0  0
  8  3  1  0  0  0  0
  9  4  1  0  0  0  0
 10  5  1  0  0  0  0
 11 12  2  0  0  0  0
 11 17  1  0  0  0  0
 12 13  1  0  0  0  0
 13 14  1  0  0  0  0
 13 15  2  0  0  0  0
 16 15  1  0  0  0  0
 17 16  2  0  0  0  0
 18 19  1  0  0  0  0
 18 20  1  0  0  0  0
 18 21  1  0  0  0  0
 21 23  1  0  0  0  0
 21 26  1  0  0  0  0
 22 21  1  0  0  0  0
 24 30  1  0  0  0  0
 24 29  1  0  0  0  0
 25 24  2  0  0  0  0
 26 25  1  0  0  0  0
 26 27  2  0  0  0  0
 27 28  1  0  0  0  0
 28 32  1  0  0  0  0
 28 29  2  0  0  0  0
 31 25  1  0  0  0  0
M  END
>  <minimizedAffinity>
-5.55249119

$$$$

 OpenBabel03252508223D

 32 34  0  0  0  0  0  0  0  0999 V2000
   38.8750   31.5840   40.6280 C   0  0  0  0  0  0  0  0  0  0  0  0
   39.6540   32.7180   40.8580 C   0  0  0  0  0  0  0  0  0  0  0  0
   39.3080   34.0160   40.5330 C   0  0  0  0  0  0  0  0  0  0  0  0
   38.0660   34.1610   39.9260 C   0  0  0  0  0  0  0  0  0  0  0  0
   37.2830   33.0560   39.6920 C   0  0  0  0  0  0  0  0  0  0  0  0
   37.6420   31.7720   40.0230 C   0  0  0  0  0  0  0  0  0  0  0  0
   40.6120   32.5380   41.3330 H   0  0  0  0  0  0  0  0  0  0  0  0
   40.0160   34.7950   40.7730 H   0  0  0  0  0  0  0  0  0  0  0  0
   37.8280   35.1930   39.6850 H   0  0  0  0  0  0  0  0  0  0  0  0
   36.3670   33.3730   39.2190 H   0  0  0  0  0  0  0  0  0  0  0  0
   36.7080   30.6800   39.7310 C   0  0  0  0  0  0  0  0  0  0  0  0
   36.6690   30.1140   38.4790 C   0  0  0  0  0  3  0  0  0  0  0  0
   35.8280   29.0850   38.1140 C   0  0  0  0  0  0  0  0  0  0  0  0
   35.7660   28.6200   37.1560 H   0  0  0  0  0  0  0  0  0  0  0  0
   34.9740   28.5880   39.0520 N   0  0  0  0  0  0  0  0  0  0  0  0
   35.0320   29.1640   40.2880 C   0  0  0  0  0  3  0  0  0  0  0  0
   35.8580   30.1570   40.5980 N   0  0  0  0  0  0  0  0  0  0  0  0
   39.2810   30.2210   40.9680 C   0  0  0  0  0  0  0  0  0  0  0  0
   40.3780   30.1440   40.7670 H   0  0  0  0  0  0  0  0  0  0  0  0
   38.7440   29.4710   40.3630 H   0  0  0  0  0  0  0  0  0  0  0  0
   39.1300   29.9420   42.4680 C   0  0  0  0  0  0  0  0  0  0  0  0
   38.7560   30.7930   43.0300 H   0  0  0  0  0  0  0  0  0  0  0  0
   40.1370   29.6580   42.8240 H   0  0  0  0  0  0  0  0  0  0  0  0
   36.6380   27.3580   43.6800 C   0  0  0  0  0  0  0  0  0  0  0  0
   37.4150   28.5480   43.6790 C   0  0  0  0  0  0  0  0  0  0  0  0
   38.2590   28.7380   42.5990 C   0  0  0  0  0  0  0  0  0  0  0  0
   38.2770   27.7640   41.6160 N   0  0  0  0  0  0  0  0  0  0  0  0
   37.5320   26.6700   41.6620 C   0  0  0  0  0  0  0  0  0  0  0  0
   36.7080   26.4620   42.6960 N   0  0  0  0  0  0  0  0  0  0  0  0
   35.9970   27.2580   44.5430 H   0  0  0  0  0  0  0  0  0  0  0  0
   37.3690   29.2820   44.4690 H   0  0  0  0  0  0  0  0  0  0  0  0
   37.6680   26.0130   40.8140 H   0  0  0  0  0  0  0  0  0  0  0  0
  1  2  1  0  0  0  0
  1 18  1  0  0  0  0
  2  7  1  0  0  0  0
  3  8  1  0  0  0  0
  3  2  2  0  0  0  0
  4  3  1  0  0  0  0
  5  4  2  0  0  0  0
  5  6  1  0  0  0  0
  6  1  2  0  0  0  0
  9  4  1  0  0  0  0
 10  5  1  0  0  0  0
 11  6  1  0  0  0  0
 11 17  1  0  0  0  0
 12 11  2  0  0  0  0
 13 12  1  0  0  0  0
 13 15  2  0  0  0  0
 14 13  1  0  0  0  0
 15 16  1  0  0  0  0
 16 17  2  0  0  0  0
 18 21  1  0  0  0  0
 19 18  1  0  0  0  0
 20 18  1  0  0  0  0
 21 26  1  0  0  0  0
 21 23  1  0  0  0  0
 21 22  1  0  0  0  0
 24 30  1  0  0  0  0
 25 24  1  0  0  0  0
 25 31  1  0  0  0  0
 26 25  2  0  0  0  0
 27 28  2  0  0  0  0
 27 26  1  0  0  0  0
 28 29  1  0  0  0  0
 29 24  2  0  0  0  0
 32 28  1  0  0  0  0
M  END
>  <minimizedAffinity>
-5.21334219

$$$$

 OpenBabel03252508223D

 32 34  0  0  0  0  0  0  0  0999 V2000
   37.0170   26.3910   42.0630 C   0  0  0  0  0  0  0  0  0  0  0  0
   36.9920   25.0030   42.2030 C   0  0  0  0  0  0  0  0  0  0  0  0
   36.7820   24.0920   41.1850 C   0  0  0  0  0  0  0  0  0  0  0  0
   36.5830   24.6480   39.9280 C   0  0  0  0  0  0  0  0  0  0  0  0
   36.6050   26.0130   39.7690 C   0  0  0  0  0  0  0  0  0  0  0  0
   36.8160   26.9050   40.7920 C   0  0  0  0  0  0  0  0  0  0  0  0
   37.1530   24.6330   43.2090 H   0  0  0  0  0  0  0  0  0  0  0  0
   36.7910   23.0440   41.4460 H   0  0  0  0  0  0  0  0  0  0  0  0
   36.4210   23.9030   39.1530 H   0  0  0  0  0  0  0  0  0  0  0  0
   36.4320   26.2450   38.7300 H   0  0  0  0  0  0  0  0  0  0  0  0
   36.8290   28.3390   40.4870 C   0  0  0  0  0  0  0  0  0  0  0  0
   37.7840   28.8640   39.6490 C   0  0  0  0  0  3  0  0  0  0  0  0
   37.8740   30.1940   39.3050 C   0  0  0  0  0  0  0  0  0  0  0  0
   38.5980   30.6410   38.6610 H   0  0  0  0  0  0  0  0  0  0  0  0
   36.9570   31.0580   39.8250 N   0  0  0  0  0  0  0  0  0  0  0  0
   36.0180   30.5150   40.6530 C   0  0  0  0  0  3  0  0  0  0  0  0
   35.9680   29.2240   40.9600 N   0  0  0  0  0  0  0  0  0  0  0  0
   37.2230   27.3280   43.1670 C   0  0  0  0  0  0  0  0  0  0  0  0
   36.6030   26.9680   44.0240 H   0  0  0  0  0  0  0  0  0  0  0  0
   36.9150   28.3520   42.8970 H   0  0  0  0  0  0  0  0  0  0  0  0
   38.6680   27.2940   43.6760 C   0  0  0  0  0  0  0  0  0  0  0  0
   39.1480   26.3270   43.5510 H   0  0  0  0  0  0  0  0  0  0  0  0
   38.6160   27.5620   44.7470 H   0  0  0  0  0  0  0  0  0  0  0  0
   41.1320   29.3010   41.6130 C   0  0  0  0  0  0  0  0  0  0  0  0
   40.5340   28.1660   42.2230 C   0  0  0  0  0  0  0  0  0  0  0  0
   39.3990   28.3930   42.9810 C   0  0  0  0  0  0  0  0  0  0  0  0
   38.9410   29.6950   43.0800 N   0  0  0  0  0  0  0  0  0  0  0  0
   39.5340   30.7230   42.4900 C   0  0  0  0  0  0  0  0  0  0  0  0
   40.6340   30.5290   41.7520 N   0  0  0  0  0  0  0  0  0  0  0  0
   42.0130   29.0700   41.0330 H   0  0  0  0  0  0  0  0  0  0  0  0
   40.9260   27.1650   42.1180 H   0  0  0  0  0  0  0  0  0  0  0  0
   39.0470   31.6710   42.6710 H   0  0  0  0  0  0  0  0  0  0  0  0
  1  2  1  0  0  0  0
  1 18  1  0  0  0  0
  2  7  1  0  0  0  0
  3  8  1  0  0  0  0
  3  2  2  0  0  0  0
  4  3  1  0  0  0  0
  5  4  2  0  0  0  0
  5  6  1  0  0  0  0
  6  1  2  0  0  0  0
  9  4  1  0  0  0  0
 10  5  1  0  0  0  0
 11  6  1  0  0  0  0
 11 17  1  0  0  0  0
 12 11  2  0  0  0  0
 13 12  1  0  0  0  0
 13 15  2  0  0  0  0
 14 13  1  0  0  0  0
 15 16  1  0  0  0  0
 16 17  2  0  0  0  0
 18 21  1  0  0  0  0
 18 19  1  0  0  0  0
 20 18  1  0  0  0  0
 21 23  1  0  0  0  0
 22 21  1  0  0  0  0
 24 29  2  0  0  0  0
 24 25  1  0  0  0  0
 25 26  2  0  0  0  0
 26 27  1  0  0  0  0
 26 21  1  0  0  0  0
 28 32  1  0  0  0  0
 28 27  2  0  0  0  0
 29 28  1  0  0  0  0
 30 24  1  0  0  0  0
 31 25  1  0  0  0  0
M  END
>  <minimizedAffinity>
-5.10530758

$$$$

 OpenBabel03252508223D

 32 34  0  0  0  0  0  0  0  0999 V2000
   36.9540   27.7060   41.4570 C   0  0  0  0  0  0  0  0  0  0  0  0
   37.1570   28.6390   42.4730 C   0  0  0  0  0  0  0  0  0  0  0  0
   37.9440   28.4560   43.5940 C   0  0  0  0  0  0  0  0  0  0  0  0
   38.5730   27.2200   43.6760 C   0  0  0  0  0  0  0  0  0  0  0  0
   38.3870   26.2860   42.6840 C   0  0  0  0  0  0  0  0  0  0  0  0
   37.6000   26.4860   41.5760 C   0  0  0  0  0  0  0  0  0  0  0  0
   36.6390   29.5840   42.3500 H   0  0  0  0  0  0  0  0  0  0  0  0
   38.0060   29.2720   44.2980 H   0  0  0  0  0  0  0  0  0  0  0  0
   39.1830   27.1100   44.5690 H   0  0  0  0  0  0  0  0  0  0  0  0
   38.9530   25.4010   42.9290 H   0  0  0  0  0  0  0  0  0  0  0  0
   37.4960   25.4130   40.5810 C   0  0  0  0  0  0  0  0  0  0  0  0
   36.6210   24.3700   40.7730 C   0  0  0  0  0  3  0  0  0  0  0  0
   36.4530   23.3220   39.8950 C   0  0  0  0  0  0  0  0  0  0  0  0
   35.7880   22.4950   40.0060 H   0  0  0  0  0  0  0  0  0  0  0  0
   37.2010   23.3090   38.7560 N   0  0  0  0  0  0  0  0  0  0  0  0
   38.0610   24.3550   38.5860 C   0  0  0  0  0  3  0  0  0  0  0  0
   38.1930   25.3470   39.4600 N   0  0  0  0  0  0  0  0  0  0  0  0
   36.0970   27.9270   40.2920 C   0  0  0  0  0  0  0  0  0  0  0  0
   35.2910   27.1540   40.3250 H   0  0  0  0  0  0  0  0  0  0  0  0
   36.6580   27.8320   39.3470 H   0  0  0  0  0  0  0  0  0  0  0  0
   35.3650   29.2720   40.3750 C   0  0  0  0  0  0  0  0  0  0  0  0
   35.1830   29.6030   41.3930 H   0  0  0  0  0  0  0  0  0  0  0  0
   34.4080   29.1270   39.8400 H   0  0  0  0  0  0  0  0  0  0  0  0
   37.3020   31.0330   37.6370 C   0  0  0  0  0  0  0  0  0  0  0  0
   36.5410   30.0170   38.2730 C   0  0  0  0  0  0  0  0  0  0  0  0
   36.1670   30.2510   39.5860 C   0  0  0  0  0  0  0  0  0  0  0  0
   36.5600   31.4460   40.1640 N   0  0  0  0  0  0  0  0  0  0  0  0
   37.2710   32.3640   39.5270 C   0  0  0  0  0  0  0  0  0  0  0  0
   37.6450   32.1620   38.2580 N   0  0  0  0  0  0  0  0  0  0  0  0
   37.5680   30.8020   36.6160 H   0  0  0  0  0  0  0  0  0  0  0  0
   36.2560   29.0990   37.7830 H   0  0  0  0  0  0  0  0  0  0  0  0
   37.4920   33.2370   40.1250 H   0  0  0  0  0  0  0  0  0  0  0  0
  1  6  2  0  0  0  0
  1  2  1  0  0  0  0
  2  3  2  0  0  0  0
  3  4  1  0  0  0  0
  3  8  1  0  0  0  0
  4  9  1  0  0  0  0
  5 10  1  0  0  0  0
  5  4  2  0  0  0  0
  6  5  1  0  0  0  0
  7  2  1  0  0  0  0
 11 12  1  0  0  0  0
 11  6  1  0  0  0  0
 13 14  1  0  0  0  0
 13 12  2  0  0  0  0
 15 13  1  0  0  0  0
 16 15  2  0  0  0  0
 16 17  1  0  0  0  0
 17 11  2  0  0  0  0
 18 19  1  0  0  0  0
 18 21  1  0  0  0  0
 18  1  1  0  0  0  0
 20 18  1  0  0  0  0
 21 22  1  0  0  0  0
 23 21  1  0  0  0  0
 24 29  2  0  0  0  0
 24 25  1  0  0  0  0
 25 26  2  0  0  0  0
 26 27  1  0  0  0  0
 26 21  1  0  0  0  0
 28 32  1  0  0  0  0
 28 27  2  0  0  0  0
 29 28  1  0  0  0  0
 30 24  1  0  0  0  0
 31 25  1  0  0  0  0
M  END
>  <minimizedAffinity>
-5.07821083

$$$$

 OpenBabel03252508223D

 32 34  0  0  0  0  0  0  0  0999 V2000
   36.9180   28.6540   41.0150 C   0  0  0  0  0  0  0  0  0  0  0  0
   36.5740   27.5570   41.8040 C   0  0  0  0  0  0  0  0  0  0  0  0
   36.9310   27.3680   43.1260 C   0  0  0  0  0  0  0  0  0  0  0  0
   37.6990   28.3850   43.6800 C   0  0  0  0  0  0  0  0  0  0  0  0
   38.0480   29.4750   42.9180 C   0  0  0  0  0  0  0  0  0  0  0  0
   37.6840   29.6470   41.6050 C   0  0  0  0  0  0  0  0  0  0  0  0
   35.9740   26.7990   41.3130 H   0  0  0  0  0  0  0  0  0  0  0  0
   36.5900   26.4660   43.6100 H   0  0  0  0  0  0  0  0  0  0  0  0
   37.9620   28.2030   44.7180 H   0  0  0  0  0  0  0  0  0  0  0  0
   38.6390   30.1460   43.5220 H   0  0  0  0  0  0  0  0  0  0  0  0
   38.1100   30.8640   40.9070 C   0  0  0  0  0  0  0  0  0  0  0  0
   39.3930   30.9780   40.4280 C   0  0  0  0  0  3  0  0  0  0  0  0
   39.8820   32.0790   39.7600 C   0  0  0  0  0  0  0  0  0  0  0  0
   40.8680   32.2080   39.3730 H   0  0  0  0  0  0  0  0  0  0  0  0
   39.0420   33.1340   39.5560 N   0  0  0  0  0  0  0  0  0  0  0  0
   37.7740   32.9980   40.0390 C   0  0  0  0  0  3  0  0  0  0  0  0
   37.3430   31.9160   40.6800 N   0  0  0  0  0  0  0  0  0  0  0  0
   36.5390   28.8120   39.6110 C   0  0  0  0  0  0  0  0  0  0  0  0
   36.7330   27.8350   39.1050 H   0  0  0  0  0  0  0  0  0  0  0  0
   37.1250   29.6040   39.1150 H   0  0  0  0  0  0  0  0  0  0  0  0
   35.0330   29.0510   39.4550 C   0  0  0  0  0  0  0  0  0  0  0  0
   34.6820   29.9470   39.9600 H   0  0  0  0  0  0  0  0  0  0  0  0
   34.5410   28.1550   39.8760 H   0  0  0  0  0  0  0  0  0  0  0  0
   33.3310   28.9460   36.0720 C   0  0  0  0  0  0  0  0  0  0  0  0
   33.4660   28.9100   37.4850 C   0  0  0  0  0  0  0  0  0  0  0  0
   34.7450   29.0660   37.9920 C   0  0  0  0  0  0  0  0  0  0  0  0
   35.7780   29.2440   37.0880 N   0  0  0  0  0  0  0  0  0  0  0  0
   35.6010   29.2700   35.7750 C   0  0  0  0  0  0  0  0  0  0  0  0
   34.3740   29.1210   35.2600 N   0  0  0  0  0  0  0  0  0  0  0  0
   32.3150   28.8200   35.7290 H   0  0  0  0  0  0  0  0  0  0  0  0
   32.6300   28.7690   38.1540 H   0  0  0  0  0  0  0  0  0  0  0  0
   36.5140   29.4180   35.2140 H   0  0  0  0  0  0  0  0  0  0  0  0
  1  6  2  0  0  0  0
  1  2  1  0  0  0  0
  2  3  2  0  0  0  0
  3  8  1  0  0  0  0
  3  4  1  0  0  0  0
  4  9  1  0  0  0  0
  5 10  1  0  0  0  0
  5  4  2  0  0  0  0
  6  5  1  0  0  0  0
  7  2  1  0  0  0  0
 11  6  1  0  0  0  0
 12 11  2  0  0  0  0
 13 12  1  0  0  0  0
 14 13  1  0  0  0  0
 15 13  2  0  0  0  0
 15 16  1  0  0  0  0
 16 17  2  0  0  0  0
 17 11  1  0  0  0  0
 18  1  1  0  0  0  0
 19 18  1  0  0  0  0
 20 18  1  0  0  0  0
 21 18  1  0  0  0  0
 21 23  1  0  0  0  0
 21 22  1  0  0  0  0
 24 25  1  0  0  0  0
 25 26  2  0  0  0  0
 25 31  1  0  0  0  0
 26 21  1  0  0  0  0
 27 26  1  0  0  0  0
 28 27  2  0  0  0  0
 29 28  1  0  0  0  0
 29 24  2  0  0  0  0
 30 24  1  0  0  0  0
 32 28  1  0  0  0  0
M  END
>  <minimizedAffinity>
-5.00589323

$$$$

 OpenBabel03252508223D

 32 34  0  0  0  0  0  0  0  0999 V2000
   35.8770   28.2570   39.1400 C   0  0  0  0  0  0  0  0  0  0  0  0
   35.1850   27.8140   38.0130 C   0  0  0  0  0  0  0  0  0  0  0  0
   35.1240   26.5090   37.5630 C   0  0  0  0  0  0  0  0  0  0  0  0
   35.8260   25.5880   38.3300 C   0  0  0  0  0  0  0  0  0  0  0  0
   36.5140   26.0040   39.4460 C   0  0  0  0  0  0  0  0  0  0  0  0
   36.5630   27.3070   39.8790 C   0  0  0  0  0  0  0  0  0  0  0  0
   34.6580   28.5810   37.4580 H   0  0  0  0  0  0  0  0  0  0  0  0
   34.5470   26.3160   36.6720 H   0  0  0  0  0  0  0  0  0  0  0  0
   35.7570   24.5730   37.9480 H   0  0  0  0  0  0  0  0  0  0  0  0
   36.9890   25.1500   39.9000 H   0  0  0  0  0  0  0  0  0  0  0  0
   37.3220   27.6190   41.0950 C   0  0  0  0  0  0  0  0  0  0  0  0
   36.6930   27.6540   42.3170 C   0  0  0  0  0  3  0  0  0  0  0  0
   37.3220   27.9350   43.5100 C   0  0  0  0  0  0  0  0  0  0  0  0
   36.8720   27.9730   44.4760 H   0  0  0  0  0  0  0  0  0  0  0  0
   38.6590   28.1970   43.4870 N   0  0  0  0  0  0  0  0  0  0  0  0
   39.2620   28.1560   42.2640 C   0  0  0  0  0  3  0  0  0  0  0  0
   38.6170   27.8810   41.1350 N   0  0  0  0  0  0  0  0  0  0  0  0
   35.9350   29.6520   39.5770 C   0  0  0  0  0  0  0  0  0  0  0  0
   36.5560   29.6800   40.5060 H   0  0  0  0  0  0  0  0  0  0  0  0
   34.9320   30.0550   39.7950 H   0  0  0  0  0  0  0  0  0  0  0  0
   36.6840   30.5300   38.5680 C   0  0  0  0  0  0  0  0  0  0  0  0
   36.0400   30.9610   37.8080 H   0  0  0  0  0  0  0  0  0  0  0  0
   37.4430   29.8740   38.1040 H   0  0  0  0  0  0  0  0  0  0  0  0
   37.9450   33.7970   40.0150 C   0  0  0  0  0  0  0  0  0  0  0  0
   37.1790   32.9190   39.2030 C   0  0  0  0  0  0  0  0  0  0  0  0
   37.4180   31.5640   39.3540 C   0  0  0  0  0  0  0  0  0  0  0  0
   38.3740   31.1790   40.2770 N   0  0  0  0  0  0  0  0  0  0  0  0
   39.0640   32.0380   41.0130 C   0  0  0  0  0  0  0  0  0  0  0  0
   38.8520   33.3530   40.8850 N   0  0  0  0  0  0  0  0  0  0  0  0
   37.7210   34.8410   39.8580 H   0  0  0  0  0  0  0  0  0  0  0  0
   36.4410   33.2650   38.4940 H   0  0  0  0  0  0  0  0  0  0  0  0
   39.7720   31.5690   41.6830 H   0  0  0  0  0  0  0  0  0  0  0  0
  1 18  1  0  0  0  0
  1  6  1  0  0  0  0
  2  1  2  0  0  0  0
  3  2  1  0  0  0  0
  3  4  2  0  0  0  0
  4  5  1  0  0  0  0
  5  6  2  0  0  0  0
  5 10  1  0  0  0  0
  6 11  1  0  0  0  0
  7  2  1  0  0  0  0
  8  3  1  0  0  0  0
  9  4  1  0  0  0  0
 11 17  2  0  0  0  0
 11 12  1  0  0  0  0
 12 13  2  0  0  0  0
 13 14  1  0  0  0  0
 15 13  1  0  0  0  0
 16 15  2  0  0  0  0
 17 16  1  0  0  0  0
 18 20  1  0  0  0  0
 18 19  1  0  0  0  0
 21 26  1  0  0  0  0
 21 18  1  0  0  0  0
 22 21  1  0  0  0  0
 23 21  1  0  0  0  0
 24 29  1  0  0  0  0
 25 26  1  0  0  0  0
 25 24  2  0  0  0  0
 26 27  2  0  0  0  0
 27 28  1  0  0  0  0
 28 32  1  0  0  0  0
 29 28  2  0  0  0  0
 30 24  1  0  0  0  0
 31 25  1  0  0  0  0
M  END
>  <minimizedAffinity>
-5.00256824

$$$$

 OpenBabel03252508223D

 32 34  0  0  0  0  0  0  0  0999 V2000
   36.2010   28.0330   41.1310 C   0  0  0  0  0  0  0  0  0  0  0  0
   35.4310   29.1090   40.6910 C   0  0  0  0  0  0  0  0  0  0  0  0
   35.0030   29.3210   39.3950 C   0  0  0  0  0  0  0  0  0  0  0  0
   35.3940   28.3510   38.4790 C   0  0  0  0  0  0  0  0  0  0  0  0
   36.1520   27.2820   38.8930 C   0  0  0  0  0  0  0  0  0  0  0  0
   36.5690   27.0870   40.1880 C   0  0  0  0  0  0  0  0  0  0  0  0
   35.1590   29.8310   41.4540 H   0  0  0  0  0  0  0  0  0  0  0  0
   34.4110   30.2030   39.2030 H   0  0  0  0  0  0  0  0  0  0  0  0
   35.0410   28.5500   37.4710 H   0  0  0  0  0  0  0  0  0  0  0  0
   36.3510   26.6470   38.0440 H   0  0  0  0  0  0  0  0  0  0  0  0
   37.3630   25.8950   40.5020 C   0  0  0  0  0  0  0  0  0  0  0  0
   38.6770   25.8100   40.1070 C   0  0  0  0  0  3  0  0  0  0  0  0
   39.4990   24.7340   40.3580 C   0  0  0  0  0  0  0  0  0  0  0  0
   40.5210   24.6290   40.0700 H   0  0  0  0  0  0  0  0  0  0  0  0
   38.9840   23.6760   41.0450 N   0  0  0  0  0  0  0  0  0  0  0  0
   37.6790   23.7820   41.4280 C   0  0  0  0  0  3  0  0  0  0  0  0
   36.9190   24.8400   41.1640 N   0  0  0  0  0  0  0  0  0  0  0  0
   36.6530   27.8500   42.5100 C   0  0  0  0  0  0  0  0  0  0  0  0
   37.1870   26.8700   42.5550 H   0  0  0  0  0  0  0  0  0  0  0  0
   35.8090   27.8400   43.2200 H   0  0  0  0  0  0  0  0  0  0  0  0
   37.7030   28.8950   42.9040 C   0  0  0  0  0  0  0  0  0  0  0  0
   37.4300   29.4730   43.7830 H   0  0  0  0  0  0  0  0  0  0  0  0
   37.8120   29.5580   42.0260 H   0  0  0  0  0  0  0  0  0  0  0  0
   40.3560   26.3040   43.6790 C   0  0  0  0  0  0  0  0  0  0  0  0
   39.0620   26.8800   43.5730 C   0  0  0  0  0  0  0  0  0  0  0  0
   38.9950   28.1690   43.0730 C   0  0  0  0  0  0  0  0  0  0  0  0
   40.1830   28.7860   42.7190 N   0  0  0  0  0  0  0  0  0  0  0  0
   41.3680   28.2050   42.8380 C   0  0  0  0  0  0  0  0  0  0  0  0
   41.4600   26.9590   43.3190 N   0  0  0  0  0  0  0  0  0  0  0  0
   40.3530   25.2990   44.0740 H   0  0  0  0  0  0  0  0  0  0  0  0
   38.1600   26.3620   43.8610 H   0  0  0  0  0  0  0  0  0  0  0  0
   42.1930   28.8260   42.5170 H   0  0  0  0  0  0  0  0  0  0  0  0
  1 18  1  0  0  0  0
  2  1  1  0  0  0  0
  2  7  1  0  0  0  0
  3  2  2  0  0  0  0
  4  5  2  0  0  0  0
  4  3  1  0  0  0  0
  5  6  1  0  0  0  0
  6 11  1  0  0  0  0
  6  1  2  0  0  0  0
  8  3  1  0  0  0  0
  9  4  1  0  0  0  0
 10  5  1  0  0  0  0
 11 17  1  0  0  0  0
 12 13  1  0  0  0  0
 12 11  2  0  0  0  0
 13 15  2  0  0  0  0
 14 13  1  0  0  0  0
 15 16  1  0  0  0  0
 17 16  2  0  0  0  0
 18 19  1  0  0  0  0
 18 21  1  0  0  0  0
 18 20  1  0  0  0  0
 21 26  1  0  0  0  0
 21 22  1  0  0  0  0
 23 21  1  0  0  0  0
 24 30  1  0  0  0  0
 25 24  1  0  0  0  0
 25 31  1  0  0  0  0
 26 25  2  0  0  0  0
 27 28  2  0  0  0  0
 27 26  1  0  0  0  0
 28 29  1  0  0  0  0
 29 24  2  0  0  0  0
 32 28  1  0  0  0  0
M  END
>  <minimizedAffinity>
-4.97702169

$$$$

 OpenBabel03252508223D

 32 34  0  0  0  0  0  0  0  0999 V2000
   36.9370   26.5270   41.5560 C   0  0  0  0  0  0  0  0  0  0  0  0
   37.1450   25.3600   42.2900 C   0  0  0  0  0  0  0  0  0  0  0  0
   37.4900   24.1270   41.7690 C   0  0  0  0  0  0  0  0  0  0  0  0
   37.6340   24.0910   40.3880 C   0  0  0  0  0  0  0  0  0  0  0  0
   37.4350   25.2310   39.6460 C   0  0  0  0  0  0  0  0  0  0  0  0
   37.0920   26.4490   40.1810 C   0  0  0  0  0  0  0  0  0  0  0  0
   37.0160   25.4540   43.3630 H   0  0  0  0  0  0  0  0  0  0  0  0
   37.6180   23.3110   42.4640 H   0  0  0  0  0  0  0  0  0  0  0  0
   37.9050   23.1070   40.0130 H   0  0  0  0  0  0  0  0  0  0  0  0
   37.5920   24.9990   38.6040 H   0  0  0  0  0  0  0  0  0  0  0  0
   36.9220   27.5930   39.2800 C   0  0  0  0  0  0  0  0  0  0  0  0
   35.6660   27.9810   38.8780 C   0  0  0  0  0  3  0  0  0  0  0  0
   35.4090   29.0410   38.0370 C   0  0  0  0  0  0  0  0  0  0  0  0
   34.4520   29.3740   37.7020 H   0  0  0  0  0  0  0  0  0  0  0  0
   36.4660   29.7620   37.5670 N   0  0  0  0  0  0  0  0  0  0  0  0
   37.7020   29.3600   37.9800 C   0  0  0  0  0  3  0  0  0  0  0  0
   37.9070   28.3280   38.7930 N   0  0  0  0  0  0  0  0  0  0  0  0
   36.5530   27.8120   42.1390 C   0  0  0  0  0  0  0  0  0  0  0  0
   35.9010   27.5920   43.0200 H   0  0  0  0  0  0  0  0  0  0  0  0
   35.9980   28.4380   41.4210 H   0  0  0  0  0  0  0  0  0  0  0  0
   37.7630   28.5570   42.7130 C   0  0  0  0  0  0  0  0  0  0  0  0
   38.6840   27.9820   42.6740 H   0  0  0  0  0  0  0  0  0  0  0  0
   37.5010   28.7940   43.7610 H   0  0  0  0  0  0  0  0  0  0  0  0
   39.0120   31.7570   41.1160 C   0  0  0  0  0  0  0  0  0  0  0  0
   39.0580   30.5360   41.8390 C   0  0  0  0  0  0  0  0  0  0  0  0
   37.8620   29.8530   41.9810 C   0  0  0  0  0  0  0  0  0  0  0  0
   36.7310   30.4100   41.4100 N   0  0  0  0  0  0  0  0  0  0  0  0
   36.7400   31.5550   40.7430 C   0  0  0  0  0  0  0  0  0  0  0  0
   37.8830   32.2350   40.5930 N   0  0  0  0  0  0  0  0  0  0  0  0
   39.9700   32.2500   41.0340 H   0  0  0  0  0  0  0  0  0  0  0  0
   39.9650   30.1370   42.2680 H   0  0  0  0  0  0  0  0  0  0  0  0
   35.7700   31.8470   40.3640 H   0  0  0  0  0  0  0  0  0  0  0  0
  1 18  1  0  0  0  0
  1  2  1  0  0  0  0
  2  7  1  0  0  0  0
  3  2  2  0  0  0  0
  3  8  1  0  0  0  0
  4  3  1  0  0  0  0
  5  6  1  0  0  0  0
  5  4  2  0  0  0  0
  6  1  2  0  0  0  0
  9  4  1  0  0  0  0
 10  5  1  0  0  0  0
 11  6  1  0  0  0  0
 12 11  1  0  0  0  0
 13 12  2  0  0  0  0
 14 13  1  0  0  0  0
 15 16  2  0  0  0  0
 15 13  1  0  0  0  0
 16 17  1  0  0  0  0
 17 11  2  0  0  0  0
 18 21  1  0  0  0  0
 18 19  1  0  0  0  0
 20 18  1  0  0  0  0
 21 23  1  0  0  0  0
 22 21  1  0  0  0  0
 24 25  1  0  0  0  0
 25 26  2  0  0  0  0
 25 31  1  0  0  0  0
 26 21  1  0  0  0  0
 27 26  1  0  0  0  0
 28 27  2  0  0  0  0
 29 28  1  0  0  0  0
 29 24  2  0  0  0  0
 30 24  1  0  0  0  0
 32 28  1  0  0  0  0
M  END
>  <minimizedAffinity>
-4.90454626

$$$$

 OpenBabel03252508223D

 32 34  0  0  0  0  0  0  0  0999 V2000
   37.7660   29.2570   41.2520 C   0  0  0  0  0  0  0  0  0  0  0  0
   38.4070   29.3620   42.4860 C   0  0  0  0  0  0  0  0  0  0  0  0
   38.0650   28.6760   43.6360 C   0  0  0  0  0  0  0  0  0  0  0  0
   36.9810   27.8160   43.5090 C   0  0  0  0  0  0  0  0  0  0  0  0
   36.3360   27.6980   42.3000 C   0  0  0  0  0  0  0  0  0  0  0  0
   36.6900   28.3880   41.1660 C   0  0  0  0  0  0  0  0  0  0  0  0
   39.2450   30.0490   42.5200 H   0  0  0  0  0  0  0  0  0  0  0  0
   38.6560   28.8600   44.5200 H   0  0  0  0  0  0  0  0  0  0  0  0
   36.7400   27.2950   44.4310 H   0  0  0  0  0  0  0  0  0  0  0  0
   35.5300   26.9890   42.4050 H   0  0  0  0  0  0  0  0  0  0  0  0
   35.9280   28.1610   39.9350 C   0  0  0  0  0  0  0  0  0  0  0  0
   34.8930   29.0000   39.5930 C   0  0  0  0  0  3  0  0  0  0  0  0
   34.1240   28.8670   38.4580 C   0  0  0  0  0  0  0  0  0  0  0  0
   33.3140   29.4940   38.1580 H   0  0  0  0  0  0  0  0  0  0  0  0
   34.3990   27.8370   37.6100 N   0  0  0  0  0  0  0  0  0  0  0  0
   35.4310   27.0190   37.9680 C   0  0  0  0  0  3  0  0  0  0  0  0
   36.1480   27.1820   39.0750 N   0  0  0  0  0  0  0  0  0  0  0  0
   38.1440   30.0140   40.0590 C   0  0  0  0  0  0  0  0  0  0  0  0
   37.6070   29.5530   39.1940 H   0  0  0  0  0  0  0  0  0  0  0  0
   39.2310   29.9770   39.8780 H   0  0  0  0  0  0  0  0  0  0  0  0
   37.6360   31.4590   40.1210 C   0  0  0  0  0  0  0  0  0  0  0  0
   37.1430   31.7040   41.0570 H   0  0  0  0  0  0  0  0  0  0  0  0
   36.9330   31.5670   39.2750 H   0  0  0  0  0  0  0  0  0  0  0  0
   40.2880   34.1600   40.2750 C   0  0  0  0  0  0  0  0  0  0  0  0
   39.1510   33.4010   40.6590 C   0  0  0  0  0  0  0  0  0  0  0  0
   38.8050   32.3420   39.8370 C   0  0  0  0  0  0  0  0  0  0  0  0
   39.5890   32.1100   38.7210 N   0  0  0  0  0  0  0  0  0  0  0  0
   40.6430   32.8480   38.4050 C   0  0  0  0  0  0  0  0  0  0  0  0
   40.9970   33.8790   39.1820 N   0  0  0  0  0  0  0  0  0  0  0  0
   40.5150   34.9740   40.9480 H   0  0  0  0  0  0  0  0  0  0  0  0
   38.5670   33.6180   41.5410 H   0  0  0  0  0  0  0  0  0  0  0  0
   41.1420   32.5310   37.5000 H   0  0  0  0  0  0  0  0  0  0  0  0
  1  2  1  0  0  0  0
  2  7  1  0  0  0  0
  2  3  2  0  0  0  0
  3  8  1  0  0  0  0
  4  3  1  0  0  0  0
  4  9  1  0  0  0  0
  5 10  1  0  0  0  0
  5  4  2  0  0  0  0
  6  1  2  0  0  0  0
  6  5  1  0  0  0  0
 11  6  1  0  0  0  0
 12 11  1  0  0  0  0
 13 12  2  0  0  0  0
 14 13  1  0  0  0  0
 15 16  2  0  0  0  0
 15 13  1  0  0  0  0
 16 17  1  0  0  0  0
 17 11  2  0  0  0  0
 18 21  1  0  0  0  0
 18  1  1  0  0  0  0
 19 18  1  0  0  0  0
 20 18  1  0  0  0  0
 21 22  1  0  0  0  0
 23 21  1  0  0  0  0
 24 25  1  0  0  0  0
 24 30  1  0  0  0  0
 25 31  1  0  0  0  0
 26 21  1  0  0  0  0
 26 25  2  0  0  0  0
 27 26  1  0  0  0  0
 28 27  2  0  0  0  0
 28 29  1  0  0  0  0
 29 24  2  0  0  0  0
 32 28  1  0  0  0  0
M  END
>  <minimizedAffinity>
-4.89840794

$$$$
