
 OpenBabel03252506373D

 42 45  0  0  1  0  0  0  0  0999 V2000
   44.5320   35.4530   45.1670 C   0  0  0  0  0  0  0  0  0  0  0  0
   45.1830   35.4620   43.9210 C   0  0  0  0  0  0  0  0  0  0  0  0
   46.1100   34.5160   43.6520 C   0  0  0  0  0  0  0  0  0  0  0  0
   46.3580   33.5980   44.6220 N   0  0  0  0  0  0  0  0  0  0  0  0
   45.7410   33.5970   45.7930 C   0  0  0  0  0  0  0  0  0  0  0  0
   44.8240   34.5180   46.0810 N   0  0  0  0  0  0  0  0  0  0  0  0
   46.0810   32.5790   46.7510 N   0  0  0  0  0  0  0  0  0  0  0  0
   45.3450   32.3160   47.9350 C   0  0  0  0  0  0  0  0  0  0  0  0
   46.4220   31.9680   48.9460 C   0  0  0  0  0  0  0  0  0  0  0  0
   47.7060   31.8920   48.1770 C   0  0  0  0  0  0  0  0  0  0  0  0
   47.2150   31.6850   46.7440 C   0  0  1  0  0  0  0  0  0  0  0  0
   43.7930   36.2260   45.3490 H   0  0  0  0  0  0  0  0  0  0  0  0
   46.6300   34.4940   42.7050 H   0  0  0  0  0  0  0  0  0  0  0  0
   44.5210   31.6850   48.0180 H   0  0  0  0  0  0  0  0  0  0  0  0
   44.9810   33.3300   48.3030 H   0  0  0  0  0  0  0  0  0  0  0  0
   46.4480   32.6020   49.8310 H   0  0  0  0  0  0  0  0  0  0  0  0
   46.1880   30.9340   49.3350 H   0  0  0  0  0  0  0  0  0  0  0  0
   48.2970   31.0420   48.5250 H   0  0  0  0  0  0  0  0  0  0  0  0
   48.1950   32.8840   48.2820 H   0  0  0  0  0  0  0  0  0  0  0  0
   47.9980   32.0470   46.0580 H   0  0  0  0  0  0  0  0  0  0  0  0
   44.8220   36.4940   42.9850 N   0  0  0  0  0  0  0  0  0  0  0  0
   45.1700   36.3880   42.0030 H   0  0  0  0  0  0  0  0  0  0  0  0
   44.2460   37.2950   43.2840 H   0  0  0  0  0  0  0  0  0  0  0  0
   46.7280   29.9890   46.5400 S   0  0  0  0  0  0  0  0  0  0  0  0
   45.4100   30.4500   43.5080 O   0  0  0  0  0  0  0  0  0  0  0  0
   44.8730   29.9130   44.4910 C   0  0  0  0  0  0  0  0  0  0  0  0
   45.1150   29.6910   45.9430 C   0  0  1  0  0  0  0  0  0  0  0  0
   44.6010   28.2850   46.1170 C   0  0  0  0  0  0  0  0  0  0  0  0
   43.2170   28.4850   45.4960 C   0  0  0  0  0  0  0  0  0  0  0  0
   43.6030   29.2550   44.3110 N   0  0  0  0  0  0  0  0  0  0  0  0
   44.2680   30.2820   46.3790 H   0  0  0  0  0  0  0  0  0  0  0  0
   45.1390   27.5750   45.4530 H   0  0  0  0  0  0  0  0  0  0  0  0
   44.5560   27.9620   47.1610 H   0  0  0  0  0  0  0  0  0  0  0  0
   42.5380   29.0280   46.1470 H   0  0  0  0  0  0  0  0  0  0  0  0
   42.8360   27.5060   45.1490 H   0  0  0  0  0  0  0  0  0  0  0  0
   42.7350   29.2760   43.1630 C   0  0  0  0  0  0  0  0  0  0  0  0
   41.9540   30.2980   42.7190 C   0  0  0  0  0  3  0  0  0  0  0  0
   41.2060   30.0600   41.5790 C   0  0  0  0  0  0  0  0  0  0  0  0
   40.5820   30.8970   41.2370 H   0  0  0  0  0  0  0  0  0  0  0  0
   41.2290   28.8860   40.9220 N   0  0  0  0  0  0  0  0  0  0  0  0
   42.0090   27.8850   41.3780 C   0  0  0  0  0  3  0  0  0  0  0  0
   42.7400   28.0960   42.4790 N   0  0  0  0  0  0  0  0  0  0  0  0
  1 12  1  0  0  0  0
  1  6  1  0  0  0  0
  2  1  2  0  0  0  0
  3  2  1  0  0  0  0
  3  4  2  0  0  0  0
  4  5  1  0  0  0  0
  5  6  2  0  0  0  0
  5  7  1  0  0  0  0
  7  8  1  0  0  0  0
  8 14  1  0  0  0  0
  8 15  1  0  0  0  0
  8  9  1  0  0  0  0
  9 17  1  0  0  0  0
  9 16  1  0  0  0  0
 10 19  1  0  0  0  0
 10 18  1  0  0  0  0
 10  9  1  0  0  0  0
 11 20  1  6  0  0  0
 11  7  1  0  0  0  0
 11 10  1  0  0  0  0
 13  3  1  0  0  0  0
 21 23  1  0  0  0  0
 21  2  1  0  0  0  0
 22 21  1  0  0  0  0
 24 11  1  0  0  0  0
 25 26  2  0  0  0  0
 26 27  1  0  0  0  0
 27 28  1  0  0  0  0
 27 31  1  1  0  0  0
 27 24  1  0  0  0  0
 28 33  1  0  0  0  0
 29 28  1  0  0  0  0
 29 34  1  0  0  0  0
 30 26  1  0  0  0  0
 30 29  1  0  0  0  0
 32 28  1  0  0  0  0
 35 29  1  0  0  0  0
 36 30  1  0  0  0  0
 37 36  1  0  0  0  0
 38 37  2  0  0  0  0
 39 38  1  0  0  0  0
 40 41  2  0  0  0  0
 40 38  1  0  0  0  0
 41 42  1  0  0  0  0
 42 36  2  0  0  0  0
M  END
>  <minimizedAffinity>
-5.28114128

>  <minimizedRMSD>
0.320517331

$$$$
