
 OpenBabel03252504323D

 38 40  0  0  0  0  0  0  0  0999 V2000
   44.0500   35.3410   41.3300 C   0  0  0  0  0  3  0  0  0  0  0  0
   44.0450   35.6240   42.6300 C   0  0  0  0  0  3  0  0  0  0  0  0
   45.2710   35.5360   43.5270 C   0  0  0  0  0  0  0  0  0  0  0  0
   45.4940   36.5140   43.9990 H   0  0  0  0  0  0  0  0  0  0  0  0
   46.1090   35.2710   42.8640 H   0  0  0  0  0  0  0  0  0  0  0  0
   44.9860   34.5860   44.4920 O   0  0  0  0  0  0  0  0  0  0  0  0
   45.6120   32.4300   43.0660 O   0  0  0  0  0  0  0  0  0  0  0  0
   45.9730   33.2320   44.2950 P   0  0  1  0  0  0  0  0  0  0  0  0
   47.6000   33.7140   44.1150 O   0  0  0  0  0  0  0  0  0  0  0  0
   47.6860   34.4510   43.4580 H   0  0  0  0  0  0  0  0  0  0  0  0
   45.8970   32.2550   45.6670 O   0  0  0  0  0  0  0  0  0  0  0  0
   46.1930   32.9500   46.8250 C   0  0  0  0  0  0  0  0  0  0  0  0
   47.0620   32.3110   47.8590 C   0  0  0  0  0  0  0  0  0  0  0  0
   45.5610   32.4020   48.0840 C   0  0  0  0  0  0  0  0  0  0  0  0
   46.2950   34.0480   46.7280 H   0  0  0  0  0  0  0  0  0  0  0  0
   47.4950   31.3080   47.6480 H   0  0  0  0  0  0  0  0  0  0  0  0
   47.6350   32.9910   48.5200 H   0  0  0  0  0  0  0  0  0  0  0  0
   45.0190   31.4400   48.0440 H   0  0  0  0  0  0  0  0  0  0  0  0
   45.1690   33.1310   48.8240 H   0  0  0  0  0  0  0  0  0  0  0  0
   42.8440   35.4720   40.6660 O   0  0  0  0  0  0  0  0  0  0  0  0
   41.6100   35.6160   41.2030 C   0  0  0  0  0  0  0  0  0  0  0  0
   41.5180   35.7080   42.3100 H   0  0  0  0  0  0  0  0  0  0  0  0
   41.1440   36.5740   40.8270 H   0  0  0  0  0  0  0  0  0  0  0  0
   41.0730   33.2490   41.2710 C   0  0  0  0  0  0  0  0  0  0  0  0
   40.6540   34.5180   40.8560 C   0  0  0  0  0  0  0  0  0  0  0  0
   39.4670   34.6450   40.2290 C   0  0  0  0  0  0  0  0  0  0  0  0
   38.7670   33.5220   40.0490 N   0  0  0  0  0  0  0  0  0  0  0  0
   39.1420   32.3060   40.4350 C   0  0  0  0  0  0  0  0  0  0  0  0
   40.3650   32.1320   41.0870 N   0  0  0  0  0  0  0  0  0  0  0  0
   42.0140   33.0790   41.7780 H   0  0  0  0  0  0  0  0  0  0  0  0
   39.1790   35.6290   39.9250 H   0  0  0  0  0  0  0  0  0  0  0  0
   38.3330   31.1090   40.2120 C   0  0  0  0  0  0  0  0  0  0  0  0
   37.5090   30.7080   41.2450 C   0  0  0  0  0  3  0  0  0  0  0  0
   36.7470   29.5600   41.0030 C   0  0  0  0  0  0  0  0  0  0  0  0
   36.1040   29.2550   41.8200 H   0  0  0  0  0  0  0  0  0  0  0  0
   36.8060   28.8830   39.8430 N   0  0  0  0  0  0  0  0  0  0  0  0
   37.6230   29.3110   38.8650 C   0  0  0  0  0  3  0  0  0  0  0  0
   38.3870   30.4280   39.0540 N   0  0  0  0  0  0  0  0  0  0  0  0
  1  2  2  0  0  0  0
  2  3  1  0  0  0  0
  3  4  1  0  0  0  0
  3  6  1  0  0  0  0
  5  3  1  0  0  0  0
  8  7  2  6  0  0  0
  8  6  1  0  0  0  0
  8 11  1  0  0  0  0
  9  8  1  0  0  0  0
 10  9  1  0  0  0  0
 11 12  1  0  0  0  0
 12 13  1  0  0  0  0
 12 14  1  0  0  0  0
 13 14  1  0  0  0  0
 13 17  1  0  0  0  0
 14 19  1  0  0  0  0
 15 12  1  0  0  0  0
 16 13  1  0  0  0  0
 18 14  1  0  0  0  0
 20 21  1  0  0  0  0
 20  1  1  0  0  0  0
 21 22  1  0  0  0  0
 23 21  1  0  0  0  0
 24 30  1  0  0  0  0
 25 21  1  0  0  0  0
 25 24  2  0  0  0  0
 26 25  1  0  0  0  0
 27 26  2  0  0  0  0
 27 28  1  0  0  0  0
 28 29  2  0  0  0  0
 29 24  1  0  0  0  0
 31 26  1  0  0  0  0
 32 28  1  0  0  0  0
 32 33  1  0  0  0  0
 34 33  2  0  0  0  0
 34 35  1  0  0  0  0
 36 34  1  0  0  0  0
 37 38  1  0  0  0  0
 37 36  2  0  0  0  0
 38 32  2  0  0  0  0
M  END
>  <minimizedAffinity>
-4.98094034

>  <minimizedRMSD>
0.88299948

$$$$
