
 OpenBabel03252501393D

 33 35  0  0  0  0  0  0  0  0999 V2000
   36.7480   27.7960   39.7690 Cl  0  0  0  0  0  0  0  0  0  0  0  0
   37.6450   27.5620   41.2610 C   0  0  0  0  0  0  0  0  0  0  0  0
   37.9340   28.6080   42.1350 C   0  0  0  0  0  0  0  0  0  0  0  0
   38.6360   28.3630   43.2810 C   0  0  0  0  0  0  0  0  0  0  0  0
   39.0910   27.1160   43.6420 C   0  0  0  0  0  0  0  0  0  0  0  0
   38.8140   26.0530   42.7830 C   0  0  0  0  0  0  0  0  0  0  0  0
   39.3550   24.4220   43.1620 Cl  0  0  0  0  0  0  0  0  0  0  0  0
   38.1070   26.3080   41.6330 C   0  0  0  0  0  0  0  0  0  0  0  0
   38.8460   29.1950   43.9410 H   0  0  0  0  0  0  0  0  0  0  0  0
   39.6450   26.9500   44.5580 H   0  0  0  0  0  0  0  0  0  0  0  0
   37.8040   25.2130   40.7170 C   0  0  0  0  0  0  0  0  0  0  0  0
   36.6560   24.4560   40.8210 C   0  0  0  0  0  3  0  0  0  0  0  0
   36.3160   23.4100   39.9870 C   0  0  0  0  0  0  0  0  0  0  0  0
   35.4260   22.8280   40.0720 H   0  0  0  0  0  0  0  0  0  0  0  0
   37.2250   23.1520   39.0020 N   0  0  0  0  0  0  0  0  0  0  0  0
   38.3630   23.8700   38.8650 C   0  0  0  0  0  3  0  0  0  0  0  0
   38.6670   24.9000   39.7100 N   0  0  0  0  0  0  0  0  0  0  0  0
   37.4720   29.8620   41.7620 O   0  0  0  0  0  0  0  0  0  0  0  0
   38.3410   30.7280   41.0870 C   0  0  0  0  0  0  0  0  0  0  0  0
   39.6100   30.8110   41.2740 O   0  0  0  0  0  0  0  0  0  0  0  0
   37.8680   31.6280   40.0930 N   0  0  0  0  0  0  0  0  0  0  0  0
   36.8730   31.6550   39.8310 H   0  0  0  0  0  0  0  0  0  0  0  0
   38.9940   32.4070   39.5950 C   0  0  0  0  0  0  0  0  0  0  0  0
   39.4710   33.5610   40.1830 C   0  0  0  0  0  0  0  0  0  0  0  0
   40.5490   34.1610   39.5660 C   0  0  0  0  0  0  0  0  0  0  0  0
   41.0480   33.5890   38.4530 N   0  0  0  0  0  0  0  0  0  0  0  0
   40.5530   32.4600   37.9110 C   0  0  0  0  0  0  0  0  0  0  0  0
   39.4910   31.8400   38.4910 N   0  0  0  0  0  0  0  0  0  0  0  0
   40.9320   35.0630   40.0140 H   0  0  0  0  0  0  0  0  0  0  0  0
   41.0160   32.0640   37.0100 H   0  0  0  0  0  0  0  0  0  0  0  0
   38.8220   34.0180   41.3500 N   0  0  0  0  0  0  0  0  0  0  0  0
   38.9710   33.5110   42.2520 H   0  0  0  0  0  0  0  0  0  0  0  0
   38.1830   34.8560   41.3740 H   0  0  0  0  0  0  0  0  0  0  0  0
  1  2  1  0  0  0  0
  2  8  2  0  0  0  0
  2  3  1  0  0  0  0
  3  4  2  0  0  0  0
  4  5  1  0  0  0  0
  4  9  1  0  0  0  0
  5 10  1  0  0  0  0
  6  7  1  0  0  0  0
  6  5  2  0  0  0  0
  8  6  1  0  0  0  0
 11 12  1  0  0  0  0
 11  8  1  0  0  0  0
 13 14  1  0  0  0  0
 13 12  2  0  0  0  0
 15 13  1  0  0  0  0
 16 15  2  0  0  0  0
 16 17  1  0  0  0  0
 17 11  2  0  0  0  0
 18  3  1  0  0  0  0
 19 20  2  0  0  0  0
 19 18  1  0  0  0  0
 21 19  1  0  0  0  0
 22 21  1  0  0  0  0
 23 21  1  0  0  0  0
 23 24  1  0  0  0  0
 24 31  1  0  0  0  0
 25 29  1  0  0  0  0
 25 24  2  0  0  0  0
 26 25  1  0  0  0  0
 27 26  2  0  0  0  0
 27 28  1  0  0  0  0
 28 23  2  0  0  0  0
 30 27  1  0  0  0  0
 31 33  1  0  0  0  0
 31 32  1  0  0  0  0
M  END
>  <minimizedAffinity>
-5.90452623

$$$$

 OpenBabel03252501393D

 33 35  0  0  0  0  0  0  0  0999 V2000
   39.0240   29.0690   42.0450 Cl  0  0  0  0  0  0  0  0  0  0  0  0
   37.9230   29.2820   40.6920 C   0  0  0  0  0  0  0  0  0  0  0  0
   37.6000   30.5360   40.1790 C   0  0  0  0  0  0  0  0  0  0  0  0
   36.7360   30.6370   39.1250 C   0  0  0  0  0  0  0  0  0  0  0  0
   36.1460   29.5530   38.5170 C   0  0  0  0  0  0  0  0  0  0  0  0
   36.4540   28.2870   39.0150 C   0  0  0  0  0  0  0  0  0  0  0  0
   35.7490   26.8410   38.3020 Cl  0  0  0  0  0  0  0  0  0  0  0  0
   37.3240   28.1940   40.0750 C   0  0  0  0  0  0  0  0  0  0  0  0
   36.5030   31.6240   38.7460 H   0  0  0  0  0  0  0  0  0  0  0  0
   35.4650   29.6630   37.6830 H   0  0  0  0  0  0  0  0  0  0  0  0
   37.6630   26.8810   40.6130 C   0  0  0  0  0  0  0  0  0  0  0  0
   36.9270   26.2760   41.6100 C   0  0  0  0  0  3  0  0  0  0  0  0
   37.1970   25.0380   42.1580 C   0  0  0  0  0  0  0  0  0  0  0  0
   36.6240   24.5750   42.9290 H   0  0  0  0  0  0  0  0  0  0  0  0
   38.2920   24.4130   41.6340 N   0  0  0  0  0  0  0  0  0  0  0  0
   39.0410   24.9720   40.6560 C   0  0  0  0  0  3  0  0  0  0  0  0
   38.7430   26.1990   40.1360 N   0  0  0  0  0  0  0  0  0  0  0  0
   38.1990   31.6240   40.7970 O   0  0  0  0  0  0  0  0  0  0  0  0
   39.2650   32.2630   40.1530 C   0  0  0  0  0  0  0  0  0  0  0  0
   39.3590   33.5260   39.9340 O   0  0  0  0  0  0  0  0  0  0  0  0
   40.3830   31.5320   39.6650 N   0  0  0  0  0  0  0  0  0  0  0  0
   40.4450   30.5130   39.7880 H   0  0  0  0  0  0  0  0  0  0  0  0
   41.3060   32.4620   39.0270 C   0  0  0  0  0  0  0  0  0  0  0  0
   41.2160   32.8810   37.7160 C   0  0  0  0  0  0  0  0  0  0  0  0
   42.1840   33.7660   37.2890 C   0  0  0  0  0  0  0  0  0  0  0  0
   43.1310   34.1500   38.1670 N   0  0  0  0  0  0  0  0  0  0  0  0
   43.1830   33.7170   39.4420 C   0  0  0  0  0  0  0  0  0  0  0  0
   42.2460   32.8440   39.8970 N   0  0  0  0  0  0  0  0  0  0  0  0
   42.1260   34.1030   36.2670 H   0  0  0  0  0  0  0  0  0  0  0  0
   43.9810   34.0770   40.0860 H   0  0  0  0  0  0  0  0  0  0  0  0
   40.1540   32.3740   36.9370 N   0  0  0  0  0  0  0  0  0  0  0  0
   39.1830   32.7240   37.1030 H   0  0  0  0  0  0  0  0  0  0  0  0
   40.2770   31.6490   36.1810 H   0  0  0  0  0  0  0  0  0  0  0  0
  2  1  1  0  0  0  0
  3  2  1  0  0  0  0
  3 18  1  0  0  0  0
  4  3  2  0  0  0  0
  5  6  2  0  0  0  0
  5  4  1  0  0  0  0
  6  8  1  0  0  0  0
  7  6  1  0  0  0  0
  8 11  1  0  0  0  0
  8  2  2  0  0  0  0
  9  4  1  0  0  0  0
 10  5  1  0  0  0  0
 11 12  1  0  0  0  0
 12 13  2  0  0  0  0
 13 14  1  0  0  0  0
 15 13  1  0  0  0  0
 16 15  2  0  0  0  0
 17 11  2  0  0  0  0
 17 16  1  0  0  0  0
 19 18  1  0  0  0  0
 20 19  2  0  0  0  0
 21 22  1  0  0  0  0
 21 19  1  0  0  0  0
 23 21  1  0  0  0  0
 23 28  1  0  0  0  0
 24 23  2  0  0  0  0
 25 24  1  0  0  0  0
 25 26  2  0  0  0  0
 26 27  1  0  0  0  0
 27 28  2  0  0  0  0
 27 30  1  0  0  0  0
 29 25  1  0  0  0  0
 31 32  1  0  0  0  0
 31 24  1  0  0  0  0
 33 31  1  0  0  0  0
M  END
>  <minimizedAffinity>
-5.58935022

$$$$

 OpenBabel03252501393D

 33 35  0  0  0  0  0  0  0  0999 V2000
   40.8720   29.9180   41.0580 Cl  0  0  0  0  0  0  0  0  0  0  0  0
   39.1750   30.3700   40.9980 C   0  0  0  0  0  0  0  0  0  0  0  0
   38.1770   29.6200   41.6140 C   0  0  0  0  0  0  0  0  0  0  0  0
   36.8740   30.0230   41.5310 C   0  0  0  0  0  0  0  0  0  0  0  0
   36.4690   31.1540   40.8600 C   0  0  0  0  0  0  0  0  0  0  0  0
   37.4510   31.9210   40.2350 C   0  0  0  0  0  0  0  0  0  0  0  0
   37.0280   33.3840   39.3530 Cl  0  0  0  0  0  0  0  0  0  0  0  0
   38.7590   31.5090   40.3230 C   0  0  0  0  0  0  0  0  0  0  0  0
   36.1190   29.4210   42.0190 H   0  0  0  0  0  0  0  0  0  0  0  0
   35.4280   31.4500   40.8110 H   0  0  0  0  0  0  0  0  0  0  0  0
   39.8050   32.2940   39.6780 C   0  0  0  0  0  0  0  0  0  0  0  0
   40.4760   33.3100   40.3260 C   0  0  0  0  0  3  0  0  0  0  0  0
   41.4730   34.0860   39.7690 C   0  0  0  0  0  0  0  0  0  0  0  0
   41.9880   34.8700   40.2750 H   0  0  0  0  0  0  0  0  0  0  0  0
   41.7740   33.7770   38.4730 N   0  0  0  0  0  0  0  0  0  0  0  0
   41.1400   32.7890   37.8020 C   0  0  0  0  0  3  0  0  0  0  0  0
   40.1580   32.0400   38.3860 N   0  0  0  0  0  0  0  0  0  0  0  0
   38.5940   28.4810   42.2880 O   0  0  0  0  0  0  0  0  0  0  0  0
   38.3970   27.2320   41.6870 C   0  0  0  0  0  0  0  0  0  0  0  0
   39.0890   26.7500   40.7160 O   0  0  0  0  0  0  0  0  0  0  0  0
   37.3670   26.3530   42.1220 N   0  0  0  0  0  0  0  0  0  0  0  0
   36.7480   26.6070   42.9030 H   0  0  0  0  0  0  0  0  0  0  0  0
   37.3970   25.1540   41.2940 C   0  0  0  0  0  0  0  0  0  0  0  0
   38.1410   24.0270   41.5730 C   0  0  0  0  0  0  0  0  0  0  0  0
   38.0400   22.9890   40.6700 C   0  0  0  0  0  0  0  0  0  0  0  0
   37.2370   23.1490   39.6000 N   0  0  0  0  0  0  0  0  0  0  0  0
   36.5250   24.2680   39.3640 C   0  0  0  0  0  0  0  0  0  0  0  0
   36.6000   25.3110   40.2320 N   0  0  0  0  0  0  0  0  0  0  0  0
   38.6160   22.1010   40.8750 H   0  0  0  0  0  0  0  0  0  0  0  0
   35.9010   24.3150   38.4760 H   0  0  0  0  0  0  0  0  0  0  0  0
   38.9290   24.0340   42.7430 N   0  0  0  0  0  0  0  0  0  0  0  0
   38.4650   23.9440   43.6760 H   0  0  0  0  0  0  0  0  0  0  0  0
   39.9790   24.1270   42.7410 H   0  0  0  0  0  0  0  0  0  0  0  0
  2  1  1  0  0  0  0
  2  3  1  0  0  0  0
  3 18  1  0  0  0  0
  4  3  2  0  0  0  0
  4  9  1  0  0  0  0
  5  4  1  0  0  0  0
  6  8  1  0  0  0  0
  6  5  2  0  0  0  0
  7  6  1  0  0  0  0
  8  2  2  0  0  0  0
 10  5  1  0  0  0  0
 11  8  1  0  0  0  0
 11 12  1  0  0  0  0
 13 14  1  0  0  0  0
 13 12  2  0  0  0  0
 15 13  1  0  0  0  0
 16 17  1  0  0  0  0
 16 15  2  0  0  0  0
 17 11  2  0  0  0  0
 19 21  1  0  0  0  0
 19 18  1  0  0  0  0
 20 19  2  0  0  0  0
 21 22  1  0  0  0  0
 23 24  1  0  0  0  0
 23 21  1  0  0  0  0
 24 31  1  0  0  0  0
 25 29  1  0  0  0  0
 25 24  2  0  0  0  0
 26 25  1  0  0  0  0
 27 26  2  0  0  0  0
 27 28  1  0  0  0  0
 28 23  2  0  0  0  0
 30 27  1  0  0  0  0
 31 32  1  0  0  0  0
 33 31  1  0  0  0  0
M  END
>  <minimizedAffinity>
-5.5147891

$$$$

 OpenBabel03252501393D

 33 35  0  0  0  0  0  0  0  0999 V2000
   35.9300   27.3630   38.2170 Cl  0  0  0  0  0  0  0  0  0  0  0  0
   36.4340   27.1130   39.8810 C   0  0  0  0  0  0  0  0  0  0  0  0
   36.4820   28.1470   40.8140 C   0  0  0  0  0  0  0  0  0  0  0  0
   36.8830   27.8900   42.0940 C   0  0  0  0  0  0  0  0  0  0  0  0
   37.2540   26.6410   42.5390 C   0  0  0  0  0  0  0  0  0  0  0  0
   37.2150   25.5910   41.6230 C   0  0  0  0  0  0  0  0  0  0  0  0
   37.6700   23.9600   42.1000 Cl  0  0  0  0  0  0  0  0  0  0  0  0
   36.8090   25.8580   40.3370 C   0  0  0  0  0  0  0  0  0  0  0  0
   36.9110   28.7120   42.7970 H   0  0  0  0  0  0  0  0  0  0  0  0
   37.5680   26.4660   43.5610 H   0  0  0  0  0  0  0  0  0  0  0  0
   36.7590   24.7760   39.3600 C   0  0  0  0  0  0  0  0  0  0  0  0
   35.6390   23.9920   39.1790 C   0  0  0  0  0  3  0  0  0  0  0  0
   35.5320   22.9570   38.2710 C   0  0  0  0  0  0  0  0  0  0  0  0
   34.6630   22.3550   38.1350 H   0  0  0  0  0  0  0  0  0  0  0  0
   36.6540   22.7390   37.5250 N   0  0  0  0  0  0  0  0  0  0  0  0
   37.7730   23.4840   37.6720 C   0  0  0  0  0  3  0  0  0  0  0  0
   37.8430   24.5020   38.5800 N   0  0  0  0  0  0  0  0  0  0  0  0
   36.1070   29.4020   40.3570 O   0  0  0  0  0  0  0  0  0  0  0  0
   37.0880   30.3920   40.2230 C   0  0  0  0  0  0  0  0  0  0  0  0
   37.8440   30.5630   39.1980 O   0  0  0  0  0  0  0  0  0  0  0  0
   37.3400   31.3320   41.2600 N   0  0  0  0  0  0  0  0  0  0  0  0
   36.7940   31.3200   42.1310 H   0  0  0  0  0  0  0  0  0  0  0  0
   38.4240   32.2100   40.8400 C   0  0  0  0  0  0  0  0  0  0  0  0
   38.2590   33.3680   40.1090 C   0  0  0  0  0  0  0  0  0  0  0  0
   39.4070   34.0690   39.8060 C   0  0  0  0  0  0  0  0  0  0  0  0
   40.5870   33.5800   40.2360 N   0  0  0  0  0  0  0  0  0  0  0  0
   40.7060   32.4430   40.9480 C   0  0  0  0  0  0  0  0  0  0  0  0
   39.5960   31.7260   41.2660 N   0  0  0  0  0  0  0  0  0  0  0  0
   39.2940   34.9760   39.2350 H   0  0  0  0  0  0  0  0  0  0  0  0
   41.6960   32.1190   41.2570 H   0  0  0  0  0  0  0  0  0  0  0  0
   36.9450   33.7300   39.7430 N   0  0  0  0  0  0  0  0  0  0  0  0
   36.2950   34.1090   40.4690 H   0  0  0  0  0  0  0  0  0  0  0  0
   36.5650   33.6410   38.7630 H   0  0  0  0  0  0  0  0  0  0  0  0
  1  2  1  0  0  0  0
  2  8  2  0  0  0  0
  2  3  1  0  0  0  0
  3  4  2  0  0  0  0
  4  5  1  0  0  0  0
  4  9  1  0  0  0  0
  5 10  1  0  0  0  0
  6  7  1  0  0  0  0
  6  5  2  0  0  0  0
  8  6  1  0  0  0  0
 11  8  1  0  0  0  0
 12 11  1  0  0  0  0
 13 12  2  0  0  0  0
 14 13  1  0  0  0  0
 15 16  2  0  0  0  0
 15 13  1  0  0  0  0
 16 17  1  0  0  0  0
 17 11  2  0  0  0  0
 18  3  1  0  0  0  0
 19 18  1  0  0  0  0
 19 21  1  0  0  0  0
 20 19  2  0  0  0  0
 21 22  1  0  0  0  0
 23 21  1  0  0  0  0
 23 28  1  0  0  0  0
 24 23  2  0  0  0  0
 25 24  1  0  0  0  0
 25 26  2  0  0  0  0
 26 27  1  0  0  0  0
 27 30  1  0  0  0  0
 27 28  2  0  0  0  0
 29 25  1  0  0  0  0
 31 24  1  0  0  0  0
 31 32  1  0  0  0  0
 33 31  1  0  0  0  0
M  END
>  <minimizedAffinity>
-5.51253939

$$$$

 OpenBabel03252501393D

 33 35  0  0  0  0  0  0  0  0999 V2000
   37.3640   30.9310   37.1200 Cl  0  0  0  0  0  0  0  0  0  0  0  0
   37.5460   30.7290   38.8550 C   0  0  0  0  0  0  0  0  0  0  0  0
   38.3220   31.5860   39.6330 C   0  0  0  0  0  0  0  0  0  0  0  0
   38.4250   31.3770   40.9790 C   0  0  0  0  0  0  0  0  0  0  0  0
   37.7960   30.3470   41.6390 C   0  0  0  0  0  0  0  0  0  0  0  0
   37.0140   29.4760   40.8820 C   0  0  0  0  0  0  0  0  0  0  0  0
   36.1710   28.1300   41.6390 Cl  0  0  0  0  0  0  0  0  0  0  0  0
   36.9150   29.6930   39.5280 C   0  0  0  0  0  0  0  0  0  0  0  0
   39.0350   32.0590   41.5580 H   0  0  0  0  0  0  0  0  0  0  0  0
   37.8950   30.2050   42.7080 H   0  0  0  0  0  0  0  0  0  0  0  0
   36.1030   28.7960   38.7140 C   0  0  0  0  0  0  0  0  0  0  0  0
   34.7690   29.0330   38.4540 C   0  0  0  0  0  3  0  0  0  0  0  0
   33.9520   28.2230   37.6920 C   0  0  0  0  0  0  0  0  0  0  0  0
   32.9210   28.4110   37.4950 H   0  0  0  0  0  0  0  0  0  0  0  0
   34.5670   27.1150   37.1830 N   0  0  0  0  0  0  0  0  0  0  0  0
   35.8720   26.8460   37.4140 C   0  0  0  0  0  3  0  0  0  0  0  0
   36.6520   27.6710   38.1730 N   0  0  0  0  0  0  0  0  0  0  0  0
   38.9530   32.6220   38.9580 O   0  0  0  0  0  0  0  0  0  0  0  0
   40.2920   32.4630   38.5800 C   0  0  0  0  0  0  0  0  0  0  0  0
   41.2250   31.9750   39.3180 O   0  0  0  0  0  0  0  0  0  0  0  0
   40.7490   32.8480   37.2900 N   0  0  0  0  0  0  0  0  0  0  0  0
   40.1020   33.2390   36.5920 H   0  0  0  0  0  0  0  0  0  0  0  0
   42.1800   32.5870   37.2060 C   0  0  0  0  0  0  0  0  0  0  0  0
   42.7370   31.3860   36.8200 C   0  0  0  0  0  0  0  0  0  0  0  0
   44.1160   31.3290   36.8010 C   0  0  0  0  0  0  0  0  0  0  0  0
   44.8060   32.4300   37.1560 N   0  0  0  0  0  0  0  0  0  0  0  0
   44.2220   33.5860   37.5270 C   0  0  0  0  0  0  0  0  0  0  0  0
   42.8660   33.6790   37.5570 N   0  0  0  0  0  0  0  0  0  0  0  0
   44.5650   30.3960   36.5020 H   0  0  0  0  0  0  0  0  0  0  0  0
   44.8530   34.4290   37.7980 H   0  0  0  0  0  0  0  0  0  0  0  0
   41.8590   30.3340   36.4820 N   0  0  0  0  0  0  0  0  0  0  0  0
   41.3400   30.3710   35.5750 H   0  0  0  0  0  0  0  0  0  0  0  0
   41.6870   29.4950   37.0960 H   0  0  0  0  0  0  0  0  0  0  0  0
  1  2  1  0  0  0  0
  2  8  2  0  0  0  0
  2  3  1  0  0  0  0
  3  4  2  0  0  0  0
  4  9  1  0  0  0  0
  4  5  1  0  0  0  0
  5 10  1  0  0  0  0
  6  7  1  0  0  0  0
  6  5  2  0  0  0  0
  8  6  1  0  0  0  0
 11  8  1  0  0  0  0
 12 11  1  0  0  0  0
 13 12  2  0  0  0  0
 14 13  1  0  0  0  0
 15 16  2  0  0  0  0
 15 13  1  0  0  0  0
 16 17  1  0  0  0  0
 17 11  2  0  0  0  0
 18  3  1  0  0  0  0
 19 18  1  0  0  0  0
 19 20  2  0  0  0  0
 21 19  1  0  0  0  0
 22 21  1  0  0  0  0
 23 21  1  0  0  0  0
 23 28  1  0  0  0  0
 24 23  2  0  0  0  0
 25 24  1  0  0  0  0
 25 26  2  0  0  0  0
 26 27  1  0  0  0  0
 27 28  2  0  0  0  0
 27 30  1  0  0  0  0
 29 25  1  0  0  0  0
 31 24  1  0  0  0  0
 31 33  1  0  0  0  0
 32 31  1  0  0  0  0
M  END
>  <minimizedAffinity>
-5.4787569

$$$$

 OpenBabel03252501393D

 33 35  0  0  0  0  0  0  0  0999 V2000
   38.7310   27.2500   38.4720 Cl  0  0  0  0  0  0  0  0  0  0  0  0
   38.1140   28.2840   39.7520 C   0  0  0  0  0  0  0  0  0  0  0  0
   37.9670   29.6600   39.6000 C   0  0  0  0  0  0  0  0  0  0  0  0
   37.4810   30.4110   40.6320 C   0  0  0  0  0  0  0  0  0  0  0  0
   37.1160   29.8840   41.8500 C   0  0  0  0  0  0  0  0  0  0  0  0
   37.2560   28.5080   42.0260 C   0  0  0  0  0  0  0  0  0  0  0  0
   36.8140   27.7450   43.5490 Cl  0  0  0  0  0  0  0  0  0  0  0  0
   37.7440   27.7600   40.9820 C   0  0  0  0  0  0  0  0  0  0  0  0
   37.3770   31.4780   40.4850 H   0  0  0  0  0  0  0  0  0  0  0  0
   36.7330   30.5040   42.6520 H   0  0  0  0  0  0  0  0  0  0  0  0
   37.8990   26.3180   41.1410 C   0  0  0  0  0  0  0  0  0  0  0  0
   39.0510   25.7470   41.6410 C   0  0  0  0  0  3  0  0  0  0  0  0
   39.2550   24.3930   41.8140 C   0  0  0  0  0  0  0  0  0  0  0  0
   40.1480   23.9570   42.2010 H   0  0  0  0  0  0  0  0  0  0  0  0
   38.2010   23.6080   41.4440 N   0  0  0  0  0  0  0  0  0  0  0  0
   37.0540   24.1280   40.9500 C   0  0  0  0  0  3  0  0  0  0  0  0
   36.8870   25.4750   40.7930 N   0  0  0  0  0  0  0  0  0  0  0  0
   38.3370   30.1830   38.3690 O   0  0  0  0  0  0  0  0  0  0  0  0
   39.6010   30.7730   38.2390 C   0  0  0  0  0  0  0  0  0  0  0  0
   40.5870   30.6160   39.0490 O   0  0  0  0  0  0  0  0  0  0  0  0
   39.9100   31.6340   37.1510 N   0  0  0  0  0  0  0  0  0  0  0  0
   39.2160   31.8330   36.4180 H   0  0  0  0  0  0  0  0  0  0  0  0
   41.2790   32.1070   37.3050 C   0  0  0  0  0  0  0  0  0  0  0  0
   42.3990   31.4200   36.8850 C   0  0  0  0  0  0  0  0  0  0  0  0
   43.6140   32.0310   37.1180 C   0  0  0  0  0  0  0  0  0  0  0  0
   43.6190   33.2310   37.7290 N   0  0  0  0  0  0  0  0  0  0  0  0
   42.5010   33.8700   38.1240 C   0  0  0  0  0  0  0  0  0  0  0  0
   41.2860   33.2990   37.9110 N   0  0  0  0  0  0  0  0  0  0  0  0
   44.4980   31.5050   36.7950 H   0  0  0  0  0  0  0  0  0  0  0  0
   42.5940   34.8370   38.6110 H   0  0  0  0  0  0  0  0  0  0  0  0
   42.2050   30.1700   36.2600 N   0  0  0  0  0  0  0  0  0  0  0  0
   41.8330   30.1360   35.2840 H   0  0  0  0  0  0  0  0  0  0  0  0
   42.4150   29.2460   36.7230 H   0  0  0  0  0  0  0  0  0  0  0  0
  1  2  1  0  0  0  0
  2  8  1  0  0  0  0
  3  2  2  0  0  0  0
  3  4  1  0  0  0  0
  4  5  2  0  0  0  0
  5  6  1  0  0  0  0
  5 10  1  0  0  0  0
  6  7  1  0  0  0  0
  8 11  1  0  0  0  0
  8  6  2  0  0  0  0
  9  4  1  0  0  0  0
 11 12  1  0  0  0  0
 12 13  2  0  0  0  0
 13 14  1  0  0  0  0
 15 13  1  0  0  0  0
 16 15  2  0  0  0  0
 17 16  1  0  0  0  0
 17 11  2  0  0  0  0
 18  3  1  0  0  0  0
 19 18  1  0  0  0  0
 19 20  2  0  0  0  0
 21 23  1  0  0  0  0
 21 19  1  0  0  0  0
 22 21  1  0  0  0  0
 23 28  1  0  0  0  0
 24 25  1  0  0  0  0
 24 23  2  0  0  0  0
 25 26  2  0  0  0  0
 26 27  1  0  0  0  0
 27 30  1  0  0  0  0
 28 27  2  0  0  0  0
 29 25  1  0  0  0  0
 31 33  1  0  0  0  0
 31 24  1  0  0  0  0
 32 31  1  0  0  0  0
M  END
>  <minimizedAffinity>
-5.45370865

$$$$

 OpenBabel03252501393D

 33 35  0  0  0  0  0  0  0  0999 V2000
   38.7070   29.2470   37.3950 Cl  0  0  0  0  0  0  0  0  0  0  0  0
   38.2250   29.7580   39.0060 C   0  0  0  0  0  0  0  0  0  0  0  0
   38.3760   31.0680   39.4530 C   0  0  0  0  0  0  0  0  0  0  0  0
   37.9820   31.4040   40.7170 C   0  0  0  0  0  0  0  0  0  0  0  0
   37.4300   30.5100   41.6050 C   0  0  0  0  0  0  0  0  0  0  0  0
   37.2690   29.1920   41.1790 C   0  0  0  0  0  0  0  0  0  0  0  0
   36.5710   27.9780   42.2450 Cl  0  0  0  0  0  0  0  0  0  0  0  0
   37.6670   28.8620   39.9060 C   0  0  0  0  0  0  0  0  0  0  0  0
   38.1110   32.4300   41.0390 H   0  0  0  0  0  0  0  0  0  0  0  0
   37.1260   30.8050   42.6020 H   0  0  0  0  0  0  0  0  0  0  0  0
   37.5100   27.4900   39.4360 C   0  0  0  0  0  0  0  0  0  0  0  0
   36.3640   27.0480   38.8100 C   0  0  0  0  0  3  0  0  0  0  0  0
   36.1570   25.7650   38.3450 C   0  0  0  0  0  0  0  0  0  0  0  0
   35.2690   25.4280   37.8610 H   0  0  0  0  0  0  0  0  0  0  0  0
   37.2030   24.9120   38.5500 N   0  0  0  0  0  0  0  0  0  0  0  0
   38.3440   25.3050   39.1610 C   0  0  0  0  0  3  0  0  0  0  0  0
   38.5140   26.5840   39.6080 N   0  0  0  0  0  0  0  0  0  0  0  0
   38.9340   31.9620   38.5520 O   0  0  0  0  0  0  0  0  0  0  0  0
   40.2560   32.3820   38.7480 C   0  0  0  0  0  0  0  0  0  0  0  0
   41.2590   31.6120   38.9770 O   0  0  0  0  0  0  0  0  0  0  0  0
   40.6110   33.7580   38.7090 N   0  0  0  0  0  0  0  0  0  0  0  0
   39.9070   34.4830   38.5180 H   0  0  0  0  0  0  0  0  0  0  0  0
   42.0390   33.8780   38.9730 C   0  0  0  0  0  0  0  0  0  0  0  0
   43.0030   34.0700   38.0040 C   0  0  0  0  0  0  0  0  0  0  0  0
   44.3060   34.1610   38.4470 C   0  0  0  0  0  0  0  0  0  0  0  0
   44.5400   34.0550   39.7700 N   0  0  0  0  0  0  0  0  0  0  0  0
   43.5690   33.8680   40.6850 C   0  0  0  0  0  0  0  0  0  0  0  0
   42.2730   33.7740   40.2850 N   0  0  0  0  0  0  0  0  0  0  0  0
   45.0700   34.3110   37.7020 H   0  0  0  0  0  0  0  0  0  0  0  0
   43.8440   33.7930   41.7330 H   0  0  0  0  0  0  0  0  0  0  0  0
   42.5750   34.1580   36.6620 N   0  0  0  0  0  0  0  0  0  0  0  0
   42.0890   35.0240   36.3340 H   0  0  0  0  0  0  0  0  0  0  0  0
   42.7150   33.3920   35.9520 H   0  0  0  0  0  0  0  0  0  0  0  0
  1  2  1  0  0  0  0
  2  3  2  0  0  0  0
  2  8  1  0  0  0  0
  3  4  1  0  0  0  0
  4  9  1  0  0  0  0
  4  5  2  0  0  0  0
  5 10  1  0  0  0  0
  6  5  1  0  0  0  0
  6  7  1  0  0  0  0
  8  6  2  0  0  0  0
 11 17  1  0  0  0  0
 11  8  1  0  0  0  0
 12 11  2  0  0  0  0
 13 15  2  0  0  0  0
 13 12  1  0  0  0  0
 14 13  1  0  0  0  0
 15 16  1  0  0  0  0
 16 17  2  0  0  0  0
 18 19  1  0  0  0  0
 18  3  1  0  0  0  0
 19 20  2  0  0  0  0
 21 19  1  0  0  0  0
 21 23  1  0  0  0  0
 22 21  1  0  0  0  0
 23 28  1  0  0  0  0
 24 25  1  0  0  0  0
 24 23  2  0  0  0  0
 25 26  2  0  0  0  0
 26 27  1  0  0  0  0
 27 30  1  0  0  0  0
 28 27  2  0  0  0  0
 29 25  1  0  0  0  0
 31 24  1  0  0  0  0
 32 31  1  0  0  0  0
 33 31  1  0  0  0  0
M  END
>  <minimizedAffinity>
-5.36470413

$$$$

 OpenBabel03252501393D

 33 35  0  0  0  0  0  0  0  0999 V2000
   37.2780   28.0380   37.6380 Cl  0  0  0  0  0  0  0  0  0  0  0  0
   37.0770   28.1400   39.3800 C   0  0  0  0  0  0  0  0  0  0  0  0
   36.8980   29.3500   40.0450 C   0  0  0  0  0  0  0  0  0  0  0  0
   36.7480   29.3650   41.4030 C   0  0  0  0  0  0  0  0  0  0  0  0
   36.7620   28.2310   42.1820 C   0  0  0  0  0  0  0  0  0  0  0  0
   36.9400   27.0070   41.5380 C   0  0  0  0  0  0  0  0  0  0  0  0
   36.9700   25.5030   42.4510 Cl  0  0  0  0  0  0  0  0  0  0  0  0
   37.0900   27.0010   40.1720 C   0  0  0  0  0  0  0  0  0  0  0  0
   36.6110   30.3200   41.8930 H   0  0  0  0  0  0  0  0  0  0  0  0
   36.6400   28.2720   43.2570 H   0  0  0  0  0  0  0  0  0  0  0  0
   37.2770   25.7340   39.4750 C   0  0  0  0  0  0  0  0  0  0  0  0
   36.2210   24.9860   38.9990 C   0  0  0  0  0  3  0  0  0  0  0  0
   36.3360   23.7820   38.3320 C   0  0  0  0  0  0  0  0  0  0  0  0
   35.5150   23.2090   37.9660 H   0  0  0  0  0  0  0  0  0  0  0  0
   37.6190   23.3480   38.1630 N   0  0  0  0  0  0  0  0  0  0  0  0
   38.6830   24.0510   38.6150 C   0  0  0  0  0  3  0  0  0  0  0  0
   38.5320   25.2400   39.2700 N   0  0  0  0  0  0  0  0  0  0  0  0
   36.8870   30.4890   39.2520 O   0  0  0  0  0  0  0  0  0  0  0  0
   37.9970   31.3420   39.2800 C   0  0  0  0  0  0  0  0  0  0  0  0
   37.9540   32.6240   39.3700 O   0  0  0  0  0  0  0  0  0  0  0  0
   39.3240   30.8360   39.2060 N   0  0  0  0  0  0  0  0  0  0  0  0
   39.5040   29.8250   39.1470 H   0  0  0  0  0  0  0  0  0  0  0  0
   40.2530   31.9580   39.2310 C   0  0  0  0  0  0  0  0  0  0  0  0
   40.6280   32.6910   38.1250 C   0  0  0  0  0  0  0  0  0  0  0  0
   41.5200   33.7190   38.3460 C   0  0  0  0  0  0  0  0  0  0  0  0
   41.9540   33.9290   39.6040 N   0  0  0  0  0  0  0  0  0  0  0  0
   41.5620   33.1890   40.6600 C   0  0  0  0  0  0  0  0  0  0  0  0
   40.6840   32.1680   40.4790 N   0  0  0  0  0  0  0  0  0  0  0  0
   41.8230   34.3010   37.4910 H   0  0  0  0  0  0  0  0  0  0  0  0
   41.9610   33.4250   41.6430 H   0  0  0  0  0  0  0  0  0  0  0  0
   40.0720   32.3290   36.8790 N   0  0  0  0  0  0  0  0  0  0  0  0
   39.0720   32.5590   36.6770 H   0  0  0  0  0  0  0  0  0  0  0  0
   40.6090   31.8310   36.1210 H   0  0  0  0  0  0  0  0  0  0  0  0
  1  2  1  0  0  0  0
  2  3  2  0  0  0  0
  2  8  1  0  0  0  0
  3  4  1  0  0  0  0
  4  9  1  0  0  0  0
  4  5  2  0  0  0  0
  5 10  1  0  0  0  0
  6  5  1  0  0  0  0
  6  7  1  0  0  0  0
  8  6  2  0  0  0  0
 11  8  1  0  0  0  0
 12 11  2  0  0  0  0
 13 12  1  0  0  0  0
 14 13  1  0  0  0  0
 15 13  2  0  0  0  0
 15 16  1  0  0  0  0
 16 17  2  0  0  0  0
 17 11  1  0  0  0  0
 18 19  1  0  0  0  0
 18  3  1  0  0  0  0
 19 20  2  0  0  0  0
 21 23  1  0  0  0  0
 21 19  1  0  0  0  0
 22 21  1  0  0  0  0
 23 28  1  0  0  0  0
 24 25  1  0  0  0  0
 24 23  2  0  0  0  0
 25 26  2  0  0  0  0
 26 27  1  0  0  0  0
 27 30  1  0  0  0  0
 28 27  2  0  0  0  0
 29 25  1  0  0  0  0
 31 24  1  0  0  0  0
 32 31  1  0  0  0  0
 33 31  1  0  0  0  0
M  END
>  <minimizedAffinity>
-5.20505619

$$$$

 OpenBabel03252501393D

 33 35  0  0  0  0  0  0  0  0999 V2000
   40.4650   28.5360   39.6000 Cl  0  0  0  0  0  0  0  0  0  0  0  0
   38.9790   29.1290   40.3270 C   0  0  0  0  0  0  0  0  0  0  0  0
   38.2060   30.1290   39.7430 C   0  0  0  0  0  0  0  0  0  0  0  0
   37.0600   30.5490   40.3570 C   0  0  0  0  0  0  0  0  0  0  0  0
   36.6040   30.0360   41.5500 C   0  0  0  0  0  0  0  0  0  0  0  0
   37.3620   29.0330   42.1530 C   0  0  0  0  0  0  0  0  0  0  0  0
   36.8580   28.3160   43.6790 Cl  0  0  0  0  0  0  0  0  0  0  0  0
   38.5130   28.6160   41.5290 C   0  0  0  0  0  0  0  0  0  0  0  0
   36.4790   31.3280   39.8810 H   0  0  0  0  0  0  0  0  0  0  0  0
   35.6910   30.3870   42.0140 H   0  0  0  0  0  0  0  0  0  0  0  0
   39.3240   27.5690   42.1400 C   0  0  0  0  0  0  0  0  0  0  0  0
   40.3080   27.8390   43.0670 C   0  0  0  0  0  3  0  0  0  0  0  0
   41.1050   26.8920   43.6790 C   0  0  0  0  0  0  0  0  0  0  0  0
   41.8640   27.1070   44.3960 H   0  0  0  0  0  0  0  0  0  0  0  0
   40.8540   25.6060   43.2950 N   0  0  0  0  0  0  0  0  0  0  0  0
   39.8990   25.2980   42.3880 C   0  0  0  0  0  3  0  0  0  0  0  0
   39.1280   26.2620   41.8030 N   0  0  0  0  0  0  0  0  0  0  0  0
   38.6740   30.6420   38.5420 O   0  0  0  0  0  0  0  0  0  0  0  0
   39.8550   31.3930   38.5430 C   0  0  0  0  0  0  0  0  0  0  0  0
   40.9780   31.0250   38.0350 O   0  0  0  0  0  0  0  0  0  0  0  0
   39.9130   32.6840   39.1360 N   0  0  0  0  0  0  0  0  0  0  0  0
   39.0810   33.1090   39.5660 H   0  0  0  0  0  0  0  0  0  0  0  0
   41.2700   33.1980   39.0040 C   0  0  0  0  0  0  0  0  0  0  0  0
   42.1520   33.3650   40.0510 C   0  0  0  0  0  0  0  0  0  0  0  0
   43.3970   33.8650   39.7300 C   0  0  0  0  0  0  0  0  0  0  0  0
   43.6560   34.1510   38.4390 N   0  0  0  0  0  0  0  0  0  0  0  0
   42.7660   33.9730   37.4440 C   0  0  0  0  0  0  0  0  0  0  0  0
   41.5300   33.4810   37.7230 N   0  0  0  0  0  0  0  0  0  0  0  0
   44.0960   34.0010   40.5380 H   0  0  0  0  0  0  0  0  0  0  0  0
   43.0570   34.2290   36.4280 H   0  0  0  0  0  0  0  0  0  0  0  0
   41.7080   33.0110   41.3440 N   0  0  0  0  0  0  0  0  0  0  0  0
   41.6170   32.0010   41.5970 H   0  0  0  0  0  0  0  0  0  0  0  0
   41.4570   33.7140   42.0890 H   0  0  0  0  0  0  0  0  0  0  0  0
  1  2  1  0  0  0  0
  2  8  1  0  0  0  0
  3  2  2  0  0  0  0
  3  4  1  0  0  0  0
  4  5  2  0  0  0  0
  5 10  1  0  0  0  0
  5  6  1  0  0  0  0
  6  7  1  0  0  0  0
  8 11  1  0  0  0  0
  8  6  2  0  0  0  0
  9  4  1  0  0  0  0
 11 12  1  0  0  0  0
 12 13  2  0  0  0  0
 13 14  1  0  0  0  0
 15 13  1  0  0  0  0
 16 15  2  0  0  0  0
 17 11  2  0  0  0  0
 17 16  1  0  0  0  0
 18 19  1  0  0  0  0
 18  3  1  0  0  0  0
 19 21  1  0  0  0  0
 20 19  2  0  0  0  0
 21 22  1  0  0  0  0
 23 21  1  0  0  0  0
 23 24  1  0  0  0  0
 24 31  1  0  0  0  0
 25 24  2  0  0  0  0
 25 29  1  0  0  0  0
 26 25  1  0  0  0  0
 27 28  1  0  0  0  0
 27 26  2  0  0  0  0
 28 23  2  0  0  0  0
 30 27  1  0  0  0  0
 31 32  1  0  0  0  0
 31 33  1  0  0  0  0
M  END
>  <minimizedAffinity>
-5.18167448

$$$$
