
 OpenBabel03252509293D

 19 20  0  0  0  0  0  0  0  0999 V2000
   46.8240   34.9670   41.9920 C   0  0  0  0  0  0  0  0  0  0  0  0
   47.9090   34.8470   42.1950 H   0  0  0  0  0  0  0  0  0  0  0  0
   46.7500   35.9930   41.5300 H   0  0  0  0  0  0  0  0  0  0  0  0
   44.5180   35.9400   44.7490 C   0  0  0  0  0  0  0  0  0  0  0  0
   45.2200   35.9580   43.5150 C   0  0  0  0  0  0  0  0  0  0  0  0
   46.1150   34.9280   43.2680 C   0  0  0  0  0  0  0  0  0  0  0  0
   46.2820   33.9530   44.2100 N   0  0  0  0  0  0  0  0  0  0  0  0
   45.5920   33.9780   45.3700 C   0  0  0  0  0  0  0  0  0  0  0  0
   44.7190   34.9620   45.6370 N   0  0  0  0  0  0  0  0  0  0  0  0
   43.8310   36.7650   44.8950 H   0  0  0  0  0  0  0  0  0  0  0  0
   45.0480   36.7470   42.8140 H   0  0  0  0  0  0  0  0  0  0  0  0
   45.7970   33.1500   46.0620 H   0  0  0  0  0  0  0  0  0  0  0  0
   46.4430   33.9250   41.0210 C   0  0  0  0  0  0  0  0  0  0  0  0
   45.1740   33.9500   40.4740 C   0  0  0  0  0  3  0  0  0  0  0  0
   44.7260   33.0060   39.5490 C   0  0  0  0  0  0  0  0  0  0  0  0
   43.7590   32.9880   39.1050 H   0  0  0  0  0  0  0  0  0  0  0  0
   45.5780   32.0350   39.1820 N   0  0  0  0  0  0  0  0  0  0  0  0
   46.8090   32.0070   39.7100 C   0  0  0  0  0  3  0  0  0  0  0  0
   47.2710   32.9170   40.6150 N   0  0  0  0  0  0  0  0  0  0  0  0
  1  2  1  0  0  0  0
  1  6  1  0  0  0  0
  3  1  1  0  0  0  0
  4 10  1  0  0  0  0
  4  9  1  0  0  0  0
  5  4  2  0  0  0  0
  6  5  1  0  0  0  0
  6  7  2  0  0  0  0
  7  8  1  0  0  0  0
  8  9  2  0  0  0  0
  8 12  1  0  0  0  0
 11  5  1  0  0  0  0
 13  1  1  0  0  0  0
 14 13  2  0  0  0  0
 15 14  1  0  0  0  0
 16 15  1  0  0  0  0
 17 15  2  0  0  0  0
 17 18  1  0  0  0  0
 18 19  2  0  0  0  0
 19 13  1  0  0  0  0
M  END
>  <minimizedAffinity>
-3.6679635

>  <minimizedRMSD>
0.623965144

$$$$
