
 OpenBabel03242519033D

 30 32  0  0  1  0  0  0  0  0999 V2000
   47.4980   33.6860   43.0360 N   0  0  0  0  0  0  0  0  0  0  0  0
   48.2500   34.0770   41.8600 C   0  0  0  0  0  0  0  0  0  0  0  0
   48.2030   32.7710   41.1200 C   0  0  2  0  0  0  0  0  0  0  0  0
   48.6580   31.8080   42.2050 C   0  0  0  0  0  0  0  0  0  0  0  0
   48.0140   32.3930   43.4410 C   0  0  0  0  0  0  0  0  0  0  0  0
   47.7670   34.8980   41.3100 H   0  0  0  0  0  0  0  0  0  0  0  0
   49.3050   34.3040   42.1200 H   0  0  0  0  0  0  0  0  0  0  0  0
   47.1630   32.5330   40.7980 H   0  0  0  0  0  0  0  0  0  0  0  0
   48.2510   30.8020   41.9770 H   0  0  0  0  0  0  0  0  0  0  0  0
   49.7550   31.8320   42.2520 H   0  0  0  0  0  0  0  0  0  0  0  0
   48.8320   32.6070   44.1760 H   0  0  0  0  0  0  0  0  0  0  0  0
   47.2370   31.7200   43.8500 H   0  0  0  0  0  0  0  0  0  0  0  0
   44.7410   35.9960   44.0270 C   0  0  0  0  0  0  0  0  0  0  0  0
   45.7450   35.4390   43.2370 C   0  0  0  0  0  0  0  0  0  0  0  0
   46.4670   34.3380   43.7270 C   0  0  0  0  0  0  0  0  0  0  0  0
   46.1200   33.8870   44.9680 N   0  0  0  0  0  0  0  0  0  0  0  0
   45.1520   34.4270   45.7230 C   0  0  0  0  0  0  0  0  0  0  0  0
   44.4600   35.4870   45.2470 N   0  0  0  0  0  0  0  0  0  0  0  0
   44.2050   36.8570   43.5960 H   0  0  0  0  0  0  0  0  0  0  0  0
   46.0320   35.7850   42.2540 H   0  0  0  0  0  0  0  0  0  0  0  0
   44.9320   34.0140   46.7000 H   0  0  0  0  0  0  0  0  0  0  0  0
   49.1440   32.6940   40.0440 N   0  0  0  0  0  0  0  0  0  0  0  0
   50.1640   32.4990   40.2850 H   0  0  0  0  0  0  0  0  0  0  0  0
   48.9400   32.8390   38.6470 C   0  0  0  0  0  0  0  0  0  0  0  0
   48.2760   33.8860   38.0460 C   0  0  0  0  0  0  0  0  0  0  0  0
   48.0690   34.0660   36.7020 C   0  0  0  0  0  0  0  0  0  0  0  0
   47.5470   34.8950   36.2800 H   0  0  0  0  0  0  0  0  0  0  0  0
   48.5800   33.1000   35.8830 N   0  0  0  0  0  0  0  0  0  0  0  0
   49.2430   32.0480   36.4370 C   0  0  0  0  0  0  0  0  0  0  0  0
   49.3940   31.9590   37.7490 N   0  0  0  0  0  0  0  0  0  0  0  0
  1  5  1  0  0  0  0
  1 15  1  0  0  0  0
  2  7  1  0  0  0  0
  2  1  1  0  0  0  0
  3  8  1  6  0  0  0
  3  2  1  0  0  0  0
  3  4  1  0  0  0  0
  4 10  1  0  0  0  0
  4  5  1  0  0  0  0
  5 12  1  0  0  0  0
  5 11  1  0  0  0  0
  6  2  1  0  0  0  0
  9  4  1  0  0  0  0
 13 18  1  0  0  0  0
 14 15  1  0  0  0  0
 14 13  2  0  0  0  0
 15 16  2  0  0  0  0
 16 17  1  0  0  0  0
 17 21  1  0  0  0  0
 18 17  2  0  0  0  0
 19 13  1  0  0  0  0
 20 14  1  0  0  0  0
 22 23  1  0  0  0  0
 22  3  1  0  0  0  0
 24 22  1  0  0  0  0
 25 24  1  0  0  0  0
 26 25  2  0  0  0  0
 27 26  1  0  0  0  0
 28 29  2  0  0  0  0
 28 26  1  0  0  0  0
 29 30  1  0  0  0  0
 30 24  2  0  0  0  0
M  END
>  <minimizedAffinity>
-4.39221859

>  <minimizedRMSD>
2.84645915

$$$$
