
 OpenBabel03252508563D

 22 23  0  0  0  0  0  0  0  0999 V2000
   46.2940   35.0710   41.7610 C   0  0  0  0  0  0  0  0  0  0  0  0
   45.9480   35.9970   41.2680 H   0  0  0  0  0  0  0  0  0  0  0  0
   45.8540   34.1720   41.2360 H   0  0  0  0  0  0  0  0  0  0  0  0
   44.4740   35.9430   44.9340 C   0  0  0  0  0  0  0  0  0  0  0  0
   44.9540   36.0210   43.6070 C   0  0  0  0  0  0  0  0  0  0  0  0
   45.7850   35.0000   43.1450 C   0  0  0  0  0  0  0  0  0  0  0  0
   46.0750   33.9990   44.0080 N   0  0  0  0  0  0  0  0  0  0  0  0
   45.6010   33.9510   45.2730 C   0  0  0  0  0  0  0  0  0  0  0  0
   44.8050   34.9200   45.7290 N   0  0  0  0  0  0  0  0  0  0  0  0
   43.8250   36.7060   45.3480 H   0  0  0  0  0  0  0  0  0  0  0  0
   44.6510   36.8740   43.0140 H   0  0  0  0  0  0  0  0  0  0  0  0
   45.9750   33.0570   45.7540 H   0  0  0  0  0  0  0  0  0  0  0  0
   47.7910   34.9160   41.7740 C   0  0  0  0  0  0  0  0  0  0  0  0
   48.0770   34.5000   42.7490 H   0  0  0  0  0  0  0  0  0  0  0  0
   48.2710   35.9110   41.6540 H   0  0  0  0  0  0  0  0  0  0  0  0
   48.2610   34.0510   40.6700 C   0  0  0  0  0  0  0  0  0  0  0  0
   49.0300   32.9420   40.9440 C   0  0  0  0  0  0  0  0  0  0  0  0
   49.5460   32.0360   40.0380 C   0  0  0  0  0  0  0  0  0  0  0  0
   50.1380   31.2040   40.3750 H   0  0  0  0  0  0  0  0  0  0  0  0
   49.2360   32.3070   38.7380 N   0  0  0  0  0  0  0  0  0  0  0  0
   48.4880   33.3780   38.4270 C   0  0  0  0  0  0  0  0  0  0  0  0
   47.9990   34.2470   39.3580 N   0  0  0  0  0  0  0  0  0  0  0  0
  1 13  1  0  0  0  0
  1  6  1  0  0  0  0
  2  1  1  0  0  0  0
  3  1  1  0  0  0  0
  4 10  1  0  0  0  0
  4  9  1  0  0  0  0
  5  4  2  0  0  0  0
  6  5  1  0  0  0  0
  6  7  2  0  0  0  0
  7  8  1  0  0  0  0
  8  9  2  0  0  0  0
  8 12  1  0  0  0  0
 11  5  1  0  0  0  0
 13 14  1  0  0  0  0
 15 13  1  0  0  0  0
 16 17  1  0  0  0  0
 16 13  1  0  0  0  0
 18 19  1  0  0  0  0
 18 17  2  0  0  0  0
 20 18  1  0  0  0  0
 21 20  2  0  0  0  0
 21 22  1  0  0  0  0
 22 16  2  0  0  0  0
M  END
>  <minimizedAffinity>
-4.09250927

>  <minimizedRMSD>
1.53335392

$$$$
