
 OpenBabel03242518103D

 22 23  0  0  0  0  0  0  0  0999 V2000
   36.7610   27.4880   42.8160 C   0  0  0  0  0  0  0  0  0  0  0  0
   35.9880   27.2390   43.5990 H   0  0  0  0  0  0  0  0  0  0  0  0
   36.3170   27.9270   41.9280 H   0  0  0  0  0  0  0  0  0  0  0  0
   37.5160   26.2620   42.5830 C   0  0  0  0  0  0  0  0  0  0  0  0
   37.0070   25.1370   41.9520 C   0  0  0  0  0  0  0  0  0  0  0  0
   37.8900   24.0350   41.7990 C   0  0  0  0  0  0  0  0  0  0  0  0
   39.1680   24.1540   42.2770 N   0  0  0  0  0  0  0  0  0  0  0  0
   39.5940   25.2740   42.8780 C   0  0  0  0  0  0  0  0  0  0  0  0
   38.7640   26.3090   43.0220 N   0  0  0  0  0  0  0  0  0  0  0  0
   36.0040   25.1400   41.6170 H   0  0  0  0  0  0  0  0  0  0  0  0
   37.5090   23.1430   41.3060 H   0  0  0  0  0  0  0  0  0  0  0  0
   40.6270   25.2630   43.2210 H   0  0  0  0  0  0  0  0  0  0  0  0
   37.7160   28.5330   43.3630 C   0  0  0  0  0  0  0  0  0  0  0  0
   37.3440   28.9640   44.3150 H   0  0  0  0  0  0  0  0  0  0  0  0
   38.7170   28.1100   43.5640 H   0  0  0  0  0  0  0  0  0  0  0  0
   37.7550   29.6550   42.3880 C   0  0  0  0  0  0  0  0  0  0  0  0
   38.9050   30.3750   42.1280 C   0  0  0  0  0  3  0  0  0  0  0  0
   38.9160   31.4090   41.2210 C   0  0  0  0  0  0  0  0  0  0  0  0
   39.8430   31.9640   41.0340 H   0  0  0  0  0  0  0  0  0  0  0  0
   37.8050   31.7600   40.5520 N   0  0  0  0  0  0  0  0  0  0  0  0
   36.6890   31.0650   40.8020 C   0  0  0  0  0  3  0  0  0  0  0  0
   36.6540   30.0360   41.6950 N   0  0  0  0  0  0  0  0  0  0  0  0
  1 13  1  0  0  0  0
  1  2  1  0  0  0  0
  3  1  1  0  0  0  0
  4  1  1  0  0  0  0
  4  9  1  0  0  0  0
  5  4  2  0  0  0  0
  6  5  1  0  0  0  0
  6  7  2  0  0  0  0
  7  8  1  0  0  0  0
  8  9  2  0  0  0  0
  8 12  1  0  0  0  0
 10  5  1  0  0  0  0
 11  6  1  0  0  0  0
 13 15  1  0  0  0  0
 13 14  1  0  0  0  0
 16 13  1  0  0  0  0
 17 16  1  0  0  0  0
 18 17  2  0  0  0  0
 19 18  1  0  0  0  0
 20 21  2  0  0  0  0
 20 18  1  0  0  0  0
 21 22  1  0  0  0  0
 22 16  2  0  0  0  0
M  END
>  <minimizedAffinity>
-4.19963503

$$$$

 OpenBabel03242518103D

 22 23  0  0  0  0  0  0  0  0999 V2000
   38.7930   29.2350   42.9260 C   0  0  0  0  0  0  0  0  0  0  0  0
   39.1590   29.9250   43.7410 H   0  0  0  0  0  0  0  0  0  0  0  0
   39.5980   28.6480   42.4950 H   0  0  0  0  0  0  0  0  0  0  0  0
   38.0680   30.0730   41.9780 C   0  0  0  0  0  0  0  0  0  0  0  0
   36.7480   29.8730   41.6070 C   0  0  0  0  0  0  0  0  0  0  0  0
   36.1980   30.7960   40.6780 C   0  0  0  0  0  0  0  0  0  0  0  0
   36.9960   31.8090   40.2170 N   0  0  0  0  0  0  0  0  0  0  0  0
   38.2680   31.9430   40.6190 C   0  0  0  0  0  0  0  0  0  0  0  0
   38.7840   31.0750   41.4910 N   0  0  0  0  0  0  0  0  0  0  0  0
   36.2100   29.0590   42.0170 H   0  0  0  0  0  0  0  0  0  0  0  0
   35.1620   30.6560   40.3740 H   0  0  0  0  0  0  0  0  0  0  0  0
   38.8140   32.7810   40.1920 H   0  0  0  0  0  0  0  0  0  0  0  0
   37.8160   28.2330   43.5140 C   0  0  0  0  0  0  0  0  0  0  0  0
   37.7770   28.3050   44.6200 H   0  0  0  0  0  0  0  0  0  0  0  0
   36.7890   28.3910   43.1380 H   0  0  0  0  0  0  0  0  0  0  0  0
   38.3340   26.8740   43.2070 C   0  0  0  0  0  0  0  0  0  0  0  0
   39.5490   26.4150   43.6790 C   0  0  0  0  0  3  0  0  0  0  0  0
   40.0060   25.1530   43.3820 C   0  0  0  0  0  0  0  0  0  0  0  0
   40.9740   24.8150   43.7710 H   0  0  0  0  0  0  0  0  0  0  0  0
   39.2880   24.3150   42.6180 N   0  0  0  0  0  0  0  0  0  0  0  0
   38.1110   24.7550   42.1580 C   0  0  0  0  0  3  0  0  0  0  0  0
   37.6360   26.0010   42.4390 N   0  0  0  0  0  0  0  0  0  0  0  0
  1 13  1  0  0  0  0
  1  2  1  0  0  0  0
  3  1  1  0  0  0  0
  4  1  1  0  0  0  0
  5  4  1  0  0  0  0
  5 10  1  0  0  0  0
  6  5  2  0  0  0  0
  7  8  2  0  0  0  0
  7  6  1  0  0  0  0
  8  9  1  0  0  0  0
  9  4  2  0  0  0  0
 11  6  1  0  0  0  0
 12  8  1  0  0  0  0
 13 14  1  0  0  0  0
 15 13  1  0  0  0  0
 16 13  1  0  0  0  0
 16 17  1  0  0  0  0
 18 17  2  0  0  0  0
 18 19  1  0  0  0  0
 20 18  1  0  0  0  0
 21 22  1  0  0  0  0
 21 20  2  0  0  0  0
 22 16  2  0  0  0  0
M  END
>  <minimizedAffinity>
-4.19152594

$$$$

 OpenBabel03242518103D

 22 23  0  0  0  0  0  0  0  0999 V2000
   37.7860   28.5670   43.3620 C   0  0  0  0  0  0  0  0  0  0  0  0
   37.4200   29.0050   44.3350 H   0  0  0  0  0  0  0  0  0  0  0  0
   38.7300   28.0430   43.4780 H   0  0  0  0  0  0  0  0  0  0  0  0
   37.8090   29.6660   42.4030 C   0  0  0  0  0  0  0  0  0  0  0  0
   38.9390   30.4020   42.0810 C   0  0  0  0  0  0  0  0  0  0  0  0
   38.7790   31.4310   41.1150 C   0  0  0  0  0  0  0  0  0  0  0  0
   37.5370   31.6240   40.5710 N   0  0  0  0  0  0  0  0  0  0  0  0
   36.4860   30.8740   40.9280 C   0  0  0  0  0  0  0  0  0  0  0  0
   36.6360   29.9080   41.8370 N   0  0  0  0  0  0  0  0  0  0  0  0
   39.8570   30.1780   42.5570 H   0  0  0  0  0  0  0  0  0  0  0  0
   39.6540   32.0190   40.8500 H   0  0  0  0  0  0  0  0  0  0  0  0
   35.5450   31.1110   40.4350 H   0  0  0  0  0  0  0  0  0  0  0  0
   36.7940   27.5310   42.8690 C   0  0  0  0  0  0  0  0  0  0  0  0
   36.0770   27.2440   43.6650 H   0  0  0  0  0  0  0  0  0  0  0  0
   36.2010   27.9040   42.0130 H   0  0  0  0  0  0  0  0  0  0  0  0
   37.5600   26.3010   42.5400 C   0  0  0  0  0  0  0  0  0  0  0  0
   36.9590   25.1580   42.0470 C   0  0  0  0  0  3  0  0  0  0  0  0
   37.6900   24.0320   41.7490 C   0  0  0  0  0  0  0  0  0  0  0  0
   37.1860   23.1390   41.3590 H   0  0  0  0  0  0  0  0  0  0  0  0
   39.0200   23.9990   41.9280 N   0  0  0  0  0  0  0  0  0  0  0  0
   39.6060   25.1030   42.4060 C   0  0  0  0  0  3  0  0  0  0  0  0
   38.9040   26.2310   42.7070 N   0  0  0  0  0  0  0  0  0  0  0  0
  1  3  1  0  0  0  0
  1  2  1  0  0  0  0
  4  1  1  0  0  0  0
  5  4  1  0  0  0  0
  5 10  1  0  0  0  0
  6  5  2  0  0  0  0
  7  8  2  0  0  0  0
  7  6  1  0  0  0  0
  8  9  1  0  0  0  0
  9  4  2  0  0  0  0
 11  6  1  0  0  0  0
 12  8  1  0  0  0  0
 13  1  1  0  0  0  0
 13 14  1  0  0  0  0
 15 13  1  0  0  0  0
 16 22  1  0  0  0  0
 16 13  1  0  0  0  0
 17 16  2  0  0  0  0
 18 20  2  0  0  0  0
 18 17  1  0  0  0  0
 19 18  1  0  0  0  0
 20 21  1  0  0  0  0
 21 22  2  0  0  0  0
M  END
>  <minimizedAffinity>
-4.15188932

$$$$

 OpenBabel03242518103D

 22 23  0  0  0  0  0  0  0  0999 V2000
   36.2490   27.8170   40.1770 C   0  0  0  0  0  0  0  0  0  0  0  0
   35.6000   26.8940   40.1750 H   0  0  0  0  0  0  0  0  0  0  0  0
   36.7740   27.9500   39.2360 H   0  0  0  0  0  0  0  0  0  0  0  0
   37.1100   27.7090   41.3500 C   0  0  0  0  0  0  0  0  0  0  0  0
   36.6600   27.7680   42.6590 C   0  0  0  0  0  0  0  0  0  0  0  0
   37.6390   27.6310   43.6790 C   0  0  0  0  0  0  0  0  0  0  0  0
   38.9450   27.4510   43.3070 N   0  0  0  0  0  0  0  0  0  0  0  0
   39.3110   27.4030   42.0170 C   0  0  0  0  0  0  0  0  0  0  0  0
   38.3900   27.5330   41.0600 N   0  0  0  0  0  0  0  0  0  0  0  0
   35.6290   27.9110   42.8480 H   0  0  0  0  0  0  0  0  0  0  0  0
   37.3060   27.6750   44.7130 H   0  0  0  0  0  0  0  0  0  0  0  0
   40.3730   27.2570   41.8320 H   0  0  0  0  0  0  0  0  0  0  0  0
   35.3770   29.0480   40.3440 C   0  0  0  0  0  0  0  0  0  0  0  0
   34.4720   28.9950   39.7040 H   0  0  0  0  0  0  0  0  0  0  0  0
   35.0340   29.1700   41.3870 H   0  0  0  0  0  0  0  0  0  0  0  0
   36.1580   30.2160   39.8580 C   0  0  0  0  0  0  0  0  0  0  0  0
   36.5700   31.2360   40.6950 C   0  0  0  0  0  3  0  0  0  0  0  0
   37.2920   32.3060   40.2230 C   0  0  0  0  0  0  0  0  0  0  0  0
   37.6070   33.1010   40.9100 H   0  0  0  0  0  0  0  0  0  0  0  0
   37.6240   32.4030   38.9250 N   0  0  0  0  0  0  0  0  0  0  0  0
   37.2260   31.4180   38.1110 C   0  0  0  0  0  3  0  0  0  0  0  0
   36.5110   30.3480   38.5560 N   0  0  0  0  0  0  0  0  0  0  0  0
  1 13  1  0  0  0  0
  1  4  1  0  0  0  0
  2  1  1  0  0  0  0
  3  1  1  0  0  0  0
  4  5  1  0  0  0  0
  5 10  1  0  0  0  0
  5  6  2  0  0  0  0
  6 11  1  0  0  0  0
  7  6  1  0  0  0  0
  8  7  2  0  0  0  0
  9  4  2  0  0  0  0
  9  8  1  0  0  0  0
 12  8  1  0  0  0  0
 13 15  1  0  0  0  0
 14 13  1  0  0  0  0
 16 13  1  0  0  0  0
 16 17  1  0  0  0  0
 18 17  2  0  0  0  0
 18 19  1  0  0  0  0
 20 18  1  0  0  0  0
 21 22  1  0  0  0  0
 21 20  2  0  0  0  0
 22 16  2  0  0  0  0
M  END
>  <minimizedAffinity>
-3.99956179

$$$$

 OpenBabel03242518103D

 22 23  0  0  0  0  0  0  0  0999 V2000
   38.2300   28.4760   43.3040 C   0  0  0  0  0  0  0  0  0  0  0  0
   39.1750   29.0630   43.1180 H   0  0  0  0  0  0  0  0  0  0  0  0
   37.7670   28.7340   44.2510 H   0  0  0  0  0  0  0  0  0  0  0  0
   38.5900   27.0690   43.1610 C   0  0  0  0  0  0  0  0  0  0  0  0
   39.7430   26.4990   43.6770 C   0  0  0  0  0  0  0  0  0  0  0  0
   39.9260   25.1090   43.4510 C   0  0  0  0  0  0  0  0  0  0  0  0
   38.9640   24.4320   42.7500 N   0  0  0  0  0  0  0  0  0  0  0  0
   37.8700   25.0470   42.2790 C   0  0  0  0  0  0  0  0  0  0  0  0
   37.6990   26.3540   42.4900 N   0  0  0  0  0  0  0  0  0  0  0  0
   40.4300   27.1060   44.2060 H   0  0  0  0  0  0  0  0  0  0  0  0
   40.8250   24.6440   43.8490 H   0  0  0  0  0  0  0  0  0  0  0  0
   37.1690   24.4170   41.7350 H   0  0  0  0  0  0  0  0  0  0  0  0
   37.2070   28.8120   42.2350 C   0  0  0  0  0  0  0  0  0  0  0  0
   37.2220   28.0700   41.4100 H   0  0  0  0  0  0  0  0  0  0  0  0
   36.1790   28.8310   42.6400 H   0  0  0  0  0  0  0  0  0  0  0  0
   37.6060   30.1100   41.6290 C   0  0  0  0  0  0  0  0  0  0  0  0
   38.8960   30.6000   41.7020 C   0  0  0  0  0  3  0  0  0  0  0  0
   39.2410   31.8040   41.1330 C   0  0  0  0  0  0  0  0  0  0  0  0
   40.2730   32.1690   41.2060 H   0  0  0  0  0  0  0  0  0  0  0  0
   38.3340   32.5520   40.4840 N   0  0  0  0  0  0  0  0  0  0  0  0
   37.0840   32.0810   40.4120 C   0  0  0  0  0  3  0  0  0  0  0  0
   36.7180   30.8910   40.9670 N   0  0  0  0  0  0  0  0  0  0  0  0
  1  3  1  0  0  0  0
  2  1  1  0  0  0  0
  4  1  1  0  0  0  0
  4  5  1  0  0  0  0
  5 10  1  0  0  0  0
  6  5  2  0  0  0  0
  6 11  1  0  0  0  0
  7  6  1  0  0  0  0
  8  9  1  0  0  0  0
  8  7  2  0  0  0  0
  9  4  2  0  0  0  0
 12  8  1  0  0  0  0
 13 15  1  0  0  0  0
 13  1  1  0  0  0  0
 14 13  1  0  0  0  0
 16 17  1  0  0  0  0
 16 13  1  0  0  0  0
 18 19  1  0  0  0  0
 18 17  2  0  0  0  0
 20 18  1  0  0  0  0
 21 20  2  0  0  0  0
 21 22  1  0  0  0  0
 22 16  2  0  0  0  0
M  END
>  <minimizedAffinity>
-3.97591019

$$$$

 OpenBabel03242518103D

 22 23  0  0  0  0  0  0  0  0999 V2000
   36.7800   31.0410   39.4590 C   0  0  0  0  0  0  0  0  0  0  0  0
   37.2820   30.0790   39.1470 H   0  0  0  0  0  0  0  0  0  0  0  0
   35.9570   31.3050   38.8030 H   0  0  0  0  0  0  0  0  0  0  0  0
   37.8370   32.0420   39.5500 C   0  0  0  0  0  0  0  0  0  0  0  0
   37.6630   33.3220   40.0510 C   0  0  0  0  0  0  0  0  0  0  0  0
   38.8090   34.1610   40.0760 C   0  0  0  0  0  0  0  0  0  0  0  0
   39.9940   33.6570   39.6090 N   0  0  0  0  0  0  0  0  0  0  0  0
   40.0910   32.4060   39.1370 C   0  0  0  0  0  0  0  0  0  0  0  0
   39.0140   31.6190   39.1140 N   0  0  0  0  0  0  0  0  0  0  0  0
   36.7060   33.6210   40.3890 H   0  0  0  0  0  0  0  0  0  0  0  0
   38.6920   35.1690   40.4660 H   0  0  0  0  0  0  0  0  0  0  0  0
   41.0780   32.1060   38.7910 H   0  0  0  0  0  0  0  0  0  0  0  0
   36.1730   30.8690   40.8390 C   0  0  0  0  0  0  0  0  0  0  0  0
   36.4310   31.7180   41.5050 H   0  0  0  0  0  0  0  0  0  0  0  0
   35.0700   30.8070   40.7990 H   0  0  0  0  0  0  0  0  0  0  0  0
   36.7910   29.6630   41.4510 C   0  0  0  0  0  0  0  0  0  0  0  0
   36.3920   28.3790   41.1320 C   0  0  0  0  0  3  0  0  0  0  0  0
   36.9800   27.2790   41.7110 C   0  0  0  0  0  0  0  0  0  0  0  0
   36.6430   26.2710   41.4390 H   0  0  0  0  0  0  0  0  0  0  0  0
   37.9660   27.4110   42.6130 N   0  0  0  0  0  0  0  0  0  0  0  0
   38.3550   28.6530   42.9250 C   0  0  0  0  0  3  0  0  0  0  0  0
   37.7890   29.7580   42.3640 N   0  0  0  0  0  0  0  0  0  0  0  0
  1  4  1  0  0  0  0
  1 13  1  0  0  0  0
  2  1  1  0  0  0  0
  3  1  1  0  0  0  0
  4  5  1  0  0  0  0
  5  6  2  0  0  0  0
  5 10  1  0  0  0  0
  6 11  1  0  0  0  0
  7  6  1  0  0  0  0
  8  7  2  0  0  0  0
  9  8  1  0  0  0  0
  9  4  2  0  0  0  0
 12  8  1  0  0  0  0
 13 16  1  0  0  0  0
 13 14  1  0  0  0  0
 15 13  1  0  0  0  0
 16 22  1  0  0  0  0
 17 16  2  0  0  0  0
 17 18  1  0  0  0  0
 18 20  2  0  0  0  0
 19 18  1  0  0  0  0
 20 21  1  0  0  0  0
 22 21  2  0  0  0  0
M  END
>  <minimizedAffinity>
-3.97125053

$$$$

 OpenBabel03242518103D

 22 23  0  0  0  0  0  0  0  0999 V2000
   37.1480   29.5000   41.8160 C   0  0  0  0  0  0  0  0  0  0  0  0
   37.2740   28.7060   41.0240 H   0  0  0  0  0  0  0  0  0  0  0  0
   36.1390   29.5240   42.2150 H   0  0  0  0  0  0  0  0  0  0  0  0
   37.5990   30.7500   41.2140 C   0  0  0  0  0  0  0  0  0  0  0  0
   36.8450   31.5140   40.3380 C   0  0  0  0  0  0  0  0  0  0  0  0
   37.4400   32.7120   39.8580 C   0  0  0  0  0  0  0  0  0  0  0  0
   38.7010   33.0290   40.2880 N   0  0  0  0  0  0  0  0  0  0  0  0
   39.3740   32.2420   41.1390 C   0  0  0  0  0  0  0  0  0  0  0  0
   38.8150   31.1170   41.5890 N   0  0  0  0  0  0  0  0  0  0  0  0
   35.8780   31.1850   40.0630 H   0  0  0  0  0  0  0  0  0  0  0  0
   36.8630   33.3250   39.1690 H   0  0  0  0  0  0  0  0  0  0  0  0
   40.3690   32.5860   41.4170 H   0  0  0  0  0  0  0  0  0  0  0  0
   38.0540   29.1890   42.9920 C   0  0  0  0  0  0  0  0  0  0  0  0
   39.0120   29.7440   42.9260 H   0  0  0  0  0  0  0  0  0  0  0  0
   37.5850   29.4590   43.9560 H   0  0  0  0  0  0  0  0  0  0  0  0
   38.4060   27.7460   42.9140 C   0  0  0  0  0  0  0  0  0  0  0  0
   39.4800   27.2040   43.5940 C   0  0  0  0  0  3  0  0  0  0  0  0
   39.7860   25.8660   43.5060 C   0  0  0  0  0  0  0  0  0  0  0  0
   40.6430   25.4630   44.0570 H   0  0  0  0  0  0  0  0  0  0  0  0
   39.0510   25.0330   42.7520 N   0  0  0  0  0  0  0  0  0  0  0  0
   38.0100   25.5540   42.0910 C   0  0  0  0  0  3  0  0  0  0  0  0
   37.6870   26.8760   42.1640 N   0  0  0  0  0  0  0  0  0  0  0  0
  1  3  1  0  0  0  0
  1 13  1  0  0  0  0
  2  1  1  0  0  0  0
  4  9  1  0  0  0  0
  4  1  1  0  0  0  0
  5  4  2  0  0  0  0
  6  7  2  0  0  0  0
  6  5  1  0  0  0  0
  7  8  1  0  0  0  0
  8 12  1  0  0  0  0
  8  9  2  0  0  0  0
 10  5  1  0  0  0  0
 11  6  1  0  0  0  0
 13 15  1  0  0  0  0
 14 13  1  0  0  0  0
 16 13  1  0  0  0  0
 16 17  1  0  0  0  0
 18 17  2  0  0  0  0
 18 19  1  0  0  0  0
 20 18  1  0  0  0  0
 21 22  1  0  0  0  0
 21 20  2  0  0  0  0
 22 16  2  0  0  0  0
M  END
>  <minimizedAffinity>
-3.91031289

$$$$

 OpenBabel03242518103D

 22 23  0  0  0  0  0  0  0  0999 V2000
   35.5640   29.6100   40.4160 C   0  0  0  0  0  0  0  0  0  0  0  0
   34.4780   29.7010   40.1240 H   0  0  0  0  0  0  0  0  0  0  0  0
   35.7330   29.8820   41.4530 H   0  0  0  0  0  0  0  0  0  0  0  0
   36.3150   30.3970   39.4450 C   0  0  0  0  0  0  0  0  0  0  0  0
   36.8590   31.6460   39.7010 C   0  0  0  0  0  0  0  0  0  0  0  0
   37.5710   32.2640   38.6390 C   0  0  0  0  0  0  0  0  0  0  0  0
   37.6740   31.5950   37.4480 N   0  0  0  0  0  0  0  0  0  0  0  0
   37.1220   30.3860   37.2690 C   0  0  0  0  0  0  0  0  0  0  0  0
   36.4520   29.8060   38.2670 N   0  0  0  0  0  0  0  0  0  0  0  0
   36.7260   32.0840   40.6550 H   0  0  0  0  0  0  0  0  0  0  0  0
   38.0050   33.2440   38.8210 H   0  0  0  0  0  0  0  0  0  0  0  0
   37.2620   29.9430   36.2850 H   0  0  0  0  0  0  0  0  0  0  0  0
   36.0020   28.1620   40.2900 C   0  0  0  0  0  0  0  0  0  0  0  0
   35.1380   27.4700   40.3510 H   0  0  0  0  0  0  0  0  0  0  0  0
   36.5100   27.9680   39.3280 H   0  0  0  0  0  0  0  0  0  0  0  0
   36.8620   27.8530   41.4620 C   0  0  0  0  0  0  0  0  0  0  0  0
   37.5970   26.6870   41.5600 C   0  0  0  0  0  3  0  0  0  0  0  0
   38.3870   26.4240   42.6550 C   0  0  0  0  0  0  0  0  0  0  0  0
   38.9600   25.4900   42.7050 H   0  0  0  0  0  0  0  0  0  0  0  0
   38.4720   27.2920   43.6760 N   0  0  0  0  0  0  0  0  0  0  0  0
   37.7610   28.4220   43.5860 C   0  0  0  0  0  3  0  0  0  0  0  0
   36.9730   28.7060   42.5110 N   0  0  0  0  0  0  0  0  0  0  0  0
  1  3  1  0  0  0  0
  2  1  1  0  0  0  0
  4  5  1  0  0  0  0
  4  1  1  0  0  0  0
  5 10  1  0  0  0  0
  6 11  1  0  0  0  0
  6  5  2  0  0  0  0
  7  6  1  0  0  0  0
  8  7  2  0  0  0  0
  8  9  1  0  0  0  0
  9  4  2  0  0  0  0
 12  8  1  0  0  0  0
 13 14  1  0  0  0  0
 13  1  1  0  0  0  0
 13 16  1  0  0  0  0
 15 13  1  0  0  0  0
 16 17  2  0  0  0  0
 16 22  1  0  0  0  0
 17 18  1  0  0  0  0
 18 19  1  0  0  0  0
 18 20  2  0  0  0  0
 21 20  1  0  0  0  0
 22 21  2  0  0  0  0
M  END
>  <minimizedAffinity>
-3.90130925

$$$$

 OpenBabel03242518103D

 22 23  0  0  0  0  0  0  0  0999 V2000
   37.9700   29.1940   42.9310 C   0  0  0  0  0  0  0  0  0  0  0  0
   38.9450   29.7400   42.7780 H   0  0  0  0  0  0  0  0  0  0  0  0
   37.4600   29.5120   43.8350 H   0  0  0  0  0  0  0  0  0  0  0  0
   38.2860   27.7710   42.8730 C   0  0  0  0  0  0  0  0  0  0  0  0
   37.5410   26.8300   42.1800 C   0  0  0  0  0  0  0  0  0  0  0  0
   38.0030   25.4880   42.2230 C   0  0  0  0  0  0  0  0  0  0  0  0
   39.1400   25.2150   42.9360 N   0  0  0  0  0  0  0  0  0  0  0  0
   39.8140   26.1760   43.5850 C   0  0  0  0  0  0  0  0  0  0  0  0
   39.3780   27.4370   43.5450 N   0  0  0  0  0  0  0  0  0  0  0  0
   36.6740   27.1380   41.6570 H   0  0  0  0  0  0  0  0  0  0  0  0
   37.4320   24.7360   41.6850 H   0  0  0  0  0  0  0  0  0  0  0  0
   40.7030   25.8510   44.1210 H   0  0  0  0  0  0  0  0  0  0  0  0
   37.0270   29.5150   41.7860 C   0  0  0  0  0  0  0  0  0  0  0  0
   37.0450   28.7220   41.0100 H   0  0  0  0  0  0  0  0  0  0  0  0
   35.9810   29.6120   42.1300 H   0  0  0  0  0  0  0  0  0  0  0  0
   37.5290   30.7490   41.1280 C   0  0  0  0  0  0  0  0  0  0  0  0
   36.7880   31.4500   40.1960 C   0  0  0  0  0  3  0  0  0  0  0  0
   37.2740   32.5900   39.6010 C   0  0  0  0  0  0  0  0  0  0  0  0
   36.6640   33.1280   38.8650 H   0  0  0  0  0  0  0  0  0  0  0  0
   38.4930   33.0670   39.9010 N   0  0  0  0  0  0  0  0  0  0  0  0
   39.2150   32.3900   40.8030 C   0  0  0  0  0  3  0  0  0  0  0  0
   38.7540   31.2590   41.4070 N   0  0  0  0  0  0  0  0  0  0  0  0
  1  3  1  0  0  0  0
  2  1  1  0  0  0  0
  4  1  1  0  0  0  0
  4  9  1  0  0  0  0
  5  6  1  0  0  0  0
  5  4  2  0  0  0  0
  6  7  2  0  0  0  0
  7  8  1  0  0  0  0
  8 12  1  0  0  0  0
  9  8  2  0  0  0  0
 10  5  1  0  0  0  0
 11  6  1  0  0  0  0
 13 15  1  0  0  0  0
 13  1  1  0  0  0  0
 14 13  1  0  0  0  0
 16 22  1  0  0  0  0
 16 13  1  0  0  0  0
 17 16  2  0  0  0  0
 18 20  2  0  0  0  0
 18 17  1  0  0  0  0
 19 18  1  0  0  0  0
 20 21  1  0  0  0  0
 21 22  2  0  0  0  0
M  END
>  <minimizedAffinity>
-3.89607096

$$$$
