
 OpenBabel03242520173D

 29 31  0  0  0  0  0  0  0  0999 V2000
   44.5210   34.1370   40.8020 C   0  0  0  0  0  0  0  0  0  0  0  0
   43.3290   34.8770   40.8940 C   0  0  0  0  0  0  0  0  0  0  0  0
   42.4590   34.8720   39.7830 C   0  0  0  0  0  0  0  0  0  0  0  0
   42.8350   34.1470   38.6900 N   0  0  0  0  0  0  0  0  0  0  0  0
   44.0130   33.4480   38.6670 C   0  0  0  0  0  0  0  0  0  0  0  0
   44.8450   33.4410   39.7030 N   0  0  0  0  0  0  0  0  0  0  0  0
   43.1160   35.4220   41.7960 H   0  0  0  0  0  0  0  0  0  0  0  0
   44.1770   32.9200   37.7300 H   0  0  0  0  0  0  0  0  0  0  0  0
   45.4260   34.1390   41.9760 C   0  0  0  0  0  0  0  0  0  0  0  0
   46.7910   34.8320   41.6830 C   0  0  0  0  0  0  0  0  0  0  0  0
   45.8010   35.3180   42.6950 C   0  0  0  0  0  0  0  0  0  0  0  0
   45.5480   33.1310   42.4300 H   0  0  0  0  0  0  0  0  0  0  0  0
   46.8890   35.3830   40.7380 H   0  0  0  0  0  0  0  0  0  0  0  0
   47.6880   34.3230   42.0900 H   0  0  0  0  0  0  0  0  0  0  0  0
   46.0820   35.1910   43.7780 H   0  0  0  0  0  0  0  0  0  0  0  0
   45.3950   36.3310   42.5230 H   0  0  0  0  0  0  0  0  0  0  0  0
   41.2010   35.6270   39.8160 C   0  0  0  0  0  0  0  0  0  0  0  0
   41.4010   36.6810   39.5890 H   0  0  0  0  0  0  0  0  0  0  0  0
   40.8450   35.6020   40.8650 H   0  0  0  0  0  0  0  0  0  0  0  0
   40.1650   35.0300   38.8700 C   0  0  0  0  0  0  0  0  0  0  0  0
   39.4980   35.8070   38.4660 H   0  0  0  0  0  0  0  0  0  0  0  0
   40.7650   34.6810   37.9780 H   0  0  0  0  0  0  0  0  0  0  0  0
   39.4940   33.8430   39.3900 C   0  0  0  0  0  0  0  0  0  0  0  0
   39.0850   33.5030   40.6450 C   0  0  0  0  0  3  0  0  0  0  0  0
   38.4720   32.3040   40.9120 C   0  0  0  0  0  0  0  0  0  0  0  0
   38.1680   32.0880   41.9220 H   0  0  0  0  0  0  0  0  0  0  0  0
   38.2580   31.4190   39.9210 N   0  0  0  0  0  0  0  0  0  0  0  0
   38.6590   31.7490   38.6830 C   0  0  0  0  0  3  0  0  0  0  0  0
   39.2600   32.9190   38.4100 N   0  0  0  0  0  0  0  0  0  0  0  0
  1  2  1  0  0  0  0
  1  9  1  0  0  0  0
  2  7  1  0  0  0  0
  3 17  1  0  0  0  0
  3  2  2  0  0  0  0
  4  3  1  0  0  0  0
  5  4  2  0  0  0  0
  5  6  1  0  0  0  0
  6  1  2  0  0  0  0
  8  5  1  0  0  0  0
  9 12  1  0  0  0  0
  9 11  1  0  0  0  0
 10  9  1  0  0  0  0
 10 14  1  0  0  0  0
 10 11  1  0  0  0  0
 11 15  1  0  0  0  0
 13 10  1  0  0  0  0
 16 11  1  0  0  0  0
 17 19  1  0  0  0  0
 18 17  1  0  0  0  0
 20 23  1  0  0  0  0
 20 17  1  0  0  0  0
 21 20  1  0  0  0  0
 22 20  1  0  0  0  0
 23 24  1  0  0  0  0
 24 25  2  0  0  0  0
 25 26  1  0  0  0  0
 27 25  1  0  0  0  0
 28 27  2  0  0  0  0
 29 28  1  0  0  0  0
 29 23  2  0  0  0  0
M  END
>  <minimizedAffinity>
-4.3033576

>  <minimizedRMSD>
2.65783262

$$$$
