
 OpenBabel03242522323D

 37 40  0  0  0  0  0  0  0  0999 V2000
   39.4040   30.4240   39.3270 F   0  0  0  0  0  0  0  0  0  0  0  0
   38.9510   31.6910   39.5050 C   0  0  0  0  0  0  0  0  0  0  0  0
   39.8120   32.7150   39.7200 C   0  0  0  0  0  0  0  0  0  0  0  0
   39.2690   33.9640   39.8910 C   0  0  0  0  0  0  0  0  0  0  0  0
   37.9180   34.1930   39.8520 C   0  0  0  0  0  0  0  0  0  0  0  0
   37.1170   33.1070   39.6310 C   0  0  0  0  0  0  0  0  0  0  0  0
   37.5910   31.8480   39.4540 C   0  0  0  0  0  0  0  0  0  0  0  0
   39.9570   34.7930   40.0650 H   0  0  0  0  0  0  0  0  0  0  0  0
   37.5360   35.2040   39.9940 H   0  0  0  0  0  0  0  0  0  0  0  0
   36.0400   33.2910   39.6000 H   0  0  0  0  0  0  0  0  0  0  0  0
   36.6450   30.7810   39.2270 C   0  0  0  0  0  0  0  0  0  0  0  0
   36.5590   30.1780   37.9970 C   0  0  0  0  0  0  0  0  0  0  0  0
   35.6660   29.1730   37.8000 C   0  0  0  0  0  0  0  0  0  0  0  0
   34.8320   28.7430   38.8380 C   0  0  0  0  0  0  0  0  0  0  0  0
   34.9550   29.3850   40.0720 C   0  0  0  0  0  0  0  0  0  0  0  0
   35.8530   30.3960   40.2690 C   0  0  0  0  0  0  0  0  0  0  0  0
   37.2380   30.5540   37.2150 H   0  0  0  0  0  0  0  0  0  0  0  0
   35.6570   28.7490   36.8050 H   0  0  0  0  0  0  0  0  0  0  0  0
   34.1490   27.9440   38.6150 H   0  0  0  0  0  0  0  0  0  0  0  0
   34.2590   28.9620   40.7850 H   0  0  0  0  0  0  0  0  0  0  0  0
   35.7770   30.8590   41.5630 O   0  0  0  0  0  0  0  0  0  0  0  0
   34.9260   31.1630   42.0090 H   0  0  0  0  0  0  0  0  0  0  0  0
   43.3810   32.2300   40.8900 C   0  0  0  0  0  0  0  0  0  0  0  0
   42.0140   32.5200   40.9020 C   0  0  0  0  0  0  0  0  0  0  0  0
   41.2580   32.4190   39.7520 C   0  0  0  0  0  0  0  0  0  0  0  0
   41.9290   32.0290   38.6420 N   0  0  0  0  0  0  0  0  0  0  0  0
   43.2310   31.7580   38.6470 C   0  0  0  0  0  0  0  0  0  0  0  0
   43.9580   31.8560   39.7630 N   0  0  0  0  0  0  0  0  0  0  0  0
   43.9010   32.3370   41.8490 H   0  0  0  0  0  0  0  0  0  0  0  0
   41.5370   32.8280   41.8250 H   0  0  0  0  0  0  0  0  0  0  0  0
   43.8730   31.3420   37.4020 C   0  0  0  0  0  0  0  0  0  0  0  0
   43.2060   30.5590   36.4810 C   0  0  0  0  0  3  0  0  0  0  0  0
   43.7500   30.1280   35.2810 C   0  0  0  0  0  0  0  0  0  0  0  0
   43.1540   29.5150   34.6220 H   0  0  0  0  0  0  0  0  0  0  0  0
   45.0270   30.5290   35.0420 N   0  0  0  0  0  0  0  0  0  0  0  0
   45.7030   31.2960   35.9240 C   0  0  0  0  0  3  0  0  0  0  0  0
   45.1340   31.7020   37.0970 N   0  0  0  0  0  0  0  0  0  0  0  0
  1  2  1  0  0  0  0
  2  3  1  0  0  0  0
  3 25  1  0  0  0  0
  3  4  2  0  0  0  0
  4  8  1  0  0  0  0
  5  4  1  0  0  0  0
  5  9  1  0  0  0  0
  6  5  2  0  0  0  0
  7  2  2  0  0  0  0
  7  6  1  0  0  0  0
 10  6  1  0  0  0  0
 11  7  1  0  0  0  0
 11 16  1  0  0  0  0
 12 11  2  0  0  0  0
 13 12  1  0  0  0  0
 13 14  2  0  0  0  0
 14 15  1  0  0  0  0
 15 16  2  0  0  0  0
 15 20  1  0  0  0  0
 16 21  1  0  0  0  0
 17 12  1  0  0  0  0
 18 13  1  0  0  0  0
 19 14  1  0  0  0  0
 21 22  1  0  0  0  0
 23 24  1  0  0  0  0
 23 29  1  0  0  0  0
 24 30  1  0  0  0  0
 25 24  2  0  0  0  0
 26 27  2  0  0  0  0
 26 25  1  0  0  0  0
 27 28  1  0  0  0  0
 28 23  2  0  0  0  0
 31 27  1  0  0  0  0
 32 31  2  0  0  0  0
 33 32  1  0  0  0  0
 34 33  1  0  0  0  0
 35 33  2  0  0  0  0
 35 36  1  0  0  0  0
 36 37  2  0  0  0  0
 37 31  1  0  0  0  0
M  END
>  <minimizedAffinity>
-6.78146505

$$$$

 OpenBabel03242522323D

 37 40  0  0  0  0  0  0  0  0999 V2000
   40.4400   30.5810   40.4770 F   0  0  0  0  0  0  0  0  0  0  0  0
   39.3330   31.3460   40.2970 C   0  0  0  0  0  0  0  0  0  0  0  0
   38.1230   30.9410   40.7530 C   0  0  0  0  0  0  0  0  0  0  0  0
   37.0570   31.7760   40.5270 C   0  0  0  0  0  0  0  0  0  0  0  0
   37.1820   32.9720   39.8690 C   0  0  0  0  0  0  0  0  0  0  0  0
   38.4360   33.3080   39.4390 C   0  0  0  0  0  0  0  0  0  0  0  0
   39.5310   32.5280   39.6320 C   0  0  0  0  0  0  0  0  0  0  0  0
   36.0800   31.4550   40.8930 H   0  0  0  0  0  0  0  0  0  0  0  0
   36.3050   33.5980   39.7140 H   0  0  0  0  0  0  0  0  0  0  0  0
   38.5350   34.2610   38.9150 H   0  0  0  0  0  0  0  0  0  0  0  0
   40.8030   32.9910   39.1320 C   0  0  0  0  0  0  0  0  0  0  0  0
   41.7350   33.5220   39.9890 C   0  0  0  0  0  0  0  0  0  0  0  0
   42.9300   33.9510   39.5030 C   0  0  0  0  0  0  0  0  0  0  0  0
   43.2230   33.8560   38.1390 C   0  0  0  0  0  0  0  0  0  0  0  0
   42.2460   33.3080   37.3050 C   0  0  0  0  0  0  0  0  0  0  0  0
   41.0450   32.8780   37.7940 C   0  0  0  0  0  0  0  0  0  0  0  0
   41.4540   33.5730   41.0520 H   0  0  0  0  0  0  0  0  0  0  0  0
   43.6100   34.3570   40.2390 H   0  0  0  0  0  0  0  0  0  0  0  0
   44.1860   34.2130   37.8210 H   0  0  0  0  0  0  0  0  0  0  0  0
   42.5940   33.2910   36.2800 H   0  0  0  0  0  0  0  0  0  0  0  0
   40.2620   32.3850   36.7750 O   0  0  0  0  0  0  0  0  0  0  0  0
   40.0440   32.8900   35.9300 H   0  0  0  0  0  0  0  0  0  0  0  0
   38.3100   28.2460   43.4080 C   0  0  0  0  0  0  0  0  0  0  0  0
   38.4060   29.4900   42.7780 C   0  0  0  0  0  0  0  0  0  0  0  0
   38.0390   29.6460   41.4570 C   0  0  0  0  0  0  0  0  0  0  0  0
   37.5900   28.5280   40.8380 N   0  0  0  0  0  0  0  0  0  0  0  0
   37.5050   27.3510   41.4520 C   0  0  0  0  0  0  0  0  0  0  0  0
   37.8620   27.2050   42.7300 N   0  0  0  0  0  0  0  0  0  0  0  0
   38.6240   28.2160   44.4580 H   0  0  0  0  0  0  0  0  0  0  0  0
   38.7740   30.3470   43.3310 H   0  0  0  0  0  0  0  0  0  0  0  0
   37.0090   26.1970   40.7050 C   0  0  0  0  0  0  0  0  0  0  0  0
   37.0090   24.9330   41.2600 C   0  0  0  0  0  3  0  0  0  0  0  0
   36.5550   23.7940   40.6140 C   0  0  0  0  0  0  0  0  0  0  0  0
   36.5940   22.8460   41.1260 H   0  0  0  0  0  0  0  0  0  0  0  0
   36.0900   23.9870   39.3500 N   0  0  0  0  0  0  0  0  0  0  0  0
   36.0780   25.2120   38.7820 C   0  0  0  0  0  3  0  0  0  0  0  0
   36.5330   26.3110   39.4510 N   0  0  0  0  0  0  0  0  0  0  0  0
  2  1  1  0  0  0  0
  2  3  1  0  0  0  0
  3 25  1  0  0  0  0
  4  3  2  0  0  0  0
  4  8  1  0  0  0  0
  5  4  1  0  0  0  0
  6  7  1  0  0  0  0
  6  5  2  0  0  0  0
  7  2  2  0  0  0  0
  9  5  1  0  0  0  0
 10  6  1  0  0  0  0
 11  7  1  0  0  0  0
 11 12  1  0  0  0  0
 12 17  1  0  0  0  0
 13 12  2  0  0  0  0
 13 18  1  0  0  0  0
 14 13  1  0  0  0  0
 15 16  1  0  0  0  0
 15 14  2  0  0  0  0
 16 11  2  0  0  0  0
 19 14  1  0  0  0  0
 20 15  1  0  0  0  0
 21 16  1  0  0  0  0
 22 21  1  0  0  0  0
 23 29  1  0  0  0  0
 24 30  1  0  0  0  0
 24 23  1  0  0  0  0
 25 24  2  0  0  0  0
 26 27  2  0  0  0  0
 26 25  1  0  0  0  0
 27 28  1  0  0  0  0
 28 23  2  0  0  0  0
 31 32  1  0  0  0  0
 31 27  1  0  0  0  0
 33 34  1  0  0  0  0
 33 32  2  0  0  0  0
 35 33  1  0  0  0  0
 36 35  2  0  0  0  0
 36 37  1  0  0  0  0
 37 31  2  0  0  0  0
M  END
>  <minimizedAffinity>
-6.61481428

$$$$

 OpenBabel03242522323D

 37 40  0  0  0  0  0  0  0  0999 V2000
   39.2960   29.7120   40.5390 F   0  0  0  0  0  0  0  0  0  0  0  0
   38.2920   29.8610   39.6370 C   0  0  0  0  0  0  0  0  0  0  0  0
   38.3660   30.7960   38.6590 C   0  0  0  0  0  0  0  0  0  0  0  0
   37.3060   30.8790   37.7910 C   0  0  0  0  0  0  0  0  0  0  0  0
   36.2080   30.0640   37.8870 C   0  0  0  0  0  0  0  0  0  0  0  0
   36.2100   29.1470   38.9010 C   0  0  0  0  0  0  0  0  0  0  0  0
   37.2260   29.0140   39.7920 C   0  0  0  0  0  0  0  0  0  0  0  0
   37.3600   31.6300   37.0010 H   0  0  0  0  0  0  0  0  0  0  0  0
   35.3920   30.1700   37.1730 H   0  0  0  0  0  0  0  0  0  0  0  0
   35.3340   28.4990   38.9760 H   0  0  0  0  0  0  0  0  0  0  0  0
   37.1130   28.0080   40.8200 C   0  0  0  0  0  0  0  0  0  0  0  0
   37.2970   26.6810   40.5180 C   0  0  0  0  0  0  0  0  0  0  0  0
   37.1910   25.7460   41.4980 C   0  0  0  0  0  0  0  0  0  0  0  0
   36.8980   26.1180   42.8130 C   0  0  0  0  0  0  0  0  0  0  0  0
   36.7190   27.4780   43.0750 C   0  0  0  0  0  0  0  0  0  0  0  0
   36.8250   28.4180   42.0890 C   0  0  0  0  0  0  0  0  0  0  0  0
   37.5270   26.4430   39.4670 H   0  0  0  0  0  0  0  0  0  0  0  0
   37.3490   24.7230   41.1820 H   0  0  0  0  0  0  0  0  0  0  0  0
   36.8280   25.3290   43.5390 H   0  0  0  0  0  0  0  0  0  0  0  0
   36.4980   27.6330   44.1230 H   0  0  0  0  0  0  0  0  0  0  0  0
   36.6050   29.6760   42.6010 O   0  0  0  0  0  0  0  0  0  0  0  0
   35.7920   29.9380   43.1370 H   0  0  0  0  0  0  0  0  0  0  0  0
   40.8120   33.6460   39.1520 C   0  0  0  0  0  0  0  0  0  0  0  0
   39.6540   32.8680   39.2370 C   0  0  0  0  0  0  0  0  0  0  0  0
   39.5700   31.6490   38.5960 C   0  0  0  0  0  0  0  0  0  0  0  0
   40.6690   31.2770   37.8980 N   0  0  0  0  0  0  0  0  0  0  0  0
   41.7640   32.0290   37.8260 C   0  0  0  0  0  0  0  0  0  0  0  0
   41.8410   33.2080   38.4480 N   0  0  0  0  0  0  0  0  0  0  0  0
   40.7890   34.5990   39.6920 H   0  0  0  0  0  0  0  0  0  0  0  0
   38.8080   33.2230   39.8130 H   0  0  0  0  0  0  0  0  0  0  0  0
   42.9040   31.5480   37.0490 C   0  0  0  0  0  0  0  0  0  0  0  0
   42.7670   30.5110   36.1470 C   0  0  0  0  0  3  0  0  0  0  0  0
   43.8010   30.0030   35.3770 C   0  0  0  0  0  0  0  0  0  0  0  0
   43.6020   29.1890   34.6970 H   0  0  0  0  0  0  0  0  0  0  0  0
   45.0110   30.5980   35.5580 N   0  0  0  0  0  0  0  0  0  0  0  0
   45.1740   31.6140   36.4330 C   0  0  0  0  0  3  0  0  0  0  0  0
   44.1300   32.0880   37.1750 N   0  0  0  0  0  0  0  0  0  0  0  0
  2  7  1  0  0  0  0
  2  1  1  0  0  0  0
  3  2  2  0  0  0  0
  4  5  2  0  0  0  0
  4  3  1  0  0  0  0
  5  6  1  0  0  0  0
  6 10  1  0  0  0  0
  6  7  2  0  0  0  0
  7 11  1  0  0  0  0
  8  4  1  0  0  0  0
  9  5  1  0  0  0  0
 11 16  1  0  0  0  0
 12 11  2  0  0  0  0
 12 13  1  0  0  0  0
 13 14  2  0  0  0  0
 14 15  1  0  0  0  0
 14 19  1  0  0  0  0
 15 20  1  0  0  0  0
 16 21  1  0  0  0  0
 16 15  2  0  0  0  0
 17 12  1  0  0  0  0
 18 13  1  0  0  0  0
 21 22  1  0  0  0  0
 23 24  1  0  0  0  0
 23 29  1  0  0  0  0
 24 30  1  0  0  0  0
 25  3  1  0  0  0  0
 25 24  2  0  0  0  0
 26 25  1  0  0  0  0
 27 26  2  0  0  0  0
 27 28  1  0  0  0  0
 28 23  2  0  0  0  0
 31 37  1  0  0  0  0
 31 27  1  0  0  0  0
 32 31  2  0  0  0  0
 33 35  2  0  0  0  0
 33 32  1  0  0  0  0
 34 33  1  0  0  0  0
 35 36  1  0  0  0  0
 36 37  2  0  0  0  0
M  END
>  <minimizedAffinity>
-6.52017307

$$$$

 OpenBabel03242522323D

 37 40  0  0  0  0  0  0  0  0999 V2000
   39.6110   26.8050   41.0660 F   0  0  0  0  0  0  0  0  0  0  0  0
   38.6830   27.1580   41.9920 C   0  0  0  0  0  0  0  0  0  0  0  0
   38.8770   28.2290   42.8000 C   0  0  0  0  0  0  0  0  0  0  0  0
   37.8880   28.5130   43.7090 C   0  0  0  0  0  0  0  0  0  0  0  0
   36.7460   27.7630   43.8170 C   0  0  0  0  0  0  0  0  0  0  0  0
   36.6270   26.6990   42.9660 C   0  0  0  0  0  0  0  0  0  0  0  0
   37.5670   26.3650   42.0460 C   0  0  0  0  0  0  0  0  0  0  0  0
   38.0380   29.3750   44.3620 H   0  0  0  0  0  0  0  0  0  0  0  0
   35.9910   28.0310   44.5550 H   0  0  0  0  0  0  0  0  0  0  0  0
   35.7170   26.1020   43.0530 H   0  0  0  0  0  0  0  0  0  0  0  0
   37.3290   25.2180   41.2020 C   0  0  0  0  0  0  0  0  0  0  0  0
   36.5690   25.3380   40.0640 C   0  0  0  0  0  0  0  0  0  0  0  0
   36.3560   24.2500   39.2790 C   0  0  0  0  0  0  0  0  0  0  0  0
   36.9030   23.0070   39.6150 C   0  0  0  0  0  0  0  0  0  0  0  0
   37.6680   22.9320   40.7800 C   0  0  0  0  0  0  0  0  0  0  0  0
   37.8820   24.0270   41.5700 C   0  0  0  0  0  0  0  0  0  0  0  0
   36.1630   26.3380   39.8460 H   0  0  0  0  0  0  0  0  0  0  0  0
   35.7480   24.4240   38.4010 H   0  0  0  0  0  0  0  0  0  0  0  0
   36.6950   22.1880   38.9500 H   0  0  0  0  0  0  0  0  0  0  0  0
   38.0310   21.9230   40.9270 H   0  0  0  0  0  0  0  0  0  0  0  0
   38.6620   23.6910   42.6530 O   0  0  0  0  0  0  0  0  0  0  0  0
   38.4580   22.9350   43.2880 H   0  0  0  0  0  0  0  0  0  0  0  0
   42.4880   29.3550   42.9940 C   0  0  0  0  0  0  0  0  0  0  0  0
   41.3310   28.5890   43.1630 C   0  0  0  0  0  0  0  0  0  0  0  0
   40.1220   29.0070   42.6450 C   0  0  0  0  0  0  0  0  0  0  0  0
   40.1460   30.1860   41.9790 N   0  0  0  0  0  0  0  0  0  0  0  0
   41.2550   30.9040   41.8280 C   0  0  0  0  0  0  0  0  0  0  0  0
   42.4230   30.4960   42.3300 N   0  0  0  0  0  0  0  0  0  0  0  0
   43.4010   28.9460   43.4390 H   0  0  0  0  0  0  0  0  0  0  0  0
   41.3800   27.6530   43.7070 H   0  0  0  0  0  0  0  0  0  0  0  0
   41.1880   32.1660   41.0930 C   0  0  0  0  0  0  0  0  0  0  0  0
   40.0010   32.6090   40.5430 C   0  0  0  0  0  3  0  0  0  0  0  0
   39.8620   33.7930   39.8350 C   0  0  0  0  0  0  0  0  0  0  0  0
   38.8940   34.0590   39.4390 H   0  0  0  0  0  0  0  0  0  0  0  0
   40.9970   34.5290   39.7010 N   0  0  0  0  0  0  0  0  0  0  0  0
   42.1700   34.1210   40.2290 C   0  0  0  0  0  3  0  0  0  0  0  0
   42.2690   32.9480   40.9210 N   0  0  0  0  0  0  0  0  0  0  0  0
  1  2  1  0  0  0  0
  2  7  2  0  0  0  0
  2  3  1  0  0  0  0
  3  4  2  0  0  0  0
  4  5  1  0  0  0  0
  4  8  1  0  0  0  0
  5  9  1  0  0  0  0
  6 10  1  0  0  0  0
  6  5  2  0  0  0  0
  7  6  1  0  0  0  0
 11 16  1  0  0  0  0
 11  7  1  0  0  0  0
 12 11  2  0  0  0  0
 13 14  2  0  0  0  0
 13 12  1  0  0  0  0
 14 15  1  0  0  0  0
 15 20  1  0  0  0  0
 15 16  2  0  0  0  0
 16 21  1  0  0  0  0
 17 12  1  0  0  0  0
 18 13  1  0  0  0  0
 19 14  1  0  0  0  0
 21 22  1  0  0  0  0
 23 24  1  0  0  0  0
 23 29  1  0  0  0  0
 24 30  1  0  0  0  0
 25  3  1  0  0  0  0
 25 24  2  0  0  0  0
 26 25  1  0  0  0  0
 27 26  2  0  0  0  0
 27 28  1  0  0  0  0
 28 23  2  0  0  0  0
 31 27  1  0  0  0  0
 32 31  2  0  0  0  0
 33 32  1  0  0  0  0
 34 33  1  0  0  0  0
 35 33  2  0  0  0  0
 35 36  1  0  0  0  0
 36 37  2  0  0  0  0
 37 31  1  0  0  0  0
M  END
>  <minimizedAffinity>
-6.42497444

$$$$

 OpenBabel03242522323D

 37 40  0  0  0  0  0  0  0  0999 V2000
   37.8410   27.5760   39.8280 F   0  0  0  0  0  0  0  0  0  0  0  0
   37.6440   27.6510   41.1680 C   0  0  0  0  0  0  0  0  0  0  0  0
   37.4380   26.5320   41.9050 C   0  0  0  0  0  0  0  0  0  0  0  0
   37.2460   26.6980   43.2550 C   0  0  0  0  0  0  0  0  0  0  0  0
   37.2560   27.9300   43.8550 C   0  0  0  0  0  0  0  0  0  0  0  0
   37.4700   29.0090   43.0420 C   0  0  0  0  0  0  0  0  0  0  0  0
   37.6660   28.9120   41.7020 C   0  0  0  0  0  0  0  0  0  0  0  0
   37.0800   25.8010   43.8540 H   0  0  0  0  0  0  0  0  0  0  0  0
   37.0980   28.0090   44.9300 H   0  0  0  0  0  0  0  0  0  0  0  0
   37.4770   29.9900   43.5220 H   0  0  0  0  0  0  0  0  0  0  0  0
   37.8820   30.1240   40.9480 C   0  0  0  0  0  0  0  0  0  0  0  0
   39.1110   30.3890   40.3960 C   0  0  0  0  0  0  0  0  0  0  0  0
   39.2980   31.5330   39.6870 C   0  0  0  0  0  0  0  0  0  0  0  0
   38.2510   32.4440   39.5100 C   0  0  0  0  0  0  0  0  0  0  0  0
   37.0190   32.1330   40.0880 C   0  0  0  0  0  0  0  0  0  0  0  0
   36.8330   30.9820   40.8030 C   0  0  0  0  0  0  0  0  0  0  0  0
   39.9000   29.6390   40.5650 H   0  0  0  0  0  0  0  0  0  0  0  0
   40.2920   31.6720   39.2840 H   0  0  0  0  0  0  0  0  0  0  0  0
   38.4660   33.3290   38.9380 H   0  0  0  0  0  0  0  0  0  0  0  0
   36.2990   32.9130   39.8800 H   0  0  0  0  0  0  0  0  0  0  0  0
   35.5390   30.9110   41.2670 O   0  0  0  0  0  0  0  0  0  0  0  0
   35.0850   31.6370   41.8000 H   0  0  0  0  0  0  0  0  0  0  0  0
   38.4410   23.1040   40.6450 C   0  0  0  0  0  0  0  0  0  0  0  0
   38.4810   24.3290   41.3160 C   0  0  0  0  0  0  0  0  0  0  0  0
   37.4380   25.2270   41.2140 C   0  0  0  0  0  0  0  0  0  0  0  0
   36.4030   24.8370   40.4330 N   0  0  0  0  0  0  0  0  0  0  0  0
   36.3800   23.6670   39.8000 C   0  0  0  0  0  0  0  0  0  0  0  0
   37.3910   22.8010   39.9020 N   0  0  0  0  0  0  0  0  0  0  0  0
   39.3130   22.4540   40.7840 H   0  0  0  0  0  0  0  0  0  0  0  0
   39.3400   24.5820   41.9260 H   0  0  0  0  0  0  0  0  0  0  0  0
   35.2210   23.3290   38.9780 C   0  0  0  0  0  0  0  0  0  0  0  0
   34.0570   22.8490   39.5470 C   0  0  0  0  0  3  0  0  0  0  0  0
   32.9200   22.5080   38.8320 C   0  0  0  0  0  0  0  0  0  0  0  0
   32.0550   22.1400   39.3610 H   0  0  0  0  0  0  0  0  0  0  0  0
   33.0070   22.6730   37.4840 N   0  0  0  0  0  0  0  0  0  0  0  0
   34.1310   23.1400   36.9010 C   0  0  0  0  0  3  0  0  0  0  0  0
   35.2330   23.4670   37.6390 N   0  0  0  0  0  0  0  0  0  0  0  0
  1  2  1  0  0  0  0
  2  7  2  0  0  0  0
  2  3  1  0  0  0  0
  3  4  2  0  0  0  0
  4  8  1  0  0  0  0
  4  5  1  0  0  0  0
  5  9  1  0  0  0  0
  6 10  1  0  0  0  0
  6  5  2  0  0  0  0
  7  6  1  0  0  0  0
 11  7  1  0  0  0  0
 12 17  1  0  0  0  0
 12 11  2  0  0  0  0
 13 12  1  0  0  0  0
 14 13  2  0  0  0  0
 14 15  1  0  0  0  0
 15 16  2  0  0  0  0
 16 11  1  0  0  0  0
 16 21  1  0  0  0  0
 18 13  1  0  0  0  0
 19 14  1  0  0  0  0
 20 15  1  0  0  0  0
 21 22  1  0  0  0  0
 23 29  1  0  0  0  0
 23 24  1  0  0  0  0
 24 30  1  0  0  0  0
 25 24  2  0  0  0  0
 25  3  1  0  0  0  0
 26 25  1  0  0  0  0
 27 28  1  0  0  0  0
 27 26  2  0  0  0  0
 28 23  2  0  0  0  0
 31 32  1  0  0  0  0
 31 27  1  0  0  0  0
 33 34  1  0  0  0  0
 33 32  2  0  0  0  0
 35 33  1  0  0  0  0
 36 35  2  0  0  0  0
 36 37  1  0  0  0  0
 37 31  2  0  0  0  0
M  END
>  <minimizedAffinity>
-6.42315531

$$$$

 OpenBabel03242522323D

 37 40  0  0  0  0  0  0  0  0999 V2000
   38.8600   28.8050   40.4320 F   0  0  0  0  0  0  0  0  0  0  0  0
   38.2780   28.3830   41.5840 C   0  0  0  0  0  0  0  0  0  0  0  0
   38.9680   28.3750   42.7510 C   0  0  0  0  0  0  0  0  0  0  0  0
   38.3030   27.9320   43.8670 C   0  0  0  0  0  0  0  0  0  0  0  0
   37.0000   27.5100   43.8310 C   0  0  0  0  0  0  0  0  0  0  0  0
   36.3740   27.5480   42.6160 C   0  0  0  0  0  0  0  0  0  0  0  0
   36.9750   27.9750   41.4750 C   0  0  0  0  0  0  0  0  0  0  0  0
   38.8530   27.9240   44.8100 H   0  0  0  0  0  0  0  0  0  0  0  0
   36.5170   27.1670   44.7460 H   0  0  0  0  0  0  0  0  0  0  0  0
   35.3360   27.2110   42.5880 H   0  0  0  0  0  0  0  0  0  0  0  0
   36.2110   27.9700   40.2510 C   0  0  0  0  0  0  0  0  0  0  0  0
   36.3540   26.9470   39.3460 C   0  0  0  0  0  0  0  0  0  0  0  0
   35.6250   26.9550   38.1990 C   0  0  0  0  0  0  0  0  0  0  0  0
   34.7280   27.9930   37.9290 C   0  0  0  0  0  0  0  0  0  0  0  0
   34.6150   29.0120   38.8770 C   0  0  0  0  0  0  0  0  0  0  0  0
   35.3490   29.0030   40.0300 C   0  0  0  0  0  0  0  0  0  0  0  0
   37.0730   26.1540   39.6080 H   0  0  0  0  0  0  0  0  0  0  0  0
   35.7940   26.1160   37.5370 H   0  0  0  0  0  0  0  0  0  0  0  0
   34.1830   27.9380   37.0040 H   0  0  0  0  0  0  0  0  0  0  0  0
   33.8930   29.7490   38.5510 H   0  0  0  0  0  0  0  0  0  0  0  0
   35.0570   30.1120   40.7910 O   0  0  0  0  0  0  0  0  0  0  0  0
   35.0960   31.0610   40.4530 H   0  0  0  0  0  0  0  0  0  0  0  0
   42.7400   28.5080   43.0670 C   0  0  0  0  0  0  0  0  0  0  0  0
   41.4270   28.0290   43.0920 C   0  0  0  0  0  0  0  0  0  0  0  0
   40.3690   28.8410   42.7390 C   0  0  0  0  0  0  0  0  0  0  0  0
   40.6950   30.1050   42.3780 N   0  0  0  0  0  0  0  0  0  0  0  0
   41.9500   30.5460   42.3610 C   0  0  0  0  0  0  0  0  0  0  0  0
   42.9700   29.7570   42.7030 N   0  0  0  0  0  0  0  0  0  0  0  0
   43.5150   27.7930   43.3630 H   0  0  0  0  0  0  0  0  0  0  0  0
   41.2330   27.0050   43.3910 H   0  0  0  0  0  0  0  0  0  0  0  0
   42.2090   31.9270   41.9580 C   0  0  0  0  0  0  0  0  0  0  0  0
   43.2620   32.6410   42.4930 C   0  0  0  0  0  3  0  0  0  0  0  0
   43.5690   33.9510   42.1590 C   0  0  0  0  0  0  0  0  0  0  0  0
   44.4120   34.4320   42.6300 H   0  0  0  0  0  0  0  0  0  0  0  0
   42.7480   34.5260   41.2390 N   0  0  0  0  0  0  0  0  0  0  0  0
   41.7120   33.8510   40.6990 C   0  0  0  0  0  3  0  0  0  0  0  0
   41.4410   32.5600   41.0530 N   0  0  0  0  0  0  0  0  0  0  0  0
  1  2  1  0  0  0  0
  2  3  1  0  0  0  0
  3  4  2  0  0  0  0
  4  8  1  0  0  0  0
  5  4  1  0  0  0  0
  5  9  1  0  0  0  0
  6  5  2  0  0  0  0
  7  2  2  0  0  0  0
  7  6  1  0  0  0  0
 10  6  1  0  0  0  0
 11  7  1  0  0  0  0
 12 17  1  0  0  0  0
 12 11  2  0  0  0  0
 13 12  1  0  0  0  0
 14 13  2  0  0  0  0
 14 15  1  0  0  0  0
 15 16  2  0  0  0  0
 16 11  1  0  0  0  0
 16 21  1  0  0  0  0
 18 13  1  0  0  0  0
 19 14  1  0  0  0  0
 20 15  1  0  0  0  0
 22 21  1  0  0  0  0
 23 24  1  0  0  0  0
 23 29  1  0  0  0  0
 24 30  1  0  0  0  0
 25  3  1  0  0  0  0
 25 24  2  0  0  0  0
 26 25  1  0  0  0  0
 27 26  2  0  0  0  0
 27 28  1  0  0  0  0
 28 23  2  0  0  0  0
 31 27  1  0  0  0  0
 31 32  1  0  0  0  0
 33 32  2  0  0  0  0
 33 34  1  0  0  0  0
 35 33  1  0  0  0  0
 36 37  1  0  0  0  0
 36 35  2  0  0  0  0
 37 31  2  0  0  0  0
M  END
>  <minimizedAffinity>
-6.41492844

$$$$

 OpenBabel03242522323D

 37 40  0  0  0  0  0  0  0  0999 V2000
   37.8330   27.6150   39.5490 F   0  0  0  0  0  0  0  0  0  0  0  0
   37.6460   27.7900   40.8820 C   0  0  0  0  0  0  0  0  0  0  0  0
   37.6160   29.0310   41.4250 C   0  0  0  0  0  0  0  0  0  0  0  0
   37.4230   29.1170   42.7810 C   0  0  0  0  0  0  0  0  0  0  0  0
   37.2650   28.0110   43.5750 C   0  0  0  0  0  0  0  0  0  0  0  0
   37.3070   26.7950   42.9510 C   0  0  0  0  0  0  0  0  0  0  0  0
   37.4950   26.6430   41.6150 C   0  0  0  0  0  0  0  0  0  0  0  0
   37.3990   30.1130   43.2240 H   0  0  0  0  0  0  0  0  0  0  0  0
   37.1140   28.1310   44.6470 H   0  0  0  0  0  0  0  0  0  0  0  0
   37.1810   25.9140   43.5840 H   0  0  0  0  0  0  0  0  0  0  0  0
   37.5200   25.3060   41.0710 C   0  0  0  0  0  0  0  0  0  0  0  0
   36.3890   24.7590   40.5180 C   0  0  0  0  0  0  0  0  0  0  0  0
   36.4300   23.5000   40.0070 C   0  0  0  0  0  0  0  0  0  0  0  0
   37.6130   22.7550   40.0350 C   0  0  0  0  0  0  0  0  0  0  0  0
   38.7380   23.3510   40.6060 C   0  0  0  0  0  0  0  0  0  0  0  0
   38.6960   24.6170   41.1210 C   0  0  0  0  0  0  0  0  0  0  0  0
   35.4850   25.3880   40.5200 H   0  0  0  0  0  0  0  0  0  0  0  0
   35.4990   23.1390   39.5900 H   0  0  0  0  0  0  0  0  0  0  0  0
   37.5760   21.7660   39.6140 H   0  0  0  0  0  0  0  0  0  0  0  0
   39.5820   22.6750   40.5670 H   0  0  0  0  0  0  0  0  0  0  0  0
   39.9280   24.9710   41.6230 O   0  0  0  0  0  0  0  0  0  0  0  0
   40.4470   24.4240   42.2920 H   0  0  0  0  0  0  0  0  0  0  0  0
   37.0410   32.2650   39.5380 C   0  0  0  0  0  0  0  0  0  0  0  0
   36.8370   31.1810   40.3970 C   0  0  0  0  0  0  0  0  0  0  0  0
   37.7900   30.1920   40.5290 C   0  0  0  0  0  0  0  0  0  0  0  0
   38.9070   30.3510   39.7790 N   0  0  0  0  0  0  0  0  0  0  0  0
   39.0850   31.3880   38.9660 C   0  0  0  0  0  0  0  0  0  0  0  0
   38.1610   32.3430   38.8420 N   0  0  0  0  0  0  0  0  0  0  0  0
   36.2300   33.0010   39.4970 H   0  0  0  0  0  0  0  0  0  0  0  0
   35.9200   31.1130   40.9700 H   0  0  0  0  0  0  0  0  0  0  0  0
   40.3230   31.4780   38.1940 C   0  0  0  0  0  0  0  0  0  0  0  0
   40.9390   30.3470   37.6960 C   0  0  0  0  0  3  0  0  0  0  0  0
   42.1120   30.3550   36.9580 C   0  0  0  0  0  0  0  0  0  0  0  0
   42.5220   29.4200   36.6090 H   0  0  0  0  0  0  0  0  0  0  0  0
   42.6530   31.5840   36.7370 N   0  0  0  0  0  0  0  0  0  0  0  0
   42.0730   32.7060   37.2110 C   0  0  0  0  0  3  0  0  0  0  0  0
   40.9160   32.6580   37.9350 N   0  0  0  0  0  0  0  0  0  0  0  0
  1  2  1  0  0  0  0
  2  3  2  0  0  0  0
  2  7  1  0  0  0  0
  3  4  1  0  0  0  0
  4  8  1  0  0  0  0
  4  5  2  0  0  0  0
  5  9  1  0  0  0  0
  6  5  1  0  0  0  0
  6 10  1  0  0  0  0
  7  6  2  0  0  0  0
 11 16  1  0  0  0  0
 11  7  1  0  0  0  0
 12 17  1  0  0  0  0
 12 11  2  0  0  0  0
 13 14  2  0  0  0  0
 13 12  1  0  0  0  0
 14 15  1  0  0  0  0
 15 16  2  0  0  0  0
 16 21  1  0  0  0  0
 18 13  1  0  0  0  0
 19 14  1  0  0  0  0
 20 15  1  0  0  0  0
 21 22  1  0  0  0  0
 23 24  1  0  0  0  0
 24 25  2  0  0  0  0
 24 30  1  0  0  0  0
 25  3  1  0  0  0  0
 26 25  1  0  0  0  0
 27 26  2  0  0  0  0
 28 27  1  0  0  0  0
 28 23  2  0  0  0  0
 29 23  1  0  0  0  0
 31 27  1  0  0  0  0
 32 31  2  0  0  0  0
 33 32  1  0  0  0  0
 34 33  1  0  0  0  0
 35 33  2  0  0  0  0
 35 36  1  0  0  0  0
 36 37  2  0  0  0  0
 37 31  1  0  0  0  0
M  END
>  <minimizedAffinity>
-6.26030064

$$$$

 OpenBabel03242522323D

 37 40  0  0  0  0  0  0  0  0999 V2000
   37.9690   27.9980   39.8040 F   0  0  0  0  0  0  0  0  0  0  0  0
   37.8060   28.0000   41.1510 C   0  0  0  0  0  0  0  0  0  0  0  0
   37.7530   29.1620   41.8460 C   0  0  0  0  0  0  0  0  0  0  0  0
   37.5870   29.0720   43.2060 C   0  0  0  0  0  0  0  0  0  0  0  0
   37.4780   27.8720   43.8580 C   0  0  0  0  0  0  0  0  0  0  0  0
   37.5410   26.7450   43.0860 C   0  0  0  0  0  0  0  0  0  0  0  0
   37.7040   26.7660   41.7380 C   0  0  0  0  0  0  0  0  0  0  0  0
   37.5440   30.0050   43.7700 H   0  0  0  0  0  0  0  0  0  0  0  0
   37.3470   27.8530   44.9390 H   0  0  0  0  0  0  0  0  0  0  0  0
   37.4540   25.7880   43.6070 H   0  0  0  0  0  0  0  0  0  0  0  0
   37.7550   25.5090   41.0310 C   0  0  0  0  0  0  0  0  0  0  0  0
   36.5970   24.8840   40.6370 C   0  0  0  0  0  0  0  0  0  0  0  0
   36.6630   23.7030   39.9690 C   0  0  0  0  0  0  0  0  0  0  0  0
   37.8970   23.1140   39.6750 C   0  0  0  0  0  0  0  0  0  0  0  0
   39.0480   23.7840   40.0950 C   0  0  0  0  0  0  0  0  0  0  0  0
   38.9820   24.9720   40.7670 C   0  0  0  0  0  0  0  0  0  0  0  0
   35.6530   25.3910   40.8920 H   0  0  0  0  0  0  0  0  0  0  0  0
   35.7100   23.2730   39.6930 H   0  0  0  0  0  0  0  0  0  0  0  0
   37.8780   22.1800   39.1450 H   0  0  0  0  0  0  0  0  0  0  0  0
   39.9320   23.2280   39.8090 H   0  0  0  0  0  0  0  0  0  0  0  0
   40.2460   25.4240   41.0680 O   0  0  0  0  0  0  0  0  0  0  0  0
   40.9450   24.8800   41.5500 H   0  0  0  0  0  0  0  0  0  0  0  0
   36.9630   32.2210   39.7560 C   0  0  0  0  0  0  0  0  0  0  0  0
   36.8070   31.0190   40.4520 C   0  0  0  0  0  0  0  0  0  0  0  0
   37.8740   30.4300   41.0990 C   0  0  0  0  0  0  0  0  0  0  0  0
   39.0520   31.0920   41.0080 N   0  0  0  0  0  0  0  0  0  0  0  0
   39.1850   32.2350   40.3400 C   0  0  0  0  0  0  0  0  0  0  0  0
   38.1490   32.8010   39.7160 N   0  0  0  0  0  0  0  0  0  0  0  0
   36.0620   32.6140   39.2730 H   0  0  0  0  0  0  0  0  0  0  0  0
   35.8360   30.5390   40.4870 H   0  0  0  0  0  0  0  0  0  0  0  0
   40.4950   32.8800   40.2940 C   0  0  0  0  0  0  0  0  0  0  0  0
   40.7720   33.8700   39.3730 C   0  0  0  0  0  3  0  0  0  0  0  0
   41.9890   34.5260   39.2700 C   0  0  0  0  0  0  0  0  0  0  0  0
   42.1160   35.2880   38.5170 H   0  0  0  0  0  0  0  0  0  0  0  0
   42.9410   34.1310   40.1580 N   0  0  0  0  0  0  0  0  0  0  0  0
   42.6980   33.1660   41.0700 C   0  0  0  0  0  3  0  0  0  0  0  0
   41.4850   32.5420   41.1410 N   0  0  0  0  0  0  0  0  0  0  0  0
  1  2  1  0  0  0  0
  2  7  2  0  0  0  0
  2  3  1  0  0  0  0
  3  4  2  0  0  0  0
  4  8  1  0  0  0  0
  4  5  1  0  0  0  0
  5  9  1  0  0  0  0
  6 10  1  0  0  0  0
  6  5  2  0  0  0  0
  7  6  1  0  0  0  0
 11  7  1  0  0  0  0
 12 17  1  0  0  0  0
 12 11  2  0  0  0  0
 13 12  1  0  0  0  0
 14 13  2  0  0  0  0
 14 15  1  0  0  0  0
 15 16  2  0  0  0  0
 16 11  1  0  0  0  0
 16 21  1  0  0  0  0
 18 13  1  0  0  0  0
 19 14  1  0  0  0  0
 20 15  1  0  0  0  0
 21 22  1  0  0  0  0
 23 24  1  0  0  0  0
 24 30  1  0  0  0  0
 24 25  2  0  0  0  0
 25  3  1  0  0  0  0
 26 25  1  0  0  0  0
 27 26  2  0  0  0  0
 28 23  2  0  0  0  0
 28 27  1  0  0  0  0
 29 23  1  0  0  0  0
 31 27  1  0  0  0  0
 31 37  1  0  0  0  0
 32 31  2  0  0  0  0
 33 32  1  0  0  0  0
 33 35  2  0  0  0  0
 34 33  1  0  0  0  0
 35 36  1  0  0  0  0
 36 37  2  0  0  0  0
M  END
>  <minimizedAffinity>
-6.19414949

$$$$

 OpenBabel03242522323D

 37 40  0  0  0  0  0  0  0  0999 V2000
   38.4400   27.6230   40.1930 F   0  0  0  0  0  0  0  0  0  0  0  0
   37.8560   27.6450   41.4180 C   0  0  0  0  0  0  0  0  0  0  0  0
   37.8880   28.7630   42.1850 C   0  0  0  0  0  0  0  0  0  0  0  0
   37.2740   28.6980   43.4110 C   0  0  0  0  0  0  0  0  0  0  0  0
   36.6490   27.5660   43.8650 C   0  0  0  0  0  0  0  0  0  0  0  0
   36.6620   26.4810   43.0320 C   0  0  0  0  0  0  0  0  0  0  0  0
   37.2510   26.4800   41.8090 C   0  0  0  0  0  0  0  0  0  0  0  0
   37.2950   29.5950   44.0320 H   0  0  0  0  0  0  0  0  0  0  0  0
   36.1760   27.5650   44.8460 H   0  0  0  0  0  0  0  0  0  0  0  0
   36.1640   25.5790   43.3940 H   0  0  0  0  0  0  0  0  0  0  0  0
   37.1980   25.2730   41.0190 C   0  0  0  0  0  0  0  0  0  0  0  0
   36.4640   25.2320   39.8590 C   0  0  0  0  0  0  0  0  0  0  0  0
   36.4270   24.0890   39.1260 C   0  0  0  0  0  0  0  0  0  0  0  0
   37.1300   22.9520   39.5370 C   0  0  0  0  0  0  0  0  0  0  0  0
   37.8630   23.0390   40.7220 C   0  0  0  0  0  0  0  0  0  0  0  0
   37.8990   24.1890   41.4600 C   0  0  0  0  0  0  0  0  0  0  0  0
   35.9310   26.1540   39.5810 H   0  0  0  0  0  0  0  0  0  0  0  0
   35.8280   24.1340   38.2270 H   0  0  0  0  0  0  0  0  0  0  0  0
   37.0580   22.0810   38.9110 H   0  0  0  0  0  0  0  0  0  0  0  0
   38.3570   22.0980   40.9280 H   0  0  0  0  0  0  0  0  0  0  0  0
   38.6860   24.0170   42.5760 O   0  0  0  0  0  0  0  0  0  0  0  0
   38.5690   23.2710   43.2440 H   0  0  0  0  0  0  0  0  0  0  0  0
   38.6560   31.9420   40.2740 C   0  0  0  0  0  0  0  0  0  0  0  0
   37.9740   30.8200   40.7540 C   0  0  0  0  0  0  0  0  0  0  0  0
   38.5710   29.9590   41.6520 C   0  0  0  0  0  0  0  0  0  0  0  0
   39.8340   30.2790   42.0200 N   0  0  0  0  0  0  0  0  0  0  0  0
   40.4690   31.3500   41.5540 C   0  0  0  0  0  0  0  0  0  0  0  0
   39.8880   32.1810   40.6850 N   0  0  0  0  0  0  0  0  0  0  0  0
   38.1040   32.5690   39.5650 H   0  0  0  0  0  0  0  0  0  0  0  0
   36.9630   30.6200   40.4200 H   0  0  0  0  0  0  0  0  0  0  0  0
   41.8330   31.6190   42.0070 C   0  0  0  0  0  0  0  0  0  0  0  0
   42.2690   31.1990   43.2480 C   0  0  0  0  0  3  0  0  0  0  0  0
   43.5450   31.4170   43.7430 C   0  0  0  0  0  0  0  0  0  0  0  0
   43.7970   31.0540   44.7270 H   0  0  0  0  0  0  0  0  0  0  0  0
   44.3840   32.0940   42.9150 N   0  0  0  0  0  0  0  0  0  0  0  0
   43.9860   32.5160   41.6960 C   0  0  0  0  0  3  0  0  0  0  0  0
   42.7190   32.2820   41.2410 N   0  0  0  0  0  0  0  0  0  0  0  0
  1  2  1  0  0  0  0
  2  7  2  0  0  0  0
  2  3  1  0  0  0  0
  3  4  2  0  0  0  0
  4  5  1  0  0  0  0
  4  8  1  0  0  0  0
  5  9  1  0  0  0  0
  6 10  1  0  0  0  0
  6  5  2  0  0  0  0
  7  6  1  0  0  0  0
 11 16  1  0  0  0  0
 11  7  1  0  0  0  0
 12 11  2  0  0  0  0
 13 14  2  0  0  0  0
 13 12  1  0  0  0  0
 14 15  1  0  0  0  0
 15 20  1  0  0  0  0
 15 16  2  0  0  0  0
 16 21  1  0  0  0  0
 17 12  1  0  0  0  0
 18 13  1  0  0  0  0
 19 14  1  0  0  0  0
 21 22  1  0  0  0  0
 23 28  2  0  0  0  0
 23 24  1  0  0  0  0
 24 25  2  0  0  0  0
 25 26  1  0  0  0  0
 25  3  1  0  0  0  0
 27 31  1  0  0  0  0
 27 26  2  0  0  0  0
 28 27  1  0  0  0  0
 29 23  1  0  0  0  0
 30 24  1  0  0  0  0
 31 32  1  0  0  0  0
 32 33  2  0  0  0  0
 33 34  1  0  0  0  0
 35 33  1  0  0  0  0
 36 35  2  0  0  0  0
 37 36  1  0  0  0  0
 37 31  2  0  0  0  0
M  END
>  <minimizedAffinity>
-6.10194445

$$$$
