
 OpenBabel03252502233D

 32 34  0  0  1  0  0  0  0  0999 V2000
   46.8420   34.5950   42.3030 N   0  0  0  0  0  0  0  0  0  0  0  0
   48.2950   34.6190   42.3490 C   0  0  0  0  0  0  0  0  0  0  0  0
   48.6970   35.4080   41.0970 C   0  0  0  0  0  0  0  0  0  0  0  0
   48.3010   34.6670   39.8570 C   0  0  0  0  0  0  0  0  0  0  0  0
   46.9950   33.9390   39.9460 C   0  0  0  0  0  0  0  0  0  0  0  0
   46.1280   34.3730   41.0850 C   0  0  1  0  0  0  0  0  0  0  0  0
   48.6470   33.5860   42.1790 H   0  0  0  0  0  0  0  0  0  0  0  0
   48.6940   35.1140   43.2290 H   0  0  0  0  0  0  0  0  0  0  0  0
   48.2590   36.4110   41.1830 H   0  0  0  0  0  0  0  0  0  0  0  0
   49.8130   35.4380   41.1380 H   0  0  0  0  0  0  0  0  0  0  0  0
   48.1780   35.4580   39.0600 H   0  0  0  0  0  0  0  0  0  0  0  0
   49.0920   33.9940   39.4810 H   0  0  0  0  0  0  0  0  0  0  0  0
   46.4190   34.0050   39.0080 H   0  0  0  0  0  0  0  0  0  0  0  0
   47.2050   32.8550   40.0850 H   0  0  0  0  0  0  0  0  0  0  0  0
   45.5570   35.2770   40.7270 H   0  0  0  0  0  0  0  0  0  0  0  0
   44.4720   35.9720   44.8420 C   0  0  0  0  0  0  0  0  0  0  0  0
   45.1790   35.8850   43.6300 C   0  0  0  0  0  0  0  0  0  0  0  0
   46.0700   34.7940   43.4790 C   0  0  0  0  0  0  0  0  0  0  0  0
   46.1610   33.9210   44.5250 N   0  0  0  0  0  0  0  0  0  0  0  0
   45.4620   34.0430   45.6700 C   0  0  0  0  0  0  0  0  0  0  0  0
   44.6080   35.0900   45.8170 N   0  0  0  0  0  0  0  0  0  0  0  0
   43.8070   36.8280   44.8970 H   0  0  0  0  0  0  0  0  0  0  0  0
   45.1210   36.5590   42.8020 H   0  0  0  0  0  0  0  0  0  0  0  0
   45.6430   33.2720   46.4050 H   0  0  0  0  0  0  0  0  0  0  0  0
   45.1840   33.3440   41.2880 O   0  0  0  0  0  0  0  0  0  0  0  0
   43.8210   33.4890   41.0780 C   0  0  0  0  0  0  0  0  0  0  0  0
   43.5070   34.7100   40.4720 C   0  0  0  0  0  0  0  0  0  0  0  0
   42.1550   34.9620   40.2140 C   0  0  0  0  0  0  0  0  0  0  0  0
   41.8820   35.9070   39.7420 H   0  0  0  0  0  0  0  0  0  0  0  0
   41.2050   34.0590   40.5370 N   0  0  0  0  0  0  0  0  0  0  0  0
   41.5950   32.9050   41.1180 C   0  0  0  0  0  0  0  0  0  0  0  0
   42.8600   32.6000   41.3940 N   0  0  0  0  0  0  0  0  0  0  0  0
  1  2  1  0  0  0  0
  1 18  1  0  0  0  0
  2  8  1  0  0  0  0
  3 10  1  0  0  0  0
  3  9  1  0  0  0  0
  3  2  1  0  0  0  0
  4  5  1  0  0  0  0
  4  3  1  0  0  0  0
  5 14  1  0  0  0  0
  5  6  1  0  0  0  0
  6 15  1  6  0  0  0
  6 25  1  0  0  0  0
  6  1  1  0  0  0  0
  7  2  1  0  0  0  0
 11  4  1  0  0  0  0
 12  4  1  0  0  0  0
 13  5  1  0  0  0  0
 16 22  1  0  0  0  0
 16 21  1  0  0  0  0
 17 16  2  0  0  0  0
 18 17  1  0  0  0  0
 18 19  2  0  0  0  0
 19 20  1  0  0  0  0
 20 21  2  0  0  0  0
 20 24  1  0  0  0  0
 23 17  1  0  0  0  0
 26 25  1  0  0  0  0
 26 32  1  0  0  0  0
 27 26  2  0  0  0  0
 28 27  1  0  0  0  0
 28 30  2  0  0  0  0
 29 28  1  0  0  0  0
 30 31  1  0  0  0  0
 31 32  2  0  0  0  0
M  END
>  <minimizedAffinity>
-5.65030098

>  <minimizedRMSD>
0.31700474

$$$$
