
 OpenBabel03252505513D

 23 24  0  0  0  0  0  0  0  0999 V2000
   44.8270   35.1600   45.0920 C   0  0  0  0  0  0  0  0  0  0  0  0
   45.7060   34.7830   44.0810 C   0  0  0  0  0  0  0  0  0  0  0  0
   46.5410   33.6810   44.3250 C   0  0  0  0  0  0  0  0  0  0  0  0
   46.4560   33.0490   45.5100 N   0  0  0  0  0  0  0  0  0  0  0  0
   45.5830   33.4550   46.4630 C   0  0  0  0  0  0  0  0  0  0  0  0
   44.7770   34.4960   46.2600 N   0  0  0  0  0  0  0  0  0  0  0  0
   44.1690   36.0080   44.9320 H   0  0  0  0  0  0  0  0  0  0  0  0
   47.2210   33.3960   43.5330 H   0  0  0  0  0  0  0  0  0  0  0  0
   45.6990   35.5680   42.8080 C   0  0  0  0  0  0  0  0  0  0  0  0
   45.2140   36.8110   43.1580 F   0  0  0  0  0  0  0  0  0  0  0  0
   44.8090   34.9230   41.9500 F   0  0  0  0  0  0  0  0  0  0  0  0
   46.9690   35.6030   42.3060 F   0  0  0  0  0  0  0  0  0  0  0  0
   45.4710   32.8220   47.6970 O   0  0  0  0  0  0  0  0  0  0  0  0
   45.2210   31.4520   47.8060 C   0  0  0  0  0  0  0  0  0  0  0  0
   44.5360   31.2000   48.6320 H   0  0  0  0  0  0  0  0  0  0  0  0
   44.8090   31.1310   46.8110 H   0  0  0  0  0  0  0  0  0  0  0  0
   46.5080   30.7450   47.9930 C   0  0  0  0  0  0  0  0  0  0  0  0
   47.0920   29.6450   47.4080 C   0  0  0  0  0  0  0  0  0  0  0  0
   48.3330   29.2390   47.8200 C   0  0  0  0  0  0  0  0  0  0  0  0
   48.7060   28.3610   47.2960 H   0  0  0  0  0  0  0  0  0  0  0  0
   49.0050   29.8780   48.7760 N   0  0  0  0  0  0  0  0  0  0  0  0
   48.4460   30.9570   49.3570 C   0  0  0  0  0  0  0  0  0  0  0  0
   47.2090   31.3920   48.9740 N   0  0  0  0  0  0  0  0  0  0  0  0
  1  6  1  0  0  0  0
  2  3  1  0  0  0  0
  2  1  2  0  0  0  0
  3  4  2  0  0  0  0
  4  5  1  0  0  0  0
  5 13  1  0  0  0  0
  6  5  2  0  0  0  0
  7  1  1  0  0  0  0
  8  3  1  0  0  0  0
  9 10  1  0  0  0  0
  9  2  1  0  0  0  0
 11  9  1  0  0  0  0
 12  9  1  0  0  0  0
 13 14  1  0  0  0  0
 14 17  1  0  0  0  0
 14 15  1  0  0  0  0
 16 14  1  0  0  0  0
 17 23  1  0  0  0  0
 18 19  1  0  0  0  0
 18 17  2  0  0  0  0
 19 21  2  0  0  0  0
 20 19  1  0  0  0  0
 21 22  1  0  0  0  0
 23 22  2  0  0  0  0
M  END
>  <minimizedAffinity>
-4.84384203

>  <minimizedRMSD>
2.4533155

$$$$
