
 OpenBabel03252505433D

 40 43  0  0  1  0  0  0  0  0999 V2000
   42.6750   34.8720   40.2550 C   0  0  0  0  0  0  0  0  0  0  0  0
   42.5420   35.1870   38.9230 C   0  0  0  0  0  0  0  0  0  0  0  0
   41.3390   35.0810   38.2440 C   0  0  0  0  0  0  0  0  0  0  0  0
   40.2710   34.6440   38.9540 N   0  0  0  0  0  0  0  0  0  0  0  0
   40.3950   34.3320   40.2650 C   0  0  0  0  0  0  0  0  0  0  0  0
   41.5690   34.4390   40.9170 N   0  0  0  0  0  0  0  0  0  0  0  0
   43.4270   35.5310   38.3980 H   0  0  0  0  0  0  0  0  0  0  0  0
   41.2760   35.3380   37.1940 H   0  0  0  0  0  0  0  0  0  0  0  0
   43.9700   34.6570   42.3550 C   0  0  1  0  0  0  0  0  0  0  0  0
   44.1770   36.1500   41.9290 C   0  0  0  0  0  0  0  0  0  0  0  0
   44.0080   34.9820   40.9610 C   0  0  2  0  0  0  0  0  0  0  0  0
   42.9800   34.5280   42.8840 H   0  0  0  0  0  0  0  0  0  0  0  0
   43.3140   36.8100   41.9980 H   0  0  0  0  0  0  0  0  0  0  0  0
   45.1780   36.5670   42.0590 H   0  0  0  0  0  0  0  0  0  0  0  0
   44.8390   34.8660   40.2650 H   0  0  0  0  0  0  0  0  0  0  0  0
   45.1020   34.0920   43.1180 C   0  0  0  0  0  0  0  0  0  0  0  0
   46.3400   33.9760   42.4490 C   0  0  0  0  0  0  0  0  0  0  0  0
   47.4230   33.4500   43.1470 C   0  0  0  0  0  0  0  0  0  0  0  0
   47.2260   33.0760   44.4380 N   0  0  0  0  0  0  0  0  0  0  0  0
   46.0320   33.2010   45.0450 C   0  0  0  0  0  0  0  0  0  0  0  0
   45.0050   33.7080   44.3590 N   0  0  0  0  0  0  0  0  0  0  0  0
   46.4510   34.2890   41.4140 H   0  0  0  0  0  0  0  0  0  0  0  0
   48.4020   33.3400   42.6730 H   0  0  0  0  0  0  0  0  0  0  0  0
   46.0350   32.7360   46.4650 C   0  0  0  0  0  0  0  0  0  0  0  0
   45.0700   33.3970   47.2080 F   0  0  0  0  0  0  0  0  0  0  0  0
   47.2680   33.0740   47.0620 F   0  0  0  0  0  0  0  0  0  0  0  0
   45.9280   31.3740   46.5140 F   0  0  0  0  0  0  0  0  0  0  0  0
   39.2440   33.8490   41.0460 C   0  0  0  0  0  0  0  0  0  0  0  0
   39.6220   33.3990   42.0120 H   0  0  0  0  0  0  0  0  0  0  0  0
   38.5550   34.6480   41.3810 H   0  0  0  0  0  0  0  0  0  0  0  0
   38.5140   32.7270   40.3570 C   0  0  0  0  0  0  0  0  0  0  0  0
   37.4830   33.0960   40.1810 H   0  0  0  0  0  0  0  0  0  0  0  0
   38.9440   32.6160   39.3110 H   0  0  0  0  0  0  0  0  0  0  0  0
   38.4820   31.4540   41.0510 C   0  0  0  0  0  0  0  0  0  0  0  0
   37.5110   30.4970   41.2330 C   0  0  0  0  0  0  0  0  0  0  0  0
   37.6370   29.3290   41.9470 C   0  0  0  0  0  0  0  0  0  0  0  0
   36.7820   28.6700   42.0020 H   0  0  0  0  0  0  0  0  0  0  0  0
   38.8260   29.1100   42.5210 N   0  0  0  0  0  0  0  0  0  0  0  0
   39.8300   30.0200   42.3790 C   0  0  0  0  0  0  0  0  0  0  0  0
   39.6480   31.1280   41.6770 N   0  0  0  0  0  0  0  0  0  0  0  0
  1  6  1  0  0  0  0
  1 11  1  0  0  0  0
  2  1  2  0  0  0  0
  3  2  1  0  0  0  0
  3  4  2  0  0  0  0
  4  5  1  0  0  0  0
  5  6  2  0  0  0  0
  5 28  1  0  0  0  0
  7  2  1  0  0  0  0
  8  3  1  0  0  0  0
  9 12  1  1  0  0  0
  9 16  1  0  0  0  0
 10 13  1  0  0  0  0
 10 14  1  0  0  0  0
 10  9  1  0  0  0  0
 11 15  1  6  0  0  0
 11 10  1  0  0  0  0
 11  9  1  0  0  0  0
 16 21  1  0  0  0  0
 17 16  2  0  0  0  0
 17 18  1  0  0  0  0
 18 19  2  0  0  0  0
 19 20  1  0  0  0  0
 20 24  1  0  0  0  0
 21 20  2  0  0  0  0
 22 17  1  0  0  0  0
 23 18  1  0  0  0  0
 24 27  1  0  0  0  0
 24 26  1  0  0  0  0
 24 25  1  0  0  0  0
 28 30  1  0  0  0  0
 28 29  1  0  0  0  0
 31 28  1  0  0  0  0
 31 34  1  0  0  0  0
 32 31  1  0  0  0  0
 33 31  1  0  0  0  0
 34 35  2  0  0  0  0
 34 40  1  0  0  0  0
 35 36  1  0  0  0  0
 36 37  1  0  0  0  0
 36 38  2  0  0  0  0
 39 38  1  0  0  0  0
 40 39  2  0  0  0  0
M  END
>  <minimizedAffinity>
-6.05286121

>  <minimizedRMSD>
1.65786242

$$$$
