
 OpenBabel03242520373D

 33 36  0  0  1  0  0  0  0  0999 V2000
   45.7100   33.5370   43.0450 C   0  0  0  0  0  0  0  0  0  0  0  0
   46.9900   33.0530   42.6030 C   0  0  0  0  0  0  0  0  0  0  0  0
   47.8160   32.5360   43.5640 C   0  0  0  0  0  0  0  0  0  0  0  0
   47.3810   32.5140   44.8480 N   0  0  0  0  0  0  0  0  0  0  0  0
   46.1920   32.9670   45.2370 C   0  0  0  0  0  0  0  0  0  0  0  0
   45.3580   33.4800   44.3210 N   0  0  0  0  0  0  0  0  0  0  0  0
   45.0090   33.9530   42.3550 H   0  0  0  0  0  0  0  0  0  0  0  0
   48.7760   32.1710   43.2470 H   0  0  0  0  0  0  0  0  0  0  0  0
   47.3890   33.1330   41.1780 C   0  0  1  0  0  0  0  0  0  0  0  0
   46.8200   34.1020   40.2870 C   0  0  0  0  0  0  0  0  0  0  0  0
   48.2020   34.3610   40.7360 C   0  0  1  0  0  0  0  0  0  0  0  0
   47.9730   32.2090   40.8870 H   0  0  0  0  0  0  0  0  0  0  0  0
   45.9750   34.7280   40.6410 H   0  0  0  0  0  0  0  0  0  0  0  0
   46.6260   33.7930   39.2140 H   0  0  0  0  0  0  0  0  0  0  0  0
   48.9560   34.2330   39.9160 H   0  0  0  0  0  0  0  0  0  0  0  0
   48.5660   35.4150   41.7080 C   0  0  0  0  0  0  0  0  0  0  0  0
   49.2410   36.4620   41.1050 F   0  0  0  0  0  0  0  0  0  0  0  0
   49.3520   34.9160   42.7520 F   0  0  0  0  0  0  0  0  0  0  0  0
   47.3950   35.9250   42.2170 F   0  0  0  0  0  0  0  0  0  0  0  0
   45.8390   32.8810   46.6740 C   0  0  2  0  0  0  0  0  0  0  0  0
   46.9970   32.4800   47.5690 C   0  0  0  0  0  0  0  0  0  0  0  0
   45.8530   31.5710   47.3870 C   0  0  2  0  0  0  0  0  0  0  0  0
   45.1210   33.6510   47.0570 H   0  0  0  0  0  0  0  0  0  0  0  0
   47.1330   33.0130   48.5420 H   0  0  0  0  0  0  0  0  0  0  0  0
   47.9550   32.1910   47.1120 H   0  0  0  0  0  0  0  0  0  0  0  0
   45.1020   31.5650   48.2420 H   0  0  0  0  0  0  0  0  0  0  0  0
   45.9140   30.2890   46.6740 C   0  0  0  0  0  0  0  0  0  0  0  0
   44.9160   29.5840   46.0400 C   0  0  0  0  0  0  0  0  0  0  0  0
   45.1060   28.3740   45.4220 C   0  0  0  0  0  0  0  0  0  0  0  0
   44.2300   27.9190   44.9560 H   0  0  0  0  0  0  0  0  0  0  0  0
   46.3180   27.7900   45.3980 N   0  0  0  0  0  0  0  0  0  0  0  0
   47.3100   28.4850   46.0230 C   0  0  0  0  0  0  0  0  0  0  0  0
   47.1330   29.6710   46.6330 N   0  0  0  0  0  0  0  0  0  0  0  0
  1  6  1  0  0  0  0
  2  1  2  0  0  0  0
  2  3  1  0  0  0  0
  3  4  2  0  0  0  0
  4  5  1  0  0  0  0
  5 20  1  0  0  0  0
  6  5  2  0  0  0  0
  7  1  1  0  0  0  0
  8  3  1  0  0  0  0
  9 12  1  6  0  0  0
  9  2  1  0  0  0  0
 10 13  1  0  0  0  0
 10 11  1  0  0  0  0
 10  9  1  0  0  0  0
 11 15  1  6  0  0  0
 11  9  1  0  0  0  0
 11 16  1  0  0  0  0
 14 10  1  0  0  0  0
 16 19  1  0  0  0  0
 16 18  1  0  0  0  0
 17 16  1  0  0  0  0
 20 23  1  1  0  0  0
 20 22  1  0  0  0  0
 20 21  1  0  0  0  0
 21 24  1  0  0  0  0
 22 21  1  0  0  0  0
 22 26  1  1  0  0  0
 25 21  1  0  0  0  0
 27 22  1  0  0  0  0
 28 27  2  0  0  0  0
 29 28  1  0  0  0  0
 30 29  1  0  0  0  0
 31 29  2  0  0  0  0
 31 32  1  0  0  0  0
 32 33  2  0  0  0  0
 33 27  1  0  0  0  0
M  END
>  <minimizedAffinity>
-5.21373558

>  <minimizedRMSD>
0.339812338

$$$$
