
 OpenBabel03242516423D

 30 31  0  0  0  0  0  0  0  0999 V2000
   38.8970   32.9280   40.8720 C   0  0  0  0  0  0  0  0  0  0  0  0
   38.8890   33.1250   41.9660 H   0  0  0  0  0  0  0  0  0  0  0  0
   39.3820   31.9290   40.7390 H   0  0  0  0  0  0  0  0  0  0  0  0
   39.6230   34.0390   40.1670 C   0  0  0  0  0  0  0  0  0  0  0  0
   40.1430   34.7430   40.8170 H   0  0  0  0  0  0  0  0  0  0  0  0
   38.8100   34.6430   39.6670 H   0  0  0  0  0  0  0  0  0  0  0  0
   42.2560   33.6970   37.5080 C   0  0  0  0  0  0  0  0  0  0  0  0
   41.4710   34.2190   38.5590 C   0  0  0  0  0  0  0  0  0  0  0  0
   40.4290   33.4760   39.0710 C   0  0  0  0  0  0  0  0  0  0  0  0
   40.2010   32.2730   38.5400 N   0  0  0  0  0  0  0  0  0  0  0  0
   40.9580   31.7720   37.5270 C   0  0  0  0  0  0  0  0  0  0  0  0
   41.9750   32.4710   37.0130 N   0  0  0  0  0  0  0  0  0  0  0  0
   43.3260   34.4290   36.9640 N   0  0  0  0  0  0  0  0  0  0  0  0
   41.6830   35.1950   38.9640 H   0  0  0  0  0  0  0  0  0  0  0  0
   40.7660   30.7800   37.0950 H   0  0  0  0  0  0  0  0  0  0  0  0
   43.3200   35.4700   37.0050 H   0  0  0  0  0  0  0  0  0  0  0  0
   44.1240   33.9480   36.5220 H   0  0  0  0  0  0  0  0  0  0  0  0
   37.5740   32.9130   40.4720 O   0  0  0  0  0  0  0  0  0  0  0  0
   36.6290   31.0790   38.8710 O   0  0  0  0  0  0  0  0  0  0  0  0
   37.0030   31.3240   40.3040 P   0  0  2  0  0  0  0  0  0  0  0  0
   35.6960   31.1270   41.3520 O   0  0  0  0  0  0  0  0  0  0  0  0
   35.9750   30.8260   42.2520 H   0  0  0  0  0  0  0  0  0  0  0  0
   38.2100   30.2540   40.8280 O   0  0  0  0  0  0  0  0  0  0  0  0
   38.0390   29.1730   41.6550 C   0  0  0  0  0  0  0  0  0  0  0  0
   38.3850   27.9380   41.0930 C   0  0  0  0  0  3  0  0  0  0  0  0
   38.2450   26.7770   41.8630 C   0  0  0  0  0  0  0  0  0  0  0  0
   38.5130   25.8140   41.4330 H   0  0  0  0  0  0  0  0  0  0  0  0
   37.7880   26.8030   43.1310 N   0  0  0  0  0  0  0  0  0  0  0  0
   37.4630   28.0300   43.6360 C   0  0  0  0  0  3  0  0  0  0  0  0
   37.5860   29.1680   42.9220 N   0  0  0  0  0  0  0  0  0  0  0  0
  1  2  1  0  0  0  0
  3  1  1  0  0  0  0
  4  5  1  0  0  0  0
  4  1  1  0  0  0  0
  6  4  1  0  0  0  0
  7  8  1  0  0  0  0
  8 14  1  0  0  0  0
  8  9  2  0  0  0  0
  9  4  1  0  0  0  0
 10  9  1  0  0  0  0
 11 10  2  0  0  0  0
 12  7  2  0  0  0  0
 12 11  1  0  0  0  0
 13 16  1  0  0  0  0
 13  7  1  0  0  0  0
 15 11  1  0  0  0  0
 17 13  1  0  0  0  0
 18  1  1  0  0  0  0
 20 19  2  6  0  0  0
 20 18  1  0  0  0  0
 20 23  1  0  0  0  0
 20 21  1  0  0  0  0
 21 22  1  0  0  0  0
 23 24  1  0  0  0  0
 24 30  1  0  0  0  0
 25 24  2  0  0  0  0
 25 26  1  0  0  0  0
 26 28  2  0  0  0  0
 27 26  1  0  0  0  0
 28 29  1  0  0  0  0
 30 29  2  0  0  0  0
M  END
>  <minimizedAffinity>
-5.51845932

$$$$

 OpenBabel03242516423D

 30 31  0  0  0  0  0  0  0  0999 V2000
   38.8630   30.4760   39.3170 C   0  0  0  0  0  0  0  0  0  0  0  0
   38.9000   31.2480   40.1160 H   0  0  0  0  0  0  0  0  0  0  0  0
   39.4940   29.6260   39.6760 H   0  0  0  0  0  0  0  0  0  0  0  0
   39.3460   31.0690   38.0240 C   0  0  0  0  0  0  0  0  0  0  0  0
   38.5880   31.1780   37.2480 H   0  0  0  0  0  0  0  0  0  0  0  0
   40.0800   30.3130   37.6160 H   0  0  0  0  0  0  0  0  0  0  0  0
   41.8660   33.8300   37.6510 C   0  0  0  0  0  0  0  0  0  0  0  0
   41.0960   32.6750   37.3980 C   0  0  0  0  0  0  0  0  0  0  0  0
   40.1390   32.2770   38.3070 C   0  0  0  0  0  0  0  0  0  0  0  0
   39.9800   33.0140   39.4090 N   0  0  0  0  0  0  0  0  0  0  0  0
   40.7240   34.1270   39.6500 C   0  0  0  0  0  0  0  0  0  0  0  0
   41.6580   34.5350   38.7860 N   0  0  0  0  0  0  0  0  0  0  0  0
   42.8500   34.2640   36.7450 N   0  0  0  0  0  0  0  0  0  0  0  0
   41.2520   32.1040   36.4980 H   0  0  0  0  0  0  0  0  0  0  0  0
   40.5870   34.7290   40.5590 H   0  0  0  0  0  0  0  0  0  0  0  0
   43.3180   33.5780   36.1150 H   0  0  0  0  0  0  0  0  0  0  0  0
   43.1180   35.2580   36.6920 H   0  0  0  0  0  0  0  0  0  0  0  0
   37.5350   30.1120   39.1920 O   0  0  0  0  0  0  0  0  0  0  0  0
   35.2520   30.0200   40.4590 O   0  0  0  0  0  0  0  0  0  0  0  0
   36.6400   30.5860   40.5530 P   0  0  2  0  0  0  0  0  0  0  0  0
   36.6420   32.2720   40.6140 O   0  0  0  0  0  0  0  0  0  0  0  0
   37.4130   32.6310   41.1190 H   0  0  0  0  0  0  0  0  0  0  0  0
   37.4430   30.0500   41.9470 O   0  0  0  0  0  0  0  0  0  0  0  0
   37.7730   28.7540   42.2520 C   0  0  0  0  0  0  0  0  0  0  0  0
   38.9070   28.6050   43.0580 C   0  0  0  0  0  3  0  0  0  0  0  0
   39.3200   27.3180   43.4220 C   0  0  0  0  0  0  0  0  0  0  0  0
   40.2010   27.1970   44.0500 H   0  0  0  0  0  0  0  0  0  0  0  0
   38.6650   26.2100   43.0230 N   0  0  0  0  0  0  0  0  0  0  0  0
   37.5650   26.4040   42.2370 C   0  0  0  0  0  3  0  0  0  0  0  0
   37.1380   27.6310   41.8690 N   0  0  0  0  0  0  0  0  0  0  0  0
  1  3  1  0  0  0  0
  1  2  1  0  0  0  0
  4  9  1  0  0  0  0
  4  1  1  0  0  0  0
  5  4  1  0  0  0  0
  6  4  1  0  0  0  0
  7 12  1  0  0  0  0
  8  7  2  0  0  0  0
  8  9  1  0  0  0  0
  9 10  2  0  0  0  0
 10 11  1  0  0  0  0
 11 15  1  0  0  0  0
 12 11  2  0  0  0  0
 13  7  1  0  0  0  0
 14  8  1  0  0  0  0
 16 13  1  0  0  0  0
 17 13  1  0  0  0  0
 18  1  1  0  0  0  0
 18 20  1  0  0  0  0
 20 19  2  6  0  0  0
 20 21  1  0  0  0  0
 20 23  1  0  0  0  0
 21 22  1  0  0  0  0
 23 24  1  0  0  0  0
 24 25  1  0  0  0  0
 25 26  2  0  0  0  0
 26 27  1  0  0  0  0
 28 26  1  0  0  0  0
 29 28  2  0  0  0  0
 30 29  1  0  0  0  0
 30 24  2  0  0  0  0
M  END
>  <minimizedAffinity>
-5.36398077

$$$$

 OpenBabel03242516423D

 30 31  0  0  0  0  0  0  0  0999 V2000
   37.4490   29.7180   38.5670 C   0  0  0  0  0  0  0  0  0  0  0  0
   38.4210   29.3560   38.1670 H   0  0  0  0  0  0  0  0  0  0  0  0
   36.6630   29.0640   38.1150 H   0  0  0  0  0  0  0  0  0  0  0  0
   37.2780   31.1720   38.2290 C   0  0  0  0  0  0  0  0  0  0  0  0
   36.2720   31.5680   38.3670 H   0  0  0  0  0  0  0  0  0  0  0  0
   37.4700   31.2350   37.1180 H   0  0  0  0  0  0  0  0  0  0  0  0
   39.0550   33.6050   40.4740 C   0  0  0  0  0  0  0  0  0  0  0  0
   38.0350   32.8500   39.8550 C   0  0  0  0  0  0  0  0  0  0  0  0
   38.3560   31.9510   38.8610 C   0  0  0  0  0  0  0  0  0  0  0  0
   39.6410   31.8300   38.5190 N   0  0  0  0  0  0  0  0  0  0  0  0
   40.6220   32.5600   39.1170 C   0  0  0  0  0  0  0  0  0  0  0  0
   40.3390   33.4390   40.0830 N   0  0  0  0  0  0  0  0  0  0  0  0
   38.7620   34.5310   41.4900 N   0  0  0  0  0  0  0  0  0  0  0  0
   37.0080   32.9730   40.1560 H   0  0  0  0  0  0  0  0  0  0  0  0
   41.6770   32.4560   38.8310 H   0  0  0  0  0  0  0  0  0  0  0  0
   37.8230   34.9820   41.5300 H   0  0  0  0  0  0  0  0  0  0  0  0
   39.4660   34.7730   42.2040 H   0  0  0  0  0  0  0  0  0  0  0  0
   37.5150   29.5660   39.9400 O   0  0  0  0  0  0  0  0  0  0  0  0
   35.0180   28.9080   39.5510 O   0  0  0  0  0  0  0  0  0  0  0  0
   35.9680   29.3860   40.6110 P   0  0  2  0  0  0  0  0  0  0  0  0
   35.5080   30.8730   41.2620 O   0  0  0  0  0  0  0  0  0  0  0  0
   35.7950   30.9790   42.2020 H   0  0  0  0  0  0  0  0  0  0  0  0
   36.0600   28.2980   41.9070 O   0  0  0  0  0  0  0  0  0  0  0  0
   37.1630   27.5770   42.2920 C   0  0  0  0  0  0  0  0  0  0  0  0
   37.2970   26.3270   41.6770 C   0  0  0  0  0  3  0  0  0  0  0  0
   38.3930   25.5210   42.0070 C   0  0  0  0  0  0  0  0  0  0  0  0
   38.5040   24.5480   41.5310 H   0  0  0  0  0  0  0  0  0  0  0  0
   39.3290   25.9040   42.8980 N   0  0  0  0  0  0  0  0  0  0  0  0
   39.1550   27.1310   43.4730 C   0  0  0  0  0  3  0  0  0  0  0  0
   38.1110   27.9340   43.1780 N   0  0  0  0  0  0  0  0  0  0  0  0
  1 18  1  0  0  0  0
  2  1  1  0  0  0  0
  3  1  1  0  0  0  0
  4  5  1  0  0  0  0
  4  1  1  0  0  0  0
  4  9  1  0  0  0  0
  6  4  1  0  0  0  0
  7 13  1  0  0  0  0
  8 14  1  0  0  0  0
  8  7  2  0  0  0  0
  9  8  1  0  0  0  0
 10  9  2  0  0  0  0
 10 11  1  0  0  0  0
 11 12  2  0  0  0  0
 12  7  1  0  0  0  0
 13 16  1  0  0  0  0
 13 17  1  0  0  0  0
 15 11  1  0  0  0  0
 18 20  1  0  0  0  0
 20 19  2  6  0  0  0
 20 21  1  0  0  0  0
 20 23  1  0  0  0  0
 21 22  1  0  0  0  0
 23 24  1  0  0  0  0
 24 30  1  0  0  0  0
 25 26  1  0  0  0  0
 25 24  2  0  0  0  0
 26 28  2  0  0  0  0
 27 26  1  0  0  0  0
 28 29  1  0  0  0  0
 30 29  2  0  0  0  0
M  END
>  <minimizedAffinity>
-5.33867502

$$$$

 OpenBabel03242516423D

 30 31  0  0  0  0  0  0  0  0999 V2000
   38.8900   32.3360   40.2150 C   0  0  0  0  0  0  0  0  0  0  0  0
   39.7360   31.6970   39.8820 H   0  0  0  0  0  0  0  0  0  0  0  0
   38.1010   32.2440   39.4280 H   0  0  0  0  0  0  0  0  0  0  0  0
   39.3720   33.7460   40.4080 C   0  0  0  0  0  0  0  0  0  0  0  0
   39.1530   34.1860   41.3810 H   0  0  0  0  0  0  0  0  0  0  0  0
   38.7800   34.3580   39.6670 H   0  0  0  0  0  0  0  0  0  0  0  0
   42.3830   34.1740   38.2020 C   0  0  0  0  0  0  0  0  0  0  0  0
   41.0450   34.0740   38.6390 C   0  0  0  0  0  0  0  0  0  0  0  0
   40.7750   33.8460   39.9720 C   0  0  0  0  0  0  0  0  0  0  0  0
   41.8100   33.7250   40.8060 N   0  0  0  0  0  0  0  0  0  0  0  0
   43.0990   33.8210   40.3820 C   0  0  0  0  0  0  0  0  0  0  0  0
   43.3890   34.0420   39.0960 N   0  0  0  0  0  0  0  0  0  0  0  0
   42.6930   34.4060   36.8500 N   0  0  0  0  0  0  0  0  0  0  0  0
   40.2340   34.1770   37.9380 H   0  0  0  0  0  0  0  0  0  0  0  0
   43.9460   33.7210   41.0740 H   0  0  0  0  0  0  0  0  0  0  0  0
   42.0290   34.1080   36.1040 H   0  0  0  0  0  0  0  0  0  0  0  0
   43.5740   34.8710   36.5820 H   0  0  0  0  0  0  0  0  0  0  0  0
   38.4690   31.8210   41.4270 O   0  0  0  0  0  0  0  0  0  0  0  0
   37.6870   29.8500   39.9010 O   0  0  0  0  0  0  0  0  0  0  0  0
   37.3850   30.5360   41.2020 P   0  0  2  0  0  0  0  0  0  0  0  0
   35.8190   31.1640   41.2480 O   0  0  0  0  0  0  0  0  0  0  0  0
   35.4480   31.1860   42.1640 H   0  0  0  0  0  0  0  0  0  0  0  0
   37.5190   29.4730   42.5170 O   0  0  0  0  0  0  0  0  0  0  0  0
   37.7360   28.1200   42.4540 C   0  0  0  0  0  0  0  0  0  0  0  0
   38.9570   27.6910   42.9890 C   0  0  0  0  0  3  0  0  0  0  0  0
   39.2660   26.3260   42.9700 C   0  0  0  0  0  0  0  0  0  0  0  0
   40.2130   25.9860   43.3850 H   0  0  0  0  0  0  0  0  0  0  0  0
   38.4290   25.4030   42.4550 N   0  0  0  0  0  0  0  0  0  0  0  0
   37.2500   25.8690   41.9440 C   0  0  0  0  0  3  0  0  0  0  0  0
   36.9200   27.1780   41.9470 N   0  0  0  0  0  0  0  0  0  0  0  0
  1  4  1  0  0  0  0
  1 18  1  0  0  0  0
  2  1  1  0  0  0  0
  3  1  1  0  0  0  0
  4  5  1  0  0  0  0
  6  4  1  0  0  0  0
  7  8  2  0  0  0  0
  7 12  1  0  0  0  0
  8  9  1  0  0  0  0
  9  4  1  0  0  0  0
  9 10  2  0  0  0  0
 11 10  1  0  0  0  0
 11 15  1  0  0  0  0
 12 11  2  0  0  0  0
 13  7  1  0  0  0  0
 14  8  1  0  0  0  0
 16 13  1  0  0  0  0
 17 13  1  0  0  0  0
 20 19  2  6  0  0  0
 20 21  1  0  0  0  0
 20 18  1  0  0  0  0
 20 23  1  0  0  0  0
 21 22  1  0  0  0  0
 24 23  1  0  0  0  0
 24 25  1  0  0  0  0
 26 25  2  0  0  0  0
 26 27  1  0  0  0  0
 28 26  1  0  0  0  0
 29 30  1  0  0  0  0
 29 28  2  0  0  0  0
 30 24  2  0  0  0  0
M  END
>  <minimizedAffinity>
-5.19825649

$$$$

 OpenBabel03242516423D

 30 31  0  0  0  0  0  0  0  0999 V2000
   37.3860   29.1860   42.3140 C   0  0  0  0  0  0  0  0  0  0  0  0
   38.3230   29.1180   42.9080 H   0  0  0  0  0  0  0  0  0  0  0  0
   36.7660   29.9800   42.8010 H   0  0  0  0  0  0  0  0  0  0  0  0
   36.7130   27.8430   42.2830 C   0  0  0  0  0  0  0  0  0  0  0  0
   36.0750   27.6610   41.4190 H   0  0  0  0  0  0  0  0  0  0  0  0
   36.0140   27.8500   43.1710 H   0  0  0  0  0  0  0  0  0  0  0  0
   38.4590   24.5160   42.2970 C   0  0  0  0  0  0  0  0  0  0  0  0
   37.5190   25.5360   42.0350 C   0  0  0  0  0  0  0  0  0  0  0  0
   37.7050   26.7930   42.5690 C   0  0  0  0  0  0  0  0  0  0  0  0
   38.7850   26.9960   43.3270 N   0  0  0  0  0  0  0  0  0  0  0  0
   39.6900   26.0110   43.5790 C   0  0  0  0  0  0  0  0  0  0  0  0
   39.5340   24.7840   43.0730 N   0  0  0  0  0  0  0  0  0  0  0  0
   38.2990   23.2240   41.7680 N   0  0  0  0  0  0  0  0  0  0  0  0
   36.6580   25.3370   41.4190 H   0  0  0  0  0  0  0  0  0  0  0  0
   40.5770   26.1850   44.2020 H   0  0  0  0  0  0  0  0  0  0  0  0
   37.3470   22.8670   41.5400 H   0  0  0  0  0  0  0  0  0  0  0  0
   39.1160   22.6170   41.5990 H   0  0  0  0  0  0  0  0  0  0  0  0
   37.7650   29.5440   41.0340 O   0  0  0  0  0  0  0  0  0  0  0  0
   37.9230   32.1350   40.7400 O   0  0  0  0  0  0  0  0  0  0  0  0
   36.9930   30.9730   40.5440 P   0  0  2  0  0  0  0  0  0  0  0  0
   35.5730   31.1290   41.4410 O   0  0  0  0  0  0  0  0  0  0  0  0
   34.8030   30.6820   41.0110 H   0  0  0  0  0  0  0  0  0  0  0  0
   36.5260   30.8100   38.9220 O   0  0  0  0  0  0  0  0  0  0  0  0
   36.3170   29.6350   38.2460 C   0  0  0  0  0  0  0  0  0  0  0  0
   37.0400   29.5000   37.0550 C   0  0  0  0  0  3  0  0  0  0  0  0
   36.8920   28.3330   36.2970 C   0  0  0  0  0  0  0  0  0  0  0  0
   37.4520   28.2220   35.3710 H   0  0  0  0  0  0  0  0  0  0  0  0
   36.0760   27.3270   36.6720 N   0  0  0  0  0  0  0  0  0  0  0  0
   35.3910   27.5040   37.8410 C   0  0  0  0  0  3  0  0  0  0  0  0
   35.5100   28.6160   38.5960 N   0  0  0  0  0  0  0  0  0  0  0  0
  1  3  1  0  0  0  0
  1  2  1  0  0  0  0
  4  1  1  0  0  0  0
  4  9  1  0  0  0  0
  4  6  1  0  0  0  0
  5  4  1  0  0  0  0
  7 12  1  0  0  0  0
  8  7  2  0  0  0  0
  8  9  1  0  0  0  0
  9 10  2  0  0  0  0
 10 11  1  0  0  0  0
 11 15  1  0  0  0  0
 12 11  2  0  0  0  0
 13  7  1  0  0  0  0
 14  8  1  0  0  0  0
 16 13  1  0  0  0  0
 17 13  1  0  0  0  0
 18  1  1  0  0  0  0
 20 19  2  1  0  0  0
 20 18  1  0  0  0  0
 20 21  1  0  0  0  0
 22 21  1  0  0  0  0
 23 20  1  0  0  0  0
 24 30  1  0  0  0  0
 24 23  1  0  0  0  0
 25 24  2  0  0  0  0
 26 28  2  0  0  0  0
 26 25  1  0  0  0  0
 27 26  1  0  0  0  0
 28 29  1  0  0  0  0
 29 30  2  0  0  0  0
M  END
>  <minimizedAffinity>
-4.99032021

$$$$

 OpenBabel03242516423D

 30 31  0  0  0  0  0  0  0  0999 V2000
   37.8260   29.0030   42.6140 C   0  0  0  0  0  0  0  0  0  0  0  0
   38.4130   28.8570   41.6810 H   0  0  0  0  0  0  0  0  0  0  0  0
   38.5640   29.2920   43.4040 H   0  0  0  0  0  0  0  0  0  0  0  0
   37.0750   27.7430   42.9360 C   0  0  0  0  0  0  0  0  0  0  0  0
   36.1550   27.5910   42.3720 H   0  0  0  0  0  0  0  0  0  0  0  0
   36.7450   27.8700   44.0090 H   0  0  0  0  0  0  0  0  0  0  0  0
   38.5500   24.3560   42.2540 C   0  0  0  0  0  0  0  0  0  0  0  0
   37.6670   25.4570   42.2600 C   0  0  0  0  0  0  0  0  0  0  0  0
   38.0090   26.6050   42.9420 C   0  0  0  0  0  0  0  0  0  0  0  0
   39.1820   26.6270   43.5800 N   0  0  0  0  0  0  0  0  0  0  0  0
   40.0310   25.5630   43.5730 C   0  0  0  0  0  0  0  0  0  0  0  0
   39.7240   24.4390   42.9190 N   0  0  0  0  0  0  0  0  0  0  0  0
   38.2320   23.1710   41.5680 N   0  0  0  0  0  0  0  0  0  0  0  0
   36.7280   25.4050   41.7340 H   0  0  0  0  0  0  0  0  0  0  0  0
   40.9940   25.5880   44.0990 H   0  0  0  0  0  0  0  0  0  0  0  0
   37.2350   22.9090   41.4120 H   0  0  0  0  0  0  0  0  0  0  0  0
   38.9750   22.5500   41.2130 H   0  0  0  0  0  0  0  0  0  0  0  0
   36.9310   30.0230   42.3510 O   0  0  0  0  0  0  0  0  0  0  0  0
   35.4410   29.9930   40.2060 O   0  0  0  0  0  0  0  0  0  0  0  0
   36.8230   30.3300   40.6860 P   0  0  2  0  0  0  0  0  0  0  0  0
   38.0120   29.4170   39.9120 O   0  0  0  0  0  0  0  0  0  0  0  0
   38.8740   29.8990   39.8450 H   0  0  0  0  0  0  0  0  0  0  0  0
   37.2040   31.9580   40.4070 O   0  0  0  0  0  0  0  0  0  0  0  0
   38.4540   32.5230   40.4480 C   0  0  0  0  0  0  0  0  0  0  0  0
   38.5060   33.8730   40.0790 C   0  0  0  0  0  3  0  0  0  0  0  0
   39.7400   34.5340   40.0910 C   0  0  0  0  0  0  0  0  0  0  0  0
   39.7860   35.5840   39.8070 H   0  0  0  0  0  0  0  0  0  0  0  0
   40.8850   33.9190   40.4460 N   0  0  0  0  0  0  0  0  0  0  0  0
   40.7850   32.6030   40.7960 C   0  0  0  0  0  3  0  0  0  0  0  0
   39.6120   31.9340   40.7960 N   0  0  0  0  0  0  0  0  0  0  0  0
  1  4  1  0  0  0  0
  1  3  1  0  0  0  0
  2  1  1  0  0  0  0
  4  9  1  0  0  0  0
  4  6  1  0  0  0  0
  5  4  1  0  0  0  0
  7  8  2  0  0  0  0
  7 12  1  0  0  0  0
  8  9  1  0  0  0  0
  9 10  2  0  0  0  0
 11 10  1  0  0  0  0
 11 15  1  0  0  0  0
 12 11  2  0  0  0  0
 13  7  1  0  0  0  0
 14  8  1  0  0  0  0
 16 13  1  0  0  0  0
 17 13  1  0  0  0  0
 18  1  1  0  0  0  0
 20 19  2  6  0  0  0
 20 18  1  0  0  0  0
 21 20  1  0  0  0  0
 22 21  1  0  0  0  0
 23 24  1  0  0  0  0
 23 20  1  0  0  0  0
 24 30  1  0  0  0  0
 25 26  1  0  0  0  0
 25 24  2  0  0  0  0
 26 28  2  0  0  0  0
 27 26  1  0  0  0  0
 28 29  1  0  0  0  0
 30 29  2  0  0  0  0
M  END
>  <minimizedAffinity>
-4.83676815

$$$$

 OpenBabel03242516423D

 30 31  0  0  0  0  0  0  0  0999 V2000
   37.3240   25.8670   41.8220 C   0  0  0  0  0  0  0  0  0  0  0  0
   36.3130   25.5330   41.5050 H   0  0  0  0  0  0  0  0  0  0  0  0
   37.7460   26.4440   40.9610 H   0  0  0  0  0  0  0  0  0  0  0  0
   38.1530   24.6710   42.1960 C   0  0  0  0  0  0  0  0  0  0  0  0
   37.7590   23.7090   41.8710 H   0  0  0  0  0  0  0  0  0  0  0  0
   38.1190   24.6380   43.3250 H   0  0  0  0  0  0  0  0  0  0  0  0
   41.8780   25.0440   42.5210 C   0  0  0  0  0  0  0  0  0  0  0  0
   40.5220   24.8030   42.8320 C   0  0  0  0  0  0  0  0  0  0  0  0
   39.5620   24.9260   41.8510 C   0  0  0  0  0  0  0  0  0  0  0  0
   39.9620   25.2740   40.6260 N   0  0  0  0  0  0  0  0  0  0  0  0
   41.2690   25.5050   40.3280 C   0  0  0  0  0  0  0  0  0  0  0  0
   42.2200   25.3930   41.2600 N   0  0  0  0  0  0  0  0  0  0  0  0
   42.8820   24.9270   43.4980 N   0  0  0  0  0  0  0  0  0  0  0  0
   40.2350   24.5240   43.8320 H   0  0  0  0  0  0  0  0  0  0  0  0
   41.5920   25.7910   39.3180 H   0  0  0  0  0  0  0  0  0  0  0  0
   42.6510   25.0730   44.5030 H   0  0  0  0  0  0  0  0  0  0  0  0
   43.8520   24.6970   43.2340 H   0  0  0  0  0  0  0  0  0  0  0  0
   37.1360   26.6670   42.9330 O   0  0  0  0  0  0  0  0  0  0  0  0
   39.2790   28.1090   43.3260 O   0  0  0  0  0  0  0  0  0  0  0  0
   37.8980   28.1710   42.7400 P   0  0  2  0  0  0  0  0  0  0  0  0
   36.9360   29.3400   43.4860 O   0  0  0  0  0  0  0  0  0  0  0  0
   36.2560   29.7160   42.8740 H   0  0  0  0  0  0  0  0  0  0  0  0
   37.9340   28.5550   41.0890 O   0  0  0  0  0  0  0  0  0  0  0  0
   37.6480   29.7740   40.5280 C   0  0  0  0  0  0  0  0  0  0  0  0
   37.1820   29.7240   39.2090 C   0  0  0  0  0  3  0  0  0  0  0  0
   36.8630   30.9190   38.5540 C   0  0  0  0  0  0  0  0  0  0  0  0
   36.4990   30.8870   37.5280 H   0  0  0  0  0  0  0  0  0  0  0  0
   36.9890   32.1230   39.1470 N   0  0  0  0  0  0  0  0  0  0  0  0
   37.4490   32.1220   40.4330 C   0  0  0  0  0  3  0  0  0  0  0  0
   37.7640   30.9890   41.0950 N   0  0  0  0  0  0  0  0  0  0  0  0
  1  4  1  0  0  0  0
  1 18  1  0  0  0  0
  2  1  1  0  0  0  0
  3  1  1  0  0  0  0
  4  6  1  0  0  0  0
  5  4  1  0  0  0  0
  7  8  1  0  0  0  0
  7 13  1  0  0  0  0
  8 14  1  0  0  0  0
  9  4  1  0  0  0  0
  9  8  2  0  0  0  0
 10  9  1  0  0  0  0
 11 10  2  0  0  0  0
 11 12  1  0  0  0  0
 12  7  2  0  0  0  0
 13 16  1  0  0  0  0
 15 11  1  0  0  0  0
 17 13  1  0  0  0  0
 20 18  1  0  0  0  0
 20 19  2  1  0  0  0
 20 21  1  0  0  0  0
 22 21  1  0  0  0  0
 23 20  1  0  0  0  0
 24 23  1  0  0  0  0
 24 30  1  0  0  0  0
 25 24  2  0  0  0  0
 26 28  2  0  0  0  0
 26 25  1  0  0  0  0
 27 26  1  0  0  0  0
 28 29  1  0  0  0  0
 29 30  2  0  0  0  0
M  END
>  <minimizedAffinity>
-4.82764864

$$$$

 OpenBabel03242516423D

 30 31  0  0  0  0  0  0  0  0999 V2000
   39.5080   30.3700   42.5170 C   0  0  0  0  0  0  0  0  0  0  0  0
   38.4600   30.7390   42.5540 H   0  0  0  0  0  0  0  0  0  0  0  0
   39.9470   30.5780   43.5240 H   0  0  0  0  0  0  0  0  0  0  0  0
   40.2410   31.0540   41.3970 C   0  0  0  0  0  0  0  0  0  0  0  0
   41.1280   30.5350   41.0350 H   0  0  0  0  0  0  0  0  0  0  0  0
   40.6240   32.0160   41.8480 H   0  0  0  0  0  0  0  0  0  0  0  0
   38.8110   32.0000   38.0540 C   0  0  0  0  0  0  0  0  0  0  0  0
   39.7190   31.6120   39.0630 C   0  0  0  0  0  0  0  0  0  0  0  0
   39.2780   31.4590   40.3590 C   0  0  0  0  0  0  0  0  0  0  0  0
   37.9870   31.6900   40.6110 N   0  0  0  0  0  0  0  0  0  0  0  0
   37.1140   32.0640   39.6370 C   0  0  0  0  0  0  0  0  0  0  0  0
   37.5150   32.2190   38.3720 N   0  0  0  0  0  0  0  0  0  0  0  0
   39.2280   32.1640   36.7220 N   0  0  0  0  0  0  0  0  0  0  0  0
   40.7540   31.4340   38.8240 H   0  0  0  0  0  0  0  0  0  0  0  0
   36.0530   32.2520   39.8510 H   0  0  0  0  0  0  0  0  0  0  0  0
   40.2190   32.4120   36.5120 H   0  0  0  0  0  0  0  0  0  0  0  0
   38.5650   32.0420   35.9410 H   0  0  0  0  0  0  0  0  0  0  0  0
   39.4320   29.0140   42.2600 O   0  0  0  0  0  0  0  0  0  0  0  0
   37.0370   28.5530   41.3240 O   0  0  0  0  0  0  0  0  0  0  0  0
   37.8720   28.4200   42.5650 P   0  0  2  0  0  0  0  0  0  0  0  0
   37.2320   29.2840   43.8650 O   0  0  0  0  0  0  0  0  0  0  0  0
   37.4520   28.8720   44.7370 H   0  0  0  0  0  0  0  0  0  0  0  0
   37.9930   26.8060   43.0690 O   0  0  0  0  0  0  0  0  0  0  0  0
   38.1430   25.7070   42.2610 C   0  0  0  0  0  0  0  0  0  0  0  0
   36.9720   24.9740   42.0340 C   0  0  0  0  0  3  0  0  0  0  0  0
   37.0290   23.8360   41.2200 C   0  0  0  0  0  0  0  0  0  0  0  0
   36.1220   23.2630   41.0390 H   0  0  0  0  0  0  0  0  0  0  0  0
   38.1730   23.4170   40.6450 N   0  0  0  0  0  0  0  0  0  0  0  0
   39.2900   24.1620   40.8960 C   0  0  0  0  0  3  0  0  0  0  0  0
   39.2710   25.2650   41.6740 N   0  0  0  0  0  0  0  0  0  0  0  0
  1  2  1  0  0  0  0
  1  3  1  0  0  0  0
  4  6  1  0  0  0  0
  4  1  1  0  0  0  0
  5  4  1  0  0  0  0
  7 12  2  0  0  0  0
  7  8  1  0  0  0  0
  8  9  2  0  0  0  0
  9 10  1  0  0  0  0
  9  4  1  0  0  0  0
 11 15  1  0  0  0  0
 11 10  2  0  0  0  0
 12 11  1  0  0  0  0
 13  7  1  0  0  0  0
 14  8  1  0  0  0  0
 16 13  1  0  0  0  0
 17 13  1  0  0  0  0
 18  1  1  0  0  0  0
 18 20  1  0  0  0  0
 20 19  2  6  0  0  0
 20 23  1  0  0  0  0
 20 21  1  0  0  0  0
 21 22  1  0  0  0  0
 24 23  1  0  0  0  0
 25 24  1  0  0  0  0
 26 25  2  0  0  0  0
 27 26  1  0  0  0  0
 28 29  2  0  0  0  0
 28 26  1  0  0  0  0
 29 30  1  0  0  0  0
 30 24  2  0  0  0  0
M  END
>  <minimizedAffinity>
-4.81541634

$$$$

 OpenBabel03242516423D

 30 31  0  0  0  0  0  0  0  0999 V2000
   39.1370   31.5790   40.1260 C   0  0  0  0  0  0  0  0  0  0  0  0
   40.0030   31.1580   39.5720 H   0  0  0  0  0  0  0  0  0  0  0  0
   38.2760   31.5710   39.4110 H   0  0  0  0  0  0  0  0  0  0  0  0
   39.4800   32.9550   40.6230 C   0  0  0  0  0  0  0  0  0  0  0  0
   39.3380   33.1140   41.6920 H   0  0  0  0  0  0  0  0  0  0  0  0
   38.7340   33.6380   40.1210 H   0  0  0  0  0  0  0  0  0  0  0  0
   42.2010   33.9020   38.2110 C   0  0  0  0  0  0  0  0  0  0  0  0
   40.9470   33.5220   38.7360 C   0  0  0  0  0  0  0  0  0  0  0  0
   40.7970   33.3500   40.0950 C   0  0  0  0  0  0  0  0  0  0  0  0
   41.8640   33.5520   40.8720 N   0  0  0  0  0  0  0  0  0  0  0  0
   43.0720   33.9180   40.3630 C   0  0  0  0  0  0  0  0  0  0  0  0
   43.2450   34.0910   39.0490 N   0  0  0  0  0  0  0  0  0  0  0  0
   42.3870   34.0850   36.8300 N   0  0  0  0  0  0  0  0  0  0  0  0
   40.1060   33.3670   38.0800 H   0  0  0  0  0  0  0  0  0  0  0  0
   43.9460   34.0830   41.0080 H   0  0  0  0  0  0  0  0  0  0  0  0
   41.7860   33.5750   36.1490 H   0  0  0  0  0  0  0  0  0  0  0  0
   43.1160   34.7230   36.4750 H   0  0  0  0  0  0  0  0  0  0  0  0
   38.9190   30.7390   41.2010 O   0  0  0  0  0  0  0  0  0  0  0  0
   36.4020   31.3980   40.9660 O   0  0  0  0  0  0  0  0  0  0  0  0
   37.3000   30.2330   41.2650 P   0  0  2  0  0  0  0  0  0  0  0  0
   37.0190   29.5830   42.7970 O   0  0  0  0  0  0  0  0  0  0  0  0
   37.2200   28.6160   42.8390 H   0  0  0  0  0  0  0  0  0  0  0  0
   37.0800   28.9700   40.1550 O   0  0  0  0  0  0  0  0  0  0  0  0
   36.3680   29.0270   38.9840 C   0  0  0  0  0  0  0  0  0  0  0  0
   34.9970   28.7720   39.1120 C   0  0  0  0  0  3  0  0  0  0  0  0
   34.1890   28.8090   37.9690 C   0  0  0  0  0  0  0  0  0  0  0  0
   33.1230   28.6120   38.0620 H   0  0  0  0  0  0  0  0  0  0  0  0
   34.6820   29.0820   36.7450 N   0  0  0  0  0  0  0  0  0  0  0  0
   36.0240   29.3230   36.6690 C   0  0  0  0  0  3  0  0  0  0  0  0
   36.8320   29.2970   37.7500 N   0  0  0  0  0  0  0  0  0  0  0  0
  1  4  1  0  0  0  0
  1 18  1  0  0  0  0
  2  1  1  0  0  0  0
  3  1  1  0  0  0  0
  4  5  1  0  0  0  0
  6  4  1  0  0  0  0
  7  8  2  0  0  0  0
  7 12  1  0  0  0  0
  8  9  1  0  0  0  0
  9  4  1  0  0  0  0
  9 10  2  0  0  0  0
 11 10  1  0  0  0  0
 11 15  1  0  0  0  0
 12 11  2  0  0  0  0
 13  7  1  0  0  0  0
 14  8  1  0  0  0  0
 16 13  1  0  0  0  0
 17 13  1  0  0  0  0
 18 20  1  0  0  0  0
 20 19  2  6  0  0  0
 20 21  1  0  0  0  0
 21 22  1  0  0  0  0
 23 20  1  0  0  0  0
 24 25  1  0  0  0  0
 24 23  1  0  0  0  0
 26 27  1  0  0  0  0
 26 25  2  0  0  0  0
 28 26  1  0  0  0  0
 29 28  2  0  0  0  0
 29 30  1  0  0  0  0
 30 24  2  0  0  0  0
M  END
>  <minimizedAffinity>
-4.64800501

$$$$
