
 OpenBabel03252505003D

 35 37  0  0  1  0  0  0  0  0999 V2000
   38.8410   29.4670   42.6810 N   0  0  0  0  0  0  0  0  0  0  0  0
   39.5130   28.2310   42.7640 C   0  0  0  0  0  0  0  0  0  0  0  0
   38.5090   27.3560   43.4170 C   0  0  0  0  0  0  0  0  0  0  0  0
   37.2360   28.1720   43.6370 C   0  0  0  0  0  0  0  0  0  0  0  0
   37.4430   29.3260   42.6460 C   0  0  2  0  0  0  0  0  0  0  0  0
   40.4240   27.7740   42.5300 H   0  0  0  0  0  0  0  0  0  0  0  0
   38.5370   26.3170   43.7070 H   0  0  0  0  0  0  0  0  0  0  0  0
   37.1680   28.5260   44.6630 H   0  0  0  0  0  0  0  0  0  0  0  0
   36.3930   27.5470   43.2840 H   0  0  0  0  0  0  0  0  0  0  0  0
   36.8920   30.2260   42.9150 H   0  0  0  0  0  0  0  0  0  0  0  0
   39.5620   30.6360   42.6780 C   0  0  0  0  0  0  0  0  0  0  0  0
   39.2560   31.3830   43.4450 H   0  0  0  0  0  0  0  0  0  0  0  0
   40.6050   30.3890   42.9990 H   0  0  0  0  0  0  0  0  0  0  0  0
   40.2340   31.7340   39.1180 C   0  0  0  0  0  0  0  0  0  0  0  0
   40.3280   30.9500   40.3120 C   0  0  0  0  0  0  0  0  0  0  0  0
   39.5830   31.3520   41.4220 C   0  0  0  0  0  0  0  0  0  0  0  0
   38.8230   32.4620   41.2890 N   0  0  0  0  0  0  0  0  0  0  0  0
   38.7440   33.2040   40.1350 C   0  0  0  0  0  0  0  0  0  0  0  0
   39.4440   32.8430   39.0600 N   0  0  0  0  0  0  0  0  0  0  0  0
   40.8450   31.3550   38.2950 H   0  0  0  0  0  0  0  0  0  0  0  0
   40.9400   30.0850   40.3670 H   0  0  0  0  0  0  0  0  0  0  0  0
   38.1170   34.0790   40.1030 H   0  0  0  0  0  0  0  0  0  0  0  0
   37.1290   28.8100   41.3790 O   0  0  0  0  0  0  0  0  0  0  0  0
   36.9320   30.3710   39.2320 O   0  0  0  0  0  0  0  0  0  0  0  0
   36.1960   29.8100   40.4340 P   0  0  2  0  0  0  0  0  0  0  0  0
   35.7690   31.1650   41.3800 O   0  0  0  0  0  0  0  0  0  0  0  0
   35.1260   30.8270   42.0650 H   0  0  0  0  0  0  0  0  0  0  0  0
   34.7320   29.0840   40.0070 O   0  0  0  0  0  0  0  0  0  0  0  0
   34.5190   28.5850   38.7360 C   0  0  0  0  0  0  0  0  0  0  0  0
   33.6560   28.8930   37.7080 C   0  0  0  0  0  3  0  0  0  0  0  0
   33.6990   28.1830   36.5300 C   0  0  0  0  0  0  0  0  0  0  0  0
   32.9820   28.5010   35.7850 H   0  0  0  0  0  0  0  0  0  0  0  0
   34.6050   27.1720   36.3920 N   0  0  0  0  0  0  0  0  0  0  0  0
   35.4530   26.8610   37.3880 C   0  0  0  0  0  3  0  0  0  0  0  0
   35.4090   27.5640   38.5520 N   0  0  0  0  0  0  0  0  0  0  0  0
  1  2  1  0  0  0  0
  2  3  2  0  0  0  0
  3  4  1  0  0  0  0
  3  7  1  0  0  0  0
  4  8  1  0  0  0  0
  5  1  1  0  0  0  0
  5 10  1  1  0  0  0
  5  4  1  0  0  0  0
  6  2  1  0  0  0  0
  9  4  1  0  0  0  0
 11  1  1  0  0  0  0
 11 13  1  0  0  0  0
 11 12  1  0  0  0  0
 14 15  1  0  0  0  0
 15 21  1  0  0  0  0
 15 16  2  0  0  0  0
 16 11  1  0  0  0  0
 17 16  1  0  0  0  0
 18 17  2  0  0  0  0
 19 14  2  0  0  0  0
 19 18  1  0  0  0  0
 20 14  1  0  0  0  0
 22 18  1  0  0  0  0
 23  5  1  0  0  0  0
 25 24  2  6  0  0  0
 25 23  1  0  0  0  0
 25 26  1  0  0  0  0
 26 27  1  0  0  0  0
 28 25  1  0  0  0  0
 29 28  1  0  0  0  0
 30 29  2  0  0  0  0
 31 30  1  0  0  0  0
 32 31  1  0  0  0  0
 33 31  2  0  0  0  0
 33 34  1  0  0  0  0
 34 35  2  0  0  0  0
 35 29  1  0  0  0  0
M  END
>  <minimizedAffinity>
-5.25207281

$$$$

 OpenBabel03252505003D

 35 37  0  0  1  0  0  0  0  0999 V2000
   36.9360   30.7160   39.9840 N   0  0  0  0  0  0  0  0  0  0  0  0
   37.0510   29.9450   38.8100 C   0  0  0  0  0  0  0  0  0  0  0  0
   37.2550   30.9740   37.7620 C   0  0  0  0  0  0  0  0  0  0  0  0
   37.2950   32.3430   38.4380 C   0  0  0  0  0  0  0  0  0  0  0  0
   37.5980   31.9520   39.8920 C   0  0  2  0  0  0  0  0  0  0  0  0
   37.0400   28.9550   38.4730 H   0  0  0  0  0  0  0  0  0  0  0  0
   37.3940   30.8990   36.6940 H   0  0  0  0  0  0  0  0  0  0  0  0
   36.3390   32.8560   38.3470 H   0  0  0  0  0  0  0  0  0  0  0  0
   38.1710   32.8780   38.0240 H   0  0  0  0  0  0  0  0  0  0  0  0
   37.2640   32.6970   40.6140 H   0  0  0  0  0  0  0  0  0  0  0  0
   36.2000   30.2400   41.0430 C   0  0  0  0  0  0  0  0  0  0  0  0
   35.8650   31.0120   41.7710 H   0  0  0  0  0  0  0  0  0  0  0  0
   35.2270   29.8680   40.6350 H   0  0  0  0  0  0  0  0  0  0  0  0
   37.0960   26.9750   42.7350 C   0  0  0  0  0  0  0  0  0  0  0  0
   36.3490   27.9070   41.9450 C   0  0  0  0  0  0  0  0  0  0  0  0
   36.8380   29.2090   41.8310 C   0  0  0  0  0  0  0  0  0  0  0  0
   37.9880   29.5000   42.4790 N   0  0  0  0  0  0  0  0  0  0  0  0
   38.6930   28.5930   43.2330 C   0  0  0  0  0  0  0  0  0  0  0  0
   38.2500   27.3420   43.3600 N   0  0  0  0  0  0  0  0  0  0  0  0
   36.6500   25.9770   42.7750 H   0  0  0  0  0  0  0  0  0  0  0  0
   35.4500   27.6310   41.4550 H   0  0  0  0  0  0  0  0  0  0  0  0
   39.6030   28.8950   43.7230 H   0  0  0  0  0  0  0  0  0  0  0  0
   38.9710   31.6710   39.9400 O   0  0  0  0  0  0  0  0  0  0  0  0
   41.0330   32.5010   41.4050 O   0  0  0  0  0  0  0  0  0  0  0  0
   39.9200   32.9300   40.4660 P   0  0  2  0  0  0  0  0  0  0  0  0
   38.9310   33.9760   41.3810 O   0  0  0  0  0  0  0  0  0  0  0  0
   38.3140   34.4090   40.7250 H   0  0  0  0  0  0  0  0  0  0  0  0
   40.4920   33.8640   39.1810 O   0  0  0  0  0  0  0  0  0  0  0  0
   41.6940   33.5800   38.5610 C   0  0  0  0  0  0  0  0  0  0  0  0
   42.9430   34.1610   38.5600 C   0  0  0  0  0  3  0  0  0  0  0  0
   43.9600   33.6140   37.8120 C   0  0  0  0  0  0  0  0  0  0  0  0
   44.9020   34.1420   37.8770 H   0  0  0  0  0  0  0  0  0  0  0  0
   43.7200   32.4930   37.0730 N   0  0  0  0  0  0  0  0  0  0  0  0
   42.5050   31.9160   37.0650 C   0  0  0  0  0  3  0  0  0  0  0  0
   41.4990   32.4580   37.8050 N   0  0  0  0  0  0  0  0  0  0  0  0
  1 11  1  0  0  0  0
  2  1  1  0  0  0  0
  3  4  1  0  0  0  0
  3  2  2  0  0  0  0
  4  5  1  0  0  0  0
  5 23  1  0  0  0  0
  5  1  1  0  0  0  0
  5 10  1  1  0  0  0
  6  2  1  0  0  0  0
  7  3  1  0  0  0  0
  8  4  1  0  0  0  0
  9  4  1  0  0  0  0
 11 12  1  0  0  0  0
 11 16  1  0  0  0  0
 13 11  1  0  0  0  0
 14 20  1  0  0  0  0
 14 19  1  0  0  0  0
 15 14  2  0  0  0  0
 16 15  1  0  0  0  0
 16 17  2  0  0  0  0
 17 18  1  0  0  0  0
 18 19  2  0  0  0  0
 18 22  1  0  0  0  0
 21 15  1  0  0  0  0
 23 25  1  0  0  0  0
 25 26  1  0  0  0  0
 25 24  2  1  0  0  0
 27 26  1  0  0  0  0
 28 25  1  0  0  0  0
 29 28  1  0  0  0  0
 30 29  1  0  0  0  0
 31 32  1  0  0  0  0
 31 30  2  0  0  0  0
 33 31  1  0  0  0  0
 34 33  2  0  0  0  0
 34 35  1  0  0  0  0
 35 29  2  0  0  0  0
M  END
>  <minimizedAffinity>
-5.19291544

$$$$

 OpenBabel03252505003D

 35 37  0  0  1  0  0  0  0  0999 V2000
   36.3110   27.5090   39.3940 N   0  0  0  0  0  0  0  0  0  0  0  0
   36.3660   27.2860   38.0040 C   0  0  0  0  0  0  0  0  0  0  0  0
   35.2710   28.1450   37.4920 C   0  0  0  0  0  0  0  0  0  0  0  0
   34.6520   28.8850   38.6760 C   0  0  0  0  0  0  0  0  0  0  0  0
   35.7650   28.7610   39.7250 C   0  0  2  0  0  0  0  0  0  0  0  0
   36.8940   26.7490   37.2780 H   0  0  0  0  0  0  0  0  0  0  0  0
   34.9020   28.3260   36.4940 H   0  0  0  0  0  0  0  0  0  0  0  0
   33.7310   28.4050   39.0030 H   0  0  0  0  0  0  0  0  0  0  0  0
   34.5620   29.9480   38.3770 H   0  0  0  0  0  0  0  0  0  0  0  0
   35.4000   28.8360   40.7490 H   0  0  0  0  0  0  0  0  0  0  0  0
   36.7360   26.5280   40.2590 C   0  0  0  0  0  0  0  0  0  0  0  0
   35.9320   26.0470   40.8600 H   0  0  0  0  0  0  0  0  0  0  0  0
   37.1050   25.6720   39.6400 H   0  0  0  0  0  0  0  0  0  0  0  0
   39.9770   27.5820   41.9050 C   0  0  0  0  0  0  0  0  0  0  0  0
   39.0830   27.1560   40.8710 C   0  0  0  0  0  0  0  0  0  0  0  0
   37.7480   26.9310   41.2080 C   0  0  0  0  0  0  0  0  0  0  0  0
   37.3920   27.1310   42.4970 N   0  0  0  0  0  0  0  0  0  0  0  0
   38.2630   27.5400   43.4790 C   0  0  0  0  0  0  0  0  0  0  0  0
   39.5440   27.7630   43.1850 N   0  0  0  0  0  0  0  0  0  0  0  0
   41.0040   27.7370   41.5620 H   0  0  0  0  0  0  0  0  0  0  0  0
   39.4110   27.0120   39.8720 H   0  0  0  0  0  0  0  0  0  0  0  0
   37.9090   27.6790   44.4860 H   0  0  0  0  0  0  0  0  0  0  0  0
   36.7320   29.7170   39.3810 O   0  0  0  0  0  0  0  0  0  0  0  0
   38.0740   30.5430   41.5270 O   0  0  0  0  0  0  0  0  0  0  0  0
   36.9860   30.8930   40.5280 P   0  0  2  0  0  0  0  0  0  0  0  0
   35.5550   31.0360   41.4470 O   0  0  0  0  0  0  0  0  0  0  0  0
   34.8810   31.4500   40.8360 H   0  0  0  0  0  0  0  0  0  0  0  0
   37.2240   32.4120   39.8290 O   0  0  0  0  0  0  0  0  0  0  0  0
   38.4910   32.8940   39.5660 C   0  0  0  0  0  0  0  0  0  0  0  0
   39.2540   33.9290   40.0610 C   0  0  0  0  0  3  0  0  0  0  0  0
   40.5210   34.1500   39.5710 C   0  0  0  0  0  0  0  0  0  0  0  0
   41.0390   34.9850   40.0230 H   0  0  0  0  0  0  0  0  0  0  0  0
   41.0120   33.3370   38.5920 N   0  0  0  0  0  0  0  0  0  0  0  0
   40.2770   32.3230   38.1010 C   0  0  0  0  0  3  0  0  0  0  0  0
   39.0250   32.1050   38.5860 N   0  0  0  0  0  0  0  0  0  0  0  0
  1  5  1  0  0  0  0
  1 11  1  0  0  0  0
  2  1  1  0  0  0  0
  3  2  2  0  0  0  0
  3  4  1  0  0  0  0
  4  8  1  0  0  0  0
  4  5  1  0  0  0  0
  5 10  1  1  0  0  0
  6  2  1  0  0  0  0
  7  3  1  0  0  0  0
  9  4  1  0  0  0  0
 11 12  1  0  0  0  0
 11 16  1  0  0  0  0
 13 11  1  0  0  0  0
 14 19  1  0  0  0  0
 15 16  1  0  0  0  0
 15 14  2  0  0  0  0
 16 17  2  0  0  0  0
 17 18  1  0  0  0  0
 18 22  1  0  0  0  0
 19 18  2  0  0  0  0
 20 14  1  0  0  0  0
 21 15  1  0  0  0  0
 23  5  1  0  0  0  0
 23 25  1  0  0  0  0
 25 26  1  0  0  0  0
 25 24  2  1  0  0  0
 27 26  1  0  0  0  0
 28 25  1  0  0  0  0
 29 28  1  0  0  0  0
 29 30  1  0  0  0  0
 31 32  1  0  0  0  0
 31 30  2  0  0  0  0
 33 31  1  0  0  0  0
 34 35  1  0  0  0  0
 34 33  2  0  0  0  0
 35 29  2  0  0  0  0
M  END
>  <minimizedAffinity>
-5.14304924

$$$$

 OpenBabel03252505003D

 35 37  0  0  1  0  0  0  0  0999 V2000
   39.0940   32.2180   40.2620 N   0  0  0  0  0  0  0  0  0  0  0  0
   38.5560   33.5160   40.3600 C   0  0  0  0  0  0  0  0  0  0  0  0
   37.3630   33.4430   39.4820 C   0  0  0  0  0  0  0  0  0  0  0  0
   37.2540   32.0180   38.9430 C   0  0  0  0  0  0  0  0  0  0  0  0
   38.1260   31.2490   39.9460 C   0  0  2  0  0  0  0  0  0  0  0  0
   38.7200   34.4420   40.8190 H   0  0  0  0  0  0  0  0  0  0  0  0
   36.6160   34.1750   39.2170 H   0  0  0  0  0  0  0  0  0  0  0  0
   37.6440   31.9480   37.9300 H   0  0  0  0  0  0  0  0  0  0  0  0
   36.2000   31.7060   39.0770 H   0  0  0  0  0  0  0  0  0  0  0  0
   38.5320   30.3230   39.5390 H   0  0  0  0  0  0  0  0  0  0  0  0
   40.4430   32.0230   40.4380 C   0  0  0  0  0  0  0  0  0  0  0  0
   40.8330   32.2950   41.4440 H   0  0  0  0  0  0  0  0  0  0  0  0
   40.6300   30.9210   40.4080 H   0  0  0  0  0  0  0  0  0  0  0  0
   41.9940   33.4310   37.2860 C   0  0  0  0  0  0  0  0  0  0  0  0
   41.0860   32.6930   38.1100 C   0  0  0  0  0  0  0  0  0  0  0  0
   41.2980   32.7010   39.4900 C   0  0  0  0  0  0  0  0  0  0  0  0
   42.3530   33.4090   39.9510 N   0  0  0  0  0  0  0  0  0  0  0  0
   43.2150   34.1130   39.1450 C   0  0  0  0  0  0  0  0  0  0  0  0
   43.0370   34.1230   37.8250 N   0  0  0  0  0  0  0  0  0  0  0  0
   41.7620   33.3770   36.2180 H   0  0  0  0  0  0  0  0  0  0  0  0
   40.2710   32.1510   37.7000 H   0  0  0  0  0  0  0  0  0  0  0  0
   44.0360   34.6550   39.5840 H   0  0  0  0  0  0  0  0  0  0  0  0
   37.3400   31.0830   41.0960 O   0  0  0  0  0  0  0  0  0  0  0  0
   35.5940   29.0780   40.9780 O   0  0  0  0  0  0  0  0  0  0  0  0
   36.9670   29.5050   41.4610 P   0  0  2  0  0  0  0  0  0  0  0  0
   36.9160   29.3660   43.1620 O   0  0  0  0  0  0  0  0  0  0  0  0
   37.8610   29.4580   43.4700 H   0  0  0  0  0  0  0  0  0  0  0  0
   38.1810   28.4420   40.9610 O   0  0  0  0  0  0  0  0  0  0  0  0
   39.2350   28.1100   41.7900 C   0  0  0  0  0  0  0  0  0  0  0  0
   40.5270   28.5630   41.9400 C   0  0  0  0  0  3  0  0  0  0  0  0
   41.3510   28.0040   42.8890 C   0  0  0  0  0  0  0  0  0  0  0  0
   42.3450   28.4270   42.9300 H   0  0  0  0  0  0  0  0  0  0  0  0
   40.8760   26.9980   43.6800 N   0  0  0  0  0  0  0  0  0  0  0  0
   39.6160   26.5470   43.5430 C   0  0  0  0  0  3  0  0  0  0  0  0
   38.8020   27.1000   42.6040 N   0  0  0  0  0  0  0  0  0  0  0  0
  1  2  1  0  0  0  0
  1 11  1  0  0  0  0
  2  6  1  0  0  0  0
  3  2  2  0  0  0  0
  4  9  1  0  0  0  0
  4  3  1  0  0  0  0
  4  5  1  0  0  0  0
  5 10  1  6  0  0  0
  5  1  1  0  0  0  0
  5 23  1  0  0  0  0
  7  3  1  0  0  0  0
  8  4  1  0  0  0  0
 11 12  1  0  0  0  0
 13 11  1  0  0  0  0
 14 19  2  0  0  0  0
 14 15  1  0  0  0  0
 15 16  2  0  0  0  0
 16 17  1  0  0  0  0
 16 11  1  0  0  0  0
 18 22  1  0  0  0  0
 18 17  2  0  0  0  0
 19 18  1  0  0  0  0
 20 14  1  0  0  0  0
 21 15  1  0  0  0  0
 23 25  1  0  0  0  0
 25 24  2  6  0  0  0
 25 26  1  0  0  0  0
 26 27  1  0  0  0  0
 28 25  1  0  0  0  0
 28 29  1  0  0  0  0
 29 30  2  0  0  0  0
 29 35  1  0  0  0  0
 30 31  1  0  0  0  0
 31 32  1  0  0  0  0
 31 33  2  0  0  0  0
 34 33  1  0  0  0  0
 35 34  2  0  0  0  0
M  END
>  <minimizedAffinity>
-5.07337236

$$$$

 OpenBabel03252505003D

 35 37  0  0  1  0  0  0  0  0999 V2000
   37.7500   28.5350   38.6430 N   0  0  0  0  0  0  0  0  0  0  0  0
   38.2660   28.6260   37.3350 C   0  0  0  0  0  0  0  0  0  0  0  0
   37.1730   29.3080   36.5990 C   0  0  0  0  0  0  0  0  0  0  0  0
   36.0570   29.6280   37.5910 C   0  0  0  0  0  0  0  0  0  0  0  0
   36.8060   29.5380   38.9280 C   0  0  2  0  0  0  0  0  0  0  0  0
   39.1090   28.3830   36.7650 H   0  0  0  0  0  0  0  0  0  0  0  0
   37.0750   29.6060   35.5660 H   0  0  0  0  0  0  0  0  0  0  0  0
   35.2520   28.8980   37.5270 H   0  0  0  0  0  0  0  0  0  0  0  0
   35.7670   30.6820   37.4160 H   0  0  0  0  0  0  0  0  0  0  0  0
   36.1540   29.3150   39.7710 H   0  0  0  0  0  0  0  0  0  0  0  0
   38.1590   27.5160   39.4680 C   0  0  0  0  0  0  0  0  0  0  0  0
   37.7110   26.5200   39.2490 H   0  0  0  0  0  0  0  0  0  0  0  0
   39.2430   27.3320   39.2620 H   0  0  0  0  0  0  0  0  0  0  0  0
   36.7360   27.5910   42.9750 C   0  0  0  0  0  0  0  0  0  0  0  0
   36.8010   27.3380   41.5670 C   0  0  0  0  0  0  0  0  0  0  0  0
   37.9500   27.7360   40.8810 C   0  0  0  0  0  0  0  0  0  0  0  0
   38.9230   28.3380   41.6000 N   0  0  0  0  0  0  0  0  0  0  0  0
   38.8450   28.5740   42.9520 C   0  0  0  0  0  0  0  0  0  0  0  0
   37.7600   28.2040   43.6320 N   0  0  0  0  0  0  0  0  0  0  0  0
   35.8070   27.2500   43.4400 H   0  0  0  0  0  0  0  0  0  0  0  0
   36.0080   26.8610   41.0470 H   0  0  0  0  0  0  0  0  0  0  0  0
   39.6610   29.0590   43.4590 H   0  0  0  0  0  0  0  0  0  0  0  0
   37.5260   30.7350   39.0500 O   0  0  0  0  0  0  0  0  0  0  0  0
   36.0810   31.0350   41.2650 O   0  0  0  0  0  0  0  0  0  0  0  0
   37.2520   31.5690   40.4620 P   0  0  2  0  0  0  0  0  0  0  0  0
   36.8280   33.1680   40.0450 O   0  0  0  0  0  0  0  0  0  0  0  0
   37.6620   33.5850   39.6870 H   0  0  0  0  0  0  0  0  0  0  0  0
   38.6550   31.7060   41.3920 O   0  0  0  0  0  0  0  0  0  0  0  0
   39.8510   32.1190   40.8370 C   0  0  0  0  0  0  0  0  0  0  0  0
   41.0490   31.5020   40.5490 C   0  0  0  0  0  3  0  0  0  0  0  0
   42.0760   32.2170   39.9780 C   0  0  0  0  0  0  0  0  0  0  0  0
   42.9740   31.6440   39.7900 H   0  0  0  0  0  0  0  0  0  0  0  0
   41.8970   33.5410   39.7010 N   0  0  0  0  0  0  0  0  0  0  0  0
   40.7330   34.1550   39.9770 C   0  0  0  0  0  3  0  0  0  0  0  0
   39.7180   33.4470   40.5420 N   0  0  0  0  0  0  0  0  0  0  0  0
  1  5  1  0  0  0  0
  1 11  1  0  0  0  0
  2  1  1  0  0  0  0
  3  2  2  0  0  0  0
  3  4  1  0  0  0  0
  4  5  1  0  0  0  0
  5 23  1  0  0  0  0
  5 10  1  1  0  0  0
  6  2  1  0  0  0  0
  7  3  1  0  0  0  0
  8  4  1  0  0  0  0
  9  4  1  0  0  0  0
 11 16  1  0  0  0  0
 12 11  1  0  0  0  0
 13 11  1  0  0  0  0
 14 20  1  0  0  0  0
 14 19  1  0  0  0  0
 15 14  2  0  0  0  0
 16 15  1  0  0  0  0
 16 17  2  0  0  0  0
 17 18  1  0  0  0  0
 18 22  1  0  0  0  0
 18 19  2  0  0  0  0
 21 15  1  0  0  0  0
 23 25  1  0  0  0  0
 25 24  2  1  0  0  0
 25 28  1  0  0  0  0
 26 25  1  0  0  0  0
 27 26  1  0  0  0  0
 29 28  1  0  0  0  0
 30 29  1  0  0  0  0
 31 30  2  0  0  0  0
 32 31  1  0  0  0  0
 33 34  2  0  0  0  0
 33 31  1  0  0  0  0
 34 35  1  0  0  0  0
 35 29  2  0  0  0  0
M  END
>  <minimizedAffinity>
-4.94936037

$$$$

 OpenBabel03252505003D

 35 37  0  0  1  0  0  0  0  0999 V2000
   37.0500   27.6920   38.1610 N   0  0  0  0  0  0  0  0  0  0  0  0
   37.0940   28.3980   36.9420 C   0  0  0  0  0  0  0  0  0  0  0  0
   35.8000   29.1230   36.9360 C   0  0  0  0  0  0  0  0  0  0  0  0
   35.0730   28.8110   38.2430 C   0  0  0  0  0  0  0  0  0  0  0  0
   36.2300   28.3120   39.1200 C   0  0  2  0  0  0  0  0  0  0  0  0
   37.7030   28.5590   36.1060 H   0  0  0  0  0  0  0  0  0  0  0  0
   35.3530   29.7960   36.2210 H   0  0  0  0  0  0  0  0  0  0  0  0
   34.3140   28.0450   38.0990 H   0  0  0  0  0  0  0  0  0  0  0  0
   34.7130   29.7780   38.6460 H   0  0  0  0  0  0  0  0  0  0  0  0
   35.9050   27.6550   39.9260 H   0  0  0  0  0  0  0  0  0  0  0  0
   37.7400   26.5110   38.2900 C   0  0  0  0  0  0  0  0  0  0  0  0
   37.5740   25.7740   37.4730 H   0  0  0  0  0  0  0  0  0  0  0  0
   38.8280   26.7440   38.1730 H   0  0  0  0  0  0  0  0  0  0  0  0
   36.4600   24.1220   40.9320 C   0  0  0  0  0  0  0  0  0  0  0  0
   36.5610   24.7780   39.6630 C   0  0  0  0  0  0  0  0  0  0  0  0
   37.5130   25.7890   39.5210 C   0  0  0  0  0  0  0  0  0  0  0  0
   38.2750   26.0790   40.5990 N   0  0  0  0  0  0  0  0  0  0  0  0
   38.1660   25.4390   41.8100 C   0  0  0  0  0  0  0  0  0  0  0  0
   37.2660   24.4690   41.9740 N   0  0  0  0  0  0  0  0  0  0  0  0
   35.6940   23.3420   40.9630 H   0  0  0  0  0  0  0  0  0  0  0  0
   35.9380   24.5140   38.8450 H   0  0  0  0  0  0  0  0  0  0  0  0
   38.8070   25.7230   42.6260 H   0  0  0  0  0  0  0  0  0  0  0  0
   36.9170   29.4580   39.5460 O   0  0  0  0  0  0  0  0  0  0  0  0
   36.3730   28.5620   41.9930 O   0  0  0  0  0  0  0  0  0  0  0  0
   36.8150   29.7630   41.1770 P   0  0  2  0  0  0  0  0  0  0  0  0
   35.6030   30.9420   41.4090 O   0  0  0  0  0  0  0  0  0  0  0  0
   35.9760   31.7910   41.0370 H   0  0  0  0  0  0  0  0  0  0  0  0
   38.2340   30.4550   41.7760 O   0  0  0  0  0  0  0  0  0  0  0  0
   38.9010   31.4480   41.0840 C   0  0  0  0  0  0  0  0  0  0  0  0
   40.2040   31.6370   40.6790 C   0  0  0  0  0  3  0  0  0  0  0  0
   40.5540   32.7710   39.9830 C   0  0  0  0  0  0  0  0  0  0  0  0
   41.6000   32.8280   39.7110 H   0  0  0  0  0  0  0  0  0  0  0  0
   39.6000   33.7030   39.6980 N   0  0  0  0  0  0  0  0  0  0  0  0
   38.3240   33.5300   40.0860 C   0  0  0  0  0  3  0  0  0  0  0  0
   37.9790   32.4090   40.7750 N   0  0  0  0  0  0  0  0  0  0  0  0
  1 11  1  0  0  0  0
  1  5  1  0  0  0  0
  2  1  1  0  0  0  0
  3  2  2  0  0  0  0
  3  4  1  0  0  0  0
  4  9  1  0  0  0  0
  4  5  1  0  0  0  0
  5 23  1  0  0  0  0
  5 10  1  1  0  0  0
  6  2  1  0  0  0  0
  7  3  1  0  0  0  0
  8  4  1  0  0  0  0
 11 16  1  0  0  0  0
 12 11  1  0  0  0  0
 13 11  1  0  0  0  0
 14 20  1  0  0  0  0
 14 19  1  0  0  0  0
 15 14  2  0  0  0  0
 16 15  1  0  0  0  0
 16 17  2  0  0  0  0
 17 18  1  0  0  0  0
 18 19  2  0  0  0  0
 18 22  1  0  0  0  0
 21 15  1  0  0  0  0
 23 25  1  0  0  0  0
 25 26  1  0  0  0  0
 25 28  1  0  0  0  0
 25 24  2  1  0  0  0
 27 26  1  0  0  0  0
 29 28  1  0  0  0  0
 30 29  2  0  0  0  0
 31 30  1  0  0  0  0
 32 31  1  0  0  0  0
 33 31  2  0  0  0  0
 33 34  1  0  0  0  0
 34 35  2  0  0  0  0
 35 29  1  0  0  0  0
M  END
>  <minimizedAffinity>
-4.85636902

$$$$

 OpenBabel03252505003D

 35 37  0  0  1  0  0  0  0  0999 V2000
   39.3860   32.1540   39.1270 N   0  0  0  0  0  0  0  0  0  0  0  0
   40.2080   33.1210   39.7400 C   0  0  0  0  0  0  0  0  0  0  0  0
   39.2320   34.1440   40.1880 C   0  0  0  0  0  0  0  0  0  0  0  0
   37.8300   33.6550   39.8280 C   0  0  0  0  0  0  0  0  0  0  0  0
   38.0750   32.1520   39.6340 C   0  0  2  0  0  0  0  0  0  0  0  0
   41.2090   33.3270   39.9620 H   0  0  0  0  0  0  0  0  0  0  0  0
   39.3560   35.0820   40.7060 H   0  0  0  0  0  0  0  0  0  0  0  0
   37.4690   34.1280   38.9170 H   0  0  0  0  0  0  0  0  0  0  0  0
   37.2010   33.8000   40.7280 H   0  0  0  0  0  0  0  0  0  0  0  0
   37.3410   31.6790   38.9830 H   0  0  0  0  0  0  0  0  0  0  0  0
   39.8920   31.3680   38.1210 C   0  0  0  0  0  0  0  0  0  0  0  0
   39.1320   30.8220   37.5180 H   0  0  0  0  0  0  0  0  0  0  0  0
   40.3460   32.0500   37.3580 H   0  0  0  0  0  0  0  0  0  0  0  0
   41.6200   28.4320   39.7720 C   0  0  0  0  0  0  0  0  0  0  0  0
   40.5850   29.3770   39.4760 C   0  0  0  0  0  0  0  0  0  0  0  0
   40.8540   30.3710   38.5340 C   0  0  0  0  0  0  0  0  0  0  0  0
   42.0800   30.3710   37.9660 N   0  0  0  0  0  0  0  0  0  0  0  0
   43.0630   29.4560   38.2610 C   0  0  0  0  0  0  0  0  0  0  0  0
   42.8340   28.4960   39.1560 N   0  0  0  0  0  0  0  0  0  0  0  0
   41.3330   27.6860   40.5180 H   0  0  0  0  0  0  0  0  0  0  0  0
   39.6370   29.3350   39.9500 H   0  0  0  0  0  0  0  0  0  0  0  0
   44.0180   29.5180   37.7680 H   0  0  0  0  0  0  0  0  0  0  0  0
   38.1500   31.6020   40.9220 O   0  0  0  0  0  0  0  0  0  0  0  0
   37.0180   29.3610   40.0370 O   0  0  0  0  0  0  0  0  0  0  0  0
   37.1100   30.3340   41.1970 P   0  0  2  0  0  0  0  0  0  0  0  0
   35.5410   30.9810   41.3730 O   0  0  0  0  0  0  0  0  0  0  0  0
   35.5450   31.4700   42.2440 H   0  0  0  0  0  0  0  0  0  0  0  0
   37.4410   29.5570   42.6590 O   0  0  0  0  0  0  0  0  0  0  0  0
   38.0330   28.3080   42.6950 C   0  0  0  0  0  0  0  0  0  0  0  0
   37.5860   27.0200   42.4980 C   0  0  0  0  0  3  0  0  0  0  0  0
   38.4560   25.9610   42.6090 C   0  0  0  0  0  0  0  0  0  0  0  0
   38.0110   24.9910   42.4370 H   0  0  0  0  0  0  0  0  0  0  0  0
   39.7650   26.1990   42.9150 N   0  0  0  0  0  0  0  0  0  0  0  0
   40.2140   27.4520   43.1090 C   0  0  0  0  0  3  0  0  0  0  0  0
   39.3520   28.4990   42.9990 N   0  0  0  0  0  0  0  0  0  0  0  0
  1  5  1  0  0  0  0
  1  2  1  0  0  0  0
  2  6  1  0  0  0  0
  2  3  2  0  0  0  0
  3  7  1  0  0  0  0
  4  3  1  0  0  0  0
  4  9  1  0  0  0  0
  5 10  1  6  0  0  0
  5  4  1  0  0  0  0
  5 23  1  0  0  0  0
  8  4  1  0  0  0  0
 11 16  1  0  0  0  0
 11  1  1  0  0  0  0
 12 11  1  0  0  0  0
 13 11  1  0  0  0  0
 14 20  1  0  0  0  0
 15 14  1  0  0  0  0
 15 21  1  0  0  0  0
 16 15  2  0  0  0  0
 17 18  2  0  0  0  0
 17 16  1  0  0  0  0
 18 19  1  0  0  0  0
 19 14  2  0  0  0  0
 22 18  1  0  0  0  0
 23 25  1  0  0  0  0
 25 24  2  6  0  0  0
 25 26  1  0  0  0  0
 25 28  1  0  0  0  0
 26 27  1  0  0  0  0
 28 29  1  0  0  0  0
 29 35  1  0  0  0  0
 30 31  1  0  0  0  0
 30 29  2  0  0  0  0
 31 33  2  0  0  0  0
 32 31  1  0  0  0  0
 33 34  1  0  0  0  0
 35 34  2  0  0  0  0
M  END
>  <minimizedAffinity>
-4.84775305

$$$$

 OpenBabel03252505003D

 35 37  0  0  1  0  0  0  0  0999 V2000
   36.9820   29.5180   37.1900 N   0  0  0  0  0  0  0  0  0  0  0  0
   38.3280   29.1340   37.0230 C   0  0  0  0  0  0  0  0  0  0  0  0
   39.0630   30.1960   37.7520 C   0  0  0  0  0  0  0  0  0  0  0  0
   38.0400   31.1490   38.3670 C   0  0  0  0  0  0  0  0  0  0  0  0
   36.7730   30.2820   38.3500 C   0  0  2  0  0  0  0  0  0  0  0  0
   38.9230   28.3960   36.5820 H   0  0  0  0  0  0  0  0  0  0  0  0
   40.1170   30.3600   37.9180 H   0  0  0  0  0  0  0  0  0  0  0  0
   37.9250   32.0470   37.7640 H   0  0  0  0  0  0  0  0  0  0  0  0
   38.3470   31.3100   39.4190 H   0  0  0  0  0  0  0  0  0  0  0  0
   35.8540   30.8670   38.3450 H   0  0  0  0  0  0  0  0  0  0  0  0
   36.0510   29.1660   36.2430 C   0  0  0  0  0  0  0  0  0  0  0  0
   35.9380   28.0720   36.0730 H   0  0  0  0  0  0  0  0  0  0  0  0
   35.0430   29.4420   36.6450 H   0  0  0  0  0  0  0  0  0  0  0  0
   36.5340   31.5640   33.3540 C   0  0  0  0  0  0  0  0  0  0  0  0
   36.3110   31.1220   34.6980 C   0  0  0  0  0  0  0  0  0  0  0  0
   36.2420   29.7480   34.9340 C   0  0  0  0  0  0  0  0  0  0  0  0
   36.3920   28.9280   33.8700 N   0  0  0  0  0  0  0  0  0  0  0  0
   36.6070   29.3680   32.5860 C   0  0  0  0  0  0  0  0  0  0  0  0
   36.6770   30.6750   32.3310 N   0  0  0  0  0  0  0  0  0  0  0  0
   36.5760   32.6520   33.2510 H   0  0  0  0  0  0  0  0  0  0  0  0
   36.1980   31.8060   35.5010 H   0  0  0  0  0  0  0  0  0  0  0  0
   36.7180   28.6560   31.7860 H   0  0  0  0  0  0  0  0  0  0  0  0
   36.8930   29.3990   39.4330 O   0  0  0  0  0  0  0  0  0  0  0  0
   34.2550   29.2370   39.7490 O   0  0  0  0  0  0  0  0  0  0  0  0
   35.5870   29.3790   40.4610 P   0  0  2  0  0  0  0  0  0  0  0  0
   35.5240   30.8920   41.2470 O   0  0  0  0  0  0  0  0  0  0  0  0
   36.3070   30.9080   41.8670 H   0  0  0  0  0  0  0  0  0  0  0  0
   35.7760   28.2410   41.6950 O   0  0  0  0  0  0  0  0  0  0  0  0
   37.0220   27.9340   42.2090 C   0  0  0  0  0  0  0  0  0  0  0  0
   37.7110   26.7650   42.4430 C   0  0  0  0  0  3  0  0  0  0  0  0
   38.9760   26.8020   42.9810 C   0  0  0  0  0  0  0  0  0  0  0  0
   39.4330   25.8330   43.1270 H   0  0  0  0  0  0  0  0  0  0  0  0
   39.5410   28.0080   43.2800 N   0  0  0  0  0  0  0  0  0  0  0  0
   38.8790   29.1570   43.0560 C   0  0  0  0  0  3  0  0  0  0  0  0
   37.6270   29.1190   42.5240 N   0  0  0  0  0  0  0  0  0  0  0  0
  1  5  1  0  0  0  0
  2  1  1  0  0  0  0
  2  3  2  0  0  0  0
  3  7  1  0  0  0  0
  3  4  1  0  0  0  0
  4  9  1  0  0  0  0
  5 10  1  6  0  0  0
  5  4  1  0  0  0  0
  5 23  1  0  0  0  0
  6  2  1  0  0  0  0
  8  4  1  0  0  0  0
 11 13  1  0  0  0  0
 11  1  1  0  0  0  0
 12 11  1  0  0  0  0
 14 15  1  0  0  0  0
 15 16  2  0  0  0  0
 15 21  1  0  0  0  0
 16 11  1  0  0  0  0
 17 16  1  0  0  0  0
 18 17  2  0  0  0  0
 19 18  1  0  0  0  0
 19 14  2  0  0  0  0
 20 14  1  0  0  0  0
 22 18  1  0  0  0  0
 23 25  1  0  0  0  0
 25 24  2  6  0  0  0
 25 26  1  0  0  0  0
 25 28  1  0  0  0  0
 26 27  1  0  0  0  0
 28 29  1  0  0  0  0
 29 30  2  0  0  0  0
 29 35  1  0  0  0  0
 30 31  1  0  0  0  0
 31 32  1  0  0  0  0
 31 33  2  0  0  0  0
 34 33  1  0  0  0  0
 35 34  2  0  0  0  0
M  END
>  <minimizedAffinity>
-4.83101177

$$$$

 OpenBabel03252505003D

 35 37  0  0  1  0  0  0  0  0999 V2000
   36.6260   27.9090   39.6040 N   0  0  0  0  0  0  0  0  0  0  0  0
   36.7770   28.6860   38.4380 C   0  0  0  0  0  0  0  0  0  0  0  0
   36.1960   29.9910   38.8380 C   0  0  0  0  0  0  0  0  0  0  0  0
   35.7680   29.8950   40.3010 C   0  0  0  0  0  0  0  0  0  0  0  0
   36.5850   28.6850   40.7750 C   0  0  2  0  0  0  0  0  0  0  0  0
   37.1400   28.6360   37.4580 H   0  0  0  0  0  0  0  0  0  0  0  0
   36.0700   30.9190   38.3010 H   0  0  0  0  0  0  0  0  0  0  0  0
   34.6970   29.7210   40.3880 H   0  0  0  0  0  0  0  0  0  0  0  0
   36.1510   30.8030   40.8050 H   0  0  0  0  0  0  0  0  0  0  0  0
   36.1440   28.1810   41.6340 H   0  0  0  0  0  0  0  0  0  0  0  0
   36.5010   26.5450   39.5020 C   0  0  0  0  0  0  0  0  0  0  0  0
   35.4950   26.1410   39.7540 H   0  0  0  0  0  0  0  0  0  0  0  0
   36.5930   26.2790   38.4190 H   0  0  0  0  0  0  0  0  0  0  0  0
   39.6360   24.9670   40.9200 C   0  0  0  0  0  0  0  0  0  0  0  0
   38.8150   25.7510   40.0480 C   0  0  0  0  0  0  0  0  0  0  0  0
   37.4400   25.7740   40.2860 C   0  0  0  0  0  0  0  0  0  0  0  0
   36.9790   25.0480   41.3290 N   0  0  0  0  0  0  0  0  0  0  0  0
   37.7820   24.3010   42.1580 C   0  0  0  0  0  0  0  0  0  0  0  0
   39.0990   24.2610   41.9540 N   0  0  0  0  0  0  0  0  0  0  0  0
   40.7000   25.0010   40.6690 H   0  0  0  0  0  0  0  0  0  0  0  0
   39.2250   26.3040   39.2400 H   0  0  0  0  0  0  0  0  0  0  0  0
   37.3440   23.7470   42.9700 H   0  0  0  0  0  0  0  0  0  0  0  0
   37.8900   29.1560   40.9840 O   0  0  0  0  0  0  0  0  0  0  0  0
   39.0460   27.8240   42.9780 O   0  0  0  0  0  0  0  0  0  0  0  0
   38.3920   29.1300   42.5680 P   0  0  2  0  0  0  0  0  0  0  0  0
   37.0060   29.2740   43.5530 O   0  0  0  0  0  0  0  0  0  0  0  0
   36.6800   30.2100   43.4280 H   0  0  0  0  0  0  0  0  0  0  0  0
   39.3490   30.4700   42.9440 O   0  0  0  0  0  0  0  0  0  0  0  0
   39.7290   31.3800   41.9760 C   0  0  0  0  0  0  0  0  0  0  0  0
   39.0630   32.3120   41.2110 C   0  0  0  0  0  3  0  0  0  0  0  0
   39.7530   33.0880   40.3090 C   0  0  0  0  0  0  0  0  0  0  0  0
   39.1430   33.7880   39.7560 H   0  0  0  0  0  0  0  0  0  0  0  0
   41.1020   32.9250   40.1810 N   0  0  0  0  0  0  0  0  0  0  0  0
   41.7640   32.0200   40.9230 C   0  0  0  0  0  3  0  0  0  0  0  0
   41.0800   31.2530   41.8140 N   0  0  0  0  0  0  0  0  0  0  0  0
  1  5  1  0  0  0  0
  2  3  2  0  0  0  0
  2  1  1  0  0  0  0
  3  4  1  0  0  0  0
  4  8  1  0  0  0  0
  4  5  1  0  0  0  0
  4  9  1  0  0  0  0
  5 23  1  0  0  0  0
  5 10  1  1  0  0  0
  6  2  1  0  0  0  0
  7  3  1  0  0  0  0
 11  1  1  0  0  0  0
 11 12  1  0  0  0  0
 11 16  1  0  0  0  0
 13 11  1  0  0  0  0
 14 19  1  0  0  0  0
 15 16  1  0  0  0  0
 15 14  2  0  0  0  0
 16 17  2  0  0  0  0
 17 18  1  0  0  0  0
 18 22  1  0  0  0  0
 19 18  2  0  0  0  0
 20 14  1  0  0  0  0
 21 15  1  0  0  0  0
 23 25  1  0  0  0  0
 25 28  1  0  0  0  0
 25 24  2  1  0  0  0
 25 26  1  0  0  0  0
 27 26  1  0  0  0  0
 29 28  1  0  0  0  0
 30 29  2  0  0  0  0
 31 30  1  0  0  0  0
 32 31  1  0  0  0  0
 33 31  2  0  0  0  0
 33 34  1  0  0  0  0
 34 35  2  0  0  0  0
 35 29  1  0  0  0  0
M  END
>  <minimizedAffinity>
-4.75009394

$$$$
