
 OpenBabel03242511503D

 23 25  0  0  1  0  0  0  0  0999 V2000
   46.4600   33.2810   41.0820 C   0  0  1  0  0  0  0  0  0  0  0  0
   45.2350   33.3490   41.8670 C   0  0  2  0  0  0  0  0  0  0  0  0
   45.3410   34.2020   40.6700 C   0  0  0  0  0  0  0  0  0  0  0  0
   46.6420   32.4050   40.3810 H   0  0  0  0  0  0  0  0  0  0  0  0
   44.5730   32.4370   41.7520 H   0  0  0  0  0  0  0  0  0  0  0  0
   44.8160   33.9170   39.7380 H   0  0  0  0  0  0  0  0  0  0  0  0
   45.5360   35.2840   40.7230 H   0  0  0  0  0  0  0  0  0  0  0  0
   48.6380   33.0350   42.2160 C   0  0  0  0  0  0  0  0  0  0  0  0
   47.7340   33.8560   41.5420 C   0  0  0  0  0  0  0  0  0  0  0  0
   48.0950   35.1840   41.3430 C   0  0  0  0  0  0  0  0  0  0  0  0
   49.3040   35.6180   41.8110 N   0  0  0  0  0  0  0  0  0  0  0  0
   50.1650   34.7990   42.4640 C   0  0  0  0  0  0  0  0  0  0  0  0
   49.8310   33.4920   42.6700 N   0  0  0  0  0  0  0  0  0  0  0  0
   48.4980   31.9920   42.4330 H   0  0  0  0  0  0  0  0  0  0  0  0
   47.4150   35.8310   40.8280 H   0  0  0  0  0  0  0  0  0  0  0  0
   51.0950   35.2550   42.7900 H   0  0  0  0  0  0  0  0  0  0  0  0
   45.0470   34.0540   43.1370 C   0  0  0  0  0  0  0  0  0  0  0  0
   44.5270   35.3400   43.3150 C   0  0  0  0  0  0  0  0  0  0  0  0
   44.3870   35.9270   44.5530 C   0  0  0  0  0  0  0  0  0  0  0  0
   43.9710   36.9360   44.5940 H   0  0  0  0  0  0  0  0  0  0  0  0
   44.7570   35.2620   45.6610 N   0  0  0  0  0  0  0  0  0  0  0  0
   45.2510   34.0430   45.5120 C   0  0  0  0  0  0  0  0  0  0  0  0
   45.3870   33.4760   44.3270 N   0  0  0  0  0  0  0  0  0  0  0  0
  1  4  1  6  0  0  0
  1  9  1  0  0  0  0
  1  2  1  0  0  0  0
  2  5  1  6  0  0  0
  2 17  1  0  0  0  0
  3  7  1  0  0  0  0
  3  1  1  0  0  0  0
  3  2  1  0  0  0  0
  6  3  1  0  0  0  0
  8 14  1  0  0  0  0
  8 13  1  0  0  0  0
  9  8  2  0  0  0  0
 10  9  1  0  0  0  0
 10 11  2  0  0  0  0
 11 12  1  0  0  0  0
 12 13  2  0  0  0  0
 12 16  1  0  0  0  0
 15 10  1  0  0  0  0
 17 18  2  0  0  0  0
 17 23  1  0  0  0  0
 18 19  1  0  0  0  0
 19 20  1  0  0  0  0
 19 21  2  0  0  0  0
 22 21  1  0  0  0  0
 23 22  2  0  0  0  0
M  END
>  <minimizedAffinity>
-4.32807922

>  <minimizedRMSD>
4.77914476

$$$$
