
 OpenBabel03252509043D

 46 48  0  0  1  0  0  0  0  0999 V2000
   47.1790   34.1850   43.0810 N   0  0  0  0  0  0  0  0  0  0  0  0
   46.6630   35.3860   42.5350 C   0  0  0  0  0  0  0  0  0  0  0  0
   45.1840   35.6140   42.7620 C   0  0  0  0  0  0  0  0  0  0  0  0
   44.6520   35.0400   44.0530 C   0  0  0  0  0  0  0  0  0  0  0  0
   45.7630   34.4670   44.9010 C   0  0  0  0  0  0  0  0  0  0  0  0
   46.4360   33.4080   43.9460 C   0  0  2  0  0  0  0  0  0  0  0  0
   47.1910   36.2310   43.0620 H   0  0  0  0  0  0  0  0  0  0  0  0
   46.8450   35.5680   41.4710 H   0  0  0  0  0  0  0  0  0  0  0  0
   44.6110   35.2340   41.8740 H   0  0  0  0  0  0  0  0  0  0  0  0
   44.9770   36.7130   42.7960 H   0  0  0  0  0  0  0  0  0  0  0  0
   43.9750   35.7200   44.5940 H   0  0  0  0  0  0  0  0  0  0  0  0
   44.0220   34.1520   43.7640 H   0  0  0  0  0  0  0  0  0  0  0  0
   46.5160   35.2060   45.1910 H   0  0  0  0  0  0  0  0  0  0  0  0
   45.2870   33.9350   45.7460 H   0  0  0  0  0  0  0  0  0  0  0  0
   45.6010   32.8020   43.5390 H   0  0  0  0  0  0  0  0  0  0  0  0
   48.1580   33.5300   42.2390 C   0  0  0  0  0  0  0  0  0  0  0  0
   48.7230   34.3440   41.7360 H   0  0  0  0  0  0  0  0  0  0  0  0
   48.9160   32.9750   42.8480 H   0  0  0  0  0  0  0  0  0  0  0  0
   47.4460   32.6910   41.2470 C   0  0  0  0  0  0  0  0  0  0  0  0
   47.5190   31.6330   41.5050 H   0  0  0  0  0  0  0  0  0  0  0  0
   46.3350   32.9080   41.2520 H   0  0  0  0  0  0  0  0  0  0  0  0
   49.3580   32.2670   38.0290 C   0  0  0  0  0  0  0  0  0  0  0  0
   48.8160   32.0430   39.3110 C   0  0  0  0  0  0  0  0  0  0  0  0
   48.0000   32.9580   39.8960 C   0  0  0  0  0  0  0  0  0  0  0  0
   47.7400   34.0680   39.2020 N   0  0  0  0  0  0  0  0  0  0  0  0
   48.2430   34.3060   37.9810 C   0  0  0  0  0  0  0  0  0  0  0  0
   49.0530   33.4190   37.3780 N   0  0  0  0  0  0  0  0  0  0  0  0
   50.0000   31.5760   37.5390 H   0  0  0  0  0  0  0  0  0  0  0  0
   49.1280   31.0990   39.7220 H   0  0  0  0  0  0  0  0  0  0  0  0
   47.9470   35.2510   37.5330 H   0  0  0  0  0  0  0  0  0  0  0  0
   47.2190   32.7050   44.8310 O   0  0  0  0  0  0  0  0  0  0  0  0
   45.9720   30.5540   43.8560 O   0  0  0  0  0  0  0  0  0  0  0  0
   46.6800   31.1480   45.0970 P   0  0  2  0  0  0  0  0  0  0  0  0
   45.4060   31.2650   46.2550 O   0  0  0  0  0  0  0  0  0  0  0  0
   45.7370   31.8690   46.9750 H   0  0  0  0  0  0  0  0  0  0  0  0
   47.8070   30.1060   45.7030 O   0  0  0  0  0  0  0  0  0  0  0  0
   48.2980   29.2820   44.7250 C   0  0  0  0  0  0  0  0  0  0  0  0
   47.4250   29.1180   44.0160 H   0  0  0  0  0  0  0  0  0  0  0  0
   48.3970   28.2600   45.2010 H   0  0  0  0  0  0  0  0  0  0  0  0
   49.5040   29.6910   44.0230 C   0  0  0  0  0  0  0  0  0  0  0  0
   50.6380   29.2360   44.7060 C   0  0  0  0  0  3  0  0  0  0  0  0
   51.8840   29.5080   44.1280 C   0  0  0  0  0  0  0  0  0  0  0  0
   52.8320   29.1900   44.5890 H   0  0  0  0  0  0  0  0  0  0  0  0
   52.0280   30.1750   42.9690 N   0  0  0  0  0  0  0  0  0  0  0  0
   50.9070   30.5920   42.3530 C   0  0  0  0  0  3  0  0  0  0  0  0
   49.6790   30.3650   42.8530 N   0  0  0  0  0  0  0  0  0  0  0  0
  1  6  1  0  0  0  0
  2  3  1  0  0  0  0
  2  7  1  0  0  0  0
  2  1  1  0  0  0  0
  3 10  1  0  0  0  0
  3  4  1  0  0  0  0
  4 11  1  0  0  0  0
  4  5  1  0  0  0  0
  5 13  1  0  0  0  0
  5 14  1  0  0  0  0
  6 15  1  6  0  0  0
  6 31  1  0  0  0  0
  6  5  1  0  0  0  0
  8  2  1  0  0  0  0
  9  3  1  0  0  0  0
 12  4  1  0  0  0  0
 16 18  1  0  0  0  0
 16  1  1  0  0  0  0
 17 16  1  0  0  0  0
 19 21  1  0  0  0  0
 19 20  1  0  0  0  0
 19 16  1  0  0  0  0
 22 23  1  0  0  0  0
 23 29  1  0  0  0  0
 23 24  2  0  0  0  0
 24 19  1  0  0  0  0
 25 24  1  0  0  0  0
 26 25  2  0  0  0  0
 27 26  1  0  0  0  0
 27 22  2  0  0  0  0
 28 22  1  0  0  0  0
 30 26  1  0  0  0  0
 31 33  1  0  0  0  0
 33 32  2  6  0  0  0
 33 36  1  0  0  0  0
 33 34  1  0  0  0  0
 34 35  1  0  0  0  0
 37 39  1  0  0  0  0
 37 36  1  0  0  0  0
 38 37  1  0  0  0  0
 40 41  1  0  0  0  0
 40 37  1  0  0  0  0
 42 43  1  0  0  0  0
 42 41  2  0  0  0  0
 44 42  1  0  0  0  0
 45 46  1  0  0  0  0
 45 44  2  0  0  0  0
 46 40  2  0  0  0  0
M  END
>  <minimizedAffinity>
-3.88778687

>  <minimizedRMSD>
1.4778806

$$$$
