
 OpenBabel03242515473D

 39 42  0  0  1  0  0  0  0  0999 V2000
   37.8700   33.9180   39.9150 C   0  0  0  0  0  0  0  0  0  0  0  0
   38.2740   32.5780   39.8530 C   0  0  0  0  0  0  0  0  0  0  0  0
   39.5790   32.2160   40.1170 C   0  0  0  0  0  0  0  0  0  0  0  0
   40.5150   33.1740   40.4520 C   0  0  0  0  0  0  0  0  0  0  0  0
   40.1220   34.5000   40.5180 C   0  0  0  0  0  0  0  0  0  0  0  0
   38.8360   34.8880   40.2600 C   0  0  0  0  0  0  0  0  0  0  0  0
   41.2710   35.2220   40.8780 O   0  0  0  0  0  0  0  0  0  0  0  0
   42.3710   34.4080   40.7540 C   0  0  2  0  0  0  0  0  0  0  0  0
   41.8750   33.0870   40.7630 O   0  0  0  0  0  0  0  0  0  0  0  0
   36.8670   34.2710   39.7200 H   0  0  0  0  0  0  0  0  0  0  0  0
   39.8040   31.1620   40.0450 H   0  0  0  0  0  0  0  0  0  0  0  0
   38.5180   35.9230   40.3070 H   0  0  0  0  0  0  0  0  0  0  0  0
   42.8900   34.5970   39.8130 H   0  0  0  0  0  0  0  0  0  0  0  0
   43.3240   34.5170   41.9100 C   0  0  0  0  0  0  0  0  0  0  0  0
   43.5140   35.7330   42.5340 C   0  0  0  0  0  3  0  0  0  0  0  0
   44.3980   35.8480   43.6120 C   0  0  0  0  0  0  0  0  0  0  0  0
   44.5570   36.8140   44.1160 H   0  0  0  0  0  0  0  0  0  0  0  0
   45.0560   34.7480   44.0220 N   0  0  0  0  0  0  0  0  0  0  0  0
   44.8740   33.5660   43.4180 C   0  0  0  0  0  3  0  0  0  0  0  0
   44.0170   33.4430   42.3700 N   0  0  0  0  0  0  0  0  0  0  0  0
   36.9380   31.4680   39.4310 S   0  0  0  0  0  0  0  0  0  0  0  0
   37.3110   29.7940   40.0560 C   0  0  0  0  0  0  0  0  0  0  0  0
   38.0550   29.0140   39.2470 C   0  0  0  0  0  0  0  0  0  0  0  0
   38.3140   27.7320   39.7320 C   0  0  0  0  0  0  0  0  0  0  0  0
   37.8490   27.3220   40.9230 N   0  0  0  0  0  0  0  0  0  0  0  0
   37.1100   28.1370   41.7000 C   0  0  0  0  0  0  0  0  0  0  0  0
   36.8640   29.3610   41.2320 N   0  0  0  0  0  0  0  0  0  0  0  0
   39.0830   26.8030   38.9390 N   0  0  0  0  0  0  0  0  0  0  0  0
   38.8180   25.9260   38.4570 H   0  0  0  0  0  0  0  0  0  0  0  0
   40.1090   26.9900   38.7830 H   0  0  0  0  0  0  0  0  0  0  0  0
   38.7120   29.2060   37.9170 C   0  0  0  0  0  0  0  0  0  0  0  0
   39.7460   28.8040   37.9130 H   0  0  0  0  0  0  0  0  0  0  0  0
   38.8360   30.3160   37.8230 H   0  0  0  0  0  0  0  0  0  0  0  0
   38.0960   28.7790   37.0890 H   0  0  0  0  0  0  0  0  0  0  0  0
   36.5930   27.8100   42.9330 O   0  0  0  0  0  0  0  0  0  0  0  0
   37.3660   28.1370   44.0760 C   0  0  0  0  0  0  0  0  0  0  0  0
   36.5860   28.3600   45.1690 F   0  0  0  0  0  0  0  0  0  0  0  0
   38.2500   27.0630   44.2850 F   0  0  0  0  0  0  0  0  0  0  0  0
   38.0690   29.3000   43.8010 F   0  0  0  0  0  0  0  0  0  0  0  0
  1  6  1  0  0  0  0
  2  1  2  0  0  0  0
  2  3  1  0  0  0  0
  3  4  2  0  0  0  0
  4  5  1  0  0  0  0
  4  9  1  0  0  0  0
  5  7  1  0  0  0  0
  6 12  1  0  0  0  0
  6  5  2  0  0  0  0
  8 13  1  6  0  0  0
  8  9  1  0  0  0  0
  8  7  1  0  0  0  0
  8 14  1  0  0  0  0
 10  1  1  0  0  0  0
 11  3  1  0  0  0  0
 14 20  2  0  0  0  0
 14 15  1  0  0  0  0
 15 16  2  0  0  0  0
 16 18  1  0  0  0  0
 16 17  1  0  0  0  0
 19 18  2  0  0  0  0
 20 19  1  0  0  0  0
 21  2  1  0  0  0  0
 21 22  1  0  0  0  0
 22 27  1  0  0  0  0
 23 24  1  0  0  0  0
 23 22  2  0  0  0  0
 24 25  2  0  0  0  0
 25 26  1  0  0  0  0
 26 35  1  0  0  0  0
 27 26  2  0  0  0  0
 28 24  1  0  0  0  0
 29 28  1  0  0  0  0
 30 28  1  0  0  0  0
 31 23  1  0  0  0  0
 32 31  1  0  0  0  0
 33 31  1  0  0  0  0
 34 31  1  0  0  0  0
 35 36  1  0  0  0  0
 36 38  1  0  0  0  0
 36 37  1  0  0  0  0
 39 36  1  0  0  0  0
M  END
>  <minimizedAffinity>
-7.07703686

$$$$

 OpenBabel03242515473D

 39 42  0  0  1  0  0  0  0  0999 V2000
   36.5890   31.5120   40.4680 C   0  0  0  0  0  0  0  0  0  0  0  0
   37.8980   31.9570   40.6910 C   0  0  0  0  0  0  0  0  0  0  0  0
   38.7850   31.2070   41.4350 C   0  0  0  0  0  0  0  0  0  0  0  0
   38.3970   29.9970   41.9730 C   0  0  0  0  0  0  0  0  0  0  0  0
   37.1040   29.5510   41.7550 C   0  0  0  0  0  0  0  0  0  0  0  0
   36.2020   30.2730   41.0230 C   0  0  0  0  0  0  0  0  0  0  0  0
   37.0100   28.3130   42.4130 O   0  0  0  0  0  0  0  0  0  0  0  0
   38.1020   28.1550   43.2310 C   0  0  2  0  0  0  0  0  0  0  0  0
   39.0770   29.0540   42.7500 O   0  0  0  0  0  0  0  0  0  0  0  0
   35.8420   32.0480   39.8970 H   0  0  0  0  0  0  0  0  0  0  0  0
   39.7740   31.6250   41.5580 H   0  0  0  0  0  0  0  0  0  0  0  0
   35.1890   29.9340   40.8460 H   0  0  0  0  0  0  0  0  0  0  0  0
   37.8540   28.4050   44.2640 H   0  0  0  0  0  0  0  0  0  0  0  0
   38.7090   26.7820   43.1540 C   0  0  0  0  0  0  0  0  0  0  0  0
   39.9090   26.5240   43.7850 C   0  0  0  0  0  3  0  0  0  0  0  0
   40.4850   25.2500   43.7210 C   0  0  0  0  0  0  0  0  0  0  0  0
   41.4410   25.0330   44.2200 H   0  0  0  0  0  0  0  0  0  0  0  0
   39.8410   24.2890   43.0320 N   0  0  0  0  0  0  0  0  0  0  0  0
   38.6760   24.5380   42.4190 C   0  0  0  0  0  3  0  0  0  0  0  0
   38.1080   25.7720   42.4740 N   0  0  0  0  0  0  0  0  0  0  0  0
   38.2430   33.5240   39.9060 S   0  0  0  0  0  0  0  0  0  0  0  0
   40.0490   33.7780   39.8120 C   0  0  0  0  0  0  0  0  0  0  0  0
   40.6940   33.0840   38.8530 C   0  0  0  0  0  0  0  0  0  0  0  0
   42.0740   33.2760   38.8090 C   0  0  0  0  0  0  0  0  0  0  0  0
   42.6990   34.0990   39.6660 N   0  0  0  0  0  0  0  0  0  0  0  0
   42.0140   34.7750   40.6080 C   0  0  0  0  0  0  0  0  0  0  0  0
   40.6940   34.5880   40.6480 N   0  0  0  0  0  0  0  0  0  0  0  0
   42.8700   32.5670   37.8360 N   0  0  0  0  0  0  0  0  0  0  0  0
   43.5730   31.8130   37.9390 H   0  0  0  0  0  0  0  0  0  0  0  0
   42.7670   32.8100   36.8150 H   0  0  0  0  0  0  0  0  0  0  0  0
   40.2680   32.1420   37.7730 C   0  0  0  0  0  0  0  0  0  0  0  0
   40.7700   32.3720   36.8110 H   0  0  0  0  0  0  0  0  0  0  0  0
   39.1880   32.3860   37.5980 H   0  0  0  0  0  0  0  0  0  0  0  0
   40.4150   31.0770   38.0750 H   0  0  0  0  0  0  0  0  0  0  0  0
   42.5630   35.6400   41.5270 O   0  0  0  0  0  0  0  0  0  0  0  0
   43.6060   35.1450   42.3500 C   0  0  0  0  0  0  0  0  0  0  0  0
   43.4540   33.8190   42.6190 F   0  0  0  0  0  0  0  0  0  0  0  0
   44.8110   35.3970   41.6700 F   0  0  0  0  0  0  0  0  0  0  0  0
   43.5710   35.8370   43.5510 F   0  0  0  0  0  0  0  0  0  0  0  0
  1  2  2  0  0  0  0
  1  6  1  0  0  0  0
  2  3  1  0  0  0  0
  3 11  1  0  0  0  0
  3  4  2  0  0  0  0
  4  9  1  0  0  0  0
  5  4  1  0  0  0  0
  5  7  1  0  0  0  0
  6  5  2  0  0  0  0
  7  8  1  0  0  0  0
  8 13  1  1  0  0  0
  9  8  1  0  0  0  0
 10  1  1  0  0  0  0
 12  6  1  0  0  0  0
 14  8  1  0  0  0  0
 14 15  1  0  0  0  0
 16 15  2  0  0  0  0
 16 17  1  0  0  0  0
 18 16  1  0  0  0  0
 19 20  1  0  0  0  0
 19 18  2  0  0  0  0
 20 14  2  0  0  0  0
 21  2  1  0  0  0  0
 22 21  1  0  0  0  0
 22 27  1  0  0  0  0
 23 22  2  0  0  0  0
 24 23  1  0  0  0  0
 24 25  2  0  0  0  0
 25 26  1  0  0  0  0
 26 27  2  0  0  0  0
 26 35  1  0  0  0  0
 28 29  1  0  0  0  0
 28 24  1  0  0  0  0
 30 28  1  0  0  0  0
 31 34  1  0  0  0  0
 31 23  1  0  0  0  0
 32 31  1  0  0  0  0
 33 31  1  0  0  0  0
 35 36  1  0  0  0  0
 36 37  1  0  0  0  0
 36 39  1  0  0  0  0
 38 36  1  0  0  0  0
M  END
>  <minimizedAffinity>
-6.93108034

$$$$

 OpenBabel03242515473D

 39 42  0  0  1  0  0  0  0  0999 V2000
   36.9510   31.7440   40.6330 C   0  0  0  0  0  0  0  0  0  0  0  0
   38.2780   31.9810   41.0170 C   0  0  0  0  0  0  0  0  0  0  0  0
   38.9880   31.0410   41.7330 C   0  0  0  0  0  0  0  0  0  0  0  0
   38.4020   29.8410   42.0850 C   0  0  0  0  0  0  0  0  0  0  0  0
   37.0930   29.6000   41.7070 C   0  0  0  0  0  0  0  0  0  0  0  0
   36.3630   30.5140   40.9980 C   0  0  0  0  0  0  0  0  0  0  0  0
   36.7820   28.3210   42.1980 O   0  0  0  0  0  0  0  0  0  0  0  0
   37.7610   27.9280   43.0780 C   0  0  2  0  0  0  0  0  0  0  0  0
   38.8820   28.7350   42.7940 O   0  0  0  0  0  0  0  0  0  0  0  0
   36.3360   32.4350   40.0730 H   0  0  0  0  0  0  0  0  0  0  0  0
   40.0040   31.3060   41.9890 H   0  0  0  0  0  0  0  0  0  0  0  0
   35.3370   30.3360   40.6980 H   0  0  0  0  0  0  0  0  0  0  0  0
   37.4450   28.0920   44.1090 H   0  0  0  0  0  0  0  0  0  0  0  0
   38.1980   26.5030   42.8830 C   0  0  0  0  0  0  0  0  0  0  0  0
   37.3740   25.6150   42.2210 C   0  0  0  0  0  3  0  0  0  0  0  0
   37.7690   24.2860   42.0330 C   0  0  0  0  0  0  0  0  0  0  0  0
   37.1200   23.5700   41.5070 H   0  0  0  0  0  0  0  0  0  0  0  0
   38.9660   23.8990   42.5110 N   0  0  0  0  0  0  0  0  0  0  0  0
   39.7670   24.7590   43.1530 C   0  0  0  0  0  3  0  0  0  0  0  0
   39.3940   26.0520   43.3420 N   0  0  0  0  0  0  0  0  0  0  0  0
   38.8890   33.5660   40.4610 S   0  0  0  0  0  0  0  0  0  0  0  0
   40.1820   33.3150   39.1980 C   0  0  0  0  0  0  0  0  0  0  0  0
   41.0320   34.3440   39.0100 C   0  0  0  0  0  0  0  0  0  0  0  0
   42.0010   34.1420   38.0280 C   0  0  0  0  0  0  0  0  0  0  0  0
   42.0690   32.9970   37.3300 N   0  0  0  0  0  0  0  0  0  0  0  0
   41.1990   31.9930   37.5520 C   0  0  0  0  0  0  0  0  0  0  0  0
   40.2730   32.1910   38.4910 N   0  0  0  0  0  0  0  0  0  0  0  0
   42.9520   35.1850   37.7270 N   0  0  0  0  0  0  0  0  0  0  0  0
   43.0760   35.7830   36.8910 H   0  0  0  0  0  0  0  0  0  0  0  0
   43.6820   35.4360   38.4460 H   0  0  0  0  0  0  0  0  0  0  0  0
   41.2070   35.6890   39.6390 C   0  0  0  0  0  0  0  0  0  0  0  0
   42.2750   35.9020   39.8540 H   0  0  0  0  0  0  0  0  0  0  0  0
   40.7270   35.5910   40.6470 H   0  0  0  0  0  0  0  0  0  0  0  0
   40.7370   36.4940   39.0250 H   0  0  0  0  0  0  0  0  0  0  0  0
   41.1890   30.7850   36.8920 O   0  0  0  0  0  0  0  0  0  0  0  0
   42.4190   30.0890   36.7820 C   0  0  0  0  0  0  0  0  0  0  0  0
   43.1820   30.2280   37.9020 F   0  0  0  0  0  0  0  0  0  0  0  0
   42.0990   28.7400   36.5430 F   0  0  0  0  0  0  0  0  0  0  0  0
   43.1210   30.6210   35.7120 F   0  0  0  0  0  0  0  0  0  0  0  0
  1  6  2  0  0  0  0
  1  2  1  0  0  0  0
  2  3  2  0  0  0  0
  3 11  1  0  0  0  0
  3  4  1  0  0  0  0
  4  9  1  0  0  0  0
  5  4  2  0  0  0  0
  5  7  1  0  0  0  0
  6  5  1  0  0  0  0
  7  8  1  0  0  0  0
  8 13  1  1  0  0  0
  9  8  1  0  0  0  0
 10  1  1  0  0  0  0
 12  6  1  0  0  0  0
 14  8  1  0  0  0  0
 14 20  1  0  0  0  0
 15 14  2  0  0  0  0
 16 15  1  0  0  0  0
 16 18  2  0  0  0  0
 17 16  1  0  0  0  0
 18 19  1  0  0  0  0
 19 20  2  0  0  0  0
 21  2  1  0  0  0  0
 22 21  1  0  0  0  0
 23 22  1  0  0  0  0
 23 31  1  0  0  0  0
 24 23  2  0  0  0  0
 25 26  2  0  0  0  0
 25 24  1  0  0  0  0
 26 27  1  0  0  0  0
 27 22  2  0  0  0  0
 28 24  1  0  0  0  0
 28 30  1  0  0  0  0
 29 28  1  0  0  0  0
 31 32  1  0  0  0  0
 31 33  1  0  0  0  0
 34 31  1  0  0  0  0
 35 26  1  0  0  0  0
 36 35  1  0  0  0  0
 36 37  1  0  0  0  0
 38 36  1  0  0  0  0
 39 36  1  0  0  0  0
M  END
>  <minimizedAffinity>
-6.89491653

$$$$

 OpenBabel03242515473D

 39 42  0  0  1  0  0  0  0  0999 V2000
   36.7130   26.6850   40.9350 C   0  0  0  0  0  0  0  0  0  0  0  0
   36.7600   27.9900   41.4430 C   0  0  0  0  0  0  0  0  0  0  0  0
   37.7060   28.3530   42.3790 C   0  0  0  0  0  0  0  0  0  0  0  0
   38.6290   27.4320   42.8330 C   0  0  0  0  0  0  0  0  0  0  0  0
   38.5890   26.1410   42.3330 C   0  0  0  0  0  0  0  0  0  0  0  0
   37.6620   25.7520   41.4060 C   0  0  0  0  0  0  0  0  0  0  0  0
   39.6330   25.4520   42.9710 O   0  0  0  0  0  0  0  0  0  0  0  0
   40.1000   26.2090   44.0170 C   0  0  2  0  0  0  0  0  0  0  0  0
   39.6740   27.5290   43.7570 O   0  0  0  0  0  0  0  0  0  0  0  0
   36.0000   26.3320   40.2020 H   0  0  0  0  0  0  0  0  0  0  0  0
   37.6710   29.3780   42.7170 H   0  0  0  0  0  0  0  0  0  0  0  0
   37.6210   24.7450   41.0090 H   0  0  0  0  0  0  0  0  0  0  0  0
   39.6760   25.8690   44.9630 H   0  0  0  0  0  0  0  0  0  0  0  0
   41.6000   26.2500   44.0990 C   0  0  0  0  0  0  0  0  0  0  0  0
   42.3580   25.5110   43.2140 C   0  0  0  0  0  3  0  0  0  0  0  0
   43.7550   25.5400   43.2790 C   0  0  0  0  0  0  0  0  0  0  0  0
   44.3690   24.9540   42.5780 H   0  0  0  0  0  0  0  0  0  0  0  0
   44.3370   26.3040   44.2220 N   0  0  0  0  0  0  0  0  0  0  0  0
   43.6040   27.0230   45.0820 C   0  0  0  0  0  3  0  0  0  0  0  0
   42.2460   27.0010   45.0280 N   0  0  0  0  0  0  0  0  0  0  0  0
   35.5160   29.0570   40.7340 S   0  0  0  0  0  0  0  0  0  0  0  0
   36.3150   30.3170   39.6820 C   0  0  0  0  0  0  0  0  0  0  0  0
   36.5850   29.9440   38.4150 C   0  0  0  0  0  0  0  0  0  0  0  0
   37.2130   30.9110   37.6320 C   0  0  0  0  0  0  0  0  0  0  0  0
   37.5180   32.1240   38.1210 N   0  0  0  0  0  0  0  0  0  0  0  0
   37.2280   32.4550   39.3940 C   0  0  0  0  0  0  0  0  0  0  0  0
   36.6290   31.5260   40.1400 N   0  0  0  0  0  0  0  0  0  0  0  0
   37.5680   30.6140   36.2650 N   0  0  0  0  0  0  0  0  0  0  0  0
   38.4870   30.4930   35.8040 H   0  0  0  0  0  0  0  0  0  0  0  0
   36.8010   30.4840   35.5530 H   0  0  0  0  0  0  0  0  0  0  0  0
   36.3440   28.7050   37.6120 C   0  0  0  0  0  0  0  0  0  0  0  0
   35.9550   28.9460   36.6010 H   0  0  0  0  0  0  0  0  0  0  0  0
   35.4920   28.1950   38.1320 H   0  0  0  0  0  0  0  0  0  0  0  0
   37.2550   28.0620   37.5650 H   0  0  0  0  0  0  0  0  0  0  0  0
   37.4980   33.6690   39.9830 O   0  0  0  0  0  0  0  0  0  0  0  0
   38.7980   33.8640   40.5160 C   0  0  0  0  0  0  0  0  0  0  0  0
   39.1740   32.8360   41.3250 F   0  0  0  0  0  0  0  0  0  0  0  0
   39.6670   33.9980   39.4180 F   0  0  0  0  0  0  0  0  0  0  0  0
   38.7840   35.0260   41.2700 F   0  0  0  0  0  0  0  0  0  0  0  0
  1  6  2  0  0  0  0
  1  2  1  0  0  0  0
  2  3  2  0  0  0  0
  3 11  1  0  0  0  0
  3  4  1  0  0  0  0
  4  9  1  0  0  0  0
  5  4  2  0  0  0  0
  5  7  1  0  0  0  0
  6  5  1  0  0  0  0
  7  8  1  0  0  0  0
  8 14  1  0  0  0  0
  8 13  1  1  0  0  0
  9  8  1  0  0  0  0
 10  1  1  0  0  0  0
 12  6  1  0  0  0  0
 14 20  1  0  0  0  0
 15 16  1  0  0  0  0
 15 14  2  0  0  0  0
 16 18  2  0  0  0  0
 17 16  1  0  0  0  0
 18 19  1  0  0  0  0
 20 19  2  0  0  0  0
 21  2  1  0  0  0  0
 22 27  1  0  0  0  0
 22 21  1  0  0  0  0
 23 22  2  0  0  0  0
 24 25  2  0  0  0  0
 24 23  1  0  0  0  0
 25 26  1  0  0  0  0
 26 35  1  0  0  0  0
 26 27  2  0  0  0  0
 28 24  1  0  0  0  0
 29 28  1  0  0  0  0
 30 28  1  0  0  0  0
 31 33  1  0  0  0  0
 31 23  1  0  0  0  0
 32 31  1  0  0  0  0
 34 31  1  0  0  0  0
 35 36  1  0  0  0  0
 36 39  1  0  0  0  0
 36 37  1  0  0  0  0
 38 36  1  0  0  0  0
M  END
>  <minimizedAffinity>
-6.85348892

$$$$

 OpenBabel03242515473D

 39 42  0  0  1  0  0  0  0  0999 V2000
   37.0540   31.7330   39.4950 C   0  0  0  0  0  0  0  0  0  0  0  0
   37.9470   30.8390   38.8880 C   0  0  0  0  0  0  0  0  0  0  0  0
   39.2800   31.1580   38.7400 C   0  0  0  0  0  0  0  0  0  0  0  0
   39.7630   32.3710   39.1920 C   0  0  0  0  0  0  0  0  0  0  0  0
   38.8870   33.2570   39.7940 C   0  0  0  0  0  0  0  0  0  0  0  0
   37.5590   32.9690   39.9540 C   0  0  0  0  0  0  0  0  0  0  0  0
   39.6570   34.3790   40.1430 O   0  0  0  0  0  0  0  0  0  0  0  0
   40.8800   34.2940   39.5230 C   0  0  2  0  0  0  0  0  0  0  0  0
   41.0410   32.9380   39.1700 O   0  0  0  0  0  0  0  0  0  0  0  0
   35.9990   31.5490   39.6430 H   0  0  0  0  0  0  0  0  0  0  0  0
   39.8970   30.4120   38.2600 H   0  0  0  0  0  0  0  0  0  0  0  0
   36.8650   33.6550   40.4230 H   0  0  0  0  0  0  0  0  0  0  0  0
   40.9020   34.9110   38.6230 H   0  0  0  0  0  0  0  0  0  0  0  0
   42.0300   34.6420   40.4260 C   0  0  0  0  0  0  0  0  0  0  0  0
   43.2540   34.0320   40.2470 C   0  0  0  0  0  3  0  0  0  0  0  0
   44.3330   34.3470   41.0810 C   0  0  0  0  0  0  0  0  0  0  0  0
   45.3140   33.8660   40.9470 H   0  0  0  0  0  0  0  0  0  0  0  0
   44.1450   35.2550   42.0570 N   0  0  0  0  0  0  0  0  0  0  0  0
   42.9580   35.8490   42.2320 C   0  0  0  0  0  3  0  0  0  0  0  0
   41.9030   35.5500   41.4280 N   0  0  0  0  0  0  0  0  0  0  0  0
   37.1670   29.3120   38.3860 S   0  0  0  0  0  0  0  0  0  0  0  0
   37.4340   28.0370   39.6650 C   0  0  0  0  0  0  0  0  0  0  0  0
   38.1630   26.9670   39.2900 C   0  0  0  0  0  0  0  0  0  0  0  0
   38.3400   25.9960   40.2740 C   0  0  0  0  0  0  0  0  0  0  0  0
   37.8180   26.1330   41.5020 N   0  0  0  0  0  0  0  0  0  0  0  0
   37.0960   27.2220   41.8350 C   0  0  0  0  0  0  0  0  0  0  0  0
   36.9280   28.1480   40.8910 N   0  0  0  0  0  0  0  0  0  0  0  0
   39.0860   24.7960   39.9770 N   0  0  0  0  0  0  0  0  0  0  0  0
   38.7920   23.8080   39.8870 H   0  0  0  0  0  0  0  0  0  0  0  0
   40.1250   24.8670   39.8090 H   0  0  0  0  0  0  0  0  0  0  0  0
   38.8710   26.5680   38.0350 C   0  0  0  0  0  0  0  0  0  0  0  0
   39.8830   26.1670   38.2490 H   0  0  0  0  0  0  0  0  0  0  0  0
   39.0540   27.5340   37.4970 H   0  0  0  0  0  0  0  0  0  0  0  0
   38.2610   25.8570   37.4270 H   0  0  0  0  0  0  0  0  0  0  0  0
   36.5240   27.4530   43.0650 O   0  0  0  0  0  0  0  0  0  0  0  0
   37.3250   28.0780   44.0530 C   0  0  0  0  0  0  0  0  0  0  0  0
   37.8430   29.2580   43.6140 F   0  0  0  0  0  0  0  0  0  0  0  0
   36.5040   28.2640   45.1800 F   0  0  0  0  0  0  0  0  0  0  0  0
   38.3780   27.2280   44.3530 F   0  0  0  0  0  0  0  0  0  0  0  0
  1 10  1  0  0  0  0
  1  6  1  0  0  0  0
  2  1  2  0  0  0  0
  3  2  1  0  0  0  0
  3  4  2  0  0  0  0
  4  5  1  0  0  0  0
  5  6  2  0  0  0  0
  5  7  1  0  0  0  0
  6 12  1  0  0  0  0
  8 13  1  6  0  0  0
  8  7  1  0  0  0  0
  8 14  1  0  0  0  0
  9  4  1  0  0  0  0
  9  8  1  0  0  0  0
 11  3  1  0  0  0  0
 14 20  1  0  0  0  0
 15 14  2  0  0  0  0
 15 16  1  0  0  0  0
 16 18  2  0  0  0  0
 17 16  1  0  0  0  0
 18 19  1  0  0  0  0
 20 19  2  0  0  0  0
 21  2  1  0  0  0  0
 21 22  1  0  0  0  0
 22 27  1  0  0  0  0
 23 22  2  0  0  0  0
 23 24  1  0  0  0  0
 24 25  2  0  0  0  0
 25 26  1  0  0  0  0
 26 35  1  0  0  0  0
 27 26  2  0  0  0  0
 28 24  1  0  0  0  0
 29 28  1  0  0  0  0
 30 28  1  0  0  0  0
 31 32  1  0  0  0  0
 31 23  1  0  0  0  0
 33 31  1  0  0  0  0
 34 31  1  0  0  0  0
 35 36  1  0  0  0  0
 36 39  1  0  0  0  0
 36 38  1  0  0  0  0
 37 36  1  0  0  0  0
M  END
>  <minimizedAffinity>
-6.82954359

$$$$

 OpenBabel03242515473D

 39 42  0  0  1  0  0  0  0  0999 V2000
   35.9460   29.5390   40.6530 C   0  0  0  0  0  0  0  0  0  0  0  0
   36.8430   28.8910   39.7940 C   0  0  0  0  0  0  0  0  0  0  0  0
   37.9230   29.5600   39.2590 C   0  0  0  0  0  0  0  0  0  0  0  0
   38.1430   30.8880   39.5630 C   0  0  0  0  0  0  0  0  0  0  0  0
   37.2620   31.5350   40.4130 C   0  0  0  0  0  0  0  0  0  0  0  0
   36.1810   30.8980   40.9580 C   0  0  0  0  0  0  0  0  0  0  0  0
   37.7400   32.8500   40.5320 O   0  0  0  0  0  0  0  0  0  0  0  0
   38.7000   33.0670   39.5740 C   0  0  2  0  0  0  0  0  0  0  0  0
   39.1370   31.7890   39.1690 O   0  0  0  0  0  0  0  0  0  0  0  0
   35.0800   29.0770   41.1070 H   0  0  0  0  0  0  0  0  0  0  0  0
   38.5630   28.9840   38.6050 H   0  0  0  0  0  0  0  0  0  0  0  0
   35.4850   31.3940   41.6230 H   0  0  0  0  0  0  0  0  0  0  0  0
   38.2800   33.5980   38.7170 H   0  0  0  0  0  0  0  0  0  0  0  0
   39.9100   33.7900   40.0970 C   0  0  0  0  0  0  0  0  0  0  0  0
   39.8880   35.1630   40.2290 C   0  0  0  0  0  3  0  0  0  0  0  0
   41.0070   35.8480   40.7150 C   0  0  0  0  0  0  0  0  0  0  0  0
   41.0000   36.9430   40.8230 H   0  0  0  0  0  0  0  0  0  0  0  0
   42.0990   35.1350   41.0480 N   0  0  0  0  0  0  0  0  0  0  0  0
   42.1230   33.8020   40.9220 C   0  0  0  0  0  3  0  0  0  0  0  0
   41.0410   33.1270   40.4510 N   0  0  0  0  0  0  0  0  0  0  0  0
   36.4280   27.1730   39.5250 S   0  0  0  0  0  0  0  0  0  0  0  0
   37.3480   26.1290   40.7060 C   0  0  0  0  0  0  0  0  0  0  0  0
   37.3660   24.8080   40.4380 C   0  0  0  0  0  0  0  0  0  0  0  0
   38.0560   24.0240   41.3600 C   0  0  0  0  0  0  0  0  0  0  0  0
   38.6580   24.5630   42.4330 N   0  0  0  0  0  0  0  0  0  0  0  0
   38.6160   25.8900   42.6610 C   0  0  0  0  0  0  0  0  0  0  0  0
   37.9540   26.6360   41.7770 N   0  0  0  0  0  0  0  0  0  0  0  0
   38.1220   22.5920   41.1850 N   0  0  0  0  0  0  0  0  0  0  0  0
   37.7050   21.8130   41.7240 H   0  0  0  0  0  0  0  0  0  0  0  0
   38.6790   22.2000   40.3800 H   0  0  0  0  0  0  0  0  0  0  0  0
   36.8220   23.9530   39.3370 C   0  0  0  0  0  0  0  0  0  0  0  0
   37.5700   23.2110   38.9910 H   0  0  0  0  0  0  0  0  0  0  0  0
   36.6950   24.6560   38.4730 H   0  0  0  0  0  0  0  0  0  0  0  0
   35.8590   23.4690   39.6310 H   0  0  0  0  0  0  0  0  0  0  0  0
   39.2020   26.5340   43.7280 O   0  0  0  0  0  0  0  0  0  0  0  0
   40.4440   27.1790   43.5020 C   0  0  0  0  0  0  0  0  0  0  0  0
   41.1300   26.6100   42.4720 F   0  0  0  0  0  0  0  0  0  0  0  0
   40.1550   28.5300   43.2420 F   0  0  0  0  0  0  0  0  0  0  0  0
   41.2080   27.0560   44.6510 F   0  0  0  0  0  0  0  0  0  0  0  0
  1  6  1  0  0  0  0
  1 10  1  0  0  0  0
  2  1  2  0  0  0  0
  3  4  2  0  0  0  0
  3  2  1  0  0  0  0
  4  5  1  0  0  0  0
  5  7  1  0  0  0  0
  5  6  2  0  0  0  0
  6 12  1  0  0  0  0
  8 13  1  6  0  0  0
  8 14  1  0  0  0  0
  8  7  1  0  0  0  0
  9  4  1  0  0  0  0
  9  8  1  0  0  0  0
 11  3  1  0  0  0  0
 14 15  2  0  0  0  0
 14 20  1  0  0  0  0
 15 16  1  0  0  0  0
 16 17  1  0  0  0  0
 16 18  2  0  0  0  0
 19 18  1  0  0  0  0
 20 19  2  0  0  0  0
 21  2  1  0  0  0  0
 21 22  1  0  0  0  0
 22 27  1  0  0  0  0
 23 22  2  0  0  0  0
 23 24  1  0  0  0  0
 24 25  2  0  0  0  0
 25 26  1  0  0  0  0
 26 35  1  0  0  0  0
 27 26  2  0  0  0  0
 28 24  1  0  0  0  0
 28 29  1  0  0  0  0
 30 28  1  0  0  0  0
 31 34  1  0  0  0  0
 31 23  1  0  0  0  0
 32 31  1  0  0  0  0
 33 31  1  0  0  0  0
 36 35  1  0  0  0  0
 36 39  1  0  0  0  0
 37 36  1  0  0  0  0
 38 36  1  0  0  0  0
M  END
>  <minimizedAffinity>
-6.55584669

$$$$

 OpenBabel03242515473D

 39 42  0  0  1  0  0  0  0  0999 V2000
   37.0450   31.3530   39.1310 C   0  0  0  0  0  0  0  0  0  0  0  0
   37.9780   30.4540   38.5980 C   0  0  0  0  0  0  0  0  0  0  0  0
   39.3100   30.7930   38.4920 C   0  0  0  0  0  0  0  0  0  0  0  0
   39.7520   32.0310   38.9140 C   0  0  0  0  0  0  0  0  0  0  0  0
   38.8360   32.9230   39.4440 C   0  0  0  0  0  0  0  0  0  0  0  0
   37.5080   32.6160   39.5600 C   0  0  0  0  0  0  0  0  0  0  0  0
   39.5710   34.0730   39.7780 O   0  0  0  0  0  0  0  0  0  0  0  0
   40.8200   33.9880   39.2130 C   0  0  2  0  0  0  0  0  0  0  0  0
   41.0190   32.6220   38.9220 O   0  0  0  0  0  0  0  0  0  0  0  0
   35.9880   31.1540   39.2430 H   0  0  0  0  0  0  0  0  0  0  0  0
   39.9600   30.0400   38.0680 H   0  0  0  0  0  0  0  0  0  0  0  0
   36.7830   33.3070   39.9720 H   0  0  0  0  0  0  0  0  0  0  0  0
   40.8690   34.5680   38.2900 H   0  0  0  0  0  0  0  0  0  0  0  0
   41.9250   34.3930   40.1480 C   0  0  0  0  0  0  0  0  0  0  0  0
   41.7030   35.3780   41.0880 C   0  0  0  0  0  3  0  0  0  0  0  0
   42.7230   35.7650   41.9650 C   0  0  0  0  0  0  0  0  0  0  0  0
   42.5560   36.5500   42.7180 H   0  0  0  0  0  0  0  0  0  0  0  0
   43.9180   35.1550   41.8670 N   0  0  0  0  0  0  0  0  0  0  0  0
   44.1350   34.1980   40.9550 C   0  0  0  0  0  3  0  0  0  0  0  0
   43.1520   33.8150   40.0980 N   0  0  0  0  0  0  0  0  0  0  0  0
   37.2470   28.8930   38.1260 S   0  0  0  0  0  0  0  0  0  0  0  0
   36.1810   29.1330   36.6630 C   0  0  0  0  0  0  0  0  0  0  0  0
   34.8610   28.9460   36.8560 C   0  0  0  0  0  0  0  0  0  0  0  0
   34.0650   29.1150   35.7240 C   0  0  0  0  0  0  0  0  0  0  0  0
   34.5930   29.4420   34.5340 N   0  0  0  0  0  0  0  0  0  0  0  0
   35.9200   29.6200   34.3860 C   0  0  0  0  0  0  0  0  0  0  0  0
   36.6770   29.4570   35.4710 N   0  0  0  0  0  0  0  0  0  0  0  0
   32.6370   28.9180   35.8100 N   0  0  0  0  0  0  0  0  0  0  0  0
   32.0180   28.1910   35.4130 H   0  0  0  0  0  0  0  0  0  0  0  0
   32.0580   29.6050   36.3630 H   0  0  0  0  0  0  0  0  0  0  0  0
   34.0100   28.6120   38.0410 C   0  0  0  0  0  0  0  0  0  0  0  0
   33.1040   29.2500   38.0840 H   0  0  0  0  0  0  0  0  0  0  0  0
   34.6240   28.9270   38.9240 H   0  0  0  0  0  0  0  0  0  0  0  0
   33.7560   27.5250   38.0700 H   0  0  0  0  0  0  0  0  0  0  0  0
   36.5530   29.9580   33.2120 O   0  0  0  0  0  0  0  0  0  0  0  0
   36.4230   31.2950   32.7580 C   0  0  0  0  0  0  0  0  0  0  0  0
   37.5200   32.0420   33.0620 F   0  0  0  0  0  0  0  0  0  0  0  0
   36.2130   31.2310   31.3690 F   0  0  0  0  0  0  0  0  0  0  0  0
   35.3260   31.8590   33.3910 F   0  0  0  0  0  0  0  0  0  0  0  0
  1 10  1  0  0  0  0
  1  6  1  0  0  0  0
  2  1  2  0  0  0  0
  3  2  1  0  0  0  0
  3  4  2  0  0  0  0
  4  9  1  0  0  0  0
  4  5  1  0  0  0  0
  5  6  2  0  0  0  0
  5  7  1  0  0  0  0
  6 12  1  0  0  0  0
  8 13  1  6  0  0  0
  8  7  1  0  0  0  0
  8 14  1  0  0  0  0
  9  8  1  0  0  0  0
 11  3  1  0  0  0  0
 14 15  1  0  0  0  0
 15 16  2  0  0  0  0
 16 17  1  0  0  0  0
 18 16  1  0  0  0  0
 19 18  2  0  0  0  0
 20 14  2  0  0  0  0
 20 19  1  0  0  0  0
 21  2  1  0  0  0  0
 22 23  1  0  0  0  0
 22 21  1  0  0  0  0
 23 31  1  0  0  0  0
 24 28  1  0  0  0  0
 24 23  2  0  0  0  0
 25 24  1  0  0  0  0
 26 25  2  0  0  0  0
 26 27  1  0  0  0  0
 27 22  2  0  0  0  0
 28 30  1  0  0  0  0
 29 28  1  0  0  0  0
 31 34  1  0  0  0  0
 31 32  1  0  0  0  0
 31 33  1  0  0  0  0
 35 26  1  0  0  0  0
 36 37  1  0  0  0  0
 36 35  1  0  0  0  0
 36 39  1  0  0  0  0
 38 36  1  0  0  0  0
M  END
>  <minimizedAffinity>
-6.44287491

$$$$

 OpenBabel03242515473D

 39 42  0  0  1  0  0  0  0  0999 V2000
   36.9580   28.4530   42.6100 C   0  0  0  0  0  0  0  0  0  0  0  0
   36.7750   28.8320   41.2740 C   0  0  0  0  0  0  0  0  0  0  0  0
   36.9870   27.9370   40.2470 C   0  0  0  0  0  0  0  0  0  0  0  0
   37.3840   26.6430   40.5180 C   0  0  0  0  0  0  0  0  0  0  0  0
   37.5640   26.2610   41.8370 C   0  0  0  0  0  0  0  0  0  0  0  0
   37.3630   27.1270   42.8760 C   0  0  0  0  0  0  0  0  0  0  0  0
   37.9580   24.9140   41.7940 O   0  0  0  0  0  0  0  0  0  0  0  0
   38.2800   24.5800   40.5010 C   0  0  2  0  0  0  0  0  0  0  0  0
   37.6640   25.5540   39.6870 O   0  0  0  0  0  0  0  0  0  0  0  0
   36.8100   29.1010   43.4630 H   0  0  0  0  0  0  0  0  0  0  0  0
   36.8240   28.3140   39.2470 H   0  0  0  0  0  0  0  0  0  0  0  0
   37.5020   26.8390   43.9110 H   0  0  0  0  0  0  0  0  0  0  0  0
   39.3600   24.6080   40.3500 H   0  0  0  0  0  0  0  0  0  0  0  0
   37.7240   23.2500   40.0750 C   0  0  0  0  0  0  0  0  0  0  0  0
   36.5240   23.1920   39.3950 C   0  0  0  0  0  3  0  0  0  0  0  0
   35.9950   21.9610   38.9930 C   0  0  0  0  0  0  0  0  0  0  0  0
   35.0390   21.9030   38.4500 H   0  0  0  0  0  0  0  0  0  0  0  0
   36.6840   20.8410   39.2840 N   0  0  0  0  0  0  0  0  0  0  0  0
   37.8480   20.8950   39.9430 C   0  0  0  0  0  3  0  0  0  0  0  0
   38.3710   22.0860   40.3390 N   0  0  0  0  0  0  0  0  0  0  0  0
   36.2380   30.5280   41.1000 S   0  0  0  0  0  0  0  0  0  0  0  0
   37.4650   31.4620   40.1230 C   0  0  0  0  0  0  0  0  0  0  0  0
   37.4420   31.2560   38.7920 C   0  0  0  0  0  0  0  0  0  0  0  0
   38.3980   31.9630   38.0640 C   0  0  0  0  0  0  0  0  0  0  0  0
   39.2710   32.7880   38.6640 N   0  0  0  0  0  0  0  0  0  0  0  0
   39.2570   32.9660   39.9990 C   0  0  0  0  0  0  0  0  0  0  0  0
   38.3420   32.2870   40.6910 N   0  0  0  0  0  0  0  0  0  0  0  0
   38.4800   31.8020   36.6320 N   0  0  0  0  0  0  0  0  0  0  0  0
   39.2000   31.3680   36.0280 H   0  0  0  0  0  0  0  0  0  0  0  0
   37.6970   32.1710   36.0300 H   0  0  0  0  0  0  0  0  0  0  0  0
   36.5930   30.4380   37.8710 C   0  0  0  0  0  0  0  0  0  0  0  0
   36.2970   31.0160   36.9710 H   0  0  0  0  0  0  0  0  0  0  0  0
   35.6380   30.2810   38.4360 H   0  0  0  0  0  0  0  0  0  0  0  0
   37.0870   29.4740   37.6040 H   0  0  0  0  0  0  0  0  0  0  0  0
   40.1070   33.7900   40.7020 O   0  0  0  0  0  0  0  0  0  0  0  0
   40.0330   35.1820   40.4430 C   0  0  0  0  0  0  0  0  0  0  0  0
   40.6920   35.5200   39.3000 F   0  0  0  0  0  0  0  0  0  0  0  0
   38.6670   35.5060   40.3630 F   0  0  0  0  0  0  0  0  0  0  0  0
   40.6320   35.8490   41.5000 F   0  0  0  0  0  0  0  0  0  0  0  0
  1  6  1  0  0  0  0
  1 10  1  0  0  0  0
  2  1  2  0  0  0  0
  3  4  2  0  0  0  0
  3  2  1  0  0  0  0
  4  5  1  0  0  0  0
  5  6  2  0  0  0  0
  6 12  1  0  0  0  0
  7  5  1  0  0  0  0
  8 13  1  6  0  0  0
  8  7  1  0  0  0  0
  9  8  1  0  0  0  0
  9  4  1  0  0  0  0
 11  3  1  0  0  0  0
 14 20  1  0  0  0  0
 14  8  1  0  0  0  0
 15 14  2  0  0  0  0
 16 18  2  0  0  0  0
 16 15  1  0  0  0  0
 17 16  1  0  0  0  0
 18 19  1  0  0  0  0
 19 20  2  0  0  0  0
 21  2  1  0  0  0  0
 22 27  1  0  0  0  0
 22 21  1  0  0  0  0
 23 22  2  0  0  0  0
 24 25  2  0  0  0  0
 24 23  1  0  0  0  0
 25 26  1  0  0  0  0
 26 27  2  0  0  0  0
 26 35  1  0  0  0  0
 28 24  1  0  0  0  0
 29 28  1  0  0  0  0
 30 28  1  0  0  0  0
 31 33  1  0  0  0  0
 31 23  1  0  0  0  0
 32 31  1  0  0  0  0
 34 31  1  0  0  0  0
 36 35  1  0  0  0  0
 36 39  1  0  0  0  0
 37 36  1  0  0  0  0
 38 36  1  0  0  0  0
M  END
>  <minimizedAffinity>
-6.41291046

$$$$

 OpenBabel03242515473D

 39 42  0  0  1  0  0  0  0  0999 V2000
   37.8870   33.5100   39.7340 C   0  0  0  0  0  0  0  0  0  0  0  0
   39.1340   33.5370   40.3700 C   0  0  0  0  0  0  0  0  0  0  0  0
   39.5460   32.4920   41.1710 C   0  0  0  0  0  0  0  0  0  0  0  0
   38.7310   31.3940   41.3590 C   0  0  0  0  0  0  0  0  0  0  0  0
   37.4970   31.3600   40.7310 C   0  0  0  0  0  0  0  0  0  0  0  0
   37.0620   32.3820   39.9330 C   0  0  0  0  0  0  0  0  0  0  0  0
   36.9110   30.1390   41.1050 O   0  0  0  0  0  0  0  0  0  0  0  0
   37.6330   29.5920   42.1380 C   0  0  2  0  0  0  0  0  0  0  0  0
   38.8950   30.2200   42.1020 O   0  0  0  0  0  0  0  0  0  0  0  0
   37.5010   34.2930   39.0950 H   0  0  0  0  0  0  0  0  0  0  0  0
   40.5210   32.5960   41.6230 H   0  0  0  0  0  0  0  0  0  0  0  0
   36.0990   32.3660   39.4380 H   0  0  0  0  0  0  0  0  0  0  0  0
   37.1520   29.7930   43.0970 H   0  0  0  0  0  0  0  0  0  0  0  0
   37.8820   28.1190   41.9740 C   0  0  0  0  0  0  0  0  0  0  0  0
   36.9200   27.2110   42.3670 C   0  0  0  0  0  3  0  0  0  0  0  0
   37.1390   25.8360   42.2200 C   0  0  0  0  0  0  0  0  0  0  0  0
   36.3790   25.1030   42.5310 H   0  0  0  0  0  0  0  0  0  0  0  0
   38.3050   25.4270   41.6870 N   0  0  0  0  0  0  0  0  0  0  0  0
   39.2400   26.3060   41.3050 C   0  0  0  0  0  3  0  0  0  0  0  0
   39.0380   27.6430   41.4430 N   0  0  0  0  0  0  0  0  0  0  0  0
   40.0710   35.0140   40.0020 S   0  0  0  0  0  0  0  0  0  0  0  0
   41.8550   34.6640   40.1590 C   0  0  0  0  0  0  0  0  0  0  0  0
   42.4640   34.1870   39.0550 C   0  0  0  0  0  0  0  0  0  0  0  0
   43.8220   33.9080   39.1990 C   0  0  0  0  0  0  0  0  0  0  0  0
   44.4630   34.1070   40.3620 N   0  0  0  0  0  0  0  0  0  0  0  0
   43.8140   34.5870   41.4420 C   0  0  0  0  0  0  0  0  0  0  0  0
   42.5160   34.8520   41.3000 N   0  0  0  0  0  0  0  0  0  0  0  0
   44.5710   33.3730   38.0870 N   0  0  0  0  0  0  0  0  0  0  0  0
   45.0000   32.4440   37.9300 H   0  0  0  0  0  0  0  0  0  0  0  0
   44.7490   33.9860   37.2480 H   0  0  0  0  0  0  0  0  0  0  0  0
   42.0220   33.8980   37.6560 C   0  0  0  0  0  0  0  0  0  0  0  0
   42.7530   34.2760   36.9120 H   0  0  0  0  0  0  0  0  0  0  0  0
   41.1120   34.5350   37.5110 H   0  0  0  0  0  0  0  0  0  0  0  0
   41.8030   32.8120   37.5100 H   0  0  0  0  0  0  0  0  0  0  0  0
   44.3830   34.8260   42.6720 O   0  0  0  0  0  0  0  0  0  0  0  0
   44.8080   33.7030   43.4260 C   0  0  0  0  0  0  0  0  0  0  0  0
   45.9490   33.1570   42.9220 F   0  0  0  0  0  0  0  0  0  0  0  0
   44.9930   34.1500   44.7460 F   0  0  0  0  0  0  0  0  0  0  0  0
   43.8090   32.7450   43.3720 F   0  0  0  0  0  0  0  0  0  0  0  0
  1  6  2  0  0  0  0
  1  2  1  0  0  0  0
  2  3  2  0  0  0  0
  3  4  1  0  0  0  0
  3 11  1  0  0  0  0
  4  9  1  0  0  0  0
  5  7  1  0  0  0  0
  5  4  2  0  0  0  0
  6  5  1  0  0  0  0
  7  8  1  0  0  0  0
  8 13  1  1  0  0  0
  9  8  1  0  0  0  0
 10  1  1  0  0  0  0
 12  6  1  0  0  0  0
 14  8  1  0  0  0  0
 14 15  1  0  0  0  0
 16 15  2  0  0  0  0
 16 17  1  0  0  0  0
 18 16  1  0  0  0  0
 19 20  1  0  0  0  0
 19 18  2  0  0  0  0
 20 14  2  0  0  0  0
 21 22  1  0  0  0  0
 21  2  1  0  0  0  0
 22 27  1  0  0  0  0
 23 24  1  0  0  0  0
 23 22  2  0  0  0  0
 24 25  2  0  0  0  0
 25 26  1  0  0  0  0
 26 35  1  0  0  0  0
 27 26  2  0  0  0  0
 28 24  1  0  0  0  0
 29 28  1  0  0  0  0
 30 28  1  0  0  0  0
 31 23  1  0  0  0  0
 32 31  1  0  0  0  0
 33 31  1  0  0  0  0
 34 31  1  0  0  0  0
 35 36  1  0  0  0  0
 36 38  1  0  0  0  0
 37 36  1  0  0  0  0
 39 36  1  0  0  0  0
M  END
>  <minimizedAffinity>
-6.30754852

$$$$
