
 OpenBabel03252506593D

 22 23  0  0  0  0  0  0  0  0999 V2000
   36.7540   27.4940   42.7880 C   0  0  0  0  0  0  0  0  0  0  0  0
   35.9580   27.2430   43.5470 H   0  0  0  0  0  0  0  0  0  0  0  0
   36.3370   27.9320   41.8870 H   0  0  0  0  0  0  0  0  0  0  0  0
   37.5170   26.2680   42.5780 C   0  0  0  0  0  0  0  0  0  0  0  0
   37.0230   25.1350   41.9530 C   0  0  0  0  0  0  0  0  0  0  0  0
   37.9120   24.0350   41.8240 C   0  0  0  0  0  0  0  0  0  0  0  0
   39.1830   24.1650   42.3180 N   0  0  0  0  0  0  0  0  0  0  0  0
   39.5960   25.2930   42.9130 C   0  0  0  0  0  0  0  0  0  0  0  0
   38.7600   26.3260   43.0350 N   0  0  0  0  0  0  0  0  0  0  0  0
   36.0240   25.1290   41.6030 H   0  0  0  0  0  0  0  0  0  0  0  0
   37.5420   23.1370   41.3350 H   0  0  0  0  0  0  0  0  0  0  0  0
   40.6240   25.2910   43.2700 H   0  0  0  0  0  0  0  0  0  0  0  0
   37.6900   28.5400   43.3640 C   0  0  0  0  0  0  0  0  0  0  0  0
   37.2890   28.9700   44.3040 H   0  0  0  0  0  0  0  0  0  0  0  0
   38.6860   28.1190   43.5940 H   0  0  0  0  0  0  0  0  0  0  0  0
   37.7560   29.6620   42.3910 C   0  0  0  0  0  0  0  0  0  0  0  0
   38.9180   30.3690   42.1480 C   0  0  0  0  0  3  0  0  0  0  0  0
   38.9540   31.4040   41.2430 C   0  0  0  0  0  0  0  0  0  0  0  0
   39.8910   31.9480   41.0690 H   0  0  0  0  0  0  0  0  0  0  0  0
   37.8570   31.7690   40.5600 N   0  0  0  0  0  0  0  0  0  0  0  0
   36.7290   31.0880   40.7940 C   0  0  0  0  0  3  0  0  0  0  0  0
   36.6690   30.0590   41.6840 N   0  0  0  0  0  0  0  0  0  0  0  0
  1 13  1  0  0  0  0
  1  2  1  0  0  0  0
  3  1  1  0  0  0  0
  4  1  1  0  0  0  0
  4  9  1  0  0  0  0
  5  4  2  0  0  0  0
  6  5  1  0  0  0  0
  6  7  2  0  0  0  0
  7  8  1  0  0  0  0
  8  9  2  0  0  0  0
  8 12  1  0  0  0  0
 10  5  1  0  0  0  0
 11  6  1  0  0  0  0
 13 15  1  0  0  0  0
 13 14  1  0  0  0  0
 16 13  1  0  0  0  0
 17 16  1  0  0  0  0
 18 17  2  0  0  0  0
 19 18  1  0  0  0  0
 20 21  2  0  0  0  0
 20 18  1  0  0  0  0
 21 22  1  0  0  0  0
 22 16  2  0  0  0  0
M  END
>  <minimizedAffinity>
-4.20922565

$$$$

 OpenBabel03252506593D

 22 23  0  0  0  0  0  0  0  0999 V2000
   37.6290   28.2910   43.6340 C   0  0  0  0  0  0  0  0  0  0  0  0
   37.0920   28.7460   44.5160 H   0  0  0  0  0  0  0  0  0  0  0  0
   38.4910   27.7050   43.9380 H   0  0  0  0  0  0  0  0  0  0  0  0
   37.9250   29.3920   42.7250 C   0  0  0  0  0  0  0  0  0  0  0  0
   39.1470   30.0410   42.6520 C   0  0  0  0  0  0  0  0  0  0  0  0
   39.2610   31.0860   41.6970 C   0  0  0  0  0  0  0  0  0  0  0  0
   38.1720   31.3800   40.9210 N   0  0  0  0  0  0  0  0  0  0  0  0
   37.0170   30.7100   41.0440 C   0  0  0  0  0  0  0  0  0  0  0  0
   36.9100   29.7280   41.9420 N   0  0  0  0  0  0  0  0  0  0  0  0
   39.9320   29.7430   43.2960 H   0  0  0  0  0  0  0  0  0  0  0  0
   40.2130   31.6070   41.6250 H   0  0  0  0  0  0  0  0  0  0  0  0
   36.2140   31.0230   40.3800 H   0  0  0  0  0  0  0  0  0  0  0  0
   36.7010   27.3260   42.9210 C   0  0  0  0  0  0  0  0  0  0  0  0
   35.9080   26.9480   43.5990 H   0  0  0  0  0  0  0  0  0  0  0  0
   36.1960   27.8010   42.0600 H   0  0  0  0  0  0  0  0  0  0  0  0
   37.5070   26.1400   42.5270 C   0  0  0  0  0  0  0  0  0  0  0  0
   36.9700   25.0690   41.8390 C   0  0  0  0  0  3  0  0  0  0  0  0
   37.7370   23.9840   41.4860 C   0  0  0  0  0  0  0  0  0  0  0  0
   37.2840   23.1480   40.9390 H   0  0  0  0  0  0  0  0  0  0  0  0
   39.0410   23.9220   41.7990 N   0  0  0  0  0  0  0  0  0  0  0  0
   39.5650   24.9570   42.4660 C   0  0  0  0  0  3  0  0  0  0  0  0
   38.8270   26.0440   42.8260 N   0  0  0  0  0  0  0  0  0  0  0  0
  1  3  1  0  0  0  0
  1  2  1  0  0  0  0
  4  1  1  0  0  0  0
  5  4  1  0  0  0  0
  5 10  1  0  0  0  0
  6  5  2  0  0  0  0
  7  8  2  0  0  0  0
  7  6  1  0  0  0  0
  8  9  1  0  0  0  0
  9  4  2  0  0  0  0
 11  6  1  0  0  0  0
 12  8  1  0  0  0  0
 13 14  1  0  0  0  0
 13  1  1  0  0  0  0
 15 13  1  0  0  0  0
 16 22  1  0  0  0  0
 16 13  1  0  0  0  0
 17 16  2  0  0  0  0
 18 20  2  0  0  0  0
 18 17  1  0  0  0  0
 19 18  1  0  0  0  0
 20 21  1  0  0  0  0
 21 22  2  0  0  0  0
M  END
>  <minimizedAffinity>
-4.20541716

$$$$

 OpenBabel03252506593D

 22 23  0  0  0  0  0  0  0  0999 V2000
   38.9910   29.3340   42.7000 C   0  0  0  0  0  0  0  0  0  0  0  0
   39.5230   30.0370   43.4040 H   0  0  0  0  0  0  0  0  0  0  0  0
   39.6800   28.6710   42.1850 H   0  0  0  0  0  0  0  0  0  0  0  0
   38.1760   30.1710   41.8260 C   0  0  0  0  0  0  0  0  0  0  0  0
   36.8640   29.8940   41.4770 C   0  0  0  0  0  0  0  0  0  0  0  0
   36.2180   30.8280   40.6230 C   0  0  0  0  0  0  0  0  0  0  0  0
   36.9240   31.9250   40.2070 N   0  0  0  0  0  0  0  0  0  0  0  0
   38.1940   32.1310   40.5840 C   0  0  0  0  0  0  0  0  0  0  0  0
   38.8010   31.2530   41.3860 N   0  0  0  0  0  0  0  0  0  0  0  0
   36.4020   29.0180   41.8490 H   0  0  0  0  0  0  0  0  0  0  0  0
   35.1880   30.6280   40.3380 H   0  0  0  0  0  0  0  0  0  0  0  0
   38.6630   33.0330   40.1970 H   0  0  0  0  0  0  0  0  0  0  0  0
   38.0610   28.4340   43.4920 C   0  0  0  0  0  0  0  0  0  0  0  0
   38.1960   28.5700   44.5840 H   0  0  0  0  0  0  0  0  0  0  0  0
   36.9990   28.6380   43.2650 H   0  0  0  0  0  0  0  0  0  0  0  0
   38.4470   27.0280   43.2010 C   0  0  0  0  0  0  0  0  0  0  0  0
   39.6170   26.4640   43.6740 C   0  0  0  0  0  3  0  0  0  0  0  0
   39.9520   25.1600   43.3920 C   0  0  0  0  0  0  0  0  0  0  0  0
   40.8860   24.7380   43.7810 H   0  0  0  0  0  0  0  0  0  0  0  0
   39.1540   24.3840   42.6420 N   0  0  0  0  0  0  0  0  0  0  0  0
   38.0210   24.9260   42.1810 C   0  0  0  0  0  3  0  0  0  0  0  0
   37.6670   26.2140   42.4480 N   0  0  0  0  0  0  0  0  0  0  0  0
  1  2  1  0  0  0  0
  1 13  1  0  0  0  0
  3  1  1  0  0  0  0
  4  1  1  0  0  0  0
  5  4  1  0  0  0  0
  5 10  1  0  0  0  0
  6  5  2  0  0  0  0
  7  8  2  0  0  0  0
  7  6  1  0  0  0  0
  8  9  1  0  0  0  0
  9  4  2  0  0  0  0
 11  6  1  0  0  0  0
 12  8  1  0  0  0  0
 13 14  1  0  0  0  0
 15 13  1  0  0  0  0
 16 13  1  0  0  0  0
 16 17  1  0  0  0  0
 18 17  2  0  0  0  0
 18 19  1  0  0  0  0
 20 18  1  0  0  0  0
 21 22  1  0  0  0  0
 21 20  2  0  0  0  0
 22 16  2  0  0  0  0
M  END
>  <minimizedAffinity>
-4.14665174

$$$$

 OpenBabel03252506593D

 22 23  0  0  0  0  0  0  0  0999 V2000
   37.1000   27.6080   42.7690 C   0  0  0  0  0  0  0  0  0  0  0  0
   36.2490   27.3040   43.4450 H   0  0  0  0  0  0  0  0  0  0  0  0
   36.7720   27.7800   41.7490 H   0  0  0  0  0  0  0  0  0  0  0  0
   38.1260   26.5820   42.9190 C   0  0  0  0  0  0  0  0  0  0  0  0
   39.3040   26.7500   43.6290 C   0  0  0  0  0  0  0  0  0  0  0  0
   40.1850   25.6370   43.6800 C   0  0  0  0  0  0  0  0  0  0  0  0
   39.8170   24.4860   43.0340 N   0  0  0  0  0  0  0  0  0  0  0  0
   38.6590   24.3930   42.3650 C   0  0  0  0  0  0  0  0  0  0  0  0
   37.8330   25.4390   42.3170 N   0  0  0  0  0  0  0  0  0  0  0  0
   39.5020   27.6790   44.0940 H   0  0  0  0  0  0  0  0  0  0  0  0
   41.1150   25.7490   44.2320 H   0  0  0  0  0  0  0  0  0  0  0  0
   38.4640   23.4340   41.8880 H   0  0  0  0  0  0  0  0  0  0  0  0
   37.6790   28.9270   43.2480 C   0  0  0  0  0  0  0  0  0  0  0  0
   37.0620   29.3720   44.0550 H   0  0  0  0  0  0  0  0  0  0  0  0
   38.7030   28.8060   43.6470 H   0  0  0  0  0  0  0  0  0  0  0  0
   37.6180   29.8790   42.1080 C   0  0  0  0  0  0  0  0  0  0  0  0
   36.4740   30.0700   41.3570 C   0  0  0  0  0  3  0  0  0  0  0  0
   36.4430   30.9580   40.3080 C   0  0  0  0  0  0  0  0  0  0  0  0
   35.5210   31.0910   39.7290 H   0  0  0  0  0  0  0  0  0  0  0  0
   37.5270   31.6750   39.9700 N   0  0  0  0  0  0  0  0  0  0  0  0
   38.6380   31.4920   40.6940 C   0  0  0  0  0  3  0  0  0  0  0  0
   38.6930   30.6200   41.7390 N   0  0  0  0  0  0  0  0  0  0  0  0
  1  4  1  0  0  0  0
  1 13  1  0  0  0  0
  1  2  1  0  0  0  0
  3  1  1  0  0  0  0
  4  5  1  0  0  0  0
  5  6  2  0  0  0  0
  5 10  1  0  0  0  0
  6 11  1  0  0  0  0
  7  6  1  0  0  0  0
  8  7  2  0  0  0  0
  9  8  1  0  0  0  0
  9  4  2  0  0  0  0
 12  8  1  0  0  0  0
 13 15  1  0  0  0  0
 13 14  1  0  0  0  0
 16 13  1  0  0  0  0
 17 16  2  0  0  0  0
 18 17  1  0  0  0  0
 19 18  1  0  0  0  0
 20 18  2  0  0  0  0
 20 21  1  0  0  0  0
 21 22  2  0  0  0  0
 22 16  1  0  0  0  0
M  END
>  <minimizedAffinity>
-4.14176798

$$$$

 OpenBabel03252506593D

 22 23  0  0  0  0  0  0  0  0999 V2000
   36.2230   27.8390   40.2020 C   0  0  0  0  0  0  0  0  0  0  0  0
   35.5600   26.9260   40.2130 H   0  0  0  0  0  0  0  0  0  0  0  0
   36.7330   27.9630   39.2520 H   0  0  0  0  0  0  0  0  0  0  0  0
   37.1020   27.7180   41.3600 C   0  0  0  0  0  0  0  0  0  0  0  0
   36.6750   27.7720   42.6770 C   0  0  0  0  0  0  0  0  0  0  0  0
   37.6710   27.6230   43.6790 C   0  0  0  0  0  0  0  0  0  0  0  0
   38.9690   27.4370   43.2840 N   0  0  0  0  0  0  0  0  0  0  0  0
   39.3120   27.3950   41.9890 C   0  0  0  0  0  0  0  0  0  0  0  0
   38.3770   27.5360   41.0470 N   0  0  0  0  0  0  0  0  0  0  0  0
   35.6480   27.9210   42.8840 H   0  0  0  0  0  0  0  0  0  0  0  0
   37.3550   27.6630   44.7190 H   0  0  0  0  0  0  0  0  0  0  0  0
   40.3700   27.2430   41.7840 H   0  0  0  0  0  0  0  0  0  0  0  0
   35.3720   29.0820   40.3830 C   0  0  0  0  0  0  0  0  0  0  0  0
   34.4550   29.0410   39.7620 H   0  0  0  0  0  0  0  0  0  0  0  0
   35.0520   29.2120   41.4330 H   0  0  0  0  0  0  0  0  0  0  0  0
   36.1600   30.2380   39.8800 C   0  0  0  0  0  0  0  0  0  0  0  0
   36.5770   31.2690   40.7010 C   0  0  0  0  0  3  0  0  0  0  0  0
   37.3050   32.3280   40.2120 C   0  0  0  0  0  0  0  0  0  0  0  0
   37.6230   33.1320   40.8860 H   0  0  0  0  0  0  0  0  0  0  0  0
   37.6400   32.4020   38.9140 N   0  0  0  0  0  0  0  0  0  0  0  0
   37.2380   31.4060   38.1150 C   0  0  0  0  0  3  0  0  0  0  0  0
   36.5160   30.3460   38.5770 N   0  0  0  0  0  0  0  0  0  0  0  0
  1  2  1  0  0  0  0
  1 13  1  0  0  0  0
  1  4  1  0  0  0  0
  3  1  1  0  0  0  0
  4  5  1  0  0  0  0
  5 10  1  0  0  0  0
  5  6  2  0  0  0  0
  6 11  1  0  0  0  0
  7  6  1  0  0  0  0
  8  7  2  0  0  0  0
  9  4  2  0  0  0  0
  9  8  1  0  0  0  0
 12  8  1  0  0  0  0
 13 15  1  0  0  0  0
 14 13  1  0  0  0  0
 16 13  1  0  0  0  0
 16 17  1  0  0  0  0
 18 17  2  0  0  0  0
 18 19  1  0  0  0  0
 20 18  1  0  0  0  0
 21 22  1  0  0  0  0
 21 20  2  0  0  0  0
 22 16  2  0  0  0  0
M  END
>  <minimizedAffinity>
-4.00044394

$$$$

 OpenBabel03252506593D

 22 23  0  0  0  0  0  0  0  0999 V2000
   36.9290   30.8690   39.5150 C   0  0  0  0  0  0  0  0  0  0  0  0
   37.5220   29.9290   39.3210 H   0  0  0  0  0  0  0  0  0  0  0  0
   36.1280   31.0050   38.7950 H   0  0  0  0  0  0  0  0  0  0  0  0
   37.8980   31.9590   39.5660 C   0  0  0  0  0  0  0  0  0  0  0  0
   37.6330   33.2200   40.0760 C   0  0  0  0  0  0  0  0  0  0  0  0
   38.7010   34.1550   40.0570 C   0  0  0  0  0  0  0  0  0  0  0  0
   39.9070   33.7560   39.5450 N   0  0  0  0  0  0  0  0  0  0  0  0
   40.0940   32.5170   39.0670 C   0  0  0  0  0  0  0  0  0  0  0  0
   39.0900   31.6390   39.0840 N   0  0  0  0  0  0  0  0  0  0  0  0
   36.6670   33.4350   40.4510 H   0  0  0  0  0  0  0  0  0  0  0  0
   38.5120   35.1510   40.4540 H   0  0  0  0  0  0  0  0  0  0  0  0
   41.0890   32.3040   38.6830 H   0  0  0  0  0  0  0  0  0  0  0  0
   36.2570   30.7720   40.8720 C   0  0  0  0  0  0  0  0  0  0  0  0
   36.4860   31.6540   41.5030 H   0  0  0  0  0  0  0  0  0  0  0  0
   35.1570   30.7100   40.7820 H   0  0  0  0  0  0  0  0  0  0  0  0
   36.8400   29.5980   41.5740 C   0  0  0  0  0  0  0  0  0  0  0  0
   37.9270   29.7020   42.4210 C   0  0  0  0  0  3  0  0  0  0  0  0
   38.4480   28.6020   43.0600 C   0  0  0  0  0  0  0  0  0  0  0  0
   39.3120   28.7140   43.7270 H   0  0  0  0  0  0  0  0  0  0  0  0
   37.9200   27.3800   42.8850 N   0  0  0  0  0  0  0  0  0  0  0  0
   36.8670   27.2750   42.0650 C   0  0  0  0  0  3  0  0  0  0  0  0
   36.3320   28.3500   41.4220 N   0  0  0  0  0  0  0  0  0  0  0  0
  1  4  1  0  0  0  0
  1 13  1  0  0  0  0
  2  1  1  0  0  0  0
  3  1  1  0  0  0  0
  4  5  1  0  0  0  0
  5 10  1  0  0  0  0
  6  5  2  0  0  0  0
  6 11  1  0  0  0  0
  7  6  1  0  0  0  0
  8  9  1  0  0  0  0
  8  7  2  0  0  0  0
  9  4  2  0  0  0  0
 12  8  1  0  0  0  0
 13 14  1  0  0  0  0
 13 16  1  0  0  0  0
 15 13  1  0  0  0  0
 16 17  1  0  0  0  0
 17 18  2  0  0  0  0
 18 19  1  0  0  0  0
 20 18  1  0  0  0  0
 21 20  2  0  0  0  0
 22 16  2  0  0  0  0
 22 21  1  0  0  0  0
M  END
>  <minimizedAffinity>
-3.97425675

$$$$

 OpenBabel03252506593D

 22 23  0  0  0  0  0  0  0  0999 V2000
   36.1820   30.7800   41.0240 C   0  0  0  0  0  0  0  0  0  0  0  0
   35.2890   31.4680   40.9590 H   0  0  0  0  0  0  0  0  0  0  0  0
   36.6610   30.8230   41.9970 H   0  0  0  0  0  0  0  0  0  0  0  0
   37.0450   31.1250   39.8990 C   0  0  0  0  0  0  0  0  0  0  0  0
   36.7680   30.8170   38.5770 C   0  0  0  0  0  0  0  0  0  0  0  0
   37.7160   31.2410   37.6090 C   0  0  0  0  0  0  0  0  0  0  0  0
   38.8260   31.9190   38.0390 N   0  0  0  0  0  0  0  0  0  0  0  0
   39.0310   32.1840   39.3370 C   0  0  0  0  0  0  0  0  0  0  0  0
   38.1400   31.7840   40.2460 N   0  0  0  0  0  0  0  0  0  0  0  0
   35.8820   30.2870   38.3410 H   0  0  0  0  0  0  0  0  0  0  0  0
   37.5170   31.0090   36.5650 H   0  0  0  0  0  0  0  0  0  0  0  0
   39.9440   32.7280   39.5710 H   0  0  0  0  0  0  0  0  0  0  0  0
   35.7270   29.3440   40.8470 C   0  0  0  0  0  0  0  0  0  0  0  0
   34.7120   29.1840   41.2650 H   0  0  0  0  0  0  0  0  0  0  0  0
   35.6920   29.0510   39.7810 H   0  0  0  0  0  0  0  0  0  0  0  0
   36.6420   28.4850   41.6450 C   0  0  0  0  0  0  0  0  0  0  0  0
   36.8990   27.1670   41.3190 C   0  0  0  0  0  3  0  0  0  0  0  0
   37.7500   26.3930   42.0720 C   0  0  0  0  0  0  0  0  0  0  0  0
   37.9360   25.3500   41.7900 H   0  0  0  0  0  0  0  0  0  0  0  0
   38.3640   26.8890   43.1580 N   0  0  0  0  0  0  0  0  0  0  0  0
   38.1170   28.1650   43.4780 C   0  0  0  0  0  3  0  0  0  0  0  0
   37.2790   28.9520   42.7460 N   0  0  0  0  0  0  0  0  0  0  0  0
  1  3  1  0  0  0  0
  2  1  1  0  0  0  0
  4  9  1  0  0  0  0
  4  1  1  0  0  0  0
  5  4  2  0  0  0  0
  6  7  2  0  0  0  0
  6  5  1  0  0  0  0
  7  8  1  0  0  0  0
  8 12  1  0  0  0  0
  8  9  2  0  0  0  0
 10  5  1  0  0  0  0
 11  6  1  0  0  0  0
 13  1  1  0  0  0  0
 13 14  1  0  0  0  0
 13 16  1  0  0  0  0
 15 13  1  0  0  0  0
 16 22  1  0  0  0  0
 17 16  2  0  0  0  0
 17 18  1  0  0  0  0
 18 20  2  0  0  0  0
 19 18  1  0  0  0  0
 20 21  1  0  0  0  0
 22 21  2  0  0  0  0
M  END
>  <minimizedAffinity>
-3.93451715

$$$$

 OpenBabel03252506593D

 22 23  0  0  0  0  0  0  0  0999 V2000
   39.9740   30.8990   41.1740 C   0  0  0  0  0  0  0  0  0  0  0  0
   40.9980   31.3640   41.0830 H   0  0  0  0  0  0  0  0  0  0  0  0
   39.9390   29.9000   40.7480 H   0  0  0  0  0  0  0  0  0  0  0  0
   39.0400   31.8510   40.5830 C   0  0  0  0  0  0  0  0  0  0  0  0
   37.9530   31.4980   39.7990 C   0  0  0  0  0  0  0  0  0  0  0  0
   37.1410   32.5580   39.3160 C   0  0  0  0  0  0  0  0  0  0  0  0
   37.4790   33.8420   39.6540 N   0  0  0  0  0  0  0  0  0  0  0  0
   38.5470   34.1120   40.4180 C   0  0  0  0  0  0  0  0  0  0  0  0
   39.3100   33.1150   40.8710 N   0  0  0  0  0  0  0  0  0  0  0  0
   37.7730   30.4760   39.5910 H   0  0  0  0  0  0  0  0  0  0  0  0
   36.2830   32.3010   38.6990 H   0  0  0  0  0  0  0  0  0  0  0  0
   38.7260   35.1650   40.6260 H   0  0  0  0  0  0  0  0  0  0  0  0
   39.6200   30.7380   42.6400 C   0  0  0  0  0  0  0  0  0  0  0  0
   40.5290   30.7000   43.2760 H   0  0  0  0  0  0  0  0  0  0  0  0
   38.9990   31.5750   43.0080 H   0  0  0  0  0  0  0  0  0  0  0  0
   38.9520   29.4200   42.7960 C   0  0  0  0  0  0  0  0  0  0  0  0
   39.6550   28.2490   43.0050 C   0  0  0  0  0  3  0  0  0  0  0  0
   39.0140   27.0400   43.1470 C   0  0  0  0  0  0  0  0  0  0  0  0
   39.5970   26.1260   43.3130 H   0  0  0  0  0  0  0  0  0  0  0  0
   37.6760   26.9510   43.0860 N   0  0  0  0  0  0  0  0  0  0  0  0
   36.9910   28.0830   42.8820 C   0  0  0  0  0  3  0  0  0  0  0  0
   37.6030   29.2920   42.7400 N   0  0  0  0  0  0  0  0  0  0  0  0
  1 13  1  0  0  0  0
  2  1  1  0  0  0  0
  3  1  1  0  0  0  0
  4  9  1  0  0  0  0
  4  1  1  0  0  0  0
  5  4  2  0  0  0  0
  6  7  2  0  0  0  0
  6  5  1  0  0  0  0
  7  8  1  0  0  0  0
  8 12  1  0  0  0  0
  8  9  2  0  0  0  0
 10  5  1  0  0  0  0
 11  6  1  0  0  0  0
 13 16  1  0  0  0  0
 13 15  1  0  0  0  0
 13 14  1  0  0  0  0
 16 17  1  0  0  0  0
 17 18  2  0  0  0  0
 18 19  1  0  0  0  0
 20 18  1  0  0  0  0
 21 20  2  0  0  0  0
 22 16  2  0  0  0  0
 22 21  1  0  0  0  0
M  END
>  <minimizedAffinity>
-3.92124701

$$$$

 OpenBabel03252506593D

 22 23  0  0  0  0  0  0  0  0999 V2000
   36.1740   30.2020   39.7910 C   0  0  0  0  0  0  0  0  0  0  0  0
   35.6380   31.1860   39.9220 H   0  0  0  0  0  0  0  0  0  0  0  0
   37.2170   30.2610   40.0850 H   0  0  0  0  0  0  0  0  0  0  0  0
   35.9480   29.7960   38.4080 C   0  0  0  0  0  0  0  0  0  0  0  0
   34.8570   29.0580   37.9770 C   0  0  0  0  0  0  0  0  0  0  0  0
   34.7920   28.7620   36.5890 C   0  0  0  0  0  0  0  0  0  0  0  0
   35.7970   29.2210   35.7790 N   0  0  0  0  0  0  0  0  0  0  0  0
   36.8260   29.9310   36.2650 C   0  0  0  0  0  0  0  0  0  0  0  0
   36.8860   30.2070   37.5690 N   0  0  0  0  0  0  0  0  0  0  0  0
   34.1300   28.7470   38.6800 H   0  0  0  0  0  0  0  0  0  0  0  0
   33.9430   28.1840   36.2310 H   0  0  0  0  0  0  0  0  0  0  0  0
   37.5700   30.2460   35.5360 H   0  0  0  0  0  0  0  0  0  0  0  0
   35.5450   29.1600   40.6970 C   0  0  0  0  0  0  0  0  0  0  0  0
   34.7320   29.5950   41.3140 H   0  0  0  0  0  0  0  0  0  0  0  0
   35.1080   28.3240   40.1220 H   0  0  0  0  0  0  0  0  0  0  0  0
   36.5920   28.7100   41.6530 C   0  0  0  0  0  0  0  0  0  0  0  0
   36.8030   27.3780   41.9530 C   0  0  0  0  0  3  0  0  0  0  0  0
   37.7780   26.9870   42.8400 C   0  0  0  0  0  0  0  0  0  0  0  0
   37.9250   25.9220   43.0590 H   0  0  0  0  0  0  0  0  0  0  0  0
   38.5640   27.8880   43.4520 N   0  0  0  0  0  0  0  0  0  0  0  0
   38.3620   29.1790   43.1650 C   0  0  0  0  0  3  0  0  0  0  0  0
   37.4030   29.5910   42.2890 N   0  0  0  0  0  0  0  0  0  0  0  0
  1  2  1  0  0  0  0
  1  3  1  0  0  0  0
  1 13  1  0  0  0  0
  4  1  1  0  0  0  0
  5  4  1  0  0  0  0
  5 10  1  0  0  0  0
  6  5  2  0  0  0  0
  7  8  2  0  0  0  0
  7  6  1  0  0  0  0
  8  9  1  0  0  0  0
  9  4  2  0  0  0  0
 11  6  1  0  0  0  0
 12  8  1  0  0  0  0
 13 14  1  0  0  0  0
 13 16  1  0  0  0  0
 15 13  1  0  0  0  0
 16 17  2  0  0  0  0
 16 22  1  0  0  0  0
 17 18  1  0  0  0  0
 18 19  1  0  0  0  0
 18 20  2  0  0  0  0
 21 20  1  0  0  0  0
 22 21  2  0  0  0  0
M  END
>  <minimizedAffinity>
-3.79493189

$$$$
