
 OpenBabel03252506493D

 27 29  0  0  0  0  0  0  0  0999 V2000
   48.2490   33.9360   40.5910 C   0  0  0  0  0  0  0  0  0  0  0  0
   49.2590   33.0750   41.0220 C   0  0  0  0  0  0  0  0  0  0  0  0
   49.2840   32.7090   42.3770 C   0  0  0  0  0  0  0  0  0  0  0  0
   48.3290   33.2070   43.1970 N   0  0  0  0  0  0  0  0  0  0  0  0
   47.3650   34.0410   42.7440 C   0  0  0  0  0  0  0  0  0  0  0  0
   47.3120   34.4140   41.4420 N   0  0  0  0  0  0  0  0  0  0  0  0
   50.0170   32.6810   40.3600 H   0  0  0  0  0  0  0  0  0  0  0  0
   50.0760   32.0390   42.6930 H   0  0  0  0  0  0  0  0  0  0  0  0
   46.3610   34.5470   43.6720 C   0  0  0  0  0  0  0  0  0  0  0  0
   45.5930   35.6330   43.3470 C   0  0  0  0  0  3  0  0  0  0  0  0
   44.6440   36.0770   44.2750 C   0  0  0  0  0  0  0  0  0  0  0  0
   44.0360   36.9350   44.0190 H   0  0  0  0  0  0  0  0  0  0  0  0
   44.4840   35.4480   45.4730 N   0  0  0  0  0  0  0  0  0  0  0  0
   45.2750   34.3850   45.7250 C   0  0  0  0  0  3  0  0  0  0  0  0
   46.2150   33.9060   44.8630 N   0  0  0  0  0  0  0  0  0  0  0  0
   48.2870   34.3540   38.8540 S   0  0  0  0  0  0  0  0  0  0  0  0
   50.1500   32.1060   37.5450 Cl  0  0  0  0  0  0  0  0  0  0  0  0
   48.4190   32.0530   37.2120 C   0  0  0  0  0  0  0  0  0  0  0  0
   47.7020   33.0480   37.8100 C   0  0  0  0  0  0  0  0  0  0  0  0
   46.3190   33.0630   37.5870 C   0  0  0  0  0  0  0  0  0  0  0  0
   45.7510   32.0830   36.7820 C   0  0  0  0  0  0  0  0  0  0  0  0
   46.4800   31.0840   36.1820 C   0  0  0  0  0  0  0  0  0  0  0  0
   47.8550   31.0890   36.4180 C   0  0  0  0  0  0  0  0  0  0  0  0
   48.8980   29.8690   35.7130 Cl  0  0  0  0  0  0  0  0  0  0  0  0
   45.6570   33.8050   38.0110 H   0  0  0  0  0  0  0  0  0  0  0  0
   44.6760   32.0800   36.5960 H   0  0  0  0  0  0  0  0  0  0  0  0
   46.0250   30.3270   35.5580 H   0  0  0  0  0  0  0  0  0  0  0  0
  1  2  2  0  0  0  0
  1  6  1  0  0  0  0
  2  3  1  0  0  0  0
  3  8  1  0  0  0  0
  3  4  2  0  0  0  0
  5  4  1  0  0  0  0
  5  9  1  0  0  0  0
  6  5  2  0  0  0  0
  7  2  1  0  0  0  0
  9 15  1  0  0  0  0
 10  9  2  0  0  0  0
 10 11  1  0  0  0  0
 11 13  2  0  0  0  0
 12 11  1  0  0  0  0
 13 14  1  0  0  0  0
 15 14  2  0  0  0  0
 16  1  1  0  0  0  0
 18 17  1  0  0  0  0
 18 19  1  0  0  0  0
 19 16  1  0  0  0  0
 20 19  2  0  0  0  0
 20 25  1  0  0  0  0
 21 20  1  0  0  0  0
 22 23  1  0  0  0  0
 22 21  2  0  0  0  0
 23 18  2  0  0  0  0
 24 23  1  0  0  0  0
 26 21  1  0  0  0  0
 27 22  1  0  0  0  0
M  END
>  <minimizedAffinity>
-4.54706907

>  <minimizedRMSD>
6.29698992

$$$$
