
 OpenBabel03252507213D

 42 45  0  0  1  0  0  0  0  0999 V2000
   39.0370   29.1870   40.4170 C   0  0  0  0  0  0  0  0  0  0  0  0
   39.6090   28.7000   39.4040 O   0  0  0  0  0  0  0  0  0  0  0  0
   38.5450   28.4100   41.5260 N   0  0  0  0  0  0  0  0  0  0  0  0
   38.6510   28.6340   42.9620 C   0  0  0  0  0  0  0  0  0  0  0  0
   37.2470   28.5370   43.5770 C   0  0  0  0  0  0  0  0  0  0  0  0
   36.7120   27.1340   43.3940 C   0  0  0  0  0  0  0  0  0  0  0  0
   37.5570   26.3890   42.4000 C   0  0  0  0  0  0  0  0  0  0  0  0
   37.8250   27.2100   41.1640 C   0  0  2  0  0  0  0  0  0  0  0  0
   39.3540   27.9740   43.4620 H   0  0  0  0  0  0  0  0  0  0  0  0
   38.8900   29.7350   43.0610 H   0  0  0  0  0  0  0  0  0  0  0  0
   36.5740   29.2030   42.9970 H   0  0  0  0  0  0  0  0  0  0  0  0
   37.2870   28.8560   44.6310 H   0  0  0  0  0  0  0  0  0  0  0  0
   35.6510   27.1090   43.1060 H   0  0  0  0  0  0  0  0  0  0  0  0
   36.8340   26.6330   44.3800 H   0  0  0  0  0  0  0  0  0  0  0  0
   38.5410   26.1180   42.8680 H   0  0  0  0  0  0  0  0  0  0  0  0
   37.0220   25.4760   42.0830 H   0  0  0  0  0  0  0  0  0  0  0  0
   36.8400   27.5270   40.7690 H   0  0  0  0  0  0  0  0  0  0  0  0
   39.9370   31.4050   40.9460 C   0  0  0  0  0  0  0  0  0  0  0  0
   38.8650   30.6200   40.4640 C   0  0  0  0  0  0  0  0  0  0  0  0
   37.7040   31.2410   40.0600 C   0  0  0  0  0  0  0  0  0  0  0  0
   37.6330   32.5880   40.1400 N   0  0  0  0  0  0  0  0  0  0  0  0
   38.6540   33.3530   40.6010 C   0  0  0  0  0  0  0  0  0  0  0  0
   39.7910   32.7430   40.9970 N   0  0  0  0  0  0  0  0  0  0  0  0
   40.8440   30.8840   41.2600 H   0  0  0  0  0  0  0  0  0  0  0  0
   38.5960   34.4310   40.6650 H   0  0  0  0  0  0  0  0  0  0  0  0
   36.6120   30.4260   39.5700 C   0  0  0  0  0  0  0  0  0  0  0  0
   35.6430   29.9980   40.4290 C   0  0  0  0  0  0  0  0  0  0  0  0
   34.6100   29.2230   39.9420 C   0  0  0  0  0  0  0  0  0  0  0  0
   34.5090   28.8550   38.6090 C   0  0  0  0  0  0  0  0  0  0  0  0
   35.5260   29.3200   37.7790 C   0  0  0  0  0  0  0  0  0  0  0  0
   36.5170   30.0730   38.2870 N   0  0  0  0  0  0  0  0  0  0  0  0
   35.5940   30.2030   41.4870 H   0  0  0  0  0  0  0  0  0  0  0  0
   33.8160   28.8570   40.5820 H   0  0  0  0  0  0  0  0  0  0  0  0
   33.6970   28.2450   38.2250 H   0  0  0  0  0  0  0  0  0  0  0  0
   35.5320   29.0840   36.7240 H   0  0  0  0  0  0  0  0  0  0  0  0
   38.4890   26.3980   40.1210 C   0  0  0  0  0  0  0  0  0  0  0  0
   38.0200   26.1680   38.8490 C   0  0  0  0  0  3  0  0  0  0  0  0
   38.6700   25.4070   37.9100 C   0  0  0  0  0  0  0  0  0  0  0  0
   38.2810   25.2460   36.9270 H   0  0  0  0  0  0  0  0  0  0  0  0
   39.8440   24.8360   38.2310 N   0  0  0  0  0  0  0  0  0  0  0  0
   40.3380   25.0410   39.4770 C   0  0  0  0  0  3  0  0  0  0  0  0
   39.6820   25.7880   40.3720 N   0  0  0  0  0  0  0  0  0  0  0  0
  1 19  1  0  0  0  0
  1  3  1  0  0  0  0
  2  1  2  0  0  0  0
  3  4  1  0  0  0  0
  4 10  1  0  0  0  0
  4  9  1  0  0  0  0
  4  5  1  0  0  0  0
  5 12  1  0  0  0  0
  6  5  1  0  0  0  0
  6 14  1  0  0  0  0
  7 15  1  0  0  0  0
  7  6  1  0  0  0  0
  8 17  1  6  0  0  0
  8  3  1  0  0  0  0
  8  7  1  0  0  0  0
 11  5  1  0  0  0  0
 13  6  1  0  0  0  0
 16  7  1  0  0  0  0
 18 23  1  0  0  0  0
 18 24  1  0  0  0  0
 19 18  2  0  0  0  0
 20 21  2  0  0  0  0
 20 19  1  0  0  0  0
 21 22  1  0  0  0  0
 22 25  1  0  0  0  0
 22 23  2  0  0  0  0
 26 20  1  0  0  0  0
 26 27  1  0  0  0  0
 27 32  1  0  0  0  0
 28 27  2  0  0  0  0
 28 33  1  0  0  0  0
 29 28  1  0  0  0  0
 30 31  1  0  0  0  0
 30 29  2  0  0  0  0
 31 26  2  0  0  0  0
 34 29  1  0  0  0  0
 35 30  1  0  0  0  0
 36 42  1  0  0  0  0
 36  8  1  0  0  0  0
 37 36  2  0  0  0  0
 38 40  2  0  0  0  0
 38 37  1  0  0  0  0
 39 38  1  0  0  0  0
 40 41  1  0  0  0  0
 41 42  2  0  0  0  0
M  END
>  <minimizedAffinity>
-5.96531439

$$$$

 OpenBabel03252507213D

 42 45  0  0  1  0  0  0  0  0999 V2000
   38.9310   29.4160   39.6900 C   0  0  0  0  0  0  0  0  0  0  0  0
   38.3840   28.5380   38.9690 O   0  0  0  0  0  0  0  0  0  0  0  0
   38.3890   30.7310   39.9250 N   0  0  0  0  0  0  0  0  0  0  0  0
   38.2760   31.5040   41.1550 C   0  0  0  0  0  0  0  0  0  0  0  0
   38.8760   32.8970   40.9140 C   0  0  0  0  0  0  0  0  0  0  0  0
   38.0610   33.6230   39.8670 C   0  0  0  0  0  0  0  0  0  0  0  0
   37.1490   32.6570   39.1670 C   0  0  0  0  0  0  0  0  0  0  0  0
   37.8720   31.4000   38.7530 C   0  0  2  0  0  0  0  0  0  0  0  0
   37.2650   31.5650   41.5470 H   0  0  0  0  0  0  0  0  0  0  0  0
   39.0230   31.0290   41.8580 H   0  0  0  0  0  0  0  0  0  0  0  0
   39.8890   32.7610   40.4790 H   0  0  0  0  0  0  0  0  0  0  0  0
   38.9400   33.4380   41.8720 H   0  0  0  0  0  0  0  0  0  0  0  0
   38.6790   34.1760   39.1440 H   0  0  0  0  0  0  0  0  0  0  0  0
   37.4230   34.3420   40.4260 H   0  0  0  0  0  0  0  0  0  0  0  0
   36.3030   32.3730   39.8500 H   0  0  0  0  0  0  0  0  0  0  0  0
   36.7550   33.1310   38.2500 H   0  0  0  0  0  0  0  0  0  0  0  0
   38.7430   31.7160   38.1460 H   0  0  0  0  0  0  0  0  0  0  0  0
   41.3810   29.5080   39.6980 C   0  0  0  0  0  0  0  0  0  0  0  0
   40.1860   29.0780   40.3190 C   0  0  0  0  0  0  0  0  0  0  0  0
   40.2580   28.3580   41.4910 C   0  0  0  0  0  0  0  0  0  0  0  0
   41.4770   28.0880   42.0070 N   0  0  0  0  0  0  0  0  0  0  0  0
   42.6310   28.4950   41.4210 C   0  0  0  0  0  0  0  0  0  0  0  0
   42.5590   29.1990   40.2720 N   0  0  0  0  0  0  0  0  0  0  0  0
   41.2920   30.0760   38.7690 H   0  0  0  0  0  0  0  0  0  0  0  0
   43.6070   28.2780   41.8340 H   0  0  0  0  0  0  0  0  0  0  0  0
   39.0280   27.9220   42.1170 C   0  0  0  0  0  0  0  0  0  0  0  0
   38.4550   28.6800   43.0970 C   0  0  0  0  0  0  0  0  0  0  0  0
   37.2810   28.2460   43.6800 C   0  0  0  0  0  0  0  0  0  0  0  0
   36.6510   27.0670   43.3150 C   0  0  0  0  0  0  0  0  0  0  0  0
   37.2810   26.3340   42.3120 C   0  0  0  0  0  0  0  0  0  0  0  0
   38.4220   26.7870   41.7650 N   0  0  0  0  0  0  0  0  0  0  0  0
   38.8330   29.6140   43.4810 H   0  0  0  0  0  0  0  0  0  0  0  0
   36.7870   28.8110   44.4610 H   0  0  0  0  0  0  0  0  0  0  0  0
   35.7280   26.7250   43.7740 H   0  0  0  0  0  0  0  0  0  0  0  0
   36.8630   25.4010   41.9610 H   0  0  0  0  0  0  0  0  0  0  0  0
   37.0140   30.5500   37.9000 C   0  0  0  0  0  0  0  0  0  0  0  0
   37.2350   30.2370   36.5800 C   0  0  0  0  0  3  0  0  0  0  0  0
   36.4110   29.4410   35.8240 C   0  0  0  0  0  0  0  0  0  0  0  0
   36.6100   29.2140   34.7980 H   0  0  0  0  0  0  0  0  0  0  0  0
   35.3070   28.9230   36.3870 N   0  0  0  0  0  0  0  0  0  0  0  0
   35.0550   29.2100   37.6890 C   0  0  0  0  0  3  0  0  0  0  0  0
   35.8770   29.9890   38.4020 N   0  0  0  0  0  0  0  0  0  0  0  0
  1  3  1  0  0  0  0
  1 19  1  0  0  0  0
  2  1  2  0  0  0  0
  3  4  1  0  0  0  0
  4  9  1  0  0  0  0
  4 10  1  0  0  0  0
  5  4  1  0  0  0  0
  5 12  1  0  0  0  0
  6 14  1  0  0  0  0
  6  5  1  0  0  0  0
  7 15  1  0  0  0  0
  7  6  1  0  0  0  0
  8 17  1  6  0  0  0
  8  7  1  0  0  0  0
  8  3  1  0  0  0  0
 11  5  1  0  0  0  0
 13  6  1  0  0  0  0
 16  7  1  0  0  0  0
 18 23  2  0  0  0  0
 18 19  1  0  0  0  0
 19 20  2  0  0  0  0
 20 21  1  0  0  0  0
 20 26  1  0  0  0  0
 22 25  1  0  0  0  0
 22 21  2  0  0  0  0
 23 22  1  0  0  0  0
 24 18  1  0  0  0  0
 26 27  1  0  0  0  0
 27 32  1  0  0  0  0
 27 28  2  0  0  0  0
 28 33  1  0  0  0  0
 29 28  1  0  0  0  0
 29 34  1  0  0  0  0
 30 29  2  0  0  0  0
 31 26  2  0  0  0  0
 31 30  1  0  0  0  0
 35 30  1  0  0  0  0
 36 42  1  0  0  0  0
 36  8  1  0  0  0  0
 37 36  2  0  0  0  0
 38 40  2  0  0  0  0
 38 37  1  0  0  0  0
 39 38  1  0  0  0  0
 40 41  1  0  0  0  0
 41 42  2  0  0  0  0
M  END
>  <minimizedAffinity>
-5.79891443

$$$$

 OpenBabel03252507213D

 42 45  0  0  1  0  0  0  0  0999 V2000
   38.0860   30.1840   39.8270 C   0  0  0  0  0  0  0  0  0  0  0  0
   37.5370   30.0460   38.7000 O   0  0  0  0  0  0  0  0  0  0  0  0
   37.9150   29.2750   40.9320 N   0  0  0  0  0  0  0  0  0  0  0  0
   38.8890   28.7170   41.8600 C   0  0  0  0  0  0  0  0  0  0  0  0
   38.3940   28.9590   43.2940 C   0  0  0  0  0  0  0  0  0  0  0  0
   37.1010   28.2060   43.5160 C   0  0  0  0  0  0  0  0  0  0  0  0
   36.5460   27.7430   42.1990 C   0  0  0  0  0  0  0  0  0  0  0  0
   36.5560   28.8430   41.1680 C   0  0  2  0  0  0  0  0  0  0  0  0
   39.1150   27.6690   41.6860 H   0  0  0  0  0  0  0  0  0  0  0  0
   39.7810   29.4070   41.7850 H   0  0  0  0  0  0  0  0  0  0  0  0
   38.1450   30.0380   43.3910 H   0  0  0  0  0  0  0  0  0  0  0  0
   39.1890   28.6840   44.0070 H   0  0  0  0  0  0  0  0  0  0  0  0
   36.3540   28.7850   44.0770 H   0  0  0  0  0  0  0  0  0  0  0  0
   37.3760   27.3010   44.1010 H   0  0  0  0  0  0  0  0  0  0  0  0
   37.1580   26.8850   41.8110 H   0  0  0  0  0  0  0  0  0  0  0  0
   35.4970   27.4290   42.3400 H   0  0  0  0  0  0  0  0  0  0  0  0
   36.0110   29.7020   41.6090 H   0  0  0  0  0  0  0  0  0  0  0  0
   38.3980   32.4680   40.6610 C   0  0  0  0  0  0  0  0  0  0  0  0
   38.9400   31.3320   40.0190 C   0  0  0  0  0  0  0  0  0  0  0  0
   40.2530   31.3570   39.6030 C   0  0  0  0  0  0  0  0  0  0  0  0
   40.9780   32.4760   39.8250 N   0  0  0  0  0  0  0  0  0  0  0  0
   40.4690   33.5730   40.4400 C   0  0  0  0  0  0  0  0  0  0  0  0
   39.1820   33.5470   40.8460 N   0  0  0  0  0  0  0  0  0  0  0  0
   37.3540   32.4190   40.9790 H   0  0  0  0  0  0  0  0  0  0  0  0
   41.0490   34.4680   40.6170 H   0  0  0  0  0  0  0  0  0  0  0  0
   40.7980   30.1880   38.9450 C   0  0  0  0  0  0  0  0  0  0  0  0
   40.7580   30.0910   37.5850 C   0  0  0  0  0  0  0  0  0  0  0  0
   41.2830   28.9690   36.9770 C   0  0  0  0  0  0  0  0  0  0  0  0
   41.8550   27.9260   37.6880 C   0  0  0  0  0  0  0  0  0  0  0  0
   41.8690   28.0790   39.0730 C   0  0  0  0  0  0  0  0  0  0  0  0
   41.3480   29.1860   39.6310 N   0  0  0  0  0  0  0  0  0  0  0  0
   40.3430   30.8200   36.9070 H   0  0  0  0  0  0  0  0  0  0  0  0
   41.2760   28.8440   35.9010 H   0  0  0  0  0  0  0  0  0  0  0  0
   42.2680   27.0430   37.2110 H   0  0  0  0  0  0  0  0  0  0  0  0
   42.2940   27.3170   39.7110 H   0  0  0  0  0  0  0  0  0  0  0  0
   35.8320   28.4310   39.9450 C   0  0  0  0  0  0  0  0  0  0  0  0
   34.7460   29.0670   39.3900 C   0  0  0  0  0  3  0  0  0  0  0  0
   34.1040   28.6500   38.2510 C   0  0  0  0  0  0  0  0  0  0  0  0
   33.2620   29.1650   37.8420 H   0  0  0  0  0  0  0  0  0  0  0  0
   34.5450   27.5490   37.6190 N   0  0  0  0  0  0  0  0  0  0  0  0
   35.6140   26.8950   38.1370 C   0  0  0  0  0  3  0  0  0  0  0  0
   36.2210   27.3250   39.2490 N   0  0  0  0  0  0  0  0  0  0  0  0
  1 19  1  0  0  0  0
  1  3  1  0  0  0  0
  2  1  2  0  0  0  0
  3  8  1  0  0  0  0
  3  4  1  0  0  0  0
  4  5  1  0  0  0  0
  5 11  1  0  0  0  0
  5  6  1  0  0  0  0
  5 12  1  0  0  0  0
  6 13  1  0  0  0  0
  6 14  1  0  0  0  0
  7 16  1  0  0  0  0
  7  6  1  0  0  0  0
  8 17  1  1  0  0  0
  8  7  1  0  0  0  0
  9  4  1  0  0  0  0
 10  4  1  0  0  0  0
 15  7  1  0  0  0  0
 18 23  1  0  0  0  0
 18 24  1  0  0  0  0
 19 18  2  0  0  0  0
 20 21  2  0  0  0  0
 20 19  1  0  0  0  0
 21 22  1  0  0  0  0
 22 25  1  0  0  0  0
 22 23  2  0  0  0  0
 26 20  1  0  0  0  0
 26 31  1  0  0  0  0
 27 26  2  0  0  0  0
 28 27  1  0  0  0  0
 28 29  2  0  0  0  0
 29 30  1  0  0  0  0
 30 31  2  0  0  0  0
 30 35  1  0  0  0  0
 32 27  1  0  0  0  0
 33 28  1  0  0  0  0
 34 29  1  0  0  0  0
 36  8  1  0  0  0  0
 37 36  1  0  0  0  0
 38 37  2  0  0  0  0
 39 38  1  0  0  0  0
 40 41  2  0  0  0  0
 40 38  1  0  0  0  0
 41 42  1  0  0  0  0
 42 36  2  0  0  0  0
M  END
>  <minimizedAffinity>
-5.5353446

$$$$

 OpenBabel03252507213D

 42 45  0  0  1  0  0  0  0  0999 V2000
   39.1540   29.1140   39.8550 C   0  0  0  0  0  0  0  0  0  0  0  0
   40.3990   29.3020   39.7900 O   0  0  0  0  0  0  0  0  0  0  0  0
   38.4390   28.8120   41.0700 N   0  0  0  0  0  0  0  0  0  0  0  0
   37.1800   29.3350   41.5830 C   0  0  0  0  0  0  0  0  0  0  0  0
   36.2710   28.1520   41.9470 C   0  0  0  0  0  0  0  0  0  0  0  0
   36.9010   27.3560   43.0680 C   0  0  0  0  0  0  0  0  0  0  0  0
   38.3360   27.7650   43.2410 C   0  0  0  0  0  0  0  0  0  0  0  0
   39.0650   27.8280   41.9220 C   0  0  2  0  0  0  0  0  0  0  0  0
   37.2940   30.0230   42.4160 H   0  0  0  0  0  0  0  0  0  0  0  0
   36.6650   29.7760   40.6780 H   0  0  0  0  0  0  0  0  0  0  0  0
   36.2290   27.4720   41.0690 H   0  0  0  0  0  0  0  0  0  0  0  0
   35.2620   28.5260   42.1890 H   0  0  0  0  0  0  0  0  0  0  0  0
   36.8140   26.2690   42.9300 H   0  0  0  0  0  0  0  0  0  0  0  0
   36.3550   27.6510   43.9910 H   0  0  0  0  0  0  0  0  0  0  0  0
   38.3860   28.7770   43.7250 H   0  0  0  0  0  0  0  0  0  0  0  0
   38.8520   27.0170   43.8700 H   0  0  0  0  0  0  0  0  0  0  0  0
   38.9330   26.8410   41.4350 H   0  0  0  0  0  0  0  0  0  0  0  0
   38.0400   28.0080   37.9720 C   0  0  0  0  0  0  0  0  0  0  0  0
   38.3980   29.2080   38.6290 C   0  0  0  0  0  0  0  0  0  0  0  0
   38.0180   30.4140   38.0820 C   0  0  0  0  0  0  0  0  0  0  0  0
   37.3120   30.4040   36.9300 N   0  0  0  0  0  0  0  0  0  0  0  0
   36.9620   29.2600   36.2900 C   0  0  0  0  0  0  0  0  0  0  0  0
   37.3360   28.0800   36.8270 N   0  0  0  0  0  0  0  0  0  0  0  0
   38.3560   27.0680   38.4290 H   0  0  0  0  0  0  0  0  0  0  0  0
   36.3970   29.2530   35.3670 H   0  0  0  0  0  0  0  0  0  0  0  0
   38.3920   31.6360   38.7620 C   0  0  0  0  0  0  0  0  0  0  0  0
   37.4740   32.3030   39.5180 C   0  0  0  0  0  0  0  0  0  0  0  0
   37.8510   33.4660   40.1590 C   0  0  0  0  0  0  0  0  0  0  0  0
   39.1300   33.9930   40.0710 C   0  0  0  0  0  0  0  0  0  0  0  0
   40.0250   33.2700   39.2860 C   0  0  0  0  0  0  0  0  0  0  0  0
   39.6230   32.1410   38.6760 N   0  0  0  0  0  0  0  0  0  0  0  0
   36.4460   32.0140   39.6740 H   0  0  0  0  0  0  0  0  0  0  0  0
   37.1600   34.0330   40.7710 H   0  0  0  0  0  0  0  0  0  0  0  0
   39.4270   34.9080   40.5740 H   0  0  0  0  0  0  0  0  0  0  0  0
   41.0450   33.6030   39.1570 H   0  0  0  0  0  0  0  0  0  0  0  0
   40.5150   28.0390   42.1270 C   0  0  0  0  0  0  0  0  0  0  0  0
   41.0980   29.1030   42.7750 C   0  0  0  0  0  3  0  0  0  0  0  0
   42.4510   29.2590   42.9430 C   0  0  0  0  0  0  0  0  0  0  0  0
   42.8760   30.0980   43.4530 H   0  0  0  0  0  0  0  0  0  0  0  0
   43.2830   28.3260   42.4510 N   0  0  0  0  0  0  0  0  0  0  0  0
   42.7440   27.2620   41.8050 C   0  0  0  0  0  3  0  0  0  0  0  0
   41.4200   27.1350   41.6550 N   0  0  0  0  0  0  0  0  0  0  0  0
  1  3  1  0  0  0  0
  2  1  2  0  0  0  0
  3  4  1  0  0  0  0
  3  8  1  0  0  0  0
  4  5  1  0  0  0  0
  4  9  1  0  0  0  0
  5 12  1  0  0  0  0
  5  6  1  0  0  0  0
  6  7  1  0  0  0  0
  6 14  1  0  0  0  0
  7 15  1  0  0  0  0
  7 16  1  0  0  0  0
  8 17  1  6  0  0  0
  8 36  1  0  0  0  0
  8  7  1  0  0  0  0
 10  4  1  0  0  0  0
 11  5  1  0  0  0  0
 13  6  1  0  0  0  0
 18 24  1  0  0  0  0
 18 19  1  0  0  0  0
 19  1  1  0  0  0  0
 20 19  2  0  0  0  0
 20 26  1  0  0  0  0
 21 20  1  0  0  0  0
 22 23  1  0  0  0  0
 22 21  2  0  0  0  0
 23 18  2  0  0  0  0
 25 22  1  0  0  0  0
 26 27  1  0  0  0  0
 27 32  1  0  0  0  0
 27 28  2  0  0  0  0
 28 33  1  0  0  0  0
 29 28  1  0  0  0  0
 29 34  1  0  0  0  0
 30 29  2  0  0  0  0
 31 26  2  0  0  0  0
 31 30  1  0  0  0  0
 35 30  1  0  0  0  0
 36 37  1  0  0  0  0
 37 38  2  0  0  0  0
 38 39  1  0  0  0  0
 40 38  1  0  0  0  0
 41 40  2  0  0  0  0
 42 41  1  0  0  0  0
 42 36  2  0  0  0  0
M  END
>  <minimizedAffinity>
-5.47324896

$$$$

 OpenBabel03252507213D

 42 45  0  0  1  0  0  0  0  0999 V2000
   39.0610   27.4910   40.0650 C   0  0  0  0  0  0  0  0  0  0  0  0
   39.1610   26.5140   39.2740 O   0  0  0  0  0  0  0  0  0  0  0  0
   38.5260   27.4070   41.4000 N   0  0  0  0  0  0  0  0  0  0  0  0
   39.0020   27.9810   42.6510 C   0  0  0  0  0  0  0  0  0  0  0  0
   37.8420   28.7340   43.3180 C   0  0  0  0  0  0  0  0  0  0  0  0
   36.7460   27.7550   43.6780 C   0  0  0  0  0  0  0  0  0  0  0  0
   36.9840   26.4430   42.9870 C   0  0  0  0  0  0  0  0  0  0  0  0
   37.3140   26.6290   41.5280 C   0  0  2  0  0  0  0  0  0  0  0  0
   39.4520   27.2580   43.3260 H   0  0  0  0  0  0  0  0  0  0  0  0
   39.6920   28.8190   42.3340 H   0  0  0  0  0  0  0  0  0  0  0  0
   37.4050   29.4240   42.5650 H   0  0  0  0  0  0  0  0  0  0  0  0
   38.2230   29.3020   44.1830 H   0  0  0  0  0  0  0  0  0  0  0  0
   35.7370   28.1360   43.4640 H   0  0  0  0  0  0  0  0  0  0  0  0
   36.8450   27.5800   44.7720 H   0  0  0  0  0  0  0  0  0  0  0  0
   37.8390   25.9050   43.4800 H   0  0  0  0  0  0  0  0  0  0  0  0
   36.0660   25.8310   43.0450 H   0  0  0  0  0  0  0  0  0  0  0  0
   36.4930   27.2270   41.0860 H   0  0  0  0  0  0  0  0  0  0  0  0
   40.8980   29.0640   39.6610 C   0  0  0  0  0  0  0  0  0  0  0  0
   39.5150   28.7800   39.5970 C   0  0  0  0  0  0  0  0  0  0  0  0
   38.6550   29.7320   39.0960 C   0  0  0  0  0  0  0  0  0  0  0  0
   39.1690   30.9100   38.6810 N   0  0  0  0  0  0  0  0  0  0  0  0
   40.4940   31.1950   38.7370 C   0  0  0  0  0  0  0  0  0  0  0  0
   41.3360   30.2620   39.2290 N   0  0  0  0  0  0  0  0  0  0  0  0
   41.5550   28.2890   40.0630 H   0  0  0  0  0  0  0  0  0  0  0  0
   40.9060   32.1390   38.4060 H   0  0  0  0  0  0  0  0  0  0  0  0
   37.2400   29.4300   39.0370 C   0  0  0  0  0  0  0  0  0  0  0  0
   36.4070   29.8770   40.0220 C   0  0  0  0  0  0  0  0  0  0  0  0
   35.0610   29.5790   39.9460 C   0  0  0  0  0  0  0  0  0  0  0  0
   34.5100   28.8430   38.9100 C   0  0  0  0  0  0  0  0  0  0  0  0
   35.4070   28.4130   37.9350 C   0  0  0  0  0  0  0  0  0  0  0  0
   36.7110   28.7220   38.0390 N   0  0  0  0  0  0  0  0  0  0  0  0
   36.6950   30.4550   40.8850 H   0  0  0  0  0  0  0  0  0  0  0  0
   34.3580   29.9100   40.7020 H   0  0  0  0  0  0  0  0  0  0  0  0
   33.4510   28.6080   38.8510 H   0  0  0  0  0  0  0  0  0  0  0  0
   35.0690   27.8320   37.0880 H   0  0  0  0  0  0  0  0  0  0  0  0
   37.3540   25.3290   40.8230 C   0  0  0  0  0  0  0  0  0  0  0  0
   36.5910   24.9690   39.7370 C   0  0  0  0  0  3  0  0  0  0  0  0
   36.6600   23.7500   39.1110 C   0  0  0  0  0  0  0  0  0  0  0  0
   36.0530   23.4990   38.2670 H   0  0  0  0  0  0  0  0  0  0  0  0
   37.5220   22.8280   39.5720 N   0  0  0  0  0  0  0  0  0  0  0  0
   38.2920   23.1460   40.6420 C   0  0  0  0  0  3  0  0  0  0  0  0
   38.2030   24.3440   41.2320 N   0  0  0  0  0  0  0  0  0  0  0  0
  1  3  1  0  0  0  0
  2  1  2  0  0  0  0
  3  8  1  0  0  0  0
  3  4  1  0  0  0  0
  4  5  1  0  0  0  0
  4  9  1  0  0  0  0
  5  6  1  0  0  0  0
  5 12  1  0  0  0  0
  6 14  1  0  0  0  0
  7 16  1  0  0  0  0
  7 15  1  0  0  0  0
  7  6  1  0  0  0  0
  8 17  1  6  0  0  0
  8  7  1  0  0  0  0
 10  4  1  0  0  0  0
 11  5  1  0  0  0  0
 13  6  1  0  0  0  0
 18 24  1  0  0  0  0
 19 18  1  0  0  0  0
 19  1  1  0  0  0  0
 20 19  2  0  0  0  0
 21 22  2  0  0  0  0
 21 20  1  0  0  0  0
 22 23  1  0  0  0  0
 23 18  2  0  0  0  0
 25 22  1  0  0  0  0
 26 20  1  0  0  0  0
 26 27  1  0  0  0  0
 27 32  1  0  0  0  0
 28 27  2  0  0  0  0
 28 33  1  0  0  0  0
 29 28  1  0  0  0  0
 30 31  1  0  0  0  0
 30 29  2  0  0  0  0
 31 26  2  0  0  0  0
 34 29  1  0  0  0  0
 35 30  1  0  0  0  0
 36 42  1  0  0  0  0
 36  8  1  0  0  0  0
 37 36  2  0  0  0  0
 38 40  2  0  0  0  0
 38 37  1  0  0  0  0
 39 38  1  0  0  0  0
 40 41  1  0  0  0  0
 41 42  2  0  0  0  0
M  END
>  <minimizedAffinity>
-5.44904184

$$$$

 OpenBabel03252507213D

 42 45  0  0  1  0  0  0  0  0999 V2000
   39.7370   29.5430   41.3040 C   0  0  0  0  0  0  0  0  0  0  0  0
   39.3500   30.6170   41.8410 O   0  0  0  0  0  0  0  0  0  0  0  0
   40.2760   29.4470   39.9710 N   0  0  0  0  0  0  0  0  0  0  0  0
   41.4300   28.7170   39.4650 C   0  0  0  0  0  0  0  0  0  0  0  0
   40.9870   27.8750   38.2600 C   0  0  0  0  0  0  0  0  0  0  0  0
   40.5290   28.7900   37.1460 C   0  0  0  0  0  0  0  0  0  0  0  0
   40.3400   30.1840   37.6740 C   0  0  0  0  0  0  0  0  0  0  0  0
   39.5580   30.1940   38.9640 C   0  0  2  0  0  0  0  0  0  0  0  0
   42.2810   29.3470   39.2220 H   0  0  0  0  0  0  0  0  0  0  0  0
   41.6380   27.9330   40.2530 H   0  0  0  0  0  0  0  0  0  0  0  0
   40.0940   27.2870   38.5640 H   0  0  0  0  0  0  0  0  0  0  0  0
   41.8070   27.2010   37.9620 H   0  0  0  0  0  0  0  0  0  0  0  0
   39.6210   28.4340   36.6380 H   0  0  0  0  0  0  0  0  0  0  0  0
   41.3680   28.8200   36.4160 H   0  0  0  0  0  0  0  0  0  0  0  0
   41.3410   30.6580   37.8600 H   0  0  0  0  0  0  0  0  0  0  0  0
   39.7700   30.7760   36.9350 H   0  0  0  0  0  0  0  0  0  0  0  0
   38.6110   29.6530   38.7690 H   0  0  0  0  0  0  0  0  0  0  0  0
   40.6960   27.9990   42.9500 C   0  0  0  0  0  0  0  0  0  0  0  0
   39.6310   28.3300   42.0810 C   0  0  0  0  0  0  0  0  0  0  0  0
   38.5400   27.4940   42.0050 C   0  0  0  0  0  0  0  0  0  0  0  0
   38.5270   26.3800   42.7690 N   0  0  0  0  0  0  0  0  0  0  0  0
   39.5430   26.0500   43.6070 C   0  0  0  0  0  0  0  0  0  0  0  0
   40.6120   26.8710   43.6800 N   0  0  0  0  0  0  0  0  0  0  0  0
   41.5480   28.6810   42.9880 H   0  0  0  0  0  0  0  0  0  0  0  0
   39.5330   25.1580   44.2180 H   0  0  0  0  0  0  0  0  0  0  0  0
   37.4560   27.8420   41.1100 C   0  0  0  0  0  0  0  0  0  0  0  0
   37.4030   27.2990   39.8600 C   0  0  0  0  0  0  0  0  0  0  0  0
   36.3620   27.6430   39.0220 C   0  0  0  0  0  0  0  0  0  0  0  0
   35.3570   28.5230   39.3940 C   0  0  0  0  0  0  0  0  0  0  0  0
   35.4620   29.0470   40.6800 C   0  0  0  0  0  0  0  0  0  0  0  0
   36.4900   28.6890   41.4690 N   0  0  0  0  0  0  0  0  0  0  0  0
   38.1140   26.6060   39.4370 H   0  0  0  0  0  0  0  0  0  0  0  0
   36.2740   27.2400   38.0210 H   0  0  0  0  0  0  0  0  0  0  0  0
   34.5380   28.7950   38.7350 H   0  0  0  0  0  0  0  0  0  0  0  0
   34.7250   29.7420   41.0580 H   0  0  0  0  0  0  0  0  0  0  0  0
   39.2140   31.5750   39.3650 C   0  0  0  0  0  0  0  0  0  0  0  0
   40.1010   32.6050   39.5790 C   0  0  0  0  0  3  0  0  0  0  0  0
   39.7380   33.8750   39.9500 C   0  0  0  0  0  0  0  0  0  0  0  0
   40.4510   34.6560   40.1090 H   0  0  0  0  0  0  0  0  0  0  0  0
   38.4360   34.1580   40.1240 N   0  0  0  0  0  0  0  0  0  0  0  0
   37.5310   33.1680   39.9210 C   0  0  0  0  0  3  0  0  0  0  0  0
   37.9140   31.9380   39.5600 N   0  0  0  0  0  0  0  0  0  0  0  0
  1  2  2  0  0  0  0
  1 19  1  0  0  0  0
  3  1  1  0  0  0  0
  4  3  1  0  0  0  0
  4 10  1  0  0  0  0
  5 11  1  0  0  0  0
  5  4  1  0  0  0  0
  6  7  1  0  0  0  0
  6  5  1  0  0  0  0
  7 15  1  0  0  0  0
  7  8  1  0  0  0  0
  8 17  1  6  0  0  0
  8 36  1  0  0  0  0
  8  3  1  0  0  0  0
  9  4  1  0  0  0  0
 12  5  1  0  0  0  0
 13  6  1  0  0  0  0
 14  6  1  0  0  0  0
 16  7  1  0  0  0  0
 18 24  1  0  0  0  0
 18 23  1  0  0  0  0
 19 18  2  0  0  0  0
 20 19  1  0  0  0  0
 20 21  2  0  0  0  0
 21 22  1  0  0  0  0
 22 23  2  0  0  0  0
 22 25  1  0  0  0  0
 26 31  1  0  0  0  0
 26 20  1  0  0  0  0
 27 26  2  0  0  0  0
 28 29  2  0  0  0  0
 28 27  1  0  0  0  0
 29 30  1  0  0  0  0
 30 35  1  0  0  0  0
 30 31  2  0  0  0  0
 32 27  1  0  0  0  0
 33 28  1  0  0  0  0
 34 29  1  0  0  0  0
 36 42  2  0  0  0  0
 36 37  1  0  0  0  0
 37 38  2  0  0  0  0
 38 39  1  0  0  0  0
 38 40  1  0  0  0  0
 41 40  2  0  0  0  0
 42 41  1  0  0  0  0
M  END
>  <minimizedAffinity>
-5.39005041

$$$$

 OpenBabel03252507213D

 42 45  0  0  1  0  0  0  0  0999 V2000
   39.0550   29.9520   40.6810 C   0  0  0  0  0  0  0  0  0  0  0  0
   38.5730   29.3830   41.6980 O   0  0  0  0  0  0  0  0  0  0  0  0
   39.9260   29.3120   39.7270 N   0  0  0  0  0  0  0  0  0  0  0  0
   39.9280   29.3490   38.2710 C   0  0  0  0  0  0  0  0  0  0  0  0
   41.3390   29.7190   37.7920 C   0  0  0  0  0  0  0  0  0  0  0  0
   42.3110   28.6340   38.2000 C   0  0  0  0  0  0  0  0  0  0  0  0
   41.6690   27.7250   39.2090 C   0  0  0  0  0  0  0  0  0  0  0  0
   40.9740   28.4990   40.3010 C   0  0  2  0  0  0  0  0  0  0  0  0
   39.5730   28.4340   37.8050 H   0  0  0  0  0  0  0  0  0  0  0  0
   39.3270   30.2710   38.0100 H   0  0  0  0  0  0  0  0  0  0  0  0
   41.6540   30.6360   38.3340 H   0  0  0  0  0  0  0  0  0  0  0  0
   41.3210   29.9030   36.7050 H   0  0  0  0  0  0  0  0  0  0  0  0
   43.2670   29.0270   38.5760 H   0  0  0  0  0  0  0  0  0  0  0  0
   42.4990   28.0350   37.2820 H   0  0  0  0  0  0  0  0  0  0  0  0
   40.9120   27.0690   38.7000 H   0  0  0  0  0  0  0  0  0  0  0  0
   42.4490   27.1050   39.6860 H   0  0  0  0  0  0  0  0  0  0  0  0
   41.7250   29.1910   40.7320 H   0  0  0  0  0  0  0  0  0  0  0  0
   39.6370   32.3260   40.8630 C   0  0  0  0  0  0  0  0  0  0  0  0
   38.7110   31.3370   40.4620 C   0  0  0  0  0  0  0  0  0  0  0  0
   37.5230   31.7230   39.8810 C   0  0  0  0  0  0  0  0  0  0  0  0
   37.2860   33.0430   39.7160 N   0  0  0  0  0  0  0  0  0  0  0  0
   38.1670   34.0020   40.0970 C   0  0  0  0  0  0  0  0  0  0  0  0
   39.3300   33.6220   40.6660 N   0  0  0  0  0  0  0  0  0  0  0  0
   40.5700   31.9890   41.3210 H   0  0  0  0  0  0  0  0  0  0  0  0
   37.9770   35.0590   39.9650 H   0  0  0  0  0  0  0  0  0  0  0  0
   36.5810   30.7010   39.4760 C   0  0  0  0  0  0  0  0  0  0  0  0
   35.6910   30.1980   40.3800 C   0  0  0  0  0  0  0  0  0  0  0  0
   34.8000   29.2250   39.9730 C   0  0  0  0  0  0  0  0  0  0  0  0
   34.7670   28.7290   38.6790 C   0  0  0  0  0  0  0  0  0  0  0  0
   35.6980   29.2780   37.8010 C   0  0  0  0  0  0  0  0  0  0  0  0
   36.5500   30.2250   38.2310 N   0  0  0  0  0  0  0  0  0  0  0  0
   35.6040   30.4860   41.4160 H   0  0  0  0  0  0  0  0  0  0  0  0
   34.0740   28.7940   40.6510 H   0  0  0  0  0  0  0  0  0  0  0  0
   34.0670   27.9630   38.3590 H   0  0  0  0  0  0  0  0  0  0  0  0
   35.7480   28.9540   36.7710 H   0  0  0  0  0  0  0  0  0  0  0  0
   40.5180   27.5990   41.3820 C   0  0  0  0  0  0  0  0  0  0  0  0
   40.8830   27.6680   42.7070 C   0  0  0  0  0  3  0  0  0  0  0  0
   40.4340   26.8120   43.6790 C   0  0  0  0  0  0  0  0  0  0  0  0
   40.7350   26.8910   44.7020 H   0  0  0  0  0  0  0  0  0  0  0  0
   39.5810   25.8290   43.3420 N   0  0  0  0  0  0  0  0  0  0  0  0
   39.1980   25.7290   42.0450 C   0  0  0  0  0  3  0  0  0  0  0  0
   39.6530   26.5790   41.1170 N   0  0  0  0  0  0  0  0  0  0  0  0
  1  2  2  0  0  0  0
  3  8  1  0  0  0  0
  3  1  1  0  0  0  0
  4  3  1  0  0  0  0
  5  6  1  0  0  0  0
  5  4  1  0  0  0  0
  5 11  1  0  0  0  0
  6 13  1  0  0  0  0
  6  7  1  0  0  0  0
  7 16  1  0  0  0  0
  7  8  1  0  0  0  0
  8 17  1  1  0  0  0
  8 36  1  0  0  0  0
  9  4  1  0  0  0  0
 10  4  1  0  0  0  0
 12  5  1  0  0  0  0
 14  6  1  0  0  0  0
 15  7  1  0  0  0  0
 18 24  1  0  0  0  0
 19  1  1  0  0  0  0
 19 18  2  0  0  0  0
 20 19  1  0  0  0  0
 21 20  2  0  0  0  0
 21 22  1  0  0  0  0
 22 23  2  0  0  0  0
 23 18  1  0  0  0  0
 25 22  1  0  0  0  0
 26 20  1  0  0  0  0
 26 27  1  0  0  0  0
 27 32  1  0  0  0  0
 28 27  2  0  0  0  0
 28 33  1  0  0  0  0
 29 28  1  0  0  0  0
 30 31  1  0  0  0  0
 30 29  2  0  0  0  0
 31 26  2  0  0  0  0
 34 29  1  0  0  0  0
 35 30  1  0  0  0  0
 36 37  1  0  0  0  0
 37 38  2  0  0  0  0
 38 39  1  0  0  0  0
 40 38  1  0  0  0  0
 41 40  2  0  0  0  0
 42 36  2  0  0  0  0
 42 41  1  0  0  0  0
M  END
>  <minimizedAffinity>
-5.34876394

$$$$

 OpenBabel03252507213D

 42 45  0  0  1  0  0  0  0  0999 V2000
   39.0480   28.4180   39.9050 C   0  0  0  0  0  0  0  0  0  0  0  0
   40.3050   28.4920   39.8500 O   0  0  0  0  0  0  0  0  0  0  0  0
   38.1780   28.4660   38.7560 N   0  0  0  0  0  0  0  0  0  0  0  0
   37.0150   27.6590   38.4130 C   0  0  0  0  0  0  0  0  0  0  0  0
   35.8500   28.6000   38.0730 C   0  0  0  0  0  0  0  0  0  0  0  0
   36.1960   29.4090   36.8430 C   0  0  0  0  0  0  0  0  0  0  0  0
   37.6630   29.2850   36.5460 C   0  0  0  0  0  0  0  0  0  0  0  0
   38.5050   29.4820   37.7810 C   0  0  2  0  0  0  0  0  0  0  0  0
   37.1950   26.9410   37.6190 H   0  0  0  0  0  0  0  0  0  0  0  0
   36.6880   27.2020   39.3940 H   0  0  0  0  0  0  0  0  0  0  0  0
   35.7460   29.3290   38.9050 H   0  0  0  0  0  0  0  0  0  0  0  0
   34.9240   28.0110   37.9630 H   0  0  0  0  0  0  0  0  0  0  0  0
   35.8970   30.4640   36.9210 H   0  0  0  0  0  0  0  0  0  0  0  0
   35.6430   28.9340   36.0040 H   0  0  0  0  0  0  0  0  0  0  0  0
   37.8800   28.2670   36.1250 H   0  0  0  0  0  0  0  0  0  0  0  0
   37.9520   30.0660   35.8190 H   0  0  0  0  0  0  0  0  0  0  0  0
   38.2150   30.4590   38.2160 H   0  0  0  0  0  0  0  0  0  0  0  0
   38.3820   26.9870   41.7810 C   0  0  0  0  0  0  0  0  0  0  0  0
   38.4420   28.2780   41.2080 C   0  0  0  0  0  0  0  0  0  0  0  0
   37.9240   29.3480   41.9050 C   0  0  0  0  0  0  0  0  0  0  0  0
   37.3750   29.1210   43.1190 N   0  0  0  0  0  0  0  0  0  0  0  0
   37.3120   27.8870   43.6790 C   0  0  0  0  0  0  0  0  0  0  0  0
   37.8190   26.8400   42.9950 N   0  0  0  0  0  0  0  0  0  0  0  0
   38.8000   26.1580   41.2040 H   0  0  0  0  0  0  0  0  0  0  0  0
   36.8720   27.7060   44.6500 H   0  0  0  0  0  0  0  0  0  0  0  0
   37.9890   30.6650   41.3070 C   0  0  0  0  0  0  0  0  0  0  0  0
   36.9110   31.1610   40.6330 C   0  0  0  0  0  0  0  0  0  0  0  0
   36.9930   32.4190   40.0710 C   0  0  0  0  0  0  0  0  0  0  0  0
   38.1270   33.2110   40.1610 C   0  0  0  0  0  0  0  0  0  0  0  0
   39.1950   32.6540   40.8600 C   0  0  0  0  0  0  0  0  0  0  0  0
   39.0810   31.4250   41.3950 N   0  0  0  0  0  0  0  0  0  0  0  0
   35.9690   30.6580   40.4820 H   0  0  0  0  0  0  0  0  0  0  0  0
   36.1660   32.8570   39.5260 H   0  0  0  0  0  0  0  0  0  0  0  0
   38.1920   34.2000   39.7190 H   0  0  0  0  0  0  0  0  0  0  0  0
   40.1220   33.1970   40.9820 H   0  0  0  0  0  0  0  0  0  0  0  0
   39.9420   29.5510   37.4380 C   0  0  0  0  0  0  0  0  0  0  0  0
   40.7770   30.6240   37.6430 C   0  0  0  0  0  3  0  0  0  0  0  0
   42.1080   30.6450   37.3100 C   0  0  0  0  0  0  0  0  0  0  0  0
   42.7320   31.4960   37.4820 H   0  0  0  0  0  0  0  0  0  0  0  0
   42.6570   29.5570   36.7440 N   0  0  0  0  0  0  0  0  0  0  0  0
   41.8650   28.4780   36.5270 C   0  0  0  0  0  3  0  0  0  0  0  0
   40.5690   28.4860   36.8620 N   0  0  0  0  0  0  0  0  0  0  0  0
  1 19  1  0  0  0  0
  2  1  2  0  0  0  0
  3  1  1  0  0  0  0
  4  3  1  0  0  0  0
  4 10  1  0  0  0  0
  5  4  1  0  0  0  0
  5 11  1  0  0  0  0
  6 13  1  0  0  0  0
  6  5  1  0  0  0  0
  7  6  1  0  0  0  0
  7  8  1  0  0  0  0
  8 17  1  1  0  0  0
  8  3  1  0  0  0  0
  9  4  1  0  0  0  0
 12  5  1  0  0  0  0
 14  6  1  0  0  0  0
 15  7  1  0  0  0  0
 16  7  1  0  0  0  0
 18 23  1  0  0  0  0
 19 18  2  0  0  0  0
 19 20  1  0  0  0  0
 20 21  2  0  0  0  0
 21 22  1  0  0  0  0
 22 25  1  0  0  0  0
 23 22  2  0  0  0  0
 24 18  1  0  0  0  0
 26 31  1  0  0  0  0
 26 20  1  0  0  0  0
 27 26  2  0  0  0  0
 28 29  2  0  0  0  0
 28 27  1  0  0  0  0
 29 30  1  0  0  0  0
 30 35  1  0  0  0  0
 30 31  2  0  0  0  0
 32 27  1  0  0  0  0
 33 28  1  0  0  0  0
 34 29  1  0  0  0  0
 36 37  1  0  0  0  0
 36  8  1  0  0  0  0
 38 39  1  0  0  0  0
 38 37  2  0  0  0  0
 40 38  1  0  0  0  0
 41 40  2  0  0  0  0
 41 42  1  0  0  0  0
 42 36  2  0  0  0  0
M  END
>  <minimizedAffinity>
-5.33856344

$$$$

 OpenBabel03252507213D

 42 45  0  0  1  0  0  0  0  0999 V2000
   39.5840   29.6690   40.5790 C   0  0  0  0  0  0  0  0  0  0  0  0
   40.4770   28.8160   40.8380 O   0  0  0  0  0  0  0  0  0  0  0  0
   38.1840   29.4980   40.8760 N   0  0  0  0  0  0  0  0  0  0  0  0
   37.2170   30.4240   41.4500 C   0  0  0  0  0  0  0  0  0  0  0  0
   35.9830   30.4720   40.5370 C   0  0  0  0  0  0  0  0  0  0  0  0
   35.3210   29.1120   40.5110 C   0  0  0  0  0  0  0  0  0  0  0  0
   36.2430   28.0830   41.1010 C   0  0  0  0  0  0  0  0  0  0  0  0
   37.6420   28.1990   40.5500 C   0  0  2  0  0  0  0  0  0  0  0  0
   36.9470   30.1990   42.4780 H   0  0  0  0  0  0  0  0  0  0  0  0
   37.6770   31.4450   41.3000 H   0  0  0  0  0  0  0  0  0  0  0  0
   36.3330   30.6660   39.5010 H   0  0  0  0  0  0  0  0  0  0  0  0
   35.3110   31.2790   40.8720 H   0  0  0  0  0  0  0  0  0  0  0  0
   34.9870   28.8120   39.5070 H   0  0  0  0  0  0  0  0  0  0  0  0
   34.4370   29.1930   41.1810 H   0  0  0  0  0  0  0  0  0  0  0  0
   36.2880   28.2100   42.2170 H   0  0  0  0  0  0  0  0  0  0  0  0
   35.8690   27.0750   40.8480 H   0  0  0  0  0  0  0  0  0  0  0  0
   37.5570   28.1470   39.4460 H   0  0  0  0  0  0  0  0  0  0  0  0
   40.6100   31.8900   40.7390 C   0  0  0  0  0  0  0  0  0  0  0  0
   39.9970   30.8970   39.9420 C   0  0  0  0  0  0  0  0  0  0  0  0
   39.8150   31.1320   38.5970 C   0  0  0  0  0  0  0  0  0  0  0  0
   40.2330   32.3120   38.0870 N   0  0  0  0  0  0  0  0  0  0  0  0
   40.8230   33.2720   38.8420 C   0  0  0  0  0  0  0  0  0  0  0  0
   41.0000   33.0410   40.1590 N   0  0  0  0  0  0  0  0  0  0  0  0
   40.7410   31.6750   41.8030 H   0  0  0  0  0  0  0  0  0  0  0  0
   41.1560   34.2170   38.4330 H   0  0  0  0  0  0  0  0  0  0  0  0
   39.1840   30.1090   37.7900 C   0  0  0  0  0  0  0  0  0  0  0  0
   37.8850   30.2570   37.3970 C   0  0  0  0  0  0  0  0  0  0  0  0
   37.3020   29.2700   36.6270 C   0  0  0  0  0  0  0  0  0  0  0  0
   37.9780   28.1270   36.2310 C   0  0  0  0  0  0  0  0  0  0  0  0
   39.2990   28.0300   36.6610 C   0  0  0  0  0  0  0  0  0  0  0  0
   39.8350   29.0100   37.4090 N   0  0  0  0  0  0  0  0  0  0  0  0
   37.2400   31.0880   37.6320 H   0  0  0  0  0  0  0  0  0  0  0  0
   36.2750   29.3390   36.2890 H   0  0  0  0  0  0  0  0  0  0  0  0
   37.5200   27.3500   35.6260 H   0  0  0  0  0  0  0  0  0  0  0  0
   39.9060   27.1740   36.4020 H   0  0  0  0  0  0  0  0  0  0  0  0
   38.4820   27.0650   40.9910 C   0  0  0  0  0  0  0  0  0  0  0  0
   39.1300   26.1670   40.1750 C   0  0  0  0  0  3  0  0  0  0  0  0
   39.9020   25.1270   40.6270 C   0  0  0  0  0  0  0  0  0  0  0  0
   40.3950   24.4440   39.9670 H   0  0  0  0  0  0  0  0  0  0  0  0
   40.0510   24.9520   41.9510 N   0  0  0  0  0  0  0  0  0  0  0  0
   39.4280   25.8180   42.7870 C   0  0  0  0  0  3  0  0  0  0  0  0
   38.6800   26.8230   42.3180 N   0  0  0  0  0  0  0  0  0  0  0  0
  1  2  2  0  0  0  0
  1  3  1  0  0  0  0
  3  4  1  0  0  0  0
  4  9  1  0  0  0  0
  5 12  1  0  0  0  0
  5  4  1  0  0  0  0
  6  5  1  0  0  0  0
  6  7  1  0  0  0  0
  6 14  1  0  0  0  0
  7 15  1  0  0  0  0
  8 17  1  6  0  0  0
  8  3  1  0  0  0  0
  8 36  1  0  0  0  0
  8  7  1  0  0  0  0
 10  4  1  0  0  0  0
 11  5  1  0  0  0  0
 13  6  1  0  0  0  0
 16  7  1  0  0  0  0
 18 24  1  0  0  0  0
 19  1  1  0  0  0  0
 19 18  2  0  0  0  0
 20 19  1  0  0  0  0
 21 20  2  0  0  0  0
 21 22  1  0  0  0  0
 22 23  2  0  0  0  0
 23 18  1  0  0  0  0
 25 22  1  0  0  0  0
 26 20  1  0  0  0  0
 27 32  1  0  0  0  0
 27 26  2  0  0  0  0
 28 27  1  0  0  0  0
 29 28  2  0  0  0  0
 29 30  1  0  0  0  0
 30 31  2  0  0  0  0
 31 26  1  0  0  0  0
 33 28  1  0  0  0  0
 34 29  1  0  0  0  0
 35 30  1  0  0  0  0
 36 42  1  0  0  0  0
 37 38  1  0  0  0  0
 37 36  2  0  0  0  0
 38 40  2  0  0  0  0
 39 38  1  0  0  0  0
 40 41  1  0  0  0  0
 42 41  2  0  0  0  0
M  END
>  <minimizedAffinity>
-5.32345867

$$$$
