
 OpenBabel03252509313D

 25 26  0  0  0  0  0  0  0  0999 V2000
   48.2700   33.3210   43.5000 O   0  0  0  0  0  0  0  0  0  0  0  0
   46.9370   33.2800   43.0820 C   0  0  0  0  0  0  0  0  0  0  0  0
   46.7880   33.6220   42.0420 H   0  0  0  0  0  0  0  0  0  0  0  0
   46.5540   32.2180   43.0950 H   0  0  0  0  0  0  0  0  0  0  0  0
   45.0330   34.3360   46.1250 C   0  0  0  0  0  0  0  0  0  0  0  0
   45.8610   33.5840   45.2780 C   0  0  0  0  0  0  0  0  0  0  0  0
   46.0750   34.0460   43.9880 C   0  0  0  0  0  0  0  0  0  0  0  0
   45.4710   35.2080   43.6060 N   0  0  0  0  0  0  0  0  0  0  0  0
   44.6700   35.9200   44.4500 C   0  0  0  0  0  0  0  0  0  0  0  0
   44.4630   35.4740   45.6950 N   0  0  0  0  0  0  0  0  0  0  0  0
   44.9080   33.9140   47.1300 H   0  0  0  0  0  0  0  0  0  0  0  0
   46.3170   32.6600   45.6450 H   0  0  0  0  0  0  0  0  0  0  0  0
   44.1900   36.8350   44.1570 H   0  0  0  0  0  0  0  0  0  0  0  0
   49.8540   33.0440   41.4370 O   0  0  0  0  0  0  0  0  0  0  0  0
   49.1370   34.0800   42.2710 P   0  0  2  0  0  0  0  0  0  0  0  0
   50.2010   35.1740   42.9790 O   0  0  0  0  0  0  0  0  0  0  0  0
   51.0830   35.0930   42.5690 H   0  0  0  0  0  0  0  0  0  0  0  0
   48.0440   34.8670   41.2650 O   0  0  0  0  0  0  0  0  0  0  0  0
   47.8130   34.3730   39.9890 C   0  0  0  0  0  0  0  0  0  0  0  0
   48.5900   34.9180   38.9620 C   0  0  0  0  0  3  0  0  0  0  0  0
   48.4300   34.4860   37.6510 C   0  0  0  0  0  0  0  0  0  0  0  0
   49.0300   34.9000   36.8280 H   0  0  0  0  0  0  0  0  0  0  0  0
   47.5030   33.5290   37.4220 N   0  0  0  0  0  0  0  0  0  0  0  0
   46.7730   33.0270   38.4330 C   0  0  0  0  0  3  0  0  0  0  0  0
   46.9150   33.4290   39.6880 N   0  0  0  0  0  0  0  0  0  0  0  0
  2  4  1  0  0  0  0
  2  1  1  0  0  0  0
  2  7  1  0  0  0  0
  3  2  1  0  0  0  0
  5 11  1  0  0  0  0
  6 12  1  0  0  0  0
  6  5  2  0  0  0  0
  7  6  1  0  0  0  0
  8  7  2  0  0  0  0
  8  9  1  0  0  0  0
  9 10  2  0  0  0  0
 10  5  1  0  0  0  0
 13  9  1  0  0  0  0
 15 14  2  6  0  0  0
 15 16  1  0  0  0  0
 15  1  1  0  0  0  0
 17 16  1  0  0  0  0
 18 15  1  0  0  0  0
 19 18  1  0  0  0  0
 20 19  2  0  0  0  0
 21 20  1  0  0  0  0
 22 21  1  0  0  0  0
 23 21  2  0  0  0  0
 23 24  1  0  0  0  0
 24 25  2  0  0  0  0
 25 19  1  0  0  0  0
M  END
>  <minimizedAffinity>
-4.92447615

>  <minimizedRMSD>
0.937533319

$$$$
