
 OpenBabel03252508383D

 39 42  0  0  0  0  0  0  0  0999 V2000
   45.1150   33.9700   40.7320 C   0  0  0  0  0  0  0  0  0  0  0  0
   44.0770   33.6290   39.9170 C   0  0  0  0  0  0  0  0  0  0  0  0
   44.3800   33.1070   38.7000 C   0  0  0  0  0  0  0  0  0  0  0  0
   45.6600   32.9040   38.2430 C   0  0  0  0  0  0  0  0  0  0  0  0
   46.6870   33.2550   39.0820 C   0  0  0  0  0  0  0  0  0  0  0  0
   46.4350   33.7890   40.3280 C   0  0  0  0  0  0  0  0  0  0  0  0
   43.5470   32.8330   38.0420 H   0  0  0  0  0  0  0  0  0  0  0  0
   45.8720   32.4910   37.2800 H   0  0  0  0  0  0  0  0  0  0  0  0
   47.7100   33.1000   38.7350 H   0  0  0  0  0  0  0  0  0  0  0  0
   40.8010   35.2890   40.7970 C   0  0  0  0  0  0  0  0  0  0  0  0
   42.0980   35.1010   40.2910 C   0  0  0  0  0  0  0  0  0  0  0  0
   42.7420   33.8560   40.4270 C   0  0  0  0  0  0  0  0  0  0  0  0
   42.0150   32.9040   41.0640 N   0  0  0  0  0  0  0  0  0  0  0  0
   40.7920   33.0930   41.5370 C   0  0  0  0  0  0  0  0  0  0  0  0
   40.1800   34.2770   41.4080 N   0  0  0  0  0  0  0  0  0  0  0  0
   40.2050   36.5530   40.6350 N   0  0  0  0  0  0  0  0  0  0  0  0
   42.6250   35.8970   39.7930 H   0  0  0  0  0  0  0  0  0  0  0  0
   40.2610   32.2920   42.0380 H   0  0  0  0  0  0  0  0  0  0  0  0
   39.7030   37.1410   41.3380 H   0  0  0  0  0  0  0  0  0  0  0  0
   40.2330   37.0220   39.7030 H   0  0  0  0  0  0  0  0  0  0  0  0
   47.5910   34.1280   41.1420 C   0  0  0  0  0  0  0  0  0  0  0  0
   48.1340   35.3730   40.9250 C   0  0  0  0  0  0  0  0  0  0  0  0
   49.2430   35.8670   41.6120 C   0  0  0  0  0  0  0  0  0  0  0  0
   49.8160   35.0470   42.5600 C   0  0  0  0  0  0  0  0  0  0  0  0
   49.2910   33.7940   42.7950 C   0  0  0  0  0  0  0  0  0  0  0  0
   48.1900   33.3280   42.0990 C   0  0  0  0  0  0  0  0  0  0  0  0
   47.7170   36.0600   40.1870 H   0  0  0  0  0  0  0  0  0  0  0  0
   49.6290   36.8520   41.4050 H   0  0  0  0  0  0  0  0  0  0  0  0
   50.6880   35.3660   43.1380 H   0  0  0  0  0  0  0  0  0  0  0  0
   49.7130   33.1140   43.5340 H   0  0  0  0  0  0  0  0  0  0  0  0
   47.5770   32.0080   42.2950 C   0  0  0  0  0  0  0  0  0  0  0  0
   46.8510   31.9520   43.4880 C   0  0  0  0  0  3  0  0  0  0  0  0
   46.1820   30.7880   43.8800 C   0  0  0  0  0  0  0  0  0  0  0  0
   45.6200   30.7520   44.8100 H   0  0  0  0  0  0  0  0  0  0  0  0
   46.2350   29.6940   43.0900 N   0  0  0  0  0  0  0  0  0  0  0  0
   46.9510   29.8220   41.9580 C   0  0  0  0  0  3  0  0  0  0  0  0
   47.6160   30.9160   41.5300 N   0  0  0  0  0  0  0  0  0  0  0  0
   44.7080   34.9780   43.1040 N   0  0  0  0  0  0  0  0  0  0  0  0
   44.8970   34.5320   42.0460 C   0  0  0  0  0  0  0  0  0  0  0  0
  1 39  1  0  0  0  0
  2 12  1  0  0  0  0
  2  1  2  0  0  0  0
  3  2  1  0  0  0  0
  4  3  2  0  0  0  0
  4  5  1  0  0  0  0
  5  6  2  0  0  0  0
  6  1  1  0  0  0  0
  6 21  1  0  0  0  0
  7  3  1  0  0  0  0
  8  4  1  0  0  0  0
  9  5  1  0  0  0  0
 10 15  1  0  0  0  0
 11 12  1  0  0  0  0
 11 10  2  0  0  0  0
 12 13  2  0  0  0  0
 13 14  1  0  0  0  0
 14 18  1  0  0  0  0
 15 14  2  0  0  0  0
 16 10  1  0  0  0  0
 16 19  1  0  0  0  0
 17 11  1  0  0  0  0
 20 16  1  0  0  0  0
 21 26  1  0  0  0  0
 22 21  2  0  0  0  0
 22 23  1  0  0  0  0
 23 24  2  0  0  0  0
 24 25  1  0  0  0  0
 24 29  1  0  0  0  0
 25 30  1  0  0  0  0
 26 31  1  0  0  0  0
 26 25  2  0  0  0  0
 27 22  1  0  0  0  0
 28 23  1  0  0  0  0
 31 32  1  0  0  0  0
 32 33  2  0  0  0  0
 33 34  1  0  0  0  0
 35 33  1  0  0  0  0
 36 35  2  0  0  0  0
 37 36  1  0  0  0  0
 37 31  2  0  0  0  0
 39 38  3  0  0  0  0
M  END
>  <minimizedAffinity>
-6.0254364

>  <minimizedRMSD>
0.504608035

$$$$
