
 OpenBabel03252506493D

 27 29  0  0  0  0  0  0  0  0999 V2000
   44.4870   34.5470   42.1160 C   0  0  0  0  0  0  0  0  0  0  0  0
   44.7660   33.5430   43.0440 C   0  0  0  0  0  0  0  0  0  0  0  0
   45.1610   33.9260   44.3360 C   0  0  0  0  0  0  0  0  0  0  0  0
   45.2520   35.2470   44.6170 N   0  0  0  0  0  0  0  0  0  0  0  0
   44.9740   36.1940   43.6900 C   0  0  0  0  0  0  0  0  0  0  0  0
   44.5900   35.8570   42.4350 N   0  0  0  0  0  0  0  0  0  0  0  0
   44.6910   32.4900   42.8120 H   0  0  0  0  0  0  0  0  0  0  0  0
   45.3730   33.1320   45.0430 H   0  0  0  0  0  0  0  0  0  0  0  0
   45.0880   37.6020   44.0480 C   0  0  0  0  0  0  0  0  0  0  0  0
   45.3330   38.5490   43.0900 C   0  0  0  0  0  3  0  0  0  0  0  0
   45.4330   39.8870   43.4890 C   0  0  0  0  0  0  0  0  0  0  0  0
   45.6270   40.6370   42.7320 H   0  0  0  0  0  0  0  0  0  0  0  0
   45.2920   40.2440   44.7970 N   0  0  0  0  0  0  0  0  0  0  0  0
   45.0520   39.2570   45.6840 C   0  0  0  0  0  3  0  0  0  0  0  0
   44.9440   37.9400   45.3580 N   0  0  0  0  0  0  0  0  0  0  0  0
   43.9910   33.9770   40.4960 S   0  0  0  0  0  0  0  0  0  0  0  0
   41.6770   32.0990   41.6610 Cl  0  0  0  0  0  0  0  0  0  0  0  0
   41.2140   33.4520   40.6300 C   0  0  0  0  0  0  0  0  0  0  0  0
   42.2630   34.1980   40.1790 C   0  0  0  0  0  0  0  0  0  0  0  0
   41.9630   35.2910   39.3540 C   0  0  0  0  0  0  0  0  0  0  0  0
   40.6360   35.5590   39.0390 C   0  0  0  0  0  0  0  0  0  0  0  0
   39.5840   34.8010   39.4970 C   0  0  0  0  0  0  0  0  0  0  0  0
   39.9060   33.7200   40.3160 C   0  0  0  0  0  0  0  0  0  0  0  0
   38.6580   32.6740   40.9670 Cl  0  0  0  0  0  0  0  0  0  0  0  0
   42.7160   35.9480   38.9420 H   0  0  0  0  0  0  0  0  0  0  0  0
   40.3840   36.4050   38.3980 H   0  0  0  0  0  0  0  0  0  0  0  0
   38.5560   35.0220   39.2430 H   0  0  0  0  0  0  0  0  0  0  0  0
  1  6  2  0  0  0  0
  1  2  1  0  0  0  0
  2  3  2  0  0  0  0
  3  4  1  0  0  0  0
  3  8  1  0  0  0  0
  5  9  1  0  0  0  0
  5  4  2  0  0  0  0
  6  5  1  0  0  0  0
  7  2  1  0  0  0  0
  9 15  1  0  0  0  0
 10 11  1  0  0  0  0
 10  9  2  0  0  0  0
 11 13  2  0  0  0  0
 12 11  1  0  0  0  0
 13 14  1  0  0  0  0
 15 14  2  0  0  0  0
 16  1  1  0  0  0  0
 18 17  1  0  0  0  0
 19 16  1  0  0  0  0
 19 18  2  0  0  0  0
 20 19  1  0  0  0  0
 21 20  2  0  0  0  0
 21 22  1  0  0  0  0
 22 23  2  0  0  0  0
 23 18  1  0  0  0  0
 23 24  1  0  0  0  0
 25 20  1  0  0  0  0
 26 21  1  0  0  0  0
 27 22  1  0  0  0  0
M  END
>  <minimizedAffinity>
-3.35321546

>  <minimizedRMSD>
1.58490062

$$$$
