
 OpenBabel03252509033D

 46 48  0  0  1  0  0  0  0  0999 V2000
   46.8850   34.3850   43.3530 N   0  0  0  0  0  0  0  0  0  0  0  0
   46.4380   35.5640   42.7080 C   0  0  0  0  0  0  0  0  0  0  0  0
   44.9550   35.8430   42.8300 C   0  0  0  0  0  0  0  0  0  0  0  0
   44.3310   35.3610   44.1170 C   0  0  0  0  0  0  0  0  0  0  0  0
   45.3730   34.8120   45.0640 C   0  0  0  0  0  0  0  0  0  0  0  0
   46.0700   33.6800   44.2140 C   0  0  2  0  0  0  0  0  0  0  0  0
   46.9580   36.4250   43.2150 H   0  0  0  0  0  0  0  0  0  0  0  0
   46.6880   35.6770   41.6480 H   0  0  0  0  0  0  0  0  0  0  0  0
   44.4250   35.4240   41.9330 H   0  0  0  0  0  0  0  0  0  0  0  0
   44.7780   36.9470   42.7880 H   0  0  0  0  0  0  0  0  0  0  0  0
   43.6430   36.0890   44.5760 H   0  0  0  0  0  0  0  0  0  0  0  0
   43.6940   34.4730   43.8420 H   0  0  0  0  0  0  0  0  0  0  0  0
   46.1280   35.5470   45.3560 H   0  0  0  0  0  0  0  0  0  0  0  0
   44.8320   34.3430   45.9080 H   0  0  0  0  0  0  0  0  0  0  0  0
   45.2440   33.0720   43.7940 H   0  0  0  0  0  0  0  0  0  0  0  0
   47.8940   33.6570   42.6120 C   0  0  0  0  0  0  0  0  0  0  0  0
   48.4950   34.4230   42.0770 H   0  0  0  0  0  0  0  0  0  0  0  0
   48.6130   33.1410   43.2970 H   0  0  0  0  0  0  0  0  0  0  0  0
   47.2170   32.7530   41.6530 C   0  0  0  0  0  0  0  0  0  0  0  0
   47.2830   31.7140   41.9800 H   0  0  0  0  0  0  0  0  0  0  0  0
   46.1060   32.9670   41.6050 H   0  0  0  0  0  0  0  0  0  0  0  0
   49.2570   32.1390   38.5450 C   0  0  0  0  0  0  0  0  0  0  0  0
   48.6710   31.9960   39.8190 C   0  0  0  0  0  0  0  0  0  0  0  0
   47.8170   32.9340   40.3070 C   0  0  0  0  0  0  0  0  0  0  0  0
   47.5650   33.9870   39.5260 N   0  0  0  0  0  0  0  0  0  0  0  0
   48.1090   34.1470   38.3100 C   0  0  0  0  0  0  0  0  0  0  0  0
   48.9570   33.2350   37.8030 N   0  0  0  0  0  0  0  0  0  0  0  0
   49.9280   31.4280   38.1300 H   0  0  0  0  0  0  0  0  0  0  0  0
   48.9830   31.0900   40.3080 H   0  0  0  0  0  0  0  0  0  0  0  0
   47.8150   35.0520   37.7850 H   0  0  0  0  0  0  0  0  0  0  0  0
   46.7790   33.0120   45.1860 O   0  0  0  0  0  0  0  0  0  0  0  0
   45.3570   30.9570   44.2430 O   0  0  0  0  0  0  0  0  0  0  0  0
   46.3030   31.4240   45.3750 P   0  0  2  0  0  0  0  0  0  0  0  0
   45.2910   31.3820   46.7720 O   0  0  0  0  0  0  0  0  0  0  0  0
   45.7620   31.9080   47.4740 H   0  0  0  0  0  0  0  0  0  0  0  0
   47.5280   30.3460   45.6180 O   0  0  0  0  0  0  0  0  0  0  0  0
   47.9220   29.7680   44.4400 C   0  0  0  0  0  0  0  0  0  0  0  0
   47.1890   30.1580   43.6630 H   0  0  0  0  0  0  0  0  0  0  0  0
   47.6190   28.6800   44.5100 H   0  0  0  0  0  0  0  0  0  0  0  0
   49.3040   29.9370   44.0210 C   0  0  0  0  0  0  0  0  0  0  0  0
   50.1530   29.1850   44.8420 C   0  0  0  0  0  3  0  0  0  0  0  0
   51.5180   29.2020   44.5350 C   0  0  0  0  0  0  0  0  0  0  0  0
   52.2630   28.6430   45.1220 H   0  0  0  0  0  0  0  0  0  0  0  0
   52.0340   29.9000   43.5070 N   0  0  0  0  0  0  0  0  0  0  0  0
   51.1760   30.6070   42.7490 C   0  0  0  0  0  3  0  0  0  0  0  0
   49.8520   30.6330   42.9880 N   0  0  0  0  0  0  0  0  0  0  0  0
  1  6  1  0  0  0  0
  2  3  1  0  0  0  0
  2  7  1  0  0  0  0
  2  1  1  0  0  0  0
  3  4  1  0  0  0  0
  4 11  1  0  0  0  0
  4  5  1  0  0  0  0
  5 13  1  0  0  0  0
  5 14  1  0  0  0  0
  6 15  1  6  0  0  0
  6  5  1  0  0  0  0
  6 31  1  0  0  0  0
  8  2  1  0  0  0  0
  9  3  1  0  0  0  0
 10  3  1  0  0  0  0
 12  4  1  0  0  0  0
 16 18  1  0  0  0  0
 16  1  1  0  0  0  0
 17 16  1  0  0  0  0
 19 20  1  0  0  0  0
 19 16  1  0  0  0  0
 21 19  1  0  0  0  0
 22 23  1  0  0  0  0
 23 24  2  0  0  0  0
 23 29  1  0  0  0  0
 24 19  1  0  0  0  0
 25 24  1  0  0  0  0
 26 25  2  0  0  0  0
 27 26  1  0  0  0  0
 27 22  2  0  0  0  0
 28 22  1  0  0  0  0
 30 26  1  0  0  0  0
 31 33  1  0  0  0  0
 33 32  2  6  0  0  0
 33 36  1  0  0  0  0
 33 34  1  0  0  0  0
 34 35  1  0  0  0  0
 37 39  1  0  0  0  0
 37 36  1  0  0  0  0
 38 37  1  0  0  0  0
 40 37  1  0  0  0  0
 40 41  1  0  0  0  0
 42 41  2  0  0  0  0
 42 43  1  0  0  0  0
 44 42  1  0  0  0  0
 45 46  1  0  0  0  0
 45 44  2  0  0  0  0
 46 40  2  0  0  0  0
M  END
>  <minimizedAffinity>
-3.96706772

>  <minimizedRMSD>
1.63285875

$$$$
