
 OpenBabel03242522123D

 18 19  0  0  0  0  0  0  0  0999 V2000
   37.2750   32.4680   40.1450 C   0  0  0  0  0  0  0  0  0  0  0  0
   37.0200   31.2780   40.8240 C   0  0  0  0  0  0  0  0  0  0  0  0
   38.1050   30.4600   41.0870 C   0  0  0  0  0  0  0  0  0  0  0  0
   39.3380   30.8410   40.6850 N   0  0  0  0  0  0  0  0  0  0  0  0
   39.5520   32.0090   40.0240 C   0  0  0  0  0  0  0  0  0  0  0  0
   38.4990   32.8260   39.7560 N   0  0  0  0  0  0  0  0  0  0  0  0
   36.5090   33.1920   39.8790 H   0  0  0  0  0  0  0  0  0  0  0  0
   40.5820   32.2030   39.7540 H   0  0  0  0  0  0  0  0  0  0  0  0
   37.8660   29.2070   41.7980 C   0  0  0  0  0  0  0  0  0  0  0  0
   38.2180   29.0500   43.1200 C   0  0  0  0  0  3  0  0  0  0  0  0
   37.9310   27.8050   43.6650 C   0  0  0  0  0  0  0  0  0  0  0  0
   38.2000   27.6570   44.7090 H   0  0  0  0  0  0  0  0  0  0  0  0
   37.3490   26.8030   42.9730 N   0  0  0  0  0  0  0  0  0  0  0  0
   37.0230   27.0030   41.6830 C   0  0  0  0  0  3  0  0  0  0  0  0
   37.2860   28.2090   41.1040 N   0  0  0  0  0  0  0  0  0  0  0  0
   35.6820   30.9840   41.1960 N   0  0  0  0  0  0  0  0  0  0  0  0
   35.2740   30.5500   40.3170 H   0  0  0  0  0  0  0  0  0  0  0  0
   35.3160   31.1970   42.1430 H   0  0  0  0  0  0  0  0  0  0  0  0
  1  2  1  0  0  0  0
  2  3  2  0  0  0  0
  2 16  1  0  0  0  0
  3  9  1  0  0  0  0
  4  3  1  0  0  0  0
  5  4  2  0  0  0  0
  6  5  1  0  0  0  0
  6  1  2  0  0  0  0
  7  1  1  0  0  0  0
  8  5  1  0  0  0  0
  9 10  1  0  0  0  0
 10 11  2  0  0  0  0
 11 12  1  0  0  0  0
 13 11  1  0  0  0  0
 14 13  2  0  0  0  0
 15 14  1  0  0  0  0
 15  9  2  0  0  0  0
 16 18  1  0  0  0  0
 17 16  1  0  0  0  0
M  END
>  <minimizedAffinity>
-4.4271965

$$$$

 OpenBabel03242522123D

 18 19  0  0  0  0  0  0  0  0999 V2000
   34.9000   29.2780   39.8170 C   0  0  0  0  0  0  0  0  0  0  0  0
   35.8050   30.2960   40.1110 C   0  0  0  0  0  0  0  0  0  0  0  0
   36.6680   30.6810   39.0990 C   0  0  0  0  0  0  0  0  0  0  0  0
   36.5980   30.0680   37.8970 N   0  0  0  0  0  0  0  0  0  0  0  0
   35.7030   29.0770   37.6430 C   0  0  0  0  0  0  0  0  0  0  0  0
   34.8470   28.6850   38.6240 N   0  0  0  0  0  0  0  0  0  0  0  0
   34.1730   28.8870   40.5250 H   0  0  0  0  0  0  0  0  0  0  0  0
   35.7450   28.6640   36.6440 H   0  0  0  0  0  0  0  0  0  0  0  0
   37.6260   31.7460   39.3800 C   0  0  0  0  0  0  0  0  0  0  0  0
   38.9820   31.5050   39.4150 C   0  0  0  0  0  3  0  0  0  0  0  0
   39.7730   32.6120   39.6940 C   0  0  0  0  0  0  0  0  0  0  0  0
   40.8480   32.4460   39.7270 H   0  0  0  0  0  0  0  0  0  0  0  0
   39.2770   33.8470   39.9180 N   0  0  0  0  0  0  0  0  0  0  0  0
   37.9450   34.0340   39.8730 C   0  0  0  0  0  3  0  0  0  0  0  0
   37.1280   32.9770   39.6030 N   0  0  0  0  0  0  0  0  0  0  0  0
   35.7840   30.8660   41.4110 N   0  0  0  0  0  0  0  0  0  0  0  0
   36.3800   30.1950   41.9790 H   0  0  0  0  0  0  0  0  0  0  0  0
   35.2670   31.7390   41.6190 H   0  0  0  0  0  0  0  0  0  0  0  0
  1  2  1  0  0  0  0
  1  7  1  0  0  0  0
  2 16  1  0  0  0  0
  3  9  1  0  0  0  0
  3  2  2  0  0  0  0
  4  3  1  0  0  0  0
  5  4  2  0  0  0  0
  5  6  1  0  0  0  0
  6  1  2  0  0  0  0
  8  5  1  0  0  0  0
  9 10  2  0  0  0  0
  9 15  1  0  0  0  0
 10 11  1  0  0  0  0
 11 12  1  0  0  0  0
 11 13  2  0  0  0  0
 14 13  1  0  0  0  0
 15 14  2  0  0  0  0
 16 18  1  0  0  0  0
 16 17  1  0  0  0  0
M  END
>  <minimizedAffinity>
-4.08918715

$$$$

 OpenBabel03242522123D

 18 19  0  0  0  0  0  0  0  0999 V2000
   37.0290   27.0300   42.7260 C   0  0  0  0  0  0  0  0  0  0  0  0
   37.2760   28.3900   42.5440 C   0  0  0  0  0  0  0  0  0  0  0  0
   37.5460   28.8130   41.2550 C   0  0  0  0  0  0  0  0  0  0  0  0
   37.5600   27.9120   40.2480 N   0  0  0  0  0  0  0  0  0  0  0  0
   37.3150   26.5910   40.4590 C   0  0  0  0  0  0  0  0  0  0  0  0
   37.0470   26.1560   41.7190 N   0  0  0  0  0  0  0  0  0  0  0  0
   36.8060   26.5750   43.6880 H   0  0  0  0  0  0  0  0  0  0  0  0
   37.3550   25.9690   39.5740 H   0  0  0  0  0  0  0  0  0  0  0  0
   37.8080   30.2330   41.0370 C   0  0  0  0  0  0  0  0  0  0  0  0
   36.9100   31.0370   40.3690 C   0  0  0  0  0  3  0  0  0  0  0  0
   37.2920   32.3660   40.2360 C   0  0  0  0  0  0  0  0  0  0  0  0
   36.5980   33.0210   39.7120 H   0  0  0  0  0  0  0  0  0  0  0  0
   38.4520   32.8620   40.7170 N   0  0  0  0  0  0  0  0  0  0  0  0
   39.2970   32.0380   41.3620 C   0  0  0  0  0  3  0  0  0  0  0  0
   38.9660   30.7240   41.5170 N   0  0  0  0  0  0  0  0  0  0  0  0
   37.2340   29.2420   43.6790 N   0  0  0  0  0  0  0  0  0  0  0  0
   38.2050   29.1390   44.0960 H   0  0  0  0  0  0  0  0  0  0  0  0
   36.3860   29.7840   43.9280 H   0  0  0  0  0  0  0  0  0  0  0  0
  1  7  1  0  0  0  0
  2  1  1  0  0  0  0
  2 16  1  0  0  0  0
  3  2  2  0  0  0  0
  4  5  2  0  0  0  0
  4  3  1  0  0  0  0
  5  6  1  0  0  0  0
  6  1  2  0  0  0  0
  8  5  1  0  0  0  0
  9  3  1  0  0  0  0
  9 15  1  0  0  0  0
 10  9  2  0  0  0  0
 11 10  1  0  0  0  0
 11 13  2  0  0  0  0
 12 11  1  0  0  0  0
 13 14  1  0  0  0  0
 14 15  2  0  0  0  0
 16 18  1  0  0  0  0
 16 17  1  0  0  0  0
M  END
>  <minimizedAffinity>
-4.02619362

$$$$

 OpenBabel03242522123D

 18 19  0  0  0  0  0  0  0  0999 V2000
   36.7930   31.5460   39.1030 C   0  0  0  0  0  0  0  0  0  0  0  0
   36.8720   30.7650   40.2550 C   0  0  0  0  0  0  0  0  0  0  0  0
   37.7840   29.7240   40.2470 C   0  0  0  0  0  0  0  0  0  0  0  0
   38.5420   29.5130   39.1490 N   0  0  0  0  0  0  0  0  0  0  0  0
   38.4400   30.2930   38.0410 C   0  0  0  0  0  0  0  0  0  0  0  0
   37.5500   31.3210   38.0290 N   0  0  0  0  0  0  0  0  0  0  0  0
   36.1170   32.3890   38.9860 H   0  0  0  0  0  0  0  0  0  0  0  0
   39.1000   30.0240   37.2270 H   0  0  0  0  0  0  0  0  0  0  0  0
   37.8870   28.8900   41.4420 C   0  0  0  0  0  0  0  0  0  0  0  0
   39.0620   28.7940   42.1540 C   0  0  0  0  0  3  0  0  0  0  0  0
   39.0120   27.9640   43.2670 C   0  0  0  0  0  0  0  0  0  0  0  0
   39.9290   27.8730   43.8460 H   0  0  0  0  0  0  0  0  0  0  0  0
   37.9070   27.2890   43.6470 N   0  0  0  0  0  0  0  0  0  0  0  0
   36.7830   27.4140   42.9190 C   0  0  0  0  0  3  0  0  0  0  0  0
   36.7830   28.2170   41.8170 N   0  0  0  0  0  0  0  0  0  0  0  0
   36.0230   31.0830   41.3480 N   0  0  0  0  0  0  0  0  0  0  0  0
   35.1130   30.5950   41.0990 H   0  0  0  0  0  0  0  0  0  0  0  0
   36.3450   31.6670   42.1410 H   0  0  0  0  0  0  0  0  0  0  0  0
  1  2  1  0  0  0  0
  2 16  1  0  0  0  0
  3  2  2  0  0  0  0
  3  9  1  0  0  0  0
  4  3  1  0  0  0  0
  5  4  2  0  0  0  0
  6  5  1  0  0  0  0
  6  1  2  0  0  0  0
  7  1  1  0  0  0  0
  8  5  1  0  0  0  0
  9 15  2  0  0  0  0
  9 10  1  0  0  0  0
 10 11  2  0  0  0  0
 11 13  1  0  0  0  0
 11 12  1  0  0  0  0
 14 13  2  0  0  0  0
 15 14  1  0  0  0  0
 16 18  1  0  0  0  0
 17 16  1  0  0  0  0
M  END
>  <minimizedAffinity>
-3.97495222

$$$$

 OpenBabel03242522123D

 18 19  0  0  0  0  0  0  0  0999 V2000
   42.2280   33.4760   37.3170 C   0  0  0  0  0  0  0  0  0  0  0  0
   41.0380   32.9430   37.8090 C   0  0  0  0  0  0  0  0  0  0  0  0
   40.8320   33.0190   39.1750 C   0  0  0  0  0  0  0  0  0  0  0  0
   41.7720   33.5930   39.9580 N   0  0  0  0  0  0  0  0  0  0  0  0
   42.9230   34.1040   39.4470 C   0  0  0  0  0  0  0  0  0  0  0  0
   43.1430   34.0390   38.1070 N   0  0  0  0  0  0  0  0  0  0  0  0
   42.5060   33.4770   36.2660 H   0  0  0  0  0  0  0  0  0  0  0  0
   43.5970   34.5370   40.1740 H   0  0  0  0  0  0  0  0  0  0  0  0
   39.5930   32.4670   39.7170 C   0  0  0  0  0  0  0  0  0  0  0  0
   39.5890   31.3320   40.4980 C   0  0  0  0  0  3  0  0  0  0  0  0
   38.3380   30.9250   40.9420 C   0  0  0  0  0  0  0  0  0  0  0  0
   38.3110   30.0300   41.5610 H   0  0  0  0  0  0  0  0  0  0  0  0
   37.1920   31.5730   40.6470 N   0  0  0  0  0  0  0  0  0  0  0  0
   37.2460   32.6780   39.8800 C   0  0  0  0  0  3  0  0  0  0  0  0
   38.4510   33.1170   39.4200 N   0  0  0  0  0  0  0  0  0  0  0  0
   40.1250   32.3640   36.8880 N   0  0  0  0  0  0  0  0  0  0  0  0
   40.4970   31.3770   36.7650 H   0  0  0  0  0  0  0  0  0  0  0  0
   39.3230   32.8950   36.5030 H   0  0  0  0  0  0  0  0  0  0  0  0
  1  2  2  0  0  0  0
  1  6  1  0  0  0  0
  2  3  1  0  0  0  0
  3  9  1  0  0  0  0
  3  4  2  0  0  0  0
  5  4  1  0  0  0  0
  5  8  1  0  0  0  0
  6  5  2  0  0  0  0
  7  1  1  0  0  0  0
  9 10  1  0  0  0  0
 10 11  2  0  0  0  0
 11 12  1  0  0  0  0
 13 11  1  0  0  0  0
 14 13  2  0  0  0  0
 15  9  2  0  0  0  0
 15 14  1  0  0  0  0
 16  2  1  0  0  0  0
 17 16  1  0  0  0  0
 18 16  1  0  0  0  0
M  END
>  <minimizedAffinity>
-3.92058969

$$$$

 OpenBabel03242522123D

 18 19  0  0  0  0  0  0  0  0999 V2000
   36.1910   28.5270   41.6990 C   0  0  0  0  0  0  0  0  0  0  0  0
   36.6850   29.7510   41.2500 C   0  0  0  0  0  0  0  0  0  0  0  0
   38.0060   29.7820   40.8380 C   0  0  0  0  0  0  0  0  0  0  0  0
   38.7450   28.6520   40.8870 N   0  0  0  0  0  0  0  0  0  0  0  0
   38.2320   27.4730   41.3310 C   0  0  0  0  0  0  0  0  0  0  0  0
   36.9370   27.4220   41.7390 N   0  0  0  0  0  0  0  0  0  0  0  0
   35.1730   28.3730   42.0480 H   0  0  0  0  0  0  0  0  0  0  0  0
   38.9220   26.6400   41.3220 H   0  0  0  0  0  0  0  0  0  0  0  0
   38.5490   31.0520   40.3630 C   0  0  0  0  0  0  0  0  0  0  0  0
   39.0840   31.1800   39.1000 C   0  0  0  0  0  3  0  0  0  0  0  0
   39.5620   32.4450   38.7850 C   0  0  0  0  0  0  0  0  0  0  0  0
   39.9890   32.5700   37.7920 H   0  0  0  0  0  0  0  0  0  0  0  0
   39.5190   33.4920   39.6350 N   0  0  0  0  0  0  0  0  0  0  0  0
   38.9880   33.3190   40.8590 C   0  0  0  0  0  3  0  0  0  0  0  0
   38.5050   32.0940   41.2140 N   0  0  0  0  0  0  0  0  0  0  0  0
   35.8140   30.8710   41.2440 N   0  0  0  0  0  0  0  0  0  0  0  0
   35.8740   31.2310   42.2420 H   0  0  0  0  0  0  0  0  0  0  0  0
   35.2980   31.1610   40.3930 H   0  0  0  0  0  0  0  0  0  0  0  0
  1  6  1  0  0  0  0
  1  7  1  0  0  0  0
  2  1  2  0  0  0  0
  3  4  2  0  0  0  0
  3  2  1  0  0  0  0
  4  5  1  0  0  0  0
  5  6  2  0  0  0  0
  8  5  1  0  0  0  0
  9  3  1  0  0  0  0
  9 15  1  0  0  0  0
 10  9  2  0  0  0  0
 11 10  1  0  0  0  0
 11 13  2  0  0  0  0
 12 11  1  0  0  0  0
 13 14  1  0  0  0  0
 14 15  2  0  0  0  0
 16  2  1  0  0  0  0
 16 17  1  0  0  0  0
 18 16  1  0  0  0  0
M  END
>  <minimizedAffinity>
-3.90740848

$$$$

 OpenBabel03242522123D

 18 19  0  0  0  0  0  0  0  0999 V2000
   39.2120   34.0880   40.2800 C   0  0  0  0  0  0  0  0  0  0  0  0
   38.1410   33.2230   40.0570 C   0  0  0  0  0  0  0  0  0  0  0  0
   38.3820   31.8700   40.2170 C   0  0  0  0  0  0  0  0  0  0  0  0
   39.6170   31.4520   40.5750 N   0  0  0  0  0  0  0  0  0  0  0  0
   40.6400   32.3220   40.7850 C   0  0  0  0  0  0  0  0  0  0  0  0
   40.4230   33.6560   40.6320 N   0  0  0  0  0  0  0  0  0  0  0  0
   39.1500   35.1690   40.1860 H   0  0  0  0  0  0  0  0  0  0  0  0
   41.5800   31.8670   41.0670 H   0  0  0  0  0  0  0  0  0  0  0  0
   37.2780   30.9420   39.9900 C   0  0  0  0  0  0  0  0  0  0  0  0
   36.5970   30.3610   41.0380 C   0  0  0  0  0  3  0  0  0  0  0  0
   35.5710   29.5010   40.6710 C   0  0  0  0  0  0  0  0  0  0  0  0
   35.0180   29.0300   41.4830 H   0  0  0  0  0  0  0  0  0  0  0  0
   35.2410   29.2330   39.3900 N   0  0  0  0  0  0  0  0  0  0  0  0
   35.9350   29.8250   38.4010 C   0  0  0  0  0  3  0  0  0  0  0  0
   36.9520   30.6780   38.7110 N   0  0  0  0  0  0  0  0  0  0  0  0
   36.8890   33.7790   39.6850 N   0  0  0  0  0  0  0  0  0  0  0  0
   36.9820   33.9080   38.6350 H   0  0  0  0  0  0  0  0  0  0  0  0
   36.1430   33.9660   40.3800 H   0  0  0  0  0  0  0  0  0  0  0  0
  1  6  1  0  0  0  0
  2  3  1  0  0  0  0
  2  1  2  0  0  0  0
  3  4  2  0  0  0  0
  4  5  1  0  0  0  0
  5  8  1  0  0  0  0
  6  5  2  0  0  0  0
  7  1  1  0  0  0  0
  9  3  1  0  0  0  0
  9 10  1  0  0  0  0
 11 10  2  0  0  0  0
 11 12  1  0  0  0  0
 13 11  1  0  0  0  0
 14 15  1  0  0  0  0
 14 13  2  0  0  0  0
 15  9  2  0  0  0  0
 16  2  1  0  0  0  0
 16 18  1  0  0  0  0
 17 16  1  0  0  0  0
M  END
>  <minimizedAffinity>
-3.87455344

$$$$

 OpenBabel03242522123D

 18 19  0  0  0  0  0  0  0  0999 V2000
   39.2860   32.5900   40.8760 C   0  0  0  0  0  0  0  0  0  0  0  0
   39.0480   31.3300   41.4240 C   0  0  0  0  0  0  0  0  0  0  0  0
   37.8150   30.7570   41.1680 C   0  0  0  0  0  0  0  0  0  0  0  0
   36.9140   31.4250   40.4150 N   0  0  0  0  0  0  0  0  0  0  0  0
   37.1770   32.6540   39.8960 C   0  0  0  0  0  0  0  0  0  0  0  0
   38.3830   33.2340   40.1360 N   0  0  0  0  0  0  0  0  0  0  0  0
   40.2120   33.1440   41.0050 H   0  0  0  0  0  0  0  0  0  0  0  0
   36.3770   33.0870   39.3110 H   0  0  0  0  0  0  0  0  0  0  0  0
   37.5400   29.4370   41.7300 C   0  0  0  0  0  0  0  0  0  0  0  0
   37.1770   28.3750   40.9310 C   0  0  0  0  0  3  0  0  0  0  0  0
   36.9470   27.1810   41.6030 C   0  0  0  0  0  0  0  0  0  0  0  0
   36.6600   26.3280   40.9920 H   0  0  0  0  0  0  0  0  0  0  0  0
   37.0620   27.0430   42.9410 N   0  0  0  0  0  0  0  0  0  0  0  0
   37.4190   28.1090   43.6790 C   0  0  0  0  0  3  0  0  0  0  0  0
   37.6560   29.3020   43.0650 N   0  0  0  0  0  0  0  0  0  0  0  0
   40.0720   30.7250   42.1990 N   0  0  0  0  0  0  0  0  0  0  0  0
   39.9330   31.1520   43.1610 H   0  0  0  0  0  0  0  0  0  0  0  0
   40.7360   30.0410   41.7920 H   0  0  0  0  0  0  0  0  0  0  0  0
  1  7  1  0  0  0  0
  1  2  1  0  0  0  0
  2 16  1  0  0  0  0
  3  2  2  0  0  0  0
  3  9  1  0  0  0  0
  4  3  1  0  0  0  0
  5  6  1  0  0  0  0
  5  4  2  0  0  0  0
  6  1  2  0  0  0  0
  8  5  1  0  0  0  0
  9 15  1  0  0  0  0
 10 11  1  0  0  0  0
 10  9  2  0  0  0  0
 11 13  2  0  0  0  0
 12 11  1  0  0  0  0
 13 14  1  0  0  0  0
 15 14  2  0  0  0  0
 16 17  1  0  0  0  0
 18 16  1  0  0  0  0
M  END
>  <minimizedAffinity>
-3.76351547

$$$$

 OpenBabel03242522123D

 18 19  0  0  0  0  0  0  0  0999 V2000
   37.4290   29.5730   42.4150 C   0  0  0  0  0  0  0  0  0  0  0  0
   36.6260   29.7240   41.2860 C   0  0  0  0  0  0  0  0  0  0  0  0
   36.7680   28.7820   40.2820 C   0  0  0  0  0  0  0  0  0  0  0  0
   37.6600   27.7780   40.4350 N   0  0  0  0  0  0  0  0  0  0  0  0
   38.4300   27.6590   41.5490 C   0  0  0  0  0  0  0  0  0  0  0  0
   38.3040   28.5750   42.5460 N   0  0  0  0  0  0  0  0  0  0  0  0
   37.4120   30.2460   43.2680 H   0  0  0  0  0  0  0  0  0  0  0  0
   39.1050   26.8150   41.5530 H   0  0  0  0  0  0  0  0  0  0  0  0
   35.9380   28.9170   39.0880 C   0  0  0  0  0  0  0  0  0  0  0  0
   36.4900   29.1600   37.8500 C   0  0  0  0  0  3  0  0  0  0  0  0
   35.5800   29.2640   36.8070 C   0  0  0  0  0  0  0  0  0  0  0  0
   35.9930   29.4570   35.8180 H   0  0  0  0  0  0  0  0  0  0  0  0
   34.2450   29.1400   36.9640 N   0  0  0  0  0  0  0  0  0  0  0  0
   33.7520   28.9020   38.1930 C   0  0  0  0  0  3  0  0  0  0  0  0
   34.6070   28.7920   39.2500 N   0  0  0  0  0  0  0  0  0  0  0  0
   35.7240   30.8200   41.2390 N   0  0  0  0  0  0  0  0  0  0  0  0
   36.3320   31.6200   40.8930 H   0  0  0  0  0  0  0  0  0  0  0  0
   34.7280   30.7240   41.5080 H   0  0  0  0  0  0  0  0  0  0  0  0
  1  6  1  0  0  0  0
  1  7  1  0  0  0  0
  2  1  2  0  0  0  0
  3  4  2  0  0  0  0
  3  2  1  0  0  0  0
  4  5  1  0  0  0  0
  5  8  1  0  0  0  0
  5  6  2  0  0  0  0
  9 15  1  0  0  0  0
  9  3  1  0  0  0  0
 10  9  2  0  0  0  0
 11 13  2  0  0  0  0
 11 10  1  0  0  0  0
 12 11  1  0  0  0  0
 13 14  1  0  0  0  0
 14 15  2  0  0  0  0
 16  2  1  0  0  0  0
 16 18  1  0  0  0  0
 17 16  1  0  0  0  0
M  END
>  <minimizedAffinity>
-3.72335625

$$$$
