
 OpenBabel03242517103D

 45 48  0  0  1  0  0  0  0  0999 V2000
   45.9390   33.6810   43.2780 C   0  0  2  0  0  0  0  0  0  0  0  0
   45.0180   34.6990   42.6970 C   0  0  2  0  0  0  0  0  0  0  0  0
   44.9410   35.9390   43.5080 C   0  0  0  0  0  0  0  0  0  0  0  0
   44.6430   35.7150   44.9660 C   0  0  0  0  0  0  0  0  0  0  0  0
   45.2540   34.4670   45.5310 C   0  0  0  0  0  0  0  0  0  0  0  0
   46.4040   33.9650   44.6760 C   0  0  0  0  0  0  0  0  0  0  0  0
   45.3900   32.6910   43.2960 H   0  0  0  0  0  0  0  0  0  0  0  0
   45.4040   34.9820   41.6970 H   0  0  0  0  0  0  0  0  0  0  0  0
   44.1130   36.5690   43.0970 H   0  0  0  0  0  0  0  0  0  0  0  0
   45.8780   36.5300   43.3940 H   0  0  0  0  0  0  0  0  0  0  0  0
   43.5450   35.7930   45.1840 H   0  0  0  0  0  0  0  0  0  0  0  0
   45.0870   36.5850   45.5190 H   0  0  0  0  0  0  0  0  0  0  0  0
   45.6010   34.5840   46.5700 H   0  0  0  0  0  0  0  0  0  0  0  0
   44.4840   33.6740   45.4990 H   0  0  0  0  0  0  0  0  0  0  0  0
   46.6540   32.9550   45.1270 H   0  0  0  0  0  0  0  0  0  0  0  0
   47.3000   34.5580   44.7910 H   0  0  0  0  0  0  0  0  0  0  0  0
   42.7750   34.8480   41.5440 C   0  0  1  0  0  0  0  0  0  0  0  0
   43.6460   34.1020   42.4850 C   0  0  1  0  0  0  0  0  0  0  0  0
   43.8110   32.8060   42.0070 O   0  0  0  0  0  0  0  0  0  0  0  0
   43.4870   32.7940   40.6670 C   0  0  0  0  0  0  0  0  0  0  0  0
   42.2820   33.7160   40.6380 C   0  0  2  0  0  0  0  0  0  0  0  0
   43.3210   35.5730   40.8970 H   0  0  0  0  0  0  0  0  0  0  0  0
   43.1150   33.9960   43.4600 H   0  0  0  0  0  0  0  0  0  0  0  0
   43.1290   31.7810   40.4080 H   0  0  0  0  0  0  0  0  0  0  0  0
   44.2810   33.1820   40.0080 H   0  0  0  0  0  0  0  0  0  0  0  0
   41.3900   33.2360   41.0510 H   0  0  0  0  0  0  0  0  0  0  0  0
   41.6810   35.4390   42.1350 O   0  0  0  0  0  0  0  0  0  0  0  0
   41.8100   36.4250   42.1460 H   0  0  0  0  0  0  0  0  0  0  0  0
   42.0230   34.2030   39.3660 O   0  0  0  0  0  0  0  0  0  0  0  0
   40.8830   33.7360   38.7240 C   0  0  0  0  0  0  0  0  0  0  0  0
   39.9090   34.6040   38.2730 C   0  0  0  0  0  0  0  0  0  0  0  0
   38.7400   34.2300   37.6230 C   0  0  0  0  0  0  0  0  0  0  0  0
   38.0450   34.9900   37.3130 H   0  0  0  0  0  0  0  0  0  0  0  0
   38.5530   32.9090   37.4190 N   0  0  0  0  0  0  0  0  0  0  0  0
   39.4890   32.0430   37.8490 C   0  0  0  0  0  0  0  0  0  0  0  0
   40.6160   32.4210   38.4780 N   0  0  0  0  0  0  0  0  0  0  0  0
   47.1200   33.4400   42.4270 C   0  0  0  0  0  0  0  0  0  0  0  0
   48.3240   33.9180   42.9460 C   0  0  0  0  0  0  0  0  0  0  0  0
   49.5190   33.7450   42.2300 C   0  0  0  0  0  0  0  0  0  0  0  0
   49.3980   33.0850   41.0130 N   0  0  0  0  0  0  0  0  0  0  0  0
   48.2110   32.6380   40.5460 C   0  0  0  0  0  0  0  0  0  0  0  0
   47.0710   32.8140   41.2500 N   0  0  0  0  0  0  0  0  0  0  0  0
   48.5700   34.4470   43.8530 H   0  0  0  0  0  0  0  0  0  0  0  0
   50.4990   34.0560   42.5040 H   0  0  0  0  0  0  0  0  0  0  0  0
   48.2100   32.1360   39.5880 H   0  0  0  0  0  0  0  0  0  0  0  0
  1  7  1  1  0  0  0
  1  6  1  0  0  0  0
  2  8  1  6  0  0  0
  2  1  1  0  0  0  0
  2  3  1  0  0  0  0
  3  4  1  0  0  0  0
  4 11  1  0  0  0  0
  4 12  1  0  0  0  0
  4  5  1  0  0  0  0
  5 13  1  0  0  0  0
  6 16  1  0  0  0  0
  6 15  1  0  0  0  0
  6  5  1  0  0  0  0
  9  3  1  0  0  0  0
 10  3  1  0  0  0  0
 14  5  1  0  0  0  0
 17 22  1  6  0  0  0
 17 27  1  0  0  0  0
 17 18  1  0  0  0  0
 18  2  1  0  0  0  0
 18 23  1  1  0  0  0
 19 18  1  0  0  0  0
 20 19  1  0  0  0  0
 21 20  1  0  0  0  0
 21 26  1  1  0  0  0
 21 17  1  0  0  0  0
 24 20  1  0  0  0  0
 25 20  1  0  0  0  0
 27 28  1  0  0  0  0
 29 21  1  0  0  0  0
 30 29  1  0  0  0  0
 31 30  2  0  0  0  0
 32 31  1  0  0  0  0
 33 32  1  0  0  0  0
 34 32  2  0  0  0  0
 34 35  1  0  0  0  0
 35 36  2  0  0  0  0
 36 30  1  0  0  0  0
 37 38  1  0  0  0  0
 37  1  1  0  0  0  0
 38 43  1  0  0  0  0
 39 44  1  0  0  0  0
 39 38  2  0  0  0  0
 40 39  1  0  0  0  0
 41 40  2  0  0  0  0
 41 42  1  0  0  0  0
 42 37  2  0  0  0  0
 45 41  1  0  0  0  0
M  END
>  <minimizedAffinity>
-5.87399769

>  <minimizedRMSD>
1.34701252

$$$$
