
 OpenBabel03252509293D

 19 20  0  0  0  0  0  0  0  0999 V2000
   47.5800   35.1160   41.8890 C   0  0  0  0  0  0  0  0  0  0  0  0
   48.5750   34.7360   42.2020 H   0  0  0  0  0  0  0  0  0  0  0  0
   47.7620   36.2110   41.6930 H   0  0  0  0  0  0  0  0  0  0  0  0
   44.7120   35.7160   44.1860 C   0  0  0  0  0  0  0  0  0  0  0  0
   45.6250   35.8650   43.1090 C   0  0  0  0  0  0  0  0  0  0  0  0
   46.6540   34.9420   43.0040 C   0  0  0  0  0  0  0  0  0  0  0  0
   46.7460   33.9420   43.9300 N   0  0  0  0  0  0  0  0  0  0  0  0
   45.8540   33.8390   44.9380 C   0  0  0  0  0  0  0  0  0  0  0  0
   44.8470   34.7180   45.0640 N   0  0  0  0  0  0  0  0  0  0  0  0
   43.9260   36.4600   44.2240 H   0  0  0  0  0  0  0  0  0  0  0  0
   45.5040   36.6680   42.4130 H   0  0  0  0  0  0  0  0  0  0  0  0
   46.0140   33.0010   45.6290 H   0  0  0  0  0  0  0  0  0  0  0  0
   47.2150   34.4130   40.6450 C   0  0  0  0  0  0  0  0  0  0  0  0
   45.9760   33.8070   40.5570 C   0  0  0  0  0  3  0  0  0  0  0  0
   45.5450   33.1200   39.4200 C   0  0  0  0  0  0  0  0  0  0  0  0
   44.6010   32.6400   39.3100 H   0  0  0  0  0  0  0  0  0  0  0  0
   46.3810   33.0530   38.3730 N   0  0  0  0  0  0  0  0  0  0  0  0
   47.5850   33.6400   38.4540 C   0  0  0  0  0  3  0  0  0  0  0  0
   48.0290   34.3160   39.5530 N   0  0  0  0  0  0  0  0  0  0  0  0
  1  2  1  0  0  0  0
  1  6  1  0  0  0  0
  3  1  1  0  0  0  0
  4 10  1  0  0  0  0
  4  9  1  0  0  0  0
  5  4  2  0  0  0  0
  6  5  1  0  0  0  0
  6  7  2  0  0  0  0
  7  8  1  0  0  0  0
  8  9  2  0  0  0  0
  8 12  1  0  0  0  0
 11  5  1  0  0  0  0
 13  1  1  0  0  0  0
 14 13  1  0  0  0  0
 15 14  2  0  0  0  0
 16 15  1  0  0  0  0
 17 18  2  0  0  0  0
 17 15  1  0  0  0  0
 18 19  1  0  0  0  0
 19 13  2  0  0  0  0
M  END
>  <minimizedAffinity>
-3.88848424

>  <minimizedRMSD>
1.09855235

$$$$
