
 OpenBabel03252509313D

 25 26  0  0  0  0  0  0  0  0999 V2000
   48.2200   33.2940   43.1170 O   0  0  0  0  0  0  0  0  0  0  0  0
   47.1220   34.0300   42.6620 C   0  0  0  0  0  0  0  0  0  0  0  0
   47.4000   34.9310   42.0860 H   0  0  0  0  0  0  0  0  0  0  0  0
   46.5030   33.4100   41.9490 H   0  0  0  0  0  0  0  0  0  0  0  0
   45.3870   34.0130   45.9770 C   0  0  0  0  0  0  0  0  0  0  0  0
   46.2430   33.6380   44.9310 C   0  0  0  0  0  0  0  0  0  0  0  0
   46.2370   34.3990   43.7720 C   0  0  0  0  0  0  0  0  0  0  0  0
   45.4010   35.4750   43.7050 N   0  0  0  0  0  0  0  0  0  0  0  0
   44.5790   35.8180   44.7390 C   0  0  0  0  0  0  0  0  0  0  0  0
   44.5840   35.0830   45.8570 N   0  0  0  0  0  0  0  0  0  0  0  0
   45.4430   33.3690   46.8630 H   0  0  0  0  0  0  0  0  0  0  0  0
   46.8900   32.7630   45.0450 H   0  0  0  0  0  0  0  0  0  0  0  0
   43.9170   36.6630   44.6950 H   0  0  0  0  0  0  0  0  0  0  0  0
   50.6090   32.8170   42.1650 O   0  0  0  0  0  0  0  0  0  0  0  0
   49.5720   33.9050   42.3200 P   0  0  2  0  0  0  0  0  0  0  0  0
   50.1520   35.2160   43.2010 O   0  0  0  0  0  0  0  0  0  0  0  0
   51.1220   35.1560   43.2870 H   0  0  0  0  0  0  0  0  0  0  0  0
   49.1040   34.3770   40.7750 O   0  0  0  0  0  0  0  0  0  0  0  0
   48.5570   33.4400   39.9120 C   0  0  0  0  0  0  0  0  0  0  0  0
   47.7270   33.9350   38.9010 C   0  0  0  0  0  3  0  0  0  0  0  0
   47.1330   33.0730   37.9890 C   0  0  0  0  0  0  0  0  0  0  0  0
   46.4770   33.4400   37.1860 H   0  0  0  0  0  0  0  0  0  0  0  0
   47.3940   31.7530   38.1230 N   0  0  0  0  0  0  0  0  0  0  0  0
   48.1960   31.3100   39.1060 C   0  0  0  0  0  3  0  0  0  0  0  0
   48.7700   32.1220   39.9840 N   0  0  0  0  0  0  0  0  0  0  0  0
  2  1  1  0  0  0  0
  2  7  1  0  0  0  0
  3  2  1  0  0  0  0
  4  2  1  0  0  0  0
  5 11  1  0  0  0  0
  6 12  1  0  0  0  0
  6  5  2  0  0  0  0
  7  6  1  0  0  0  0
  8  7  2  0  0  0  0
  8  9  1  0  0  0  0
  9 10  2  0  0  0  0
 10  5  1  0  0  0  0
 13  9  1  0  0  0  0
 15 14  2  6  0  0  0
 15  1  1  0  0  0  0
 15 16  1  0  0  0  0
 16 17  1  0  0  0  0
 18 15  1  0  0  0  0
 19 25  1  0  0  0  0
 19 18  1  0  0  0  0
 20 19  2  0  0  0  0
 21 23  2  0  0  0  0
 21 20  1  0  0  0  0
 22 21  1  0  0  0  0
 23 24  1  0  0  0  0
 24 25  2  0  0  0  0
M  END
>  <minimizedAffinity>
-4.60382223

>  <minimizedRMSD>
0.69123894

$$$$
