
 OpenBabel03252506233D

 29 31  0  0  0  0  0  0  0  0999 V2000
   46.2390   32.9550   45.6930 C   0  0  0  0  0  0  0  0  0  0  0  0
   47.1760   31.9730   45.3140 C   0  0  0  0  0  0  0  0  0  0  0  0
   47.3150   31.1140   46.3430 C   0  0  0  0  0  0  0  0  0  0  0  0
   46.4960   31.5390   47.3280 N   0  0  0  0  0  0  0  0  0  0  0  0
   45.8570   32.6370   46.9330 N   0  0  0  0  0  0  0  0  0  0  0  0
   47.6890   31.9310   44.3590 H   0  0  0  0  0  0  0  0  0  0  0  0
   47.9900   30.2490   46.3100 H   0  0  0  0  0  0  0  0  0  0  0  0
   44.4720   35.9610   44.5640 C   0  0  0  0  0  0  0  0  0  0  0  0
   45.0290   36.1740   43.2920 C   0  0  0  0  0  0  0  0  0  0  0  0
   46.0030   35.2810   42.8410 C   0  0  0  0  0  0  0  0  0  0  0  0
   46.3570   34.2530   43.6600 N   0  0  0  0  0  0  0  0  0  0  0  0
   45.8070   34.0740   44.8680 C   0  0  0  0  0  0  0  0  0  0  0  0
   44.8700   34.9210   45.3230 N   0  0  0  0  0  0  0  0  0  0  0  0
   43.7100   36.6380   44.9470 H   0  0  0  0  0  0  0  0  0  0  0  0
   44.7230   36.9960   42.6790 H   0  0  0  0  0  0  0  0  0  0  0  0
   46.4770   35.3800   41.8750 H   0  0  0  0  0  0  0  0  0  0  0  0
   46.3960   30.8490   48.5880 C   0  0  0  0  0  0  0  0  0  0  0  0
   46.4810   31.6140   49.3910 H   0  0  0  0  0  0  0  0  0  0  0  0
   47.2190   30.1150   48.7130 H   0  0  0  0  0  0  0  0  0  0  0  0
   45.0870   30.1430   48.6310 C   0  0  0  0  0  0  0  0  0  0  0  0
   44.2710   30.9170   48.5430 H   0  0  0  0  0  0  0  0  0  0  0  0
   44.9870   29.7000   49.6590 H   0  0  0  0  0  0  0  0  0  0  0  0
   44.9150   29.1300   47.5830 C   0  0  0  0  0  0  0  0  0  0  0  0
   45.6310   27.9660   47.8270 C   0  0  0  0  0  0  0  0  0  0  0  0
   45.5840   26.9020   46.9380 C   0  0  0  0  0  0  0  0  0  0  0  0
   46.1290   25.9630   47.0830 H   0  0  0  0  0  0  0  0  0  0  0  0
   44.8250   27.0050   45.8090 N   0  0  0  0  0  0  0  0  0  0  0  0
   44.1440   28.1460   45.6040 C   0  0  0  0  0  0  0  0  0  0  0  0
   44.1780   29.1760   46.4460 N   0  0  0  0  0  0  0  0  0  0  0  0
  1  5  2  0  0  0  0
  2  1  1  0  0  0  0
  2  3  2  0  0  0  0
  3  4  1  0  0  0  0
  4 17  1  0  0  0  0
  5  4  1  0  0  0  0
  6  2  1  0  0  0  0
  7  3  1  0  0  0  0
  8 14  1  0  0  0  0
  8 13  1  0  0  0  0
  9  8  2  0  0  0  0
 10  9  1  0  0  0  0
 10 11  2  0  0  0  0
 11 12  1  0  0  0  0
 12 13  2  0  0  0  0
 12  1  1  0  0  0  0
 15  9  1  0  0  0  0
 16 10  1  0  0  0  0
 17 20  1  0  0  0  0
 17 19  1  0  0  0  0
 17 18  1  0  0  0  0
 20 22  1  0  0  0  0
 21 20  1  0  0  0  0
 23 24  1  0  0  0  0
 23 20  1  0  0  0  0
 25 26  1  0  0  0  0
 25 24  2  0  0  0  0
 27 25  1  0  0  0  0
 28 27  2  0  0  0  0
 28 29  1  0  0  0  0
 29 23  2  0  0  0  0
M  END
>  <minimizedAffinity>
-4.60031557

>  <minimizedRMSD>
1.72385335

$$$$
