
 OpenBabel03252507583D

 25 27  0  0  1  0  0  0  0  0999 V2000
   46.5600   32.4520   46.0310 C   0  0  1  0  0  0  0  0  0  0  0  0
   46.9210   32.7090   47.4530 C   0  0  0  0  0  0  0  0  0  0  0  0
   45.5860   32.1430   47.1280 C   0  0  2  0  0  0  0  0  0  0  0  0
   47.1550   31.7090   45.4950 H   0  0  0  0  0  0  0  0  0  0  0  0
   46.9230   33.7780   47.7750 H   0  0  0  0  0  0  0  0  0  0  0  0
   47.7270   32.1100   47.8710 H   0  0  0  0  0  0  0  0  0  0  0  0
   44.6960   32.7630   47.2650 H   0  0  0  0  0  0  0  0  0  0  0  0
   46.3390   34.7550   43.1870 C   0  0  0  0  0  0  0  0  0  0  0  0
   45.3270   35.6630   43.5700 C   0  0  0  0  0  0  0  0  0  0  0  0
   44.7180   35.4650   44.8220 C   0  0  0  0  0  0  0  0  0  0  0  0
   45.1370   34.4200   45.5840 N   0  0  0  0  0  0  0  0  0  0  0  0
   46.1220   33.5810   45.1500 C   0  0  0  0  0  0  0  0  0  0  0  0
   46.7280   33.7280   43.9730 N   0  0  0  0  0  0  0  0  0  0  0  0
   45.0070   36.4750   42.9670 H   0  0  0  0  0  0  0  0  0  0  0  0
   43.9400   36.1230   45.1700 H   0  0  0  0  0  0  0  0  0  0  0  0
   46.9170   35.0230   41.9050 C   0  0  0  0  0  0  0  0  0  0  0  0
   48.1040   35.4190   41.6990 O   0  0  0  0  0  0  0  0  0  0  0  0
   46.1860   34.8360   41.1150 H   0  0  0  0  0  0  0  0  0  0  0  0
   45.3540   30.6690   47.3040 C   0  0  0  0  0  0  0  0  0  0  0  0
   45.2220   30.1120   48.5680 C   0  0  0  0  0  3  0  0  0  0  0  0
   45.0120   28.7510   48.6270 C   0  0  0  0  0  0  0  0  0  0  0  0
   44.9100   28.3220   49.6200 H   0  0  0  0  0  0  0  0  0  0  0  0
   44.9280   27.9450   47.5530 N   0  0  0  0  0  0  0  0  0  0  0  0
   45.0600   28.5200   46.3430 C   0  0  0  0  0  3  0  0  0  0  0  0
   45.2660   29.8450   46.2390 N   0  0  0  0  0  0  0  0  0  0  0  0
  1  4  1  6  0  0  0
  1  3  1  0  0  0  0
  1  2  1  0  0  0  0
  2  5  1  0  0  0  0
  2  6  1  0  0  0  0
  3  7  1  1  0  0  0
  3 19  1  0  0  0  0
  3  2  1  0  0  0  0
  8  9  2  0  0  0  0
  8 13  1  0  0  0  0
  9 10  1  0  0  0  0
 10 15  1  0  0  0  0
 10 11  2  0  0  0  0
 12 11  1  0  0  0  0
 12  1  1  0  0  0  0
 13 12  2  0  0  0  0
 14  9  1  0  0  0  0
 16  8  1  0  0  0  0
 17 16  2  0  0  0  0
 18 16  1  0  0  0  0
 19 20  1  0  0  0  0
 20 21  2  0  0  0  0
 21 22  1  0  0  0  0
 23 21  1  0  0  0  0
 24 23  2  0  0  0  0
 25 24  1  0  0  0  0
 25 19  2  0  0  0  0
M  END
>  <minimizedAffinity>
-4.45691776

>  <minimizedRMSD>
1.08132029

$$$$
