
 OpenBabel03242517553D

 41 43  0  0  0  0  0  0  0  0999 V2000
   46.5010   31.3420   45.3860 O   0  0  0  0  0  0  0  0  0  0  0  0
   45.4620   30.1770   47.2940 C   0  0  0  0  0  0  0  0  0  0  0  0
   46.0540   31.2390   46.7020 C   0  0  0  0  0  0  0  0  0  0  0  0
   46.2630   32.3750   47.4590 C   0  0  0  0  0  0  0  0  0  0  0  0
   45.8950   32.4660   48.7810 C   0  0  0  0  0  0  0  0  0  0  0  0
   45.2940   31.3760   49.3720 C   0  0  0  0  0  0  0  0  0  0  0  0
   45.0820   30.2330   48.6160 C   0  0  0  0  0  0  0  0  0  0  0  0
   46.7280   33.2670   47.0640 H   0  0  0  0  0  0  0  0  0  0  0  0
   46.0580   33.3540   49.3770 H   0  0  0  0  0  0  0  0  0  0  0  0
   44.9970   31.4260   50.4110 H   0  0  0  0  0  0  0  0  0  0  0  0
   44.6120   29.3680   49.0640 H   0  0  0  0  0  0  0  0  0  0  0  0
   45.1310   28.8100   46.2530 S   0  0  0  0  0  0  0  0  0  0  0  0
   44.1960   29.0910   45.1550 O   0  0  0  0  0  0  0  0  0  0  0  0
   44.3990   27.7860   47.1530 O   0  0  0  0  0  0  0  0  0  0  0  0
   46.5800   27.9190   45.8450 C   0  0  0  0  0  0  0  0  0  0  0  0
   47.0110   27.7120   44.5550 C   0  0  0  0  0  0  0  0  0  0  0  0
   48.1690   26.9920   44.3790 C   0  0  0  0  0  0  0  0  0  0  0  0
   48.4950   26.8370   43.3600 H   0  0  0  0  0  0  0  0  0  0  0  0
   48.8830   26.4930   45.4020 N   0  0  0  0  0  0  0  0  0  0  0  0
   48.4340   26.7130   46.6630 C   0  0  0  0  0  0  0  0  0  0  0  0
   47.3000   27.4160   46.8620 N   0  0  0  0  0  0  0  0  0  0  0  0
   45.3020   34.2470   43.7780 C   0  0  0  0  0  0  0  0  0  0  0  0
   46.4590   34.7480   43.1540 C   0  0  0  0  0  0  0  0  0  0  0  0
   47.6440   34.0750   43.2940 C   0  0  0  0  0  0  0  0  0  0  0  0
   47.6080   32.9580   44.0400 N   0  0  0  0  0  0  0  0  0  0  0  0
   46.5200   32.4880   44.6260 C   0  0  0  0  0  0  0  0  0  0  0  0
   45.3650   33.1320   44.4960 N   0  0  0  0  0  0  0  0  0  0  0  0
   44.3750   34.7830   43.6610 H   0  0  0  0  0  0  0  0  0  0  0  0
   46.3370   35.6520   42.5850 H   0  0  0  0  0  0  0  0  0  0  0  0
   48.9080   34.4850   42.6670 C   0  0  0  0  0  0  0  0  0  0  0  0
   49.2930   33.6230   42.0750 H   0  0  0  0  0  0  0  0  0  0  0  0
   49.6760   34.6800   43.4300 H   0  0  0  0  0  0  0  0  0  0  0  0
   48.7360   35.6470   41.7350 C   0  0  0  0  0  0  0  0  0  0  0  0
   49.7280   36.2040   41.7980 H   0  0  0  0  0  0  0  0  0  0  0  0
   48.0000   36.3960   42.0230 H   0  0  0  0  0  0  0  0  0  0  0  0
   48.6110   35.2630   40.3290 C   0  0  0  0  0  0  0  0  0  0  0  0
   48.0460   34.3510   39.5470 C   0  0  0  0  0  0  0  0  0  0  0  0
   48.2250   34.2000   38.0480 C   0  0  0  0  0  0  0  0  0  0  0  0
   47.2660   34.5080   37.5860 H   0  0  0  0  0  0  0  0  0  0  0  0
   48.4460   33.1220   37.8770 H   0  0  0  0  0  0  0  0  0  0  0  0
   49.0420   34.8670   37.7130 H   0  0  0  0  0  0  0  0  0  0  0  0
  1  3  1  0  0  0  0
  2  7  1  0  0  0  0
  3  2  2  0  0  0  0
  3  4  1  0  0  0  0
  4  5  2  0  0  0  0
  5  6  1  0  0  0  0
  5  9  1  0  0  0  0
  6 10  1  0  0  0  0
  7 11  1  0  0  0  0
  7  6  2  0  0  0  0
  8  4  1  0  0  0  0
 12 14  2  0  0  0  0
 12  2  1  0  0  0  0
 13 12  2  0  0  0  0
 15 12  1  0  0  0  0
 15 21  1  0  0  0  0
 16 15  2  0  0  0  0
 17 16  1  0  0  0  0
 17 19  2  0  0  0  0
 18 17  1  0  0  0  0
 19 20  1  0  0  0  0
 20 21  2  0  0  0  0
 22 27  1  0  0  0  0
 23 24  1  0  0  0  0
 23 22  2  0  0  0  0
 24 25  2  0  0  0  0
 25 26  1  0  0  0  0
 26  1  1  0  0  0  0
 27 26  2  0  0  0  0
 28 22  1  0  0  0  0
 29 23  1  0  0  0  0
 30 24  1  0  0  0  0
 30 32  1  0  0  0  0
 31 30  1  0  0  0  0
 33 34  1  0  0  0  0
 33 35  1  0  0  0  0
 33 30  1  0  0  0  0
 36 33  1  0  0  0  0
 37 36  2  0  0  0  0
 38 37  1  0  0  0  0
 39 38  1  0  0  0  0
 40 38  1  0  0  0  0
 41 38  1  0  0  0  0
M  END
>  <minimizedAffinity>
-5.56194687

>  <minimizedRMSD>
1.27822292

$$$$
