
 OpenBabel03242518013D

 35 37  0  0  0  0  0  0  0  0999 V2000
   46.3250   31.6720   45.6760 C   0  0  0  0  0  0  0  0  0  0  0  0
   45.3350   32.0130   46.0080 H   0  0  0  0  0  0  0  0  0  0  0  0
   46.1320   30.6830   45.1810 H   0  0  0  0  0  0  0  0  0  0  0  0
   47.4190   32.4220   47.7840 C   0  0  0  0  0  0  0  0  0  0  0  0
   47.2120   31.4360   46.8050 C   0  0  0  0  0  0  0  0  0  0  0  0
   47.9000   30.2280   46.9700 C   0  0  0  0  0  0  0  0  0  0  0  0
   48.7080   30.0740   48.0370 N   0  0  0  0  0  0  0  0  0  0  0  0
   48.8890   31.0310   48.9570 C   0  0  0  0  0  0  0  0  0  0  0  0
   48.2450   32.1960   48.8230 N   0  0  0  0  0  0  0  0  0  0  0  0
   46.9280   33.3850   47.7340 H   0  0  0  0  0  0  0  0  0  0  0  0
   47.7620   29.4460   46.2330 H   0  0  0  0  0  0  0  0  0  0  0  0
   49.7820   30.7910   50.0860 C   0  0  0  0  0  0  0  0  0  0  0  0
   50.5500   31.8130   50.6050 C   0  0  0  0  0  0  0  0  0  0  0  0
   51.3570   31.4740   51.6720 C   0  0  0  0  0  0  0  0  0  0  0  0
   51.9680   32.2480   52.0980 H   0  0  0  0  0  0  0  0  0  0  0  0
   51.4450   30.2460   52.2240 N   0  0  0  0  0  0  0  0  0  0  0  0
   50.6620   29.2760   51.6680 C   0  0  0  0  0  0  0  0  0  0  0  0
   49.8650   29.5680   50.6320 N   0  0  0  0  0  0  0  0  0  0  0  0
   47.0250   32.6270   44.7330 C   0  0  0  0  0  0  0  0  0  0  0  0
   48.0180   32.9720   45.1480 H   0  0  0  0  0  0  0  0  0  0  0  0
   47.3070   32.0350   43.8350 H   0  0  0  0  0  0  0  0  0  0  0  0
   46.5170   34.5080   43.2270 C   0  0  0  0  0  0  0  0  0  0  0  0
   46.2670   33.8430   44.4090 C   0  0  0  0  0  0  0  0  0  0  0  0
   45.3280   34.2530   45.3150 C   0  0  0  0  0  0  0  0  0  0  0  0
   44.5940   35.3890   45.0330 C   0  0  0  0  0  0  0  0  0  0  0  0
   44.7790   36.1060   43.8870 C   0  0  0  0  0  0  0  0  0  0  0  0
   45.7490   35.6320   43.0130 C   0  0  0  0  0  0  0  0  0  0  0  0
   45.0590   33.8180   46.2550 H   0  0  0  0  0  0  0  0  0  0  0  0
   43.8230   35.7950   45.6940 H   0  0  0  0  0  0  0  0  0  0  0  0
   44.2270   36.9910   43.6410 H   0  0  0  0  0  0  0  0  0  0  0  0
   45.9170   36.1830   42.0950 H   0  0  0  0  0  0  0  0  0  0  0  0
   47.7160   34.0140   42.0500 S   0  0  0  0  0  0  0  0  0  0  0  0
   49.0750   34.6130   42.3410 O   0  0  0  0  0  0  0  0  0  0  0  0
   47.3350   34.5860   40.7080 O   0  0  0  0  0  0  0  0  0  0  0  0
   47.7980   32.6790   41.8780 H   0  0  0  0  0  0  0  0  0  0  0  0
  1  2  1  0  0  0  0
  1  5  1  0  0  0  0
  3  1  1  0  0  0  0
  4  9  1  0  0  0  0
  5  6  1  0  0  0  0
  5  4  2  0  0  0  0
  6  7  2  0  0  0  0
  7  8  1  0  0  0  0
  8 12  1  0  0  0  0
  9  8  2  0  0  0  0
 10  4  1  0  0  0  0
 11  6  1  0  0  0  0
 12 13  2  0  0  0  0
 12 18  1  0  0  0  0
 13 14  1  0  0  0  0
 14 15  1  0  0  0  0
 14 16  2  0  0  0  0
 17 16  1  0  0  0  0
 18 17  2  0  0  0  0
 19 20  1  0  0  0  0
 19  1  1  0  0  0  0
 21 19  1  0  0  0  0
 22 23  1  0  0  0  0
 23 19  1  0  0  0  0
 23 24  2  0  0  0  0
 24 28  1  0  0  0  0
 25 24  1  0  0  0  0
 25 29  1  0  0  0  0
 26 25  2  0  0  0  0
 27 22  2  0  0  0  0
 27 26  1  0  0  0  0
 30 26  1  0  0  0  0
 31 27  1  0  0  0  0
 32 33  2  0  0  0  0
 32 22  1  0  0  0  0
 34 32  2  0  0  0  0
 35 32  1  0  0  0  0
M  END
>  <minimizedAffinity>
-5.92420959

>  <minimizedRMSD>
0.680055499

$$$$
