
 OpenBabel03242520173D

 23 25  0  0  0  0  0  0  0  0999 V2000
   36.9250   28.6210   42.1700 C   0  0  0  0  0  0  0  0  0  0  0  0
   37.7930   29.7180   42.0130 C   0  0  0  0  0  0  0  0  0  0  0  0
   37.4660   30.6680   41.0250 C   0  0  0  0  0  0  0  0  0  0  0  0
   36.3400   30.4810   40.2790 N   0  0  0  0  0  0  0  0  0  0  0  0
   35.5370   29.4030   40.4730 C   0  0  0  0  0  0  0  0  0  0  0  0
   35.8350   28.4730   41.4230 N   0  0  0  0  0  0  0  0  0  0  0  0
   38.6650   29.8500   42.5990 H   0  0  0  0  0  0  0  0  0  0  0  0
   34.6700   29.3660   39.8180 H   0  0  0  0  0  0  0  0  0  0  0  0
   37.2330   27.6050   43.2000 C   0  0  0  0  0  0  0  0  0  0  0  0
   37.9930   26.3710   42.6480 C   0  0  0  0  0  0  0  0  0  0  0  0
   38.5760   27.3180   43.6530 C   0  0  0  0  0  0  0  0  0  0  0  0
   36.3660   27.3520   43.8510 H   0  0  0  0  0  0  0  0  0  0  0  0
   37.7290   25.3850   43.0960 H   0  0  0  0  0  0  0  0  0  0  0  0
   38.3280   26.4160   41.6070 H   0  0  0  0  0  0  0  0  0  0  0  0
   39.4450   27.9000   43.2610 H   0  0  0  0  0  0  0  0  0  0  0  0
   38.7300   26.9830   44.7170 H   0  0  0  0  0  0  0  0  0  0  0  0
   38.2770   31.8440   40.7600 C   0  0  0  0  0  0  0  0  0  0  0  0
   37.7750   33.0400   40.2960 C   0  0  0  0  0  3  0  0  0  0  0  0
   38.5180   34.1590   40.0400 C   0  0  0  0  0  0  0  0  0  0  0  0
   38.0770   35.0780   39.6760 H   0  0  0  0  0  0  0  0  0  0  0  0
   39.8490   34.0880   40.2610 N   0  0  0  0  0  0  0  0  0  0  0  0
   40.3650   32.9110   40.7230 C   0  0  0  0  0  3  0  0  0  0  0  0
   39.6060   31.8320   40.9620 N   0  0  0  0  0  0  0  0  0  0  0  0
  1  9  1  0  0  0  0
  2  1  1  0  0  0  0
  2  7  1  0  0  0  0
  3  2  2  0  0  0  0
  4  5  2  0  0  0  0
  4  3  1  0  0  0  0
  5  6  1  0  0  0  0
  6  1  2  0  0  0  0
  8  5  1  0  0  0  0
  9 11  1  0  0  0  0
  9 12  1  0  0  0  0
 10 13  1  0  0  0  0
 10  9  1  0  0  0  0
 10 11  1  0  0  0  0
 11 16  1  0  0  0  0
 14 10  1  0  0  0  0
 15 11  1  0  0  0  0
 17 23  1  0  0  0  0
 17  3  1  0  0  0  0
 18 17  2  0  0  0  0
 19 21  2  0  0  0  0
 19 18  1  0  0  0  0
 20 19  1  0  0  0  0
 21 22  1  0  0  0  0
 22 23  2  0  0  0  0
M  END
>  <minimizedAffinity>
-4.6096158

$$$$

 OpenBabel03242520173D

 23 25  0  0  0  0  0  0  0  0999 V2000
   37.7450   29.5570   42.3760 C   0  0  0  0  0  0  0  0  0  0  0  0
   38.8940   30.3290   42.1160 C   0  0  0  0  0  0  0  0  0  0  0  0
   38.7690   31.3900   41.1970 C   0  0  0  0  0  0  0  0  0  0  0  0
   37.5580   31.6140   40.6120 N   0  0  0  0  0  0  0  0  0  0  0  0
   36.4810   30.8390   40.9000 C   0  0  0  0  0  0  0  0  0  0  0  0
   36.5800   29.8080   41.7850 N   0  0  0  0  0  0  0  0  0  0  0  0
   39.8290   30.1420   42.5770 H   0  0  0  0  0  0  0  0  0  0  0  0
   35.5730   31.1170   40.3700 H   0  0  0  0  0  0  0  0  0  0  0  0
   37.8360   28.4380   43.3380 C   0  0  0  0  0  0  0  0  0  0  0  0
   37.6200   27.0450   42.6920 C   0  0  0  0  0  0  0  0  0  0  0  0
   38.9100   27.4690   43.3270 C   0  0  0  0  0  0  0  0  0  0  0  0
   37.2520   28.6030   44.2720 H   0  0  0  0  0  0  0  0  0  0  0  0
   37.0710   26.2940   43.3070 H   0  0  0  0  0  0  0  0  0  0  0  0
   37.5420   27.0070   41.6010 H   0  0  0  0  0  0  0  0  0  0  0  0
   39.7520   27.5620   42.5990 H   0  0  0  0  0  0  0  0  0  0  0  0
   39.2350   27.0080   44.3010 H   0  0  0  0  0  0  0  0  0  0  0  0
   39.8760   32.2610   40.8400 C   0  0  0  0  0  0  0  0  0  0  0  0
   41.1780   32.0600   41.2430 C   0  0  0  0  0  3  0  0  0  0  0  0
   42.2340   32.8640   40.9190 C   0  0  0  0  0  0  0  0  0  0  0  0
   43.2420   32.6640   41.2600 H   0  0  0  0  0  0  0  0  0  0  0  0
   41.9840   33.9410   40.1430 N   0  0  0  0  0  0  0  0  0  0  0  0
   40.7000   34.1570   39.7330 C   0  0  0  0  0  3  0  0  0  0  0  0
   39.6870   33.3460   40.0690 N   0  0  0  0  0  0  0  0  0  0  0  0
  1  9  1  0  0  0  0
  2  1  1  0  0  0  0
  2  7  1  0  0  0  0
  3  2  2  0  0  0  0
  4  5  2  0  0  0  0
  4  3  1  0  0  0  0
  5  6  1  0  0  0  0
  6  1  2  0  0  0  0
  8  5  1  0  0  0  0
  9 12  1  0  0  0  0
 10 13  1  0  0  0  0
 10 11  1  0  0  0  0
 10  9  1  0  0  0  0
 11  9  1  0  0  0  0
 11 16  1  0  0  0  0
 14 10  1  0  0  0  0
 15 11  1  0  0  0  0
 17  3  1  0  0  0  0
 17 18  1  0  0  0  0
 19 18  2  0  0  0  0
 19 20  1  0  0  0  0
 21 19  1  0  0  0  0
 22 23  1  0  0  0  0
 22 21  2  0  0  0  0
 23 17  2  0  0  0  0
M  END
>  <minimizedAffinity>
-4.35501146

$$$$

 OpenBabel03242520173D

 23 25  0  0  0  0  0  0  0  0999 V2000
   37.2080   27.0450   41.6160 C   0  0  0  0  0  0  0  0  0  0  0  0
   37.4090   28.2610   40.9360 C   0  0  0  0  0  0  0  0  0  0  0  0
   37.6480   29.4100   41.7170 C   0  0  0  0  0  0  0  0  0  0  0  0
   37.6710   29.2890   43.0750 N   0  0  0  0  0  0  0  0  0  0  0  0
   37.4710   28.0900   43.6800 C   0  0  0  0  0  0  0  0  0  0  0  0
   37.2390   26.9670   42.9430 N   0  0  0  0  0  0  0  0  0  0  0  0
   37.3860   28.3400   39.8800 H   0  0  0  0  0  0  0  0  0  0  0  0
   37.5140   28.1220   44.7660 H   0  0  0  0  0  0  0  0  0  0  0  0
   36.9590   25.8170   40.8300 C   0  0  0  0  0  0  0  0  0  0  0  0
   38.2110   24.9160   40.6730 C   0  0  0  0  0  0  0  0  0  0  0  0
   36.9750   24.4910   41.4070 C   0  0  0  0  0  0  0  0  0  0  0  0
   36.4060   25.9980   39.8810 H   0  0  0  0  0  0  0  0  0  0  0  0
   38.3260   24.3930   39.6950 H   0  0  0  0  0  0  0  0  0  0  0  0
   39.1040   25.1980   41.2390 H   0  0  0  0  0  0  0  0  0  0  0  0
   37.1380   24.3490   42.5030 H   0  0  0  0  0  0  0  0  0  0  0  0
   36.3050   23.7000   40.9680 H   0  0  0  0  0  0  0  0  0  0  0  0
   37.8700   30.7250   41.1410 C   0  0  0  0  0  0  0  0  0  0  0  0
   37.0000   31.3440   40.2710 C   0  0  0  0  0  3  0  0  0  0  0  0
   37.1870   32.5800   39.7170 C   0  0  0  0  0  0  0  0  0  0  0  0
   36.4730   33.0260   39.0370 H   0  0  0  0  0  0  0  0  0  0  0  0
   38.3140   33.2480   40.0480 N   0  0  0  0  0  0  0  0  0  0  0  0
   39.1880   32.6510   40.9100 C   0  0  0  0  0  3  0  0  0  0  0  0
   38.9720   31.4360   41.4350 N   0  0  0  0  0  0  0  0  0  0  0  0
  1  6  1  0  0  0  0
  2  1  2  0  0  0  0
  2  3  1  0  0  0  0
  3  4  2  0  0  0  0
  4  5  1  0  0  0  0
  5  8  1  0  0  0  0
  6  5  2  0  0  0  0
  7  2  1  0  0  0  0
  9 11  1  0  0  0  0
  9  1  1  0  0  0  0
 10  9  1  0  0  0  0
 10 14  1  0  0  0  0
 10 11  1  0  0  0  0
 11 15  1  0  0  0  0
 12  9  1  0  0  0  0
 13 10  1  0  0  0  0
 16 11  1  0  0  0  0
 17 23  1  0  0  0  0
 17  3  1  0  0  0  0
 18 17  2  0  0  0  0
 19 21  2  0  0  0  0
 19 18  1  0  0  0  0
 20 19  1  0  0  0  0
 21 22  1  0  0  0  0
 22 23  2  0  0  0  0
M  END
>  <minimizedAffinity>
-4.23261642

$$$$

 OpenBabel03242520173D

 23 25  0  0  0  0  0  0  0  0999 V2000
   36.4450   28.8500   41.3990 C   0  0  0  0  0  0  0  0  0  0  0  0
   36.0500   28.5650   40.0780 C   0  0  0  0  0  0  0  0  0  0  0  0
   36.0750   29.6260   39.1500 C   0  0  0  0  0  0  0  0  0  0  0  0
   36.4760   30.8590   39.5710 N   0  0  0  0  0  0  0  0  0  0  0  0
   36.8480   31.0780   40.8590 C   0  0  0  0  0  0  0  0  0  0  0  0
   36.8300   30.0670   41.7720 N   0  0  0  0  0  0  0  0  0  0  0  0
   35.7390   27.6020   39.7650 H   0  0  0  0  0  0  0  0  0  0  0  0
   37.1470   32.1010   41.0720 H   0  0  0  0  0  0  0  0  0  0  0  0
   36.4350   27.7610   42.4000 C   0  0  0  0  0  0  0  0  0  0  0  0
   37.8180   27.0890   42.6000 C   0  0  0  0  0  0  0  0  0  0  0  0
   37.1080   27.8530   43.6770 C   0  0  0  0  0  0  0  0  0  0  0  0
   35.5940   27.0430   42.2710 H   0  0  0  0  0  0  0  0  0  0  0  0
   37.8130   25.9890   42.7850 H   0  0  0  0  0  0  0  0  0  0  0  0
   38.6730   27.5430   42.0900 H   0  0  0  0  0  0  0  0  0  0  0  0
   37.6360   28.7920   43.9750 H   0  0  0  0  0  0  0  0  0  0  0  0
   36.6740   27.3070   44.5600 H   0  0  0  0  0  0  0  0  0  0  0  0
   35.6920   29.4670   37.7580 C   0  0  0  0  0  0  0  0  0  0  0  0
   36.5330   29.7020   36.6930 C   0  0  0  0  0  3  0  0  0  0  0  0
   36.1950   29.5590   35.3760 C   0  0  0  0  0  0  0  0  0  0  0  0
   36.8930   29.7560   34.5730 H   0  0  0  0  0  0  0  0  0  0  0  0
   34.9370   29.1550   35.0950 N   0  0  0  0  0  0  0  0  0  0  0  0
   34.0880   28.9160   36.1370 C   0  0  0  0  0  3  0  0  0  0  0  0
   34.4540   29.0670   37.4180 N   0  0  0  0  0  0  0  0  0  0  0  0
  1  6  1  0  0  0  0
  1  9  1  0  0  0  0
  2  1  2  0  0  0  0
  3  4  2  0  0  0  0
  3  2  1  0  0  0  0
  4  5  1  0  0  0  0
  5  8  1  0  0  0  0
  5  6  2  0  0  0  0
  7  2  1  0  0  0  0
  9 10  1  0  0  0  0
  9 11  1  0  0  0  0
 10 13  1  0  0  0  0
 10 11  1  0  0  0  0
 11 15  1  0  0  0  0
 11 16  1  0  0  0  0
 12  9  1  0  0  0  0
 14 10  1  0  0  0  0
 17  3  1  0  0  0  0
 18 17  2  0  0  0  0
 19 18  1  0  0  0  0
 20 19  1  0  0  0  0
 21 19  2  0  0  0  0
 21 22  1  0  0  0  0
 22 23  2  0  0  0  0
 23 17  1  0  0  0  0
M  END
>  <minimizedAffinity>
-4.2200098

$$$$

 OpenBabel03242520173D

 23 25  0  0  0  0  0  0  0  0999 V2000
   35.8190   28.9690   40.2200 C   0  0  0  0  0  0  0  0  0  0  0  0
   36.4300   27.7630   40.6110 C   0  0  0  0  0  0  0  0  0  0  0  0
   37.3900   27.8240   41.6410 C   0  0  0  0  0  0  0  0  0  0  0  0
   37.6760   29.0340   42.2000 N   0  0  0  0  0  0  0  0  0  0  0  0
   37.0560   30.1680   41.7860 C   0  0  0  0  0  0  0  0  0  0  0  0
   36.1250   30.1300   40.7920 N   0  0  0  0  0  0  0  0  0  0  0  0
   36.1980   26.8300   40.1650 H   0  0  0  0  0  0  0  0  0  0  0  0
   37.3690   31.0680   42.3090 H   0  0  0  0  0  0  0  0  0  0  0  0
   34.8030   28.9430   39.1450 C   0  0  0  0  0  0  0  0  0  0  0  0
   35.3640   29.3250   37.7510 C   0  0  0  0  0  0  0  0  0  0  0  0
   34.8070   27.9710   38.0750 C   0  0  0  0  0  0  0  0  0  0  0  0
   33.8560   29.4640   39.4130 H   0  0  0  0  0  0  0  0  0  0  0  0
   34.6890   29.9160   37.0900 H   0  0  0  0  0  0  0  0  0  0  0  0
   36.4470   29.4570   37.6680 H   0  0  0  0  0  0  0  0  0  0  0  0
   35.5740   27.1600   38.0470 H   0  0  0  0  0  0  0  0  0  0  0  0
   33.8240   27.6480   37.6320 H   0  0  0  0  0  0  0  0  0  0  0  0
   38.0940   26.6540   42.1360 C   0  0  0  0  0  0  0  0  0  0  0  0
   37.7850   25.3590   41.7820 C   0  0  0  0  0  3  0  0  0  0  0  0
   38.4330   24.2440   42.2340 C   0  0  0  0  0  0  0  0  0  0  0  0
   38.1530   23.2450   41.9260 H   0  0  0  0  0  0  0  0  0  0  0  0
   39.4570   24.4240   43.0970 N   0  0  0  0  0  0  0  0  0  0  0  0
   39.7790   25.7000   43.4590 C   0  0  0  0  0  3  0  0  0  0  0  0
   39.1210   26.7720   42.9960 N   0  0  0  0  0  0  0  0  0  0  0  0
  1  2  2  0  0  0  0
  1  6  1  0  0  0  0
  2  3  1  0  0  0  0
  3 17  1  0  0  0  0
  3  4  2  0  0  0  0
  5  4  1  0  0  0  0
  5  8  1  0  0  0  0
  6  5  2  0  0  0  0
  7  2  1  0  0  0  0
  9 12  1  0  0  0  0
  9  1  1  0  0  0  0
 10 11  1  0  0  0  0
 10  9  1  0  0  0  0
 11  9  1  0  0  0  0
 13 10  1  0  0  0  0
 14 10  1  0  0  0  0
 15 11  1  0  0  0  0
 16 11  1  0  0  0  0
 17 23  1  0  0  0  0
 18 17  2  0  0  0  0
 18 19  1  0  0  0  0
 19 21  2  0  0  0  0
 20 19  1  0  0  0  0
 21 22  1  0  0  0  0
 23 22  2  0  0  0  0
M  END
>  <minimizedAffinity>
-4.2056098

$$$$

 OpenBabel03242520173D

 23 25  0  0  0  0  0  0  0  0999 V2000
   37.2690   30.6370   40.5320 C   0  0  0  0  0  0  0  0  0  0  0  0
   38.0990   29.6820   41.1500 C   0  0  0  0  0  0  0  0  0  0  0  0
   37.5130   28.4540   41.5200 C   0  0  0  0  0  0  0  0  0  0  0  0
   36.1900   28.2540   41.2650 N   0  0  0  0  0  0  0  0  0  0  0  0
   35.4340   29.2100   40.6650 C   0  0  0  0  0  0  0  0  0  0  0  0
   35.9800   30.4040   40.3000 N   0  0  0  0  0  0  0  0  0  0  0  0
   39.1260   29.8520   41.3430 H   0  0  0  0  0  0  0  0  0  0  0  0
   34.3930   28.9320   40.5160 H   0  0  0  0  0  0  0  0  0  0  0  0
   37.8490   31.9350   40.1260 C   0  0  0  0  0  0  0  0  0  0  0  0
   38.0770   32.0620   38.5970 C   0  0  0  0  0  0  0  0  0  0  0  0
   37.1190   32.9240   39.3630 C   0  0  0  0  0  0  0  0  0  0  0  0
   38.7200   32.2480   40.7440 H   0  0  0  0  0  0  0  0  0  0  0  0
   38.9880   32.6190   38.2770 H   0  0  0  0  0  0  0  0  0  0  0  0
   37.6910   31.2560   37.9660 H   0  0  0  0  0  0  0  0  0  0  0  0
   36.0510   32.7530   39.0850 H   0  0  0  0  0  0  0  0  0  0  0  0
   37.3510   34.0130   39.5260 H   0  0  0  0  0  0  0  0  0  0  0  0
   38.2580   27.3860   42.1650 C   0  0  0  0  0  0  0  0  0  0  0  0
   38.0640   26.0470   41.9100 C   0  0  0  0  0  3  0  0  0  0  0  0
   38.7520   25.0250   42.5040 C   0  0  0  0  0  0  0  0  0  0  0  0
   38.5640   23.9860   42.2700 H   0  0  0  0  0  0  0  0  0  0  0  0
   39.6970   25.3540   43.4110 N   0  0  0  0  0  0  0  0  0  0  0  0
   39.9050   26.6770   43.6770 C   0  0  0  0  0  3  0  0  0  0  0  0
   39.2100   27.6540   43.0760 N   0  0  0  0  0  0  0  0  0  0  0  0
  1  2  1  0  0  0  0
  2  7  1  0  0  0  0
  2  3  2  0  0  0  0
  3 17  1  0  0  0  0
  4  3  1  0  0  0  0
  5  4  2  0  0  0  0
  6  1  2  0  0  0  0
  6  5  1  0  0  0  0
  8  5  1  0  0  0  0
  9  1  1  0  0  0  0
  9 12  1  0  0  0  0
 10 11  1  0  0  0  0
 10  9  1  0  0  0  0
 11 16  1  0  0  0  0
 11  9  1  0  0  0  0
 13 10  1  0  0  0  0
 14 10  1  0  0  0  0
 15 11  1  0  0  0  0
 17 23  1  0  0  0  0
 18 17  2  0  0  0  0
 18 19  1  0  0  0  0
 19 21  2  0  0  0  0
 20 19  1  0  0  0  0
 21 22  1  0  0  0  0
 23 22  2  0  0  0  0
M  END
>  <minimizedAffinity>
-4.16336346

$$$$

 OpenBabel03242520173D

 23 25  0  0  0  0  0  0  0  0999 V2000
   38.1360   27.1470   42.9850 C   0  0  0  0  0  0  0  0  0  0  0  0
   37.5160   26.2750   42.0700 C   0  0  0  0  0  0  0  0  0  0  0  0
   38.0790   24.9920   41.9110 C   0  0  0  0  0  0  0  0  0  0  0  0
   39.1820   24.6640   42.6410 N   0  0  0  0  0  0  0  0  0  0  0  0
   39.7410   25.5440   43.5110 C   0  0  0  0  0  0  0  0  0  0  0  0
   39.2120   26.7890   43.6800 N   0  0  0  0  0  0  0  0  0  0  0  0
   36.6590   26.5450   41.5080 H   0  0  0  0  0  0  0  0  0  0  0  0
   40.6160   25.1660   44.0340 H   0  0  0  0  0  0  0  0  0  0  0  0
   37.5710   28.5000   43.1820 C   0  0  0  0  0  0  0  0  0  0  0  0
   38.4490   29.6320   42.5870 C   0  0  0  0  0  0  0  0  0  0  0  0
   37.0670   29.3130   42.0980 C   0  0  0  0  0  0  0  0  0  0  0  0
   37.2250   28.6910   44.2220 H   0  0  0  0  0  0  0  0  0  0  0  0
   38.4860   30.5850   43.1640 H   0  0  0  0  0  0  0  0  0  0  0  0
   39.3150   29.3310   41.9900 H   0  0  0  0  0  0  0  0  0  0  0  0
   37.0480   28.9190   41.0530 H   0  0  0  0  0  0  0  0  0  0  0  0
   36.2210   30.0260   42.3020 H   0  0  0  0  0  0  0  0  0  0  0  0
   37.5370   23.9990   41.0000 C   0  0  0  0  0  0  0  0  0  0  0  0
   36.3070   24.1000   40.3900 C   0  0  0  0  0  3  0  0  0  0  0  0
   35.7770   23.1790   39.5300 C   0  0  0  0  0  0  0  0  0  0  0  0
   34.8040   23.3040   39.0730 H   0  0  0  0  0  0  0  0  0  0  0  0
   36.5170   22.0830   39.2560 N   0  0  0  0  0  0  0  0  0  0  0  0
   37.7400   21.9640   39.8510 C   0  0  0  0  0  3  0  0  0  0  0  0
   38.2290   22.8880   40.6910 N   0  0  0  0  0  0  0  0  0  0  0  0
  1  9  1  0  0  0  0
  1  6  1  0  0  0  0
  2  1  2  0  0  0  0
  3  2  1  0  0  0  0
  3  4  2  0  0  0  0
  4  5  1  0  0  0  0
  5  6  2  0  0  0  0
  5  8  1  0  0  0  0
  7  2  1  0  0  0  0
  9 12  1  0  0  0  0
 10 13  1  0  0  0  0
 10  9  1  0  0  0  0
 11 16  1  0  0  0  0
 11 10  1  0  0  0  0
 11  9  1  0  0  0  0
 14 10  1  0  0  0  0
 15 11  1  0  0  0  0
 17  3  1  0  0  0  0
 18 17  2  0  0  0  0
 19 18  1  0  0  0  0
 20 19  1  0  0  0  0
 21 19  2  0  0  0  0
 21 22  1  0  0  0  0
 22 23  2  0  0  0  0
 23 17  1  0  0  0  0
M  END
>  <minimizedAffinity>
-4.15487719

$$$$

 OpenBabel03242520173D

 23 25  0  0  0  0  0  0  0  0999 V2000
   38.9470   28.3600   42.4010 C   0  0  0  0  0  0  0  0  0  0  0  0
   38.3550   29.4770   41.7840 C   0  0  0  0  0  0  0  0  0  0  0  0
   39.1730   30.6020   41.5520 C   0  0  0  0  0  0  0  0  0  0  0  0
   40.4810   30.5520   41.9330 N   0  0  0  0  0  0  0  0  0  0  0  0
   41.0030   29.4460   42.5240 C   0  0  0  0  0  0  0  0  0  0  0  0
   40.2280   28.3490   42.7580 N   0  0  0  0  0  0  0  0  0  0  0  0
   37.3360   29.5020   41.4950 H   0  0  0  0  0  0  0  0  0  0  0  0
   42.0560   29.5280   42.7810 H   0  0  0  0  0  0  0  0  0  0  0  0
   38.1210   27.1600   42.6570 C   0  0  0  0  0  0  0  0  0  0  0  0
   36.9080   27.4280   43.5860 C   0  0  0  0  0  0  0  0  0  0  0  0
   36.7740   27.0040   42.1540 C   0  0  0  0  0  0  0  0  0  0  0  0
   38.7150   26.2590   42.9310 H   0  0  0  0  0  0  0  0  0  0  0  0
   36.6390   26.6120   44.2970 H   0  0  0  0  0  0  0  0  0  0  0  0
   36.7100   28.4680   43.8620 H   0  0  0  0  0  0  0  0  0  0  0  0
   36.3160   27.7870   41.5020 H   0  0  0  0  0  0  0  0  0  0  0  0
   36.4040   25.9710   41.9060 H   0  0  0  0  0  0  0  0  0  0  0  0
   38.6860   31.8180   40.9250 C   0  0  0  0  0  0  0  0  0  0  0  0
   37.5530   31.8840   40.1450 C   0  0  0  0  0  3  0  0  0  0  0  0
   37.0750   33.0170   39.5460 C   0  0  0  0  0  0  0  0  0  0  0  0
   36.1780   33.0190   38.9410 H   0  0  0  0  0  0  0  0  0  0  0  0
   37.7690   34.1610   39.7320 N   0  0  0  0  0  0  0  0  0  0  0  0
   38.8950   34.1150   40.5020 C   0  0  0  0  0  3  0  0  0  0  0  0
   39.3350   32.9860   41.0760 N   0  0  0  0  0  0  0  0  0  0  0  0
  1  9  1  0  0  0  0
  1  6  1  0  0  0  0
  2  1  2  0  0  0  0
  3  2  1  0  0  0  0
  3  4  2  0  0  0  0
  4  5  1  0  0  0  0
  5  6  2  0  0  0  0
  5  8  1  0  0  0  0
  7  2  1  0  0  0  0
  9 12  1  0  0  0  0
  9 10  1  0  0  0  0
 10 14  1  0  0  0  0
 10 13  1  0  0  0  0
 11  9  1  0  0  0  0
 11 10  1  0  0  0  0
 15 11  1  0  0  0  0
 16 11  1  0  0  0  0
 17 23  1  0  0  0  0
 17  3  1  0  0  0  0
 18 17  2  0  0  0  0
 19 21  2  0  0  0  0
 19 18  1  0  0  0  0
 20 19  1  0  0  0  0
 21 22  1  0  0  0  0
 22 23  2  0  0  0  0
M  END
>  <minimizedAffinity>
-4.15348148

$$$$

 OpenBabel03242520173D

 23 25  0  0  0  0  0  0  0  0999 V2000
   36.7810   28.5810   41.1980 C   0  0  0  0  0  0  0  0  0  0  0  0
   37.4750   29.8040   41.2520 C   0  0  0  0  0  0  0  0  0  0  0  0
   37.7420   30.4550   40.0290 C   0  0  0  0  0  0  0  0  0  0  0  0
   37.3200   29.8740   38.8710 N   0  0  0  0  0  0  0  0  0  0  0  0
   36.6520   28.6920   38.8760 C   0  0  0  0  0  0  0  0  0  0  0  0
   36.3850   28.0470   40.0460 N   0  0  0  0  0  0  0  0  0  0  0  0
   37.7990   30.2430   42.1600 H   0  0  0  0  0  0  0  0  0  0  0  0
   36.3680   28.3320   37.8900 H   0  0  0  0  0  0  0  0  0  0  0  0
   36.4790   27.8720   42.4600 C   0  0  0  0  0  0  0  0  0  0  0  0
   37.5570   26.8300   42.8600 C   0  0  0  0  0  0  0  0  0  0  0  0
   37.2470   28.0520   43.6730 C   0  0  0  0  0  0  0  0  0  0  0  0
   35.4350   27.4920   42.5200 H   0  0  0  0  0  0  0  0  0  0  0  0
   37.1880   25.8950   43.3400 H   0  0  0  0  0  0  0  0  0  0  0  0
   38.4700   26.8010   42.2580 H   0  0  0  0  0  0  0  0  0  0  0  0
   38.0890   28.7840   43.7090 H   0  0  0  0  0  0  0  0  0  0  0  0
   36.7260   27.9480   44.6650 H   0  0  0  0  0  0  0  0  0  0  0  0
   38.4500   31.7200   39.9460 C   0  0  0  0  0  0  0  0  0  0  0  0
   39.7210   31.8620   39.4350 C   0  0  0  0  0  3  0  0  0  0  0  0
   40.4060   33.0420   39.3460 C   0  0  0  0  0  0  0  0  0  0  0  0
   41.4050   33.1030   38.9350 H   0  0  0  0  0  0  0  0  0  0  0  0
   39.7890   34.1570   39.7930 N   0  0  0  0  0  0  0  0  0  0  0  0
   38.5280   34.0370   40.3030 C   0  0  0  0  0  3  0  0  0  0  0  0
   37.8850   32.8630   40.3750 N   0  0  0  0  0  0  0  0  0  0  0  0
  1  2  1  0  0  0  0
  1  9  1  0  0  0  0
  2  7  1  0  0  0  0
  3  2  2  0  0  0  0
  4  5  2  0  0  0  0
  4  3  1  0  0  0  0
  5  6  1  0  0  0  0
  6  1  2  0  0  0  0
  8  5  1  0  0  0  0
  9 12  1  0  0  0  0
  9 10  1  0  0  0  0
  9 11  1  0  0  0  0
 10 13  1  0  0  0  0
 10 11  1  0  0  0  0
 11 15  1  0  0  0  0
 11 16  1  0  0  0  0
 14 10  1  0  0  0  0
 17  3  1  0  0  0  0
 17 23  1  0  0  0  0
 18 17  2  0  0  0  0
 19 18  1  0  0  0  0
 19 21  2  0  0  0  0
 20 19  1  0  0  0  0
 21 22  1  0  0  0  0
 22 23  2  0  0  0  0
M  END
>  <minimizedAffinity>
-4.12984896

$$$$
