
 OpenBabel03252509063D

 46 48  0  0  1  0  0  0  0  0999 V2000
   35.9140   29.3010   38.5500 N   0  0  0  0  0  0  0  0  0  0  0  0
   34.7280   28.5690   38.2980 C   0  0  0  0  0  0  0  0  0  0  0  0
   34.0970   28.8100   36.9440 C   0  0  0  0  0  0  0  0  0  0  0  0
   35.0800   29.1270   35.8420 C   0  0  0  0  0  0  0  0  0  0  0  0
   36.5060   29.0050   36.3230 C   0  0  0  0  0  0  0  0  0  0  0  0
   36.5590   29.9970   37.5490 C   0  0  2  0  0  0  0  0  0  0  0  0
   35.0140   27.4790   38.3170 H   0  0  0  0  0  0  0  0  0  0  0  0
   33.9230   28.6560   39.0350 H   0  0  0  0  0  0  0  0  0  0  0  0
   33.3120   29.6080   37.0380 H   0  0  0  0  0  0  0  0  0  0  0  0
   33.5460   27.8920   36.6200 H   0  0  0  0  0  0  0  0  0  0  0  0
   34.8740   28.5970   34.8980 H   0  0  0  0  0  0  0  0  0  0  0  0
   34.9460   30.2220   35.6100 H   0  0  0  0  0  0  0  0  0  0  0  0
   36.7650   28.0010   36.6730 H   0  0  0  0  0  0  0  0  0  0  0  0
   37.1560   29.3970   35.5180 H   0  0  0  0  0  0  0  0  0  0  0  0
   36.1150   30.9450   37.1830 H   0  0  0  0  0  0  0  0  0  0  0  0
   36.0240   29.7930   39.9080 C   0  0  0  0  0  0  0  0  0  0  0  0
   37.1050   29.9750   40.0820 H   0  0  0  0  0  0  0  0  0  0  0  0
   35.5320   30.7920   40.0220 H   0  0  0  0  0  0  0  0  0  0  0  0
   35.5080   28.7550   40.8310 C   0  0  0  0  0  0  0  0  0  0  0  0
   34.6630   29.1300   41.4100 H   0  0  0  0  0  0  0  0  0  0  0  0
   35.0910   27.8710   40.2590 H   0  0  0  0  0  0  0  0  0  0  0  0
   38.3460   28.8080   43.3080 C   0  0  0  0  0  0  0  0  0  0  0  0
   37.2940   29.2080   42.4590 C   0  0  0  0  0  0  0  0  0  0  0  0
   36.6100   28.3000   41.7160 C   0  0  0  0  0  0  0  0  0  0  0  0
   36.9810   27.0220   41.8300 N   0  0  0  0  0  0  0  0  0  0  0  0
   37.9770   26.6150   42.6310 C   0  0  0  0  0  0  0  0  0  0  0  0
   38.6710   27.4910   43.3770 N   0  0  0  0  0  0  0  0  0  0  0  0
   38.9040   29.4880   43.9050 H   0  0  0  0  0  0  0  0  0  0  0  0
   37.1310   30.2710   42.4920 H   0  0  0  0  0  0  0  0  0  0  0  0
   38.1690   25.5450   42.6250 H   0  0  0  0  0  0  0  0  0  0  0  0
   37.9150   30.0930   37.7600 O   0  0  0  0  0  0  0  0  0  0  0  0
   37.3980   32.6120   38.4800 O   0  0  0  0  0  0  0  0  0  0  0  0
   38.4560   31.6690   37.8630 P   0  0  2  0  0  0  0  0  0  0  0  0
   38.5950   32.2430   36.2410 O   0  0  0  0  0  0  0  0  0  0  0  0
   39.0610   31.5280   35.7300 H   0  0  0  0  0  0  0  0  0  0  0  0
   39.9280   31.8610   38.5840 O   0  0  0  0  0  0  0  0  0  0  0  0
   40.7890   32.5590   37.7770 C   0  0  0  0  0  0  0  0  0  0  0  0
   41.1110   33.4540   38.4000 H   0  0  0  0  0  0  0  0  0  0  0  0
   40.1440   33.0520   36.9890 H   0  0  0  0  0  0  0  0  0  0  0  0
   41.9240   31.8500   37.2090 C   0  0  0  0  0  0  0  0  0  0  0  0
   43.1040   32.5640   37.4420 C   0  0  0  0  0  3  0  0  0  0  0  0
   44.3000   31.9860   36.9980 C   0  0  0  0  0  0  0  0  0  0  0  0
   45.2790   32.4720   37.1360 H   0  0  0  0  0  0  0  0  0  0  0  0
   44.3540   30.7980   36.3690 N   0  0  0  0  0  0  0  0  0  0  0  0
   43.1910   30.1530   36.1690 C   0  0  0  0  0  3  0  0  0  0  0  0
   42.0090   30.6510   36.5710 N   0  0  0  0  0  0  0  0  0  0  0  0
  1 16  1  0  0  0  0
  2  7  1  0  0  0  0
  2  1  1  0  0  0  0
  2  8  1  0  0  0  0
  3  9  1  0  0  0  0
  3  2  1  0  0  0  0
  4  5  1  0  0  0  0
  4  3  1  0  0  0  0
  5 13  1  0  0  0  0
  5  6  1  0  0  0  0
  6 15  1  6  0  0  0
  6 31  1  0  0  0  0
  6  1  1  0  0  0  0
 10  3  1  0  0  0  0
 11  4  1  0  0  0  0
 12  4  1  0  0  0  0
 14  5  1  0  0  0  0
 16 18  1  0  0  0  0
 16 17  1  0  0  0  0
 16 19  1  0  0  0  0
 19 20  1  0  0  0  0
 19 24  1  0  0  0  0
 21 19  1  0  0  0  0
 22 27  1  0  0  0  0
 22 28  1  0  0  0  0
 23 29  1  0  0  0  0
 23 22  2  0  0  0  0
 24 25  2  0  0  0  0
 24 23  1  0  0  0  0
 25 26  1  0  0  0  0
 26 27  2  0  0  0  0
 30 26  1  0  0  0  0
 31 33  1  0  0  0  0
 33 32  2  1  0  0  0
 33 36  1  0  0  0  0
 34 33  1  0  0  0  0
 35 34  1  0  0  0  0
 37 38  1  0  0  0  0
 37 36  1  0  0  0  0
 39 37  1  0  0  0  0
 40 41  1  0  0  0  0
 40 37  1  0  0  0  0
 42 43  1  0  0  0  0
 42 41  2  0  0  0  0
 44 42  1  0  0  0  0
 45 44  2  0  0  0  0
 45 46  1  0  0  0  0
 46 40  2  0  0  0  0
M  END
>  <minimizedAffinity>
-5.23781586

$$$$

 OpenBabel03252509063D

 46 48  0  0  1  0  0  0  0  0999 V2000
   37.4330   30.4040   41.7470 N   0  0  0  0  0  0  0  0  0  0  0  0
   37.3310   29.2410   42.5500 C   0  0  0  0  0  0  0  0  0  0  0  0
   38.5850   28.3980   42.6250 C   0  0  0  0  0  0  0  0  0  0  0  0
   39.8730   29.1790   42.5260 C   0  0  0  0  0  0  0  0  0  0  0  0
   39.6150   30.6670   42.5000 C   0  0  0  0  0  0  0  0  0  0  0  0
   38.6480   30.8440   41.2650 C   0  0  2  0  0  0  0  0  0  0  0  0
   37.1310   29.5940   43.6010 H   0  0  0  0  0  0  0  0  0  0  0  0
   36.5080   28.5540   42.3280 H   0  0  0  0  0  0  0  0  0  0  0  0
   38.5330   27.5880   41.8490 H   0  0  0  0  0  0  0  0  0  0  0  0
   38.6160   27.8620   43.6070 H   0  0  0  0  0  0  0  0  0  0  0  0
   40.6380   28.8660   43.2530 H   0  0  0  0  0  0  0  0  0  0  0  0
   40.3040   28.9430   41.5120 H   0  0  0  0  0  0  0  0  0  0  0  0
   39.1090   31.0380   43.3960 H   0  0  0  0  0  0  0  0  0  0  0  0
   40.5780   31.1610   42.2730 H   0  0  0  0  0  0  0  0  0  0  0  0
   39.1280   30.2910   40.4320 H   0  0  0  0  0  0  0  0  0  0  0  0
   36.2440   30.6870   40.9700 C   0  0  0  0  0  0  0  0  0  0  0  0
   35.5140   31.1330   41.6780 H   0  0  0  0  0  0  0  0  0  0  0  0
   36.4350   31.4800   40.2020 H   0  0  0  0  0  0  0  0  0  0  0  0
   35.7280   29.4150   40.4110 C   0  0  0  0  0  0  0  0  0  0  0  0
   36.2690   28.5600   40.8190 H   0  0  0  0  0  0  0  0  0  0  0  0
   34.6520   29.2420   40.7160 H   0  0  0  0  0  0  0  0  0  0  0  0
   34.8920   28.9530   36.7670 C   0  0  0  0  0  0  0  0  0  0  0  0
   34.8290   28.9280   38.1750 C   0  0  0  0  0  0  0  0  0  0  0  0
   35.8250   29.4590   38.9300 C   0  0  0  0  0  0  0  0  0  0  0  0
   36.8560   30.0010   38.2770 N   0  0  0  0  0  0  0  0  0  0  0  0
   36.9410   30.0390   36.9390 C   0  0  0  0  0  0  0  0  0  0  0  0
   35.9700   29.5200   36.1670 N   0  0  0  0  0  0  0  0  0  0  0  0
   34.1340   28.5490   36.1420 H   0  0  0  0  0  0  0  0  0  0  0  0
   33.9300   28.4560   38.5300 H   0  0  0  0  0  0  0  0  0  0  0  0
   37.8360   30.5110   36.5430 H   0  0  0  0  0  0  0  0  0  0  0  0
   38.6850   32.2070   41.0870 O   0  0  0  0  0  0  0  0  0  0  0  0
   39.9660   34.0240   39.6080 O   0  0  0  0  0  0  0  0  0  0  0  0
   39.2390   32.6600   39.5790 P   0  0  2  0  0  0  0  0  0  0  0  0
   37.8390   32.9840   38.6230 O   0  0  0  0  0  0  0  0  0  0  0  0
   37.2110   32.2270   38.7800 H   0  0  0  0  0  0  0  0  0  0  0  0
   40.1280   31.5200   38.7840 O   0  0  0  0  0  0  0  0  0  0  0  0
   40.5220   31.9680   37.5510 C   0  0  0  0  0  0  0  0  0  0  0  0
   40.2600   33.0740   37.5450 H   0  0  0  0  0  0  0  0  0  0  0  0
   39.7690   31.5540   36.8150 H   0  0  0  0  0  0  0  0  0  0  0  0
   41.8960   31.7280   37.1390 C   0  0  0  0  0  0  0  0  0  0  0  0
   42.7390   32.7020   37.6860 C   0  0  0  0  0  3  0  0  0  0  0  0
   44.1090   32.5810   37.4230 C   0  0  0  0  0  0  0  0  0  0  0  0
   44.8510   33.2980   37.8090 H   0  0  0  0  0  0  0  0  0  0  0  0
   44.6320   31.5890   36.6810 N   0  0  0  0  0  0  0  0  0  0  0  0
   43.7780   30.6790   36.1790 C   0  0  0  0  0  3  0  0  0  0  0  0
   42.4520   30.7360   36.3930 N   0  0  0  0  0  0  0  0  0  0  0  0
  1  2  1  0  0  0  0
  2  3  1  0  0  0  0
  2  7  1  0  0  0  0
  3 10  1  0  0  0  0
  4  3  1  0  0  0  0
  4 11  1  0  0  0  0
  5  4  1  0  0  0  0
  5 13  1  0  0  0  0
  6 15  1  6  0  0  0
  6  1  1  0  0  0  0
  6  5  1  0  0  0  0
  8  2  1  0  0  0  0
  9  3  1  0  0  0  0
 12  4  1  0  0  0  0
 14  5  1  0  0  0  0
 16 17  1  0  0  0  0
 16  1  1  0  0  0  0
 18 16  1  0  0  0  0
 19 21  1  0  0  0  0
 19 20  1  0  0  0  0
 19 16  1  0  0  0  0
 22 23  1  0  0  0  0
 23 29  1  0  0  0  0
 23 24  2  0  0  0  0
 24 19  1  0  0  0  0
 25 24  1  0  0  0  0
 26 25  2  0  0  0  0
 27 22  2  0  0  0  0
 27 26  1  0  0  0  0
 28 22  1  0  0  0  0
 30 26  1  0  0  0  0
 31  6  1  0  0  0  0
 33 32  2  1  0  0  0
 33 31  1  0  0  0  0
 34 35  1  0  0  0  0
 34 33  1  0  0  0  0
 36 33  1  0  0  0  0
 37 36  1  0  0  0  0
 38 37  1  0  0  0  0
 39 37  1  0  0  0  0
 40 37  1  0  0  0  0
 40 41  1  0  0  0  0
 42 41  2  0  0  0  0
 42 43  1  0  0  0  0
 44 42  1  0  0  0  0
 45 46  1  0  0  0  0
 45 44  2  0  0  0  0
 46 40  2  0  0  0  0
M  END
>  <minimizedAffinity>
-5.17890406

$$$$

 OpenBabel03252509063D

 46 48  0  0  1  0  0  0  0  0999 V2000
   37.1980   26.4350   41.7570 N   0  0  0  0  0  0  0  0  0  0  0  0
   37.1630   25.0650   42.1130 C   0  0  0  0  0  0  0  0  0  0  0  0
   36.4810   24.1560   41.1130 C   0  0  0  0  0  0  0  0  0  0  0  0
   36.6130   24.5970   39.6750 C   0  0  0  0  0  0  0  0  0  0  0  0
   37.5200   25.7990   39.5470 C   0  0  0  0  0  0  0  0  0  0  0  0
   36.8430   26.8630   40.4950 C   0  0  2  0  0  0  0  0  0  0  0  0
   38.2340   24.7200   42.1650 H   0  0  0  0  0  0  0  0  0  0  0  0
   36.7450   24.8150   43.0930 H   0  0  0  0  0  0  0  0  0  0  0  0
   35.4060   24.0240   41.4060 H   0  0  0  0  0  0  0  0  0  0  0  0
   36.9300   23.1330   41.1720 H   0  0  0  0  0  0  0  0  0  0  0  0
   36.8510   23.7760   38.9800 H   0  0  0  0  0  0  0  0  0  0  0  0
   35.5950   24.9690   39.3670 H   0  0  0  0  0  0  0  0  0  0  0  0
   38.5400   25.6160   39.8970 H   0  0  0  0  0  0  0  0  0  0  0  0
   37.4460   26.1530   38.5010 H   0  0  0  0  0  0  0  0  0  0  0  0
   35.7700   26.8720   40.2130 H   0  0  0  0  0  0  0  0  0  0  0  0
   36.9860   27.3370   42.8720 C   0  0  0  0  0  0  0  0  0  0  0  0
   36.7130   28.3170   42.4250 H   0  0  0  0  0  0  0  0  0  0  0  0
   36.0990   27.0310   43.4830 H   0  0  0  0  0  0  0  0  0  0  0  0
   38.2470   27.4410   43.6430 C   0  0  0  0  0  0  0  0  0  0  0  0
   38.0450   27.6020   44.7030 H   0  0  0  0  0  0  0  0  0  0  0  0
   38.8270   26.4690   43.6090 H   0  0  0  0  0  0  0  0  0  0  0  0
   41.2080   29.3450   42.3030 C   0  0  0  0  0  0  0  0  0  0  0  0
   40.3950   28.3250   42.8380 C   0  0  0  0  0  0  0  0  0  0  0  0
   39.0740   28.5350   43.0780 C   0  0  0  0  0  0  0  0  0  0  0  0
   38.5920   29.7450   42.7840 N   0  0  0  0  0  0  0  0  0  0  0  0
   39.3430   30.7320   42.2730 C   0  0  0  0  0  0  0  0  0  0  0  0
   40.6520   30.5520   42.0260 N   0  0  0  0  0  0  0  0  0  0  0  0
   42.2440   29.2180   42.1010 H   0  0  0  0  0  0  0  0  0  0  0  0
   40.9470   27.4180   43.0120 H   0  0  0  0  0  0  0  0  0  0  0  0
   38.8180   31.6640   42.0820 H   0  0  0  0  0  0  0  0  0  0  0  0
   37.4990   28.0130   40.1210 O   0  0  0  0  0  0  0  0  0  0  0  0
   35.8280   30.0250   40.6610 O   0  0  0  0  0  0  0  0  0  0  0  0
   36.4760   29.1930   39.5310 P   0  0  2  0  0  0  0  0  0  0  0  0
   35.1320   28.3660   38.8320 O   0  0  0  0  0  0  0  0  0  0  0  0
   35.5120   27.6320   38.2780 H   0  0  0  0  0  0  0  0  0  0  0  0
   37.1220   30.1630   38.3630 O   0  0  0  0  0  0  0  0  0  0  0  0
   36.9380   31.4880   38.6600 C   0  0  0  0  0  0  0  0  0  0  0  0
   36.1280   31.4980   39.4580 H   0  0  0  0  0  0  0  0  0  0  0  0
   36.3900   31.9310   37.7750 H   0  0  0  0  0  0  0  0  0  0  0  0
   38.0990   32.2720   39.0490 C   0  0  0  0  0  0  0  0  0  0  0  0
   37.7160   33.2990   39.9210 C   0  0  0  0  0  3  0  0  0  0  0  0
   38.7320   34.1170   40.4290 C   0  0  0  0  0  0  0  0  0  0  0  0
   38.5310   34.9500   41.1200 H   0  0  0  0  0  0  0  0  0  0  0  0
   40.0310   33.9590   40.1170 N   0  0  0  0  0  0  0  0  0  0  0  0
   40.3450   32.9580   39.2750 C   0  0  0  0  0  3  0  0  0  0  0  0
   39.4190   32.1350   38.7520 N   0  0  0  0  0  0  0  0  0  0  0  0
  1  2  1  0  0  0  0
  1 16  1  0  0  0  0
  2  7  1  0  0  0  0
  2  8  1  0  0  0  0
  3 10  1  0  0  0  0
  3  9  1  0  0  0  0
  3  2  1  0  0  0  0
  4  3  1  0  0  0  0
  5  4  1  0  0  0  0
  5 13  1  0  0  0  0
  5  6  1  0  0  0  0
  6 15  1  6  0  0  0
  6  1  1  0  0  0  0
 11  4  1  0  0  0  0
 12  4  1  0  0  0  0
 14  5  1  0  0  0  0
 16 18  1  0  0  0  0
 16 19  1  0  0  0  0
 17 16  1  0  0  0  0
 19 20  1  0  0  0  0
 21 19  1  0  0  0  0
 22 23  1  0  0  0  0
 23 29  1  0  0  0  0
 23 24  2  0  0  0  0
 24 19  1  0  0  0  0
 25 24  1  0  0  0  0
 26 25  2  0  0  0  0
 27 26  1  0  0  0  0
 27 22  2  0  0  0  0
 28 22  1  0  0  0  0
 30 26  1  0  0  0  0
 31  6  1  0  0  0  0
 33 31  1  0  0  0  0
 33 32  2  1  0  0  0
 34 33  1  0  0  0  0
 35 34  1  0  0  0  0
 36 37  1  0  0  0  0
 36 33  1  0  0  0  0
 37 40  1  0  0  0  0
 37 38  1  0  0  0  0
 39 37  1  0  0  0  0
 40 41  1  0  0  0  0
 41 42  2  0  0  0  0
 42 43  1  0  0  0  0
 44 42  1  0  0  0  0
 45 44  2  0  0  0  0
 46 40  2  0  0  0  0
 46 45  1  0  0  0  0
M  END
>  <minimizedAffinity>
-5.14067411

$$$$

 OpenBabel03252509063D

 46 48  0  0  1  0  0  0  0  0999 V2000
   38.9740   28.6920   41.7970 N   0  0  0  0  0  0  0  0  0  0  0  0
   39.2400   27.7600   42.8300 C   0  0  0  0  0  0  0  0  0  0  0  0
   38.0460   27.3820   43.6800 C   0  0  0  0  0  0  0  0  0  0  0  0
   36.7260   27.3950   42.9480 C   0  0  0  0  0  0  0  0  0  0  0  0
   36.9150   27.6660   41.4740 C   0  0  0  0  0  0  0  0  0  0  0  0
   37.6840   29.0440   41.4560 C   0  0  2  0  0  0  0  0  0  0  0  0
   39.5750   26.8090   42.3250 H   0  0  0  0  0  0  0  0  0  0  0  0
   40.0500   28.0040   43.5250 H   0  0  0  0  0  0  0  0  0  0  0  0
   38.0190   28.0360   44.5920 H   0  0  0  0  0  0  0  0  0  0  0  0
   38.1800   26.3410   44.0690 H   0  0  0  0  0  0  0  0  0  0  0  0
   36.0870   26.5250   43.1690 H   0  0  0  0  0  0  0  0  0  0  0  0
   36.1630   28.2900   43.3360 H   0  0  0  0  0  0  0  0  0  0  0  0
   37.5290   26.9160   40.9670 H   0  0  0  0  0  0  0  0  0  0  0  0
   35.9100   27.8130   41.0370 H   0  0  0  0  0  0  0  0  0  0  0  0
   37.1130   29.7110   42.1330 H   0  0  0  0  0  0  0  0  0  0  0  0
   40.0250   29.6700   41.6040 C   0  0  0  0  0  0  0  0  0  0  0  0
   40.9340   29.2390   42.0740 H   0  0  0  0  0  0  0  0  0  0  0  0
   40.2790   29.7900   40.5200 H   0  0  0  0  0  0  0  0  0  0  0  0
   39.6300   30.9300   42.2760 C   0  0  0  0  0  0  0  0  0  0  0  0
   38.6020   30.8750   42.6390 H   0  0  0  0  0  0  0  0  0  0  0  0
   40.2510   31.1090   43.2050 H   0  0  0  0  0  0  0  0  0  0  0  0
   41.2040   33.2980   39.8030 C   0  0  0  0  0  0  0  0  0  0  0  0
   41.0020   32.2320   40.7040 C   0  0  0  0  0  0  0  0  0  0  0  0
   39.8090   32.0620   41.3320 C   0  0  0  0  0  0  0  0  0  0  0  0
   38.8480   32.9460   41.0540 N   0  0  0  0  0  0  0  0  0  0  0  0
   39.0130   33.9680   40.2000 C   0  0  0  0  0  0  0  0  0  0  0  0
   40.1820   34.1610   39.5660 N   0  0  0  0  0  0  0  0  0  0  0  0
   42.1210   33.4640   39.2940 H   0  0  0  0  0  0  0  0  0  0  0  0
   41.8790   31.6190   40.8080 H   0  0  0  0  0  0  0  0  0  0  0  0
   38.1450   34.6090   40.0690 H   0  0  0  0  0  0  0  0  0  0  0  0
   37.5660   29.4020   40.1340 O   0  0  0  0  0  0  0  0  0  0  0  0
   36.5730   31.5740   38.9370 O   0  0  0  0  0  0  0  0  0  0  0  0
   36.2310   30.3570   39.8270 P   0  0  2  0  0  0  0  0  0  0  0  0
   35.7940   31.0810   41.3310 O   0  0  0  0  0  0  0  0  0  0  0  0
   35.8120   30.3520   42.0090 H   0  0  0  0  0  0  0  0  0  0  0  0
   34.9060   29.5520   39.2620 O   0  0  0  0  0  0  0  0  0  0  0  0
   35.1240   29.0590   38.0020 C   0  0  0  0  0  0  0  0  0  0  0  0
   36.0770   29.5690   37.6500 H   0  0  0  0  0  0  0  0  0  0  0  0
   34.3480   29.5460   37.3380 H   0  0  0  0  0  0  0  0  0  0  0  0
   35.1800   27.6160   37.8300 C   0  0  0  0  0  0  0  0  0  0  0  0
   34.0330   27.1650   37.1670 C   0  0  0  0  0  3  0  0  0  0  0  0
   33.9570   25.7970   36.8790 C   0  0  0  0  0  0  0  0  0  0  0  0
   33.0960   25.3480   36.3610 H   0  0  0  0  0  0  0  0  0  0  0  0
   34.9230   24.9200   37.2090 N   0  0  0  0  0  0  0  0  0  0  0  0
   36.0050   25.4050   37.8440 C   0  0  0  0  0  3  0  0  0  0  0  0
   36.1410   26.7070   38.1510 N   0  0  0  0  0  0  0  0  0  0  0  0
  1  2  1  0  0  0  0
  2  8  1  0  0  0  0
  2  3  1  0  0  0  0
  3 10  1  0  0  0  0
  3  9  1  0  0  0  0
  4 11  1  0  0  0  0
  4 12  1  0  0  0  0
  4  3  1  0  0  0  0
  5  4  1  0  0  0  0
  6  5  1  0  0  0  0
  6  1  1  0  0  0  0
  6 15  1  1  0  0  0
  7  2  1  0  0  0  0
 13  5  1  0  0  0  0
 14  5  1  0  0  0  0
 16  1  1  0  0  0  0
 16 17  1  0  0  0  0
 16 19  1  0  0  0  0
 18 16  1  0  0  0  0
 19 20  1  0  0  0  0
 19 21  1  0  0  0  0
 22 23  1  0  0  0  0
 23 29  1  0  0  0  0
 23 24  2  0  0  0  0
 24 19  1  0  0  0  0
 25 24  1  0  0  0  0
 26 25  2  0  0  0  0
 27 22  2  0  0  0  0
 27 26  1  0  0  0  0
 28 22  1  0  0  0  0
 30 26  1  0  0  0  0
 31  6  1  0  0  0  0
 33 32  2  6  0  0  0
 33 31  1  0  0  0  0
 33 34  1  0  0  0  0
 34 35  1  0  0  0  0
 36 33  1  0  0  0  0
 37 36  1  0  0  0  0
 38 37  1  0  0  0  0
 39 37  1  0  0  0  0
 40 37  1  0  0  0  0
 40 46  1  0  0  0  0
 41 40  2  0  0  0  0
 42 41  1  0  0  0  0
 42 44  2  0  0  0  0
 43 42  1  0  0  0  0
 44 45  1  0  0  0  0
 45 46  2  0  0  0  0
M  END
>  <minimizedAffinity>
-5.12591505

$$$$

 OpenBabel03252509063D

 46 48  0  0  1  0  0  0  0  0999 V2000
   38.4170   31.2980   38.8780 N   0  0  0  0  0  0  0  0  0  0  0  0
   39.3530   32.2800   38.4720 C   0  0  0  0  0  0  0  0  0  0  0  0
   40.0740   32.9880   39.5980 C   0  0  0  0  0  0  0  0  0  0  0  0
   40.3000   32.1420   40.8280 C   0  0  0  0  0  0  0  0  0  0  0  0
   39.8590   30.7150   40.6040 C   0  0  0  0  0  0  0  0  0  0  0  0
   38.3450   30.8670   40.1870 C   0  0  2  0  0  0  0  0  0  0  0  0
   40.1490   31.7410   37.8840 H   0  0  0  0  0  0  0  0  0  0  0  0
   38.9920   33.0610   37.7950 H   0  0  0  0  0  0  0  0  0  0  0  0
   39.5300   33.9390   39.8460 H   0  0  0  0  0  0  0  0  0  0  0  0
   41.0860   33.3120   39.2470 H   0  0  0  0  0  0  0  0  0  0  0  0
   41.3110   32.2410   41.2540 H   0  0  0  0  0  0  0  0  0  0  0  0
   39.5990   32.5420   41.6140 H   0  0  0  0  0  0  0  0  0  0  0  0
   40.3960   30.2130   39.7940 H   0  0  0  0  0  0  0  0  0  0  0  0
   39.9100   30.2010   41.5820 H   0  0  0  0  0  0  0  0  0  0  0  0
   37.8930   31.5360   40.9480 H   0  0  0  0  0  0  0  0  0  0  0  0
   37.2080   31.2720   38.0800 C   0  0  0  0  0  0  0  0  0  0  0  0
   36.3960   30.9490   38.7650 H   0  0  0  0  0  0  0  0  0  0  0  0
   36.9200   32.2990   37.7400 H   0  0  0  0  0  0  0  0  0  0  0  0
   37.3890   30.2970   36.9790 C   0  0  0  0  0  0  0  0  0  0  0  0
   37.1800   30.7560   36.0110 H   0  0  0  0  0  0  0  0  0  0  0  0
   38.4670   29.9590   36.9060 H   0  0  0  0  0  0  0  0  0  0  0  0
   34.3060   28.1880   37.4730 C   0  0  0  0  0  0  0  0  0  0  0  0
   35.1640   29.2840   37.2450 C   0  0  0  0  0  0  0  0  0  0  0  0
   36.5130   29.1230   37.2200 C   0  0  0  0  0  0  0  0  0  0  0  0
   36.9790   27.8870   37.4190 N   0  0  0  0  0  0  0  0  0  0  0  0
   36.1850   26.8280   37.6360 C   0  0  0  0  0  0  0  0  0  0  0  0
   34.8470   26.9580   37.6670 N   0  0  0  0  0  0  0  0  0  0  0  0
   33.2470   28.2740   37.5000 H   0  0  0  0  0  0  0  0  0  0  0  0
   34.6200   30.2000   37.1040 H   0  0  0  0  0  0  0  0  0  0  0  0
   36.7000   25.8830   37.7820 H   0  0  0  0  0  0  0  0  0  0  0  0
   37.9040   29.5690   40.2940 O   0  0  0  0  0  0  0  0  0  0  0  0
   35.4940   28.5090   40.7460 O   0  0  0  0  0  0  0  0  0  0  0  0
   36.6150   29.3940   41.3400 P   0  0  2  0  0  0  0  0  0  0  0  0
   35.8680   30.9460   41.4550 O   0  0  0  0  0  0  0  0  0  0  0  0
   36.6050   31.6020   41.5860 H   0  0  0  0  0  0  0  0  0  0  0  0
   37.0100   28.9200   42.8700 O   0  0  0  0  0  0  0  0  0  0  0  0
   36.7160   27.5970   43.0710 C   0  0  0  0  0  0  0  0  0  0  0  0
   35.8560   27.3770   42.3600 H   0  0  0  0  0  0  0  0  0  0  0  0
   36.1980   27.5420   44.0760 H   0  0  0  0  0  0  0  0  0  0  0  0
   37.7920   26.6270   42.9440 C   0  0  0  0  0  0  0  0  0  0  0  0
   38.9150   27.0560   43.6610 C   0  0  0  0  0  3  0  0  0  0  0  0
   40.0250   26.2040   43.6800 C   0  0  0  0  0  0  0  0  0  0  0  0
   40.9540   26.4540   44.2160 H   0  0  0  0  0  0  0  0  0  0  0  0
   40.0530   25.0160   43.0480 N   0  0  0  0  0  0  0  0  0  0  0  0
   38.9480   24.6510   42.3740 C   0  0  0  0  0  3  0  0  0  0  0  0
   37.8480   25.4210   42.3150 N   0  0  0  0  0  0  0  0  0  0  0  0
  1  6  1  0  0  0  0
  2  1  1  0  0  0  0
  2  3  1  0  0  0  0
  3  9  1  0  0  0  0
  3  4  1  0  0  0  0
  4 11  1  0  0  0  0
  4 12  1  0  0  0  0
  5  4  1  0  0  0  0
  5 14  1  0  0  0  0
  6 31  1  0  0  0  0
  6  5  1  0  0  0  0
  6 15  1  1  0  0  0
  7  2  1  0  0  0  0
  8  2  1  0  0  0  0
 10  3  1  0  0  0  0
 13  5  1  0  0  0  0
 16 17  1  0  0  0  0
 16  1  1  0  0  0  0
 18 16  1  0  0  0  0
 19 24  1  0  0  0  0
 19 16  1  0  0  0  0
 20 19  1  0  0  0  0
 21 19  1  0  0  0  0
 22 28  1  0  0  0  0
 22 27  1  0  0  0  0
 23 22  2  0  0  0  0
 24 23  1  0  0  0  0
 24 25  2  0  0  0  0
 25 26  1  0  0  0  0
 26 27  2  0  0  0  0
 26 30  1  0  0  0  0
 29 23  1  0  0  0  0
 31 33  1  0  0  0  0
 33 32  2  6  0  0  0
 33 34  1  0  0  0  0
 33 36  1  0  0  0  0
 34 35  1  0  0  0  0
 36 37  1  0  0  0  0
 37 39  1  0  0  0  0
 38 37  1  0  0  0  0
 40 37  1  0  0  0  0
 40 41  1  0  0  0  0
 41 42  2  0  0  0  0
 42 43  1  0  0  0  0
 44 42  1  0  0  0  0
 45 44  2  0  0  0  0
 46 45  1  0  0  0  0
 46 40  2  0  0  0  0
M  END
>  <minimizedAffinity>
-5.11401367

$$$$

 OpenBabel03252509063D

 46 48  0  0  1  0  0  0  0  0999 V2000
   38.5080   28.5890   38.1480 N   0  0  0  0  0  0  0  0  0  0  0  0
   38.8830   28.2240   36.8310 C   0  0  0  0  0  0  0  0  0  0  0  0
   37.7460   28.1420   35.8370 C   0  0  0  0  0  0  0  0  0  0  0  0
   36.6140   29.1060   36.0970 C   0  0  0  0  0  0  0  0  0  0  0  0
   36.9370   30.0400   37.2400 C   0  0  0  0  0  0  0  0  0  0  0  0
   37.2420   29.0550   38.4350 C   0  0  2  0  0  0  0  0  0  0  0  0
   39.5660   29.0380   36.4550 H   0  0  0  0  0  0  0  0  0  0  0  0
   39.4630   27.3020   36.7170 H   0  0  0  0  0  0  0  0  0  0  0  0
   37.3790   27.0820   35.7810 H   0  0  0  0  0  0  0  0  0  0  0  0
   38.1290   28.3740   34.8120 H   0  0  0  0  0  0  0  0  0  0  0  0
   36.2450   29.6120   35.1910 H   0  0  0  0  0  0  0  0  0  0  0  0
   35.7520   28.4830   36.4680 H   0  0  0  0  0  0  0  0  0  0  0  0
   37.8210   30.6590   37.0620 H   0  0  0  0  0  0  0  0  0  0  0  0
   36.0140   30.6050   37.4700 H   0  0  0  0  0  0  0  0  0  0  0  0
   36.3970   28.3370   38.4500 H   0  0  0  0  0  0  0  0  0  0  0  0
   39.2280   27.8760   39.1830 C   0  0  0  0  0  0  0  0  0  0  0  0
   40.2300   28.3510   39.2430 H   0  0  0  0  0  0  0  0  0  0  0  0
   38.7630   28.0340   40.1890 H   0  0  0  0  0  0  0  0  0  0  0  0
   39.3410   26.4520   38.7860 C   0  0  0  0  0  0  0  0  0  0  0  0
   38.8460   26.2720   37.8310 H   0  0  0  0  0  0  0  0  0  0  0  0
   40.4210   26.1640   38.6060 H   0  0  0  0  0  0  0  0  0  0  0  0
   36.8890   24.9360   41.2110 C   0  0  0  0  0  0  0  0  0  0  0  0
   37.4600   25.7300   40.1950 C   0  0  0  0  0  0  0  0  0  0  0  0
   38.7700   25.6010   39.8600 C   0  0  0  0  0  0  0  0  0  0  0  0
   39.4810   24.6940   40.5340 N   0  0  0  0  0  0  0  0  0  0  0  0
   38.9620   23.9260   41.5040 C   0  0  0  0  0  0  0  0  0  0  0  0
   37.6690   24.0320   41.8570 N   0  0  0  0  0  0  0  0  0  0  0  0
   35.8690   25.0080   41.5020 H   0  0  0  0  0  0  0  0  0  0  0  0
   36.7450   26.4040   39.7590 H   0  0  0  0  0  0  0  0  0  0  0  0
   39.6570   23.2300   41.9680 H   0  0  0  0  0  0  0  0  0  0  0  0
   37.2250   29.9170   39.5060 O   0  0  0  0  0  0  0  0  0  0  0  0
   34.6750   29.2240   39.8940 O   0  0  0  0  0  0  0  0  0  0  0  0
   36.0040   29.5900   40.5960 P   0  0  2  0  0  0  0  0  0  0  0  0
   35.6350   31.0850   41.3760 O   0  0  0  0  0  0  0  0  0  0  0  0
   36.5080   31.4930   41.6260 H   0  0  0  0  0  0  0  0  0  0  0  0
   36.3840   28.4980   41.7730 O   0  0  0  0  0  0  0  0  0  0  0  0
   37.2650   29.0290   42.6770 C   0  0  0  0  0  0  0  0  0  0  0  0
   36.6550   29.1820   43.6240 H   0  0  0  0  0  0  0  0  0  0  0  0
   37.4420   30.0980   42.3480 H   0  0  0  0  0  0  0  0  0  0  0  0
   38.5030   28.3110   42.9340 C   0  0  0  0  0  0  0  0  0  0  0  0
   39.6020   29.1000   42.5750 C   0  0  0  0  0  3  0  0  0  0  0  0
   40.8750   28.5680   42.8090 C   0  0  0  0  0  0  0  0  0  0  0  0
   41.7990   29.1130   42.5600 H   0  0  0  0  0  0  0  0  0  0  0  0
   41.0770   27.3530   43.3510 N   0  0  0  0  0  0  0  0  0  0  0  0
   39.9880   26.6360   43.6780 C   0  0  0  0  0  3  0  0  0  0  0  0
   38.7370   27.0870   43.4810 N   0  0  0  0  0  0  0  0  0  0  0  0
  1  6  1  0  0  0  0
  1 16  1  0  0  0  0
  2  1  1  0  0  0  0
  3  4  1  0  0  0  0
  3  2  1  0  0  0  0
  4 12  1  0  0  0  0
  4  5  1  0  0  0  0
  5 14  1  0  0  0  0
  5  6  1  0  0  0  0
  6 15  1  1  0  0  0
  6 31  1  0  0  0  0
  7  2  1  0  0  0  0
  8  2  1  0  0  0  0
  9  3  1  0  0  0  0
 10  3  1  0  0  0  0
 11  4  1  0  0  0  0
 13  5  1  0  0  0  0
 16 17  1  0  0  0  0
 16 18  1  0  0  0  0
 19 16  1  0  0  0  0
 19 24  1  0  0  0  0
 20 19  1  0  0  0  0
 21 19  1  0  0  0  0
 22 28  1  0  0  0  0
 22 27  1  0  0  0  0
 23 22  2  0  0  0  0
 24 23  1  0  0  0  0
 24 25  2  0  0  0  0
 25 26  1  0  0  0  0
 26 27  2  0  0  0  0
 26 30  1  0  0  0  0
 29 23  1  0  0  0  0
 31 33  1  0  0  0  0
 33 32  2  6  0  0  0
 33 34  1  0  0  0  0
 33 36  1  0  0  0  0
 34 35  1  0  0  0  0
 36 37  1  0  0  0  0
 37 40  1  0  0  0  0
 37 38  1  0  0  0  0
 39 37  1  0  0  0  0
 40 46  1  0  0  0  0
 41 42  1  0  0  0  0
 41 40  2  0  0  0  0
 42 44  2  0  0  0  0
 43 42  1  0  0  0  0
 44 45  1  0  0  0  0
 46 45  2  0  0  0  0
M  END
>  <minimizedAffinity>
-5.10922432

$$$$

 OpenBabel03252509063D

 46 48  0  0  1  0  0  0  0  0999 V2000
   37.9820   26.9970   42.8050 N   0  0  0  0  0  0  0  0  0  0  0  0
   39.2090   26.7400   43.4640 C   0  0  0  0  0  0  0  0  0  0  0  0
   40.3500   27.6560   43.0810 C   0  0  0  0  0  0  0  0  0  0  0  0
   39.9310   29.0580   42.7090 C   0  0  0  0  0  0  0  0  0  0  0  0
   38.4520   29.2680   42.9290 C   0  0  0  0  0  0  0  0  0  0  0  0
   37.7920   28.1360   42.0500 C   0  0  2  0  0  0  0  0  0  0  0  0
   39.0260   26.9150   44.5620 H   0  0  0  0  0  0  0  0  0  0  0  0
   39.5990   25.7190   43.4090 H   0  0  0  0  0  0  0  0  0  0  0  0
   40.9530   27.1760   42.2640 H   0  0  0  0  0  0  0  0  0  0  0  0
   41.0550   27.7560   43.9450 H   0  0  0  0  0  0  0  0  0  0  0  0
   40.5690   29.8420   43.1470 H   0  0  0  0  0  0  0  0  0  0  0  0
   40.0720   29.1410   41.5940 H   0  0  0  0  0  0  0  0  0  0  0  0
   38.1410   29.1300   43.9690 H   0  0  0  0  0  0  0  0  0  0  0  0
   38.1940   30.2530   42.4960 H   0  0  0  0  0  0  0  0  0  0  0  0
   38.2800   28.2090   41.0570 H   0  0  0  0  0  0  0  0  0  0  0  0
   37.2510   25.8010   42.4380 C   0  0  0  0  0  0  0  0  0  0  0  0
   37.2790   25.1390   43.3290 H   0  0  0  0  0  0  0  0  0  0  0  0
   36.1670   26.0210   42.2640 H   0  0  0  0  0  0  0  0  0  0  0  0
   37.9320   25.1650   41.2850 C   0  0  0  0  0  0  0  0  0  0  0  0
   38.8230   25.7250   40.9990 H   0  0  0  0  0  0  0  0  0  0  0  0
   38.3180   24.1360   41.5570 H   0  0  0  0  0  0  0  0  0  0  0  0
   35.3760   23.7630   38.8980 C   0  0  0  0  0  0  0  0  0  0  0  0
   36.2900   23.8980   39.9630 C   0  0  0  0  0  0  0  0  0  0  0  0
   36.9760   25.0560   40.1550 C   0  0  0  0  0  0  0  0  0  0  0  0
   36.7410   26.0470   39.2930 N   0  0  0  0  0  0  0  0  0  0  0  0
   35.8770   25.9460   38.2720 C   0  0  0  0  0  0  0  0  0  0  0  0
   35.1850   24.8130   38.0580 N   0  0  0  0  0  0  0  0  0  0  0  0
   34.8220   22.8750   38.7160 H   0  0  0  0  0  0  0  0  0  0  0  0
   36.3530   23.0040   40.5570 H   0  0  0  0  0  0  0  0  0  0  0  0
   35.7850   26.8320   37.6500 H   0  0  0  0  0  0  0  0  0  0  0  0
   36.4790   28.5430   42.0280 O   0  0  0  0  0  0  0  0  0  0  0  0
   34.7430   29.1280   40.0830 O   0  0  0  0  0  0  0  0  0  0  0  0
   36.1070   29.4980   40.7100 P   0  0  2  0  0  0  0  0  0  0  0  0
   37.2340   29.0790   39.4720 O   0  0  0  0  0  0  0  0  0  0  0  0
   38.1300   29.0540   39.9060 H   0  0  0  0  0  0  0  0  0  0  0  0
   36.2310   31.1240   40.9630 O   0  0  0  0  0  0  0  0  0  0  0  0
   36.8180   31.7500   39.8950 C   0  0  0  0  0  0  0  0  0  0  0  0
   36.1190   32.6100   39.6400 H   0  0  0  0  0  0  0  0  0  0  0  0
   36.6630   31.0630   39.0090 H   0  0  0  0  0  0  0  0  0  0  0  0
   38.1980   32.1880   40.0280 C   0  0  0  0  0  0  0  0  0  0  0  0
   38.2510   33.5790   40.1720 C   0  0  0  0  0  3  0  0  0  0  0  0
   39.5120   34.1550   40.3630 C   0  0  0  0  0  0  0  0  0  0  0  0
   39.6550   35.2400   40.4860 H   0  0  0  0  0  0  0  0  0  0  0  0
   40.6500   33.4380   40.4100 N   0  0  0  0  0  0  0  0  0  0  0  0
   40.5440   32.1050   40.2660 C   0  0  0  0  0  3  0  0  0  0  0  0
   39.3640   31.4880   40.0810 N   0  0  0  0  0  0  0  0  0  0  0  0
  1  2  1  0  0  0  0
  2  7  1  0  0  0  0
  3  2  1  0  0  0  0
  3 10  1  0  0  0  0
  4  5  1  0  0  0  0
  4  3  1  0  0  0  0
  4 11  1  0  0  0  0
  5 13  1  0  0  0  0
  6 15  1  6  0  0  0
  6  1  1  0  0  0  0
  6  5  1  0  0  0  0
  8  2  1  0  0  0  0
  9  3  1  0  0  0  0
 12  4  1  0  0  0  0
 14  5  1  0  0  0  0
 16  1  1  0  0  0  0
 16 17  1  0  0  0  0
 18 16  1  0  0  0  0
 19 21  1  0  0  0  0
 19 16  1  0  0  0  0
 20 19  1  0  0  0  0
 22 23  1  0  0  0  0
 23 24  2  0  0  0  0
 23 29  1  0  0  0  0
 24 19  1  0  0  0  0
 25 24  1  0  0  0  0
 26 25  2  0  0  0  0
 27 26  1  0  0  0  0
 27 22  2  0  0  0  0
 28 22  1  0  0  0  0
 30 26  1  0  0  0  0
 31  6  1  0  0  0  0
 33 32  2  6  0  0  0
 33 36  1  0  0  0  0
 33 31  1  0  0  0  0
 34 35  1  0  0  0  0
 34 33  1  0  0  0  0
 37 40  1  0  0  0  0
 37 36  1  0  0  0  0
 38 37  1  0  0  0  0
 39 37  1  0  0  0  0
 40 46  2  0  0  0  0
 40 41  1  0  0  0  0
 41 42  2  0  0  0  0
 42 44  1  0  0  0  0
 42 43  1  0  0  0  0
 45 44  2  0  0  0  0
 46 45  1  0  0  0  0
M  END
>  <minimizedAffinity>
-5.06782913

$$$$

 OpenBabel03252509063D

 46 48  0  0  1  0  0  0  0  0999 V2000
   36.3810   29.1630   38.9790 N   0  0  0  0  0  0  0  0  0  0  0  0
   36.3980   28.7620   37.6200 C   0  0  0  0  0  0  0  0  0  0  0  0
   37.1620   27.4880   37.3340 C   0  0  0  0  0  0  0  0  0  0  0  0
   37.1390   26.4770   38.4550 C   0  0  0  0  0  0  0  0  0  0  0  0
   36.2370   26.9240   39.5810 C   0  0  0  0  0  0  0  0  0  0  0  0
   36.8300   28.3300   39.9830 C   0  0  2  0  0  0  0  0  0  0  0  0
   35.3290   28.5530   37.3340 H   0  0  0  0  0  0  0  0  0  0  0  0
   36.7410   29.5000   36.8880 H   0  0  0  0  0  0  0  0  0  0  0  0
   38.2130   27.7460   37.0330 H   0  0  0  0  0  0  0  0  0  0  0  0
   36.7180   26.9790   36.4420 H   0  0  0  0  0  0  0  0  0  0  0  0
   36.9630   25.4440   38.1170 H   0  0  0  0  0  0  0  0  0  0  0  0
   38.1750   26.4780   38.8980 H   0  0  0  0  0  0  0  0  0  0  0  0
   35.1940   27.0570   39.2790 H   0  0  0  0  0  0  0  0  0  0  0  0
   36.3890   26.2190   40.4200 H   0  0  0  0  0  0  0  0  0  0  0  0
   37.9210   28.1690   40.0990 H   0  0  0  0  0  0  0  0  0  0  0  0
   36.4990   30.5940   39.1710 C   0  0  0  0  0  0  0  0  0  0  0  0
   35.4840   31.0100   38.9970 H   0  0  0  0  0  0  0  0  0  0  0  0
   36.7460   30.8450   40.2330 H   0  0  0  0  0  0  0  0  0  0  0  0
   37.4640   31.1270   38.1820 C   0  0  0  0  0  0  0  0  0  0  0  0
   38.0870   30.3290   37.7730 H   0  0  0  0  0  0  0  0  0  0  0  0
   36.9300   31.5600   37.2830 H   0  0  0  0  0  0  0  0  0  0  0  0
   38.4570   34.0960   40.2780 C   0  0  0  0  0  0  0  0  0  0  0  0
   37.7010   33.0840   39.6520 C   0  0  0  0  0  0  0  0  0  0  0  0
   38.2890   32.1790   38.8260 C   0  0  0  0  0  0  0  0  0  0  0  0
   39.6060   32.2970   38.6410 N   0  0  0  0  0  0  0  0  0  0  0  0
   40.3490   33.2500   39.2240 C   0  0  0  0  0  0  0  0  0  0  0  0
   39.7930   34.1580   40.0450 N   0  0  0  0  0  0  0  0  0  0  0  0
   38.0340   34.8210   40.9290 H   0  0  0  0  0  0  0  0  0  0  0  0
   36.6600   33.1380   39.9140 H   0  0  0  0  0  0  0  0  0  0  0  0
   41.4090   33.2260   38.9840 H   0  0  0  0  0  0  0  0  0  0  0  0
   36.1960   28.5570   41.1820 O   0  0  0  0  0  0  0  0  0  0  0  0
   36.2610   27.0210   43.3660 O   0  0  0  0  0  0  0  0  0  0  0  0
   37.0670   28.0180   42.5000 P   0  0  2  0  0  0  0  0  0  0  0  0
   37.2590   29.3770   43.5460 O   0  0  0  0  0  0  0  0  0  0  0  0
   37.5410   30.1370   42.9670 H   0  0  0  0  0  0  0  0  0  0  0  0
   38.5740   27.4380   42.1590 O   0  0  0  0  0  0  0  0  0  0  0  0
   38.7310   26.1590   42.6240 C   0  0  0  0  0  0  0  0  0  0  0  0
   37.9690   26.0570   43.4620 H   0  0  0  0  0  0  0  0  0  0  0  0
   39.7040   26.1560   43.2020 H   0  0  0  0  0  0  0  0  0  0  0  0
   38.6440   25.0650   41.6700 C   0  0  0  0  0  0  0  0  0  0  0  0
   39.6610   25.1770   40.7150 C   0  0  0  0  0  3  0  0  0  0  0  0
   39.7450   24.1660   39.7500 C   0  0  0  0  0  0  0  0  0  0  0  0
   40.5100   24.1670   38.9580 H   0  0  0  0  0  0  0  0  0  0  0  0
   38.9040   23.1170   39.7060 N   0  0  0  0  0  0  0  0  0  0  0  0
   37.9450   23.0570   40.6470 C   0  0  0  0  0  3  0  0  0  0  0  0
   37.8080   23.9930   41.6030 N   0  0  0  0  0  0  0  0  0  0  0  0
  1 16  1  0  0  0  0
  1  6  1  0  0  0  0
  2  1  1  0  0  0  0
  3  2  1  0  0  0  0
  3  4  1  0  0  0  0
  4 12  1  0  0  0  0
  4  5  1  0  0  0  0
  5  6  1  0  0  0  0
  5 14  1  0  0  0  0
  6 15  1  1  0  0  0
  6 31  1  0  0  0  0
  7  2  1  0  0  0  0
  8  2  1  0  0  0  0
  9  3  1  0  0  0  0
 10  3  1  0  0  0  0
 11  4  1  0  0  0  0
 13  5  1  0  0  0  0
 16 18  1  0  0  0  0
 17 16  1  0  0  0  0
 19 24  1  0  0  0  0
 19 16  1  0  0  0  0
 20 19  1  0  0  0  0
 21 19  1  0  0  0  0
 22 28  1  0  0  0  0
 23 29  1  0  0  0  0
 23 22  2  0  0  0  0
 24 23  1  0  0  0  0
 25 24  2  0  0  0  0
 25 26  1  0  0  0  0
 26 27  2  0  0  0  0
 27 22  1  0  0  0  0
 30 26  1  0  0  0  0
 31 33  1  0  0  0  0
 33 32  2  1  0  0  0
 33 34  1  0  0  0  0
 35 34  1  0  0  0  0
 36 33  1  0  0  0  0
 36 37  1  0  0  0  0
 37 39  1  0  0  0  0
 37 38  1  0  0  0  0
 40 37  1  0  0  0  0
 41 40  2  0  0  0  0
 42 41  1  0  0  0  0
 43 42  1  0  0  0  0
 44 42  2  0  0  0  0
 44 45  1  0  0  0  0
 45 46  2  0  0  0  0
 46 40  1  0  0  0  0
M  END
>  <minimizedAffinity>
-5.01120043

$$$$

 OpenBabel03252509063D

 46 48  0  0  1  0  0  0  0  0999 V2000
   36.6060   27.5830   38.2960 N   0  0  0  0  0  0  0  0  0  0  0  0
   35.7600   26.9070   37.3830 C   0  0  0  0  0  0  0  0  0  0  0  0
   34.3380   27.4210   37.3190 C   0  0  0  0  0  0  0  0  0  0  0  0
   34.1940   28.9010   37.5830 C   0  0  0  0  0  0  0  0  0  0  0  0
   35.5410   29.5690   37.7290 C   0  0  0  0  0  0  0  0  0  0  0  0
   36.2190   28.7610   38.9020 C   0  0  2  0  0  0  0  0  0  0  0  0
   36.1960   27.0740   36.3570 H   0  0  0  0  0  0  0  0  0  0  0  0
   35.6920   25.8190   37.4800 H   0  0  0  0  0  0  0  0  0  0  0  0
   33.6940   26.8140   38.0110 H   0  0  0  0  0  0  0  0  0  0  0  0
   33.9220   27.2410   36.2960 H   0  0  0  0  0  0  0  0  0  0  0  0
   33.5100   29.4100   36.8860 H   0  0  0  0  0  0  0  0  0  0  0  0
   33.7150   28.9920   38.5980 H   0  0  0  0  0  0  0  0  0  0  0  0
   36.1690   29.4840   36.8370 H   0  0  0  0  0  0  0  0  0  0  0  0
   35.3560   30.6050   38.0680 H   0  0  0  0  0  0  0  0  0  0  0  0
   35.4620   28.7240   39.7120 H   0  0  0  0  0  0  0  0  0  0  0  0
   37.5170   26.7120   39.0090 C   0  0  0  0  0  0  0  0  0  0  0  0
   37.7490   25.8770   38.3140 H   0  0  0  0  0  0  0  0  0  0  0  0
   38.4970   27.2170   39.2050 H   0  0  0  0  0  0  0  0  0  0  0  0
   36.8390   26.2110   40.2270 C   0  0  0  0  0  0  0  0  0  0  0  0
   35.7880   26.5080   40.2400 H   0  0  0  0  0  0  0  0  0  0  0  0
   36.8140   25.0800   40.2450 H   0  0  0  0  0  0  0  0  0  0  0  0
   37.5040   27.5670   43.6790 C   0  0  0  0  0  0  0  0  0  0  0  0
   36.8520   27.0850   42.5260 C   0  0  0  0  0  0  0  0  0  0  0  0
   37.5570   26.7130   41.4250 C   0  0  0  0  0  0  0  0  0  0  0  0
   38.8850   26.8260   41.4920 N   0  0  0  0  0  0  0  0  0  0  0  0
   39.5320   27.2810   42.5760 C   0  0  0  0  0  0  0  0  0  0  0  0
   38.8590   27.6560   43.6780 N   0  0  0  0  0  0  0  0  0  0  0  0
   36.9880   27.8660   44.5580 H   0  0  0  0  0  0  0  0  0  0  0  0
   35.7840   27.0590   42.6470 H   0  0  0  0  0  0  0  0  0  0  0  0
   40.6140   27.3190   42.4900 H   0  0  0  0  0  0  0  0  0  0  0  0
   37.2850   29.5730   39.2080 O   0  0  0  0  0  0  0  0  0  0  0  0
   37.9570   30.3650   41.6690 O   0  0  0  0  0  0  0  0  0  0  0  0
   36.9850   30.6000   40.4900 P   0  0  2  0  0  0  0  0  0  0  0  0
   35.4580   30.1290   41.1430 O   0  0  0  0  0  0  0  0  0  0  0  0
   34.8450   30.0160   40.3670 H   0  0  0  0  0  0  0  0  0  0  0  0
   36.8850   32.2000   40.1010 O   0  0  0  0  0  0  0  0  0  0  0  0
   37.7090   32.5080   39.0510 C   0  0  0  0  0  0  0  0  0  0  0  0
   37.2110   33.3920   38.5380 H   0  0  0  0  0  0  0  0  0  0  0  0
   37.5580   31.6880   38.2860 H   0  0  0  0  0  0  0  0  0  0  0  0
   39.1140   32.7590   39.3310 C   0  0  0  0  0  0  0  0  0  0  0  0
   39.9130   32.2070   38.3230 C   0  0  0  0  0  3  0  0  0  0  0  0
   41.2950   32.4080   38.4200 C   0  0  0  0  0  0  0  0  0  0  0  0
   42.0040   32.0130   37.6760 H   0  0  0  0  0  0  0  0  0  0  0  0
   41.8700   33.0940   39.4240 N   0  0  0  0  0  0  0  0  0  0  0  0
   41.0580   33.6030   40.3670 C   0  0  0  0  0  3  0  0  0  0  0  0
   39.7230   33.4480   40.3340 N   0  0  0  0  0  0  0  0  0  0  0  0
  1  6  1  0  0  0  0
  1 16  1  0  0  0  0
  2  8  1  0  0  0  0
  2  1  1  0  0  0  0
  3  2  1  0  0  0  0
  3  4  1  0  0  0  0
  3  9  1  0  0  0  0
  4  5  1  0  0  0  0
  4 12  1  0  0  0  0
  5 14  1  0  0  0  0
  5  6  1  0  0  0  0
  6 31  1  0  0  0  0
  6 15  1  1  0  0  0
  7  2  1  0  0  0  0
 10  3  1  0  0  0  0
 11  4  1  0  0  0  0
 13  5  1  0  0  0  0
 16 18  1  0  0  0  0
 16 19  1  0  0  0  0
 17 16  1  0  0  0  0
 19 20  1  0  0  0  0
 19 21  1  0  0  0  0
 19 24  1  0  0  0  0
 22 28  1  0  0  0  0
 23 29  1  0  0  0  0
 23 22  2  0  0  0  0
 24 25  2  0  0  0  0
 24 23  1  0  0  0  0
 25 26  1  0  0  0  0
 26 27  2  0  0  0  0
 27 22  1  0  0  0  0
 30 26  1  0  0  0  0
 31 33  1  0  0  0  0
 33 34  1  0  0  0  0
 33 32  2  1  0  0  0
 35 34  1  0  0  0  0
 36 33  1  0  0  0  0
 37 40  1  0  0  0  0
 37 36  1  0  0  0  0
 38 37  1  0  0  0  0
 39 37  1  0  0  0  0
 40 46  1  0  0  0  0
 41 42  1  0  0  0  0
 41 40  2  0  0  0  0
 42 44  2  0  0  0  0
 43 42  1  0  0  0  0
 44 45  1  0  0  0  0
 46 45  2  0  0  0  0
M  END
>  <minimizedAffinity>
-4.98694038

$$$$
