
 OpenBabel03252506493D

 27 29  0  0  0  0  0  0  0  0999 V2000
   44.3870   34.5680   42.1170 C   0  0  0  0  0  0  0  0  0  0  0  0
   44.7200   33.5470   43.0090 C   0  0  0  0  0  0  0  0  0  0  0  0
   45.1820   33.9080   44.2850 C   0  0  0  0  0  0  0  0  0  0  0  0
   45.2830   35.2240   44.5860 N   0  0  0  0  0  0  0  0  0  0  0  0
   44.9520   36.1860   43.6950 C   0  0  0  0  0  0  0  0  0  0  0  0
   44.5020   35.8720   42.4560 N   0  0  0  0  0  0  0  0  0  0  0  0
   44.6360   32.4990   42.7610 H   0  0  0  0  0  0  0  0  0  0  0  0
   45.4350   33.1020   44.9640 H   0  0  0  0  0  0  0  0  0  0  0  0
   45.0790   37.5880   44.0730 C   0  0  0  0  0  0  0  0  0  0  0  0
   44.9570   37.9730   45.3820 C   0  0  0  0  0  3  0  0  0  0  0  0
   45.0900   39.3320   45.6880 C   0  0  0  0  0  0  0  0  0  0  0  0
   44.9930   39.6380   46.7230 H   0  0  0  0  0  0  0  0  0  0  0  0
   45.3330   40.2540   44.7140 N   0  0  0  0  0  0  0  0  0  0  0  0
   45.4410   39.8010   43.4490 C   0  0  0  0  0  3  0  0  0  0  0  0
   45.3230   38.4930   43.0870 N   0  0  0  0  0  0  0  0  0  0  0  0
   43.8060   34.0270   40.5160 S   0  0  0  0  0  0  0  0  0  0  0  0
   41.7000   31.8630   41.5730 Cl  0  0  0  0  0  0  0  0  0  0  0  0
   41.0840   33.2920   40.7450 C   0  0  0  0  0  0  0  0  0  0  0  0
   42.0500   34.1600   40.3300 C   0  0  0  0  0  0  0  0  0  0  0  0
   41.6270   35.3190   39.6650 C   0  0  0  0  0  0  0  0  0  0  0  0
   40.2680   35.5270   39.4630 C   0  0  0  0  0  0  0  0  0  0  0  0
   39.2990   34.6470   39.8850 C   0  0  0  0  0  0  0  0  0  0  0  0
   39.7440   33.5020   40.5440 C   0  0  0  0  0  0  0  0  0  0  0  0
   38.6110   32.3000   41.1330 Cl  0  0  0  0  0  0  0  0  0  0  0  0
   42.3070   36.0730   39.2940 H   0  0  0  0  0  0  0  0  0  0  0  0
   39.9200   36.4240   38.9470 H   0  0  0  0  0  0  0  0  0  0  0  0
   38.2450   34.8230   39.7210 H   0  0  0  0  0  0  0  0  0  0  0  0
  1  6  2  0  0  0  0
  1  2  1  0  0  0  0
  2  3  2  0  0  0  0
  3  4  1  0  0  0  0
  3  8  1  0  0  0  0
  5  9  1  0  0  0  0
  5  4  2  0  0  0  0
  6  5  1  0  0  0  0
  7  2  1  0  0  0  0
  9 10  1  0  0  0  0
 10 11  2  0  0  0  0
 11 12  1  0  0  0  0
 13 11  1  0  0  0  0
 14 13  2  0  0  0  0
 15 14  1  0  0  0  0
 15  9  2  0  0  0  0
 16  1  1  0  0  0  0
 18 17  1  0  0  0  0
 19 16  1  0  0  0  0
 19 18  2  0  0  0  0
 20 19  1  0  0  0  0
 21 20  2  0  0  0  0
 21 22  1  0  0  0  0
 22 23  2  0  0  0  0
 23 18  1  0  0  0  0
 23 24  1  0  0  0  0
 25 20  1  0  0  0  0
 26 21  1  0  0  0  0
 27 22  1  0  0  0  0
M  END
>  <minimizedAffinity>
-3.14079189

>  <minimizedRMSD>
1.53540742

$$$$
