
 OpenBabel03252505393D

 26 28  0  0  1  0  0  0  0  0999 V2000
   44.3970   34.7180   43.2260 C   0  0  1  0  0  0  0  0  0  0  0  0
   44.8840   36.1250   42.8140 C   0  0  0  0  0  0  0  0  0  0  0  0
   44.4770   35.0870   41.8120 C   0  0  2  0  0  0  0  0  0  0  0  0
   43.4390   34.7200   43.7940 H   0  0  0  0  0  0  0  0  0  0  0  0
   44.2000   36.9650   43.0340 H   0  0  0  0  0  0  0  0  0  0  0  0
   45.9440   36.3610   42.9360 H   0  0  0  0  0  0  0  0  0  0  0  0
   45.2910   34.6950   41.1710 H   0  0  0  0  0  0  0  0  0  0  0  0
   45.4440   33.8880   43.8790 C   0  0  0  0  0  0  0  0  0  0  0  0
   46.5380   33.4280   43.0990 C   0  0  0  0  0  0  0  0  0  0  0  0
   47.5160   32.6650   43.7310 C   0  0  0  0  0  0  0  0  0  0  0  0
   47.3700   32.4040   45.0570 N   0  0  0  0  0  0  0  0  0  0  0  0
   46.3100   32.8640   45.7640 C   0  0  0  0  0  0  0  0  0  0  0  0
   45.3470   33.6090   45.1640 N   0  0  0  0  0  0  0  0  0  0  0  0
   46.6010   33.6700   42.0370 H   0  0  0  0  0  0  0  0  0  0  0  0
   48.3550   32.2950   43.1900 H   0  0  0  0  0  0  0  0  0  0  0  0
   46.3420   32.4760   47.2130 C   0  0  0  0  0  0  0  0  0  0  0  0
   45.3050   33.0340   47.9160 F   0  0  0  0  0  0  0  0  0  0  0  0
   47.5430   32.9090   47.7860 F   0  0  0  0  0  0  0  0  0  0  0  0
   46.3600   31.0900   47.3000 F   0  0  0  0  0  0  0  0  0  0  0  0
   43.1360   35.2460   41.1440 C   0  0  0  0  0  0  0  0  0  0  0  0
   42.9770   35.0850   39.7870 C   0  0  0  0  0  0  0  0  0  0  0  0
   41.7690   35.2210   39.1430 C   0  0  0  0  0  0  0  0  0  0  0  0
   41.6440   35.0940   38.0750 H   0  0  0  0  0  0  0  0  0  0  0  0
   40.6920   35.5290   39.8960 N   0  0  0  0  0  0  0  0  0  0  0  0
   40.8230   35.6920   41.2250 C   0  0  0  0  0  0  0  0  0  0  0  0
   42.0180   35.5550   41.8580 N   0  0  0  0  0  0  0  0  0  0  0  0
  1  4  1  1  0  0  0
  1  8  1  0  0  0  0
  2  6  1  0  0  0  0
  2  5  1  0  0  0  0
  2  1  1  0  0  0  0
  3  7  1  6  0  0  0
  3  2  1  0  0  0  0
  3  1  1  0  0  0  0
  8 13  1  0  0  0  0
  9 10  1  0  0  0  0
  9  8  2  0  0  0  0
 10 11  2  0  0  0  0
 11 12  1  0  0  0  0
 12 16  1  0  0  0  0
 13 12  2  0  0  0  0
 14  9  1  0  0  0  0
 15 10  1  0  0  0  0
 16 19  1  0  0  0  0
 16 18  1  0  0  0  0
 16 17  1  0  0  0  0
 20  3  1  0  0  0  0
 20 26  1  0  0  0  0
 21 20  2  0  0  0  0
 22 21  1  0  0  0  0
 22 24  2  0  0  0  0
 23 22  1  0  0  0  0
 24 25  1  0  0  0  0
 25 26  2  0  0  0  0
M  END
>  <minimizedAffinity>
-5.01306438

>  <minimizedRMSD>
1.28719437

$$$$
