
 OpenBabel03252509313D

 25 26  0  0  0  0  0  0  0  0999 V2000
   48.0110   33.2810   42.8760 O   0  0  0  0  0  0  0  0  0  0  0  0
   47.0450   34.2550   42.6080 C   0  0  0  0  0  0  0  0  0  0  0  0
   47.4680   35.2110   42.2490 H   0  0  0  0  0  0  0  0  0  0  0  0
   46.3610   33.9110   41.7770 H   0  0  0  0  0  0  0  0  0  0  0  0
   45.4600   33.8900   45.9770 C   0  0  0  0  0  0  0  0  0  0  0  0
   46.2840   33.6410   44.8700 C   0  0  0  0  0  0  0  0  0  0  0  0
   46.1950   34.4920   43.7790 C   0  0  0  0  0  0  0  0  0  0  0  0
   45.3120   35.5300   43.8350 N   0  0  0  0  0  0  0  0  0  0  0  0
   44.5210   35.7500   44.9260 C   0  0  0  0  0  0  0  0  0  0  0  0
   44.6070   34.9280   45.9780 N   0  0  0  0  0  0  0  0  0  0  0  0
   45.5810   33.1790   46.8040 H   0  0  0  0  0  0  0  0  0  0  0  0
   46.9720   32.7900   44.8850 H   0  0  0  0  0  0  0  0  0  0  0  0
   43.8230   36.5650   44.9790 H   0  0  0  0  0  0  0  0  0  0  0  0
   50.4630   32.7150   42.1640 O   0  0  0  0  0  0  0  0  0  0  0  0
   49.4550   33.8390   42.2140 P   0  0  2  0  0  0  0  0  0  0  0  0
   49.9920   35.1350   43.1440 O   0  0  0  0  0  0  0  0  0  0  0  0
   50.9460   35.0410   43.3250 H   0  0  0  0  0  0  0  0  0  0  0  0
   49.1580   34.3190   40.6300 O   0  0  0  0  0  0  0  0  0  0  0  0
   48.4850   33.4600   39.7720 C   0  0  0  0  0  0  0  0  0  0  0  0
   49.1030   32.2330   39.5110 C   0  0  0  0  0  3  0  0  0  0  0  0
   48.5050   31.3080   38.6640 C   0  0  0  0  0  0  0  0  0  0  0  0
   48.9730   30.3380   38.4450 H   0  0  0  0  0  0  0  0  0  0  0  0
   47.3180   31.6470   38.1150 N   0  0  0  0  0  0  0  0  0  0  0  0
   46.7510   32.8350   38.3880 C   0  0  0  0  0  3  0  0  0  0  0  0
   47.3090   33.7280   39.1930 N   0  0  0  0  0  0  0  0  0  0  0  0
  2  1  1  0  0  0  0
  2  7  1  0  0  0  0
  3  2  1  0  0  0  0
  4  2  1  0  0  0  0
  5 10  1  0  0  0  0
  5 11  1  0  0  0  0
  6 12  1  0  0  0  0
  6  5  2  0  0  0  0
  7  8  2  0  0  0  0
  7  6  1  0  0  0  0
  8  9  1  0  0  0  0
  9 13  1  0  0  0  0
  9 10  2  0  0  0  0
 15 14  2  1  0  0  0
 15  1  1  0  0  0  0
 15 16  1  0  0  0  0
 16 17  1  0  0  0  0
 18 15  1  0  0  0  0
 19 18  1  0  0  0  0
 20 19  1  0  0  0  0
 21 20  2  0  0  0  0
 22 21  1  0  0  0  0
 23 24  2  0  0  0  0
 23 21  1  0  0  0  0
 24 25  1  0  0  0  0
 25 19  2  0  0  0  0
M  END
>  <minimizedAffinity>
-4.2999711

>  <minimizedRMSD>
0.571455121

$$$$
