
 OpenBabel03242514163D

 39 41  0  0  0  0  0  0  0  0999 V2000
   46.5050   34.3250   43.8190 C   0  0  0  0  0  0  0  0  0  0  0  0
   46.0550   33.9890   45.0820 C   0  0  0  0  0  0  0  0  0  0  0  0
   44.9940   34.6980   45.5650 C   0  0  0  0  0  0  0  0  0  0  0  0
   44.4400   35.6810   44.7980 N   0  0  0  0  0  0  0  0  0  0  0  0
   44.8870   35.9950   43.5770 C   0  0  0  0  0  0  0  0  0  0  0  0
   45.9100   35.3120   43.1110 N   0  0  0  0  0  0  0  0  0  0  0  0
   44.4370   34.6750   46.4810 H   0  0  0  0  0  0  0  0  0  0  0  0
   44.4800   36.7640   42.9360 H   0  0  0  0  0  0  0  0  0  0  0  0
   47.6710   33.5670   43.3400 C   0  0  0  0  0  0  0  0  0  0  0  0
   48.7630   34.3570   42.7990 C   0  0  0  0  0  0  0  0  0  0  0  0
   48.9940   34.1560   41.3680 C   0  0  0  0  0  0  0  0  0  0  0  0
   49.2580   32.6860   41.0550 C   0  0  0  0  0  0  0  0  0  0  0  0
   48.3120   31.7660   41.7470 C   0  0  0  0  0  0  0  0  0  0  0  0
   47.1510   32.5040   42.3800 C   0  0  0  0  0  0  0  0  0  0  0  0
   48.0780   32.9150   44.1610 H   0  0  0  0  0  0  0  0  0  0  0  0
   49.7580   34.2270   43.3200 H   0  0  0  0  0  0  0  0  0  0  0  0
   48.5370   35.4390   42.9560 H   0  0  0  0  0  0  0  0  0  0  0  0
   48.1900   34.5810   40.7450 H   0  0  0  0  0  0  0  0  0  0  0  0
   49.9300   34.6970   41.0810 H   0  0  0  0  0  0  0  0  0  0  0  0
   50.3220   32.4640   41.2850 H   0  0  0  0  0  0  0  0  0  0  0  0
   49.1970   32.6160   39.9310 H   0  0  0  0  0  0  0  0  0  0  0  0
   48.8180   31.0840   42.4600 H   0  0  0  0  0  0  0  0  0  0  0  0
   47.8610   31.1030   40.9740 H   0  0  0  0  0  0  0  0  0  0  0  0
   46.6060   33.0270   41.5740 H   0  0  0  0  0  0  0  0  0  0  0  0
   46.4720   31.8100   42.8720 H   0  0  0  0  0  0  0  0  0  0  0  0
   46.4340   33.0970   45.9670 O   0  0  0  0  0  0  0  0  0  0  0  0
   45.8680   32.4380   47.0160 C   0  0  0  0  0  0  0  0  0  0  0  0
   45.5000   31.4440   46.7070 H   0  0  0  0  0  0  0  0  0  0  0  0
   44.9450   32.9940   47.3240 H   0  0  0  0  0  0  0  0  0  0  0  0
   46.7190   32.3420   48.2620 C   0  0  0  0  0  0  0  0  0  0  0  0
   47.2700   33.2890   48.4350 H   0  0  0  0  0  0  0  0  0  0  0  0
   45.9930   32.2870   49.1100 H   0  0  0  0  0  0  0  0  0  0  0  0
   47.5670   31.1450   48.3100 C   0  0  0  0  0  0  0  0  0  0  0  0
   48.5750   31.1950   49.2590 C   0  0  0  0  0  0  0  0  0  0  0  0
   49.4340   30.1060   49.3830 C   0  0  0  0  0  0  0  0  0  0  0  0
   50.2250   30.1390   50.1260 H   0  0  0  0  0  0  0  0  0  0  0  0
   49.3050   29.0130   48.6020 N   0  0  0  0  0  0  0  0  0  0  0  0
   48.3040   28.9920   47.6750 C   0  0  0  0  0  0  0  0  0  0  0  0
   47.4590   30.0330   47.5350 N   0  0  0  0  0  0  0  0  0  0  0  0
  1  2  1  0  0  0  0
  2  3  2  0  0  0  0
  2 26  1  0  0  0  0
  3  7  1  0  0  0  0
  4  3  1  0  0  0  0
  5  4  2  0  0  0  0
  6  5  1  0  0  0  0
  6  1  2  0  0  0  0
  8  5  1  0  0  0  0
  9  1  1  0  0  0  0
  9 15  1  0  0  0  0
 10 17  1  0  0  0  0
 10 16  1  0  0  0  0
 10  9  1  0  0  0  0
 11 10  1  0  0  0  0
 12 20  1  0  0  0  0
 12 11  1  0  0  0  0
 12 13  1  0  0  0  0
 13 14  1  0  0  0  0
 13 22  1  0  0  0  0
 14 25  1  0  0  0  0
 14  9  1  0  0  0  0
 18 11  1  0  0  0  0
 19 11  1  0  0  0  0
 21 12  1  0  0  0  0
 23 13  1  0  0  0  0
 24 14  1  0  0  0  0
 26 27  1  0  0  0  0
 27 29  1  0  0  0  0
 27 30  1  0  0  0  0
 28 27  1  0  0  0  0
 30 33  1  0  0  0  0
 30 31  1  0  0  0  0
 30 32  1  0  0  0  0
 33 34  1  0  0  0  0
 34 35  2  0  0  0  0
 35 36  1  0  0  0  0
 37 35  1  0  0  0  0
 38 37  2  0  0  0  0
 39 38  1  0  0  0  0
 39 33  2  0  0  0  0
M  END
>  <minimizedAffinity>
-5.05907822

>  <minimizedRMSD>
3.01840901

$$$$
