
 OpenBabel03242522413D

 45 48  0  0  0  0  0  0  0  0999 V2000
   46.5790   32.4250   44.7660 C   0  0  0  0  0  0  0  0  0  0  0  0
   46.4020   31.8360   43.8500 H   0  0  0  0  0  0  0  0  0  0  0  0
   47.6430   32.6120   45.0160 H   0  0  0  0  0  0  0  0  0  0  0  0
   45.9460   34.1990   43.2170 C   0  0  0  0  0  0  0  0  0  0  0  0
   45.8990   33.6920   44.5130 C   0  0  0  0  0  0  0  0  0  0  0  0
   45.2600   34.2820   45.5390 C   0  0  0  0  0  0  0  0  0  0  0  0
   44.6000   35.4710   45.3230 C   0  0  0  0  0  0  0  0  0  0  0  0
   44.5810   36.0540   44.0920 C   0  0  0  0  0  0  0  0  0  0  0  0
   45.2530   35.4080   43.0640 C   0  0  0  0  0  0  0  0  0  0  0  0
   45.1400   34.0000   46.5470 H   0  0  0  0  0  0  0  0  0  0  0  0
   44.0480   36.0580   46.0570 H   0  0  0  0  0  0  0  0  0  0  0  0
   44.0860   36.9880   43.8250 H   0  0  0  0  0  0  0  0  0  0  0  0
   45.2540   35.8500   42.0660 H   0  0  0  0  0  0  0  0  0  0  0  0
   46.6930   33.4720   41.8640 S   0  0  0  0  0  0  0  0  0  0  0  0
   46.6720   34.5070   40.6670 O   0  0  0  0  0  0  0  0  0  0  0  0
   45.8570   32.3510   41.3440 O   0  0  0  0  0  0  0  0  0  0  0  0
   48.3880   33.2100   41.8510 C   0  0  0  0  0  0  0  0  0  0  0  0
   49.1270   34.2380   42.4710 C   0  0  0  0  0  0  0  0  0  0  0  0
   50.4840   34.2470   42.6010 C   0  0  0  0  0  0  0  0  0  0  0  0
   51.0480   35.0320   43.0750 H   0  0  0  0  0  0  0  0  0  0  0  0
   51.1820   33.2100   42.1080 N   0  0  0  0  0  0  0  0  0  0  0  0
   50.5040   32.2150   41.5110 C   0  0  0  0  0  0  0  0  0  0  0  0
   49.1680   32.2230   41.3910 N   0  0  0  0  0  0  0  0  0  0  0  0
   45.9730   31.5590   45.8320 C   0  0  0  0  0  0  0  0  0  0  0  0
   44.9840   31.9110   46.2130 H   0  0  0  0  0  0  0  0  0  0  0  0
   45.6980   30.5240   45.4830 H   0  0  0  0  0  0  0  0  0  0  0  0
   47.2850   32.3890   47.7590 C   0  0  0  0  0  0  0  0  0  0  0  0
   46.9920   31.3420   46.8590 C   0  0  0  0  0  0  0  0  0  0  0  0
   47.6530   30.1390   47.0200 C   0  0  0  0  0  0  0  0  0  0  0  0
   48.5420   30.0270   48.0330 N   0  0  0  0  0  0  0  0  0  0  0  0
   48.7980   31.0340   48.8720 C   0  0  0  0  0  0  0  0  0  0  0  0
   48.1760   32.2300   48.7530 N   0  0  0  0  0  0  0  0  0  0  0  0
   46.8890   33.3870   47.7970 H   0  0  0  0  0  0  0  0  0  0  0  0
   47.4240   29.3440   46.3230 H   0  0  0  0  0  0  0  0  0  0  0  0
   49.7940   30.8110   49.9740 C   0  0  0  0  0  0  0  0  0  0  0  0
   49.2910   31.0340   50.9600 H   0  0  0  0  0  0  0  0  0  0  0  0
   50.0260   29.7280   50.0450 H   0  0  0  0  0  0  0  0  0  0  0  0
   51.0330   31.5490   49.7890 C   0  0  0  0  0  0  0  0  0  0  0  0
   52.1620   31.0930   49.1310 C   0  0  0  0  0  0  0  0  0  0  0  0
   53.1200   32.0700   49.1620 C   0  0  0  0  0  0  0  0  0  0  0  0
   52.5460   33.1020   49.8430 N   0  0  0  0  0  0  0  0  0  0  0  0
   51.3040   32.7990   50.2190 N   0  0  0  0  0  0  0  0  0  0  0  0
   52.3270   30.1320   48.6490 H   0  0  0  0  0  0  0  0  0  0  0  0
   54.1350   32.1370   48.7780 H   0  0  0  0  0  0  0  0  0  0  0  0
   52.8970   34.0570   50.1110 H   0  0  0  0  0  0  0  0  0  0  0  0
  1  3  1  0  0  0  0
  1 24  1  0  0  0  0
  2  1  1  0  0  0  0
  4  5  1  0  0  0  0
  5  1  1  0  0  0  0
  5  6  2  0  0  0  0
  6 10  1  0  0  0  0
  7  6  1  0  0  0  0
  7 11  1  0  0  0  0
  8  7  2  0  0  0  0
  9  4  2  0  0  0  0
  9  8  1  0  0  0  0
 12  8  1  0  0  0  0
 13  9  1  0  0  0  0
 14  4  1  0  0  0  0
 15 14  2  0  0  0  0
 16 14  2  0  0  0  0
 17 14  1  0  0  0  0
 17 18  1  0  0  0  0
 18 19  2  0  0  0  0
 19 20  1  0  0  0  0
 21 19  1  0  0  0  0
 22 21  2  0  0  0  0
 23 22  1  0  0  0  0
 23 17  2  0  0  0  0
 24 25  1  0  0  0  0
 24 28  1  0  0  0  0
 26 24  1  0  0  0  0
 27 33  1  0  0  0  0
 27 32  1  0  0  0  0
 28 29  1  0  0  0  0
 28 27  2  0  0  0  0
 29 30  2  0  0  0  0
 30 31  1  0  0  0  0
 31 35  1  0  0  0  0
 32 31  2  0  0  0  0
 34 29  1  0  0  0  0
 35 37  1  0  0  0  0
 35 36  1  0  0  0  0
 38 35  1  0  0  0  0
 38 42  2  0  0  0  0
 39 40  2  0  0  0  0
 39 38  1  0  0  0  0
 40 41  1  0  0  0  0
 41 45  1  0  0  0  0
 41 42  1  0  0  0  0
 43 39  1  0  0  0  0
 44 40  1  0  0  0  0
M  END
>  <minimizedAffinity>
-6.28475237

>  <minimizedRMSD>
1.00502682

$$$$
