
 OpenBabel03252508393D

 39 42  0  0  0  0  0  0  0  0999 V2000
   45.1700   33.9870   40.7430 C   0  0  0  0  0  0  0  0  0  0  0  0
   44.1190   33.6740   39.9320 C   0  0  0  0  0  0  0  0  0  0  0  0
   44.4030   33.1760   38.7010 C   0  0  0  0  0  0  0  0  0  0  0  0
   45.6760   32.9700   38.2260 C   0  0  0  0  0  0  0  0  0  0  0  0
   46.7160   33.2920   39.0610 C   0  0  0  0  0  0  0  0  0  0  0  0
   46.4830   33.8010   40.3210 C   0  0  0  0  0  0  0  0  0  0  0  0
   43.5610   32.9250   38.0470 H   0  0  0  0  0  0  0  0  0  0  0  0
   45.8730   32.5760   37.2510 H   0  0  0  0  0  0  0  0  0  0  0  0
   47.7330   33.1340   38.6990 H   0  0  0  0  0  0  0  0  0  0  0  0
   40.9340   35.3810   41.0300 C   0  0  0  0  0  0  0  0  0  0  0  0
   42.2260   35.1920   40.5110 C   0  0  0  0  0  0  0  0  0  0  0  0
   42.7920   33.9040   40.4620 C   0  0  0  0  0  0  0  0  0  0  0  0
   42.0000   32.9140   40.9440 N   0  0  0  0  0  0  0  0  0  0  0  0
   40.7830   33.1040   41.4320 C   0  0  0  0  0  0  0  0  0  0  0  0
   40.2450   34.3290   41.4790 N   0  0  0  0  0  0  0  0  0  0  0  0
   40.4170   36.6900   41.0560 N   0  0  0  0  0  0  0  0  0  0  0  0
   42.8070   36.0200   40.1420 H   0  0  0  0  0  0  0  0  0  0  0  0
   40.1970   32.2720   41.8030 H   0  0  0  0  0  0  0  0  0  0  0  0
   39.9400   37.1950   41.8360 H   0  0  0  0  0  0  0  0  0  0  0  0
   40.4880   37.2900   40.2050 H   0  0  0  0  0  0  0  0  0  0  0  0
   47.6510   34.1100   41.1290 C   0  0  0  0  0  0  0  0  0  0  0  0
   48.1720   35.3740   40.9730 C   0  0  0  0  0  0  0  0  0  0  0  0
   49.2880   35.8440   41.6650 C   0  0  0  0  0  0  0  0  0  0  0  0
   49.8930   34.9790   42.5510 C   0  0  0  0  0  0  0  0  0  0  0  0
   49.3910   33.7070   42.7240 C   0  0  0  0  0  0  0  0  0  0  0  0
   48.2810   33.2660   42.0250 C   0  0  0  0  0  0  0  0  0  0  0  0
   47.7290   36.0950   40.2850 H   0  0  0  0  0  0  0  0  0  0  0  0
   49.6560   36.8450   41.5070 H   0  0  0  0  0  0  0  0  0  0  0  0
   50.7730   35.2780   43.1290 H   0  0  0  0  0  0  0  0  0  0  0  0
   49.8380   32.9930   43.4140 H   0  0  0  0  0  0  0  0  0  0  0  0
   47.6910   31.9280   42.1570 C   0  0  0  0  0  0  0  0  0  0  0  0
   48.3470   30.9960   41.3460 C   0  0  0  0  0  3  0  0  0  0  0  0
   47.9530   29.6550   41.3110 C   0  0  0  0  0  0  0  0  0  0  0  0
   48.4670   28.9370   40.6790 H   0  0  0  0  0  0  0  0  0  0  0  0
   46.9170   29.2470   42.0770 N   0  0  0  0  0  0  0  0  0  0  0  0
   46.3340   30.1980   42.8310 C   0  0  0  0  0  3  0  0  0  0  0  0
   46.6720   31.5040   42.9040 N   0  0  0  0  0  0  0  0  0  0  0  0
   44.7980   34.9460   43.1410 N   0  0  0  0  0  0  0  0  0  0  0  0
   44.9720   34.5220   42.0710 C   0  0  0  0  0  0  0  0  0  0  0  0
  1 39  1  0  0  0  0
  2 12  1  0  0  0  0
  2  1  2  0  0  0  0
  3  2  1  0  0  0  0
  4  3  2  0  0  0  0
  4  5  1  0  0  0  0
  5  6  2  0  0  0  0
  6  1  1  0  0  0  0
  6 21  1  0  0  0  0
  7  3  1  0  0  0  0
  8  4  1  0  0  0  0
  9  5  1  0  0  0  0
 10 16  1  0  0  0  0
 10 15  1  0  0  0  0
 11 10  2  0  0  0  0
 12 11  1  0  0  0  0
 12 13  2  0  0  0  0
 13 14  1  0  0  0  0
 14 15  2  0  0  0  0
 14 18  1  0  0  0  0
 16 19  1  0  0  0  0
 17 11  1  0  0  0  0
 20 16  1  0  0  0  0
 21 26  1  0  0  0  0
 22 21  2  0  0  0  0
 22 23  1  0  0  0  0
 23 24  2  0  0  0  0
 24 25  1  0  0  0  0
 24 29  1  0  0  0  0
 25 30  1  0  0  0  0
 26 31  1  0  0  0  0
 26 25  2  0  0  0  0
 27 22  1  0  0  0  0
 28 23  1  0  0  0  0
 31 37  1  0  0  0  0
 32 31  2  0  0  0  0
 33 32  1  0  0  0  0
 33 35  2  0  0  0  0
 34 33  1  0  0  0  0
 35 36  1  0  0  0  0
 36 37  2  0  0  0  0
 39 38  3  0  0  0  0
M  END
>  <minimizedAffinity>
-5.93089914

>  <minimizedRMSD>
0.446644902

$$$$
