
 OpenBabel03252509113D

 29 32  0  0  0  0  0  0  0  0999 V2000
   42.7970   30.6780   40.1950 C   0  0  0  0  0  0  0  0  0  0  0  0
   43.3520   31.8350   40.6920 C   0  0  0  0  0  0  0  0  0  0  0  0
   44.5590   31.8500   41.3580 C   0  0  0  0  0  0  0  0  0  0  0  0
   45.2730   30.6710   41.5530 C   0  0  0  0  0  0  0  0  0  0  0  0
   46.4430   30.3090   42.1340 N   0  0  0  0  0  0  0  0  0  0  0  0
   46.6060   28.9650   41.9990 C   0  0  0  0  0  0  0  0  0  0  0  0
   45.5190   28.5080   41.3260 N   0  0  0  0  0  0  0  0  0  0  0  0
   44.6930   29.5260   41.0440 C   0  0  0  0  0  0  0  0  0  0  0  0
   43.4870   29.4690   40.3730 C   0  0  0  0  0  0  0  0  0  0  0  0
   41.8430   30.6860   39.6730 H   0  0  0  0  0  0  0  0  0  0  0  0
   47.0400   31.0460   42.5850 H   0  0  0  0  0  0  0  0  0  0  0  0
   47.4920   28.5350   42.4130 H   0  0  0  0  0  0  0  0  0  0  0  0
   43.0980   28.5280   40.0020 H   0  0  0  0  0  0  0  0  0  0  0  0
   42.3900   35.1350   39.3820 C   0  0  0  0  0  0  0  0  0  0  0  0
   41.3200   35.4860   40.2050 C   0  0  0  0  0  0  0  0  0  0  0  0
   40.9270   34.5870   41.2130 C   0  0  0  0  0  0  0  0  0  0  0  0
   41.6280   33.4120   41.3230 N   0  0  0  0  0  0  0  0  0  0  0  0
   42.6530   33.0970   40.5200 C   0  0  0  0  0  0  0  0  0  0  0  0
   43.0320   33.9580   39.5530 N   0  0  0  0  0  0  0  0  0  0  0  0
   42.7170   35.8150   38.5900 H   0  0  0  0  0  0  0  0  0  0  0  0
   40.7920   36.4230   40.0850 H   0  0  0  0  0  0  0  0  0  0  0  0
   40.1010   34.8100   41.8800 H   0  0  0  0  0  0  0  0  0  0  0  0
   45.1340   33.0860   41.8790 C   0  0  0  0  0  0  0  0  0  0  0  0
   44.6970   33.7710   42.9960 C   0  0  0  0  0  3  0  0  0  0  0  0
   45.3780   34.9240   43.3240 C   0  0  0  0  0  0  0  0  0  0  0  0
   45.0360   35.4560   44.1940 H   0  0  0  0  0  0  0  0  0  0  0  0
   46.4220   35.3730   42.6030 N   0  0  0  0  0  0  0  0  0  0  0  0
   46.8320   34.6930   41.5200 C   0  0  0  0  0  3  0  0  0  0  0  0
   46.1900   33.5460   41.1540 N   0  0  0  0  0  0  0  0  0  0  0  0
  1  9  2  0  0  0  0
  1  2  1  0  0  0  0
  2  3  2  0  0  0  0
  3  4  1  0  0  0  0
  3 23  1  0  0  0  0
  4  5  1  0  0  0  0
  5 11  1  0  0  0  0
  6  5  1  0  0  0  0
  6 12  1  0  0  0  0
  7  6  2  0  0  0  0
  8  7  1  0  0  0  0
  8  4  2  0  0  0  0
  9  8  1  0  0  0  0
 10  1  1  0  0  0  0
 13  9  1  0  0  0  0
 14 19  2  0  0  0  0
 14 15  1  0  0  0  0
 15 16  2  0  0  0  0
 16 17  1  0  0  0  0
 16 22  1  0  0  0  0
 18  2  1  0  0  0  0
 18 17  2  0  0  0  0
 19 18  1  0  0  0  0
 20 14  1  0  0  0  0
 21 15  1  0  0  0  0
 23 24  1  0  0  0  0
 24 25  2  0  0  0  0
 25 26  1  0  0  0  0
 27 25  1  0  0  0  0
 28 27  2  0  0  0  0
 29 28  1  0  0  0  0
 29 23  2  0  0  0  0
M  END
>  <minimizedAffinity>
-3.26481891

>  <minimizedRMSD>
6.08945799

$$$$
