
 OpenBabel03242515573D

 35 38  0  0  0  0  0  0  0  0999 V2000
   36.8120   27.0480   39.8400 C   0  0  0  0  0  0  0  0  0  0  0  0
   36.7270   25.6370   39.7730 C   0  0  0  0  0  0  0  0  0  0  0  0
   36.8470   24.8110   40.8640 C   0  0  0  0  0  0  0  0  0  0  0  0
   37.0600   25.3300   42.0900 C   0  0  0  0  0  0  0  0  0  0  0  0
   37.1540   26.7050   42.2180 C   0  0  0  0  0  0  0  0  0  0  0  0
   37.3730   27.1940   43.4780 C   0  0  0  0  0  0  0  0  0  0  0  0
   37.4810   28.5570   43.6740 C   0  0  0  0  0  0  0  0  0  0  0  0
   37.3590   29.3630   42.5530 C   0  0  0  0  0  0  0  0  0  0  0  0
   37.1460   28.8060   41.3450 C   0  0  0  0  0  0  0  0  0  0  0  0
   37.0300   27.5050   41.1080 C   0  0  0  0  0  0  0  0  0  0  0  0
   36.5570   25.1710   38.8180 H   0  0  0  0  0  0  0  0  0  0  0  0
   36.7700   23.7410   40.7340 H   0  0  0  0  0  0  0  0  0  0  0  0
   37.1490   24.6590   42.9260 H   0  0  0  0  0  0  0  0  0  0  0  0
   37.4590   26.4720   44.3200 H   0  0  0  0  0  0  0  0  0  0  0  0
   37.6550   28.8100   44.7370 H   0  0  0  0  0  0  0  0  0  0  0  0
   37.4190   30.3510   42.9870 H   0  0  0  0  0  0  0  0  0  0  0  0
   37.8780   28.7310   36.8450 C   0  0  0  0  0  0  0  0  0  0  0  0
   36.6640   29.3360   36.3870 C   0  0  0  0  0  0  0  0  0  0  0  0
   35.4540   29.1730   37.1250 C   0  0  0  0  0  0  0  0  0  0  0  0
   35.5390   28.4330   38.2420 N   0  0  0  0  0  0  0  0  0  0  0  0
   36.6310   27.8750   38.6750 C   0  0  0  0  0  0  0  0  0  0  0  0
   37.7920   28.0310   37.9680 N   0  0  0  0  0  0  0  0  0  0  0  0
   38.7710   28.8750   36.2630 H   0  0  0  0  0  0  0  0  0  0  0  0
   34.5760   29.6550   36.7250 H   0  0  0  0  0  0  0  0  0  0  0  0
   36.7600   30.0840   35.1770 N   0  0  0  0  0  0  0  0  0  0  0  0
   37.3820   29.7000   34.4260 H   0  0  0  0  0  0  0  0  0  0  0  0
   36.2070   30.9680   35.1110 H   0  0  0  0  0  0  0  0  0  0  0  0
   37.0920   29.8330   40.4520 O   0  0  0  0  0  0  0  0  0  0  0  0
   38.0220   30.8440   40.2310 C   0  0  0  0  0  0  0  0  0  0  0  0
   39.3530   30.9440   39.9350 C   0  0  0  0  0  3  0  0  0  0  0  0
   40.1030   32.0710   39.7450 C   0  0  0  0  0  0  0  0  0  0  0  0
   41.1520   31.9810   39.5180 H   0  0  0  0  0  0  0  0  0  0  0  0
   39.4080   33.2390   39.8680 N   0  0  0  0  0  0  0  0  0  0  0  0
   38.0940   33.2170   40.1560 C   0  0  0  0  0  3  0  0  0  0  0  0
   37.4990   32.0620   40.3150 N   0  0  0  0  0  0  0  0  0  0  0  0
  1 10  1  0  0  0  0
  2  1  2  0  0  0  0
  2  3  1  0  0  0  0
  3  4  2  0  0  0  0
  4  5  1  0  0  0  0
  4 13  1  0  0  0  0
  5  6  1  0  0  0  0
  6  7  2  0  0  0  0
  6 14  1  0  0  0  0
  7 15  1  0  0  0  0
  8 16  1  0  0  0  0
  8  7  1  0  0  0  0
  9  8  2  0  0  0  0
 10  9  1  0  0  0  0
 10  5  2  0  0  0  0
 11  2  1  0  0  0  0
 12  3  1  0  0  0  0
 17 22  1  0  0  0  0
 18 17  2  0  0  0  0
 18 19  1  0  0  0  0
 19 20  2  0  0  0  0
 20 21  1  0  0  0  0
 21  1  1  0  0  0  0
 22 21  2  0  0  0  0
 23 17  1  0  0  0  0
 24 19  1  0  0  0  0
 25 18  1  0  0  0  0
 26 25  1  0  0  0  0
 27 25  1  0  0  0  0
 28  9  1  0  0  0  0
 29 35  1  0  0  0  0
 29 28  1  0  0  0  0
 30 29  2  0  0  0  0
 31 33  2  0  0  0  0
 31 30  1  0  0  0  0
 32 31  1  0  0  0  0
 33 34  1  0  0  0  0
 34 35  2  0  0  0  0
M  END
>  <minimizedAffinity>
-6.07504272

$$$$

 OpenBabel03242515573D

 35 38  0  0  0  0  0  0  0  0999 V2000
   37.7560   29.1260   41.1300 C   0  0  0  0  0  0  0  0  0  0  0  0
   38.0230   29.5550   42.4520 C   0  0  0  0  0  0  0  0  0  0  0  0
   37.9680   28.7310   43.5490 C   0  0  0  0  0  0  0  0  0  0  0  0
   37.6440   27.4300   43.4090 C   0  0  0  0  0  0  0  0  0  0  0  0
   37.3710   26.9520   42.1390 C   0  0  0  0  0  0  0  0  0  0  0  0
   37.0450   25.6260   42.0360 C   0  0  0  0  0  0  0  0  0  0  0  0
   36.7570   25.0860   40.7980 C   0  0  0  0  0  0  0  0  0  0  0  0
   36.8170   25.9440   39.7110 C   0  0  0  0  0  0  0  0  0  0  0  0
   37.1450   27.2370   39.8930 C   0  0  0  0  0  0  0  0  0  0  0  0
   37.4340   27.8000   41.0600 C   0  0  0  0  0  0  0  0  0  0  0  0
   38.2860   30.5850   42.6200 H   0  0  0  0  0  0  0  0  0  0  0  0
   38.1850   29.1340   44.5290 H   0  0  0  0  0  0  0  0  0  0  0  0
   37.6100   26.8090   44.2860 H   0  0  0  0  0  0  0  0  0  0  0  0
   37.0200   25.0120   42.9630 H   0  0  0  0  0  0  0  0  0  0  0  0
   36.5120   24.0090   40.8630 H   0  0  0  0  0  0  0  0  0  0  0  0
   36.6150   25.2700   38.8900 H   0  0  0  0  0  0  0  0  0  0  0  0
   39.4170   30.5770   38.2900 C   0  0  0  0  0  0  0  0  0  0  0  0
   38.4390   31.5020   37.8040 C   0  0  0  0  0  0  0  0  0  0  0  0
   37.1840   31.6400   38.4680 C   0  0  0  0  0  0  0  0  0  0  0  0
   36.9990   30.8610   39.5470 N   0  0  0  0  0  0  0  0  0  0  0  0
   37.8740   30.0150   40.0040 C   0  0  0  0  0  0  0  0  0  0  0  0
   39.0780   29.8830   39.3680 N   0  0  0  0  0  0  0  0  0  0  0  0
   40.3530   30.5010   37.7630 H   0  0  0  0  0  0  0  0  0  0  0  0
   36.4920   32.3530   38.0510 H   0  0  0  0  0  0  0  0  0  0  0  0
   38.8060   32.2440   36.6430 N   0  0  0  0  0  0  0  0  0  0  0  0
   39.3510   31.7370   35.9050 H   0  0  0  0  0  0  0  0  0  0  0  0
   38.5110   33.2450   36.5960 H   0  0  0  0  0  0  0  0  0  0  0  0
   37.1010   27.8230   38.6640 O   0  0  0  0  0  0  0  0  0  0  0  0
   35.9880   28.1800   37.9090 C   0  0  0  0  0  0  0  0  0  0  0  0
   34.6360   28.2730   38.0870 C   0  0  0  0  0  3  0  0  0  0  0  0
   33.6820   28.6640   37.1900 C   0  0  0  0  0  0  0  0  0  0  0  0
   32.6460   28.6810   37.4870 H   0  0  0  0  0  0  0  0  0  0  0  0
   34.1680   29.0050   35.9610 N   0  0  0  0  0  0  0  0  0  0  0  0
   35.4890   28.9390   35.7150 C   0  0  0  0  0  3  0  0  0  0  0  0
   36.2920   28.5450   36.6690 N   0  0  0  0  0  0  0  0  0  0  0  0
  1  2  1  0  0  0  0
  2 11  1  0  0  0  0
  2  3  2  0  0  0  0
  3 12  1  0  0  0  0
  4  3  1  0  0  0  0
  4 13  1  0  0  0  0
  5  4  2  0  0  0  0
  6  5  1  0  0  0  0
  6 14  1  0  0  0  0
  7 15  1  0  0  0  0
  7  6  2  0  0  0  0
  8  9  2  0  0  0  0
  8  7  1  0  0  0  0
  9 10  1  0  0  0  0
 10  1  2  0  0  0  0
 10  5  1  0  0  0  0
 16  8  1  0  0  0  0
 17 22  1  0  0  0  0
 18 17  2  0  0  0  0
 18 19  1  0  0  0  0
 19 20  2  0  0  0  0
 20 21  1  0  0  0  0
 21  1  1  0  0  0  0
 22 21  2  0  0  0  0
 23 17  1  0  0  0  0
 24 19  1  0  0  0  0
 25 18  1  0  0  0  0
 26 25  1  0  0  0  0
 27 25  1  0  0  0  0
 28  9  1  0  0  0  0
 29 30  1  0  0  0  0
 29 28  1  0  0  0  0
 31 32  1  0  0  0  0
 31 30  2  0  0  0  0
 33 31  1  0  0  0  0
 34 33  2  0  0  0  0
 34 35  1  0  0  0  0
 35 29  2  0  0  0  0
M  END
>  <minimizedAffinity>
-6.07150698

$$$$

 OpenBabel03242515573D

 35 38  0  0  0  0  0  0  0  0999 V2000
   40.1050   29.2920   41.5550 C   0  0  0  0  0  0  0  0  0  0  0  0
   41.3410   28.9190   42.1350 C   0  0  0  0  0  0  0  0  0  0  0  0
   41.4630   28.0030   43.1520 C   0  0  0  0  0  0  0  0  0  0  0  0
   40.3700   27.4000   43.6600 C   0  0  0  0  0  0  0  0  0  0  0  0
   39.1330   27.7250   43.1330 C   0  0  0  0  0  0  0  0  0  0  0  0
   38.0450   27.0930   43.6740 C   0  0  0  0  0  0  0  0  0  0  0  0
   36.7810   27.3750   43.1970 C   0  0  0  0  0  0  0  0  0  0  0  0
   36.6910   28.3060   42.1740 C   0  0  0  0  0  0  0  0  0  0  0  0
   37.8060   28.8870   41.6930 C   0  0  0  0  0  0  0  0  0  0  0  0
   39.0420   28.6450   42.1160 C   0  0  0  0  0  0  0  0  0  0  0  0
   42.2460   29.3710   41.7680 H   0  0  0  0  0  0  0  0  0  0  0  0
   42.4430   27.7710   43.5450 H   0  0  0  0  0  0  0  0  0  0  0  0
   40.4970   26.6870   44.4550 H   0  0  0  0  0  0  0  0  0  0  0  0
   38.2120   26.3600   44.4950 H   0  0  0  0  0  0  0  0  0  0  0  0
   36.0000   26.7940   43.7230 H   0  0  0  0  0  0  0  0  0  0  0  0
   35.6310   28.2900   41.9570 H   0  0  0  0  0  0  0  0  0  0  0  0
   40.2130   30.2490   38.0900 C   0  0  0  0  0  0  0  0  0  0  0  0
   39.9260   31.6500   38.1510 C   0  0  0  0  0  0  0  0  0  0  0  0
   39.7000   32.2860   39.4090 C   0  0  0  0  0  0  0  0  0  0  0  0
   39.7730   31.4940   40.4910 N   0  0  0  0  0  0  0  0  0  0  0  0
   40.0320   30.2200   40.4570 C   0  0  0  0  0  0  0  0  0  0  0  0
   40.2500   29.6100   39.2520 N   0  0  0  0  0  0  0  0  0  0  0  0
   40.3780   29.8040   37.1240 H   0  0  0  0  0  0  0  0  0  0  0  0
   39.4890   33.3420   39.3850 H   0  0  0  0  0  0  0  0  0  0  0  0
   39.8840   32.3320   36.9000 N   0  0  0  0  0  0  0  0  0  0  0  0
   39.4550   31.8210   36.0920 H   0  0  0  0  0  0  0  0  0  0  0  0
   40.2800   33.2980   36.8630 H   0  0  0  0  0  0  0  0  0  0  0  0
   37.4030   29.7560   40.7260 O   0  0  0  0  0  0  0  0  0  0  0  0
   36.5620   29.5230   39.6420 C   0  0  0  0  0  0  0  0  0  0  0  0
   36.6750   29.4030   38.2850 C   0  0  0  0  0  3  0  0  0  0  0  0
   35.6950   29.1580   37.3650 C   0  0  0  0  0  0  0  0  0  0  0  0
   35.9480   29.0940   36.3200 H   0  0  0  0  0  0  0  0  0  0  0  0
   34.4450   29.0130   37.8960 N   0  0  0  0  0  0  0  0  0  0  0  0
   34.2600   29.1160   39.2240 C   0  0  0  0  0  3  0  0  0  0  0  0
   35.2920   29.3560   39.9920 N   0  0  0  0  0  0  0  0  0  0  0  0
  1 10  2  0  0  0  0
  1  2  1  0  0  0  0
  2  3  2  0  0  0  0
  3 12  1  0  0  0  0
  3  4  1  0  0  0  0
  4 13  1  0  0  0  0
  5  4  2  0  0  0  0
  5  6  1  0  0  0  0
  6 14  1  0  0  0  0
  7  6  2  0  0  0  0
  7 15  1  0  0  0  0
  8  7  1  0  0  0  0
  9 10  1  0  0  0  0
  9  8  2  0  0  0  0
 10  5  1  0  0  0  0
 11  2  1  0  0  0  0
 16  8  1  0  0  0  0
 17 18  2  0  0  0  0
 17 22  1  0  0  0  0
 18 19  1  0  0  0  0
 19 20  2  0  0  0  0
 21 20  1  0  0  0  0
 21  1  1  0  0  0  0
 22 21  2  0  0  0  0
 23 17  1  0  0  0  0
 24 19  1  0  0  0  0
 25 18  1  0  0  0  0
 26 25  1  0  0  0  0
 27 25  1  0  0  0  0
 28  9  1  0  0  0  0
 29 35  1  0  0  0  0
 29 28  1  0  0  0  0
 30 29  2  0  0  0  0
 31 33  2  0  0  0  0
 31 30  1  0  0  0  0
 32 31  1  0  0  0  0
 33 34  1  0  0  0  0
 34 35  2  0  0  0  0
M  END
>  <minimizedAffinity>
-6.0489459

$$$$

 OpenBabel03242515573D

 35 38  0  0  0  0  0  0  0  0999 V2000
   36.5350   27.3720   39.7440 C   0  0  0  0  0  0  0  0  0  0  0  0
   35.9160   26.8550   38.5800 C   0  0  0  0  0  0  0  0  0  0  0  0
   35.8240   25.5150   38.2950 C   0  0  0  0  0  0  0  0  0  0  0  0
   36.3400   24.6010   39.1410 C   0  0  0  0  0  0  0  0  0  0  0  0
   36.9590   25.0470   40.2950 C   0  0  0  0  0  0  0  0  0  0  0  0
   37.4720   24.0900   41.1300 C   0  0  0  0  0  0  0  0  0  0  0  0
   38.1060   24.4680   42.2970 C   0  0  0  0  0  0  0  0  0  0  0  0
   38.1860   25.8270   42.5550 C   0  0  0  0  0  0  0  0  0  0  0  0
   37.6580   26.7090   41.6850 C   0  0  0  0  0  0  0  0  0  0  0  0
   37.0360   26.3940   40.5550 C   0  0  0  0  0  0  0  0  0  0  0  0
   35.4880   27.5410   37.8710 H   0  0  0  0  0  0  0  0  0  0  0  0
   35.3370   25.1960   37.3840 H   0  0  0  0  0  0  0  0  0  0  0  0
   36.2530   23.5590   38.8910 H   0  0  0  0  0  0  0  0  0  0  0  0
   37.3640   23.0210   40.8420 H   0  0  0  0  0  0  0  0  0  0  0  0
   38.4690   23.5950   42.8720 H   0  0  0  0  0  0  0  0  0  0  0  0
   38.6590   25.8370   43.5280 H   0  0  0  0  0  0  0  0  0  0  0  0
   37.6920   30.7510   39.3230 C   0  0  0  0  0  0  0  0  0  0  0  0
   36.8700   31.4720   40.2460 C   0  0  0  0  0  0  0  0  0  0  0  0
   35.9030   30.7860   41.0390 C   0  0  0  0  0  0  0  0  0  0  0  0
   35.8260   29.4580   40.8570 N   0  0  0  0  0  0  0  0  0  0  0  0
   36.5630   28.7840   40.0240 C   0  0  0  0  0  0  0  0  0  0  0  0
   37.4910   29.4420   39.2640 N   0  0  0  0  0  0  0  0  0  0  0  0
   38.4110   31.3020   38.7420 H   0  0  0  0  0  0  0  0  0  0  0  0
   35.3160   31.3880   41.7140 H   0  0  0  0  0  0  0  0  0  0  0  0
   37.0870   32.8800   40.3050 N   0  0  0  0  0  0  0  0  0  0  0  0
   37.2830   33.3710   39.3990 H   0  0  0  0  0  0  0  0  0  0  0  0
   37.0370   33.3380   41.2420 H   0  0  0  0  0  0  0  0  0  0  0  0
   37.9060   27.9480   42.1920 O   0  0  0  0  0  0  0  0  0  0  0  0
   39.1280   28.5940   42.3530 C   0  0  0  0  0  0  0  0  0  0  0  0
   40.4540   28.2610   42.3420 C   0  0  0  0  0  3  0  0  0  0  0  0
   41.5390   29.0720   42.5200 C   0  0  0  0  0  0  0  0  0  0  0  0
   42.5310   28.6520   42.4850 H   0  0  0  0  0  0  0  0  0  0  0  0
   41.2340   30.3860   42.7310 N   0  0  0  0  0  0  0  0  0  0  0  0
   39.9500   30.7860   42.7520 C   0  0  0  0  0  3  0  0  0  0  0  0
   39.0060   29.8980   42.5680 N   0  0  0  0  0  0  0  0  0  0  0  0
  1 21  1  0  0  0  0
  1 10  1  0  0  0  0
  2  1  2  0  0  0  0
  3  2  1  0  0  0  0
  3  4  2  0  0  0  0
  4  5  1  0  0  0  0
  5 10  2  0  0  0  0
  5  6  1  0  0  0  0
  6  7  2  0  0  0  0
  7  8  1  0  0  0  0
  7 15  1  0  0  0  0
  8 16  1  0  0  0  0
  9 28  1  0  0  0  0
  9  8  2  0  0  0  0
 10  9  1  0  0  0  0
 11  2  1  0  0  0  0
 12  3  1  0  0  0  0
 13  4  1  0  0  0  0
 14  6  1  0  0  0  0
 17 18  1  0  0  0  0
 18 25  1  0  0  0  0
 18 19  2  0  0  0  0
 19 24  1  0  0  0  0
 20 19  1  0  0  0  0
 21 20  2  0  0  0  0
 22 17  2  0  0  0  0
 22 21  1  0  0  0  0
 23 17  1  0  0  0  0
 25 27  1  0  0  0  0
 26 25  1  0  0  0  0
 28 29  1  0  0  0  0
 29 35  1  0  0  0  0
 30 29  2  0  0  0  0
 30 31  1  0  0  0  0
 31 33  2  0  0  0  0
 32 31  1  0  0  0  0
 33 34  1  0  0  0  0
 35 34  2  0  0  0  0
M  END
>  <minimizedAffinity>
-6.03649521

$$$$

 OpenBabel03242515573D

 35 38  0  0  0  0  0  0  0  0999 V2000
   37.3230   26.3420   39.6920 C   0  0  0  0  0  0  0  0  0  0  0  0
   36.8510   25.0180   39.8580 C   0  0  0  0  0  0  0  0  0  0  0  0
   36.6160   24.4380   41.0800 C   0  0  0  0  0  0  0  0  0  0  0  0
   36.8330   25.1300   42.2160 C   0  0  0  0  0  0  0  0  0  0  0  0
   37.2960   26.4300   42.1170 C   0  0  0  0  0  0  0  0  0  0  0  0
   37.5060   27.1020   43.2930 C   0  0  0  0  0  0  0  0  0  0  0  0
   37.9720   28.4010   43.2650 C   0  0  0  0  0  0  0  0  0  0  0  0
   38.2030   28.9580   42.0160 C   0  0  0  0  0  0  0  0  0  0  0  0
   37.9730   28.2330   40.9050 C   0  0  0  0  0  0  0  0  0  0  0  0
   37.5220   26.9840   40.8810 C   0  0  0  0  0  0  0  0  0  0  0  0
   36.6610   24.4210   38.9830 H   0  0  0  0  0  0  0  0  0  0  0  0
   36.2560   23.4190   41.1260 H   0  0  0  0  0  0  0  0  0  0  0  0
   36.6390   24.6490   43.1590 H   0  0  0  0  0  0  0  0  0  0  0  0
   37.2950   26.5750   44.2500 H   0  0  0  0  0  0  0  0  0  0  0  0
   38.0950   28.8190   44.2820 H   0  0  0  0  0  0  0  0  0  0  0  0
   38.4920   29.9660   42.2770 H   0  0  0  0  0  0  0  0  0  0  0  0
   36.2770   28.1050   36.7370 C   0  0  0  0  0  0  0  0  0  0  0  0
   37.4840   28.1610   35.9720 C   0  0  0  0  0  0  0  0  0  0  0  0
   38.6840   27.5740   36.4730 C   0  0  0  0  0  0  0  0  0  0  0  0
   38.5940   26.9860   37.6770 N   0  0  0  0  0  0  0  0  0  0  0  0
   37.5070   26.9240   38.3890 C   0  0  0  0  0  0  0  0  0  0  0  0
   36.3570   27.4870   37.9080 N   0  0  0  0  0  0  0  0  0  0  0  0
   35.3910   28.5580   36.3270 H   0  0  0  0  0  0  0  0  0  0  0  0
   39.5580   27.6510   35.8480 H   0  0  0  0  0  0  0  0  0  0  0  0
   37.3950   28.8290   34.7150 N   0  0  0  0  0  0  0  0  0  0  0  0
   36.7960   29.6890   34.6730 H   0  0  0  0  0  0  0  0  0  0  0  0
   37.9300   28.4250   33.9140 H   0  0  0  0  0  0  0  0  0  0  0  0
   38.3070   29.0280   39.8500 O   0  0  0  0  0  0  0  0  0  0  0  0
   38.1140   30.3970   39.6970 C   0  0  0  0  0  0  0  0  0  0  0  0
   37.0620   31.2700   39.6660 C   0  0  0  0  0  3  0  0  0  0  0  0
   37.0840   32.6280   39.5060 C   0  0  0  0  0  0  0  0  0  0  0  0
   36.1590   33.1790   39.5010 H   0  0  0  0  0  0  0  0  0  0  0  0
   38.3340   33.1600   39.3650 N   0  0  0  0  0  0  0  0  0  0  0  0
   39.4150   32.3600   39.3880 C   0  0  0  0  0  3  0  0  0  0  0  0
   39.2470   31.0720   39.5480 N   0  0  0  0  0  0  0  0  0  0  0  0
  1  2  2  0  0  0  0
  1 10  1  0  0  0  0
  2  3  1  0  0  0  0
  3 12  1  0  0  0  0
  3  4  2  0  0  0  0
  4 13  1  0  0  0  0
  5  4  1  0  0  0  0
  5  6  1  0  0  0  0
  6 14  1  0  0  0  0
  7  6  2  0  0  0  0
  7 15  1  0  0  0  0
  8 16  1  0  0  0  0
  8  7  1  0  0  0  0
  9  8  2  0  0  0  0
 10  9  1  0  0  0  0
 10  5  2  0  0  0  0
 11  2  1  0  0  0  0
 17 22  1  0  0  0  0
 18 19  1  0  0  0  0
 18 17  2  0  0  0  0
 19 20  2  0  0  0  0
 20 21  1  0  0  0  0
 21  1  1  0  0  0  0
 22 21  2  0  0  0  0
 23 17  1  0  0  0  0
 24 19  1  0  0  0  0
 25 18  1  0  0  0  0
 26 25  1  0  0  0  0
 27 25  1  0  0  0  0
 28  9  1  0  0  0  0
 29 28  1  0  0  0  0
 30 29  1  0  0  0  0
 31 30  2  0  0  0  0
 32 31  1  0  0  0  0
 33 34  2  0  0  0  0
 33 31  1  0  0  0  0
 34 35  1  0  0  0  0
 35 29  2  0  0  0  0
M  END
>  <minimizedAffinity>
-5.9243145

$$$$

 OpenBabel03242515573D

 35 38  0  0  0  0  0  0  0  0999 V2000
   37.3130   27.4590   41.0390 C   0  0  0  0  0  0  0  0  0  0  0  0
   37.8390   26.9860   42.2650 C   0  0  0  0  0  0  0  0  0  0  0  0
   37.8700   25.6600   42.6240 C   0  0  0  0  0  0  0  0  0  0  0  0
   37.3810   24.7190   41.7920 C   0  0  0  0  0  0  0  0  0  0  0  0
   36.8520   25.1210   40.5790 C   0  0  0  0  0  0  0  0  0  0  0  0
   36.3640   24.1360   39.7610 C   0  0  0  0  0  0  0  0  0  0  0  0
   35.8190   24.4700   38.5380 C   0  0  0  0  0  0  0  0  0  0  0  0
   35.7990   25.8160   38.2060 C   0  0  0  0  0  0  0  0  0  0  0  0
   36.2970   26.7260   39.0640 C   0  0  0  0  0  0  0  0  0  0  0  0
   36.8350   26.4540   40.2470 C   0  0  0  0  0  0  0  0  0  0  0  0
   38.2420   27.6960   42.9660 H   0  0  0  0  0  0  0  0  0  0  0  0
   38.2870   25.3770   43.5790 H   0  0  0  0  0  0  0  0  0  0  0  0
   37.4190   23.6890   42.1000 H   0  0  0  0  0  0  0  0  0  0  0  0
   36.4200   23.0810   40.1100 H   0  0  0  0  0  0  0  0  0  0  0  0
   35.4660   23.5790   37.9840 H   0  0  0  0  0  0  0  0  0  0  0  0
   35.3900   25.7880   37.2050 H   0  0  0  0  0  0  0  0  0  0  0  0
   36.0900   30.8400   41.0160 C   0  0  0  0  0  0  0  0  0  0  0  0
   37.0970   31.5240   40.2620 C   0  0  0  0  0  0  0  0  0  0  0  0
   38.2170   30.8100   39.7410 C   0  0  0  0  0  0  0  0  0  0  0  0
   38.2510   29.4930   40.0040 N   0  0  0  0  0  0  0  0  0  0  0  0
   37.3470   28.8540   40.6860 C   0  0  0  0  0  0  0  0  0  0  0  0
   36.2730   29.5380   41.1860 N   0  0  0  0  0  0  0  0  0  0  0  0
   35.2600   31.4120   41.3930 H   0  0  0  0  0  0  0  0  0  0  0  0
   38.9380   31.3840   39.1830 H   0  0  0  0  0  0  0  0  0  0  0  0
   36.8980   32.9240   40.0840 N   0  0  0  0  0  0  0  0  0  0  0  0
   36.5050   33.4580   40.8970 H   0  0  0  0  0  0  0  0  0  0  0  0
   37.1550   33.3350   39.1590 H   0  0  0  0  0  0  0  0  0  0  0  0
   36.1210   27.9440   38.4800 O   0  0  0  0  0  0  0  0  0  0  0  0
   35.0330   28.4080   37.7470 C   0  0  0  0  0  0  0  0  0  0  0  0
   33.7240   28.7270   37.9770 C   0  0  0  0  0  3  0  0  0  0  0  0
   32.7900   29.1890   37.0930 C   0  0  0  0  0  0  0  0  0  0  0  0
   31.7880   29.3930   37.4340 H   0  0  0  0  0  0  0  0  0  0  0  0
   33.2490   29.3480   35.8170 N   0  0  0  0  0  0  0  0  0  0  0  0
   34.5280   29.0560   35.5180 C   0  0  0  0  0  3  0  0  0  0  0  0
   35.3170   28.6190   36.4670 N   0  0  0  0  0  0  0  0  0  0  0  0
  1  2  1  0  0  0  0
  2  3  2  0  0  0  0
  2 11  1  0  0  0  0
  3 12  1  0  0  0  0
  4 13  1  0  0  0  0
  4  3  1  0  0  0  0
  5  4  2  0  0  0  0
  6 14  1  0  0  0  0
  6  5  1  0  0  0  0
  7  6  2  0  0  0  0
  8  7  1  0  0  0  0
  8  9  2  0  0  0  0
  9 10  1  0  0  0  0
 10  5  1  0  0  0  0
 10  1  2  0  0  0  0
 15  7  1  0  0  0  0
 16  8  1  0  0  0  0
 17 22  1  0  0  0  0
 17 23  1  0  0  0  0
 18 17  2  0  0  0  0
 19 20  2  0  0  0  0
 19 18  1  0  0  0  0
 20 21  1  0  0  0  0
 21  1  1  0  0  0  0
 21 22  2  0  0  0  0
 24 19  1  0  0  0  0
 25 18  1  0  0  0  0
 25 26  1  0  0  0  0
 27 25  1  0  0  0  0
 28  9  1  0  0  0  0
 29 30  1  0  0  0  0
 29 28  1  0  0  0  0
 31 32  1  0  0  0  0
 31 30  2  0  0  0  0
 33 31  1  0  0  0  0
 34 33  2  0  0  0  0
 34 35  1  0  0  0  0
 35 29  2  0  0  0  0
M  END
>  <minimizedAffinity>
-5.92298937

$$$$

 OpenBabel03242515573D

 35 38  0  0  0  0  0  0  0  0999 V2000
   35.2260   28.6930   38.3550 C   0  0  0  0  0  0  0  0  0  0  0  0
   34.0740   28.8960   37.5570 C   0  0  0  0  0  0  0  0  0  0  0  0
   33.4310   27.8940   36.8730 C   0  0  0  0  0  0  0  0  0  0  0  0
   33.8870   26.6260   36.9340 C   0  0  0  0  0  0  0  0  0  0  0  0
   35.0110   26.3660   37.6980 C   0  0  0  0  0  0  0  0  0  0  0  0
   35.4450   25.0680   37.7340 C   0  0  0  0  0  0  0  0  0  0  0  0
   36.5640   24.7410   38.4740 C   0  0  0  0  0  0  0  0  0  0  0  0
   37.1930   25.7740   39.1500 C   0  0  0  0  0  0  0  0  0  0  0  0
   36.7060   27.0270   39.0640 C   0  0  0  0  0  0  0  0  0  0  0  0
   35.6330   27.3890   38.3710 C   0  0  0  0  0  0  0  0  0  0  0  0
   33.6680   29.8890   37.4740 H   0  0  0  0  0  0  0  0  0  0  0  0
   32.5560   28.1280   36.2830 H   0  0  0  0  0  0  0  0  0  0  0  0
   33.3620   25.8630   36.3880 H   0  0  0  0  0  0  0  0  0  0  0  0
   34.8790   24.3020   37.1590 H   0  0  0  0  0  0  0  0  0  0  0  0
   36.7990   23.6610   38.4140 H   0  0  0  0  0  0  0  0  0  0  0  0
   37.9740   25.2460   39.6800 H   0  0  0  0  0  0  0  0  0  0  0  0
   37.3330   31.5780   38.7570 C   0  0  0  0  0  0  0  0  0  0  0  0
   37.1330   31.9130   40.1340 C   0  0  0  0  0  0  0  0  0  0  0  0
   36.2630   31.1280   40.9480 C   0  0  0  0  0  0  0  0  0  0  0  0
   35.6680   30.0880   40.3420 N   0  0  0  0  0  0  0  0  0  0  0  0
   35.8360   29.7660   39.0930 C   0  0  0  0  0  0  0  0  0  0  0  0
   36.6710   30.5190   38.3130 N   0  0  0  0  0  0  0  0  0  0  0  0
   37.9970   32.1930   38.1740 H   0  0  0  0  0  0  0  0  0  0  0  0
   36.1550   31.4340   41.9760 H   0  0  0  0  0  0  0  0  0  0  0  0
   37.8440   33.0550   40.6080 N   0  0  0  0  0  0  0  0  0  0  0  0
   37.9270   33.8700   39.9540 H   0  0  0  0  0  0  0  0  0  0  0  0
   38.2380   33.0120   41.5740 H   0  0  0  0  0  0  0  0  0  0  0  0
   37.5340   27.8140   39.8060 O   0  0  0  0  0  0  0  0  0  0  0  0
   37.9150   27.6660   41.1360 C   0  0  0  0  0  0  0  0  0  0  0  0
   37.3050   27.5530   42.3540 C   0  0  0  0  0  3  0  0  0  0  0  0
   37.8780   27.4030   43.5850 C   0  0  0  0  0  0  0  0  0  0  0  0
   37.2530   27.3290   44.4590 H   0  0  0  0  0  0  0  0  0  0  0  0
   39.2430   27.3610   43.5720 N   0  0  0  0  0  0  0  0  0  0  0  0
   39.9110   27.4650   42.4090 C   0  0  0  0  0  3  0  0  0  0  0  0
   39.2320   27.6060   41.2990 N   0  0  0  0  0  0  0  0  0  0  0  0
  1 10  1  0  0  0  0
  1 21  1  0  0  0  0
  2  1  2  0  0  0  0
  3  4  2  0  0  0  0
  3  2  1  0  0  0  0
  4  5  1  0  0  0  0
  5  6  2  0  0  0  0
  5 10  1  0  0  0  0
  6  7  1  0  0  0  0
  7  8  2  0  0  0  0
  8 16  1  0  0  0  0
  9  8  1  0  0  0  0
  9 28  1  0  0  0  0
 10  9  2  0  0  0  0
 11  2  1  0  0  0  0
 12  3  1  0  0  0  0
 13  4  1  0  0  0  0
 14  6  1  0  0  0  0
 15  7  1  0  0  0  0
 17 18  1  0  0  0  0
 18 25  1  0  0  0  0
 18 19  2  0  0  0  0
 19 24  1  0  0  0  0
 20 19  1  0  0  0  0
 21 20  2  0  0  0  0
 22 17  2  0  0  0  0
 22 21  1  0  0  0  0
 23 17  1  0  0  0  0
 25 27  1  0  0  0  0
 26 25  1  0  0  0  0
 28 29  1  0  0  0  0
 29 35  2  0  0  0  0
 29 30  1  0  0  0  0
 30 31  2  0  0  0  0
 31 32  1  0  0  0  0
 33 31  1  0  0  0  0
 34 33  2  0  0  0  0
 35 34  1  0  0  0  0
M  END
>  <minimizedAffinity>
-5.70471907

$$$$

 OpenBabel03242515573D

 35 38  0  0  0  0  0  0  0  0999 V2000
   40.9010   28.6650   42.6480 C   0  0  0  0  0  0  0  0  0  0  0  0
   41.7450   27.6080   43.0650 C   0  0  0  0  0  0  0  0  0  0  0  0
   41.2850   26.4110   43.5560 C   0  0  0  0  0  0  0  0  0  0  0  0
   39.9610   26.1840   43.6680 C   0  0  0  0  0  0  0  0  0  0  0  0
   39.0860   27.1820   43.2770 C   0  0  0  0  0  0  0  0  0  0  0  0
   37.7480   26.9150   43.4060 C   0  0  0  0  0  0  0  0  0  0  0  0
   36.8220   27.8700   43.0380 C   0  0  0  0  0  0  0  0  0  0  0  0
   37.3170   29.0690   42.5500 C   0  0  0  0  0  0  0  0  0  0  0  0
   38.6470   29.2570   42.4530 C   0  0  0  0  0  0  0  0  0  0  0  0
   39.5750   28.3690   42.7890 C   0  0  0  0  0  0  0  0  0  0  0  0
   42.8110   27.7370   42.9970 H   0  0  0  0  0  0  0  0  0  0  0  0
   41.9930   25.6500   43.8550 H   0  0  0  0  0  0  0  0  0  0  0  0
   39.6310   25.2360   44.0560 H   0  0  0  0  0  0  0  0  0  0  0  0
   37.4410   25.9250   43.8100 H   0  0  0  0  0  0  0  0  0  0  0  0
   35.7830   27.5220   43.1950 H   0  0  0  0  0  0  0  0  0  0  0  0
   36.4060   29.5910   42.2890 H   0  0  0  0  0  0  0  0  0  0  0  0
   42.0710   30.7940   39.9970 C   0  0  0  0  0  0  0  0  0  0  0  0
   42.3700   32.0100   40.6910 C   0  0  0  0  0  0  0  0  0  0  0  0
   42.1750   32.1020   42.1010 C   0  0  0  0  0  0  0  0  0  0  0  0
   41.7060   30.9970   42.7050 N   0  0  0  0  0  0  0  0  0  0  0  0
   41.4280   29.8840   42.0930 C   0  0  0  0  0  0  0  0  0  0  0  0
   41.6150   29.7950   40.7410 N   0  0  0  0  0  0  0  0  0  0  0  0
   42.2300   30.7620   38.9330 H   0  0  0  0  0  0  0  0  0  0  0  0
   42.4190   33.0450   42.5620 H   0  0  0  0  0  0  0  0  0  0  0  0
   42.8560   33.0820   39.8870 N   0  0  0  0  0  0  0  0  0  0  0  0
   42.4270   33.2000   38.9380 H   0  0  0  0  0  0  0  0  0  0  0  0
   43.6080   33.6850   40.2890 H   0  0  0  0  0  0  0  0  0  0  0  0
   38.8240   30.5170   41.9670 O   0  0  0  0  0  0  0  0  0  0  0  0
   38.3090   31.0820   40.8050 C   0  0  0  0  0  0  0  0  0  0  0  0
   37.8610   30.6520   39.5870 C   0  0  0  0  0  3  0  0  0  0  0  0
   37.3710   31.3930   38.5480 C   0  0  0  0  0  0  0  0  0  0  0  0
   37.0580   30.8990   37.6430 H   0  0  0  0  0  0  0  0  0  0  0  0
   37.3300   32.7370   38.7820 N   0  0  0  0  0  0  0  0  0  0  0  0
   37.7530   33.2310   39.9600 C   0  0  0  0  0  3  0  0  0  0  0  0
   38.2010   32.4040   40.8700 N   0  0  0  0  0  0  0  0  0  0  0  0
  1 10  2  0  0  0  0
  1  2  1  0  0  0  0
  2  3  2  0  0  0  0
  3  4  1  0  0  0  0
  3 12  1  0  0  0  0
  4 13  1  0  0  0  0
  5  6  1  0  0  0  0
  5  4  2  0  0  0  0
  6 14  1  0  0  0  0
  7 15  1  0  0  0  0
  7  6  2  0  0  0  0
  8  7  1  0  0  0  0
  9  8  2  0  0  0  0
  9 10  1  0  0  0  0
 10  5  1  0  0  0  0
 11  2  1  0  0  0  0
 16  8  1  0  0  0  0
 17 18  2  0  0  0  0
 17 22  1  0  0  0  0
 18 19  1  0  0  0  0
 19 24  1  0  0  0  0
 19 20  2  0  0  0  0
 21  1  1  0  0  0  0
 21 20  1  0  0  0  0
 22 21  2  0  0  0  0
 23 17  1  0  0  0  0
 25 27  1  0  0  0  0
 25 18  1  0  0  0  0
 26 25  1  0  0  0  0
 28  9  1  0  0  0  0
 29 35  1  0  0  0  0
 29 28  1  0  0  0  0
 30 29  2  0  0  0  0
 31 33  2  0  0  0  0
 31 30  1  0  0  0  0
 32 31  1  0  0  0  0
 33 34  1  0  0  0  0
 34 35  2  0  0  0  0
M  END
>  <minimizedAffinity>
-5.64565372

$$$$

 OpenBabel03242515573D

 35 38  0  0  0  0  0  0  0  0999 V2000
   38.5210   26.8000   40.2110 C   0  0  0  0  0  0  0  0  0  0  0  0
   38.2650   25.4130   40.0950 C   0  0  0  0  0  0  0  0  0  0  0  0
   37.5730   24.6830   41.0300 C   0  0  0  0  0  0  0  0  0  0  0  0
   37.0920   25.2780   42.1400 C   0  0  0  0  0  0  0  0  0  0  0  0
   37.3120   26.6340   42.3090 C   0  0  0  0  0  0  0  0  0  0  0  0
   36.8090   27.2040   43.4480 C   0  0  0  0  0  0  0  0  0  0  0  0
   36.9970   28.5520   43.6800 C   0  0  0  0  0  0  0  0  0  0  0  0
   37.7020   29.2600   42.7200 C   0  0  0  0  0  0  0  0  0  0  0  0
   38.1670   28.6290   41.6250 C   0  0  0  0  0  0  0  0  0  0  0  0
   38.0070   27.3390   41.3560 C   0  0  0  0  0  0  0  0  0  0  0  0
   38.6270   24.8880   39.2290 H   0  0  0  0  0  0  0  0  0  0  0  0
   37.4180   23.6250   40.8720 H   0  0  0  0  0  0  0  0  0  0  0  0
   36.5530   24.6810   42.8540 H   0  0  0  0  0  0  0  0  0  0  0  0
   36.2560   26.5570   44.1650 H   0  0  0  0  0  0  0  0  0  0  0  0
   36.5390   28.8760   44.6340 H   0  0  0  0  0  0  0  0  0  0  0  0
   37.6490   30.2680   43.1100 H   0  0  0  0  0  0  0  0  0  0  0  0
   41.4170   28.1120   38.5310 C   0  0  0  0  0  0  0  0  0  0  0  0
   40.8400   28.7780   37.4020 C   0  0  0  0  0  0  0  0  0  0  0  0
   39.4250   28.7870   37.2160 C   0  0  0  0  0  0  0  0  0  0  0  0
   38.7040   28.1440   38.1490 N   0  0  0  0  0  0  0  0  0  0  0  0
   39.2080   27.5330   39.1800 C   0  0  0  0  0  0  0  0  0  0  0  0
   40.5640   27.5250   39.3590 N   0  0  0  0  0  0  0  0  0  0  0  0
   42.4870   28.1260   38.6380 H   0  0  0  0  0  0  0  0  0  0  0  0
   39.0560   29.3050   36.3460 H   0  0  0  0  0  0  0  0  0  0  0  0
   41.7590   29.4050   36.5120 N   0  0  0  0  0  0  0  0  0  0  0  0
   42.6610   28.9030   36.3250 H   0  0  0  0  0  0  0  0  0  0  0  0
   41.4830   30.3240   36.1000 H   0  0  0  0  0  0  0  0  0  0  0  0
   38.8240   29.5670   40.8880 O   0  0  0  0  0  0  0  0  0  0  0  0
   38.3740   30.8130   40.4640 C   0  0  0  0  0  0  0  0  0  0  0  0
   37.3470   31.3130   39.7140 C   0  0  0  0  0  3  0  0  0  0  0  0
   37.0660   32.6160   39.4100 C   0  0  0  0  0  0  0  0  0  0  0  0
   36.2110   32.8480   38.7980 H   0  0  0  0  0  0  0  0  0  0  0  0
   37.9410   33.5200   39.9400 N   0  0  0  0  0  0  0  0  0  0  0  0
   38.9750   33.1000   40.6910 C   0  0  0  0  0  3  0  0  0  0  0  0
   39.1250   31.8170   40.9010 N   0  0  0  0  0  0  0  0  0  0  0  0
  1 10  1  0  0  0  0
  2  1  2  0  0  0  0
  2  3  1  0  0  0  0
  3  4  2  0  0  0  0
  4  5  1  0  0  0  0
  4 13  1  0  0  0  0
  5  6  1  0  0  0  0
  6  7  2  0  0  0  0
  6 14  1  0  0  0  0
  7 15  1  0  0  0  0
  8 16  1  0  0  0  0
  8  7  1  0  0  0  0
  9  8  2  0  0  0  0
 10  9  1  0  0  0  0
 10  5  2  0  0  0  0
 11  2  1  0  0  0  0
 12  3  1  0  0  0  0
 17 23  1  0  0  0  0
 17 22  1  0  0  0  0
 18 17  2  0  0  0  0
 19 18  1  0  0  0  0
 19 20  2  0  0  0  0
 20 21  1  0  0  0  0
 21 22  2  0  0  0  0
 21  1  1  0  0  0  0
 24 19  1  0  0  0  0
 25 18  1  0  0  0  0
 26 25  1  0  0  0  0
 27 25  1  0  0  0  0
 28  9  1  0  0  0  0
 29 28  1  0  0  0  0
 29 35  1  0  0  0  0
 30 29  2  0  0  0  0
 31 30  1  0  0  0  0
 31 33  2  0  0  0  0
 32 31  1  0  0  0  0
 33 34  1  0  0  0  0
 34 35  2  0  0  0  0
M  END
>  <minimizedAffinity>
-5.62951708

$$$$
