
 OpenBabel03242510563D

 34 36  0  0  0  0  0  0  0  0999 V2000
   45.6660   31.6790   47.1290 C   0  0  0  0  0  0  0  0  0  0  0  0
   45.5660   32.1600   48.4370 C   0  0  0  0  0  0  0  0  0  0  0  0
   45.3130   31.3540   49.5320 C   0  0  0  0  0  0  0  0  0  0  0  0
   45.1570   30.0110   49.3060 C   0  0  0  0  0  0  0  0  0  0  0  0
   45.2580   29.5330   47.9990 C   0  0  0  0  0  0  0  0  0  0  0  0
   45.5030   30.3650   46.9870 N   0  0  0  0  0  0  0  0  0  0  0  0
   45.6950   33.2290   48.5780 H   0  0  0  0  0  0  0  0  0  0  0  0
   45.2470   31.7860   50.5210 H   0  0  0  0  0  0  0  0  0  0  0  0
   44.9560   29.3200   50.1240 H   0  0  0  0  0  0  0  0  0  0  0  0
   44.8200   36.5280   43.6480 C   0  0  0  0  0  0  0  0  0  0  0  0
   45.7570   36.2430   42.6650 C   0  0  0  0  0  0  0  0  0  0  0  0
   46.4460   35.0190   42.7630 C   0  0  0  0  0  0  0  0  0  0  0  0
   46.1600   34.1860   43.8080 N   0  0  0  0  0  0  0  0  0  0  0  0
   45.2360   34.5220   44.7330 C   0  0  0  0  0  0  0  0  0  0  0  0
   44.5460   35.7090   44.6680 N   0  0  0  0  0  0  0  0  0  0  0  0
   45.9340   32.5990   46.0320 C   0  0  0  0  0  0  0  0  0  0  0  0
   46.9920   32.4390   45.3540 O   0  0  0  0  0  0  0  0  0  0  0  0
   44.9700   33.6280   45.8020 N   0  0  0  0  0  0  0  0  0  0  0  0
   44.2530   37.4720   43.6200 H   0  0  0  0  0  0  0  0  0  0  0  0
   45.9650   36.9070   41.8580 H   0  0  0  0  0  0  0  0  0  0  0  0
   47.1930   34.7200   42.0370 H   0  0  0  0  0  0  0  0  0  0  0  0
   44.1150   33.7230   46.3830 H   0  0  0  0  0  0  0  0  0  0  0  0
   45.0870   28.1040   47.7810 C   0  0  0  0  0  0  0  0  0  0  0  0
   44.7500   27.2970   48.7890 C   0  0  0  0  0  0  0  0  0  0  0  0
   44.5520   25.8360   48.6780 C   0  0  0  0  0  0  0  0  0  0  0  0
   44.5030   25.5110   47.6040 H   0  0  0  0  0  0  0  0  0  0  0  0
   43.6330   25.5310   49.1810 H   0  0  0  0  0  0  0  0  0  0  0  0
   45.7090   25.0780   49.2430 C   0  0  0  0  0  0  0  0  0  0  0  0
   45.4360   24.3180   50.3620 C   0  0  0  0  0  0  0  0  0  0  0  0
   46.4380   23.5830   50.9550 C   0  0  0  0  0  0  0  0  0  0  0  0
   46.2070   22.9940   51.8290 H   0  0  0  0  0  0  0  0  0  0  0  0
   47.6590   23.6550   50.3910 N   0  0  0  0  0  0  0  0  0  0  0  0
   47.8990   24.4030   49.3040 C   0  0  0  0  0  0  0  0  0  0  0  0
   46.9470   25.1390   48.6890 N   0  0  0  0  0  0  0  0  0  0  0  0
  1  2  1  0  0  0  0
  2  7  1  0  0  0  0
  2  3  2  0  0  0  0
  3  8  1  0  0  0  0
  4  3  1  0  0  0  0
  4  9  1  0  0  0  0
  5  4  2  0  0  0  0
  6  1  2  0  0  0  0
  6  5  1  0  0  0  0
 10 15  1  0  0  0  0
 11 12  1  0  0  0  0
 11 10  2  0  0  0  0
 12 13  2  0  0  0  0
 13 14  1  0  0  0  0
 14 18  1  0  0  0  0
 15 14  2  0  0  0  0
 16  1  1  0  0  0  0
 17 16  2  0  0  0  0
 18 16  1  0  0  0  0
 18 22  1  0  0  0  0
 19 10  1  0  0  0  0
 20 11  1  0  0  0  0
 21 12  1  0  0  0  0
 23  5  1  0  0  0  0
 23 24  2  0  0  0  0
 25 24  1  0  0  0  0
 25 27  1  0  0  0  0
 25 28  1  0  0  0  0
 26 25  1  0  0  0  0
 28 29  1  0  0  0  0
 29 30  2  0  0  0  0
 30 31  1  0  0  0  0
 32 30  1  0  0  0  0
 33 32  2  0  0  0  0
 34 28  2  0  0  0  0
 34 33  1  0  0  0  0
M  END
>  <minimizedAffinity>
-5.78674269

>  <minimizedRMSD>
1.06895316

$$$$
