
 OpenBabel03252504583D

 35 37  0  0  1  0  0  0  0  0999 V2000
   47.9600   34.1000   42.0220 N   0  0  0  0  0  0  0  0  0  0  0  0
   48.0120   34.9740   40.9190 C   0  0  0  0  0  0  0  0  0  0  0  0
   49.1220   35.8900   41.2790 C   0  0  0  0  0  0  0  0  0  0  0  0
   49.7030   35.4330   42.6160 C   0  0  0  0  0  0  0  0  0  0  0  0
   49.1930   33.9860   42.6870 C   0  0  2  0  0  0  0  0  0  0  0  0
   47.5520   35.1650   39.9990 H   0  0  0  0  0  0  0  0  0  0  0  0
   49.5550   36.7360   40.7670 H   0  0  0  0  0  0  0  0  0  0  0  0
   49.3240   36.0370   43.4380 H   0  0  0  0  0  0  0  0  0  0  0  0
   50.8040   35.4160   42.4970 H   0  0  0  0  0  0  0  0  0  0  0  0
   49.1230   33.6060   43.7050 H   0  0  0  0  0  0  0  0  0  0  0  0
   46.7720   33.4960   42.3590 C   0  0  0  0  0  0  0  0  0  0  0  0
   46.0340   33.4110   41.5300 H   0  0  0  0  0  0  0  0  0  0  0  0
   46.9930   32.4230   42.5830 H   0  0  0  0  0  0  0  0  0  0  0  0
   44.6130   35.7380   44.5120 C   0  0  0  0  0  0  0  0  0  0  0  0
   45.2950   35.2630   43.3470 C   0  0  0  0  0  0  0  0  0  0  0  0
   46.0570   34.1000   43.4600 C   0  0  0  0  0  0  0  0  0  0  0  0
   46.0970   33.5010   44.6710 N   0  0  0  0  0  0  0  0  0  0  0  0
   45.4350   33.9690   45.7810 C   0  0  0  0  0  0  0  0  0  0  0  0
   44.7000   35.0780   45.7010 N   0  0  0  0  0  0  0  0  0  0  0  0
   44.0370   36.6520   44.3420 H   0  0  0  0  0  0  0  0  0  0  0  0
   45.2330   35.7700   42.4160 H   0  0  0  0  0  0  0  0  0  0  0  0
   45.5130   33.4390   46.7150 H   0  0  0  0  0  0  0  0  0  0  0  0
   50.0300   33.2390   41.8450 O   0  0  0  0  0  0  0  0  0  0  0  0
   49.1610   31.1970   43.3160 O   0  0  0  0  0  0  0  0  0  0  0  0
   50.0840   31.6120   42.1850 P   0  0  2  0  0  0  0  0  0  0  0  0
   51.6600   31.2500   42.7280 O   0  0  0  0  0  0  0  0  0  0  0  0
   52.2500   31.3390   41.9270 H   0  0  0  0  0  0  0  0  0  0  0  0
   49.8600   30.6730   40.8000 O   0  0  0  0  0  0  0  0  0  0  0  0
   49.5600   31.2480   39.5790 C   0  0  0  0  0  0  0  0  0  0  0  0
   48.4150   31.7540   39.0040 C   0  0  0  0  0  0  0  0  0  0  0  0
   48.4510   32.2730   37.7310 C   0  0  0  0  0  0  0  0  0  0  0  0
   47.5030   32.6450   37.3680 H   0  0  0  0  0  0  0  0  0  0  0  0
   49.6310   32.2810   37.0440 N   0  0  0  0  0  0  0  0  0  0  0  0
   50.7550   31.7900   37.5950 C   0  0  0  0  0  0  0  0  0  0  0  0
   50.7180   31.2770   38.8550 N   0  0  0  0  0  0  0  0  0  0  0  0
  1 11  1  0  0  0  0
  1  5  1  0  0  0  0
  2  3  2  0  0  0  0
  2  1  1  0  0  0  0
  3  4  1  0  0  0  0
  4  5  1  0  0  0  0
  4  8  1  0  0  0  0
  5 10  1  1  0  0  0
  6  2  1  0  0  0  0
  7  3  1  0  0  0  0
  9  4  1  0  0  0  0
 11 13  1  0  0  0  0
 11 16  1  0  0  0  0
 12 11  1  0  0  0  0
 14 19  1  0  0  0  0
 15 16  1  0  0  0  0
 15 14  2  0  0  0  0
 16 17  2  0  0  0  0
 17 18  1  0  0  0  0
 18 22  1  0  0  0  0
 19 18  2  0  0  0  0
 20 14  1  0  0  0  0
 21 15  1  0  0  0  0
 23 25  1  0  0  0  0
 23  5  1  0  0  0  0
 25 26  1  0  0  0  0
 25 24  2  1  0  0  0
 27 26  1  0  0  0  0
 28 25  1  0  0  0  0
 29 28  1  0  0  0  0
 30 29  1  0  0  0  0
 31 30  2  0  0  0  0
 32 31  1  0  0  0  0
 33 34  2  0  0  0  0
 33 31  1  0  0  0  0
 34 35  1  0  0  0  0
 35 29  2  0  0  0  0
M  END
>  <minimizedAffinity>
-4.98229599

>  <minimizedRMSD>
1.92833769

$$$$
