
 OpenBabel03252506373D

 42 45  0  0  1  0  0  0  0  0999 V2000
   44.5190   35.4780   45.1440 C   0  0  0  0  0  0  0  0  0  0  0  0
   45.1850   35.4830   43.9060 C   0  0  0  0  0  0  0  0  0  0  0  0
   46.1200   34.5410   43.6540 C   0  0  0  0  0  0  0  0  0  0  0  0
   46.3610   33.6310   44.6320 N   0  0  0  0  0  0  0  0  0  0  0  0
   45.7300   33.6320   45.7960 C   0  0  0  0  0  0  0  0  0  0  0  0
   44.8060   34.5490   46.0670 N   0  0  0  0  0  0  0  0  0  0  0  0
   46.0650   32.6230   46.7640 N   0  0  0  0  0  0  0  0  0  0  0  0
   45.3160   32.3620   47.9400 C   0  0  0  0  0  0  0  0  0  0  0  0
   46.3830   32.0260   48.9650 C   0  0  0  0  0  0  0  0  0  0  0  0
   47.6770   31.9530   48.2120 C   0  0  0  0  0  0  0  0  0  0  0  0
   47.2040   31.7340   46.7760 C   0  0  1  0  0  0  0  0  0  0  0  0
   43.7730   36.2480   45.3120 H   0  0  0  0  0  0  0  0  0  0  0  0
   46.6510   34.5160   42.7120 H   0  0  0  0  0  0  0  0  0  0  0  0
   44.4950   31.7270   48.0170 H   0  0  0  0  0  0  0  0  0  0  0  0
   44.9420   33.3760   48.2980 H   0  0  0  0  0  0  0  0  0  0  0  0
   46.3950   32.6660   49.8470 H   0  0  0  0  0  0  0  0  0  0  0  0
   46.1510   30.9930   49.3590 H   0  0  0  0  0  0  0  0  0  0  0  0
   48.2690   31.1090   48.5730 H   0  0  0  0  0  0  0  0  0  0  0  0
   48.1590   32.9490   48.3180 H   0  0  0  0  0  0  0  0  0  0  0  0
   47.9930   32.0970   46.0970 H   0  0  0  0  0  0  0  0  0  0  0  0
   44.8280   36.5080   42.9600 N   0  0  0  0  0  0  0  0  0  0  0  0
   45.1900   36.3980   41.9820 H   0  0  0  0  0  0  0  0  0  0  0  0
   44.2450   37.3070   43.2460 H   0  0  0  0  0  0  0  0  0  0  0  0
   46.7290   30.0350   46.5760 S   0  0  0  0  0  0  0  0  0  0  0  0
   45.5500   30.5140   43.4900 O   0  0  0  0  0  0  0  0  0  0  0  0
   44.9740   29.9600   44.4410 C   0  0  0  0  0  0  0  0  0  0  0  0
   45.1500   29.7240   45.9000 C   0  0  1  0  0  0  0  0  0  0  0  0
   44.6460   28.3100   46.0340 C   0  0  0  0  0  0  0  0  0  0  0  0
   43.2910   28.5010   45.3510 C   0  0  0  0  0  0  0  0  0  0  0  0
   43.7230   29.2880   44.1940 N   0  0  0  0  0  0  0  0  0  0  0  0
   44.2760   30.3000   46.3010 H   0  0  0  0  0  0  0  0  0  0  0  0
   45.2230   27.6150   45.3890 H   0  0  0  0  0  0  0  0  0  0  0  0
   44.5560   27.9740   47.0710 H   0  0  0  0  0  0  0  0  0  0  0  0
   42.5750   29.0280   45.9740 H   0  0  0  0  0  0  0  0  0  0  0  0
   42.9390   27.5210   44.9760 H   0  0  0  0  0  0  0  0  0  0  0  0
   42.9090   29.3120   43.0060 C   0  0  0  0  0  0  0  0  0  0  0  0
   41.9330   30.2010   42.6730 C   0  0  0  0  0  3  0  0  0  0  0  0
   41.2950   29.9990   41.4630 C   0  0  0  0  0  0  0  0  0  0  0  0
   40.5110   30.7270   41.2120 H   0  0  0  0  0  0  0  0  0  0  0  0
   41.6010   28.9850   40.6350 N   0  0  0  0  0  0  0  0  0  0  0  0
   42.5720   28.1140   40.9820 C   0  0  0  0  0  3  0  0  0  0  0  0
   43.2010   28.2920   42.1500 N   0  0  0  0  0  0  0  0  0  0  0  0
  1 12  1  0  0  0  0
  1  6  1  0  0  0  0
  2  1  2  0  0  0  0
  3  2  1  0  0  0  0
  3  4  2  0  0  0  0
  4  5  1  0  0  0  0
  5  6  2  0  0  0  0
  5  7  1  0  0  0  0
  7 11  1  0  0  0  0
  7  8  1  0  0  0  0
  8 14  1  0  0  0  0
  8 15  1  0  0  0  0
  8  9  1  0  0  0  0
  9 17  1  0  0  0  0
  9 16  1  0  0  0  0
 10 19  1  0  0  0  0
 10 18  1  0  0  0  0
 10  9  1  0  0  0  0
 11 20  1  6  0  0  0
 11 10  1  0  0  0  0
 13  3  1  0  0  0  0
 21 23  1  0  0  0  0
 21  2  1  0  0  0  0
 22 21  1  0  0  0  0
 24 11  1  0  0  0  0
 25 26  2  0  0  0  0
 26 27  1  0  0  0  0
 27 28  1  0  0  0  0
 27 31  1  1  0  0  0
 27 24  1  0  0  0  0
 28 33  1  0  0  0  0
 29 34  1  0  0  0  0
 29 28  1  0  0  0  0
 30 26  1  0  0  0  0
 30 29  1  0  0  0  0
 32 28  1  0  0  0  0
 35 29  1  0  0  0  0
 36 30  1  0  0  0  0
 37 36  1  0  0  0  0
 38 37  2  0  0  0  0
 39 38  1  0  0  0  0
 40 41  2  0  0  0  0
 40 38  1  0  0  0  0
 41 42  1  0  0  0  0
 42 36  2  0  0  0  0
M  END
>  <minimizedAffinity>
-5.27669954

>  <minimizedRMSD>
0.470315427

$$$$
