
 OpenBabel03242513553D

 17 18  0  0  0  0  0  0  0  0999 V2000
   36.5940   28.0140   42.1870 C   0  0  0  0  0  0  0  0  0  0  0  0
   37.0580   29.3340   42.0900 C   0  0  0  0  0  0  0  0  0  0  0  0
   38.3470   29.5960   42.5630 C   0  0  0  0  0  0  0  0  0  0  0  0
   39.0720   28.5700   43.0850 N   0  0  0  0  0  0  0  0  0  0  0  0
   38.5930   27.3110   43.1630 C   0  0  0  0  0  0  0  0  0  0  0  0
   37.3400   27.0390   42.7070 N   0  0  0  0  0  0  0  0  0  0  0  0
   35.5840   27.8530   41.8070 H   0  0  0  0  0  0  0  0  0  0  0  0
   38.8140   30.5600   42.5440 H   0  0  0  0  0  0  0  0  0  0  0  0
   39.2390   26.5450   43.5960 H   0  0  0  0  0  0  0  0  0  0  0  0
   36.3310   30.3860   41.5610 O   0  0  0  0  0  0  0  0  0  0  0  0
   36.6960   30.8210   40.2930 C   0  0  0  0  0  0  0  0  0  0  0  0
   37.0890   32.1600   40.2610 C   0  0  0  0  0  3  0  0  0  0  0  0
   37.4730   32.6940   39.0410 C   0  0  0  0  0  0  0  0  0  0  0  0
   37.8010   33.7170   38.8680 H   0  0  0  0  0  0  0  0  0  0  0  0
   37.4500   31.8980   37.9510 N   0  0  0  0  0  0  0  0  0  0  0  0
   37.0740   30.6220   37.9850 C   0  0  0  0  0  3  0  0  0  0  0  0
   36.6940   30.0810   39.1680 N   0  0  0  0  0  0  0  0  0  0  0  0
  1  6  1  0  0  0  0
  2  1  2  0  0  0  0
  2  3  1  0  0  0  0
  3  4  2  0  0  0  0
  4  5  1  0  0  0  0
  5  9  1  0  0  0  0
  6  5  2  0  0  0  0
  7  1  1  0  0  0  0
  8  3  1  0  0  0  0
 10  2  1  0  0  0  0
 11 10  1  0  0  0  0
 12 11  1  0  0  0  0
 13 12  2  0  0  0  0
 14 13  1  0  0  0  0
 15 16  2  0  0  0  0
 15 13  1  0  0  0  0
 16 17  1  0  0  0  0
 17 11  2  0  0  0  0
M  END
>  <minimizedAffinity>
-3.8074789

$$$$

 OpenBabel03242513553D

 17 18  0  0  0  0  0  0  0  0999 V2000
   38.4180   29.6400   42.4910 C   0  0  0  0  0  0  0  0  0  0  0  0
   37.1060   29.3480   42.0880 C   0  0  0  0  0  0  0  0  0  0  0  0
   36.6620   28.0340   42.2590 C   0  0  0  0  0  0  0  0  0  0  0  0
   37.5140   27.1210   42.7990 N   0  0  0  0  0  0  0  0  0  0  0  0
   38.7700   27.4380   43.1750 C   0  0  0  0  0  0  0  0  0  0  0  0
   39.2190   28.7130   43.0150 N   0  0  0  0  0  0  0  0  0  0  0  0
   38.7240   30.6760   42.3410 H   0  0  0  0  0  0  0  0  0  0  0  0
   35.6840   27.6870   41.9920 H   0  0  0  0  0  0  0  0  0  0  0  0
   39.3900   26.6460   43.6000 H   0  0  0  0  0  0  0  0  0  0  0  0
   36.2300   30.2670   41.5390 O   0  0  0  0  0  0  0  0  0  0  0  0
   36.6700   30.9550   40.4140 C   0  0  0  0  0  0  0  0  0  0  0  0
   36.5960   30.2000   39.2430 C   0  0  0  0  0  3  0  0  0  0  0  0
   37.0120   30.7940   38.0620 C   0  0  0  0  0  0  0  0  0  0  0  0
   37.0100   30.3280   37.0790 H   0  0  0  0  0  0  0  0  0  0  0  0
   37.4650   32.0660   38.1020 N   0  0  0  0  0  0  0  0  0  0  0  0
   37.5340   32.7820   39.2220 C   0  0  0  0  0  3  0  0  0  0  0  0
   37.1330   32.2180   40.3870 N   0  0  0  0  0  0  0  0  0  0  0  0
  1  6  1  0  0  0  0
  2  3  1  0  0  0  0
  2  1  2  0  0  0  0
  3  4  2  0  0  0  0
  4  5  1  0  0  0  0
  5  9  1  0  0  0  0
  6  5  2  0  0  0  0
  7  1  1  0  0  0  0
  8  3  1  0  0  0  0
 10  2  1  0  0  0  0
 11 10  1  0  0  0  0
 12 11  2  0  0  0  0
 13 15  2  0  0  0  0
 13 12  1  0  0  0  0
 14 13  1  0  0  0  0
 15 16  1  0  0  0  0
 16 17  2  0  0  0  0
 17 11  1  0  0  0  0
M  END
>  <minimizedAffinity>
-3.79157782

$$$$

 OpenBabel03242513553D

 17 18  0  0  0  0  0  0  0  0999 V2000
   39.4390   26.6840   43.6780 C   0  0  0  0  0  0  0  0  0  0  0  0
   38.2160   27.2430   43.2800 C   0  0  0  0  0  0  0  0  0  0  0  0
   37.3860   26.4590   42.4730 C   0  0  0  0  0  0  0  0  0  0  0  0
   37.8040   25.2140   42.1210 N   0  0  0  0  0  0  0  0  0  0  0  0
   38.9890   24.7080   42.5230 C   0  0  0  0  0  0  0  0  0  0  0  0
   39.8090   25.4580   43.3090 N   0  0  0  0  0  0  0  0  0  0  0  0
   40.0560   27.3280   44.3060 H   0  0  0  0  0  0  0  0  0  0  0  0
   36.4300   26.7720   42.1050 H   0  0  0  0  0  0  0  0  0  0  0  0
   39.2500   23.6990   42.1970 H   0  0  0  0  0  0  0  0  0  0  0  0
   37.7790   28.5080   43.6310 O   0  0  0  0  0  0  0  0  0  0  0  0
   37.9070   29.5020   42.6690 C   0  0  0  0  0  0  0  0  0  0  0  0
   39.1620   30.1120   42.6690 C   0  0  0  0  0  3  0  0  0  0  0  0
   39.3940   31.1190   41.7460 C   0  0  0  0  0  0  0  0  0  0  0  0
   40.3190   31.6790   41.6320 H   0  0  0  0  0  0  0  0  0  0  0  0
   38.4000   31.4580   40.8960 N   0  0  0  0  0  0  0  0  0  0  0  0
   37.2040   30.8740   40.9000 C   0  0  0  0  0  3  0  0  0  0  0  0
   36.9580   29.8880   41.7950 N   0  0  0  0  0  0  0  0  0  0  0  0
  1  7  1  0  0  0  0
  2 10  1  0  0  0  0
  2  1  2  0  0  0  0
  3  2  1  0  0  0  0
  4  3  2  0  0  0  0
  4  5  1  0  0  0  0
  5  6  2  0  0  0  0
  6  1  1  0  0  0  0
  8  3  1  0  0  0  0
  9  5  1  0  0  0  0
 11 12  1  0  0  0  0
 11 10  1  0  0  0  0
 13 12  2  0  0  0  0
 14 13  1  0  0  0  0
 15 16  2  0  0  0  0
 15 13  1  0  0  0  0
 16 17  1  0  0  0  0
 17 11  2  0  0  0  0
M  END
>  <minimizedAffinity>
-3.78086162

$$$$

 OpenBabel03242513553D

 17 18  0  0  0  0  0  0  0  0999 V2000
   36.6710   30.1050   39.0280 C   0  0  0  0  0  0  0  0  0  0  0  0
   36.6910   30.8020   40.2450 C   0  0  0  0  0  0  0  0  0  0  0  0
   37.1590   32.1190   40.2210 C   0  0  0  0  0  0  0  0  0  0  0  0
   37.5650   32.6460   39.0350 N   0  0  0  0  0  0  0  0  0  0  0  0
   37.5320   31.9450   37.8820 C   0  0  0  0  0  0  0  0  0  0  0  0
   37.0790   30.6620   37.8880 N   0  0  0  0  0  0  0  0  0  0  0  0
   36.2990   29.0820   39.0920 H   0  0  0  0  0  0  0  0  0  0  0  0
   37.2220   32.7540   41.0820 H   0  0  0  0  0  0  0  0  0  0  0  0
   37.8760   32.4420   36.9730 H   0  0  0  0  0  0  0  0  0  0  0  0
   36.2800   30.2780   41.4580 O   0  0  0  0  0  0  0  0  0  0  0  0
   37.1110   29.3280   42.0410 C   0  0  0  0  0  0  0  0  0  0  0  0
   36.5220   28.0670   42.1430 C   0  0  0  0  0  3  0  0  0  0  0  0
   37.2670   27.0470   42.7110 C   0  0  0  0  0  0  0  0  0  0  0  0
   36.9380   26.0200   42.8540 H   0  0  0  0  0  0  0  0  0  0  0  0
   38.5200   27.3210   43.1350 N   0  0  0  0  0  0  0  0  0  0  0  0
   39.0790   28.5250   43.0360 C   0  0  0  0  0  3  0  0  0  0  0  0
   38.3650   29.5360   42.4850 N   0  0  0  0  0  0  0  0  0  0  0  0
  1  7  1  0  0  0  0
  1  2  1  0  0  0  0
  2 10  1  0  0  0  0
  3  2  2  0  0  0  0
  3  8  1  0  0  0  0
  4  3  1  0  0  0  0
  5  6  1  0  0  0  0
  5  4  2  0  0  0  0
  6  1  2  0  0  0  0
  9  5  1  0  0  0  0
 10 11  1  0  0  0  0
 11 12  2  0  0  0  0
 11 17  1  0  0  0  0
 12 13  1  0  0  0  0
 13 14  1  0  0  0  0
 13 15  2  0  0  0  0
 16 15  1  0  0  0  0
 17 16  2  0  0  0  0
M  END
>  <minimizedAffinity>
-3.74520779

$$$$

 OpenBabel03242513553D

 17 18  0  0  0  0  0  0  0  0999 V2000
   38.7460   31.9410   38.9470 C   0  0  0  0  0  0  0  0  0  0  0  0
   38.1480   32.4970   40.0890 C   0  0  0  0  0  0  0  0  0  0  0  0
   38.8530   33.5030   40.7550 C   0  0  0  0  0  0  0  0  0  0  0  0
   40.0650   33.8840   40.2680 N   0  0  0  0  0  0  0  0  0  0  0  0
   40.6100   33.3270   39.1670 C   0  0  0  0  0  0  0  0  0  0  0  0
   39.9370   32.3460   38.5060 N   0  0  0  0  0  0  0  0  0  0  0  0
   38.1630   31.1600   38.4580 H   0  0  0  0  0  0  0  0  0  0  0  0
   38.5040   34.0040   41.6350 H   0  0  0  0  0  0  0  0  0  0  0  0
   41.5870   33.6910   38.8420 H   0  0  0  0  0  0  0  0  0  0  0  0
   36.9170   32.1180   40.5930 O   0  0  0  0  0  0  0  0  0  0  0  0
   36.7890   30.7960   41.0010 C   0  0  0  0  0  0  0  0  0  0  0  0
   35.7420   30.1220   40.3700 C   0  0  0  0  0  3  0  0  0  0  0  0
   35.5280   28.7950   40.7070 C   0  0  0  0  0  0  0  0  0  0  0  0
   34.7540   28.1500   40.2970 H   0  0  0  0  0  0  0  0  0  0  0  0
   36.3390   28.2220   41.6220 N   0  0  0  0  0  0  0  0  0  0  0  0
   37.3360   28.8680   42.2220 C   0  0  0  0  0  3  0  0  0  0  0  0
   37.5610   30.1660   41.9070 N   0  0  0  0  0  0  0  0  0  0  0  0
  1  2  1  0  0  0  0
  2 10  1  0  0  0  0
  2  3  2  0  0  0  0
  3  8  1  0  0  0  0
  4  3  1  0  0  0  0
  5  4  2  0  0  0  0
  6  1  2  0  0  0  0
  6  5  1  0  0  0  0
  7  1  1  0  0  0  0
  9  5  1  0  0  0  0
 10 11  1  0  0  0  0
 11 17  1  0  0  0  0
 12 13  1  0  0  0  0
 12 11  2  0  0  0  0
 13 15  2  0  0  0  0
 14 13  1  0  0  0  0
 15 16  1  0  0  0  0
 17 16  2  0  0  0  0
M  END
>  <minimizedAffinity>
-3.71435547

$$$$

 OpenBabel03242513553D

 17 18  0  0  0  0  0  0  0  0999 V2000
   36.9510   29.7460   41.8210 C   0  0  0  0  0  0  0  0  0  0  0  0
   38.0140   29.3770   42.6600 C   0  0  0  0  0  0  0  0  0  0  0  0
   39.2240   30.0550   42.4960 C   0  0  0  0  0  0  0  0  0  0  0  0
   39.3070   31.0240   41.5450 N   0  0  0  0  0  0  0  0  0  0  0  0
   38.2630   31.3540   40.7550 C   0  0  0  0  0  0  0  0  0  0  0  0
   37.0770   30.7030   40.9020 N   0  0  0  0  0  0  0  0  0  0  0  0
   36.0250   29.1930   41.9820 H   0  0  0  0  0  0  0  0  0  0  0  0
   40.1060   29.8660   43.0740 H   0  0  0  0  0  0  0  0  0  0  0  0
   38.4120   32.1430   40.0160 H   0  0  0  0  0  0  0  0  0  0  0  0
   37.9420   28.3940   43.6310 O   0  0  0  0  0  0  0  0  0  0  0  0
   38.2680   27.1010   43.2370 C   0  0  0  0  0  0  0  0  0  0  0  0
   39.5250   26.6890   43.6800 C   0  0  0  0  0  3  0  0  0  0  0  0
   39.9470   25.4140   43.3400 C   0  0  0  0  0  0  0  0  0  0  0  0
   40.8970   24.9620   43.6150 H   0  0  0  0  0  0  0  0  0  0  0  0
   39.1250   24.6370   42.6020 N   0  0  0  0  0  0  0  0  0  0  0  0
   37.9260   25.0340   42.1810 C   0  0  0  0  0  3  0  0  0  0  0  0
   37.4960   26.2780   42.5020 N   0  0  0  0  0  0  0  0  0  0  0  0
  1  7  1  0  0  0  0
  1  2  1  0  0  0  0
  2 10  1  0  0  0  0
  3  2  2  0  0  0  0
  3  8  1  0  0  0  0
  4  3  1  0  0  0  0
  5  6  1  0  0  0  0
  5  4  2  0  0  0  0
  6  1  2  0  0  0  0
  9  5  1  0  0  0  0
 11 10  1  0  0  0  0
 11 12  1  0  0  0  0
 13 14  1  0  0  0  0
 13 12  2  0  0  0  0
 15 13  1  0  0  0  0
 16 17  1  0  0  0  0
 16 15  2  0  0  0  0
 17 11  2  0  0  0  0
M  END
>  <minimizedAffinity>
-3.70741272

$$$$

 OpenBabel03242513553D

 17 18  0  0  0  0  0  0  0  0999 V2000
   37.5660   25.6050   42.2350 C   0  0  0  0  0  0  0  0  0  0  0  0
   37.4530   26.8960   42.7730 C   0  0  0  0  0  0  0  0  0  0  0  0
   38.5340   27.3760   43.5170 C   0  0  0  0  0  0  0  0  0  0  0  0
   39.6230   26.5760   43.6780 N   0  0  0  0  0  0  0  0  0  0  0  0
   39.6970   25.3380   43.1460 C   0  0  0  0  0  0  0  0  0  0  0  0
   38.6530   24.8560   42.4180 N   0  0  0  0  0  0  0  0  0  0  0  0
   36.7010   25.2690   41.6610 H   0  0  0  0  0  0  0  0  0  0  0  0
   38.5690   28.3420   43.9780 H   0  0  0  0  0  0  0  0  0  0  0  0
   40.6070   24.7610   43.3220 H   0  0  0  0  0  0  0  0  0  0  0  0
   36.3520   27.7190   42.6160 O   0  0  0  0  0  0  0  0  0  0  0  0
   36.4530   28.7210   41.6590 C   0  0  0  0  0  0  0  0  0  0  0  0
   35.9720   28.3400   40.4060 C   0  0  0  0  0  3  0  0  0  0  0  0
   36.0280   29.2680   39.3790 C   0  0  0  0  0  0  0  0  0  0  0  0
   35.6900   29.1100   38.3570 H   0  0  0  0  0  0  0  0  0  0  0  0
   36.5410   30.4900   39.6400 N   0  0  0  0  0  0  0  0  0  0  0  0
   36.9990   30.8510   40.8370 C   0  0  0  0  0  3  0  0  0  0  0  0
   36.9540   29.9560   41.8530 N   0  0  0  0  0  0  0  0  0  0  0  0
  1  6  2  0  0  0  0
  1  2  1  0  0  0  0
  2  3  2  0  0  0  0
  3  4  1  0  0  0  0
  3  8  1  0  0  0  0
  5  9  1  0  0  0  0
  5  4  2  0  0  0  0
  6  5  1  0  0  0  0
  7  1  1  0  0  0  0
 10  2  1  0  0  0  0
 11 17  1  0  0  0  0
 11 10  1  0  0  0  0
 12 11  2  0  0  0  0
 13 15  2  0  0  0  0
 13 12  1  0  0  0  0
 14 13  1  0  0  0  0
 15 16  1  0  0  0  0
 16 17  2  0  0  0  0
M  END
>  <minimizedAffinity>
-3.63635755

$$$$

 OpenBabel03242513553D

 17 18  0  0  0  0  0  0  0  0999 V2000
   38.7580   30.2510   41.1880 C   0  0  0  0  0  0  0  0  0  0  0  0
   37.5220   29.9770   41.7920 C   0  0  0  0  0  0  0  0  0  0  0  0
   36.3830   30.5270   41.1980 C   0  0  0  0  0  0  0  0  0  0  0  0
   36.5330   31.2890   40.0810 N   0  0  0  0  0  0  0  0  0  0  0  0
   37.7390   31.5320   39.5260 C   0  0  0  0  0  0  0  0  0  0  0  0
   38.8570   31.0040   40.0930 N   0  0  0  0  0  0  0  0  0  0  0  0
   39.6210   29.8030   41.6830 H   0  0  0  0  0  0  0  0  0  0  0  0
   35.3850   30.3920   41.5630 H   0  0  0  0  0  0  0  0  0  0  0  0
   37.7710   32.1540   38.6290 H   0  0  0  0  0  0  0  0  0  0  0  0
   37.3570   29.2040   42.9280 O   0  0  0  0  0  0  0  0  0  0  0  0
   37.8910   27.9210   42.8930 C   0  0  0  0  0  0  0  0  0  0  0  0
   37.0970   27.0120   42.1930 C   0  0  0  0  0  3  0  0  0  0  0  0
   37.5400   25.7030   42.0990 C   0  0  0  0  0  0  0  0  0  0  0  0
   37.0270   24.8910   41.5860 H   0  0  0  0  0  0  0  0  0  0  0  0
   38.7110   25.3730   42.6840 N   0  0  0  0  0  0  0  0  0  0  0  0
   39.4660   26.2430   43.3510 C   0  0  0  0  0  3  0  0  0  0  0  0
   39.0490   27.5280   43.4550 N   0  0  0  0  0  0  0  0  0  0  0  0
  1  7  1  0  0  0  0
  1  2  1  0  0  0  0
  2 10  1  0  0  0  0
  3  8  1  0  0  0  0
  3  2  2  0  0  0  0
  4  3  1  0  0  0  0
  5  4  2  0  0  0  0
  5  6  1  0  0  0  0
  6  1  2  0  0  0  0
  9  5  1  0  0  0  0
 11 10  1  0  0  0  0
 11 17  1  0  0  0  0
 12 11  2  0  0  0  0
 13 12  1  0  0  0  0
 13 15  2  0  0  0  0
 14 13  1  0  0  0  0
 15 16  1  0  0  0  0
 16 17  2  0  0  0  0
M  END
>  <minimizedAffinity>
-3.62503648

$$$$

 OpenBabel03242513553D

 17 18  0  0  0  0  0  0  0  0999 V2000
   36.9000   26.9250   40.6350 C   0  0  0  0  0  0  0  0  0  0  0  0
   36.4340   28.0310   41.3630 C   0  0  0  0  0  0  0  0  0  0  0  0
   36.8590   28.1490   42.6890 C   0  0  0  0  0  0  0  0  0  0  0  0
   37.6900   27.1980   43.1960 N   0  0  0  0  0  0  0  0  0  0  0  0
   38.1180   26.1480   42.4650 C   0  0  0  0  0  0  0  0  0  0  0  0
   37.7140   26.0180   41.1730 N   0  0  0  0  0  0  0  0  0  0  0  0
   36.5450   26.8720   39.6050 H   0  0  0  0  0  0  0  0  0  0  0  0
   36.5750   28.9450   43.3460 H   0  0  0  0  0  0  0  0  0  0  0  0
   38.7840   25.4290   42.9480 H   0  0  0  0  0  0  0  0  0  0  0  0
   35.5900   29.0040   40.8590 O   0  0  0  0  0  0  0  0  0  0  0  0
   36.1920   30.1100   40.2700 C   0  0  0  0  0  0  0  0  0  0  0  0
   36.3590   29.9780   38.8910 C   0  0  0  0  0  3  0  0  0  0  0  0
   36.9510   31.0270   38.2070 C   0  0  0  0  0  0  0  0  0  0  0  0
   37.1440   31.0630   37.1370 H   0  0  0  0  0  0  0  0  0  0  0  0
   37.3350   32.1190   38.9030 N   0  0  0  0  0  0  0  0  0  0  0  0
   37.1740   32.2400   40.2190 C   0  0  0  0  0  3  0  0  0  0  0  0
   36.5980   31.2250   40.9060 N   0  0  0  0  0  0  0  0  0  0  0  0
  1  6  2  0  0  0  0
  1  2  1  0  0  0  0
  2  3  2  0  0  0  0
  3  4  1  0  0  0  0
  3  8  1  0  0  0  0
  5  9  1  0  0  0  0
  5  4  2  0  0  0  0
  6  5  1  0  0  0  0
  7  1  1  0  0  0  0
 10  2  1  0  0  0  0
 11 10  1  0  0  0  0
 11 17  1  0  0  0  0
 12 11  2  0  0  0  0
 13 12  1  0  0  0  0
 13 15  2  0  0  0  0
 14 13  1  0  0  0  0
 15 16  1  0  0  0  0
 16 17  2  0  0  0  0
M  END
>  <minimizedAffinity>
-3.6185925

$$$$
