
 OpenBabel03252509043D

 46 48  0  0  1  0  0  0  0  0999 V2000
   46.7630   34.4100   43.3350 N   0  0  0  0  0  0  0  0  0  0  0  0
   46.4740   34.8460   42.0190 C   0  0  0  0  0  0  0  0  0  0  0  0
   45.0150   34.7750   41.6220 C   0  0  0  0  0  0  0  0  0  0  0  0
   44.0450   34.9940   42.7580 C   0  0  0  0  0  0  0  0  0  0  0  0
   44.7650   35.3670   44.0340 C   0  0  0  0  0  0  0  0  0  0  0  0
   45.7610   34.1630   44.2500 C   0  0  2  0  0  0  0  0  0  0  0  0
   46.7550   35.9360   41.9730 H   0  0  0  0  0  0  0  0  0  0  0  0
   47.0400   34.3800   41.2050 H   0  0  0  0  0  0  0  0  0  0  0  0
   44.8220   33.8010   41.0970 H   0  0  0  0  0  0  0  0  0  0  0  0
   44.7960   35.5670   40.8630 H   0  0  0  0  0  0  0  0  0  0  0  0
   43.2060   35.6600   42.5020 H   0  0  0  0  0  0  0  0  0  0  0  0
   43.5820   33.9900   42.9710 H   0  0  0  0  0  0  0  0  0  0  0  0
   45.3440   36.2920   43.9540 H   0  0  0  0  0  0  0  0  0  0  0  0
   44.0140   35.3600   44.8450 H   0  0  0  0  0  0  0  0  0  0  0  0
   45.1470   33.2460   44.1390 H   0  0  0  0  0  0  0  0  0  0  0  0
   47.9960   33.6580   43.4480 C   0  0  0  0  0  0  0  0  0  0  0  0
   48.7670   34.2510   42.9120 H   0  0  0  0  0  0  0  0  0  0  0  0
   48.3470   33.6030   44.5100 H   0  0  0  0  0  0  0  0  0  0  0  0
   47.8050   32.3360   42.8050 C   0  0  0  0  0  0  0  0  0  0  0  0
   47.7490   31.5420   43.5510 H   0  0  0  0  0  0  0  0  0  0  0  0
   46.8120   32.2870   42.2630 H   0  0  0  0  0  0  0  0  0  0  0  0
   51.2670   32.1020   41.3380 C   0  0  0  0  0  0  0  0  0  0  0  0
   50.1950   32.3180   42.2280 C   0  0  0  0  0  0  0  0  0  0  0  0
   48.9100   32.0980   41.8440 C   0  0  0  0  0  0  0  0  0  0  0  0
   48.7180   31.6730   40.5930 N   0  0  0  0  0  0  0  0  0  0  0  0
   49.7190   31.4580   39.7270 C   0  0  0  0  0  0  0  0  0  0  0  0
   50.9990   31.6670   40.0800 N   0  0  0  0  0  0  0  0  0  0  0  0
   52.2840   32.2610   41.6020 H   0  0  0  0  0  0  0  0  0  0  0  0
   50.5320   32.6580   43.1910 H   0  0  0  0  0  0  0  0  0  0  0  0
   49.4160   31.1120   38.7420 H   0  0  0  0  0  0  0  0  0  0  0  0
   46.1640   34.3770   45.5480 O   0  0  0  0  0  0  0  0  0  0  0  0
   45.6150   31.7680   45.7010 O   0  0  0  0  0  0  0  0  0  0  0  0
   46.0620   33.0120   46.5030 P   0  0  2  0  0  0  0  0  0  0  0  0
   44.7440   33.2740   47.5860 O   0  0  0  0  0  0  0  0  0  0  0  0
   44.8550   34.1960   47.9450 H   0  0  0  0  0  0  0  0  0  0  0  0
   47.3980   32.6910   47.4170 O   0  0  0  0  0  0  0  0  0  0  0  0
   47.0990   31.8510   48.4570 C   0  0  0  0  0  0  0  0  0  0  0  0
   46.0840   31.4100   48.1940 H   0  0  0  0  0  0  0  0  0  0  0  0
   46.8340   32.5200   49.3310 H   0  0  0  0  0  0  0  0  0  0  0  0
   48.0660   30.8250   48.8110 C   0  0  0  0  0  0  0  0  0  0  0  0
   48.0340   29.7860   47.8730 C   0  0  0  0  0  3  0  0  0  0  0  0
   48.9470   28.7400   48.0480 C   0  0  0  0  0  0  0  0  0  0  0  0
   49.0000   27.8800   47.3630 H   0  0  0  0  0  0  0  0  0  0  0  0
   49.8320   28.6960   49.0590 N   0  0  0  0  0  0  0  0  0  0  0  0
   49.8220   29.7180   49.9350 C   0  0  0  0  0  3  0  0  0  0  0  0
   48.9720   30.7540   49.8250 N   0  0  0  0  0  0  0  0  0  0  0  0
  1 16  1  0  0  0  0
  1  6  1  0  0  0  0
  2  1  1  0  0  0  0
  3  2  1  0  0  0  0
  3  4  1  0  0  0  0
  4 12  1  0  0  0  0
  4  5  1  0  0  0  0
  5  6  1  0  0  0  0
  5 14  1  0  0  0  0
  6 15  1  6  0  0  0
  6 31  1  0  0  0  0
  7  2  1  0  0  0  0
  8  2  1  0  0  0  0
  9  3  1  0  0  0  0
 10  3  1  0  0  0  0
 11  4  1  0  0  0  0
 13  5  1  0  0  0  0
 16 18  1  0  0  0  0
 17 16  1  0  0  0  0
 19 16  1  0  0  0  0
 19 20  1  0  0  0  0
 21 19  1  0  0  0  0
 22 28  1  0  0  0  0
 22 23  1  0  0  0  0
 23 29  1  0  0  0  0
 24 23  2  0  0  0  0
 24 19  1  0  0  0  0
 25 24  1  0  0  0  0
 26 27  1  0  0  0  0
 26 25  2  0  0  0  0
 27 22  2  0  0  0  0
 30 26  1  0  0  0  0
 31 33  1  0  0  0  0
 33 32  2  6  0  0  0
 33 36  1  0  0  0  0
 33 34  1  0  0  0  0
 34 35  1  0  0  0  0
 36 37  1  0  0  0  0
 37 40  1  0  0  0  0
 37 39  1  0  0  0  0
 38 37  1  0  0  0  0
 40 46  1  0  0  0  0
 41 42  1  0  0  0  0
 41 40  2  0  0  0  0
 42 44  2  0  0  0  0
 43 42  1  0  0  0  0
 44 45  1  0  0  0  0
 46 45  2  0  0  0  0
M  END
>  <minimizedAffinity>
-5.02604055

>  <minimizedRMSD>
3.97291207

$$$$
