
 OpenBabel03252508403D

 39 42  0  0  0  0  0  0  0  0999 V2000
   39.2730   31.3820   40.4540 C   0  0  0  0  0  0  0  0  0  0  0  0
   39.3360   32.6340   39.9160 C   0  0  0  0  0  0  0  0  0  0  0  0
   38.1630   33.2830   39.6980 C   0  0  0  0  0  0  0  0  0  0  0  0
   36.9250   32.7580   39.9840 C   0  0  0  0  0  0  0  0  0  0  0  0
   36.8890   31.4980   40.5240 C   0  0  0  0  0  0  0  0  0  0  0  0
   38.0500   30.7950   40.7650 C   0  0  0  0  0  0  0  0  0  0  0  0
   38.2110   34.2880   39.2650 H   0  0  0  0  0  0  0  0  0  0  0  0
   36.0150   33.2900   39.8020 H   0  0  0  0  0  0  0  0  0  0  0  0
   35.9130   31.0670   40.7570 H   0  0  0  0  0  0  0  0  0  0  0  0
   42.3680   33.9060   38.0590 C   0  0  0  0  0  0  0  0  0  0  0  0
   41.0820   33.3960   38.3070 C   0  0  0  0  0  0  0  0  0  0  0  0
   40.6540   33.1570   39.6270 C   0  0  0  0  0  0  0  0  0  0  0  0
   41.5660   33.4530   40.5850 N   0  0  0  0  0  0  0  0  0  0  0  0
   42.7760   33.9330   40.3400 C   0  0  0  0  0  0  0  0  0  0  0  0
   43.1840   34.1610   39.0860 N   0  0  0  0  0  0  0  0  0  0  0  0
   42.7450   34.1270   36.7220 N   0  0  0  0  0  0  0  0  0  0  0  0
   40.4020   33.1810   37.5010 H   0  0  0  0  0  0  0  0  0  0  0  0
   43.4620   34.1510   41.1500 H   0  0  0  0  0  0  0  0  0  0  0  0
   43.6270   33.8550   36.2320 H   0  0  0  0  0  0  0  0  0  0  0  0
   42.0960   34.6300   36.0780 H   0  0  0  0  0  0  0  0  0  0  0  0
   37.9050   29.4680   41.3410 C   0  0  0  0  0  0  0  0  0  0  0  0
   37.9120   29.4050   42.7150 C   0  0  0  0  0  0  0  0  0  0  0  0
   37.7850   28.2190   43.4380 C   0  0  0  0  0  0  0  0  0  0  0  0
   37.6450   27.0520   42.7190 C   0  0  0  0  0  0  0  0  0  0  0  0
   37.6350   27.0890   41.3410 C   0  0  0  0  0  0  0  0  0  0  0  0
   37.7630   28.2790   40.6480 C   0  0  0  0  0  0  0  0  0  0  0  0
   38.0190   30.3000   43.3290 H   0  0  0  0  0  0  0  0  0  0  0  0
   37.7960   28.2240   44.5160 H   0  0  0  0  0  0  0  0  0  0  0  0
   37.5400   26.0840   43.2170 H   0  0  0  0  0  0  0  0  0  0  0  0
   37.5270   26.1900   40.7350 H   0  0  0  0  0  0  0  0  0  0  0  0
   37.7620   28.3960   39.1840 C   0  0  0  0  0  0  0  0  0  0  0  0
   36.4600   28.4190   38.6730 C   0  0  0  0  0  3  0  0  0  0  0  0
   36.2190   28.5250   37.2990 C   0  0  0  0  0  0  0  0  0  0  0  0
   35.2050   28.5410   36.9100 H   0  0  0  0  0  0  0  0  0  0  0  0
   37.2630   28.6070   36.4460 N   0  0  0  0  0  0  0  0  0  0  0  0
   38.4850   28.5790   37.0080 C   0  0  0  0  0  3  0  0  0  0  0  0
   38.7770   28.4790   38.3240 N   0  0  0  0  0  0  0  0  0  0  0  0
   41.4170   29.9820   40.9530 N   0  0  0  0  0  0  0  0  0  0  0  0
   40.4650   30.6100   40.7240 C   0  0  0  0  0  0  0  0  0  0  0  0
  1 39  1  0  0  0  0
  1  6  1  0  0  0  0
  2  1  2  0  0  0  0
  3  2  1  0  0  0  0
  3  4  2  0  0  0  0
  4  5  1  0  0  0  0
  5  9  1  0  0  0  0
  5  6  2  0  0  0  0
  6 21  1  0  0  0  0
  7  3  1  0  0  0  0
  8  4  1  0  0  0  0
 10 11  2  0  0  0  0
 10 15  1  0  0  0  0
 11 12  1  0  0  0  0
 12  2  1  0  0  0  0
 12 13  2  0  0  0  0
 14 13  1  0  0  0  0
 14 18  1  0  0  0  0
 15 14  2  0  0  0  0
 16 10  1  0  0  0  0
 17 11  1  0  0  0  0
 19 16  1  0  0  0  0
 20 16  1  0  0  0  0
 21 22  1  0  0  0  0
 22 27  1  0  0  0  0
 22 23  2  0  0  0  0
 23 28  1  0  0  0  0
 24 29  1  0  0  0  0
 24 23  1  0  0  0  0
 25 24  2  0  0  0  0
 26 25  1  0  0  0  0
 26 21  2  0  0  0  0
 30 25  1  0  0  0  0
 31 26  1  0  0  0  0
 32 31  1  0  0  0  0
 33 32  2  0  0  0  0
 34 33  1  0  0  0  0
 35 36  2  0  0  0  0
 35 33  1  0  0  0  0
 36 37  1  0  0  0  0
 37 31  2  0  0  0  0
 39 38  3  0  0  0  0
M  END
>  <minimizedAffinity>
-6.27630424

$$$$

 OpenBabel03252508403D

 39 42  0  0  0  0  0  0  0  0999 V2000
   37.9860   27.9990   41.1420 C   0  0  0  0  0  0  0  0  0  0  0  0
   37.8910   29.0670   41.9830 C   0  0  0  0  0  0  0  0  0  0  0  0
   37.3840   28.8470   43.2240 C   0  0  0  0  0  0  0  0  0  0  0  0
   36.9630   27.6210   43.6800 C   0  0  0  0  0  0  0  0  0  0  0  0
   37.0690   26.5610   42.8140 C   0  0  0  0  0  0  0  0  0  0  0  0
   37.5760   26.7300   41.5440 C   0  0  0  0  0  0  0  0  0  0  0  0
   37.3060   29.7040   43.9010 H   0  0  0  0  0  0  0  0  0  0  0  0
   36.5670   27.4730   44.6620 H   0  0  0  0  0  0  0  0  0  0  0  0
   36.7390   25.5800   43.1610 H   0  0  0  0  0  0  0  0  0  0  0  0
   37.9170   32.5080   40.4260 C   0  0  0  0  0  0  0  0  0  0  0  0
   37.4470   31.2760   40.9120 C   0  0  0  0  0  0  0  0  0  0  0  0
   38.3420   30.3440   41.4730 C   0  0  0  0  0  0  0  0  0  0  0  0
   39.6390   30.7400   41.4940 N   0  0  0  0  0  0  0  0  0  0  0  0
   40.0700   31.9040   41.0320 C   0  0  0  0  0  0  0  0  0  0  0  0
   39.2200   32.7900   40.5000 N   0  0  0  0  0  0  0  0  0  0  0  0
   36.9800   33.4020   39.8760 N   0  0  0  0  0  0  0  0  0  0  0  0
   36.4030   31.0190   40.8680 H   0  0  0  0  0  0  0  0  0  0  0  0
   41.1220   32.1640   41.0770 H   0  0  0  0  0  0  0  0  0  0  0  0
   37.0270   33.9370   38.9800 H   0  0  0  0  0  0  0  0  0  0  0  0
   36.0930   33.6020   40.3890 H   0  0  0  0  0  0  0  0  0  0  0  0
   37.6480   25.5450   40.7040 C   0  0  0  0  0  0  0  0  0  0  0  0
   36.5310   25.2780   39.9470 C   0  0  0  0  0  0  0  0  0  0  0  0
   36.4200   24.1870   39.0850 C   0  0  0  0  0  0  0  0  0  0  0  0
   37.5020   23.3370   38.9990 C   0  0  0  0  0  0  0  0  0  0  0  0
   38.6330   23.5830   39.7480 C   0  0  0  0  0  0  0  0  0  0  0  0
   38.7160   24.6740   40.5960 C   0  0  0  0  0  0  0  0  0  0  0  0
   35.6490   25.9200   39.9790 H   0  0  0  0  0  0  0  0  0  0  0  0
   35.5220   24.0220   38.5130 H   0  0  0  0  0  0  0  0  0  0  0  0
   37.4880   22.4600   38.3450 H   0  0  0  0  0  0  0  0  0  0  0  0
   39.5090   22.9380   39.7100 H   0  0  0  0  0  0  0  0  0  0  0  0
   39.8850   25.0000   41.4230 C   0  0  0  0  0  0  0  0  0  0  0  0
   40.9010   25.5900   40.6650 C   0  0  0  0  0  3  0  0  0  0  0  0
   42.1100   25.9840   41.2470 C   0  0  0  0  0  0  0  0  0  0  0  0
   42.8940   26.4410   40.6510 H   0  0  0  0  0  0  0  0  0  0  0  0
   42.3040   25.7900   42.5700 N   0  0  0  0  0  0  0  0  0  0  0  0
   41.2840   25.2170   43.2360 C   0  0  0  0  0  3  0  0  0  0  0  0
   40.0980   24.8180   42.7260 N   0  0  0  0  0  0  0  0  0  0  0  0
   38.9330   28.2200   38.7210 N   0  0  0  0  0  0  0  0  0  0  0  0
   38.5120   28.1300   39.8020 C   0  0  0  0  0  0  0  0  0  0  0  0
  1  6  2  0  0  0  0
  1  2  1  0  0  0  0
  2  3  2  0  0  0  0
  3  4  1  0  0  0  0
  3  7  1  0  0  0  0
  4  8  1  0  0  0  0
  5  9  1  0  0  0  0
  5  4  2  0  0  0  0
  6  5  1  0  0  0  0
 10 15  2  0  0  0  0
 10 11  1  0  0  0  0
 11 12  2  0  0  0  0
 12 13  1  0  0  0  0
 12  2  1  0  0  0  0
 14 18  1  0  0  0  0
 14 13  2  0  0  0  0
 15 14  1  0  0  0  0
 16 20  1  0  0  0  0
 16 10  1  0  0  0  0
 17 11  1  0  0  0  0
 19 16  1  0  0  0  0
 21  6  1  0  0  0  0
 22 27  1  0  0  0  0
 22 21  2  0  0  0  0
 23 22  1  0  0  0  0
 24 23  2  0  0  0  0
 24 25  1  0  0  0  0
 25 26  2  0  0  0  0
 26 21  1  0  0  0  0
 26 31  1  0  0  0  0
 28 23  1  0  0  0  0
 29 24  1  0  0  0  0
 30 25  1  0  0  0  0
 31 37  1  0  0  0  0
 32 33  1  0  0  0  0
 32 31  2  0  0  0  0
 33 35  2  0  0  0  0
 34 33  1  0  0  0  0
 35 36  1  0  0  0  0
 37 36  2  0  0  0  0
 38 39  3  0  0  0  0
 39  1  1  0  0  0  0
M  END
>  <minimizedAffinity>
-6.24271917

$$$$

 OpenBabel03252508403D

 39 42  0  0  0  0  0  0  0  0999 V2000
   38.8340   30.3980   38.6870 C   0  0  0  0  0  0  0  0  0  0  0  0
   40.1970   30.4030   38.6570 C   0  0  0  0  0  0  0  0  0  0  0  0
   40.8270   29.2060   38.5330 C   0  0  0  0  0  0  0  0  0  0  0  0
   40.1790   27.9980   38.4370 C   0  0  0  0  0  0  0  0  0  0  0  0
   38.8070   28.0200   38.4690 C   0  0  0  0  0  0  0  0  0  0  0  0
   38.1190   29.2070   38.5930 C   0  0  0  0  0  0  0  0  0  0  0  0
   41.9230   29.2070   38.5100 H   0  0  0  0  0  0  0  0  0  0  0  0
   40.6980   27.0680   38.3400 H   0  0  0  0  0  0  0  0  0  0  0  0
   38.2770   27.0690   38.3930 H   0  0  0  0  0  0  0  0  0  0  0  0
   42.0500   33.5740   37.7780 C   0  0  0  0  0  0  0  0  0  0  0  0
   41.4250   32.3230   37.6430 C   0  0  0  0  0  0  0  0  0  0  0  0
   40.8500   31.6900   38.7620 C   0  0  0  0  0  0  0  0  0  0  0  0
   40.9570   32.3790   39.9250 N   0  0  0  0  0  0  0  0  0  0  0  0
   41.5500   33.5590   40.0400 C   0  0  0  0  0  0  0  0  0  0  0  0
   42.0970   34.1600   38.9770 N   0  0  0  0  0  0  0  0  0  0  0  0
   42.6090   34.1610   36.6280 N   0  0  0  0  0  0  0  0  0  0  0  0
   41.3710   31.8250   36.6900 H   0  0  0  0  0  0  0  0  0  0  0  0
   41.6040   34.0620   40.9990 H   0  0  0  0  0  0  0  0  0  0  0  0
   43.5500   34.5970   36.5000 H   0  0  0  0  0  0  0  0  0  0  0  0
   42.0530   34.1980   35.7450 H   0  0  0  0  0  0  0  0  0  0  0  0
   36.6670   29.1230   38.6170 C   0  0  0  0  0  0  0  0  0  0  0  0
   36.0400   29.2310   37.3970 C   0  0  0  0  0  0  0  0  0  0  0  0
   34.6570   29.1740   37.2280 C   0  0  0  0  0  0  0  0  0  0  0  0
   33.8880   28.9990   38.3590 C   0  0  0  0  0  0  0  0  0  0  0  0
   34.4930   28.8890   39.5930 C   0  0  0  0  0  0  0  0  0  0  0  0
   35.8690   28.9490   39.7320 C   0  0  0  0  0  0  0  0  0  0  0  0
   36.6030   29.3700   36.4730 H   0  0  0  0  0  0  0  0  0  0  0  0
   34.2150   29.2640   36.2490 H   0  0  0  0  0  0  0  0  0  0  0  0
   32.7970   28.9450   38.3040 H   0  0  0  0  0  0  0  0  0  0  0  0
   33.9240   28.7500   40.5110 H   0  0  0  0  0  0  0  0  0  0  0  0
   36.5820   28.8400   41.0110 C   0  0  0  0  0  0  0  0  0  0  0  0
   36.6760   27.5100   41.4340 C   0  0  0  0  0  3  0  0  0  0  0  0
   37.3170   27.1690   42.6290 C   0  0  0  0  0  0  0  0  0  0  0  0
   37.3850   26.1340   42.9510 H   0  0  0  0  0  0  0  0  0  0  0  0
   37.8570   28.1430   43.3940 N   0  0  0  0  0  0  0  0  0  0  0  0
   37.7290   29.3980   42.9250 C   0  0  0  0  0  3  0  0  0  0  0  0
   37.1230   29.7840   41.7810 N   0  0  0  0  0  0  0  0  0  0  0  0
   37.4710   32.6100   38.9170 N   0  0  0  0  0  0  0  0  0  0  0  0
   38.0720   31.6190   38.8160 C   0  0  0  0  0  0  0  0  0  0  0  0
  1 39  1  0  0  0  0
  2  1  1  0  0  0  0
  2 12  1  0  0  0  0
  3  2  2  0  0  0  0
  4  5  2  0  0  0  0
  4  3  1  0  0  0  0
  5  6  1  0  0  0  0
  6 21  1  0  0  0  0
  6  1  2  0  0  0  0
  7  3  1  0  0  0  0
  8  4  1  0  0  0  0
  9  5  1  0  0  0  0
 10 15  1  0  0  0  0
 11 10  2  0  0  0  0
 11 12  1  0  0  0  0
 12 13  2  0  0  0  0
 13 14  1  0  0  0  0
 14 18  1  0  0  0  0
 15 14  2  0  0  0  0
 16 10  1  0  0  0  0
 17 11  1  0  0  0  0
 19 16  1  0  0  0  0
 20 16  1  0  0  0  0
 21 26  1  0  0  0  0
 22 21  2  0  0  0  0
 23 22  1  0  0  0  0
 23 24  2  0  0  0  0
 24 25  1  0  0  0  0
 25 26  2  0  0  0  0
 25 30  1  0  0  0  0
 26 31  1  0  0  0  0
 27 22  1  0  0  0  0
 28 23  1  0  0  0  0
 29 24  1  0  0  0  0
 31 32  2  0  0  0  0
 31 37  1  0  0  0  0
 32 33  1  0  0  0  0
 33 34  1  0  0  0  0
 33 35  2  0  0  0  0
 36 35  1  0  0  0  0
 37 36  2  0  0  0  0
 39 38  3  0  0  0  0
M  END
>  <minimizedAffinity>
-6.24088097

$$$$

 OpenBabel03252508403D

 39 42  0  0  0  0  0  0  0  0999 V2000
   38.7470   28.5170   41.3930 C   0  0  0  0  0  0  0  0  0  0  0  0
   37.5190   29.0830   41.2160 C   0  0  0  0  0  0  0  0  0  0  0  0
   36.5150   28.6740   42.0340 C   0  0  0  0  0  0  0  0  0  0  0  0
   36.6600   27.7310   43.0240 C   0  0  0  0  0  0  0  0  0  0  0  0
   37.9050   27.1770   43.1820 C   0  0  0  0  0  0  0  0  0  0  0  0
   38.9580   27.5560   42.3790 C   0  0  0  0  0  0  0  0  0  0  0  0
   35.5270   29.1270   41.8930 H   0  0  0  0  0  0  0  0  0  0  0  0
   35.8520   27.4270   43.6550 H   0  0  0  0  0  0  0  0  0  0  0  0
   38.0360   26.4270   43.9640 H   0  0  0  0  0  0  0  0  0  0  0  0
   37.1370   32.3770   39.4090 C   0  0  0  0  0  0  0  0  0  0  0  0
   37.2490   31.4420   40.4520 C   0  0  0  0  0  0  0  0  0  0  0  0
   37.4000   30.0710   40.1660 C   0  0  0  0  0  0  0  0  0  0  0  0
   37.4230   29.7630   38.8450 N   0  0  0  0  0  0  0  0  0  0  0  0
   37.3150   30.6530   37.8700 C   0  0  0  0  0  0  0  0  0  0  0  0
   37.1730   31.9560   38.1420 N   0  0  0  0  0  0  0  0  0  0  0  0
   36.9890   33.7340   39.7500 N   0  0  0  0  0  0  0  0  0  0  0  0
   37.2240   31.7500   41.4830 H   0  0  0  0  0  0  0  0  0  0  0  0
   37.3410   30.3450   36.8310 H   0  0  0  0  0  0  0  0  0  0  0  0
   36.3080   34.4360   39.3820 H   0  0  0  0  0  0  0  0  0  0  0  0
   37.6190   34.1580   40.4650 H   0  0  0  0  0  0  0  0  0  0  0  0
   40.2370   26.9100   42.6270 C   0  0  0  0  0  0  0  0  0  0  0  0
   41.1510   27.6450   43.3470 C   0  0  0  0  0  0  0  0  0  0  0  0
   42.4260   27.1870   43.6800 C   0  0  0  0  0  0  0  0  0  0  0  0
   42.7750   25.9240   43.2540 C   0  0  0  0  0  0  0  0  0  0  0  0
   41.8770   25.1680   42.5300 C   0  0  0  0  0  0  0  0  0  0  0  0
   40.6180   25.6470   42.2140 C   0  0  0  0  0  0  0  0  0  0  0  0
   40.9230   28.6490   43.7070 H   0  0  0  0  0  0  0  0  0  0  0  0
   43.1040   27.8030   44.2470 H   0  0  0  0  0  0  0  0  0  0  0  0
   43.7580   25.4980   43.4760 H   0  0  0  0  0  0  0  0  0  0  0  0
   42.1130   24.1660   42.1740 H   0  0  0  0  0  0  0  0  0  0  0  0
   39.6110   24.9010   41.4480 C   0  0  0  0  0  0  0  0  0  0  0  0
   39.7130   25.1610   40.0780 C   0  0  0  0  0  3  0  0  0  0  0  0
   38.8510   24.5570   39.1560 C   0  0  0  0  0  0  0  0  0  0  0  0
   38.9370   24.7650   38.0930 H   0  0  0  0  0  0  0  0  0  0  0  0
   37.9000   23.7050   39.5960 N   0  0  0  0  0  0  0  0  0  0  0  0
   37.8610   23.5020   40.9260 C   0  0  0  0  0  3  0  0  0  0  0  0
   38.6650   24.0560   41.8590 N   0  0  0  0  0  0  0  0  0  0  0  0
   40.7980   29.1850   39.9270 N   0  0  0  0  0  0  0  0  0  0  0  0
   39.8790   28.8840   40.5740 C   0  0  0  0  0  0  0  0  0  0  0  0
  1  6  1  0  0  0  0
  2  1  2  0  0  0  0
  2  3  1  0  0  0  0
  3  4  2  0  0  0  0
  4  5  1  0  0  0  0
  4  8  1  0  0  0  0
  5  9  1  0  0  0  0
  6 21  1  0  0  0  0
  6  5  2  0  0  0  0
  7  3  1  0  0  0  0
 10 16  1  0  0  0  0
 10 11  1  0  0  0  0
 11 17  1  0  0  0  0
 12 11  2  0  0  0  0
 12  2  1  0  0  0  0
 13 12  1  0  0  0  0
 14 15  1  0  0  0  0
 14 13  2  0  0  0  0
 15 10  2  0  0  0  0
 16 20  1  0  0  0  0
 18 14  1  0  0  0  0
 19 16  1  0  0  0  0
 21 22  1  0  0  0  0
 22 23  2  0  0  0  0
 22 27  1  0  0  0  0
 23 28  1  0  0  0  0
 24 29  1  0  0  0  0
 24 23  1  0  0  0  0
 25 24  2  0  0  0  0
 26 25  1  0  0  0  0
 26 21  2  0  0  0  0
 30 25  1  0  0  0  0
 31 37  1  0  0  0  0
 31 26  1  0  0  0  0
 32 31  2  0  0  0  0
 33 35  2  0  0  0  0
 33 32  1  0  0  0  0
 34 33  1  0  0  0  0
 35 36  1  0  0  0  0
 36 37  2  0  0  0  0
 38 39  3  0  0  0  0
 39  1  1  0  0  0  0
M  END
>  <minimizedAffinity>
-6.13332748

$$$$

 OpenBabel03252508403D

 39 42  0  0  0  0  0  0  0  0999 V2000
   38.8710   27.5080   41.4300 C   0  0  0  0  0  0  0  0  0  0  0  0
   39.2720   27.5500   42.7320 C   0  0  0  0  0  0  0  0  0  0  0  0
   38.3130   27.7200   43.6790 C   0  0  0  0  0  0  0  0  0  0  0  0
   36.9730   27.8520   43.4060 C   0  0  0  0  0  0  0  0  0  0  0  0
   36.5950   27.8060   42.0880 C   0  0  0  0  0  0  0  0  0  0  0  0
   37.5270   27.6360   41.0880 C   0  0  0  0  0  0  0  0  0  0  0  0
   38.6330   27.7550   44.7260 H   0  0  0  0  0  0  0  0  0  0  0  0
   36.2370   27.9850   44.1710 H   0  0  0  0  0  0  0  0  0  0  0  0
   35.5340   27.9090   41.8550 H   0  0  0  0  0  0  0  0  0  0  0  0
   42.6740   26.0420   43.3790 C   0  0  0  0  0  0  0  0  0  0  0  0
   41.2940   26.1450   43.1350 C   0  0  0  0  0  0  0  0  0  0  0  0
   40.6900   27.4090   42.9860 C   0  0  0  0  0  0  0  0  0  0  0  0
   41.5360   28.4630   43.0980 N   0  0  0  0  0  0  0  0  0  0  0  0
   42.8360   28.3530   43.3290 C   0  0  0  0  0  0  0  0  0  0  0  0
   43.4100   27.1530   43.4700 N   0  0  0  0  0  0  0  0  0  0  0  0
   43.2260   24.7560   43.5200 N   0  0  0  0  0  0  0  0  0  0  0  0
   40.6730   25.2690   43.0560 H   0  0  0  0  0  0  0  0  0  0  0  0
   43.4620   29.2340   43.4080 H   0  0  0  0  0  0  0  0  0  0  0  0
   43.8790   24.3950   44.2520 H   0  0  0  0  0  0  0  0  0  0  0  0
   42.9890   24.0130   42.8260 H   0  0  0  0  0  0  0  0  0  0  0  0
   37.0260   27.6000   39.7240 C   0  0  0  0  0  0  0  0  0  0  0  0
   36.5290   26.3900   39.2980 C   0  0  0  0  0  0  0  0  0  0  0  0
   36.0070   26.1690   38.0230 C   0  0  0  0  0  0  0  0  0  0  0  0
   35.9970   27.2370   37.1520 C   0  0  0  0  0  0  0  0  0  0  0  0
   36.4890   28.4600   37.5540 C   0  0  0  0  0  0  0  0  0  0  0  0
   37.0010   28.6510   38.8260 C   0  0  0  0  0  0  0  0  0  0  0  0
   36.5150   25.5150   39.9500 H   0  0  0  0  0  0  0  0  0  0  0  0
   35.6300   25.2010   37.7400 H   0  0  0  0  0  0  0  0  0  0  0  0
   35.6040   27.1400   36.1360 H   0  0  0  0  0  0  0  0  0  0  0  0
   36.5000   29.3290   36.8980 H   0  0  0  0  0  0  0  0  0  0  0  0
   37.5420   29.9220   39.3240 C   0  0  0  0  0  0  0  0  0  0  0  0
   36.5530   30.6930   39.9420 C   0  0  0  0  0  3  0  0  0  0  0  0
   36.8430   31.9460   40.4920 C   0  0  0  0  0  0  0  0  0  0  0  0
   36.0690   32.5390   40.9700 H   0  0  0  0  0  0  0  0  0  0  0  0
   38.1050   32.4250   40.4250 N   0  0  0  0  0  0  0  0  0  0  0  0
   39.0040   31.6290   39.8160 C   0  0  0  0  0  3  0  0  0  0  0  0
   38.7800   30.4140   39.2700 N   0  0  0  0  0  0  0  0  0  0  0  0
   40.5700   27.1720   39.4790 N   0  0  0  0  0  0  0  0  0  0  0  0
   39.8140   27.3300   40.3490 C   0  0  0  0  0  0  0  0  0  0  0  0
  1  2  1  0  0  0  0
  2 12  1  0  0  0  0
  2  3  2  0  0  0  0
  3  7  1  0  0  0  0
  4  3  1  0  0  0  0
  4  8  1  0  0  0  0
  5  4  2  0  0  0  0
  6  1  2  0  0  0  0
  6  5  1  0  0  0  0
  9  5  1  0  0  0  0
 10 15  1  0  0  0  0
 10 16  1  0  0  0  0
 11 10  2  0  0  0  0
 12 13  2  0  0  0  0
 12 11  1  0  0  0  0
 13 14  1  0  0  0  0
 14 18  1  0  0  0  0
 14 15  2  0  0  0  0
 16 19  1  0  0  0  0
 17 11  1  0  0  0  0
 20 16  1  0  0  0  0
 21  6  1  0  0  0  0
 22 21  1  0  0  0  0
 22 27  1  0  0  0  0
 23 22  2  0  0  0  0
 24 25  2  0  0  0  0
 24 23  1  0  0  0  0
 25 26  1  0  0  0  0
 26 31  1  0  0  0  0
 26 21  2  0  0  0  0
 28 23  1  0  0  0  0
 29 24  1  0  0  0  0
 30 25  1  0  0  0  0
 31 32  1  0  0  0  0
 32 33  2  0  0  0  0
 33 34  1  0  0  0  0
 35 33  1  0  0  0  0
 36 35  2  0  0  0  0
 37 31  2  0  0  0  0
 37 36  1  0  0  0  0
 38 39  3  0  0  0  0
 39  1  1  0  0  0  0
M  END
>  <minimizedAffinity>
-6.04372692

$$$$

 OpenBabel03252508403D

 39 42  0  0  0  0  0  0  0  0999 V2000
   38.3120   28.4840   41.3650 C   0  0  0  0  0  0  0  0  0  0  0  0
   38.9480   28.6130   42.5650 C   0  0  0  0  0  0  0  0  0  0  0  0
   38.2680   28.2380   43.6790 C   0  0  0  0  0  0  0  0  0  0  0  0
   36.9880   27.7390   43.6720 C   0  0  0  0  0  0  0  0  0  0  0  0
   36.3700   27.6180   42.4530 C   0  0  0  0  0  0  0  0  0  0  0  0
   37.0140   27.9850   41.2910 C   0  0  0  0  0  0  0  0  0  0  0  0
   38.7770   28.3410   44.6440 H   0  0  0  0  0  0  0  0  0  0  0  0
   36.4740   27.4500   44.5650 H   0  0  0  0  0  0  0  0  0  0  0  0
   35.3530   27.2230   42.4300 H   0  0  0  0  0  0  0  0  0  0  0  0
   41.8680   31.0080   42.5400 C   0  0  0  0  0  0  0  0  0  0  0  0
   40.5480   30.5270   42.5660 C   0  0  0  0  0  0  0  0  0  0  0  0
   40.2940   29.1420   42.5380 C   0  0  0  0  0  0  0  0  0  0  0  0
   41.4010   28.3600   42.4860 N   0  0  0  0  0  0  0  0  0  0  0  0
   42.6420   28.8260   42.4620 C   0  0  0  0  0  0  0  0  0  0  0  0
   42.8830   30.1420   42.4880 N   0  0  0  0  0  0  0  0  0  0  0  0
   42.0640   32.4010   42.5690 N   0  0  0  0  0  0  0  0  0  0  0  0
   39.7080   31.2000   42.6080 H   0  0  0  0  0  0  0  0  0  0  0  0
   43.4880   28.1500   42.4210 H   0  0  0  0  0  0  0  0  0  0  0  0
   42.6820   32.9930   41.9700 H   0  0  0  0  0  0  0  0  0  0  0  0
   41.5480   32.9810   43.2670 H   0  0  0  0  0  0  0  0  0  0  0  0
   36.2740   27.8180   40.0510 C   0  0  0  0  0  0  0  0  0  0  0  0
   35.4300   28.8500   39.7120 C   0  0  0  0  0  0  0  0  0  0  0  0
   34.6430   28.8630   38.5610 C   0  0  0  0  0  0  0  0  0  0  0  0
   34.7280   27.7710   37.7250 C   0  0  0  0  0  0  0  0  0  0  0  0
   35.5660   26.7230   38.0430 C   0  0  0  0  0  0  0  0  0  0  0  0
   36.3360   26.7360   39.1920 C   0  0  0  0  0  0  0  0  0  0  0  0
   35.3270   29.7370   40.3400 H   0  0  0  0  0  0  0  0  0  0  0  0
   33.9980   29.6980   38.3410 H   0  0  0  0  0  0  0  0  0  0  0  0
   34.1400   27.7100   36.8040 H   0  0  0  0  0  0  0  0  0  0  0  0
   35.6630   25.8420   37.4110 H   0  0  0  0  0  0  0  0  0  0  0  0
   37.2500   25.6600   39.5950 C   0  0  0  0  0  0  0  0  0  0  0  0
   36.5980   24.7000   40.3760 C   0  0  0  0  0  3  0  0  0  0  0  0
   37.2760   23.5820   40.8730 C   0  0  0  0  0  0  0  0  0  0  0  0
   36.7630   22.8410   41.4790 H   0  0  0  0  0  0  0  0  0  0  0  0
   38.5890   23.4230   40.5940 N   0  0  0  0  0  0  0  0  0  0  0  0
   39.1490   24.3850   39.8380 C   0  0  0  0  0  3  0  0  0  0  0  0
   38.5450   25.4830   39.3320 N   0  0  0  0  0  0  0  0  0  0  0  0
   39.4520   29.1670   39.1210 N   0  0  0  0  0  0  0  0  0  0  0  0
   38.9500   28.8560   40.1230 C   0  0  0  0  0  0  0  0  0  0  0  0
  1  2  1  0  0  0  0
  2  3  2  0  0  0  0
  3  7  1  0  0  0  0
  4  3  1  0  0  0  0
  4  8  1  0  0  0  0
  5  4  2  0  0  0  0
  6  1  2  0  0  0  0
  6  5  1  0  0  0  0
  9  5  1  0  0  0  0
 10 11  1  0  0  0  0
 10 16  1  0  0  0  0
 11 17  1  0  0  0  0
 12  2  1  0  0  0  0
 12 11  2  0  0  0  0
 13 12  1  0  0  0  0
 14 13  2  0  0  0  0
 14 15  1  0  0  0  0
 15 10  2  0  0  0  0
 16 20  1  0  0  0  0
 18 14  1  0  0  0  0
 19 16  1  0  0  0  0
 21  6  1  0  0  0  0
 22 21  1  0  0  0  0
 22 27  1  0  0  0  0
 23 22  2  0  0  0  0
 24 25  2  0  0  0  0
 24 23  1  0  0  0  0
 25 26  1  0  0  0  0
 26 31  1  0  0  0  0
 26 21  2  0  0  0  0
 28 23  1  0  0  0  0
 29 24  1  0  0  0  0
 30 25  1  0  0  0  0
 31 32  1  0  0  0  0
 32 33  2  0  0  0  0
 33 34  1  0  0  0  0
 35 33  1  0  0  0  0
 36 35  2  0  0  0  0
 37 31  2  0  0  0  0
 37 36  1  0  0  0  0
 38 39  3  0  0  0  0
 39  1  1  0  0  0  0
M  END
>  <minimizedAffinity>
-6.03320551

$$$$

 OpenBabel03252508403D

 39 42  0  0  0  0  0  0  0  0999 V2000
   38.6180   27.3040   41.5810 C   0  0  0  0  0  0  0  0  0  0  0  0
   37.5260   26.5340   41.8500 C   0  0  0  0  0  0  0  0  0  0  0  0
   36.7340   26.9070   42.8880 C   0  0  0  0  0  0  0  0  0  0  0  0
   36.9650   28.0070   43.6790 C   0  0  0  0  0  0  0  0  0  0  0  0
   38.0700   28.7660   43.3890 C   0  0  0  0  0  0  0  0  0  0  0  0
   38.9070   28.4310   42.3460 C   0  0  0  0  0  0  0  0  0  0  0  0
   35.8560   26.2890   43.1060 H   0  0  0  0  0  0  0  0  0  0  0  0
   36.3260   28.2800   44.4920 H   0  0  0  0  0  0  0  0  0  0  0  0
   38.2680   29.6430   44.0080 H   0  0  0  0  0  0  0  0  0  0  0  0
   37.6290   23.0240   40.4600 C   0  0  0  0  0  0  0  0  0  0  0  0
   37.8570   24.1210   41.3060 C   0  0  0  0  0  0  0  0  0  0  0  0
   37.3110   25.3830   40.9990 C   0  0  0  0  0  0  0  0  0  0  0  0
   36.5800   25.4260   39.8570 N   0  0  0  0  0  0  0  0  0  0  0  0
   36.3720   24.3840   39.0660 C   0  0  0  0  0  0  0  0  0  0  0  0
   36.8900   23.1840   39.3580 N   0  0  0  0  0  0  0  0  0  0  0  0
   38.1970   21.7860   40.8140 N   0  0  0  0  0  0  0  0  0  0  0  0
   38.4470   24.0240   42.2010 H   0  0  0  0  0  0  0  0  0  0  0  0
   35.7770   24.4800   38.1660 H   0  0  0  0  0  0  0  0  0  0  0  0
   38.7340   21.1140   40.2220 H   0  0  0  0  0  0  0  0  0  0  0  0
   38.1000   21.4350   41.7920 H   0  0  0  0  0  0  0  0  0  0  0  0
   40.0510   29.3000   42.1190 C   0  0  0  0  0  0  0  0  0  0  0  0
   41.1890   28.9910   42.8280 C   0  0  0  0  0  0  0  0  0  0  0  0
   42.3800   29.7120   42.7370 C   0  0  0  0  0  0  0  0  0  0  0  0
   42.4000   30.7940   41.8840 C   0  0  0  0  0  0  0  0  0  0  0  0
   41.2720   31.1250   41.1630 C   0  0  0  0  0  0  0  0  0  0  0  0
   40.1030   30.3910   41.2720 C   0  0  0  0  0  0  0  0  0  0  0  0
   41.2250   28.1450   43.5150 H   0  0  0  0  0  0  0  0  0  0  0  0
   43.2440   29.4280   43.3140 H   0  0  0  0  0  0  0  0  0  0  0  0
   43.2970   31.4080   41.7610 H   0  0  0  0  0  0  0  0  0  0  0  0
   41.2440   31.9710   40.4790 H   0  0  0  0  0  0  0  0  0  0  0  0
   38.8650   30.6830   40.5380 C   0  0  0  0  0  0  0  0  0  0  0  0
   38.9710   30.3220   39.1910 C   0  0  0  0  0  3  0  0  0  0  0  0
   37.9090   30.5100   38.3000 C   0  0  0  0  0  0  0  0  0  0  0  0
   37.9990   30.2280   37.2550 H   0  0  0  0  0  0  0  0  0  0  0  0
   36.7550   31.0520   38.7480 N   0  0  0  0  0  0  0  0  0  0  0  0
   36.7250   31.3730   40.0550 C   0  0  0  0  0  3  0  0  0  0  0  0
   37.7170   31.2140   40.9580 N   0  0  0  0  0  0  0  0  0  0  0  0
   40.2580   26.7290   39.6360 N   0  0  0  0  0  0  0  0  0  0  0  0
   39.5220   26.9910   40.4980 C   0  0  0  0  0  0  0  0  0  0  0  0
  1  2  2  0  0  0  0
  1  6  1  0  0  0  0
  2  3  1  0  0  0  0
  3  7  1  0  0  0  0
  3  4  2  0  0  0  0
  4  8  1  0  0  0  0
  5  4  1  0  0  0  0
  5  9  1  0  0  0  0
  6  5  2  0  0  0  0
 10 16  1  0  0  0  0
 10 11  1  0  0  0  0
 11 17  1  0  0  0  0
 12 11  2  0  0  0  0
 12  2  1  0  0  0  0
 13 12  1  0  0  0  0
 14 15  1  0  0  0  0
 14 13  2  0  0  0  0
 15 10  2  0  0  0  0
 16 20  1  0  0  0  0
 18 14  1  0  0  0  0
 19 16  1  0  0  0  0
 21  6  1  0  0  0  0
 21 22  1  0  0  0  0
 22 27  1  0  0  0  0
 23 22  2  0  0  0  0
 23 28  1  0  0  0  0
 24 23  1  0  0  0  0
 25 26  1  0  0  0  0
 25 24  2  0  0  0  0
 26 21  2  0  0  0  0
 29 24  1  0  0  0  0
 30 25  1  0  0  0  0
 31 37  1  0  0  0  0
 31 26  1  0  0  0  0
 32 31  2  0  0  0  0
 33 35  2  0  0  0  0
 33 32  1  0  0  0  0
 34 33  1  0  0  0  0
 35 36  1  0  0  0  0
 36 37  2  0  0  0  0
 38 39  3  0  0  0  0
 39  1  1  0  0  0  0
M  END
>  <minimizedAffinity>
-5.94764614

$$$$

 OpenBabel03252508403D

 39 42  0  0  0  0  0  0  0  0999 V2000
   39.1040   31.4110   38.9440 C   0  0  0  0  0  0  0  0  0  0  0  0
   39.6820   32.5680   39.3750 C   0  0  0  0  0  0  0  0  0  0  0  0
   38.8710   33.5070   39.9280 C   0  0  0  0  0  0  0  0  0  0  0  0
   37.5130   33.3630   40.0780 C   0  0  0  0  0  0  0  0  0  0  0  0
   36.9550   32.1900   39.6360 C   0  0  0  0  0  0  0  0  0  0  0  0
   37.7330   31.2040   39.0670 C   0  0  0  0  0  0  0  0  0  0  0  0
   39.3330   34.4380   40.2750 H   0  0  0  0  0  0  0  0  0  0  0  0
   36.8960   34.1180   40.5170 H   0  0  0  0  0  0  0  0  0  0  0  0
   35.8770   32.0600   39.7480 H   0  0  0  0  0  0  0  0  0  0  0  0
   43.0680   33.4700   37.9660 C   0  0  0  0  0  0  0  0  0  0  0  0
   41.6730   33.3700   38.1040 C   0  0  0  0  0  0  0  0  0  0  0  0
   41.1140   32.6880   39.2030 C   0  0  0  0  0  0  0  0  0  0  0  0
   42.0160   32.1650   40.0690 N   0  0  0  0  0  0  0  0  0  0  0  0
   43.3300   32.2660   39.9280 C   0  0  0  0  0  0  0  0  0  0  0  0
   43.8620   32.9130   38.8850 N   0  0  0  0  0  0  0  0  0  0  0  0
   43.5740   34.1610   36.8500 N   0  0  0  0  0  0  0  0  0  0  0  0
   41.0070   33.8080   37.3810 H   0  0  0  0  0  0  0  0  0  0  0  0
   44.0020   31.8250   40.6560 H   0  0  0  0  0  0  0  0  0  0  0  0
   44.3290   33.8780   36.1860 H   0  0  0  0  0  0  0  0  0  0  0  0
   43.1810   35.0950   36.5990 H   0  0  0  0  0  0  0  0  0  0  0  0
   37.0470   29.9980   38.6320 C   0  0  0  0  0  0  0  0  0  0  0  0
   36.5210   30.0320   37.3610 C   0  0  0  0  0  0  0  0  0  0  0  0
   35.8320   28.9700   36.7770 C   0  0  0  0  0  0  0  0  0  0  0  0
   35.6770   27.8260   37.5310 C   0  0  0  0  0  0  0  0  0  0  0  0
   36.1940   27.7680   38.8080 C   0  0  0  0  0  0  0  0  0  0  0  0
   36.8740   28.8370   39.3630 C   0  0  0  0  0  0  0  0  0  0  0  0
   36.6180   30.9130   36.7240 H   0  0  0  0  0  0  0  0  0  0  0  0
   35.4400   29.0480   35.7760 H   0  0  0  0  0  0  0  0  0  0  0  0
   35.1480   26.9530   37.1400 H   0  0  0  0  0  0  0  0  0  0  0  0
   36.0940   26.8850   39.4370 H   0  0  0  0  0  0  0  0  0  0  0  0
   37.4510   28.8480   40.7130 C   0  0  0  0  0  0  0  0  0  0  0  0
   38.6200   28.0830   40.7770 C   0  0  0  0  0  3  0  0  0  0  0  0
   39.3400   27.9500   41.9690 C   0  0  0  0  0  0  0  0  0  0  0  0
   40.2460   27.3530   42.0110 H   0  0  0  0  0  0  0  0  0  0  0  0
   38.8990   28.5740   43.0840 N   0  0  0  0  0  0  0  0  0  0  0  0
   37.7690   29.2920   42.9470 C   0  0  0  0  0  3  0  0  0  0  0  0
   37.0350   29.4550   41.8250 N   0  0  0  0  0  0  0  0  0  0  0  0
   40.5160   29.5090   37.8510 N   0  0  0  0  0  0  0  0  0  0  0  0
   39.8810   30.3510   38.3410 C   0  0  0  0  0  0  0  0  0  0  0  0
  1  6  2  0  0  0  0
  1  2  1  0  0  0  0
  2  3  2  0  0  0  0
  3  4  1  0  0  0  0
  3  7  1  0  0  0  0
  4  8  1  0  0  0  0
  5  9  1  0  0  0  0
  5  4  2  0  0  0  0
  6  5  1  0  0  0  0
 10 11  2  0  0  0  0
 10 15  1  0  0  0  0
 11 12  1  0  0  0  0
 12  2  1  0  0  0  0
 12 13  2  0  0  0  0
 14 13  1  0  0  0  0
 14 18  1  0  0  0  0
 15 14  2  0  0  0  0
 16 10  1  0  0  0  0
 17 11  1  0  0  0  0
 19 16  1  0  0  0  0
 20 16  1  0  0  0  0
 21  6  1  0  0  0  0
 21 26  1  0  0  0  0
 22 21  2  0  0  0  0
 23 22  1  0  0  0  0
 23 24  2  0  0  0  0
 24 25  1  0  0  0  0
 25 26  2  0  0  0  0
 25 30  1  0  0  0  0
 26 31  1  0  0  0  0
 27 22  1  0  0  0  0
 28 23  1  0  0  0  0
 29 24  1  0  0  0  0
 31 32  2  0  0  0  0
 31 37  1  0  0  0  0
 32 33  1  0  0  0  0
 33 34  1  0  0  0  0
 33 35  2  0  0  0  0
 36 35  1  0  0  0  0
 37 36  2  0  0  0  0
 38 39  3  0  0  0  0
 39  1  1  0  0  0  0
M  END
>  <minimizedAffinity>
-5.94012785

$$$$

 OpenBabel03252508403D

 39 42  0  0  0  0  0  0  0  0999 V2000
   37.8700   28.9230   40.1640 C   0  0  0  0  0  0  0  0  0  0  0  0
   37.7390   30.2770   40.0700 C   0  0  0  0  0  0  0  0  0  0  0  0
   36.5060   30.8050   40.2830 C   0  0  0  0  0  0  0  0  0  0  0  0
   35.3890   30.0630   40.5850 C   0  0  0  0  0  0  0  0  0  0  0  0
   35.5470   28.7030   40.6740 C   0  0  0  0  0  0  0  0  0  0  0  0
   36.7770   28.1150   40.4660 C   0  0  0  0  0  0  0  0  0  0  0  0
   36.3980   31.8930   40.2070 H   0  0  0  0  0  0  0  0  0  0  0  0
   34.4280   30.5030   40.7480 H   0  0  0  0  0  0  0  0  0  0  0  0
   34.6700   28.0990   40.9130 H   0  0  0  0  0  0  0  0  0  0  0  0
   40.3850   32.1760   38.1580 C   0  0  0  0  0  0  0  0  0  0  0  0
   39.2170   31.4450   38.4350 C   0  0  0  0  0  0  0  0  0  0  0  0
   38.9330   31.0300   39.7500 C   0  0  0  0  0  0  0  0  0  0  0  0
   39.8580   31.3890   40.6750 N   0  0  0  0  0  0  0  0  0  0  0  0
   40.9560   32.0780   40.4010 C   0  0  0  0  0  0  0  0  0  0  0  0
   41.2260   32.4740   39.1510 N   0  0  0  0  0  0  0  0  0  0  0  0
   40.6200   32.5660   36.8270 N   0  0  0  0  0  0  0  0  0  0  0  0
   38.5190   31.1900   37.6560 H   0  0  0  0  0  0  0  0  0  0  0  0
   41.6590   32.3370   41.1850 H   0  0  0  0  0  0  0  0  0  0  0  0
   41.4940   32.4830   36.2590 H   0  0  0  0  0  0  0  0  0  0  0  0
   39.8530   33.0080   36.2750 H   0  0  0  0  0  0  0  0  0  0  0  0
   36.8400   26.6680   40.5840 C   0  0  0  0  0  0  0  0  0  0  0  0
   37.0920   26.1780   41.8450 C   0  0  0  0  0  0  0  0  0  0  0  0
   37.1870   24.8190   42.1450 C   0  0  0  0  0  0  0  0  0  0  0  0
   37.0160   23.9290   41.1070 C   0  0  0  0  0  0  0  0  0  0  0  0
   36.7630   24.3950   39.8340 C   0  0  0  0  0  0  0  0  0  0  0  0
   36.6730   25.7490   39.5640 C   0  0  0  0  0  0  0  0  0  0  0  0
   37.2340   26.8410   42.6990 H   0  0  0  0  0  0  0  0  0  0  0  0
   37.3870   24.4880   43.1510 H   0  0  0  0  0  0  0  0  0  0  0  0
   37.0770   22.8480   41.2660 H   0  0  0  0  0  0  0  0  0  0  0  0
   36.6220   23.7260   38.9860 H   0  0  0  0  0  0  0  0  0  0  0  0
   36.4070   26.3180   38.2360 C   0  0  0  0  0  0  0  0  0  0  0  0
   37.5460   26.2840   37.4260 C   0  0  0  0  0  3  0  0  0  0  0  0
   37.5240   26.7750   36.1170 C   0  0  0  0  0  0  0  0  0  0  0  0
   38.4130   26.7460   35.4940 H   0  0  0  0  0  0  0  0  0  0  0  0
   36.3780   27.2940   35.6220 N   0  0  0  0  0  0  0  0  0  0  0  0
   35.3240   27.2940   36.4580 C   0  0  0  0  0  3  0  0  0  0  0  0
   35.2880   26.8340   37.7270 N   0  0  0  0  0  0  0  0  0  0  0  0
   40.1560   27.7230   39.7900 N   0  0  0  0  0  0  0  0  0  0  0  0
   39.1400   28.2650   39.9550 C   0  0  0  0  0  0  0  0  0  0  0  0
  1  6  1  0  0  0  0
  2  1  2  0  0  0  0
  2  3  1  0  0  0  0
  3  4  2  0  0  0  0
  4  5  1  0  0  0  0
  4  8  1  0  0  0  0
  5  9  1  0  0  0  0
  6 21  1  0  0  0  0
  6  5  2  0  0  0  0
  7  3  1  0  0  0  0
 10 11  2  0  0  0  0
 10 15  1  0  0  0  0
 11 12  1  0  0  0  0
 12  2  1  0  0  0  0
 12 13  2  0  0  0  0
 14 13  1  0  0  0  0
 14 18  1  0  0  0  0
 15 14  2  0  0  0  0
 16 10  1  0  0  0  0
 17 11  1  0  0  0  0
 19 16  1  0  0  0  0
 20 16  1  0  0  0  0
 21 22  1  0  0  0  0
 22 23  2  0  0  0  0
 22 27  1  0  0  0  0
 23 28  1  0  0  0  0
 24 29  1  0  0  0  0
 24 23  1  0  0  0  0
 25 24  2  0  0  0  0
 26 25  1  0  0  0  0
 26 21  2  0  0  0  0
 30 25  1  0  0  0  0
 31 26  1  0  0  0  0
 32 31  2  0  0  0  0
 33 32  1  0  0  0  0
 34 33  1  0  0  0  0
 35 33  2  0  0  0  0
 35 36  1  0  0  0  0
 36 37  2  0  0  0  0
 37 31  1  0  0  0  0
 38 39  3  0  0  0  0
 39  1  1  0  0  0  0
M  END
>  <minimizedAffinity>
-5.86488008

$$$$
