
 OpenBabel03252501493D

 31 33  0  0  0  0  0  0  0  0999 V2000
   34.3270   29.1490   39.3600 C   0  0  0  0  0  0  0  0  0  0  0  0
   34.7970   28.7900   38.0710 C   0  0  0  0  0  0  0  0  0  0  0  0
   36.0350   28.1570   37.9560 C   0  0  0  0  0  0  0  0  0  0  0  0
   36.7390   27.9120   39.0990 N   0  0  0  0  0  0  0  0  0  0  0  0
   36.2590   28.2690   40.3030 C   0  0  0  0  0  0  0  0  0  0  0  0
   35.0720   28.8770   40.4250 N   0  0  0  0  0  0  0  0  0  0  0  0
   33.3650   29.6440   39.4640 H   0  0  0  0  0  0  0  0  0  0  0  0
   36.4200   27.8690   36.9800 H   0  0  0  0  0  0  0  0  0  0  0  0
   37.2970   30.3110   41.8660 F   0  0  0  0  0  0  0  0  0  0  0  0
   37.5680   29.0360   42.2550 C   0  0  0  0  0  0  0  0  0  0  0  0
   37.0630   27.9790   41.4910 C   0  0  0  0  0  0  0  0  0  0  0  0
   37.2970   26.6680   41.8240 C   0  0  0  0  0  0  0  0  0  0  0  0
   38.0640   26.4220   42.9600 C   0  0  0  0  0  0  0  0  0  0  0  0
   38.5830   27.4730   43.7410 C   0  0  0  0  0  0  0  0  0  0  0  0
   38.3280   28.7910   43.3790 C   0  0  0  0  0  0  0  0  0  0  0  0
   36.9160   25.8440   41.2500 H   0  0  0  0  0  0  0  0  0  0  0  0
   38.2630   25.3960   43.2440 H   0  0  0  0  0  0  0  0  0  0  0  0
   39.1820   27.2620   44.6270 H   0  0  0  0  0  0  0  0  0  0  0  0
   38.7050   29.6270   43.9480 H   0  0  0  0  0  0  0  0  0  0  0  0
   33.9820   29.0850   36.8820 C   0  0  0  0  0  3  0  0  0  0  0  0
   32.7610   28.6200   36.6790 C   0  0  0  0  0  3  0  0  0  0  0  0
   32.0220   28.9910   35.4220 C   0  0  0  0  0  0  0  0  0  0  0  0
   31.2180   28.2040   35.3340 H   0  0  0  0  0  0  0  0  0  0  0  0
   32.7150   28.9230   34.5540 H   0  0  0  0  0  0  0  0  0  0  0  0
   31.3600   30.2980   35.5120 C   0  0  0  0  0  0  0  0  0  0  0  0
   31.2550   31.2210   34.4860 C   0  0  0  0  0  3  0  0  0  0  0  0
   30.6240   32.4400   34.6080 C   0  0  0  0  0  0  0  0  0  0  0  0
   30.5520   33.1450   33.7990 H   0  0  0  0  0  0  0  0  0  0  0  0
   30.0740   32.7480   35.8140 N   0  0  0  0  0  0  0  0  0  0  0  0
   30.1600   31.8630   36.8410 C   0  0  0  0  0  3  0  0  0  0  0  0
   30.7840   30.6860   36.6820 N   0  0  0  0  0  0  0  0  0  0  0  0
  1  7  1  0  0  0  0
  1  6  1  0  0  0  0
  2  1  2  0  0  0  0
  3  2  1  0  0  0  0
  3  4  2  0  0  0  0
  4  5  1  0  0  0  0
  5  6  2  0  0  0  0
  5 11  1  0  0  0  0
  8  3  1  0  0  0  0
  9 10  1  0  0  0  0
 10 15  1  0  0  0  0
 11 12  1  0  0  0  0
 11 10  2  0  0  0  0
 12 13  2  0  0  0  0
 13 17  1  0  0  0  0
 13 14  1  0  0  0  0
 14 18  1  0  0  0  0
 15 14  2  0  0  0  0
 15 19  1  0  0  0  0
 16 12  1  0  0  0  0
 20  2  1  0  0  0  0
 21 20  2  0  0  0  0
 22 25  1  0  0  0  0
 22 21  1  0  0  0  0
 23 22  1  0  0  0  0
 24 22  1  0  0  0  0
 25 31  1  0  0  0  0
 26 27  1  0  0  0  0
 26 25  2  0  0  0  0
 27 29  2  0  0  0  0
 28 27  1  0  0  0  0
 29 30  1  0  0  0  0
 31 30  2  0  0  0  0
M  END
>  <minimizedAffinity>
-5.39937305

$$$$

 OpenBabel03252501493D

 31 33  0  0  0  0  0  0  0  0999 V2000
   38.4850   28.7790   40.4040 C   0  0  0  0  0  0  0  0  0  0  0  0
   38.5550   28.3380   41.7490 C   0  0  0  0  0  0  0  0  0  0  0  0
   38.8780   29.2590   42.7460 C   0  0  0  0  0  0  0  0  0  0  0  0
   39.1120   30.5510   42.3740 N   0  0  0  0  0  0  0  0  0  0  0  0
   39.0360   30.9300   41.0870 C   0  0  0  0  0  0  0  0  0  0  0  0
   38.7270   30.0540   40.1220 N   0  0  0  0  0  0  0  0  0  0  0  0
   38.2350   28.0720   39.6170 H   0  0  0  0  0  0  0  0  0  0  0  0
   38.9390   28.9490   43.7870 H   0  0  0  0  0  0  0  0  0  0  0  0
   36.9690   32.6640   40.4470 F   0  0  0  0  0  0  0  0  0  0  0  0
   38.2290   33.1750   40.4360 C   0  0  0  0  0  0  0  0  0  0  0  0
   39.2990   32.3300   40.7520 C   0  0  0  0  0  0  0  0  0  0  0  0
   40.5970   32.7760   40.7610 C   0  0  0  0  0  0  0  0  0  0  0  0
   40.8180   34.1140   40.4390 C   0  0  0  0  0  0  0  0  0  0  0  0
   39.7540   34.9790   40.1160 C   0  0  0  0  0  0  0  0  0  0  0  0
   38.4490   34.4980   40.1170 C   0  0  0  0  0  0  0  0  0  0  0  0
   41.4300   32.1430   41.0010 H   0  0  0  0  0  0  0  0  0  0  0  0
   41.8320   34.4910   40.4380 H   0  0  0  0  0  0  0  0  0  0  0  0
   39.9440   36.0230   39.8660 H   0  0  0  0  0  0  0  0  0  0  0  0
   37.6050   35.1250   39.8770 H   0  0  0  0  0  0  0  0  0  0  0  0
   38.2890   26.9280   42.0760 C   0  0  0  0  0  3  0  0  0  0  0  0
   37.1000   26.3560   42.0030 C   0  0  0  0  0  3  0  0  0  0  0  0
   36.9490   24.9030   42.3630 C   0  0  0  0  0  0  0  0  0  0  0  0
   35.8900   24.8230   42.7450 H   0  0  0  0  0  0  0  0  0  0  0  0
   37.6640   24.6490   43.1770 H   0  0  0  0  0  0  0  0  0  0  0  0
   37.0750   24.0100   41.2050 C   0  0  0  0  0  0  0  0  0  0  0  0
   36.0740   23.7260   40.2920 C   0  0  0  0  0  3  0  0  0  0  0  0
   36.2300   22.8800   39.2160 C   0  0  0  0  0  0  0  0  0  0  0  0
   35.4400   22.6720   38.5160 H   0  0  0  0  0  0  0  0  0  0  0  0
   37.4450   22.2910   39.0460 N   0  0  0  0  0  0  0  0  0  0  0  0
   38.4480   22.5490   39.9250 C   0  0  0  0  0  3  0  0  0  0  0  0
   38.2560   23.3780   40.9620 N   0  0  0  0  0  0  0  0  0  0  0  0
  1  2  1  0  0  0  0
  2 20  1  0  0  0  0
  2  3  2  0  0  0  0
  3  8  1  0  0  0  0
  4  3  1  0  0  0  0
  5  4  2  0  0  0  0
  6  1  2  0  0  0  0
  6  5  1  0  0  0  0
  7  1  1  0  0  0  0
 10  9  1  0  0  0  0
 10 11  1  0  0  0  0
 11 12  2  0  0  0  0
 11  5  1  0  0  0  0
 12 16  1  0  0  0  0
 13 12  1  0  0  0  0
 14 15  1  0  0  0  0
 14 13  2  0  0  0  0
 15 10  2  0  0  0  0
 17 13  1  0  0  0  0
 18 14  1  0  0  0  0
 19 15  1  0  0  0  0
 21 20  2  0  0  0  0
 21 22  1  0  0  0  0
 22 23  1  0  0  0  0
 22 24  1  0  0  0  0
 25 22  1  0  0  0  0
 26 25  2  0  0  0  0
 27 26  1  0  0  0  0
 28 27  1  0  0  0  0
 29 27  2  0  0  0  0
 29 30  1  0  0  0  0
 30 31  2  0  0  0  0
 31 25  1  0  0  0  0
M  END
>  <minimizedAffinity>
-5.34554863

$$$$

 OpenBabel03252501493D

 31 33  0  0  0  0  0  0  0  0999 V2000
   35.9370   27.4480   38.7670 C   0  0  0  0  0  0  0  0  0  0  0  0
   35.4710   28.7810   38.6420 C   0  0  0  0  0  0  0  0  0  0  0  0
   35.9260   29.7420   39.5450 C   0  0  0  0  0  0  0  0  0  0  0  0
   36.8050   29.3480   40.5120 N   0  0  0  0  0  0  0  0  0  0  0  0
   37.2230   28.0740   40.5970 C   0  0  0  0  0  0  0  0  0  0  0  0
   36.7930   27.1430   39.7350 N   0  0  0  0  0  0  0  0  0  0  0  0
   35.5890   26.6880   38.0710 H   0  0  0  0  0  0  0  0  0  0  0  0
   35.5870   30.7730   39.4730 H   0  0  0  0  0  0  0  0  0  0  0  0
   36.3410   27.4280   43.1450 F   0  0  0  0  0  0  0  0  0  0  0  0
   37.6830   27.3940   42.9290 C   0  0  0  0  0  0  0  0  0  0  0  0
   38.1660   27.7150   41.6570 C   0  0  0  0  0  0  0  0  0  0  0  0
   39.5090   27.7020   41.3660 C   0  0  0  0  0  0  0  0  0  0  0  0
   40.3830   27.3570   42.3940 C   0  0  0  0  0  0  0  0  0  0  0  0
   39.9150   27.0320   43.6830 C   0  0  0  0  0  0  0  0  0  0  0  0
   38.5500   27.0520   43.9450 C   0  0  0  0  0  0  0  0  0  0  0  0
   39.8980   27.9460   40.3960 H   0  0  0  0  0  0  0  0  0  0  0  0
   41.4460   27.3390   42.1920 H   0  0  0  0  0  0  0  0  0  0  0  0
   40.6130   26.7640   44.4750 H   0  0  0  0  0  0  0  0  0  0  0  0
   38.1470   26.8110   44.9170 H   0  0  0  0  0  0  0  0  0  0  0  0
   34.5230   29.1320   37.5730 C   0  0  0  0  0  3  0  0  0  0  0  0
   33.2350   28.8390   37.5920 C   0  0  0  0  0  3  0  0  0  0  0  0
   32.3600   29.2510   36.4390 C   0  0  0  0  0  0  0  0  0  0  0  0
   31.8930   28.2850   36.0890 H   0  0  0  0  0  0  0  0  0  0  0  0
   32.9940   29.6790   35.6300 H   0  0  0  0  0  0  0  0  0  0  0  0
   31.2730   30.1540   36.8390 C   0  0  0  0  0  0  0  0  0  0  0  0
   30.8450   31.2630   36.1310 C   0  0  0  0  0  3  0  0  0  0  0  0
   29.8200   32.0890   36.5390 C   0  0  0  0  0  0  0  0  0  0  0  0
   29.5000   32.9470   35.9750 H   0  0  0  0  0  0  0  0  0  0  0  0
   29.1950   31.7880   37.7100 N   0  0  0  0  0  0  0  0  0  0  0  0
   29.5920   30.7060   38.4270 C   0  0  0  0  0  3  0  0  0  0  0  0
   30.5960   29.9270   37.9970 N   0  0  0  0  0  0  0  0  0  0  0  0
  1  6  1  0  0  0  0
  2  1  2  0  0  0  0
  2  3  1  0  0  0  0
  3  4  2  0  0  0  0
  4  5  1  0  0  0  0
  5 11  1  0  0  0  0
  6  5  2  0  0  0  0
  7  1  1  0  0  0  0
  8  3  1  0  0  0  0
 10  9  1  0  0  0  0
 10 15  1  0  0  0  0
 11 10  2  0  0  0  0
 12 11  1  0  0  0  0
 12 13  2  0  0  0  0
 13 14  1  0  0  0  0
 14 15  2  0  0  0  0
 14 18  1  0  0  0  0
 15 19  1  0  0  0  0
 16 12  1  0  0  0  0
 17 13  1  0  0  0  0
 20 21  2  0  0  0  0
 20  2  1  0  0  0  0
 22 25  1  0  0  0  0
 22 21  1  0  0  0  0
 23 22  1  0  0  0  0
 24 22  1  0  0  0  0
 25 31  1  0  0  0  0
 26 27  1  0  0  0  0
 26 25  2  0  0  0  0
 27 29  2  0  0  0  0
 28 27  1  0  0  0  0
 29 30  1  0  0  0  0
 31 30  2  0  0  0  0
M  END
>  <minimizedAffinity>
-5.31562519

$$$$

 OpenBabel03252501493D

 31 33  0  0  0  0  0  0  0  0999 V2000
   35.9190   27.6490   38.2410 C   0  0  0  0  0  0  0  0  0  0  0  0
   34.9220   28.6550   38.2720 C   0  0  0  0  0  0  0  0  0  0  0  0
   34.7220   29.3710   39.4530 C   0  0  0  0  0  0  0  0  0  0  0  0
   35.5050   29.0650   40.5290 N   0  0  0  0  0  0  0  0  0  0  0  0
   36.4410   28.1030   40.4590 C   0  0  0  0  0  0  0  0  0  0  0  0
   36.6400   27.4090   39.3300 N   0  0  0  0  0  0  0  0  0  0  0  0
   36.0850   27.0820   37.3280 H   0  0  0  0  0  0  0  0  0  0  0  0
   33.9640   30.1500   39.5080 H   0  0  0  0  0  0  0  0  0  0  0  0
   39.1990   27.8690   40.2980 F   0  0  0  0  0  0  0  0  0  0  0  0
   38.6360   27.7120   41.5260 C   0  0  0  0  0  0  0  0  0  0  0  0
   37.2470   27.8220   41.6470 C   0  0  0  0  0  0  0  0  0  0  0  0
   36.6100   27.6750   42.8550 C   0  0  0  0  0  0  0  0  0  0  0  0
   37.4030   27.4080   43.9690 C   0  0  0  0  0  0  0  0  0  0  0  0
   38.8030   27.2930   43.8670 C   0  0  0  0  0  0  0  0  0  0  0  0
   39.4190   27.4480   42.6300 C   0  0  0  0  0  0  0  0  0  0  0  0
   35.5450   27.7570   42.9660 H   0  0  0  0  0  0  0  0  0  0  0  0
   36.9260   27.2880   44.9330 H   0  0  0  0  0  0  0  0  0  0  0  0
   39.4080   27.0840   44.7480 H   0  0  0  0  0  0  0  0  0  0  0  0
   40.4880   27.3680   42.5050 H   0  0  0  0  0  0  0  0  0  0  0  0
   34.1160   28.9310   37.0730 C   0  0  0  0  0  3  0  0  0  0  0  0
   32.8770   28.5070   36.8920 C   0  0  0  0  0  3  0  0  0  0  0  0
   32.1500   28.8530   35.6210 C   0  0  0  0  0  0  0  0  0  0  0  0
   31.3460   28.0640   35.5410 H   0  0  0  0  0  0  0  0  0  0  0  0
   32.8510   28.7670   34.7600 H   0  0  0  0  0  0  0  0  0  0  0  0
   31.4870   30.1610   35.6770 C   0  0  0  0  0  0  0  0  0  0  0  0
   30.7530   30.6470   36.7440 C   0  0  0  0  0  3  0  0  0  0  0  0
   30.1430   31.8830   36.7610 C   0  0  0  0  0  0  0  0  0  0  0  0
   29.5760   32.2450   37.6000 H   0  0  0  0  0  0  0  0  0  0  0  0
   30.2760   32.6670   35.6570 N   0  0  0  0  0  0  0  0  0  0  0  0
   30.9910   32.2180   34.5930 C   0  0  0  0  0  3  0  0  0  0  0  0
   31.5690   31.0080   34.6150 N   0  0  0  0  0  0  0  0  0  0  0  0
  1  2  2  0  0  0  0
  1  6  1  0  0  0  0
  2  3  1  0  0  0  0
  3  8  1  0  0  0  0
  3  4  2  0  0  0  0
  5  4  1  0  0  0  0
  5 11  1  0  0  0  0
  6  5  2  0  0  0  0
  7  1  1  0  0  0  0
  9 10  1  0  0  0  0
 10 11  2  0  0  0  0
 10 15  1  0  0  0  0
 11 12  1  0  0  0  0
 12 16  1  0  0  0  0
 12 13  2  0  0  0  0
 13 17  1  0  0  0  0
 14 13  1  0  0  0  0
 14 18  1  0  0  0  0
 15 14  2  0  0  0  0
 19 15  1  0  0  0  0
 20  2  1  0  0  0  0
 21 20  2  0  0  0  0
 22 25  1  0  0  0  0
 22 21  1  0  0  0  0
 23 22  1  0  0  0  0
 24 22  1  0  0  0  0
 25 26  1  0  0  0  0
 26 27  2  0  0  0  0
 27 28  1  0  0  0  0
 29 27  1  0  0  0  0
 30 31  1  0  0  0  0
 30 29  2  0  0  0  0
 31 25  2  0  0  0  0
M  END
>  <minimizedAffinity>
-5.29293728

$$$$

 OpenBabel03252501493D

 31 33  0  0  0  0  0  0  0  0999 V2000
   38.7410   29.7210   42.4270 C   0  0  0  0  0  0  0  0  0  0  0  0
   37.6960   29.1230   41.6800 C   0  0  0  0  0  0  0  0  0  0  0  0
   37.2080   29.7840   40.5520 C   0  0  0  0  0  0  0  0  0  0  0  0
   37.7670   30.9830   40.2200 N   0  0  0  0  0  0  0  0  0  0  0  0
   38.7570   31.5180   40.9540 C   0  0  0  0  0  0  0  0  0  0  0  0
   39.2330   30.8930   42.0400 N   0  0  0  0  0  0  0  0  0  0  0  0
   39.1300   29.2180   43.3090 H   0  0  0  0  0  0  0  0  0  0  0  0
   36.4070   29.3480   39.9580 H   0  0  0  0  0  0  0  0  0  0  0  0
   41.1960   31.6790   39.6460 F   0  0  0  0  0  0  0  0  0  0  0  0
   40.5470   32.8490   39.8870 C   0  0  0  0  0  0  0  0  0  0  0  0
   39.3140   32.8080   40.5470 C   0  0  0  0  0  0  0  0  0  0  0  0
   38.6020   33.9500   40.8240 C   0  0  0  0  0  0  0  0  0  0  0  0
   39.1570   35.1640   40.4240 C   0  0  0  0  0  0  0  0  0  0  0  0
   40.3970   35.2250   39.7600 C   0  0  0  0  0  0  0  0  0  0  0  0
   41.0940   34.0510   39.4920 C   0  0  0  0  0  0  0  0  0  0  0  0
   37.6550   33.9380   41.3290 H   0  0  0  0  0  0  0  0  0  0  0  0
   38.6160   36.0780   40.6310 H   0  0  0  0  0  0  0  0  0  0  0  0
   40.8160   36.1830   39.4540 H   0  0  0  0  0  0  0  0  0  0  0  0
   42.0470   34.0510   38.9860 H   0  0  0  0  0  0  0  0  0  0  0  0
   37.1420   27.8250   42.0970 C   0  0  0  0  0  3  0  0  0  0  0  0
   37.6550   26.6530   41.7650 C   0  0  0  0  0  3  0  0  0  0  0  0
   37.0000   25.3890   42.2530 C   0  0  0  0  0  0  0  0  0  0  0  0
   35.9090   25.6630   42.3470 H   0  0  0  0  0  0  0  0  0  0  0  0
   37.4110   25.1240   43.2530 H   0  0  0  0  0  0  0  0  0  0  0  0
   37.1020   24.2840   41.2930 C   0  0  0  0  0  0  0  0  0  0  0  0
   38.1780   23.4220   41.1660 C   0  0  0  0  0  3  0  0  0  0  0  0
   38.2380   22.3940   40.2500 C   0  0  0  0  0  0  0  0  0  0  0  0
   39.0830   21.7330   40.1660 H   0  0  0  0  0  0  0  0  0  0  0  0
   37.1710   22.2220   39.4230 N   0  0  0  0  0  0  0  0  0  0  0  0
   36.1000   23.0510   39.5230 C   0  0  0  0  0  3  0  0  0  0  0  0
   36.0800   24.0420   40.4280 N   0  0  0  0  0  0  0  0  0  0  0  0
  1  7  1  0  0  0  0
  2 20  1  0  0  0  0
  2  1  2  0  0  0  0
  3  2  1  0  0  0  0
  4  3  2  0  0  0  0
  4  5  1  0  0  0  0
  5  6  2  0  0  0  0
  6  1  1  0  0  0  0
  8  3  1  0  0  0  0
  9 10  1  0  0  0  0
 10 11  1  0  0  0  0
 11 12  2  0  0  0  0
 11  5  1  0  0  0  0
 12 16  1  0  0  0  0
 13 17  1  0  0  0  0
 13 12  1  0  0  0  0
 14 13  2  0  0  0  0
 15 14  1  0  0  0  0
 15 10  2  0  0  0  0
 18 14  1  0  0  0  0
 19 15  1  0  0  0  0
 21 20  2  0  0  0  0
 21 22  1  0  0  0  0
 22 23  1  0  0  0  0
 22 24  1  0  0  0  0
 25 22  1  0  0  0  0
 26 25  1  0  0  0  0
 27 26  2  0  0  0  0
 28 27  1  0  0  0  0
 29 30  2  0  0  0  0
 29 27  1  0  0  0  0
 30 31  1  0  0  0  0
 31 25  2  0  0  0  0
M  END
>  <minimizedAffinity>
-5.24537325

$$$$

 OpenBabel03252501493D

 31 33  0  0  0  0  0  0  0  0999 V2000
   38.8620   29.4890   40.4500 C   0  0  0  0  0  0  0  0  0  0  0  0
   37.8750   30.4560   40.7640 C   0  0  0  0  0  0  0  0  0  0  0  0
   36.5800   30.0280   41.0570 C   0  0  0  0  0  0  0  0  0  0  0  0
   36.3250   28.6880   41.0270 N   0  0  0  0  0  0  0  0  0  0  0  0
   37.2890   27.8020   40.7240 C   0  0  0  0  0  0  0  0  0  0  0  0
   38.5360   28.2010   40.4410 N   0  0  0  0  0  0  0  0  0  0  0  0
   39.8750   29.8080   40.2180 H   0  0  0  0  0  0  0  0  0  0  0  0
   35.8010   30.7480   41.3020 H   0  0  0  0  0  0  0  0  0  0  0  0
   36.2930   26.5880   38.4390 F   0  0  0  0  0  0  0  0  0  0  0  0
   36.4530   25.8010   39.5360 C   0  0  0  0  0  0  0  0  0  0  0  0
   36.9520   26.3780   40.7090 C   0  0  0  0  0  0  0  0  0  0  0  0
   37.1390   25.6450   41.8550 C   0  0  0  0  0  0  0  0  0  0  0  0
   36.8100   24.2920   41.8110 C   0  0  0  0  0  0  0  0  0  0  0  0
   36.3050   23.6930   40.6390 C   0  0  0  0  0  0  0  0  0  0  0  0
   36.1280   24.4620   39.4940 C   0  0  0  0  0  0  0  0  0  0  0  0
   37.5210   26.0700   42.7630 H   0  0  0  0  0  0  0  0  0  0  0  0
   36.9480   23.6910   42.7010 H   0  0  0  0  0  0  0  0  0  0  0  0
   36.0530   22.6330   40.6230 H   0  0  0  0  0  0  0  0  0  0  0  0
   35.7440   24.0450   38.5760 H   0  0  0  0  0  0  0  0  0  0  0  0
   38.2230   31.8860   40.7770 C   0  0  0  0  0  3  0  0  0  0  0  0
   37.7820   32.7700   39.8990 C   0  0  0  0  0  3  0  0  0  0  0  0
   38.2070   34.2080   40.0140 C   0  0  0  0  0  0  0  0  0  0  0  0
   37.8330   34.5260   41.0300 H   0  0  0  0  0  0  0  0  0  0  0  0
   37.7020   34.8060   39.2220 H   0  0  0  0  0  0  0  0  0  0  0  0
   39.6650   34.3780   40.0020 C   0  0  0  0  0  0  0  0  0  0  0  0
   40.3940   35.1510   40.8890 C   0  0  0  0  0  3  0  0  0  0  0  0
   41.7650   35.2860   40.8470 C   0  0  0  0  0  0  0  0  0  0  0  0
   42.3150   35.8910   41.5450 H   0  0  0  0  0  0  0  0  0  0  0  0
   42.4350   34.6170   39.8700 N   0  0  0  0  0  0  0  0  0  0  0  0
   41.7480   33.8500   38.9840 C   0  0  0  0  0  3  0  0  0  0  0  0
   40.4130   33.7450   39.0580 N   0  0  0  0  0  0  0  0  0  0  0  0
  1  2  1  0  0  0  0
  2 20  1  0  0  0  0
  2  3  2  0  0  0  0
  3  8  1  0  0  0  0
  4  3  1  0  0  0  0
  5  4  2  0  0  0  0
  6  1  2  0  0  0  0
  6  5  1  0  0  0  0
  7  1  1  0  0  0  0
  9 10  1  0  0  0  0
 10 11  1  0  0  0  0
 11  5  1  0  0  0  0
 11 12  2  0  0  0  0
 12 16  1  0  0  0  0
 13 12  1  0  0  0  0
 13 17  1  0  0  0  0
 14 13  2  0  0  0  0
 15 10  2  0  0  0  0
 15 14  1  0  0  0  0
 18 14  1  0  0  0  0
 19 15  1  0  0  0  0
 21 22  1  0  0  0  0
 21 20  2  0  0  0  0
 22 23  1  0  0  0  0
 24 22  1  0  0  0  0
 25 22  1  0  0  0  0
 25 26  1  0  0  0  0
 27 26  2  0  0  0  0
 27 28  1  0  0  0  0
 29 27  1  0  0  0  0
 30 31  1  0  0  0  0
 30 29  2  0  0  0  0
 31 25  2  0  0  0  0
M  END
>  <minimizedAffinity>
-5.19282579

$$$$

 OpenBabel03252501493D

 31 33  0  0  0  0  0  0  0  0999 V2000
   36.6330   27.3740   40.2950 C   0  0  0  0  0  0  0  0  0  0  0  0
   36.8000   28.4370   41.2180 C   0  0  0  0  0  0  0  0  0  0  0  0
   36.2040   29.6680   40.9430 C   0  0  0  0  0  0  0  0  0  0  0  0
   35.4830   29.7900   39.7910 N   0  0  0  0  0  0  0  0  0  0  0  0
   35.3480   28.7580   38.9410 C   0  0  0  0  0  0  0  0  0  0  0  0
   35.9160   27.5710   39.1950 N   0  0  0  0  0  0  0  0  0  0  0  0
   37.0920   26.4090   40.4950 H   0  0  0  0  0  0  0  0  0  0  0  0
   36.3140   30.5030   41.6340 H   0  0  0  0  0  0  0  0  0  0  0  0
   32.6280   29.2800   39.0550 F   0  0  0  0  0  0  0  0  0  0  0  0
   33.1920   29.2150   37.8200 C   0  0  0  0  0  0  0  0  0  0  0  0
   34.5630   28.9520   37.7220 C   0  0  0  0  0  0  0  0  0  0  0  0
   35.2010   28.8710   36.5090 C   0  0  0  0  0  0  0  0  0  0  0  0
   34.4290   29.0600   35.3650 C   0  0  0  0  0  0  0  0  0  0  0  0
   33.0470   29.3250   35.4430 C   0  0  0  0  0  0  0  0  0  0  0  0
   32.4300   29.4020   36.6870 C   0  0  0  0  0  0  0  0  0  0  0  0
   36.2520   28.6710   36.4150 H   0  0  0  0  0  0  0  0  0  0  0  0
   34.9070   29.0020   34.3960 H   0  0  0  0  0  0  0  0  0  0  0  0
   32.4580   29.4700   34.5380 H   0  0  0  0  0  0  0  0  0  0  0  0
   31.3750   29.6020   36.7940 H   0  0  0  0  0  0  0  0  0  0  0  0
   37.5910   28.2320   42.4410 C   0  0  0  0  0  3  0  0  0  0  0  0
   38.2890   27.1420   42.7050 C   0  0  0  0  0  3  0  0  0  0  0  0
   39.0620   27.0460   43.9920 C   0  0  0  0  0  0  0  0  0  0  0  0
   38.4850   26.2930   44.6040 H   0  0  0  0  0  0  0  0  0  0  0  0
   39.0520   28.0350   44.5030 H   0  0  0  0  0  0  0  0  0  0  0  0
   40.4210   26.5220   43.8070 C   0  0  0  0  0  0  0  0  0  0  0  0
   41.5370   26.9010   44.5320 C   0  0  0  0  0  3  0  0  0  0  0  0
   42.7990   26.3860   44.3290 C   0  0  0  0  0  0  0  0  0  0  0  0
   43.6550   26.6920   44.9030 H   0  0  0  0  0  0  0  0  0  0  0  0
   42.9490   25.4500   43.3530 N   0  0  0  0  0  0  0  0  0  0  0  0
   41.8730   25.0570   42.6230 C   0  0  0  0  0  3  0  0  0  0  0  0
   40.6600   25.5830   42.8520 N   0  0  0  0  0  0  0  0  0  0  0  0
  1  7  1  0  0  0  0
  1  2  1  0  0  0  0
  2 20  1  0  0  0  0
  3  2  2  0  0  0  0
  3  8  1  0  0  0  0
  4  3  1  0  0  0  0
  5  6  1  0  0  0  0
  5  4  2  0  0  0  0
  6  1  2  0  0  0  0
 10  9  1  0  0  0  0
 11 10  1  0  0  0  0
 11  5  1  0  0  0  0
 12 11  2  0  0  0  0
 13 14  2  0  0  0  0
 13 12  1  0  0  0  0
 14 15  1  0  0  0  0
 15 19  1  0  0  0  0
 15 10  2  0  0  0  0
 16 12  1  0  0  0  0
 17 13  1  0  0  0  0
 18 14  1  0  0  0  0
 20 21  2  0  0  0  0
 21 22  1  0  0  0  0
 22 24  1  0  0  0  0
 22 23  1  0  0  0  0
 25 22  1  0  0  0  0
 25 26  1  0  0  0  0
 27 26  2  0  0  0  0
 27 28  1  0  0  0  0
 29 27  1  0  0  0  0
 30 31  1  0  0  0  0
 30 29  2  0  0  0  0
 31 25  2  0  0  0  0
M  END
>  <minimizedAffinity>
-5.16318941

$$$$

 OpenBabel03252501493D

 31 33  0  0  0  0  0  0  0  0999 V2000
   37.9160   27.9990   40.2030 C   0  0  0  0  0  0  0  0  0  0  0  0
   37.3880   27.5920   41.4540 C   0  0  0  0  0  0  0  0  0  0  0  0
   37.0460   28.5680   42.3910 C   0  0  0  0  0  0  0  0  0  0  0  0
   37.2360   29.8760   42.0540 N   0  0  0  0  0  0  0  0  0  0  0  0
   37.7390   30.2210   40.8560 C   0  0  0  0  0  0  0  0  0  0  0  0
   38.0710   29.2930   39.9490 N   0  0  0  0  0  0  0  0  0  0  0  0
   38.1880   27.2490   39.4630 H   0  0  0  0  0  0  0  0  0  0  0  0
   36.6380   28.2850   43.3600 H   0  0  0  0  0  0  0  0  0  0  0  0
   39.8410   31.6630   41.9460 F   0  0  0  0  0  0  0  0  0  0  0  0
   38.9930   32.3350   41.1230 C   0  0  0  0  0  0  0  0  0  0  0  0
   37.9190   31.6420   40.5550 C   0  0  0  0  0  0  0  0  0  0  0  0
   37.0220   32.2550   39.7150 C   0  0  0  0  0  0  0  0  0  0  0  0
   37.2190   33.6080   39.4460 C   0  0  0  0  0  0  0  0  0  0  0  0
   38.2940   34.3230   40.0090 C   0  0  0  0  0  0  0  0  0  0  0  0
   39.1860   33.6740   40.8550 C   0  0  0  0  0  0  0  0  0  0  0  0
   36.1930   31.7390   39.2700 H   0  0  0  0  0  0  0  0  0  0  0  0
   36.5260   34.1150   38.7870 H   0  0  0  0  0  0  0  0  0  0  0  0
   38.4320   35.3810   39.7880 H   0  0  0  0  0  0  0  0  0  0  0  0
   40.0220   34.1820   41.3090 H   0  0  0  0  0  0  0  0  0  0  0  0
   37.2100   26.1620   41.7480 C   0  0  0  0  0  3  0  0  0  0  0  0
   37.8910   25.1900   41.1670 C   0  0  0  0  0  3  0  0  0  0  0  0
   37.6220   23.7600   41.5500 C   0  0  0  0  0  0  0  0  0  0  0  0
   36.6430   23.8040   42.1100 H   0  0  0  0  0  0  0  0  0  0  0  0
   38.4290   23.4020   42.2270 H   0  0  0  0  0  0  0  0  0  0  0  0
   37.4330   22.8820   40.3880 C   0  0  0  0  0  0  0  0  0  0  0  0
   36.5150   23.0760   39.3710 C   0  0  0  0  0  3  0  0  0  0  0  0
   36.3660   22.2280   38.2950 C   0  0  0  0  0  0  0  0  0  0  0  0
   35.6470   22.3960   37.5130 H   0  0  0  0  0  0  0  0  0  0  0  0
   37.1730   21.1340   38.2370 N   0  0  0  0  0  0  0  0  0  0  0  0
   38.0840   20.9150   39.2200 C   0  0  0  0  0  3  0  0  0  0  0  0
   38.1980   21.7650   40.2520 N   0  0  0  0  0  0  0  0  0  0  0  0
  1  2  1  0  0  0  0
  2 20  1  0  0  0  0
  2  3  2  0  0  0  0
  3  8  1  0  0  0  0
  4  3  1  0  0  0  0
  5  4  2  0  0  0  0
  6  1  2  0  0  0  0
  6  5  1  0  0  0  0
  7  1  1  0  0  0  0
 10  9  1  0  0  0  0
 11  5  1  0  0  0  0
 11 10  2  0  0  0  0
 12 11  1  0  0  0  0
 13 12  2  0  0  0  0
 13 14  1  0  0  0  0
 14 15  2  0  0  0  0
 15 10  1  0  0  0  0
 15 19  1  0  0  0  0
 16 12  1  0  0  0  0
 17 13  1  0  0  0  0
 18 14  1  0  0  0  0
 21 22  1  0  0  0  0
 21 20  2  0  0  0  0
 22 23  1  0  0  0  0
 22 24  1  0  0  0  0
 25 22  1  0  0  0  0
 26 25  2  0  0  0  0
 27 26  1  0  0  0  0
 28 27  1  0  0  0  0
 29 27  2  0  0  0  0
 29 30  1  0  0  0  0
 30 31  2  0  0  0  0
 31 25  1  0  0  0  0
M  END
>  <minimizedAffinity>
-5.14382029

$$$$

 OpenBabel03252501493D

 31 33  0  0  0  0  0  0  0  0999 V2000
   36.5910   27.1240   40.0910 C   0  0  0  0  0  0  0  0  0  0  0  0
   36.5690   28.0800   41.1370 C   0  0  0  0  0  0  0  0  0  0  0  0
   35.8670   29.2710   40.9480 C   0  0  0  0  0  0  0  0  0  0  0  0
   35.2290   29.4570   39.7560 N   0  0  0  0  0  0  0  0  0  0  0  0
   35.2740   28.5260   38.7880 C   0  0  0  0  0  0  0  0  0  0  0  0
   35.9450   27.3790   38.9590 N   0  0  0  0  0  0  0  0  0  0  0  0
   37.1350   26.1920   40.2230 H   0  0  0  0  0  0  0  0  0  0  0  0
   35.8320   30.0230   41.7330 H   0  0  0  0  0  0  0  0  0  0  0  0
   36.6620   28.9430   36.4250 F   0  0  0  0  0  0  0  0  0  0  0  0
   35.3050   28.9900   36.3600 C   0  0  0  0  0  0  0  0  0  0  0  0
   34.5700   28.7860   37.5330 C   0  0  0  0  0  0  0  0  0  0  0  0
   33.1970   28.8200   37.5430 C   0  0  0  0  0  0  0  0  0  0  0  0
   32.5530   29.0700   36.3320 C   0  0  0  0  0  0  0  0  0  0  0  0
   33.2770   29.2790   35.1420 C   0  0  0  0  0  0  0  0  0  0  0  0
   34.6660   29.2370   35.1640 C   0  0  0  0  0  0  0  0  0  0  0  0
   32.6160   28.6650   38.4330 H   0  0  0  0  0  0  0  0  0  0  0  0
   31.4710   29.1020   36.3130 H   0  0  0  0  0  0  0  0  0  0  0  0
   32.7570   29.4730   34.2040 H   0  0  0  0  0  0  0  0  0  0  0  0
   35.2600   29.3920   34.2760 H   0  0  0  0  0  0  0  0  0  0  0  0
   37.2800   27.8100   42.3960 C   0  0  0  0  0  3  0  0  0  0  0  0
   38.4350   27.1720   42.4800 C   0  0  0  0  0  3  0  0  0  0  0  0
   39.0690   26.9530   43.8270 C   0  0  0  0  0  0  0  0  0  0  0  0
   38.4480   26.1350   44.2940 H   0  0  0  0  0  0  0  0  0  0  0  0
   38.9830   27.8850   44.4300 H   0  0  0  0  0  0  0  0  0  0  0  0
   40.4510   26.4680   43.7370 C   0  0  0  0  0  0  0  0  0  0  0  0
   40.9240   25.5430   42.8220 C   0  0  0  0  0  3  0  0  0  0  0  0
   42.2310   25.1110   42.7680 C   0  0  0  0  0  0  0  0  0  0  0  0
   42.5800   24.3910   42.0490 H   0  0  0  0  0  0  0  0  0  0  0  0
   43.1050   25.6290   43.6740 N   0  0  0  0  0  0  0  0  0  0  0  0
   42.6720   26.5390   44.5840 C   0  0  0  0  0  3  0  0  0  0  0  0
   41.3900   26.9340   44.6040 N   0  0  0  0  0  0  0  0  0  0  0  0
  1  7  1  0  0  0  0
  1  2  1  0  0  0  0
  2 20  1  0  0  0  0
  3  2  2  0  0  0  0
  3  8  1  0  0  0  0
  4  3  1  0  0  0  0
  5  6  1  0  0  0  0
  5  4  2  0  0  0  0
  6  1  2  0  0  0  0
 10  9  1  0  0  0  0
 10 11  1  0  0  0  0
 11 12  2  0  0  0  0
 11  5  1  0  0  0  0
 12 16  1  0  0  0  0
 13 12  1  0  0  0  0
 14 15  1  0  0  0  0
 14 13  2  0  0  0  0
 15 10  2  0  0  0  0
 17 13  1  0  0  0  0
 18 14  1  0  0  0  0
 19 15  1  0  0  0  0
 20 21  2  0  0  0  0
 21 22  1  0  0  0  0
 22 23  1  0  0  0  0
 22 24  1  0  0  0  0
 25 22  1  0  0  0  0
 25 31  1  0  0  0  0
 26 25  2  0  0  0  0
 27 26  1  0  0  0  0
 27 29  2  0  0  0  0
 28 27  1  0  0  0  0
 29 30  1  0  0  0  0
 30 31  2  0  0  0  0
M  END
>  <minimizedAffinity>
-5.10375023

$$$$
