
 OpenBabel03252504263D

 20 21  0  0  0  0  0  0  0  0999 V2000
   43.7620   35.4000   41.5260 C   0  0  0  0  0  0  0  0  0  0  0  0
   43.9910   34.6110   40.7510 H   0  0  0  0  0  0  0  0  0  0  0  0
   44.3640   36.2710   41.1710 H   0  0  0  0  0  0  0  0  0  0  0  0
   44.2770   35.7720   43.8470 C   0  0  0  0  0  0  0  0  0  0  0  0
   44.3310   34.9000   42.7790 C   0  0  0  0  0  0  0  0  0  0  0  0
   44.9080   33.6660   42.9930 C   0  0  0  0  0  0  0  0  0  0  0  0
   45.3810   33.3850   44.2210 N   0  0  0  0  0  0  0  0  0  0  0  0
   45.3200   34.2510   45.2580 C   0  0  0  0  0  0  0  0  0  0  0  0
   44.7620   35.4760   45.0970 N   0  0  0  0  0  0  0  0  0  0  0  0
   43.8490   36.7660   43.8000 H   0  0  0  0  0  0  0  0  0  0  0  0
   44.9420   33.0040   42.1580 H   0  0  0  0  0  0  0  0  0  0  0  0
   45.7620   33.8010   46.1390 H   0  0  0  0  0  0  0  0  0  0  0  0
   42.4010   35.6520   41.5830 O   0  0  0  0  0  0  0  0  0  0  0  0
   41.6010   35.3380   40.4920 C   0  0  0  0  0  0  0  0  0  0  0  0
   40.2360   35.1800   40.7420 C   0  0  0  0  0  0  0  0  0  0  0  0
   39.3850   34.8640   39.6830 C   0  0  0  0  0  0  0  0  0  0  0  0
   38.3260   34.7250   39.7800 H   0  0  0  0  0  0  0  0  0  0  0  0
   39.8790   34.7140   38.4410 N   0  0  0  0  0  0  0  0  0  0  0  0
   41.1790   34.8680   38.2240 C   0  0  0  0  0  0  0  0  0  0  0  0
   42.0510   35.1770   39.2270 N   0  0  0  0  0  0  0  0  0  0  0  0
  1 13  1  0  0  0  0
  1  5  1  0  0  0  0
  2  1  1  0  0  0  0
  3  1  1  0  0  0  0
  4  9  1  0  0  0  0
  5  6  1  0  0  0  0
  5  4  2  0  0  0  0
  6  7  2  0  0  0  0
  7  8  1  0  0  0  0
  8 12  1  0  0  0  0
  9  8  2  0  0  0  0
 10  4  1  0  0  0  0
 11  6  1  0  0  0  0
 14 15  1  0  0  0  0
 14 13  1  0  0  0  0
 16 17  1  0  0  0  0
 16 15  2  0  0  0  0
 18 16  1  0  0  0  0
 19 18  2  0  0  0  0
 19 20  1  0  0  0  0
 20 14  2  0  0  0  0
M  END
>  <minimizedAffinity>
-4.19807291

>  <minimizedRMSD>
1.38345039

$$$$
