
 OpenBabel03252509043D

 46 48  0  0  1  0  0  0  0  0999 V2000
   47.0510   34.3570   43.2230 N   0  0  0  0  0  0  0  0  0  0  0  0
   46.6890   34.8470   41.9440 C   0  0  0  0  0  0  0  0  0  0  0  0
   45.2530   34.5930   41.5390 C   0  0  0  0  0  0  0  0  0  0  0  0
   44.2720   34.5770   42.6860 C   0  0  0  0  0  0  0  0  0  0  0  0
   44.9390   34.9500   43.9890 C   0  0  0  0  0  0  0  0  0  0  0  0
   46.1040   33.8930   44.1130 C   0  0  2  0  0  0  0  0  0  0  0  0
   46.8050   35.9680   41.9860 H   0  0  0  0  0  0  0  0  0  0  0  0
   47.3100   34.5360   41.0980 H   0  0  0  0  0  0  0  0  0  0  0  0
   45.2000   33.6460   40.9380 H   0  0  0  0  0  0  0  0  0  0  0  0
   44.9130   35.4020   40.8450 H   0  0  0  0  0  0  0  0  0  0  0  0
   43.3410   35.1290   42.4810 H   0  0  0  0  0  0  0  0  0  0  0  0
   43.9630   33.5010   42.8180 H   0  0  0  0  0  0  0  0  0  0  0  0
   45.3750   35.9530   43.9850 H   0  0  0  0  0  0  0  0  0  0  0  0
   44.2040   34.7680   44.7960 H   0  0  0  0  0  0  0  0  0  0  0  0
   45.6310   32.9070   43.9270 H   0  0  0  0  0  0  0  0  0  0  0  0
   48.3820   33.7880   43.2790 C   0  0  0  0  0  0  0  0  0  0  0  0
   48.9940   34.3700   42.5570 H   0  0  0  0  0  0  0  0  0  0  0  0
   48.8580   33.9580   44.2780 H   0  0  0  0  0  0  0  0  0  0  0  0
   48.3060   32.3640   42.8790 C   0  0  0  0  0  0  0  0  0  0  0  0
   48.4890   31.7070   43.7320 H   0  0  0  0  0  0  0  0  0  0  0  0
   47.2630   32.0930   42.5310 H   0  0  0  0  0  0  0  0  0  0  0  0
   51.5570   31.8860   41.0370 C   0  0  0  0  0  0  0  0  0  0  0  0
   50.6090   32.1200   42.0540 C   0  0  0  0  0  0  0  0  0  0  0  0
   49.2770   32.1120   41.7850 C   0  0  0  0  0  0  0  0  0  0  0  0
   48.9160   31.8740   40.5220 N   0  0  0  0  0  0  0  0  0  0  0  0
   49.7970   31.6480   39.5360 C   0  0  0  0  0  0  0  0  0  0  0  0
   51.1200   31.6500   39.7730 N   0  0  0  0  0  0  0  0  0  0  0  0
   52.6050   31.8830   41.2070 H   0  0  0  0  0  0  0  0  0  0  0  0
   51.0750   32.2920   43.0080 H   0  0  0  0  0  0  0  0  0  0  0  0
   49.3610   31.4680   38.5560 H   0  0  0  0  0  0  0  0  0  0  0  0
   46.4830   34.0610   45.4240 O   0  0  0  0  0  0  0  0  0  0  0  0
   45.8700   31.4620   45.5030 O   0  0  0  0  0  0  0  0  0  0  0  0
   46.2610   32.6930   46.3550 P   0  0  2  0  0  0  0  0  0  0  0  0
   44.8500   32.9740   47.3070 O   0  0  0  0  0  0  0  0  0  0  0  0
   44.9440   33.8920   47.6810 H   0  0  0  0  0  0  0  0  0  0  0  0
   47.4960   32.3400   47.3910 O   0  0  0  0  0  0  0  0  0  0  0  0
   47.6700   30.9860   47.5140 C   0  0  0  0  0  0  0  0  0  0  0  0
   47.8700   30.6210   46.4560 H   0  0  0  0  0  0  0  0  0  0  0  0
   46.6410   30.5570   47.7100 H   0  0  0  0  0  0  0  0  0  0  0  0
   48.6660   30.5050   48.4570 C   0  0  0  0  0  0  0  0  0  0  0  0
   49.1030   31.5540   49.2750 C   0  0  0  0  0  3  0  0  0  0  0  0
   50.0320   31.2400   50.2740 C   0  0  0  0  0  0  0  0  0  0  0  0
   50.4330   31.9960   50.9670 H   0  0  0  0  0  0  0  0  0  0  0  0
   50.5080   29.9980   50.4730 N   0  0  0  0  0  0  0  0  0  0  0  0
   50.0570   29.0260   49.6600 C   0  0  0  0  0  3  0  0  0  0  0  0
   49.1650   29.2580   48.6810 N   0  0  0  0  0  0  0  0  0  0  0  0
  1 16  1  0  0  0  0
  1  6  1  0  0  0  0
  2  7  1  0  0  0  0
  2  1  1  0  0  0  0
  3  2  1  0  0  0  0
  3  4  1  0  0  0  0
  4 12  1  0  0  0  0
  4  5  1  0  0  0  0
  5  6  1  0  0  0  0
  5 14  1  0  0  0  0
  6 15  1  6  0  0  0
  6 31  1  0  0  0  0
  8  2  1  0  0  0  0
  9  3  1  0  0  0  0
 10  3  1  0  0  0  0
 11  4  1  0  0  0  0
 13  5  1  0  0  0  0
 16 18  1  0  0  0  0
 17 16  1  0  0  0  0
 19 16  1  0  0  0  0
 19 20  1  0  0  0  0
 21 19  1  0  0  0  0
 22 28  1  0  0  0  0
 22 23  1  0  0  0  0
 23 29  1  0  0  0  0
 24 23  2  0  0  0  0
 24 19  1  0  0  0  0
 25 24  1  0  0  0  0
 26 27  1  0  0  0  0
 26 25  2  0  0  0  0
 27 22  2  0  0  0  0
 30 26  1  0  0  0  0
 31 33  1  0  0  0  0
 33 32  2  6  0  0  0
 33 34  1  0  0  0  0
 33 36  1  0  0  0  0
 34 35  1  0  0  0  0
 36 37  1  0  0  0  0
 37 39  1  0  0  0  0
 37 40  1  0  0  0  0
 38 37  1  0  0  0  0
 40 46  2  0  0  0  0
 40 41  1  0  0  0  0
 41 42  2  0  0  0  0
 42 44  1  0  0  0  0
 42 43  1  0  0  0  0
 45 44  2  0  0  0  0
 46 45  1  0  0  0  0
M  END
>  <minimizedAffinity>
-4.91727352

>  <minimizedRMSD>
4.13524151

$$$$
