
 OpenBabel03242519333D

 46 49  0  0  0  0  0  0  0  0999 V2000
   40.8120   34.1800   39.2350 C   0  0  0  0  0  0  0  0  0  0  0  0
   40.2770   35.2010   40.0770 C   0  0  0  0  0  0  0  0  0  0  0  0
   38.9800   35.0720   40.5950 C   0  0  0  0  0  0  0  0  0  0  0  0
   38.2930   33.9400   40.2510 N   0  0  0  0  0  0  0  0  0  0  0  0
   38.8480   32.9830   39.4370 C   0  0  0  0  0  0  0  0  0  0  0  0
   40.0760   33.1130   38.9500 N   0  0  0  0  0  0  0  0  0  0  0  0
   40.7700   36.1150   40.3820 H   0  0  0  0  0  0  0  0  0  0  0  0
   38.5420   35.8050   41.2250 H   0  0  0  0  0  0  0  0  0  0  0  0
   42.1710   34.4430   38.7600 C   0  0  0  0  0  0  0  0  0  0  0  0
   42.4660   33.9310   37.4450 C   0  0  0  0  0  0  0  0  0  0  0  0
   43.4640   32.8430   37.4110 C   0  0  0  0  0  0  0  0  0  0  0  0
   44.7580   33.2540   38.1130 C   0  0  0  0  0  0  0  0  0  0  0  0
   44.5460   34.0210   39.3740 C   0  0  0  0  0  0  0  0  0  0  0  0
   43.1140   33.8730   39.8740 C   0  0  0  0  0  0  0  0  0  0  0  0
   42.3830   35.5450   38.8360 H   0  0  0  0  0  0  0  0  0  0  0  0
   42.8310   34.7410   36.7460 H   0  0  0  0  0  0  0  0  0  0  0  0
   41.5400   33.5400   36.9540 H   0  0  0  0  0  0  0  0  0  0  0  0
   43.1550   31.8580   37.7510 H   0  0  0  0  0  0  0  0  0  0  0  0
   43.7700   32.7060   36.3330 H   0  0  0  0  0  0  0  0  0  0  0  0
   45.2750   32.3100   38.3850 H   0  0  0  0  0  0  0  0  0  0  0  0
   45.4440   33.7900   37.4120 H   0  0  0  0  0  0  0  0  0  0  0  0
   44.6480   35.1160   39.1250 H   0  0  0  0  0  0  0  0  0  0  0  0
   45.2300   33.7990   40.1920 H   0  0  0  0  0  0  0  0  0  0  0  0
   42.9700   34.5050   40.7590 H   0  0  0  0  0  0  0  0  0  0  0  0
   42.8510   32.8130   40.0730 H   0  0  0  0  0  0  0  0  0  0  0  0
   37.9620   31.8560   39.1740 C   0  0  0  0  0  0  0  0  0  0  0  0
   38.1220   31.1420   38.0500 N   0  0  0  0  0  0  0  0  0  0  0  0
   37.1930   30.1500   38.0160 C   0  0  0  0  0  0  0  0  0  0  0  0
   36.4600   30.2680   39.1420 N   0  0  0  0  0  0  0  0  0  0  0  0
   36.9170   31.3010   39.8530 N   0  0  0  0  0  0  0  0  0  0  0  0
   37.0550   29.4080   37.2500 H   0  0  0  0  0  0  0  0  0  0  0  0
   35.3700   29.4260   39.5670 C   0  0  0  0  0  0  0  0  0  0  0  0
   34.4510   30.0470   39.6500 H   0  0  0  0  0  0  0  0  0  0  0  0
   35.1330   28.6170   38.8920 H   0  0  0  0  0  0  0  0  0  0  0  0
   35.6550   28.9030   40.9050 C   0  0  0  0  0  3  0  0  0  0  0  0
   36.4820   27.9770   41.3800 C   0  0  0  0  0  3  0  0  0  0  0  0
   36.6880   27.6230   42.8670 C   0  0  0  0  0  0  0  0  0  0  0  0
   35.7420   27.2110   43.2530 H   0  0  0  0  0  0  0  0  0  0  0  0
   36.9550   28.5740   43.3590 H   0  0  0  0  0  0  0  0  0  0  0  0
   37.8290   26.6890   42.9790 C   0  0  0  0  0  0  0  0  0  0  0  0
   38.9720   26.9870   43.6910 C   0  0  0  0  0  3  0  0  0  0  0  0
   39.9490   25.9970   43.6940 C   0  0  0  0  0  0  0  0  0  0  0  0
   40.8570   26.2080   44.2470 H   0  0  0  0  0  0  0  0  0  0  0  0
   39.7890   24.8220   43.0460 N   0  0  0  0  0  0  0  0  0  0  0  0
   38.6760   24.5660   42.3690 C   0  0  0  0  0  3  0  0  0  0  0  0
   37.7090   25.4910   42.3380 N   0  0  0  0  0  0  0  0  0  0  0  0
  1  2  1  0  0  0  0
  2  7  1  0  0  0  0
  2  3  2  0  0  0  0
  3  8  1  0  0  0  0
  4  3  1  0  0  0  0
  5  4  2  0  0  0  0
  6  1  2  0  0  0  0
  6  5  1  0  0  0  0
  9 15  1  0  0  0  0
  9  1  1  0  0  0  0
  9 14  1  0  0  0  0
 10  9  1  0  0  0  0
 11 10  1  0  0  0  0
 11 18  1  0  0  0  0
 11 12  1  0  0  0  0
 12 20  1  0  0  0  0
 12 13  1  0  0  0  0
 13 14  1  0  0  0  0
 13 23  1  0  0  0  0
 14 25  1  0  0  0  0
 14 24  1  0  0  0  0
 16 10  1  0  0  0  0
 17 10  1  0  0  0  0
 19 11  1  0  0  0  0
 21 12  1  0  0  0  0
 22 13  1  0  0  0  0
 26  5  1  0  0  0  0
 26 30  2  0  0  0  0
 27 26  1  0  0  0  0
 28 27  2  0  0  0  0
 28 29  1  0  0  0  0
 29 32  1  0  0  0  0
 29 30  1  0  0  0  0
 31 28  1  0  0  0  0
 32 33  1  0  0  0  0
 32 35  1  0  0  0  0
 34 32  1  0  0  0  0
 35 36  2  0  0  0  0
 36 37  1  0  0  0  0
 37 40  1  0  0  0  0
 37 38  1  0  0  0  0
 37 39  1  0  0  0  0
 40 41  1  0  0  0  0
 41 42  2  0  0  0  0
 42 43  1  0  0  0  0
 44 42  1  0  0  0  0
 45 44  2  0  0  0  0
 46 45  1  0  0  0  0
 46 40  2  0  0  0  0
M  END
>  <minimizedAffinity>
-6.2992239

$$$$

 OpenBabel03242519333D

 46 49  0  0  0  0  0  0  0  0999 V2000
   37.0750   26.5380   42.1140 C   0  0  0  0  0  0  0  0  0  0  0  0
   37.1950   26.8400   43.5040 C   0  0  0  0  0  0  0  0  0  0  0  0
   37.3320   28.1730   43.9200 C   0  0  0  0  0  0  0  0  0  0  0  0
   37.3400   29.1240   42.9370 N   0  0  0  0  0  0  0  0  0  0  0  0
   37.2230   28.7870   41.6110 C   0  0  0  0  0  0  0  0  0  0  0  0
   37.0940   27.5240   41.2250 N   0  0  0  0  0  0  0  0  0  0  0  0
   37.1940   26.1340   44.3240 H   0  0  0  0  0  0  0  0  0  0  0  0
   37.4230   28.4440   44.9420 H   0  0  0  0  0  0  0  0  0  0  0  0
   36.9430   25.1110   41.8180 C   0  0  0  0  0  0  0  0  0  0  0  0
   38.0850   24.3060   42.1790 C   0  0  0  0  0  0  0  0  0  0  0  0
   38.8130   23.7150   41.0380 C   0  0  0  0  0  0  0  0  0  0  0  0
   37.8740   22.9140   40.1360 C   0  0  0  0  0  0  0  0  0  0  0  0
   36.5510   23.5640   39.9090 C   0  0  0  0  0  0  0  0  0  0  0  0
   36.5890   25.0370   40.2950 C   0  0  0  0  0  0  0  0  0  0  0  0
   35.9960   24.7230   42.2830 H   0  0  0  0  0  0  0  0  0  0  0  0
   37.8050   23.4590   42.8730 H   0  0  0  0  0  0  0  0  0  0  0  0
   38.8260   24.9080   42.7630 H   0  0  0  0  0  0  0  0  0  0  0  0
   39.4360   24.3710   40.4360 H   0  0  0  0  0  0  0  0  0  0  0  0
   39.5150   22.9370   41.4590 H   0  0  0  0  0  0  0  0  0  0  0  0
   38.3800   22.8440   39.1500 H   0  0  0  0  0  0  0  0  0  0  0  0
   37.7640   21.8630   40.5000 H   0  0  0  0  0  0  0  0  0  0  0  0
   35.8190   23.0990   40.6300 H   0  0  0  0  0  0  0  0  0  0  0  0
   36.1370   23.4710   38.9060 H   0  0  0  0  0  0  0  0  0  0  0  0
   35.5850   25.4680   40.1850 H   0  0  0  0  0  0  0  0  0  0  0  0
   37.3480   25.6000   39.7120 H   0  0  0  0  0  0  0  0  0  0  0  0
   37.2630   29.9330   40.7130 C   0  0  0  0  0  0  0  0  0  0  0  0
   37.2820   29.7300   39.3870 N   0  0  0  0  0  0  0  0  0  0  0  0
   37.3190   30.9300   38.7510 C   0  0  0  0  0  0  0  0  0  0  0  0
   37.3220   31.8770   39.7130 N   0  0  0  0  0  0  0  0  0  0  0  0
   37.2900   31.2830   40.9080 N   0  0  0  0  0  0  0  0  0  0  0  0
   37.3420   31.1100   37.6910 H   0  0  0  0  0  0  0  0  0  0  0  0
   37.3310   33.3060   39.5310 C   0  0  0  0  0  0  0  0  0  0  0  0
   37.3160   33.5270   38.4410 H   0  0  0  0  0  0  0  0  0  0  0  0
   36.4830   33.8220   39.9590 H   0  0  0  0  0  0  0  0  0  0  0  0
   38.5800   33.8560   40.0630 C   0  0  0  0  0  3  0  0  0  0  0  0
   39.1270   35.0670   40.0760 C   0  0  0  0  0  3  0  0  0  0  0  0
   40.4460   35.4580   40.7730 C   0  0  0  0  0  0  0  0  0  0  0  0
   40.3770   35.1500   41.8280 H   0  0  0  0  0  0  0  0  0  0  0  0
   40.5160   36.5550   40.6680 H   0  0  0  0  0  0  0  0  0  0  0  0
   41.5710   34.8330   40.0450 C   0  0  0  0  0  0  0  0  0  0  0  0
   42.5550   34.1010   40.6760 C   0  0  0  0  0  3  0  0  0  0  0  0
   43.5410   33.5830   39.8430 C   0  0  0  0  0  0  0  0  0  0  0  0
   44.3260   33.0040   40.3150 H   0  0  0  0  0  0  0  0  0  0  0  0
   43.5340   33.7810   38.5060 N   0  0  0  0  0  0  0  0  0  0  0  0
   42.5720   34.4910   37.9290 C   0  0  0  0  0  3  0  0  0  0  0  0
   41.6030   35.0100   38.6930 N   0  0  0  0  0  0  0  0  0  0  0  0
  1  2  1  0  0  0  0
  2  3  2  0  0  0  0
  2  7  1  0  0  0  0
  3  8  1  0  0  0  0
  4  3  1  0  0  0  0
  5  4  2  0  0  0  0
  6  5  1  0  0  0  0
  6  1  2  0  0  0  0
  9  1  1  0  0  0  0
  9 10  1  0  0  0  0
  9 15  1  0  0  0  0
 10 17  1  0  0  0  0
 10 16  1  0  0  0  0
 11 19  1  0  0  0  0
 11 10  1  0  0  0  0
 12 21  1  0  0  0  0
 12 11  1  0  0  0  0
 13 12  1  0  0  0  0
 13 14  1  0  0  0  0
 13 22  1  0  0  0  0
 14  9  1  0  0  0  0
 18 11  1  0  0  0  0
 20 12  1  0  0  0  0
 23 13  1  0  0  0  0
 24 14  1  0  0  0  0
 25 14  1  0  0  0  0
 26 30  2  0  0  0  0
 26  5  1  0  0  0  0
 27 26  1  0  0  0  0
 28 27  2  0  0  0  0
 28 29  1  0  0  0  0
 29 30  1  0  0  0  0
 31 28  1  0  0  0  0
 32 29  1  0  0  0  0
 32 34  1  0  0  0  0
 32 35  1  0  0  0  0
 33 32  1  0  0  0  0
 35 36  2  0  0  0  0
 36 37  1  0  0  0  0
 37 38  1  0  0  0  0
 39 37  1  0  0  0  0
 40 41  1  0  0  0  0
 40 37  1  0  0  0  0
 42 43  1  0  0  0  0
 42 41  2  0  0  0  0
 44 42  1  0  0  0  0
 45 44  2  0  0  0  0
 45 46  1  0  0  0  0
 46 40  2  0  0  0  0
M  END
>  <minimizedAffinity>
-6.28611517

$$$$

 OpenBabel03242519333D

 46 49  0  0  0  0  0  0  0  0999 V2000
   37.4620   28.6140   42.0080 C   0  0  0  0  0  0  0  0  0  0  0  0
   36.2020   28.2190   41.4670 C   0  0  0  0  0  0  0  0  0  0  0  0
   35.4720   29.1140   40.6710 C   0  0  0  0  0  0  0  0  0  0  0  0
   36.0350   30.3420   40.4580 N   0  0  0  0  0  0  0  0  0  0  0  0
   37.2500   30.6790   40.9990 C   0  0  0  0  0  0  0  0  0  0  0  0
   37.9360   29.8270   41.7510 N   0  0  0  0  0  0  0  0  0  0  0  0
   35.7090   27.2650   41.6020 H   0  0  0  0  0  0  0  0  0  0  0  0
   34.5320   28.8640   40.2480 H   0  0  0  0  0  0  0  0  0  0  0  0
   38.1150   27.5880   42.8230 C   0  0  0  0  0  0  0  0  0  0  0  0
   39.4420   27.9230   43.2760 C   0  0  0  0  0  0  0  0  0  0  0  0
   40.5220   27.0960   42.7020 C   0  0  0  0  0  0  0  0  0  0  0  0
   40.2580   25.6060   42.9220 C   0  0  0  0  0  0  0  0  0  0  0  0
   38.8350   25.2080   42.7170 C   0  0  0  0  0  0  0  0  0  0  0  0
   38.0670   26.2820   41.9590 C   0  0  0  0  0  0  0  0  0  0  0  0
   37.4400   27.3100   43.6780 H   0  0  0  0  0  0  0  0  0  0  0  0
   39.5350   27.8610   44.4010 H   0  0  0  0  0  0  0  0  0  0  0  0
   39.6860   28.9890   43.0380 H   0  0  0  0  0  0  0  0  0  0  0  0
   40.8060   27.2740   41.6680 H   0  0  0  0  0  0  0  0  0  0  0  0
   41.4550   27.2990   43.3070 H   0  0  0  0  0  0  0  0  0  0  0  0
   40.8630   25.0710   42.1610 H   0  0  0  0  0  0  0  0  0  0  0  0
   40.6440   25.2710   43.9150 H   0  0  0  0  0  0  0  0  0  0  0  0
   38.3460   25.1710   43.7320 H   0  0  0  0  0  0  0  0  0  0  0  0
   38.6720   24.2460   42.2310 H   0  0  0  0  0  0  0  0  0  0  0  0
   37.0110   25.9930   41.8880 H   0  0  0  0  0  0  0  0  0  0  0  0
   38.5100   26.4840   40.9610 H   0  0  0  0  0  0  0  0  0  0  0  0
   37.6810   32.0320   40.6690 C   0  0  0  0  0  0  0  0  0  0  0  0
   37.0080   32.7280   39.7400 N   0  0  0  0  0  0  0  0  0  0  0  0
   37.5820   33.9520   39.5970 C   0  0  0  0  0  0  0  0  0  0  0  0
   38.6200   33.9950   40.4570 N   0  0  0  0  0  0  0  0  0  0  0  0
   38.6910   32.8340   41.1130 N   0  0  0  0  0  0  0  0  0  0  0  0
   37.2810   34.7430   38.9340 H   0  0  0  0  0  0  0  0  0  0  0  0
   39.5180   35.0980   40.6880 C   0  0  0  0  0  0  0  0  0  0  0  0
   38.9410   36.0470   40.6260 H   0  0  0  0  0  0  0  0  0  0  0  0
   39.9990   35.0960   41.6560 H   0  0  0  0  0  0  0  0  0  0  0  0
   40.5220   35.1370   39.6230 C   0  0  0  0  0  3  0  0  0  0  0  0
   41.5720   34.3820   39.3120 C   0  0  0  0  0  3  0  0  0  0  0  0
   42.4760   34.5540   38.0750 C   0  0  0  0  0  0  0  0  0  0  0  0
   43.3640   35.1320   38.3790 H   0  0  0  0  0  0  0  0  0  0  0  0
   41.8620   35.1010   37.3380 H   0  0  0  0  0  0  0  0  0  0  0  0
   42.7980   33.2170   37.5320 C   0  0  0  0  0  0  0  0  0  0  0  0
   41.8310   32.2840   37.2190 C   0  0  0  0  0  3  0  0  0  0  0  0
   42.3060   31.0760   36.7200 C   0  0  0  0  0  0  0  0  0  0  0  0
   41.5650   30.3270   36.4670 H   0  0  0  0  0  0  0  0  0  0  0  0
   43.6240   30.8330   36.5510 N   0  0  0  0  0  0  0  0  0  0  0  0
   44.5310   31.7520   36.8620 C   0  0  0  0  0  3  0  0  0  0  0  0
   44.1190   32.9290   37.3470 N   0  0  0  0  0  0  0  0  0  0  0  0
  1  9  1  0  0  0  0
  2  7  1  0  0  0  0
  2  1  2  0  0  0  0
  3  2  1  0  0  0  0
  4  3  2  0  0  0  0
  4  5  1  0  0  0  0
  5  6  2  0  0  0  0
  6  1  1  0  0  0  0
  8  3  1  0  0  0  0
  9 10  1  0  0  0  0
  9 15  1  0  0  0  0
 10 16  1  0  0  0  0
 11 12  1  0  0  0  0
 11 10  1  0  0  0  0
 11 19  1  0  0  0  0
 12 21  1  0  0  0  0
 13 12  1  0  0  0  0
 13 22  1  0  0  0  0
 14 13  1  0  0  0  0
 14  9  1  0  0  0  0
 17 10  1  0  0  0  0
 18 11  1  0  0  0  0
 20 12  1  0  0  0  0
 23 13  1  0  0  0  0
 24 14  1  0  0  0  0
 25 14  1  0  0  0  0
 26  5  1  0  0  0  0
 26 30  2  0  0  0  0
 27 26  1  0  0  0  0
 28 27  2  0  0  0  0
 28 29  1  0  0  0  0
 29 32  1  0  0  0  0
 29 30  1  0  0  0  0
 31 28  1  0  0  0  0
 32 34  1  0  0  0  0
 33 32  1  0  0  0  0
 35 32  1  0  0  0  0
 36 35  2  0  0  0  0
 37 38  1  0  0  0  0
 37 36  1  0  0  0  0
 39 37  1  0  0  0  0
 40 37  1  0  0  0  0
 41 40  2  0  0  0  0
 42 41  1  0  0  0  0
 43 42  1  0  0  0  0
 44 42  2  0  0  0  0
 44 45  1  0  0  0  0
 45 46  2  0  0  0  0
 46 40  1  0  0  0  0
M  END
>  <minimizedAffinity>
-6.27689981

$$$$

 OpenBabel03242519333D

 46 49  0  0  0  0  0  0  0  0999 V2000
   40.7980   34.0050   40.3690 C   0  0  0  0  0  0  0  0  0  0  0  0
   40.2210   35.3090   40.4230 C   0  0  0  0  0  0  0  0  0  0  0  0
   38.8440   35.4730   40.2150 C   0  0  0  0  0  0  0  0  0  0  0  0
   38.1220   34.3370   39.9690 N   0  0  0  0  0  0  0  0  0  0  0  0
   38.7200   33.1020   39.9260 C   0  0  0  0  0  0  0  0  0  0  0  0
   40.0250   32.9550   40.1240 N   0  0  0  0  0  0  0  0  0  0  0  0
   40.7390   36.2410   40.6120 H   0  0  0  0  0  0  0  0  0  0  0  0
   38.3710   36.4230   40.2450 H   0  0  0  0  0  0  0  0  0  0  0  0
   42.2440   33.9780   40.5990 C   0  0  0  0  0  0  0  0  0  0  0  0
   42.7600   32.7200   41.0800 C   0  0  0  0  0  0  0  0  0  0  0  0
   43.2930   32.7530   42.4570 C   0  0  0  0  0  0  0  0  0  0  0  0
   44.3500   33.8460   42.6180 C   0  0  0  0  0  0  0  0  0  0  0  0
   44.0090   35.1230   41.9270 C   0  0  0  0  0  0  0  0  0  0  0  0
   42.5300   35.1760   41.5660 C   0  0  0  0  0  0  0  0  0  0  0  0
   42.7730   34.3160   39.6670 H   0  0  0  0  0  0  0  0  0  0  0  0
   43.5780   32.3140   40.4150 H   0  0  0  0  0  0  0  0  0  0  0  0
   41.9670   31.9300   41.0560 H   0  0  0  0  0  0  0  0  0  0  0  0
   42.5810   32.8020   43.2780 H   0  0  0  0  0  0  0  0  0  0  0  0
   43.8670   31.7930   42.6150 H   0  0  0  0  0  0  0  0  0  0  0  0
   44.4060   34.0630   43.7040 H   0  0  0  0  0  0  0  0  0  0  0  0
   45.3620   33.4730   42.3250 H   0  0  0  0  0  0  0  0  0  0  0  0
   44.5450   35.1240   40.9350 H   0  0  0  0  0  0  0  0  0  0  0  0
   44.2780   36.0390   42.4530 H   0  0  0  0  0  0  0  0  0  0  0  0
   42.3270   36.0930   40.9980 H   0  0  0  0  0  0  0  0  0  0  0  0
   41.8800   35.0910   42.4620 H   0  0  0  0  0  0  0  0  0  0  0  0
   37.7930   32.0150   39.6420 C   0  0  0  0  0  0  0  0  0  0  0  0
   37.5630   31.6620   38.3680 N   0  0  0  0  0  0  0  0  0  0  0  0
   36.6720   30.6360   38.3430 C   0  0  0  0  0  0  0  0  0  0  0  0
   36.3600   30.3640   39.6270 N   0  0  0  0  0  0  0  0  0  0  0  0
   37.0330   31.1950   40.4250 N   0  0  0  0  0  0  0  0  0  0  0  0
   36.2820   30.1280   37.4790 H   0  0  0  0  0  0  0  0  0  0  0  0
   35.4720   29.3370   40.1120 C   0  0  0  0  0  0  0  0  0  0  0  0
   34.4690   29.7860   40.2850 H   0  0  0  0  0  0  0  0  0  0  0  0
   35.3230   28.5100   39.4330 H   0  0  0  0  0  0  0  0  0  0  0  0
   35.9530   28.8500   41.4060 C   0  0  0  0  0  3  0  0  0  0  0  0
   36.7390   27.8470   41.7840 C   0  0  0  0  0  3  0  0  0  0  0  0
   37.1940   27.5460   43.2260 C   0  0  0  0  0  0  0  0  0  0  0  0
   36.8040   26.5550   43.5070 H   0  0  0  0  0  0  0  0  0  0  0  0
   36.7570   28.3510   43.8440 H   0  0  0  0  0  0  0  0  0  0  0  0
   38.6690   27.6410   43.2890 C   0  0  0  0  0  0  0  0  0  0  0  0
   39.4550   26.6800   43.8900 C   0  0  0  0  0  3  0  0  0  0  0  0
   40.8240   26.9240   43.8600 C   0  0  0  0  0  0  0  0  0  0  0  0
   41.4630   26.1840   44.3260 H   0  0  0  0  0  0  0  0  0  0  0  0
   41.3480   28.0270   43.2810 N   0  0  0  0  0  0  0  0  0  0  0  0
   40.5640   28.9340   42.7110 C   0  0  0  0  0  3  0  0  0  0  0  0
   39.2390   28.7400   42.7170 N   0  0  0  0  0  0  0  0  0  0  0  0
  1  2  1  0  0  0  0
  1  9  1  0  0  0  0
  2  7  1  0  0  0  0
  3  8  1  0  0  0  0
  3  2  2  0  0  0  0
  4  3  1  0  0  0  0
  5  4  2  0  0  0  0
  5  6  1  0  0  0  0
  6  1  2  0  0  0  0
  9 10  1  0  0  0  0
  9 14  1  0  0  0  0
 10 11  1  0  0  0  0
 11 19  1  0  0  0  0
 11 12  1  0  0  0  0
 11 18  1  0  0  0  0
 12 20  1  0  0  0  0
 13 23  1  0  0  0  0
 13 12  1  0  0  0  0
 14 13  1  0  0  0  0
 14 25  1  0  0  0  0
 15  9  1  0  0  0  0
 16 10  1  0  0  0  0
 17 10  1  0  0  0  0
 21 12  1  0  0  0  0
 22 13  1  0  0  0  0
 24 14  1  0  0  0  0
 26  5  1  0  0  0  0
 26 30  2  0  0  0  0
 27 26  1  0  0  0  0
 28 27  2  0  0  0  0
 28 29  1  0  0  0  0
 29 32  1  0  0  0  0
 29 30  1  0  0  0  0
 31 28  1  0  0  0  0
 32 33  1  0  0  0  0
 32 35  1  0  0  0  0
 34 32  1  0  0  0  0
 35 36  2  0  0  0  0
 36 37  1  0  0  0  0
 37 40  1  0  0  0  0
 37 38  1  0  0  0  0
 37 39  1  0  0  0  0
 40 41  1  0  0  0  0
 42 41  2  0  0  0  0
 42 43  1  0  0  0  0
 44 42  1  0  0  0  0
 45 46  1  0  0  0  0
 45 44  2  0  0  0  0
 46 40  2  0  0  0  0
M  END
>  <minimizedAffinity>
-6.26226187

$$$$

 OpenBabel03242519333D

 46 49  0  0  0  0  0  0  0  0999 V2000
   37.4730   31.6290   40.0940 C   0  0  0  0  0  0  0  0  0  0  0  0
   37.4450   33.0290   39.8170 C   0  0  0  0  0  0  0  0  0  0  0  0
   38.5210   33.8400   40.2040 C   0  0  0  0  0  0  0  0  0  0  0  0
   39.5600   33.2170   40.8400 N   0  0  0  0  0  0  0  0  0  0  0  0
   39.5440   31.8660   41.0860 C   0  0  0  0  0  0  0  0  0  0  0  0
   38.5220   31.1050   40.7160 N   0  0  0  0  0  0  0  0  0  0  0  0
   36.6540   33.5760   39.3200 H   0  0  0  0  0  0  0  0  0  0  0  0
   38.5430   34.8850   40.0190 H   0  0  0  0  0  0  0  0  0  0  0  0
   36.2870   30.9020   39.6400 C   0  0  0  0  0  0  0  0  0  0  0  0
   35.7840   29.9180   40.5670 C   0  0  0  0  0  0  0  0  0  0  0  0
   35.9010   28.5180   40.1110 C   0  0  0  0  0  0  0  0  0  0  0  0
   35.2500   28.3240   38.7420 C   0  0  0  0  0  0  0  0  0  0  0  0
   35.5130   29.4360   37.7840 C   0  0  0  0  0  0  0  0  0  0  0  0
   36.6790   30.2990   38.2490 C   0  0  0  0  0  0  0  0  0  0  0  0
   35.4920   31.6390   39.3440 H   0  0  0  0  0  0  0  0  0  0  0  0
   34.6990   30.0950   40.8280 H   0  0  0  0  0  0  0  0  0  0  0  0
   36.3190   29.9870   41.5480 H   0  0  0  0  0  0  0  0  0  0  0  0
   36.8860   28.0590   40.1220 H   0  0  0  0  0  0  0  0  0  0  0  0
   35.2700   27.8880   40.8050 H   0  0  0  0  0  0  0  0  0  0  0  0
   35.7030   27.4060   38.3130 H   0  0  0  0  0  0  0  0  0  0  0  0
   34.1580   28.1110   38.8410 H   0  0  0  0  0  0  0  0  0  0  0  0
   34.6200   30.1250   37.8130 H   0  0  0  0  0  0  0  0  0  0  0  0
   35.6780   29.1470   36.7460 H   0  0  0  0  0  0  0  0  0  0  0  0
   36.8000   31.1480   37.5630 H   0  0  0  0  0  0  0  0  0  0  0  0
   37.6150   29.7120   38.3520 H   0  0  0  0  0  0  0  0  0  0  0  0
   40.7330   31.3860   41.7800 C   0  0  0  0  0  0  0  0  0  0  0  0
   41.8520   32.1250   41.7560 N   0  0  0  0  0  0  0  0  0  0  0  0
   42.8230   31.4880   42.4610 C   0  0  0  0  0  0  0  0  0  0  0  0
   42.2780   30.3430   42.9230 N   0  0  0  0  0  0  0  0  0  0  0  0
   41.0090   30.2700   42.5140 N   0  0  0  0  0  0  0  0  0  0  0  0
   43.8330   31.8170   42.6310 H   0  0  0  0  0  0  0  0  0  0  0  0
   42.9100   29.3440   43.7460 C   0  0  0  0  0  0  0  0  0  0  0  0
   43.9850   29.2800   43.4660 H   0  0  0  0  0  0  0  0  0  0  0  0
   42.8820   29.5480   44.8070 H   0  0  0  0  0  0  0  0  0  0  0  0
   42.3150   28.0360   43.4650 C   0  0  0  0  0  3  0  0  0  0  0  0
   41.5910   27.1760   44.1750 C   0  0  0  0  0  3  0  0  0  0  0  0
   40.9840   25.8570   43.6560 C   0  0  0  0  0  0  0  0  0  0  0  0
   41.1280   25.0880   44.4310 H   0  0  0  0  0  0  0  0  0  0  0  0
   41.5430   25.6220   42.7330 H   0  0  0  0  0  0  0  0  0  0  0  0
   39.5650   26.0910   43.3100 C   0  0  0  0  0  0  0  0  0  0  0  0
   38.8770   27.2200   43.7020 C   0  0  0  0  0  3  0  0  0  0  0  0
   37.5490   27.2820   43.2930 C   0  0  0  0  0  0  0  0  0  0  0  0
   36.9860   28.1590   43.5890 H   0  0  0  0  0  0  0  0  0  0  0  0
   36.9730   26.3040   42.5600 N   0  0  0  0  0  0  0  0  0  0  0  0
   37.6640   25.2280   42.1980 C   0  0  0  0  0  3  0  0  0  0  0  0
   38.9450   25.1270   42.5720 N   0  0  0  0  0  0  0  0  0  0  0  0
  1  6  1  0  0  0  0
  2  1  2  0  0  0  0
  2  3  1  0  0  0  0
  3  4  2  0  0  0  0
  4  5  1  0  0  0  0
  5 26  1  0  0  0  0
  6  5  2  0  0  0  0
  7  2  1  0  0  0  0
  8  3  1  0  0  0  0
  9  1  1  0  0  0  0
  9 10  1  0  0  0  0
 10 16  1  0  0  0  0
 10 17  1  0  0  0  0
 11 18  1  0  0  0  0
 11 10  1  0  0  0  0
 11 19  1  0  0  0  0
 12 21  1  0  0  0  0
 12 11  1  0  0  0  0
 13 22  1  0  0  0  0
 13 14  1  0  0  0  0
 13 12  1  0  0  0  0
 14 25  1  0  0  0  0
 14  9  1  0  0  0  0
 15  9  1  0  0  0  0
 20 12  1  0  0  0  0
 23 13  1  0  0  0  0
 24 14  1  0  0  0  0
 26 30  2  0  0  0  0
 27 26  1  0  0  0  0
 27 28  2  0  0  0  0
 28 31  1  0  0  0  0
 28 29  1  0  0  0  0
 29 32  1  0  0  0  0
 30 29  1  0  0  0  0
 32 34  1  0  0  0  0
 33 32  1  0  0  0  0
 35 32  1  0  0  0  0
 35 36  2  0  0  0  0
 37 36  1  0  0  0  0
 37 38  1  0  0  0  0
 39 37  1  0  0  0  0
 40 37  1  0  0  0  0
 40 41  1  0  0  0  0
 42 43  1  0  0  0  0
 42 41  2  0  0  0  0
 44 42  1  0  0  0  0
 45 44  2  0  0  0  0
 45 46  1  0  0  0  0
 46 40  2  0  0  0  0
M  END
>  <minimizedAffinity>
-5.85299158

$$$$

 OpenBabel03242519333D

 46 49  0  0  0  0  0  0  0  0999 V2000
   37.8720   29.0870   42.0000 C   0  0  0  0  0  0  0  0  0  0  0  0
   36.5850   28.8400   41.4370 C   0  0  0  0  0  0  0  0  0  0  0  0
   35.9650   29.8220   40.6510 C   0  0  0  0  0  0  0  0  0  0  0  0
   36.6570   30.9880   40.4700 N   0  0  0  0  0  0  0  0  0  0  0  0
   37.8940   31.1830   41.0320 C   0  0  0  0  0  0  0  0  0  0  0  0
   38.4750   30.2480   41.7740 N   0  0  0  0  0  0  0  0  0  0  0  0
   35.9910   27.9410   41.5450 H   0  0  0  0  0  0  0  0  0  0  0  0
   35.0090   29.6820   40.2120 H   0  0  0  0  0  0  0  0  0  0  0  0
   38.4010   27.9820   42.8000 C   0  0  0  0  0  0  0  0  0  0  0  0
   39.8090   28.0670   43.1000 C   0  0  0  0  0  0  0  0  0  0  0  0
   40.6430   27.0250   42.4670 C   0  0  0  0  0  0  0  0  0  0  0  0
   40.1250   25.6240   42.7930 C   0  0  0  0  0  0  0  0  0  0  0  0
   38.6390   25.5050   42.7520 C   0  0  0  0  0  0  0  0  0  0  0  0
   38.0120   26.6820   42.0170 C   0  0  0  0  0  0  0  0  0  0  0  0
   37.7820   27.8700   43.7320 H   0  0  0  0  0  0  0  0  0  0  0  0
   40.0100   28.0260   44.2120 H   0  0  0  0  0  0  0  0  0  0  0  0
   40.2240   29.0560   42.7810 H   0  0  0  0  0  0  0  0  0  0  0  0
   40.8420   27.1090   41.4020 H   0  0  0  0  0  0  0  0  0  0  0  0
   41.6570   27.0630   42.9650 H   0  0  0  0  0  0  0  0  0  0  0  0
   40.5310   24.9550   42.0060 H   0  0  0  0  0  0  0  0  0  0  0  0
   40.5450   25.2530   43.7590 H   0  0  0  0  0  0  0  0  0  0  0  0
   38.2640   25.5980   43.8120 H   0  0  0  0  0  0  0  0  0  0  0  0
   38.2430   24.5780   42.3380 H   0  0  0  0  0  0  0  0  0  0  0  0
   36.9180   26.6030   42.0670 H   0  0  0  0  0  0  0  0  0  0  0  0
   38.3740   26.7600   40.9710 H   0  0  0  0  0  0  0  0  0  0  0  0
   38.4700   32.4890   40.7360 C   0  0  0  0  0  0  0  0  0  0  0  0
   37.6780   33.4660   40.2700 N   0  0  0  0  0  0  0  0  0  0  0  0
   38.4230   34.5850   40.0650 C   0  0  0  0  0  0  0  0  0  0  0  0
   39.6880   34.2760   40.4170 N   0  0  0  0  0  0  0  0  0  0  0  0
   39.7290   33.0050   40.8240 N   0  0  0  0  0  0  0  0  0  0  0  0
   38.0870   35.5380   39.6970 H   0  0  0  0  0  0  0  0  0  0  0  0
   40.8370   35.1460   40.3990 C   0  0  0  0  0  0  0  0  0  0  0  0
   40.9270   35.5960   39.3860 H   0  0  0  0  0  0  0  0  0  0  0  0
   40.7920   35.9690   41.0970 H   0  0  0  0  0  0  0  0  0  0  0  0
   42.0490   34.3550   40.6250 C   0  0  0  0  0  3  0  0  0  0  0  0
   43.1030   34.0430   39.8780 C   0  0  0  0  0  3  0  0  0  0  0  0
   44.3370   33.2420   40.3410 C   0  0  0  0  0  0  0  0  0  0  0  0
   45.0700   33.2400   39.5180 H   0  0  0  0  0  0  0  0  0  0  0  0
   43.9610   32.2270   40.5600 H   0  0  0  0  0  0  0  0  0  0  0  0
   44.8510   33.8430   41.5900 C   0  0  0  0  0  0  0  0  0  0  0  0
   45.5180   35.0500   41.6200 C   0  0  0  0  0  3  0  0  0  0  0  0
   45.9360   35.4710   42.8790 C   0  0  0  0  0  0  0  0  0  0  0  0
   46.4620   36.4170   42.9280 H   0  0  0  0  0  0  0  0  0  0  0  0
   45.7030   34.7470   43.9960 N   0  0  0  0  0  0  0  0  0  0  0  0
   45.0570   33.5880   43.9330 C   0  0  0  0  0  3  0  0  0  0  0  0
   44.6380   33.1440   42.7420 N   0  0  0  0  0  0  0  0  0  0  0  0
  1  9  1  0  0  0  0
  2  7  1  0  0  0  0
  2  1  2  0  0  0  0
  3  2  1  0  0  0  0
  4  3  2  0  0  0  0
  4  5  1  0  0  0  0
  5  6  2  0  0  0  0
  6  1  1  0  0  0  0
  8  3  1  0  0  0  0
  9 10  1  0  0  0  0
  9 15  1  0  0  0  0
 10 16  1  0  0  0  0
 11 12  1  0  0  0  0
 11 19  1  0  0  0  0
 11 10  1  0  0  0  0
 12 21  1  0  0  0  0
 13 12  1  0  0  0  0
 13 22  1  0  0  0  0
 14 24  1  0  0  0  0
 14 13  1  0  0  0  0
 14  9  1  0  0  0  0
 17 10  1  0  0  0  0
 18 11  1  0  0  0  0
 20 12  1  0  0  0  0
 23 13  1  0  0  0  0
 25 14  1  0  0  0  0
 26 30  2  0  0  0  0
 26  5  1  0  0  0  0
 27 26  1  0  0  0  0
 28 27  2  0  0  0  0
 28 29  1  0  0  0  0
 29 30  1  0  0  0  0
 31 28  1  0  0  0  0
 32 29  1  0  0  0  0
 32 35  1  0  0  0  0
 32 34  1  0  0  0  0
 33 32  1  0  0  0  0
 36 37  1  0  0  0  0
 36 35  2  0  0  0  0
 37 39  1  0  0  0  0
 37 40  1  0  0  0  0
 38 37  1  0  0  0  0
 40 41  2  0  0  0  0
 40 46  1  0  0  0  0
 41 42  1  0  0  0  0
 42 43  1  0  0  0  0
 42 44  2  0  0  0  0
 45 44  1  0  0  0  0
 46 45  2  0  0  0  0
M  END
>  <minimizedAffinity>
-5.77814436

$$$$

 OpenBabel03242519333D

 46 49  0  0  0  0  0  0  0  0999 V2000
   41.0850   34.1860   39.5240 C   0  0  0  0  0  0  0  0  0  0  0  0
   40.3110   35.3630   39.7520 C   0  0  0  0  0  0  0  0  0  0  0  0
   39.1210   35.2850   40.4900 C   0  0  0  0  0  0  0  0  0  0  0  0
   38.7710   34.0480   40.9570 N   0  0  0  0  0  0  0  0  0  0  0  0
   39.5460   32.9420   40.7130 C   0  0  0  0  0  0  0  0  0  0  0  0
   40.6720   33.0240   40.0140 N   0  0  0  0  0  0  0  0  0  0  0  0
   40.5370   36.3640   39.4080 H   0  0  0  0  0  0  0  0  0  0  0  0
   38.5140   36.1330   40.6840 H   0  0  0  0  0  0  0  0  0  0  0  0
   42.2990   34.4070   38.7370 C   0  0  0  0  0  0  0  0  0  0  0  0
   42.3090   33.7740   37.4410 C   0  0  0  0  0  0  0  0  0  0  0  0
   43.3000   32.6910   37.2860 C   0  0  0  0  0  0  0  0  0  0  0  0
   44.7080   33.1710   37.6420 C   0  0  0  0  0  0  0  0  0  0  0  0
   44.7600   34.0530   38.8430 C   0  0  0  0  0  0  0  0  0  0  0  0
   43.4780   33.9480   39.6590 C   0  0  0  0  0  0  0  0  0  0  0  0
   42.4960   35.5120   38.6630 H   0  0  0  0  0  0  0  0  0  0  0  0
   42.4900   34.5160   36.6070 H   0  0  0  0  0  0  0  0  0  0  0  0
   41.3060   33.3350   37.2060 H   0  0  0  0  0  0  0  0  0  0  0  0
   43.0980   31.7410   37.7740 H   0  0  0  0  0  0  0  0  0  0  0  0
   43.3640   32.4540   36.1830 H   0  0  0  0  0  0  0  0  0  0  0  0
   45.2940   32.2590   37.8770 H   0  0  0  0  0  0  0  0  0  0  0  0
   45.2080   33.6400   36.7600 H   0  0  0  0  0  0  0  0  0  0  0  0
   44.7780   35.1200   38.4780 H   0  0  0  0  0  0  0  0  0  0  0  0
   45.6140   33.9120   39.5050 H   0  0  0  0  0  0  0  0  0  0  0  0
   43.5190   34.6600   40.4940 H   0  0  0  0  0  0  0  0  0  0  0  0
   43.2910   32.9110   40.0080 H   0  0  0  0  0  0  0  0  0  0  0  0
   39.0060   31.7140   41.2830 C   0  0  0  0  0  0  0  0  0  0  0  0
   39.6630   31.1100   42.2850 N   0  0  0  0  0  0  0  0  0  0  0  0
   38.9820   29.9930   42.6540 C   0  0  0  0  0  0  0  0  0  0  0  0
   37.8940   29.9230   41.8610 N   0  0  0  0  0  0  0  0  0  0  0  0
   37.8980   30.9620   41.0230 N   0  0  0  0  0  0  0  0  0  0  0  0
   39.2450   29.2910   43.4260 H   0  0  0  0  0  0  0  0  0  0  0  0
   36.8530   28.9260   41.8900 C   0  0  0  0  0  0  0  0  0  0  0  0
   37.3140   27.9260   41.7340 H   0  0  0  0  0  0  0  0  0  0  0  0
   36.3070   28.8690   42.8210 H   0  0  0  0  0  0  0  0  0  0  0  0
   35.9320   29.1520   40.7740 C   0  0  0  0  0  3  0  0  0  0  0  0
   35.6530   28.4900   39.6560 C   0  0  0  0  0  3  0  0  0  0  0  0
   34.5680   28.8670   38.6270 C   0  0  0  0  0  0  0  0  0  0  0  0
   34.1320   29.8320   38.9300 H   0  0  0  0  0  0  0  0  0  0  0  0
   33.8280   28.0490   38.6700 H   0  0  0  0  0  0  0  0  0  0  0  0
   35.1790   28.8910   37.2800 C   0  0  0  0  0  0  0  0  0  0  0  0
   34.4380   29.0350   36.1260 C   0  0  0  0  0  3  0  0  0  0  0  0
   35.1700   29.0360   34.9430 C   0  0  0  0  0  0  0  0  0  0  0  0
   34.6110   29.1470   34.0220 H   0  0  0  0  0  0  0  0  0  0  0  0
   36.5150   28.9070   34.9260 N   0  0  0  0  0  0  0  0  0  0  0  0
   37.2000   28.7700   36.0560 C   0  0  0  0  0  3  0  0  0  0  0  0
   36.5360   28.7620   37.2180 N   0  0  0  0  0  0  0  0  0  0  0  0
  1  2  2  0  0  0  0
  1  6  1  0  0  0  0
  2  3  1  0  0  0  0
  3  8  1  0  0  0  0
  3  4  2  0  0  0  0
  5  4  1  0  0  0  0
  5 26  1  0  0  0  0
  6  5  2  0  0  0  0
  7  2  1  0  0  0  0
  9  1  1  0  0  0  0
  9 14  1  0  0  0  0
 10  9  1  0  0  0  0
 11 10  1  0  0  0  0
 11 12  1  0  0  0  0
 11 18  1  0  0  0  0
 12 20  1  0  0  0  0
 12 13  1  0  0  0  0
 13 23  1  0  0  0  0
 13 14  1  0  0  0  0
 14 25  1  0  0  0  0
 14 24  1  0  0  0  0
 15  9  1  0  0  0  0
 16 10  1  0  0  0  0
 17 10  1  0  0  0  0
 19 11  1  0  0  0  0
 21 12  1  0  0  0  0
 22 13  1  0  0  0  0
 26 27  1  0  0  0  0
 27 28  2  0  0  0  0
 28 31  1  0  0  0  0
 29 32  1  0  0  0  0
 29 28  1  0  0  0  0
 30 26  2  0  0  0  0
 30 29  1  0  0  0  0
 32 34  1  0  0  0  0
 33 32  1  0  0  0  0
 35 32  1  0  0  0  0
 36 35  2  0  0  0  0
 37 39  1  0  0  0  0
 37 38  1  0  0  0  0
 37 36  1  0  0  0  0
 40 37  1  0  0  0  0
 41 40  2  0  0  0  0
 42 41  1  0  0  0  0
 43 42  1  0  0  0  0
 44 42  2  0  0  0  0
 44 45  1  0  0  0  0
 45 46  2  0  0  0  0
 46 40  1  0  0  0  0
M  END
>  <minimizedAffinity>
-5.75097132

$$$$

 OpenBabel03242519333D

 46 49  0  0  0  0  0  0  0  0999 V2000
   37.9090   27.2110   41.4420 C   0  0  0  0  0  0  0  0  0  0  0  0
   37.7690   27.1310   42.8600 C   0  0  0  0  0  0  0  0  0  0  0  0
   37.6800   28.3050   43.6210 C   0  0  0  0  0  0  0  0  0  0  0  0
   37.7330   29.4860   42.9330 N   0  0  0  0  0  0  0  0  0  0  0  0
   37.8680   29.5160   41.5670 C   0  0  0  0  0  0  0  0  0  0  0  0
   37.9510   28.4000   40.8530 N   0  0  0  0  0  0  0  0  0  0  0  0
   37.7230   26.2290   43.4570 H   0  0  0  0  0  0  0  0  0  0  0  0
   37.5760   28.2940   44.6770 H   0  0  0  0  0  0  0  0  0  0  0  0
   37.9950   25.9130   40.7710 C   0  0  0  0  0  0  0  0  0  0  0  0
   37.3940   25.8630   39.4610 C   0  0  0  0  0  0  0  0  0  0  0  0
   36.2000   25.0010   39.3570 C   0  0  0  0  0  0  0  0  0  0  0  0
   36.4930   23.5840   39.8500 C   0  0  0  0  0  0  0  0  0  0  0  0
   37.3340   23.5330   41.0800 C   0  0  0  0  0  0  0  0  0  0  0  0
   37.3720   24.8870   41.7780 C   0  0  0  0  0  0  0  0  0  0  0  0
   39.0670   25.5770   40.7510 H   0  0  0  0  0  0  0  0  0  0  0  0
   38.1250   25.5170   38.6710 H   0  0  0  0  0  0  0  0  0  0  0  0
   37.0890   26.8860   39.1260 H   0  0  0  0  0  0  0  0  0  0  0  0
   35.2720   25.3610   39.7940 H   0  0  0  0  0  0  0  0  0  0  0  0
   35.9810   24.8670   38.2570 H   0  0  0  0  0  0  0  0  0  0  0  0
   35.5090   23.1370   40.1050 H   0  0  0  0  0  0  0  0  0  0  0  0
   36.9150   22.9520   39.0320 H   0  0  0  0  0  0  0  0  0  0  0  0
   38.3980   23.3520   40.7540 H   0  0  0  0  0  0  0  0  0  0  0  0
   37.0730   22.7670   41.8090 H   0  0  0  0  0  0  0  0  0  0  0  0
   38.0550   24.8360   42.6350 H   0  0  0  0  0  0  0  0  0  0  0  0
   36.3580   25.2300   42.0740 H   0  0  0  0  0  0  0  0  0  0  0  0
   37.9150   30.8640   41.0150 C   0  0  0  0  0  0  0  0  0  0  0  0
   37.0370   31.2160   40.0640 N   0  0  0  0  0  0  0  0  0  0  0  0
   37.2650   32.5050   39.7010 C   0  0  0  0  0  0  0  0  0  0  0  0
   38.2990   32.9400   40.4500 N   0  0  0  0  0  0  0  0  0  0  0  0
   38.7030   31.9520   41.2500 N   0  0  0  0  0  0  0  0  0  0  0  0
   36.7340   33.0830   38.9640 H   0  0  0  0  0  0  0  0  0  0  0  0
   38.8910   34.2550   40.4430 C   0  0  0  0  0  0  0  0  0  0  0  0
   38.4050   34.8600   39.6460 H   0  0  0  0  0  0  0  0  0  0  0  0
   38.7730   34.8090   41.3630 H   0  0  0  0  0  0  0  0  0  0  0  0
   40.3090   34.1470   40.0940 C   0  0  0  0  0  3  0  0  0  0  0  0
   40.9700   33.9260   38.9620 C   0  0  0  0  0  3  0  0  0  0  0  0
   42.5030   33.9270   38.7920 C   0  0  0  0  0  0  0  0  0  0  0  0
   42.9560   33.8690   39.7950 H   0  0  0  0  0  0  0  0  0  0  0  0
   42.7390   34.8790   38.2870 H   0  0  0  0  0  0  0  0  0  0  0  0
   42.8830   32.8060   37.9060 C   0  0  0  0  0  0  0  0  0  0  0  0
   41.9610   31.9340   37.3650 C   0  0  0  0  0  3  0  0  0  0  0  0
   42.4880   30.9360   36.5530 C   0  0  0  0  0  0  0  0  0  0  0  0
   41.7830   30.2370   36.1160 H   0  0  0  0  0  0  0  0  0  0  0  0
   43.8130   30.8280   36.3080 N   0  0  0  0  0  0  0  0  0  0  0  0
   44.6750   31.6840   36.8440 C   0  0  0  0  0  3  0  0  0  0  0  0
   44.2120   32.6600   37.6340 N   0  0  0  0  0  0  0  0  0  0  0  0
  1  2  1  0  0  0  0
  2  7  1  0  0  0  0
  2  3  2  0  0  0  0
  3  8  1  0  0  0  0
  4  3  1  0  0  0  0
  5  4  2  0  0  0  0
  6  1  2  0  0  0  0
  6  5  1  0  0  0  0
  9  1  1  0  0  0  0
  9 14  1  0  0  0  0
 10  9  1  0  0  0  0
 11 10  1  0  0  0  0
 11 18  1  0  0  0  0
 11 12  1  0  0  0  0
 12 20  1  0  0  0  0
 12 13  1  0  0  0  0
 13 14  1  0  0  0  0
 13 23  1  0  0  0  0
 14 25  1  0  0  0  0
 14 24  1  0  0  0  0
 15  9  1  0  0  0  0
 16 10  1  0  0  0  0
 17 10  1  0  0  0  0
 19 11  1  0  0  0  0
 21 12  1  0  0  0  0
 22 13  1  0  0  0  0
 26 30  2  0  0  0  0
 26  5  1  0  0  0  0
 27 26  1  0  0  0  0
 28 27  2  0  0  0  0
 28 29  1  0  0  0  0
 29 30  1  0  0  0  0
 31 28  1  0  0  0  0
 32 29  1  0  0  0  0
 32 34  1  0  0  0  0
 33 32  1  0  0  0  0
 35 32  1  0  0  0  0
 36 35  2  0  0  0  0
 37 36  1  0  0  0  0
 37 38  1  0  0  0  0
 39 37  1  0  0  0  0
 40 37  1  0  0  0  0
 41 40  2  0  0  0  0
 42 41  1  0  0  0  0
 43 42  1  0  0  0  0
 44 42  2  0  0  0  0
 44 45  1  0  0  0  0
 45 46  2  0  0  0  0
 46 40  1  0  0  0  0
M  END
>  <minimizedAffinity>
-5.7169981

$$$$

 OpenBabel03242519333D

 46 49  0  0  0  0  0  0  0  0999 V2000
   41.0400   34.0980   39.2820 C   0  0  0  0  0  0  0  0  0  0  0  0
   40.5550   35.3790   39.6820 C   0  0  0  0  0  0  0  0  0  0  0  0
   39.4260   35.4730   40.5090 C   0  0  0  0  0  0  0  0  0  0  0  0
   38.8480   34.2940   40.8910 N   0  0  0  0  0  0  0  0  0  0  0  0
   39.3480   33.0820   40.4810 C   0  0  0  0  0  0  0  0  0  0  0  0
   40.4170   33.0020   39.6980 N   0  0  0  0  0  0  0  0  0  0  0  0
   40.9680   36.3430   39.4120 H   0  0  0  0  0  0  0  0  0  0  0  0
   39.0300   36.4030   40.8310 H   0  0  0  0  0  0  0  0  0  0  0  0
   42.2190   34.1450   38.4170 C   0  0  0  0  0  0  0  0  0  0  0  0
   42.1560   33.2930   37.2550 C   0  0  0  0  0  0  0  0  0  0  0  0
   43.1200   32.1730   37.2530 C   0  0  0  0  0  0  0  0  0  0  0  0
   44.5510   32.6710   37.4570 C   0  0  0  0  0  0  0  0  0  0  0  0
   44.6760   33.7500   38.4790 C   0  0  0  0  0  0  0  0  0  0  0  0
   43.4320   33.8250   39.3550 C   0  0  0  0  0  0  0  0  0  0  0  0
   42.4330   35.2130   38.1390 H   0  0  0  0  0  0  0  0  0  0  0  0
   42.3130   33.8700   36.2960 H   0  0  0  0  0  0  0  0  0  0  0  0
   41.1360   32.8460   37.1450 H   0  0  0  0  0  0  0  0  0  0  0  0
   42.9220   31.3310   37.9100 H   0  0  0  0  0  0  0  0  0  0  0  0
   43.1270   31.7430   36.2080 H   0  0  0  0  0  0  0  0  0  0  0  0
   45.1300   31.7990   37.8250 H   0  0  0  0  0  0  0  0  0  0  0  0
   45.0180   32.9630   36.4860 H   0  0  0  0  0  0  0  0  0  0  0  0
   44.6970   34.7340   37.9300 H   0  0  0  0  0  0  0  0  0  0  0  0
   45.5570   33.7050   39.1190 H   0  0  0  0  0  0  0  0  0  0  0  0
   43.5240   34.6720   40.0470 H   0  0  0  0  0  0  0  0  0  0  0  0
   43.2420   32.8710   39.8900 H   0  0  0  0  0  0  0  0  0  0  0  0
   38.5940   31.9400   40.9810 C   0  0  0  0  0  0  0  0  0  0  0  0
   37.3960   31.6580   40.4470 N   0  0  0  0  0  0  0  0  0  0  0  0
   36.8800   30.5620   41.0630 C   0  0  0  0  0  0  0  0  0  0  0  0
   37.7850   30.1750   41.9860 N   0  0  0  0  0  0  0  0  0  0  0  0
   38.8290   31.0050   41.9460 N   0  0  0  0  0  0  0  0  0  0  0  0
   35.9370   30.0830   40.8660 H   0  0  0  0  0  0  0  0  0  0  0  0
   37.6970   29.0430   42.8740 C   0  0  0  0  0  0  0  0  0  0  0  0
   37.8070   29.4030   43.9210 H   0  0  0  0  0  0  0  0  0  0  0  0
   36.7610   28.5060   42.8320 H   0  0  0  0  0  0  0  0  0  0  0  0
   38.8160   28.1340   42.6140 C   0  0  0  0  0  3  0  0  0  0  0  0
   39.3560   27.1180   43.2790 C   0  0  0  0  0  3  0  0  0  0  0  0
   40.5090   26.2220   42.7830 C   0  0  0  0  0  0  0  0  0  0  0  0
   40.9650   25.7370   43.6600 H   0  0  0  0  0  0  0  0  0  0  0  0
   41.2130   26.9050   42.2770 H   0  0  0  0  0  0  0  0  0  0  0  0
   39.9730   25.2650   41.7900 C   0  0  0  0  0  0  0  0  0  0  0  0
   38.9560   24.3790   42.0790 C   0  0  0  0  0  3  0  0  0  0  0  0
   38.5710   23.5490   41.0310 C   0  0  0  0  0  0  0  0  0  0  0  0
   37.7750   22.8430   41.2340 H   0  0  0  0  0  0  0  0  0  0  0  0
   39.1530   23.6080   39.8130 N   0  0  0  0  0  0  0  0  0  0  0  0
   40.1300   24.4730   39.5660 C   0  0  0  0  0  3  0  0  0  0  0  0
   40.5330   25.2910   40.5470 N   0  0  0  0  0  0  0  0  0  0  0  0
  1  2  2  0  0  0  0
  1  6  1  0  0  0  0
  2  3  1  0  0  0  0
  3  8  1  0  0  0  0
  3  4  2  0  0  0  0
  5  4  1  0  0  0  0
  5 26  1  0  0  0  0
  6  5  2  0  0  0  0
  7  2  1  0  0  0  0
  9  1  1  0  0  0  0
  9 14  1  0  0  0  0
 10  9  1  0  0  0  0
 11 10  1  0  0  0  0
 11 12  1  0  0  0  0
 11 18  1  0  0  0  0
 12 20  1  0  0  0  0
 12 13  1  0  0  0  0
 13 23  1  0  0  0  0
 13 14  1  0  0  0  0
 14 25  1  0  0  0  0
 14 24  1  0  0  0  0
 15  9  1  0  0  0  0
 16 10  1  0  0  0  0
 17 10  1  0  0  0  0
 19 11  1  0  0  0  0
 21 12  1  0  0  0  0
 22 13  1  0  0  0  0
 26 30  2  0  0  0  0
 27 26  1  0  0  0  0
 27 28  2  0  0  0  0
 28 29  1  0  0  0  0
 29 32  1  0  0  0  0
 30 29  1  0  0  0  0
 31 28  1  0  0  0  0
 32 33  1  0  0  0  0
 34 32  1  0  0  0  0
 35 32  1  0  0  0  0
 35 36  2  0  0  0  0
 37 36  1  0  0  0  0
 37 38  1  0  0  0  0
 39 37  1  0  0  0  0
 40 41  1  0  0  0  0
 40 37  1  0  0  0  0
 42 43  1  0  0  0  0
 42 41  2  0  0  0  0
 44 42  1  0  0  0  0
 45 44  2  0  0  0  0
 45 46  1  0  0  0  0
 46 40  2  0  0  0  0
M  END
>  <minimizedAffinity>
-5.69765329

$$$$
