
 OpenBabel03252509173D

 23 25  0  0  0  0  0  0  0  0999 V2000
   37.7700   30.4920   40.6470 C   0  0  0  0  0  0  0  0  0  0  0  0
   36.4130   30.2370   40.9940 C   0  0  0  0  0  0  0  0  0  0  0  0
   36.0160   28.9420   41.0960 C   0  0  0  0  0  0  0  0  0  0  0  0
   36.9560   27.9080   40.8580 C   0  0  0  0  0  0  0  0  0  0  0  0
   38.4880   28.8230   40.4670 S   0  0  0  0  0  0  0  0  0  0  0  0
   35.7310   31.0570   41.1670 H   0  0  0  0  0  0  0  0  0  0  0  0
   35.0350   28.6180   41.3460 H   0  0  0  0  0  0  0  0  0  0  0  0
   38.3440   34.1190   40.1190 C   0  0  0  0  0  0  0  0  0  0  0  0
   39.7510   34.1610   40.2940 C   0  0  0  0  0  0  0  0  0  0  0  0
   40.4290   32.9700   40.5810 C   0  0  0  0  0  0  0  0  0  0  0  0
   39.6820   31.8220   40.6750 N   0  0  0  0  0  0  0  0  0  0  0  0
   38.3410   31.8320   40.4990 C   0  0  0  0  0  0  0  0  0  0  0  0
   37.6690   32.9780   40.2220 N   0  0  0  0  0  0  0  0  0  0  0  0
   37.8680   35.0420   39.9030 H   0  0  0  0  0  0  0  0  0  0  0  0
   40.3470   35.0600   40.2210 H   0  0  0  0  0  0  0  0  0  0  0  0
   41.4980   32.9140   40.7280 H   0  0  0  0  0  0  0  0  0  0  0  0
   36.8740   26.5280   40.8800 C   0  0  0  0  0  0  0  0  0  0  0  0
   37.1650   25.8400   42.0380 C   0  0  0  0  0  3  0  0  0  0  0  0
   37.0640   24.4440   42.0030 C   0  0  0  0  0  0  0  0  0  0  0  0
   37.2900   23.8960   42.9040 H   0  0  0  0  0  0  0  0  0  0  0  0
   36.6920   23.8290   40.8500 N   0  0  0  0  0  0  0  0  0  0  0  0
   36.4150   24.5310   39.7380 C   0  0  0  0  0  3  0  0  0  0  0  0
   36.5080   25.8930   39.7550 N   0  0  0  0  0  0  0  0  0  0  0  0
  1  2  2  0  0  0  0
  2  3  1  0  0  0  0
  2  6  1  0  0  0  0
  3  7  1  0  0  0  0
  4 17  1  0  0  0  0
  4  3  2  0  0  0  0
  5  1  1  0  0  0  0
  5  4  1  0  0  0  0
  8 13  2  0  0  0  0
  8  9  1  0  0  0  0
  9 10  2  0  0  0  0
 10 11  1  0  0  0  0
 10 16  1  0  0  0  0
 12  1  1  0  0  0  0
 12 11  2  0  0  0  0
 13 12  1  0  0  0  0
 14  8  1  0  0  0  0
 15  9  1  0  0  0  0
 17 18  1  0  0  0  0
 19 18  2  0  0  0  0
 19 20  1  0  0  0  0
 21 19  1  0  0  0  0
 22 23  1  0  0  0  0
 22 21  2  0  0  0  0
 23 17  2  0  0  0  0
M  END
>  <minimizedAffinity>
-4.53435659

$$$$

 OpenBabel03252509173D

 23 25  0  0  0  0  0  0  0  0999 V2000
   37.5140   27.4870   41.0850 C   0  0  0  0  0  0  0  0  0  0  0  0
   37.1420   28.2120   42.2520 C   0  0  0  0  0  0  0  0  0  0  0  0
   37.2330   29.5680   42.2140 C   0  0  0  0  0  0  0  0  0  0  0  0
   37.6890   30.1990   41.0290 C   0  0  0  0  0  0  0  0  0  0  0  0
   38.0050   28.7920   39.9070 S   0  0  0  0  0  0  0  0  0  0  0  0
   36.7990   27.6900   43.1340 H   0  0  0  0  0  0  0  0  0  0  0  0
   36.9870   30.2230   43.0140 H   0  0  0  0  0  0  0  0  0  0  0  0
   36.6920   23.9650   40.2630 C   0  0  0  0  0  0  0  0  0  0  0  0
   37.6910   23.3070   41.0260 C   0  0  0  0  0  0  0  0  0  0  0  0
   38.5850   24.0820   41.7720 C   0  0  0  0  0  0  0  0  0  0  0  0
   38.4390   25.4460   41.7210 N   0  0  0  0  0  0  0  0  0  0  0  0
   37.4690   26.0280   40.9780 C   0  0  0  0  0  0  0  0  0  0  0  0
   36.5950   25.2910   40.2480 N   0  0  0  0  0  0  0  0  0  0  0  0
   36.0330   23.3420   39.7110 H   0  0  0  0  0  0  0  0  0  0  0  0
   37.8130   22.2330   41.0720 H   0  0  0  0  0  0  0  0  0  0  0  0
   39.3740   23.6620   42.3800 H   0  0  0  0  0  0  0  0  0  0  0  0
   37.8900   31.5200   40.6750 C   0  0  0  0  0  0  0  0  0  0  0  0
   37.0100   32.1440   39.8180 C   0  0  0  0  0  3  0  0  0  0  0  0
   37.2630   33.4830   39.4950 C   0  0  0  0  0  0  0  0  0  0  0  0
   36.5800   33.9810   38.8250 H   0  0  0  0  0  0  0  0  0  0  0  0
   38.3460   34.1070   40.0280 N   0  0  0  0  0  0  0  0  0  0  0  0
   39.1840   33.4670   40.8610 C   0  0  0  0  0  3  0  0  0  0  0  0
   38.9520   32.1620   41.1860 N   0  0  0  0  0  0  0  0  0  0  0  0
  1  2  2  0  0  0  0
  2  6  1  0  0  0  0
  3  2  1  0  0  0  0
  3  7  1  0  0  0  0
  4  3  2  0  0  0  0
  5  4  1  0  0  0  0
  5  1  1  0  0  0  0
  8  9  1  0  0  0  0
  9 15  1  0  0  0  0
  9 10  2  0  0  0  0
 10 16  1  0  0  0  0
 11 10  1  0  0  0  0
 12  1  1  0  0  0  0
 12 11  2  0  0  0  0
 13  8  2  0  0  0  0
 13 12  1  0  0  0  0
 14  8  1  0  0  0  0
 17  4  1  0  0  0  0
 17 23  1  0  0  0  0
 18 17  2  0  0  0  0
 19 18  1  0  0  0  0
 19 21  2  0  0  0  0
 20 19  1  0  0  0  0
 21 22  1  0  0  0  0
 22 23  2  0  0  0  0
M  END
>  <minimizedAffinity>
-4.52367401

$$$$

 OpenBabel03252509173D

 23 25  0  0  0  0  0  0  0  0999 V2000
   37.5610   27.5780   41.2160 C   0  0  0  0  0  0  0  0  0  0  0  0
   37.7460   28.2800   42.4400 C   0  0  0  0  0  0  0  0  0  0  0  0
   37.9330   29.6250   42.3810 C   0  0  0  0  0  0  0  0  0  0  0  0
   37.9370   30.2690   41.1180 C   0  0  0  0  0  0  0  0  0  0  0  0
   37.6580   28.8910   39.9500 S   0  0  0  0  0  0  0  0  0  0  0  0
   37.7360   27.7490   43.3810 H   0  0  0  0  0  0  0  0  0  0  0  0
   38.0840   30.2620   43.2180 H   0  0  0  0  0  0  0  0  0  0  0  0
   37.4740   23.9130   41.7770 C   0  0  0  0  0  0  0  0  0  0  0  0
   36.7760   23.5140   40.6090 C   0  0  0  0  0  0  0  0  0  0  0  0
   36.3720   24.4970   39.6990 C   0  0  0  0  0  0  0  0  0  0  0  0
   36.6800   25.8010   39.9950 N   0  0  0  0  0  0  0  0  0  0  0  0
   37.3490   26.1330   41.1230 C   0  0  0  0  0  0  0  0  0  0  0  0
   37.7470   25.1920   42.0160 N   0  0  0  0  0  0  0  0  0  0  0  0
   37.7630   23.1380   42.4420 H   0  0  0  0  0  0  0  0  0  0  0  0
   36.5280   22.4890   40.3680 H   0  0  0  0  0  0  0  0  0  0  0  0
   35.8360   24.2790   38.7850 H   0  0  0  0  0  0  0  0  0  0  0  0
   38.0970   31.5840   40.7240 C   0  0  0  0  0  0  0  0  0  0  0  0
   37.1280   32.1960   39.9590 C   0  0  0  0  0  3  0  0  0  0  0  0
   37.3420   33.5290   39.5900 C   0  0  0  0  0  0  0  0  0  0  0  0
   36.5910   34.0180   38.9910 H   0  0  0  0  0  0  0  0  0  0  0  0
   38.4770   34.1610   39.9930 N   0  0  0  0  0  0  0  0  0  0  0  0
   39.4010   33.5330   40.7400 C   0  0  0  0  0  3  0  0  0  0  0  0
   39.2080   32.2340   41.1070 N   0  0  0  0  0  0  0  0  0  0  0  0
  1  2  2  0  0  0  0
  2  6  1  0  0  0  0
  3  2  1  0  0  0  0
  3  7  1  0  0  0  0
  4  3  2  0  0  0  0
  5  4  1  0  0  0  0
  5  1  1  0  0  0  0
  8 13  1  0  0  0  0
  8 14  1  0  0  0  0
  9  8  2  0  0  0  0
 10 11  2  0  0  0  0
 10  9  1  0  0  0  0
 11 12  1  0  0  0  0
 12  1  1  0  0  0  0
 12 13  2  0  0  0  0
 15  9  1  0  0  0  0
 16 10  1  0  0  0  0
 17 23  1  0  0  0  0
 17  4  1  0  0  0  0
 18 17  2  0  0  0  0
 19 18  1  0  0  0  0
 19 21  2  0  0  0  0
 20 19  1  0  0  0  0
 21 22  1  0  0  0  0
 22 23  2  0  0  0  0
M  END
>  <minimizedAffinity>
-4.48159027

$$$$

 OpenBabel03252509173D

 23 25  0  0  0  0  0  0  0  0999 V2000
   38.5230   30.1700   41.1190 C   0  0  0  0  0  0  0  0  0  0  0  0
   39.0240   29.6580   42.3490 C   0  0  0  0  0  0  0  0  0  0  0  0
   38.9850   28.3130   42.5420 C   0  0  0  0  0  0  0  0  0  0  0  0
   38.4530   27.4830   41.5230 C   0  0  0  0  0  0  0  0  0  0  0  0
   37.9840   28.6740   40.2200 S   0  0  0  0  0  0  0  0  0  0  0  0
   39.4200   30.3280   43.0980 H   0  0  0  0  0  0  0  0  0  0  0  0
   39.3250   27.8070   43.4120 H   0  0  0  0  0  0  0  0  0  0  0  0
   39.2280   33.7910   40.7400 C   0  0  0  0  0  0  0  0  0  0  0  0
   38.1240   34.1610   39.9290 C   0  0  0  0  0  0  0  0  0  0  0  0
   37.2060   33.1740   39.5530 C   0  0  0  0  0  0  0  0  0  0  0  0
   37.4310   31.8950   39.9990 N   0  0  0  0  0  0  0  0  0  0  0  0
   38.4990   31.5910   40.7710 C   0  0  0  0  0  0  0  0  0  0  0  0
   39.3990   32.5360   41.1430 N   0  0  0  0  0  0  0  0  0  0  0  0
   39.9010   34.5690   41.0020 H   0  0  0  0  0  0  0  0  0  0  0  0
   37.9390   35.1650   39.5730 H   0  0  0  0  0  0  0  0  0  0  0  0
   36.3380   33.3700   38.9390 H   0  0  0  0  0  0  0  0  0  0  0  0
   38.2760   26.1160   41.4100 C   0  0  0  0  0  0  0  0  0  0  0  0
   37.2550   25.4960   42.0970 C   0  0  0  0  0  3  0  0  0  0  0  0
   37.1230   24.1110   41.9450 C   0  0  0  0  0  0  0  0  0  0  0  0
   36.3270   23.6150   42.4780 H   0  0  0  0  0  0  0  0  0  0  0  0
   37.9890   23.4400   41.1410 N   0  0  0  0  0  0  0  0  0  0  0  0
   38.9740   24.0770   40.4850 C   0  0  0  0  0  3  0  0  0  0  0  0
   39.1170   25.4270   40.6220 N   0  0  0  0  0  0  0  0  0  0  0  0
  1  2  2  0  0  0  0
  2  3  1  0  0  0  0
  2  6  1  0  0  0  0
  3  7  1  0  0  0  0
  4  3  2  0  0  0  0
  5  1  1  0  0  0  0
  5  4  1  0  0  0  0
  8 14  1  0  0  0  0
  8 13  1  0  0  0  0
  9  8  2  0  0  0  0
 10  9  1  0  0  0  0
 10 11  2  0  0  0  0
 11 12  1  0  0  0  0
 12  1  1  0  0  0  0
 12 13  2  0  0  0  0
 15  9  1  0  0  0  0
 16 10  1  0  0  0  0
 17  4  1  0  0  0  0
 17 18  1  0  0  0  0
 19 18  2  0  0  0  0
 19 20  1  0  0  0  0
 21 19  1  0  0  0  0
 22 23  1  0  0  0  0
 22 21  2  0  0  0  0
 23 17  2  0  0  0  0
M  END
>  <minimizedAffinity>
-4.39789581

$$$$

 OpenBabel03252509173D

 23 25  0  0  0  0  0  0  0  0999 V2000
   36.6550   27.7590   40.5970 C   0  0  0  0  0  0  0  0  0  0  0  0
   35.7000   28.7610   40.9300 C   0  0  0  0  0  0  0  0  0  0  0  0
   34.8780   29.2080   39.9450 C   0  0  0  0  0  0  0  0  0  0  0  0
   35.0010   28.6670   38.6400 C   0  0  0  0  0  0  0  0  0  0  0  0
   36.3580   27.4560   38.8210 S   0  0  0  0  0  0  0  0  0  0  0  0
   35.6410   29.1450   41.9380 H   0  0  0  0  0  0  0  0  0  0  0  0
   34.1260   29.9500   40.0610 H   0  0  0  0  0  0  0  0  0  0  0  0
   38.7990   25.5130   42.6260 C   0  0  0  0  0  0  0  0  0  0  0  0
   39.4380   26.4780   43.4470 C   0  0  0  0  0  0  0  0  0  0  0  0
   39.1140   27.8290   43.2730 C   0  0  0  0  0  0  0  0  0  0  0  0
   38.1880   28.1400   42.3090 N   0  0  0  0  0  0  0  0  0  0  0  0
   37.6050   27.1830   41.5500 C   0  0  0  0  0  0  0  0  0  0  0  0
   37.9080   25.8700   41.7060 N   0  0  0  0  0  0  0  0  0  0  0  0
   39.0710   24.5000   42.7890 H   0  0  0  0  0  0  0  0  0  0  0  0
   40.1680   26.2420   44.2090 H   0  0  0  0  0  0  0  0  0  0  0  0
   39.5530   28.6260   43.8560 H   0  0  0  0  0  0  0  0  0  0  0  0
   34.3370   28.8990   37.4500 C   0  0  0  0  0  0  0  0  0  0  0  0
   35.0370   28.9170   36.2630 C   0  0  0  0  0  3  0  0  0  0  0  0
   34.3130   29.1570   35.0900 C   0  0  0  0  0  0  0  0  0  0  0  0
   34.8510   29.1730   34.1560 H   0  0  0  0  0  0  0  0  0  0  0  0
   32.9710   29.3600   35.1610 N   0  0  0  0  0  0  0  0  0  0  0  0
   32.3200   29.3360   36.3370 C   0  0  0  0  0  3  0  0  0  0  0  0
   33.0110   29.1030   37.4900 N   0  0  0  0  0  0  0  0  0  0  0  0
  1  2  2  0  0  0  0
  1 12  1  0  0  0  0
  2  6  1  0  0  0  0
  3  7  1  0  0  0  0
  3  2  1  0  0  0  0
  4  5  1  0  0  0  0
  4  3  2  0  0  0  0
  5  1  1  0  0  0  0
  8 14  1  0  0  0  0
  8  9  1  0  0  0  0
  9 15  1  0  0  0  0
 10  9  2  0  0  0  0
 10 16  1  0  0  0  0
 11 10  1  0  0  0  0
 12 13  1  0  0  0  0
 12 11  2  0  0  0  0
 13  8  2  0  0  0  0
 17 23  1  0  0  0  0
 17  4  1  0  0  0  0
 18 17  2  0  0  0  0
 19 21  2  0  0  0  0
 19 18  1  0  0  0  0
 20 19  1  0  0  0  0
 21 22  1  0  0  0  0
 22 23  2  0  0  0  0
M  END
>  <minimizedAffinity>
-4.2288599

$$$$

 OpenBabel03252509173D

 23 25  0  0  0  0  0  0  0  0999 V2000
   36.1260   28.0550   40.2460 C   0  0  0  0  0  0  0  0  0  0  0  0
   36.2520   27.1740   39.1350 C   0  0  0  0  0  0  0  0  0  0  0  0
   35.4450   27.3840   38.0620 C   0  0  0  0  0  0  0  0  0  0  0  0
   34.5210   28.4590   38.0900 C   0  0  0  0  0  0  0  0  0  0  0  0
   34.8140   29.2130   39.7280 S   0  0  0  0  0  0  0  0  0  0  0  0
   36.9710   26.3670   39.1560 H   0  0  0  0  0  0  0  0  0  0  0  0
   35.4390   26.8000   37.1730 H   0  0  0  0  0  0  0  0  0  0  0  0
   37.9080   28.6710   43.4400 C   0  0  0  0  0  0  0  0  0  0  0  0
   38.4810   27.3880   43.6400 C   0  0  0  0  0  0  0  0  0  0  0  0
   38.2370   26.3880   42.6910 C   0  0  0  0  0  0  0  0  0  0  0  0
   37.4500   26.7140   41.6150 N   0  0  0  0  0  0  0  0  0  0  0  0
   36.9250   27.9520   41.4680 C   0  0  0  0  0  0  0  0  0  0  0  0
   37.1510   28.9320   42.3780 N   0  0  0  0  0  0  0  0  0  0  0  0
   38.1170   29.4010   44.1820 H   0  0  0  0  0  0  0  0  0  0  0  0
   39.1020   27.1230   44.4840 H   0  0  0  0  0  0  0  0  0  0  0  0
   38.6350   25.3860   42.7670 H   0  0  0  0  0  0  0  0  0  0  0  0
   33.5860   28.9290   37.1870 C   0  0  0  0  0  0  0  0  0  0  0  0
   33.8840   28.9630   35.8420 C   0  0  0  0  0  3  0  0  0  0  0  0
   32.8990   29.4490   34.9750 C   0  0  0  0  0  0  0  0  0  0  0  0
   33.1220   29.4800   33.9200 H   0  0  0  0  0  0  0  0  0  0  0  0
   31.7060   29.8610   35.4790 N   0  0  0  0  0  0  0  0  0  0  0  0
   31.4490   29.8140   36.7970 C   0  0  0  0  0  3  0  0  0  0  0  0
   32.3980   29.3440   37.6570 N   0  0  0  0  0  0  0  0  0  0  0  0
  1 12  1  0  0  0  0
  2  6  1  0  0  0  0
  2  1  2  0  0  0  0
  3  4  2  0  0  0  0
  3  2  1  0  0  0  0
  4  5  1  0  0  0  0
  5  1  1  0  0  0  0
  7  3  1  0  0  0  0
  8  9  1  0  0  0  0
  8 14  1  0  0  0  0
  9 15  1  0  0  0  0
 10 16  1  0  0  0  0
 10  9  2  0  0  0  0
 11 10  1  0  0  0  0
 12 11  2  0  0  0  0
 12 13  1  0  0  0  0
 13  8  2  0  0  0  0
 17 23  1  0  0  0  0
 17  4  1  0  0  0  0
 18 17  2  0  0  0  0
 19 21  2  0  0  0  0
 19 18  1  0  0  0  0
 20 19  1  0  0  0  0
 21 22  1  0  0  0  0
 22 23  2  0  0  0  0
M  END
>  <minimizedAffinity>
-4.12510633

$$$$

 OpenBabel03252509173D

 23 25  0  0  0  0  0  0  0  0999 V2000
   39.0520   30.1970   41.1810 C   0  0  0  0  0  0  0  0  0  0  0  0
   38.9850   31.5240   41.6910 C   0  0  0  0  0  0  0  0  0  0  0  0
   39.7970   32.4600   41.1340 C   0  0  0  0  0  0  0  0  0  0  0  0
   40.6680   32.0840   40.0800 C   0  0  0  0  0  0  0  0  0  0  0  0
   40.3150   30.3050   39.8670 S   0  0  0  0  0  0  0  0  0  0  0  0
   38.3060   31.7670   42.4950 H   0  0  0  0  0  0  0  0  0  0  0  0
   39.8440   33.4830   41.4220 H   0  0  0  0  0  0  0  0  0  0  0  0
   37.0590   27.0940   41.5790 C   0  0  0  0  0  0  0  0  0  0  0  0
   36.7390   27.1960   42.9580 C   0  0  0  0  0  0  0  0  0  0  0  0
   37.2120   28.3000   43.6770 C   0  0  0  0  0  0  0  0  0  0  0  0
   37.9630   29.2260   42.9970 N   0  0  0  0  0  0  0  0  0  0  0  0
   38.2410   29.0850   41.6800 C   0  0  0  0  0  0  0  0  0  0  0  0
   37.7910   28.0210   40.9690 N   0  0  0  0  0  0  0  0  0  0  0  0
   36.6820   26.2430   41.0700 H   0  0  0  0  0  0  0  0  0  0  0  0
   36.1490   26.4710   43.5020 H   0  0  0  0  0  0  0  0  0  0  0  0
   37.0150   28.4540   44.7290 H   0  0  0  0  0  0  0  0  0  0  0  0
   41.5930   32.7770   39.3220 C   0  0  0  0  0  0  0  0  0  0  0  0
   42.8360   33.0630   39.8450 C   0  0  0  0  0  3  0  0  0  0  0  0
   43.7320   33.7660   39.0320 C   0  0  0  0  0  0  0  0  0  0  0  0
   44.7080   33.9950   39.4310 H   0  0  0  0  0  0  0  0  0  0  0  0
   43.3530   34.1360   37.7800 N   0  0  0  0  0  0  0  0  0  0  0  0
   42.1320   33.8400   37.3020 C   0  0  0  0  0  3  0  0  0  0  0  0
   41.2460   33.1550   38.0810 N   0  0  0  0  0  0  0  0  0  0  0  0
  1 12  1  0  0  0  0
  1  2  2  0  0  0  0
  2  6  1  0  0  0  0
  3  7  1  0  0  0  0
  3  2  1  0  0  0  0
  4  3  2  0  0  0  0
  5  4  1  0  0  0  0
  5  1  1  0  0  0  0
  8  9  1  0  0  0  0
  9 15  1  0  0  0  0
  9 10  2  0  0  0  0
 10 16  1  0  0  0  0
 11 10  1  0  0  0  0
 12 11  2  0  0  0  0
 13  8  2  0  0  0  0
 13 12  1  0  0  0  0
 14  8  1  0  0  0  0
 17 18  1  0  0  0  0
 17  4  1  0  0  0  0
 19 20  1  0  0  0  0
 19 18  2  0  0  0  0
 21 19  1  0  0  0  0
 22 21  2  0  0  0  0
 22 23  1  0  0  0  0
 23 17  2  0  0  0  0
M  END
>  <minimizedAffinity>
-4.1072855

$$$$

 OpenBabel03252509173D

 23 25  0  0  0  0  0  0  0  0999 V2000
   34.4740   28.5890   38.0740 C   0  0  0  0  0  0  0  0  0  0  0  0
   35.3280   27.4640   37.8930 C   0  0  0  0  0  0  0  0  0  0  0  0
   36.1630   27.1300   38.9120 C   0  0  0  0  0  0  0  0  0  0  0  0
   36.1520   27.9040   40.1000 C   0  0  0  0  0  0  0  0  0  0  0  0
   34.8870   29.1750   39.7530 S   0  0  0  0  0  0  0  0  0  0  0  0
   35.3030   26.9030   36.9710 H   0  0  0  0  0  0  0  0  0  0  0  0
   36.8480   26.3170   38.9030 H   0  0  0  0  0  0  0  0  0  0  0  0
   32.7510   29.6030   34.9500 C   0  0  0  0  0  0  0  0  0  0  0  0
   31.5100   30.0260   35.4930 C   0  0  0  0  0  0  0  0  0  0  0  0
   31.3210   29.9450   36.8780 C   0  0  0  0  0  0  0  0  0  0  0  0
   32.3590   29.4580   37.6330 N   0  0  0  0  0  0  0  0  0  0  0  0
   33.5250   29.0680   37.0680 C   0  0  0  0  0  0  0  0  0  0  0  0
   33.7240   29.1390   35.7280 N   0  0  0  0  0  0  0  0  0  0  0  0
   32.8550   29.6800   33.8960 H   0  0  0  0  0  0  0  0  0  0  0  0
   30.6880   30.4100   34.9060 H   0  0  0  0  0  0  0  0  0  0  0  0
   30.4080   30.2450   37.3720 H   0  0  0  0  0  0  0  0  0  0  0  0
   36.8580   27.8300   41.2860 C   0  0  0  0  0  0  0  0  0  0  0  0
   37.4390   26.6400   41.6670 C   0  0  0  0  0  3  0  0  0  0  0  0
   38.1420   26.6240   42.8780 C   0  0  0  0  0  0  0  0  0  0  0  0
   38.6010   25.6970   43.1860 H   0  0  0  0  0  0  0  0  0  0  0  0
   38.2240   27.7590   43.6200 N   0  0  0  0  0  0  0  0  0  0  0  0
   37.6440   28.9030   43.2170 C   0  0  0  0  0  3  0  0  0  0  0  0
   36.9560   28.9360   42.0400 N   0  0  0  0  0  0  0  0  0  0  0  0
  1  5  1  0  0  0  0
  2  1  2  0  0  0  0
  2  3  1  0  0  0  0
  3  4  2  0  0  0  0
  4 17  1  0  0  0  0
  5  4  1  0  0  0  0
  6  2  1  0  0  0  0
  7  3  1  0  0  0  0
  8  9  2  0  0  0  0
  8 13  1  0  0  0  0
  9 10  1  0  0  0  0
 10 16  1  0  0  0  0
 10 11  2  0  0  0  0
 12 11  1  0  0  0  0
 12  1  1  0  0  0  0
 13 12  2  0  0  0  0
 14  8  1  0  0  0  0
 15  9  1  0  0  0  0
 17 18  2  0  0  0  0
 17 23  1  0  0  0  0
 18 19  1  0  0  0  0
 19 20  1  0  0  0  0
 19 21  2  0  0  0  0
 22 21  1  0  0  0  0
 23 22  2  0  0  0  0
M  END
>  <minimizedAffinity>
-4.07179356

$$$$

 OpenBabel03252509173D

 23 25  0  0  0  0  0  0  0  0999 V2000
   38.9470   30.4090   40.4630 C   0  0  0  0  0  0  0  0  0  0  0  0
   38.4000   30.2090   41.7620 C   0  0  0  0  0  0  0  0  0  0  0  0
   37.8530   28.9970   42.0420 C   0  0  0  0  0  0  0  0  0  0  0  0
   37.8490   27.9910   41.0430 C   0  0  0  0  0  0  0  0  0  0  0  0
   38.6660   28.8090   39.6280 S   0  0  0  0  0  0  0  0  0  0  0  0
   38.4240   31.0040   42.4930 H   0  0  0  0  0  0  0  0  0  0  0  0
   37.4120   28.7200   42.9690 H   0  0  0  0  0  0  0  0  0  0  0  0
   40.8940   33.0300   38.7030 C   0  0  0  0  0  0  0  0  0  0  0  0
   40.5320   34.1560   39.4860 C   0  0  0  0  0  0  0  0  0  0  0  0
   39.6530   33.9730   40.5600 C   0  0  0  0  0  0  0  0  0  0  0  0
   39.1920   32.7010   40.7930 N   0  0  0  0  0  0  0  0  0  0  0  0
   39.5660   31.6580   40.0180 C   0  0  0  0  0  0  0  0  0  0  0  0
   40.4160   31.8180   38.9720 N   0  0  0  0  0  0  0  0  0  0  0  0
   41.5610   33.2100   37.8980 H   0  0  0  0  0  0  0  0  0  0  0  0
   40.8900   35.1610   39.3100 H   0  0  0  0  0  0  0  0  0  0  0  0
   39.3270   34.7760   41.2070 H   0  0  0  0  0  0  0  0  0  0  0  0
   37.3840   26.6890   41.0090 C   0  0  0  0  0  0  0  0  0  0  0  0
   36.9420   26.1470   39.8220 C   0  0  0  0  0  3  0  0  0  0  0  0
   36.4820   24.8250   39.8480 C   0  0  0  0  0  0  0  0  0  0  0  0
   36.1340   24.3900   38.9240 H   0  0  0  0  0  0  0  0  0  0  0  0
   36.4880   24.1370   41.0200 N   0  0  0  0  0  0  0  0  0  0  0  0
   36.9270   24.6970   42.1600 C   0  0  0  0  0  3  0  0  0  0  0  0
   37.3780   25.9850   42.1520 N   0  0  0  0  0  0  0  0  0  0  0  0
  1  2  2  0  0  0  0
  2  3  1  0  0  0  0
  2  6  1  0  0  0  0
  3  7  1  0  0  0  0
  4  3  2  0  0  0  0
  5  1  1  0  0  0  0
  5  4  1  0  0  0  0
  8 13  2  0  0  0  0
  8  9  1  0  0  0  0
  9 10  2  0  0  0  0
 10 11  1  0  0  0  0
 10 16  1  0  0  0  0
 12  1  1  0  0  0  0
 12 11  2  0  0  0  0
 13 12  1  0  0  0  0
 14  8  1  0  0  0  0
 15  9  1  0  0  0  0
 17  4  1  0  0  0  0
 17 23  1  0  0  0  0
 18 19  1  0  0  0  0
 18 17  2  0  0  0  0
 19 21  2  0  0  0  0
 20 19  1  0  0  0  0
 21 22  1  0  0  0  0
 23 22  2  0  0  0  0
M  END
>  <minimizedAffinity>
-4.04061174

$$$$
