
 OpenBabel03242520563D

 39 41  0  0  0  0  0  0  0  0999 V2000
   48.5520   31.2160   48.6730 C   0  0  0  0  0  0  0  0  0  0  0  0
   47.5220   32.0270   48.7650 C   0  0  0  0  0  0  0  0  0  0  0  0
   51.1480   31.9800   51.1300 C   0  0  0  0  0  0  0  0  0  0  0  0
   51.2840   30.7410   51.8230 C   0  0  0  0  0  0  0  0  0  0  0  0
   50.4850   29.6840   51.4230 C   0  0  0  0  0  0  0  0  0  0  0  0
   49.6410   29.9010   50.4130 N   0  0  0  0  0  0  0  0  0  0  0  0
   49.5100   31.0520   49.7640 C   0  0  0  0  0  0  0  0  0  0  0  0
   50.2700   32.1120   50.1210 N   0  0  0  0  0  0  0  0  0  0  0  0
   51.6770   32.9190   51.2880 H   0  0  0  0  0  0  0  0  0  0  0  0
   52.2720   31.0000   52.8540 C   0  0  0  0  0  0  0  0  0  0  0  0
   53.5680   31.4350   52.7990 C   0  0  0  0  0  0  0  0  0  0  0  0
   54.4200   31.7070   53.8390 C   0  0  0  0  0  0  0  0  0  0  0  0
   55.4130   32.0420   53.6080 H   0  0  0  0  0  0  0  0  0  0  0  0
   53.8600   31.5070   55.0420 N   0  0  0  0  0  0  0  0  0  0  0  0
   52.5960   31.0830   55.1870 C   0  0  0  0  0  0  0  0  0  0  0  0
   51.8140   30.8330   54.1330 N   0  0  0  0  0  0  0  0  0  0  0  0
   50.5550   28.4780   52.0350 O   0  0  0  0  0  0  0  0  0  0  0  0
   51.5520   27.5620   51.6010 C   0  0  0  0  0  0  0  0  0  0  0  0
   52.0420   27.9800   50.3580 F   0  0  0  0  0  0  0  0  0  0  0  0
   52.5910   27.6630   52.5250 F   0  0  0  0  0  0  0  0  0  0  0  0
   51.1330   26.2360   51.5620 F   0  0  0  0  0  0  0  0  0  0  0  0
   46.5720   32.1610   47.6280 C   0  0  0  0  0  0  0  0  0  0  0  0
   46.3630   31.1430   47.3030 H   0  0  0  0  0  0  0  0  0  0  0  0
   45.6140   32.5360   48.0840 H   0  0  0  0  0  0  0  0  0  0  0  0
   46.5650   32.7810   45.3730 C   0  0  0  0  0  0  0  0  0  0  0  0
   45.8440   31.8780   44.8860 O   0  0  0  0  0  0  0  0  0  0  0  0
   47.0000   33.0800   46.6600 N   0  0  0  0  0  0  0  0  0  0  0  0
   47.5860   33.9260   46.8080 H   0  0  0  0  0  0  0  0  0  0  0  0
   44.8640   35.1430   44.4580 Cl  0  0  0  0  0  0  0  0  0  0  0  0
   46.2590   34.6140   43.5770 C   0  0  0  0  0  0  0  0  0  0  0  0
   46.8840   33.5380   44.1560 C   0  0  0  0  0  0  0  0  0  0  0  0
   48.0310   32.9840   43.5670 C   0  0  0  0  0  0  0  0  0  0  0  0
   48.5430   33.5220   42.3900 C   0  0  0  0  0  0  0  0  0  0  0  0
   47.9030   34.6020   41.8220 C   0  0  0  0  0  0  0  0  0  0  0  0
   48.4810   35.3320   40.3470 Cl  0  0  0  0  0  0  0  0  0  0  0  0
   46.7870   35.1240   42.4160 C   0  0  0  0  0  0  0  0  0  0  0  0
   48.6100   32.1440   43.9220 H   0  0  0  0  0  0  0  0  0  0  0  0
   49.4160   33.1430   41.8930 H   0  0  0  0  0  0  0  0  0  0  0  0
   46.2220   35.9820   42.0240 H   0  0  0  0  0  0  0  0  0  0  0  0
  1  2  2  0  0  0  0
  1  7  1  0  0  0  0
  3  9  1  0  0  0  0
  3  4  1  0  0  0  0
  4 10  1  0  0  0  0
  5  4  2  0  0  0  0
  5 17  1  0  0  0  0
  6  5  1  0  0  0  0
  7  8  1  0  0  0  0
  7  6  2  0  0  0  0
  8  3  2  0  0  0  0
 10 16  1  0  0  0  0
 11 10  2  0  0  0  0
 11 12  1  0  0  0  0
 12 14  2  0  0  0  0
 13 12  1  0  0  0  0
 14 15  1  0  0  0  0
 16 15  2  0  0  0  0
 18 17  1  0  0  0  0
 18 20  1  0  0  0  0
 19 18  1  0  0  0  0
 21 18  1  0  0  0  0
 22 24  1  0  0  0  0
 22  2  1  0  0  0  0
 23 22  1  0  0  0  0
 25 27  1  0  0  0  0
 26 25  2  0  0  0  0
 27 28  1  0  0  0  0
 27 22  1  0  0  0  0
 30 31  1  0  0  0  0
 30 29  1  0  0  0  0
 31 25  1  0  0  0  0
 32 37  1  0  0  0  0
 32 31  2  0  0  0  0
 33 32  1  0  0  0  0
 34 33  2  0  0  0  0
 34 36  1  0  0  0  0
 35 34  1  0  0  0  0
 36 30  2  0  0  0  0
 38 33  1  0  0  0  0
 39 36  1  0  0  0  0
M  END
>  <minimizedAffinity>
-7.12581253

>  <minimizedRMSD>
0.503337085

$$$$
