
 OpenBabel03252509043D

 46 48  0  0  1  0  0  0  0  0999 V2000
   47.3170   34.0380   42.8960 N   0  0  0  0  0  0  0  0  0  0  0  0
   46.8810   35.2840   42.3830 C   0  0  0  0  0  0  0  0  0  0  0  0
   45.3930   35.5390   42.4910 C   0  0  0  0  0  0  0  0  0  0  0  0
   44.7320   34.9020   43.6890 C   0  0  0  0  0  0  0  0  0  0  0  0
   45.7480   34.2470   44.5960 C   0  0  0  0  0  0  0  0  0  0  0  0
   46.4810   33.2290   43.6390 C   0  0  2  0  0  0  0  0  0  0  0  0
   47.3770   36.0790   43.0080 H   0  0  0  0  0  0  0  0  0  0  0  0
   47.1630   35.5250   41.3540 H   0  0  0  0  0  0  0  0  0  0  0  0
   44.8950   35.2300   41.5330 H   0  0  0  0  0  0  0  0  0  0  0  0
   45.2080   36.6400   42.5760 H   0  0  0  0  0  0  0  0  0  0  0  0
   44.0240   35.5660   44.2100 H   0  0  0  0  0  0  0  0  0  0  0  0
   44.1120   34.0520   43.2890 H   0  0  0  0  0  0  0  0  0  0  0  0
   46.4880   34.9450   44.9990 H   0  0  0  0  0  0  0  0  0  0  0  0
   45.1850   33.6770   45.3590 H   0  0  0  0  0  0  0  0  0  0  0  0
   45.6730   32.6730   43.1210 H   0  0  0  0  0  0  0  0  0  0  0  0
   48.3550   33.4080   42.1050 C   0  0  0  0  0  0  0  0  0  0  0  0
   48.9040   34.2350   41.6070 H   0  0  0  0  0  0  0  0  0  0  0  0
   49.1110   32.8970   42.7530 H   0  0  0  0  0  0  0  0  0  0  0  0
   47.7160   32.5210   41.1050 C   0  0  0  0  0  0  0  0  0  0  0  0
   47.9360   31.4730   41.3150 H   0  0  0  0  0  0  0  0  0  0  0  0
   46.5880   32.5920   41.1590 H   0  0  0  0  0  0  0  0  0  0  0  0
   49.4120   32.3950   37.7430 C   0  0  0  0  0  0  0  0  0  0  0  0
   48.9590   32.0570   39.0340 C   0  0  0  0  0  0  0  0  0  0  0  0
   48.1760   32.9080   39.7470 C   0  0  0  0  0  0  0  0  0  0  0  0
   47.8610   34.0690   39.1680 N   0  0  0  0  0  0  0  0  0  0  0  0
   48.2770   34.4150   37.9410 C   0  0  0  0  0  0  0  0  0  0  0  0
   49.0530   33.5930   37.2130 N   0  0  0  0  0  0  0  0  0  0  0  0
   50.0250   31.7570   37.1550 H   0  0  0  0  0  0  0  0  0  0  0  0
   49.3060   31.0870   39.3420 H   0  0  0  0  0  0  0  0  0  0  0  0
   47.9440   35.3900   37.5950 H   0  0  0  0  0  0  0  0  0  0  0  0
   47.1650   32.4520   44.5440 O   0  0  0  0  0  0  0  0  0  0  0  0
   45.3080   30.6680   43.8370 O   0  0  0  0  0  0  0  0  0  0  0  0
   46.4050   31.0020   44.8740 P   0  0  2  0  0  0  0  0  0  0  0  0
   45.5090   31.2420   46.3290 O   0  0  0  0  0  0  0  0  0  0  0  0
   46.1230   31.7040   46.9620 H   0  0  0  0  0  0  0  0  0  0  0  0
   47.4140   29.7190   45.1180 O   0  0  0  0  0  0  0  0  0  0  0  0
   47.6860   29.0710   43.9420 C   0  0  0  0  0  0  0  0  0  0  0  0
   46.7320   29.1620   43.3310 H   0  0  0  0  0  0  0  0  0  0  0  0
   47.6900   27.9660   44.1910 H   0  0  0  0  0  0  0  0  0  0  0  0
   48.8600   29.4790   43.1890 C   0  0  0  0  0  0  0  0  0  0  0  0
   48.8570   28.8770   41.9260 C   0  0  0  0  0  3  0  0  0  0  0  0
   49.9010   29.2100   41.0560 C   0  0  0  0  0  0  0  0  0  0  0  0
   49.9850   28.7900   40.0410 H   0  0  0  0  0  0  0  0  0  0  0  0
   50.8850   30.0680   41.3810 N   0  0  0  0  0  0  0  0  0  0  0  0
   50.8430   30.6190   42.6080 C   0  0  0  0  0  3  0  0  0  0  0  0
   49.8680   30.3430   43.4920 N   0  0  0  0  0  0  0  0  0  0  0  0
  1  6  1  0  0  0  0
  2  3  1  0  0  0  0
  2  1  1  0  0  0  0
  2  7  1  0  0  0  0
  3 10  1  0  0  0  0
  3  4  1  0  0  0  0
  4 11  1  0  0  0  0
  4  5  1  0  0  0  0
  5 13  1  0  0  0  0
  5 14  1  0  0  0  0
  6 15  1  6  0  0  0
  6 31  1  0  0  0  0
  6  5  1  0  0  0  0
  8  2  1  0  0  0  0
  9  3  1  0  0  0  0
 12  4  1  0  0  0  0
 16 18  1  0  0  0  0
 16  1  1  0  0  0  0
 17 16  1  0  0  0  0
 19 21  1  0  0  0  0
 19 20  1  0  0  0  0
 19 16  1  0  0  0  0
 22 23  1  0  0  0  0
 23 29  1  0  0  0  0
 23 24  2  0  0  0  0
 24 19  1  0  0  0  0
 25 24  1  0  0  0  0
 26 25  2  0  0  0  0
 27 22  2  0  0  0  0
 27 26  1  0  0  0  0
 28 22  1  0  0  0  0
 30 26  1  0  0  0  0
 31 33  1  0  0  0  0
 33 32  2  6  0  0  0
 33 36  1  0  0  0  0
 33 34  1  0  0  0  0
 34 35  1  0  0  0  0
 37 39  1  0  0  0  0
 37 36  1  0  0  0  0
 38 37  1  0  0  0  0
 40 46  1  0  0  0  0
 40 37  1  0  0  0  0
 41 40  2  0  0  0  0
 42 44  2  0  0  0  0
 42 41  1  0  0  0  0
 43 42  1  0  0  0  0
 44 45  1  0  0  0  0
 45 46  2  0  0  0  0
M  END
>  <minimizedAffinity>
-3.68277144

>  <minimizedRMSD>
1.2737056

$$$$
