
 OpenBabel03252507233D

 45 48  0  0  1  0  0  0  0  0999 V2000
   39.0700   29.3280   40.3390 C   0  0  0  0  0  0  0  0  0  0  0  0
   39.6720   28.8760   39.3240 O   0  0  0  0  0  0  0  0  0  0  0  0
   38.6000   28.5150   41.4010 N   0  0  0  0  0  0  0  0  0  0  0  0
   38.6800   28.7160   42.8580 C   0  0  0  0  0  0  0  0  0  0  0  0
   37.2890   28.5710   43.4650 C   0  0  0  0  0  0  0  0  0  0  0  0
   36.7880   27.1780   43.2810 C   0  0  0  0  0  0  0  0  0  0  0  0
   37.6470   26.4550   42.2610 C   0  0  0  0  0  0  0  0  0  0  0  0
   37.9450   27.2850   41.0670 C   0  0  2  0  0  0  0  0  0  0  0  0
   39.0090   29.7650   43.0370 H   0  0  0  0  0  0  0  0  0  0  0  0
   39.3280   27.9540   43.3230 H   0  0  0  0  0  0  0  0  0  0  0  0
   36.6210   29.2980   42.9640 H   0  0  0  0  0  0  0  0  0  0  0  0
   37.3910   28.8720   44.5250 H   0  0  0  0  0  0  0  0  0  0  0  0
   35.7110   27.0930   43.0510 H   0  0  0  0  0  0  0  0  0  0  0  0
   36.9420   26.6390   44.2420 H   0  0  0  0  0  0  0  0  0  0  0  0
   37.0170   25.5860   41.9170 H   0  0  0  0  0  0  0  0  0  0  0  0
   38.5520   26.0300   42.7050 H   0  0  0  0  0  0  0  0  0  0  0  0
   36.9410   27.5940   40.6410 H   0  0  0  0  0  0  0  0  0  0  0  0
   39.9270   31.5540   40.8700 C   0  0  0  0  0  0  0  0  0  0  0  0
   38.8590   30.7540   40.4040 C   0  0  0  0  0  0  0  0  0  0  0  0
   37.6590   31.3390   40.0250 C   0  0  0  0  0  0  0  0  0  0  0  0
   37.5650   32.6860   40.1220 N   0  0  0  0  0  0  0  0  0  0  0  0
   38.5820   33.4740   40.5670 C   0  0  0  0  0  0  0  0  0  0  0  0
   39.7450   32.8890   40.9340 N   0  0  0  0  0  0  0  0  0  0  0  0
   40.8430   31.0570   41.1560 H   0  0  0  0  0  0  0  0  0  0  0  0
   38.4430   34.5450   40.6210 H   0  0  0  0  0  0  0  0  0  0  0  0
   36.5920   30.4910   39.5610 C   0  0  0  0  0  0  0  0  0  0  0  0
   35.6630   30.0100   40.4200 C   0  0  0  0  0  0  0  0  0  0  0  0
   34.6520   29.2010   39.9420 C   0  0  0  0  0  0  0  0  0  0  0  0
   34.5400   28.8510   38.6000 C   0  0  0  0  0  0  0  0  0  0  0  0
   35.5140   29.3680   37.7630 C   0  0  0  0  0  0  0  0  0  0  0  0
   36.4820   30.1490   38.2550 N   0  0  0  0  0  0  0  0  0  0  0  0
   35.6290   30.1970   41.4820 H   0  0  0  0  0  0  0  0  0  0  0  0
   33.8880   28.7950   40.5920 H   0  0  0  0  0  0  0  0  0  0  0  0
   33.7500   28.2170   38.2200 H   0  0  0  0  0  0  0  0  0  0  0  0
   35.4840   29.1330   36.7070 H   0  0  0  0  0  0  0  0  0  0  0  0
   38.6030   26.4830   40.0000 C   0  0  0  0  0  0  0  0  0  0  0  0
   39.5450   26.8260   39.5890 H   0  0  0  0  0  0  0  0  0  0  0  0
   38.8330   25.4770   40.4090 H   0  0  0  0  0  0  0  0  0  0  0  0
   37.6290   26.1950   38.8630 C   0  0  0  0  0  0  0  0  0  0  0  0
   36.4020   25.5990   39.0980 C   0  0  0  0  0  3  0  0  0  0  0  0
   35.5420   25.3430   38.0380 C   0  0  0  0  0  0  0  0  0  0  0  0
   34.5710   24.8710   38.2180 H   0  0  0  0  0  0  0  0  0  0  0  0
   35.9110   25.6790   36.7870 N   0  0  0  0  0  0  0  0  0  0  0  0
   37.1100   26.2570   36.6000 C   0  0  0  0  0  3  0  0  0  0  0  0
   37.9710   26.5210   37.6000 N   0  0  0  0  0  0  0  0  0  0  0  0
  1 19  1  0  0  0  0
  1  3  1  0  0  0  0
  2  1  2  0  0  0  0
  3  4  1  0  0  0  0
  4  9  1  0  0  0  0
  4 10  1  0  0  0  0
  4  5  1  0  0  0  0
  5 12  1  0  0  0  0
  6  5  1  0  0  0  0
  6 14  1  0  0  0  0
  7 16  1  0  0  0  0
  7  6  1  0  0  0  0
  8 17  1  6  0  0  0
  8  3  1  0  0  0  0
  8  7  1  0  0  0  0
 11  5  1  0  0  0  0
 13  6  1  0  0  0  0
 15  7  1  0  0  0  0
 18 23  1  0  0  0  0
 18 24  1  0  0  0  0
 19 18  2  0  0  0  0
 20 21  2  0  0  0  0
 20 19  1  0  0  0  0
 21 22  1  0  0  0  0
 22 25  1  0  0  0  0
 22 23  2  0  0  0  0
 26 20  1  0  0  0  0
 26 27  1  0  0  0  0
 27 32  1  0  0  0  0
 28 27  2  0  0  0  0
 28 33  1  0  0  0  0
 29 28  1  0  0  0  0
 30 31  1  0  0  0  0
 30 29  2  0  0  0  0
 31 26  2  0  0  0  0
 34 29  1  0  0  0  0
 35 30  1  0  0  0  0
 36 38  1  0  0  0  0
 36  8  1  0  0  0  0
 37 36  1  0  0  0  0
 39 40  1  0  0  0  0
 39 36  1  0  0  0  0
 41 42  1  0  0  0  0
 41 40  2  0  0  0  0
 43 41  1  0  0  0  0
 44 43  2  0  0  0  0
 44 45  1  0  0  0  0
 45 39  2  0  0  0  0
M  END
>  <minimizedAffinity>
-5.86907291

$$$$

 OpenBabel03252507233D

 45 48  0  0  1  0  0  0  0  0999 V2000
   38.4750   30.2180   41.4780 C   0  0  0  0  0  0  0  0  0  0  0  0
   37.7080   29.8980   42.4310 O   0  0  0  0  0  0  0  0  0  0  0  0
   39.4970   29.3740   40.9750 N   0  0  0  0  0  0  0  0  0  0  0  0
   39.8820   29.0730   39.5860 C   0  0  0  0  0  0  0  0  0  0  0  0
   41.3780   29.3100   39.4140 C   0  0  0  0  0  0  0  0  0  0  0  0
   42.1530   28.3560   40.2580 C   0  0  0  0  0  0  0  0  0  0  0  0
   41.2320   27.7010   41.2700 C   0  0  0  0  0  0  0  0  0  0  0  0
   40.3110   28.6680   41.9200 C   0  0  2  0  0  0  0  0  0  0  0  0
   39.3560   29.7980   38.9240 H   0  0  0  0  0  0  0  0  0  0  0  0
   39.6820   28.0150   39.3460 H   0  0  0  0  0  0  0  0  0  0  0  0
   41.5930   30.3560   39.7050 H   0  0  0  0  0  0  0  0  0  0  0  0
   41.5760   29.2080   38.3300 H   0  0  0  0  0  0  0  0  0  0  0  0
   43.0570   28.7760   40.7330 H   0  0  0  0  0  0  0  0  0  0  0  0
   42.5060   27.5350   39.5960 H   0  0  0  0  0  0  0  0  0  0  0  0
   41.9170   27.3010   42.0700 H   0  0  0  0  0  0  0  0  0  0  0  0
   40.7000   26.8410   40.8530 H   0  0  0  0  0  0  0  0  0  0  0  0
   40.9700   29.4610   42.3910 H   0  0  0  0  0  0  0  0  0  0  0  0
   39.1170   32.5710   41.3230 C   0  0  0  0  0  0  0  0  0  0  0  0
   38.2850   31.5170   40.8810 C   0  0  0  0  0  0  0  0  0  0  0  0
   37.3260   31.7450   39.9030 C   0  0  0  0  0  0  0  0  0  0  0  0
   37.2300   33.0000   39.4050 N   0  0  0  0  0  0  0  0  0  0  0  0
   38.0220   34.0270   39.8170 C   0  0  0  0  0  0  0  0  0  0  0  0
   38.9510   33.7910   40.7710 N   0  0  0  0  0  0  0  0  0  0  0  0
   39.8490   32.3500   42.0860 H   0  0  0  0  0  0  0  0  0  0  0  0
   37.8950   35.0090   39.3790 H   0  0  0  0  0  0  0  0  0  0  0  0
   36.4930   30.6480   39.4830 C   0  0  0  0  0  0  0  0  0  0  0  0
   36.6680   30.0660   38.2740 C   0  0  0  0  0  0  0  0  0  0  0  0
   35.8530   29.0150   37.9030 C   0  0  0  0  0  0  0  0  0  0  0  0
   34.8460   28.5180   38.7250 C   0  0  0  0  0  0  0  0  0  0  0  0
   34.7080   29.1470   39.9500 C   0  0  0  0  0  0  0  0  0  0  0  0
   35.5130   30.1640   40.2810 N   0  0  0  0  0  0  0  0  0  0  0  0
   37.4050   30.3490   37.5380 H   0  0  0  0  0  0  0  0  0  0  0  0
   35.9570   28.5200   36.9470 H   0  0  0  0  0  0  0  0  0  0  0  0
   34.2050   27.6950   38.4390 H   0  0  0  0  0  0  0  0  0  0  0  0
   33.9420   28.8080   40.6360 H   0  0  0  0  0  0  0  0  0  0  0  0
   39.5740   28.0380   43.0500 C   0  0  0  0  0  0  0  0  0  0  0  0
   40.0360   28.0130   44.0290 H   0  0  0  0  0  0  0  0  0  0  0  0
   38.6290   28.5970   43.2070 H   0  0  0  0  0  0  0  0  0  0  0  0
   39.1050   26.6370   42.6740 C   0  0  0  0  0  0  0  0  0  0  0  0
   37.9840   26.4380   41.8860 C   0  0  0  0  0  3  0  0  0  0  0  0
   37.5800   25.1480   41.5710 C   0  0  0  0  0  0  0  0  0  0  0  0
   36.6940   24.9850   40.9490 H   0  0  0  0  0  0  0  0  0  0  0  0
   38.2840   24.0980   42.0350 N   0  0  0  0  0  0  0  0  0  0  0  0
   39.3670   24.3330   42.7970 C   0  0  0  0  0  3  0  0  0  0  0  0
   39.7910   25.5670   43.1250 N   0  0  0  0  0  0  0  0  0  0  0  0
  1  2  2  0  0  0  0
  3  1  1  0  0  0  0
  3  8  1  0  0  0  0
  4  3  1  0  0  0  0
  5  4  1  0  0  0  0
  5 11  1  0  0  0  0
  5  6  1  0  0  0  0
  6 13  1  0  0  0  0
  6  7  1  0  0  0  0
  7  8  1  0  0  0  0
  7 15  1  0  0  0  0
  8 17  1  1  0  0  0
  8 36  1  0  0  0  0
  9  4  1  0  0  0  0
 10  4  1  0  0  0  0
 12  5  1  0  0  0  0
 14  6  1  0  0  0  0
 16  7  1  0  0  0  0
 18 24  1  0  0  0  0
 19 18  1  0  0  0  0
 19  1  1  0  0  0  0
 20 19  2  0  0  0  0
 21 22  2  0  0  0  0
 21 20  1  0  0  0  0
 22 23  1  0  0  0  0
 23 18  2  0  0  0  0
 25 22  1  0  0  0  0
 26 20  1  0  0  0  0
 26 31  1  0  0  0  0
 27 26  2  0  0  0  0
 28 27  1  0  0  0  0
 28 29  2  0  0  0  0
 29 30  1  0  0  0  0
 30 31  2  0  0  0  0
 30 35  1  0  0  0  0
 32 27  1  0  0  0  0
 33 28  1  0  0  0  0
 34 29  1  0  0  0  0
 36 38  1  0  0  0  0
 36 37  1  0  0  0  0
 39 36  1  0  0  0  0
 39 45  1  0  0  0  0
 40 39  2  0  0  0  0
 41 40  1  0  0  0  0
 41 43  2  0  0  0  0
 42 41  1  0  0  0  0
 43 44  1  0  0  0  0
 44 45  2  0  0  0  0
M  END
>  <minimizedAffinity>
-5.82745934

$$$$

 OpenBabel03252507233D

 45 48  0  0  1  0  0  0  0  0999 V2000
   37.8230   26.9770   39.6810 C   0  0  0  0  0  0  0  0  0  0  0  0
   38.4760   27.4490   38.7060 O   0  0  0  0  0  0  0  0  0  0  0  0
   37.5360   27.7080   40.8610 N   0  0  0  0  0  0  0  0  0  0  0  0
   36.2880   27.8080   41.6360 C   0  0  0  0  0  0  0  0  0  0  0  0
   36.5740   27.4940   43.0990 C   0  0  0  0  0  0  0  0  0  0  0  0
   37.4870   28.5200   43.6800 C   0  0  0  0  0  0  0  0  0  0  0  0
   38.1140   29.3370   42.5660 C   0  0  0  0  0  0  0  0  0  0  0  0
   38.5840   28.5010   41.4330 C   0  0  2  0  0  0  0  0  0  0  0  0
   35.5920   27.0230   41.2610 H   0  0  0  0  0  0  0  0  0  0  0  0
   35.8800   28.8320   41.5890 H   0  0  0  0  0  0  0  0  0  0  0  0
   37.0330   26.4880   43.1480 H   0  0  0  0  0  0  0  0  0  0  0  0
   35.5870   27.4440   43.5960 H   0  0  0  0  0  0  0  0  0  0  0  0
   38.2440   28.1310   44.3840 H   0  0  0  0  0  0  0  0  0  0  0  0
   36.8610   29.2330   44.2610 H   0  0  0  0  0  0  0  0  0  0  0  0
   39.0230   29.8130   43.0320 H   0  0  0  0  0  0  0  0  0  0  0  0
   37.4670   30.1540   42.2350 H   0  0  0  0  0  0  0  0  0  0  0  0
   39.3110   27.7520   41.8760 H   0  0  0  0  0  0  0  0  0  0  0  0
   36.2590   25.3740   38.7030 C   0  0  0  0  0  0  0  0  0  0  0  0
   37.3510   25.6190   39.5670 C   0  0  0  0  0  0  0  0  0  0  0  0
   37.9360   24.5740   40.2690 C   0  0  0  0  0  0  0  0  0  0  0  0
   37.4180   23.3360   40.0890 N   0  0  0  0  0  0  0  0  0  0  0  0
   36.3690   23.0800   39.2620 C   0  0  0  0  0  0  0  0  0  0  0  0
   35.8080   24.1090   38.5850 N   0  0  0  0  0  0  0  0  0  0  0  0
   35.8340   26.2160   38.1760 H   0  0  0  0  0  0  0  0  0  0  0  0
   36.0020   22.0680   39.1630 H   0  0  0  0  0  0  0  0  0  0  0  0
   39.0430   24.8640   41.1450 C   0  0  0  0  0  0  0  0  0  0  0  0
   38.8840   24.8610   42.4880 C   0  0  0  0  0  0  0  0  0  0  0  0
   39.9660   25.1410   43.2990 C   0  0  0  0  0  0  0  0  0  0  0  0
   41.2300   25.4290   42.7930 C   0  0  0  0  0  0  0  0  0  0  0  0
   41.3400   25.4170   41.4130 C   0  0  0  0  0  0  0  0  0  0  0  0
   40.2730   25.1430   40.6540 N   0  0  0  0  0  0  0  0  0  0  0  0
   37.9640   24.6600   43.0160 H   0  0  0  0  0  0  0  0  0  0  0  0
   39.8860   25.1500   44.3780 H   0  0  0  0  0  0  0  0  0  0  0  0
   42.0810   25.6480   43.4230 H   0  0  0  0  0  0  0  0  0  0  0  0
   42.2970   25.6330   40.9560 H   0  0  0  0  0  0  0  0  0  0  0  0
   39.3780   29.3020   40.4610 C   0  0  0  0  0  0  0  0  0  0  0  0
   40.4470   29.4000   40.6110 H   0  0  0  0  0  0  0  0  0  0  0  0
   39.2850   28.8320   39.4600 H   0  0  0  0  0  0  0  0  0  0  0  0
   38.7630   30.6830   40.2700 C   0  0  0  0  0  0  0  0  0  0  0  0
   37.6200   30.8640   39.5100 C   0  0  0  0  0  3  0  0  0  0  0  0
   37.0910   32.1390   39.3480 C   0  0  0  0  0  0  0  0  0  0  0  0
   36.1880   32.2870   38.7490 H   0  0  0  0  0  0  0  0  0  0  0  0
   37.6960   33.1890   39.9350 N   0  0  0  0  0  0  0  0  0  0  0  0
   38.8040   32.9710   40.6650 C   0  0  0  0  0  3  0  0  0  0  0  0
   39.3480   31.7530   40.8450 N   0  0  0  0  0  0  0  0  0  0  0  0
  1  3  1  0  0  0  0
  2  1  2  0  0  0  0
  3  8  1  0  0  0  0
  3  4  1  0  0  0  0
  4  5  1  0  0  0  0
  5 11  1  0  0  0  0
  5 12  1  0  0  0  0
  5  6  1  0  0  0  0
  6 14  1  0  0  0  0
  6 13  1  0  0  0  0
  7 15  1  0  0  0  0
  7  6  1  0  0  0  0
  8 17  1  1  0  0  0
  8  7  1  0  0  0  0
  9  4  1  0  0  0  0
 10  4  1  0  0  0  0
 16  7  1  0  0  0  0
 18 19  1  0  0  0  0
 19  1  1  0  0  0  0
 19 20  2  0  0  0  0
 20 26  1  0  0  0  0
 21 20  1  0  0  0  0
 22 21  2  0  0  0  0
 23 18  2  0  0  0  0
 23 22  1  0  0  0  0
 24 18  1  0  0  0  0
 25 22  1  0  0  0  0
 26 27  1  0  0  0  0
 27 32  1  0  0  0  0
 27 28  2  0  0  0  0
 28 33  1  0  0  0  0
 29 28  1  0  0  0  0
 29 34  1  0  0  0  0
 30 29  2  0  0  0  0
 31 26  2  0  0  0  0
 31 30  1  0  0  0  0
 35 30  1  0  0  0  0
 36 37  1  0  0  0  0
 36  8  1  0  0  0  0
 38 36  1  0  0  0  0
 39 36  1  0  0  0  0
 39 45  1  0  0  0  0
 40 39  2  0  0  0  0
 41 40  1  0  0  0  0
 41 43  2  0  0  0  0
 42 41  1  0  0  0  0
 43 44  1  0  0  0  0
 44 45  2  0  0  0  0
M  END
>  <minimizedAffinity>
-5.74480057

$$$$

 OpenBabel03252507233D

 45 48  0  0  1  0  0  0  0  0999 V2000
   38.8340   30.6740   41.7540 C   0  0  0  0  0  0  0  0  0  0  0  0
   39.2530   30.4020   42.9150 O   0  0  0  0  0  0  0  0  0  0  0  0
   37.5680   30.2700   41.2610 N   0  0  0  0  0  0  0  0  0  0  0  0
   36.5640   31.0230   40.4890 C   0  0  0  0  0  0  0  0  0  0  0  0
   36.1840   30.2280   39.2450 C   0  0  0  0  0  0  0  0  0  0  0  0
   35.5150   28.9530   39.6300 C   0  0  0  0  0  0  0  0  0  0  0  0
   35.7360   28.6840   41.1070 C   0  0  0  0  0  0  0  0  0  0  0  0
   37.1360   28.9320   41.5340 C   0  0  2  0  0  0  0  0  0  0  0  0
   37.0420   31.9670   40.1430 H   0  0  0  0  0  0  0  0  0  0  0  0
   35.6470   31.1720   41.0820 H   0  0  0  0  0  0  0  0  0  0  0  0
   37.1100   30.0290   38.6720 H   0  0  0  0  0  0  0  0  0  0  0  0
   35.5450   30.9010   38.6420 H   0  0  0  0  0  0  0  0  0  0  0  0
   35.7760   28.0790   39.0070 H   0  0  0  0  0  0  0  0  0  0  0  0
   34.4190   29.1010   39.5110 H   0  0  0  0  0  0  0  0  0  0  0  0
   35.5360   27.5820   41.2340 H   0  0  0  0  0  0  0  0  0  0  0  0
   35.0130   29.2090   41.7380 H   0  0  0  0  0  0  0  0  0  0  0  0
   37.7850   28.2730   40.8770 H   0  0  0  0  0  0  0  0  0  0  0  0
   39.7090   32.8470   41.0560 C   0  0  0  0  0  0  0  0  0  0  0  0
   39.7050   31.4420   40.8970 C   0  0  0  0  0  0  0  0  0  0  0  0
   40.5190   30.8420   39.9470 C   0  0  0  0  0  0  0  0  0  0  0  0
   41.3010   31.6520   39.1960 N   0  0  0  0  0  0  0  0  0  0  0  0
   41.3210   33.0050   39.3330 C   0  0  0  0  0  0  0  0  0  0  0  0
   40.5200   33.5770   40.2630 N   0  0  0  0  0  0  0  0  0  0  0  0
   39.0590   33.2720   41.8060 H   0  0  0  0  0  0  0  0  0  0  0  0
   41.9690   33.5980   38.7010 H   0  0  0  0  0  0  0  0  0  0  0  0
   40.4830   29.4080   39.8110 C   0  0  0  0  0  0  0  0  0  0  0  0
   39.6920   28.8190   38.8840 C   0  0  0  0  0  0  0  0  0  0  0  0
   39.6820   27.4420   38.7790 C   0  0  0  0  0  0  0  0  0  0  0  0
   40.4570   26.6200   39.5920 C   0  0  0  0  0  0  0  0  0  0  0  0
   41.2480   27.2720   40.5220 C   0  0  0  0  0  0  0  0  0  0  0  0
   41.2360   28.6070   40.6010 N   0  0  0  0  0  0  0  0  0  0  0  0
   39.0410   29.3300   38.1930 H   0  0  0  0  0  0  0  0  0  0  0  0
   39.0670   26.9280   38.0530 H   0  0  0  0  0  0  0  0  0  0  0  0
   40.4530   25.5410   39.5130 H   0  0  0  0  0  0  0  0  0  0  0  0
   41.8750   26.6890   41.1860 H   0  0  0  0  0  0  0  0  0  0  0  0
   37.3690   28.4590   42.9270 C   0  0  0  0  0  0  0  0  0  0  0  0
   37.7960   29.1440   43.6500 H   0  0  0  0  0  0  0  0  0  0  0  0
   36.3920   28.1710   43.3670 H   0  0  0  0  0  0  0  0  0  0  0  0
   38.1640   27.1580   42.9290 C   0  0  0  0  0  0  0  0  0  0  0  0
   37.7530   26.0610   42.1930 C   0  0  0  0  0  3  0  0  0  0  0  0
   38.4960   24.8870   42.2250 C   0  0  0  0  0  0  0  0  0  0  0  0
   38.1750   24.0170   41.6450 H   0  0  0  0  0  0  0  0  0  0  0  0
   39.6130   24.8290   42.9750 N   0  0  0  0  0  0  0  0  0  0  0  0
   39.9790   25.9160   43.6760 C   0  0  0  0  0  3  0  0  0  0  0  0
   39.2860   27.0710   43.6710 N   0  0  0  0  0  0  0  0  0  0  0  0
  1  2  2  0  0  0  0
  3  8  1  0  0  0  0
  3  1  1  0  0  0  0
  4 10  1  0  0  0  0
  4  3  1  0  0  0  0
  5  6  1  0  0  0  0
  5  4  1  0  0  0  0
  6  7  1  0  0  0  0
  7 15  1  0  0  0  0
  7  8  1  0  0  0  0
  7 16  1  0  0  0  0
  8 17  1  6  0  0  0
  8 36  1  0  0  0  0
  9  4  1  0  0  0  0
 11  5  1  0  0  0  0
 12  5  1  0  0  0  0
 13  6  1  0  0  0  0
 14  6  1  0  0  0  0
 18 24  1  0  0  0  0
 19 18  1  0  0  0  0
 19  1  1  0  0  0  0
 20 19  2  0  0  0  0
 21 22  2  0  0  0  0
 21 20  1  0  0  0  0
 22 23  1  0  0  0  0
 23 18  2  0  0  0  0
 25 22  1  0  0  0  0
 26 20  1  0  0  0  0
 26 31  1  0  0  0  0
 27 26  2  0  0  0  0
 28 27  1  0  0  0  0
 28 29  2  0  0  0  0
 29 30  1  0  0  0  0
 30 31  2  0  0  0  0
 30 35  1  0  0  0  0
 32 27  1  0  0  0  0
 33 28  1  0  0  0  0
 34 29  1  0  0  0  0
 36 39  1  0  0  0  0
 36 38  1  0  0  0  0
 36 37  1  0  0  0  0
 39 45  1  0  0  0  0
 40 41  1  0  0  0  0
 40 39  2  0  0  0  0
 41 43  2  0  0  0  0
 42 41  1  0  0  0  0
 43 44  1  0  0  0  0
 45 44  2  0  0  0  0
M  END
>  <minimizedAffinity>
-5.58176565

$$$$

 OpenBabel03252507233D

 45 48  0  0  1  0  0  0  0  0999 V2000
   39.3890   29.2700   39.9890 C   0  0  0  0  0  0  0  0  0  0  0  0
   39.2630   28.2110   39.3110 O   0  0  0  0  0  0  0  0  0  0  0  0
   38.5330   30.3920   39.8610 N   0  0  0  0  0  0  0  0  0  0  0  0
   37.9170   31.2400   40.8950 C   0  0  0  0  0  0  0  0  0  0  0  0
   38.2250   32.7030   40.5990 C   0  0  0  0  0  0  0  0  0  0  0  0
   37.5890   33.1160   39.3150 C   0  0  0  0  0  0  0  0  0  0  0  0
   37.1430   31.8870   38.5460 C   0  0  0  0  0  0  0  0  0  0  0  0
   38.1640   30.8090   38.5400 C   0  0  2  0  0  0  0  0  0  0  0  0
   38.4000   30.9930   41.8680 H   0  0  0  0  0  0  0  0  0  0  0  0
   36.8200   31.1240   40.8940 H   0  0  0  0  0  0  0  0  0  0  0  0
   39.3250   32.8160   40.5460 H   0  0  0  0  0  0  0  0  0  0  0  0
   37.8640   33.2710   41.4770 H   0  0  0  0  0  0  0  0  0  0  0  0
   38.1910   33.7990   38.6900 H   0  0  0  0  0  0  0  0  0  0  0  0
   36.6570   33.6690   39.5670 H   0  0  0  0  0  0  0  0  0  0  0  0
   37.0200   32.2390   37.4820 H   0  0  0  0  0  0  0  0  0  0  0  0
   36.1630   31.5250   38.8710 H   0  0  0  0  0  0  0  0  0  0  0  0
   39.1040   31.2700   38.1040 H   0  0  0  0  0  0  0  0  0  0  0  0
   41.6600   29.9770   40.5520 C   0  0  0  0  0  0  0  0  0  0  0  0
   40.4700   29.3220   40.9430 C   0  0  0  0  0  0  0  0  0  0  0  0
   40.3640   28.7580   42.2070 C   0  0  0  0  0  0  0  0  0  0  0  0
   41.4360   28.8630   43.0280 N   0  0  0  0  0  0  0  0  0  0  0  0
   42.5900   29.4900   42.6700 C   0  0  0  0  0  0  0  0  0  0  0  0
   42.6780   30.0340   41.4350 N   0  0  0  0  0  0  0  0  0  0  0  0
   41.7000   30.4010   39.5590 H   0  0  0  0  0  0  0  0  0  0  0  0
   43.4100   29.5400   43.3730 H   0  0  0  0  0  0  0  0  0  0  0  0
   39.1380   28.0940   42.5670 C   0  0  0  0  0  0  0  0  0  0  0  0
   38.2070   28.7180   43.3260 C   0  0  0  0  0  0  0  0  0  0  0  0
   37.0420   28.0530   43.6520 C   0  0  0  0  0  0  0  0  0  0  0  0
   36.7750   26.7540   43.2310 C   0  0  0  0  0  0  0  0  0  0  0  0
   37.7580   26.1600   42.4580 C   0  0  0  0  0  0  0  0  0  0  0  0
   38.8770   26.8300   42.1590 N   0  0  0  0  0  0  0  0  0  0  0  0
   38.2830   29.7190   43.7220 H   0  0  0  0  0  0  0  0  0  0  0  0
   36.2700   28.5120   44.2550 H   0  0  0  0  0  0  0  0  0  0  0  0
   35.8630   26.2280   43.4830 H   0  0  0  0  0  0  0  0  0  0  0  0
   37.6110   25.1490   42.0990 H   0  0  0  0  0  0  0  0  0  0  0  0
   37.7870   29.7110   37.6080 C   0  0  0  0  0  0  0  0  0  0  0  0
   38.0620   29.7910   36.5630 H   0  0  0  0  0  0  0  0  0  0  0  0
   38.2800   28.7770   37.9490 H   0  0  0  0  0  0  0  0  0  0  0  0
   36.3000   29.3950   37.7180 C   0  0  0  0  0  0  0  0  0  0  0  0
   35.7050   29.1430   38.9430 C   0  0  0  0  0  3  0  0  0  0  0  0
   34.3490   28.8490   39.0060 C   0  0  0  0  0  0  0  0  0  0  0  0
   33.8740   28.6480   39.9720 H   0  0  0  0  0  0  0  0  0  0  0  0
   33.6230   28.8140   37.8730 N   0  0  0  0  0  0  0  0  0  0  0  0
   34.2370   29.0650   36.7040 C   0  0  0  0  0  3  0  0  0  0  0  0
   35.5480   29.3530   36.6000 N   0  0  0  0  0  0  0  0  0  0  0  0
  1 19  1  0  0  0  0
  2  1  2  0  0  0  0
  3  1  1  0  0  0  0
  3  4  1  0  0  0  0
  4  9  1  0  0  0  0
  5  4  1  0  0  0  0
  5 12  1  0  0  0  0
  6 14  1  0  0  0  0
  6  5  1  0  0  0  0
  7 16  1  0  0  0  0
  7  6  1  0  0  0  0
  8 17  1  6  0  0  0
  8  7  1  0  0  0  0
  8  3  1  0  0  0  0
 10  4  1  0  0  0  0
 11  5  1  0  0  0  0
 13  6  1  0  0  0  0
 15  7  1  0  0  0  0
 18 19  2  0  0  0  0
 18 23  1  0  0  0  0
 19 20  1  0  0  0  0
 20 26  1  0  0  0  0
 20 21  2  0  0  0  0
 22 21  1  0  0  0  0
 22 25  1  0  0  0  0
 23 22  2  0  0  0  0
 24 18  1  0  0  0  0
 26 27  1  0  0  0  0
 27 28  2  0  0  0  0
 27 32  1  0  0  0  0
 28 33  1  0  0  0  0
 29 34  1  0  0  0  0
 29 28  1  0  0  0  0
 30 29  2  0  0  0  0
 31 30  1  0  0  0  0
 31 26  2  0  0  0  0
 35 30  1  0  0  0  0
 36 39  1  0  0  0  0
 36 38  1  0  0  0  0
 36  8  1  0  0  0  0
 37 36  1  0  0  0  0
 39 40  1  0  0  0  0
 40 41  2  0  0  0  0
 41 42  1  0  0  0  0
 43 41  1  0  0  0  0
 44 43  2  0  0  0  0
 45 44  1  0  0  0  0
 45 39  2  0  0  0  0
M  END
>  <minimizedAffinity>
-5.56404734

$$$$

 OpenBabel03252507233D

 45 48  0  0  1  0  0  0  0  0999 V2000
   39.8390   29.0190   39.8070 C   0  0  0  0  0  0  0  0  0  0  0  0
   39.4300   28.3220   38.8340 O   0  0  0  0  0  0  0  0  0  0  0  0
   40.7590   28.5490   40.7780 N   0  0  0  0  0  0  0  0  0  0  0  0
   41.9300   29.2120   41.3760 C   0  0  0  0  0  0  0  0  0  0  0  0
   41.8290   29.1430   42.8950 C   0  0  0  0  0  0  0  0  0  0  0  0
   41.8960   27.7260   43.3530 C   0  0  0  0  0  0  0  0  0  0  0  0
   41.6910   26.7950   42.1730 C   0  0  0  0  0  0  0  0  0  0  0  0
   40.5770   27.2230   41.2890 C   0  0  2  0  0  0  0  0  0  0  0  0
   41.8910   30.2890   41.0920 H   0  0  0  0  0  0  0  0  0  0  0  0
   42.8610   28.7010   41.0800 H   0  0  0  0  0  0  0  0  0  0  0  0
   40.8700   29.6070   43.1940 H   0  0  0  0  0  0  0  0  0  0  0  0
   42.6510   29.7750   43.2800 H   0  0  0  0  0  0  0  0  0  0  0  0
   41.2330   27.4740   44.2000 H   0  0  0  0  0  0  0  0  0  0  0  0
   42.9340   27.5380   43.7080 H   0  0  0  0  0  0  0  0  0  0  0  0
   41.3950   25.8080   42.6300 H   0  0  0  0  0  0  0  0  0  0  0  0
   42.6150   26.6190   41.6160 H   0  0  0  0  0  0  0  0  0  0  0  0
   39.6580   27.2860   41.9510 H   0  0  0  0  0  0  0  0  0  0  0  0
   39.9100   31.3530   39.0870 C   0  0  0  0  0  0  0  0  0  0  0  0
   39.3330   30.3650   39.9170 C   0  0  0  0  0  0  0  0  0  0  0  0
   38.3130   30.6990   40.7970 C   0  0  0  0  0  0  0  0  0  0  0  0
   37.9080   31.9910   40.8210 N   0  0  0  0  0  0  0  0  0  0  0  0
   38.4510   32.9560   40.0310 C   0  0  0  0  0  0  0  0  0  0  0  0
   39.4450   32.6160   39.1780 N   0  0  0  0  0  0  0  0  0  0  0  0
   40.7020   31.0500   38.4170 H   0  0  0  0  0  0  0  0  0  0  0  0
   38.0830   33.9710   40.0980 H   0  0  0  0  0  0  0  0  0  0  0  0
   37.7530   29.6660   41.6300 C   0  0  0  0  0  0  0  0  0  0  0  0
   38.1710   29.5010   42.9070 C   0  0  0  0  0  0  0  0  0  0  0  0
   37.6120   28.5020   43.6790 C   0  0  0  0  0  0  0  0  0  0  0  0
   36.6260   27.6450   43.2010 C   0  0  0  0  0  0  0  0  0  0  0  0
   36.2330   27.8550   41.8910 C   0  0  0  0  0  0  0  0  0  0  0  0
   36.7930   28.8310   41.1670 N   0  0  0  0  0  0  0  0  0  0  0  0
   38.9270   30.0880   43.4050 H   0  0  0  0  0  0  0  0  0  0  0  0
   37.9150   28.3340   44.7040 H   0  0  0  0  0  0  0  0  0  0  0  0
   36.1840   26.8610   43.8020 H   0  0  0  0  0  0  0  0  0  0  0  0
   35.4690   27.2220   41.4580 H   0  0  0  0  0  0  0  0  0  0  0  0
   40.2650   26.1840   40.2690 C   0  0  0  0  0  0  0  0  0  0  0  0
   40.2520   26.4630   39.2220 H   0  0  0  0  0  0  0  0  0  0  0  0
   41.0360   25.3890   40.3310 H   0  0  0  0  0  0  0  0  0  0  0  0
   38.9690   25.4590   40.6170 C   0  0  0  0  0  0  0  0  0  0  0  0
   38.7870   24.8620   41.8520 C   0  0  0  0  0  3  0  0  0  0  0  0
   37.5980   24.2010   42.1330 C   0  0  0  0  0  0  0  0  0  0  0  0
   37.4500   23.7260   43.1080 H   0  0  0  0  0  0  0  0  0  0  0  0
   36.6310   24.1480   41.1980 N   0  0  0  0  0  0  0  0  0  0  0  0
   36.8460   24.7410   40.0110 C   0  0  0  0  0  3  0  0  0  0  0  0
   37.9840   25.3900   39.7000 N   0  0  0  0  0  0  0  0  0  0  0  0
  1 19  1  0  0  0  0
  1  3  1  0  0  0  0
  2  1  2  0  0  0  0
  3  8  1  0  0  0  0
  3  4  1  0  0  0  0
  4  5  1  0  0  0  0
  5 11  1  0  0  0  0
  5 12  1  0  0  0  0
  5  6  1  0  0  0  0
  6 14  1  0  0  0  0
  6 13  1  0  0  0  0
  7 15  1  0  0  0  0
  7  6  1  0  0  0  0
  8 17  1  1  0  0  0
  8  7  1  0  0  0  0
  9  4  1  0  0  0  0
 10  4  1  0  0  0  0
 16  7  1  0  0  0  0
 18 23  2  0  0  0  0
 18 19  1  0  0  0  0
 19 20  2  0  0  0  0
 20 21  1  0  0  0  0
 20 26  1  0  0  0  0
 22 25  1  0  0  0  0
 22 21  2  0  0  0  0
 23 22  1  0  0  0  0
 24 18  1  0  0  0  0
 26 27  1  0  0  0  0
 27 32  1  0  0  0  0
 27 28  2  0  0  0  0
 28 33  1  0  0  0  0
 29 28  1  0  0  0  0
 29 34  1  0  0  0  0
 30 29  2  0  0  0  0
 31 26  2  0  0  0  0
 31 30  1  0  0  0  0
 35 30  1  0  0  0  0
 36 38  1  0  0  0  0
 36 39  1  0  0  0  0
 36  8  1  0  0  0  0
 37 36  1  0  0  0  0
 39 40  1  0  0  0  0
 40 41  2  0  0  0  0
 41 42  1  0  0  0  0
 43 41  1  0  0  0  0
 44 43  2  0  0  0  0
 45 44  1  0  0  0  0
 45 39  2  0  0  0  0
M  END
>  <minimizedAffinity>
-5.48127604

$$$$

 OpenBabel03252507233D

 45 48  0  0  1  0  0  0  0  0999 V2000
   37.9880   29.3730   39.7950 C   0  0  0  0  0  0  0  0  0  0  0  0
   37.8020   28.8430   38.6620 O   0  0  0  0  0  0  0  0  0  0  0  0
   37.9140   28.6600   41.0170 N   0  0  0  0  0  0  0  0  0  0  0  0
   38.7940   28.7010   42.1970 C   0  0  0  0  0  0  0  0  0  0  0  0
   37.9560   28.9460   43.4460 C   0  0  0  0  0  0  0  0  0  0  0  0
   37.0300   27.8000   43.6800 C   0  0  0  0  0  0  0  0  0  0  0  0
   36.9620   26.9340   42.4360 C   0  0  0  0  0  0  0  0  0  0  0  0
   36.8380   27.7280   41.1880 C   0  0  2  0  0  0  0  0  0  0  0  0
   39.4740   29.5760   42.0810 H   0  0  0  0  0  0  0  0  0  0  0  0
   39.3160   27.7390   42.3290 H   0  0  0  0  0  0  0  0  0  0  0  0
   37.3880   29.8850   43.2970 H   0  0  0  0  0  0  0  0  0  0  0  0
   38.6790   29.1090   44.2670 H   0  0  0  0  0  0  0  0  0  0  0  0
   36.0260   28.0750   44.0490 H   0  0  0  0  0  0  0  0  0  0  0  0
   37.4840   27.1600   44.4680 H   0  0  0  0  0  0  0  0  0  0  0  0
   36.0130   26.3380   42.5500 H   0  0  0  0  0  0  0  0  0  0  0  0
   37.7820   26.2130   42.3860 H   0  0  0  0  0  0  0  0  0  0  0  0
   35.9110   28.3700   41.3150 H   0  0  0  0  0  0  0  0  0  0  0  0
   37.2840   31.6640   40.2680 C   0  0  0  0  0  0  0  0  0  0  0  0
   38.2960   30.7820   39.8250 C   0  0  0  0  0  0  0  0  0  0  0  0
   39.5350   31.2740   39.4410 C   0  0  0  0  0  0  0  0  0  0  0  0
   39.7220   32.6130   39.5090 N   0  0  0  0  0  0  0  0  0  0  0  0
   38.7610   33.4790   39.9330 C   0  0  0  0  0  0  0  0  0  0  0  0
   37.5580   32.9840   40.3040 N   0  0  0  0  0  0  0  0  0  0  0  0
   36.3340   31.2390   40.5570 H   0  0  0  0  0  0  0  0  0  0  0  0
   38.9740   34.5390   39.9640 H   0  0  0  0  0  0  0  0  0  0  0  0
   40.5390   30.3450   38.9900 C   0  0  0  0  0  0  0  0  0  0  0  0
   41.3670   29.7350   39.8700 C   0  0  0  0  0  0  0  0  0  0  0  0
   42.3170   28.8480   39.4040 C   0  0  0  0  0  0  0  0  0  0  0  0
   42.4650   28.5460   38.0540 C   0  0  0  0  0  0  0  0  0  0  0  0
   41.5950   29.1950   37.1960 C   0  0  0  0  0  0  0  0  0  0  0  0
   40.6840   30.0500   37.6770 N   0  0  0  0  0  0  0  0  0  0  0  0
   41.3660   29.8770   40.9400 H   0  0  0  0  0  0  0  0  0  0  0  0
   42.9990   28.3380   40.0710 H   0  0  0  0  0  0  0  0  0  0  0  0
   43.2070   27.8520   37.6840 H   0  0  0  0  0  0  0  0  0  0  0  0
   41.6580   29.0030   36.1320 H   0  0  0  0  0  0  0  0  0  0  0  0
   36.5600   26.8540   40.0150 C   0  0  0  0  0  0  0  0  0  0  0  0
   35.5320   26.6440   39.7480 H   0  0  0  0  0  0  0  0  0  0  0  0
   36.9850   27.3360   39.1100 H   0  0  0  0  0  0  0  0  0  0  0  0
   37.3350   25.5450   40.1230 C   0  0  0  0  0  0  0  0  0  0  0  0
   38.6900   25.4850   39.8500 C   0  0  0  0  0  3  0  0  0  0  0  0
   39.3630   24.2740   39.9490 C   0  0  0  0  0  0  0  0  0  0  0  0
   40.4350   24.2200   39.7350 H   0  0  0  0  0  0  0  0  0  0  0  0
   38.6880   23.1660   40.3100 N   0  0  0  0  0  0  0  0  0  0  0  0
   37.3720   23.2660   40.5670 C   0  0  0  0  0  3  0  0  0  0  0  0
   36.6840   24.4200   40.4820 N   0  0  0  0  0  0  0  0  0  0  0  0
  1 19  1  0  0  0  0
  1  3  1  0  0  0  0
  2  1  2  0  0  0  0
  3  8  1  0  0  0  0
  3  4  1  0  0  0  0
  4 10  1  0  0  0  0
  4  5  1  0  0  0  0
  5  6  1  0  0  0  0
  5 12  1  0  0  0  0
  6 13  1  0  0  0  0
  6 14  1  0  0  0  0
  7 15  1  0  0  0  0
  7  6  1  0  0  0  0
  8 17  1  1  0  0  0
  8  7  1  0  0  0  0
  9  4  1  0  0  0  0
 11  5  1  0  0  0  0
 16  7  1  0  0  0  0
 18 23  1  0  0  0  0
 18 24  1  0  0  0  0
 19 18  2  0  0  0  0
 20 21  2  0  0  0  0
 20 19  1  0  0  0  0
 21 22  1  0  0  0  0
 22 25  1  0  0  0  0
 22 23  2  0  0  0  0
 26 20  1  0  0  0  0
 26 27  1  0  0  0  0
 27 32  1  0  0  0  0
 28 27  2  0  0  0  0
 28 33  1  0  0  0  0
 29 28  1  0  0  0  0
 30 31  1  0  0  0  0
 30 29  2  0  0  0  0
 31 26  2  0  0  0  0
 34 29  1  0  0  0  0
 35 30  1  0  0  0  0
 36 39  1  0  0  0  0
 36  8  1  0  0  0  0
 37 36  1  0  0  0  0
 38 36  1  0  0  0  0
 39 45  1  0  0  0  0
 40 41  1  0  0  0  0
 40 39  2  0  0  0  0
 41 43  2  0  0  0  0
 42 41  1  0  0  0  0
 43 44  1  0  0  0  0
 45 44  2  0  0  0  0
M  END
>  <minimizedAffinity>
-5.46735859

$$$$

 OpenBabel03252507233D

 45 48  0  0  1  0  0  0  0  0999 V2000
   36.9840   30.3110   39.5240 C   0  0  0  0  0  0  0  0  0  0  0  0
   35.8380   30.0320   39.9790 O   0  0  0  0  0  0  0  0  0  0  0  0
   37.7090   29.4650   38.6480 N   0  0  0  0  0  0  0  0  0  0  0  0
   38.4760   29.7880   37.4330 C   0  0  0  0  0  0  0  0  0  0  0  0
   39.8770   29.1980   37.5480 C   0  0  0  0  0  0  0  0  0  0  0  0
   39.8080   27.7090   37.5910 C   0  0  0  0  0  0  0  0  0  0  0  0
   38.3820   27.2690   37.8600 C   0  0  0  0  0  0  0  0  0  0  0  0
   37.7270   28.0610   38.9320 C   0  0  2  0  0  0  0  0  0  0  0  0
   38.5890   30.8960   37.3890 H   0  0  0  0  0  0  0  0  0  0  0  0
   38.0000   29.3470   36.5420 H   0  0  0  0  0  0  0  0  0  0  0  0
   40.3400   29.5970   38.4700 H   0  0  0  0  0  0  0  0  0  0  0  0
   40.4420   29.5930   36.6820 H   0  0  0  0  0  0  0  0  0  0  0  0
   40.5270   27.2260   38.2760 H   0  0  0  0  0  0  0  0  0  0  0  0
   40.0530   27.3340   36.5730 H   0  0  0  0  0  0  0  0  0  0  0  0
   38.4710   26.2090   38.2310 H   0  0  0  0  0  0  0  0  0  0  0  0
   37.7790   27.2330   36.9480 H   0  0  0  0  0  0  0  0  0  0  0  0
   38.3880   27.9540   39.8480 H   0  0  0  0  0  0  0  0  0  0  0  0
   37.1240   32.7380   39.2730 C   0  0  0  0  0  0  0  0  0  0  0  0
   37.5690   31.5660   39.9270 C   0  0  0  0  0  0  0  0  0  0  0  0
   38.5330   31.6430   40.9230 C   0  0  0  0  0  0  0  0  0  0  0  0
   39.0170   32.8700   41.2280 N   0  0  0  0  0  0  0  0  0  0  0  0
   38.6010   34.0090   40.6110 C   0  0  0  0  0  0  0  0  0  0  0  0
   37.6610   33.9190   39.6420 N   0  0  0  0  0  0  0  0  0  0  0  0
   36.3730   32.6330   38.5040 H   0  0  0  0  0  0  0  0  0  0  0  0
   39.0270   34.9600   40.9010 H   0  0  0  0  0  0  0  0  0  0  0  0
   38.9660   30.4270   41.5620 C   0  0  0  0  0  0  0  0  0  0  0  0
   40.1250   29.8290   41.2040 C   0  0  0  0  0  0  0  0  0  0  0  0
   40.5110   28.6650   41.8390 C   0  0  0  0  0  0  0  0  0  0  0  0
   39.7540   28.0690   42.8430 C   0  0  0  0  0  0  0  0  0  0  0  0
   38.5780   28.7200   43.1720 C   0  0  0  0  0  0  0  0  0  0  0  0
   38.2300   29.8470   42.5390 N   0  0  0  0  0  0  0  0  0  0  0  0
   40.8070   30.1760   40.4430 H   0  0  0  0  0  0  0  0  0  0  0  0
   41.4300   28.1530   41.5860 H   0  0  0  0  0  0  0  0  0  0  0  0
   40.0520   27.1580   43.3430 H   0  0  0  0  0  0  0  0  0  0  0  0
   37.9430   28.3080   43.9460 H   0  0  0  0  0  0  0  0  0  0  0  0
   36.4150   27.4710   39.3170 C   0  0  0  0  0  0  0  0  0  0  0  0
   35.7260   28.0630   39.9070 H   0  0  0  0  0  0  0  0  0  0  0  0
   35.8510   27.2380   38.3900 H   0  0  0  0  0  0  0  0  0  0  0  0
   36.6080   26.1090   39.9750 C   0  0  0  0  0  0  0  0  0  0  0  0
   37.2160   25.9860   41.2110 C   0  0  0  0  0  3  0  0  0  0  0  0
   37.3840   24.7290   41.7780 C   0  0  0  0  0  0  0  0  0  0  0  0
   37.8650   24.6250   42.7550 H   0  0  0  0  0  0  0  0  0  0  0  0
   36.9510   23.6390   41.1160 N   0  0  0  0  0  0  0  0  0  0  0  0
   36.3650   23.8010   39.9170 C   0  0  0  0  0  3  0  0  0  0  0  0
   36.1840   25.0010   39.3350 N   0  0  0  0  0  0  0  0  0  0  0  0
  1 19  1  0  0  0  0
  1  2  2  0  0  0  0
  3  8  1  0  0  0  0
  3  1  1  0  0  0  0
  4  5  1  0  0  0  0
  4  3  1  0  0  0  0
  5  6  1  0  0  0  0
  5 11  1  0  0  0  0
  6  7  1  0  0  0  0
  6 13  1  0  0  0  0
  7 15  1  0  0  0  0
  7  8  1  0  0  0  0
  8 36  1  0  0  0  0
  8 17  1  1  0  0  0
  9  4  1  0  0  0  0
 10  4  1  0  0  0  0
 12  5  1  0  0  0  0
 14  6  1  0  0  0  0
 16  7  1  0  0  0  0
 18 23  2  0  0  0  0
 18 19  1  0  0  0  0
 19 20  2  0  0  0  0
 20 21  1  0  0  0  0
 20 26  1  0  0  0  0
 22 25  1  0  0  0  0
 22 21  2  0  0  0  0
 23 22  1  0  0  0  0
 24 18  1  0  0  0  0
 26 31  1  0  0  0  0
 27 26  2  0  0  0  0
 27 28  1  0  0  0  0
 28 29  2  0  0  0  0
 29 30  1  0  0  0  0
 29 34  1  0  0  0  0
 30 35  1  0  0  0  0
 31 30  2  0  0  0  0
 32 27  1  0  0  0  0
 33 28  1  0  0  0  0
 36 37  1  0  0  0  0
 36 39  1  0  0  0  0
 38 36  1  0  0  0  0
 39 40  1  0  0  0  0
 40 41  2  0  0  0  0
 41 42  1  0  0  0  0
 43 41  1  0  0  0  0
 44 43  2  0  0  0  0
 45 44  1  0  0  0  0
 45 39  2  0  0  0  0
M  END
>  <minimizedAffinity>
-5.44521332

$$$$

 OpenBabel03252507233D

 45 48  0  0  1  0  0  0  0  0999 V2000
   40.1680   26.4080   40.0090 C   0  0  0  0  0  0  0  0  0  0  0  0
   40.2700   27.3030   39.1220 O   0  0  0  0  0  0  0  0  0  0  0  0
   39.0530   25.5410   40.1250 N   0  0  0  0  0  0  0  0  0  0  0  0
   39.0000   24.0890   40.3700 C   0  0  0  0  0  0  0  0  0  0  0  0
   38.0710   23.8090   41.5450 C   0  0  0  0  0  0  0  0  0  0  0  0
   36.6740   24.2070   41.2070 C   0  0  0  0  0  0  0  0  0  0  0  0
   36.6760   25.0740   39.9620 C   0  0  0  0  0  0  0  0  0  0  0  0
   37.7440   26.1050   39.9800 C   0  0  2  0  0  0  0  0  0  0  0  0
   40.0200   23.7590   40.6710 H   0  0  0  0  0  0  0  0  0  0  0  0
   38.5950   23.5600   39.4920 H   0  0  0  0  0  0  0  0  0  0  0  0
   38.4420   24.3810   42.4170 H   0  0  0  0  0  0  0  0  0  0  0  0
   38.1850   22.7310   41.7680 H   0  0  0  0  0  0  0  0  0  0  0  0
   36.1050   24.6700   42.0330 H   0  0  0  0  0  0  0  0  0  0  0  0
   36.1210   23.2830   40.9300 H   0  0  0  0  0  0  0  0  0  0  0  0
   35.6870   25.6150   39.9850 H   0  0  0  0  0  0  0  0  0  0  0  0
   36.6890   24.4820   39.0430 H   0  0  0  0  0  0  0  0  0  0  0  0
   37.5790   26.7120   40.9250 H   0  0  0  0  0  0  0  0  0  0  0  0
   42.4050   25.5660   40.5190 C   0  0  0  0  0  0  0  0  0  0  0  0
   41.2580   26.2740   40.9450 C   0  0  0  0  0  0  0  0  0  0  0  0
   41.2040   26.8180   42.2210 C   0  0  0  0  0  0  0  0  0  0  0  0
   42.2810   26.6380   43.0200 N   0  0  0  0  0  0  0  0  0  0  0  0
   43.3940   25.9600   42.6300 C   0  0  0  0  0  0  0  0  0  0  0  0
   43.4320   25.4350   41.3830 N   0  0  0  0  0  0  0  0  0  0  0  0
   42.4050   25.1590   39.5190 H   0  0  0  0  0  0  0  0  0  0  0  0
   44.2220   25.8510   43.3170 H   0  0  0  0  0  0  0  0  0  0  0  0
   40.0160   27.5280   42.6200 C   0  0  0  0  0  0  0  0  0  0  0  0
   39.0330   26.9040   43.3100 C   0  0  0  0  0  0  0  0  0  0  0  0
   37.9080   27.6150   43.6790 C   0  0  0  0  0  0  0  0  0  0  0  0
   37.7350   28.9610   43.3720 C   0  0  0  0  0  0  0  0  0  0  0  0
   38.7690   29.5520   42.6660 C   0  0  0  0  0  0  0  0  0  0  0  0
   39.8470   28.8380   42.3220 N   0  0  0  0  0  0  0  0  0  0  0  0
   39.0320   25.8680   43.6120 H   0  0  0  0  0  0  0  0  0  0  0  0
   37.0980   27.1580   44.2310 H   0  0  0  0  0  0  0  0  0  0  0  0
   36.8560   29.5230   43.6590 H   0  0  0  0  0  0  0  0  0  0  0  0
   38.6960   30.5980   42.3960 H   0  0  0  0  0  0  0  0  0  0  0  0
   37.5870   27.0680   38.8550 C   0  0  0  0  0  0  0  0  0  0  0  0
   38.4170   27.2230   38.1770 H   0  0  0  0  0  0  0  0  0  0  0  0
   36.7630   26.7130   38.2030 H   0  0  0  0  0  0  0  0  0  0  0  0
   37.0890   28.4160   39.3650 C   0  0  0  0  0  0  0  0  0  0  0  0
   35.9410   28.5180   40.1310 C   0  0  0  0  0  3  0  0  0  0  0  0
   35.5090   29.7630   40.5700 C   0  0  0  0  0  0  0  0  0  0  0  0
   34.6020   29.8490   41.1760 H   0  0  0  0  0  0  0  0  0  0  0  0
   36.2150   30.8630   40.2470 N   0  0  0  0  0  0  0  0  0  0  0  0
   37.3250   30.7220   39.5010 C   0  0  0  0  0  3  0  0  0  0  0  0
   37.7760   29.5340   39.0560 N   0  0  0  0  0  0  0  0  0  0  0  0
  1  3  1  0  0  0  0
  1 19  1  0  0  0  0
  2  1  2  0  0  0  0
  3  4  1  0  0  0  0
  4  9  1  0  0  0  0
  4  5  1  0  0  0  0
  5 12  1  0  0  0  0
  5 11  1  0  0  0  0
  6  5  1  0  0  0  0
  6 13  1  0  0  0  0
  7  8  1  0  0  0  0
  7 15  1  0  0  0  0
  7  6  1  0  0  0  0
  8  3  1  0  0  0  0
  8 17  1  1  0  0  0
 10  4  1  0  0  0  0
 14  6  1  0  0  0  0
 16  7  1  0  0  0  0
 18 19  2  0  0  0  0
 18 23  1  0  0  0  0
 19 20  1  0  0  0  0
 20 26  1  0  0  0  0
 20 21  2  0  0  0  0
 22 21  1  0  0  0  0
 22 25  1  0  0  0  0
 23 22  2  0  0  0  0
 24 18  1  0  0  0  0
 26 27  1  0  0  0  0
 27 32  1  0  0  0  0
 27 28  2  0  0  0  0
 28 33  1  0  0  0  0
 29 34  1  0  0  0  0
 29 28  1  0  0  0  0
 30 29  2  0  0  0  0
 31 26  2  0  0  0  0
 31 30  1  0  0  0  0
 35 30  1  0  0  0  0
 36 39  1  0  0  0  0
 36  8  1  0  0  0  0
 37 36  1  0  0  0  0
 38 36  1  0  0  0  0
 39 40  1  0  0  0  0
 40 41  2  0  0  0  0
 41 42  1  0  0  0  0
 43 41  1  0  0  0  0
 44 43  2  0  0  0  0
 45 39  2  0  0  0  0
 45 44  1  0  0  0  0
M  END
>  <minimizedAffinity>
-5.43136454

$$$$
