
 OpenBabel03242512133D

 39 42  0  0  1  0  0  0  0  0999 V2000
   39.9430   29.6370   40.9510 O   0  0  0  0  0  0  0  0  0  0  0  0
   39.1920   30.6930   41.7460 P   0  0  2  0  0  0  0  0  0  0  0  0
   40.1450   31.4140   42.8860 O   0  0  0  0  0  0  0  0  0  0  0  0
   39.7140   31.3430   43.7730 H   0  0  0  0  0  0  0  0  0  0  0  0
   37.7890   29.9560   42.3370 O   0  0  0  0  0  0  0  0  0  0  0  0
   37.2620   27.5480   42.3840 C   0  0  1  0  0  0  0  0  0  0  0  0
   37.3020   28.1770   43.8330 C   0  0  0  0  0  0  0  0  0  0  0  0
   38.1310   28.6880   42.7660 C   0  0  2  0  0  0  0  0  0  0  0  0
   36.3360   27.7580   41.8600 H   0  0  0  0  0  0  0  0  0  0  0  0
   37.7830   27.5620   44.6180 H   0  0  0  0  0  0  0  0  0  0  0  0
   36.3780   28.6930   44.1470 H   0  0  0  0  0  0  0  0  0  0  0  0
   39.1950   28.4380   42.5810 H   0  0  0  0  0  0  0  0  0  0  0  0
   37.8220   26.1650   42.3740 C   0  0  0  0  0  0  0  0  0  0  0  0
   37.0270   25.2340   42.3810 O   0  0  0  0  0  0  0  0  0  0  0  0
   39.9370   25.5100   43.4300 C   0  0  0  0  0  0  0  0  0  0  0  0
   39.2060   25.8470   42.3540 C   0  0  0  0  0  0  0  0  0  0  0  0
   39.9060   25.8800   41.1030 C   0  0  0  0  0  0  0  0  0  0  0  0
   41.2240   25.5850   41.0350 N   0  0  0  0  0  0  0  0  0  0  0  0
   41.9070   25.2510   42.1590 C   0  0  0  0  0  0  0  0  0  0  0  0
   41.2740   25.2160   43.3170 N   0  0  0  0  0  0  0  0  0  0  0  0
   39.3850   25.4910   44.3660 H   0  0  0  0  0  0  0  0  0  0  0  0
   39.4710   26.1190   40.1700 H   0  0  0  0  0  0  0  0  0  0  0  0
   42.9570   24.9960   42.2290 H   0  0  0  0  0  0  0  0  0  0  0  0
   38.6910   31.8360   40.5340 O   0  0  0  0  0  0  0  0  0  0  0  0
   39.1550   33.1350   40.4660 C   0  0  0  0  0  0  0  0  0  0  0  0
   38.4430   34.3090   40.2400 C   0  0  0  0  0  0  0  0  0  0  0  0
   39.0990   35.5080   40.2120 C   0  0  0  0  0  0  0  0  0  0  0  0
   40.4500   35.5530   40.4060 N   0  0  0  0  0  0  0  0  0  0  0  0
   41.1330   34.4110   40.6240 C   0  0  0  0  0  0  0  0  0  0  0  0
   40.4930   33.1940   40.6550 N   0  0  0  0  0  0  0  0  0  0  0  0
   37.3840   34.1370   40.1010 H   0  0  0  0  0  0  0  0  0  0  0  0
   38.4900   36.3960   40.0310 H   0  0  0  0  0  0  0  0  0  0  0  0
   42.5750   34.5230   40.8240 C   0  0  0  0  0  0  0  0  0  0  0  0
   43.1410   35.1880   41.8910 C   0  0  0  0  0  3  0  0  0  0  0  0
   44.5020   35.3030   42.0960 C   0  0  0  0  0  0  0  0  0  0  0  0
   44.9360   35.8270   42.9370 H   0  0  0  0  0  0  0  0  0  0  0  0
   45.2810   34.7020   41.1510 N   0  0  0  0  0  0  0  0  0  0  0  0
   44.7270   34.0480   40.1010 C   0  0  0  0  0  3  0  0  0  0  0  0
   43.3760   33.9570   39.9340 N   0  0  0  0  0  0  0  0  0  0  0  0
  2  1  2  6  0  0  0
  2  5  1  0  0  0  0
  2  3  1  0  0  0  0
  3  4  1  0  0  0  0
  5  8  1  0  0  0  0
  6  9  1  6  0  0  0
  6  8  1  0  0  0  0
  6  7  1  0  0  0  0
  7 11  1  0  0  0  0
  7 10  1  0  0  0  0
  8 12  1  1  0  0  0
  8  7  1  0  0  0  0
 13 14  2  0  0  0  0
 13  6  1  0  0  0  0
 15 21  1  0  0  0  0
 16 13  1  0  0  0  0
 16 15  2  0  0  0  0
 17 16  1  0  0  0  0
 18 17  2  0  0  0  0
 18 19  1  0  0  0  0
 19 23  1  0  0  0  0
 19 20  2  0  0  0  0
 20 15  1  0  0  0  0
 22 17  1  0  0  0  0
 24  2  1  0  0  0  0
 25 24  1  0  0  0  0
 25 30  1  0  0  0  0
 26 25  2  0  0  0  0
 27 26  1  0  0  0  0
 27 28  2  0  0  0  0
 28 29  1  0  0  0  0
 29 30  2  0  0  0  0
 29 33  1  0  0  0  0
 31 26  1  0  0  0  0
 32 27  1  0  0  0  0
 33 34  1  0  0  0  0
 34 35  2  0  0  0  0
 35 36  1  0  0  0  0
 37 35  1  0  0  0  0
 38 37  2  0  0  0  0
 39 38  1  0  0  0  0
 39 33  2  0  0  0  0
M  END
>  <minimizedAffinity>
-6.17096615

$$$$

 OpenBabel03242512133D

 39 42  0  0  1  0  0  0  0  0999 V2000
   34.6680   28.9690   39.9140 O   0  0  0  0  0  0  0  0  0  0  0  0
   35.8540   29.9120   40.0380 P   0  0  2  0  0  0  0  0  0  0  0  0
   35.6560   31.0090   41.2570 O   0  0  0  0  0  0  0  0  0  0  0  0
   35.7700   31.9250   40.9020 H   0  0  0  0  0  0  0  0  0  0  0  0
   36.1160   30.5750   38.5040 O   0  0  0  0  0  0  0  0  0  0  0  0
   38.1920   31.8700   38.7970 C   0  0  1  0  0  0  0  0  0  0  0  0
   37.8790   31.5840   37.2740 C   0  0  0  0  0  0  0  0  0  0  0  0
   37.4810   30.6610   38.3130 C   0  0  2  0  0  0  0  0  0  0  0  0
   37.6050   32.6870   39.2010 H   0  0  0  0  0  0  0  0  0  0  0  0
   38.7460   31.3150   36.6410 H   0  0  0  0  0  0  0  0  0  0  0  0
   37.1570   32.2760   36.8050 H   0  0  0  0  0  0  0  0  0  0  0  0
   38.0240   29.7470   38.6230 H   0  0  0  0  0  0  0  0  0  0  0  0
   39.6570   31.8020   39.0750 C   0  0  0  0  0  0  0  0  0  0  0  0
   40.0640   30.8540   39.7330 O   0  0  0  0  0  0  0  0  0  0  0  0
   41.4210   32.6040   37.5690 C   0  0  0  0  0  0  0  0  0  0  0  0
   40.6140   32.7550   38.6330 C   0  0  0  0  0  0  0  0  0  0  0  0
   40.7520   33.9840   39.3580 C   0  0  0  0  0  0  0  0  0  0  0  0
   41.6490   34.9210   38.9750 N   0  0  0  0  0  0  0  0  0  0  0  0
   42.4360   34.7080   37.8900 C   0  0  0  0  0  0  0  0  0  0  0  0
   42.3180   33.5810   37.2140 N   0  0  0  0  0  0  0  0  0  0  0  0
   41.2970   31.6650   37.0360 H   0  0  0  0  0  0  0  0  0  0  0  0
   40.1860   34.2540   40.2090 H   0  0  0  0  0  0  0  0  0  0  0  0
   43.1850   35.3800   37.4900 H   0  0  0  0  0  0  0  0  0  0  0  0
   37.1890   28.8460   40.3640 O   0  0  0  0  0  0  0  0  0  0  0  0
   37.4710   28.3300   41.6140 C   0  0  0  0  0  0  0  0  0  0  0  0
   36.5920   27.8970   42.6020 C   0  0  0  0  0  0  0  0  0  0  0  0
   37.0820   27.4120   43.7830 C   0  0  0  0  0  0  0  0  0  0  0  0
   38.4300   27.3520   43.9910 N   0  0  0  0  0  0  0  0  0  0  0  0
   39.2750   27.7740   43.0290 C   0  0  0  0  0  0  0  0  0  0  0  0
   38.8040   28.2660   41.8340 N   0  0  0  0  0  0  0  0  0  0  0  0
   35.5550   27.9980   42.3130 H   0  0  0  0  0  0  0  0  0  0  0  0
   36.3470   27.0870   44.5220 H   0  0  0  0  0  0  0  0  0  0  0  0
   40.7050   27.6860   43.3100 C   0  0  0  0  0  0  0  0  0  0  0  0
   41.2440   26.7920   44.2120 C   0  0  0  0  0  3  0  0  0  0  0  0
   42.5940   26.6950   44.4900 C   0  0  0  0  0  0  0  0  0  0  0  0
   43.0070   25.9900   45.2000 H   0  0  0  0  0  0  0  0  0  0  0  0
   43.3900   27.5610   43.8000 N   0  0  0  0  0  0  0  0  0  0  0  0
   42.8620   28.4390   42.9130 C   0  0  0  0  0  3  0  0  0  0  0  0
   41.5210   28.5050   42.6660 N   0  0  0  0  0  0  0  0  0  0  0  0
  2  1  2  6  0  0  0
  2 24  1  0  0  0  0
  2  3  1  0  0  0  0
  4  3  1  0  0  0  0
  5  2  1  0  0  0  0
  6 13  1  0  0  0  0
  6  9  1  1  0  0  0
  7  8  1  0  0  0  0
  7  6  1  0  0  0  0
  8  5  1  0  0  0  0
  8 12  1  1  0  0  0
  8  6  1  0  0  0  0
 10  7  1  0  0  0  0
 11  7  1  0  0  0  0
 13 14  2  0  0  0  0
 15 16  1  0  0  0  0
 16 13  1  0  0  0  0
 16 17  2  0  0  0  0
 17 22  1  0  0  0  0
 18 17  1  0  0  0  0
 19 18  2  0  0  0  0
 20 15  2  0  0  0  0
 20 19  1  0  0  0  0
 21 15  1  0  0  0  0
 23 19  1  0  0  0  0
 24 25  1  0  0  0  0
 25 30  2  0  0  0  0
 25 26  1  0  0  0  0
 26 27  2  0  0  0  0
 27 28  1  0  0  0  0
 27 32  1  0  0  0  0
 29 33  1  0  0  0  0
 29 28  2  0  0  0  0
 30 29  1  0  0  0  0
 31 26  1  0  0  0  0
 33 34  1  0  0  0  0
 34 35  2  0  0  0  0
 35 36  1  0  0  0  0
 37 35  1  0  0  0  0
 38 37  2  0  0  0  0
 39 38  1  0  0  0  0
 39 33  2  0  0  0  0
M  END
>  <minimizedAffinity>
-6.03922939

$$$$

 OpenBabel03242512133D

 39 42  0  0  1  0  0  0  0  0999 V2000
   37.7730   29.9810   42.5950 O   0  0  0  0  0  0  0  0  0  0  0  0
   36.9380   30.0090   41.3240 P   0  0  2  0  0  0  0  0  0  0  0  0
   35.5820   30.9370   41.4870 O   0  0  0  0  0  0  0  0  0  0  0  0
   34.7830   30.4050   41.2480 H   0  0  0  0  0  0  0  0  0  0  0  0
   36.6640   28.3990   40.8820 O   0  0  0  0  0  0  0  0  0  0  0  0
   37.2160   26.1260   41.6580 C   0  0  1  0  0  0  0  0  0  0  0  0
   36.5480   26.9970   42.7950 C   0  0  0  0  0  0  0  0  0  0  0  0
   37.3630   27.5980   41.7640 C   0  0  2  0  0  0  0  0  0  0  0  0
   36.4940   25.7280   40.9530 H   0  0  0  0  0  0  0  0  0  0  0  0
   36.9820   26.8910   43.8080 H   0  0  0  0  0  0  0  0  0  0  0  0
   35.4450   27.0440   42.7640 H   0  0  0  0  0  0  0  0  0  0  0  0
   38.4330   27.8720   41.8470 H   0  0  0  0  0  0  0  0  0  0  0  0
   38.2820   25.2370   42.2070 C   0  0  0  0  0  0  0  0  0  0  0  0
   37.9790   24.0770   42.4530 O   0  0  0  0  0  0  0  0  0  0  0  0
   40.5870   25.7430   41.5350 C   0  0  0  0  0  0  0  0  0  0  0  0
   39.6210   25.6350   42.4630 C   0  0  0  0  0  0  0  0  0  0  0  0
   40.0020   25.9540   43.8080 C   0  0  0  0  0  0  0  0  0  0  0  0
   41.2660   26.3380   44.1010 N   0  0  0  0  0  0  0  0  0  0  0  0
   42.1960   26.4270   43.1180 C   0  0  0  0  0  0  0  0  0  0  0  0
   41.8580   26.1380   41.8760 N   0  0  0  0  0  0  0  0  0  0  0  0
   40.2740   25.4970   40.5240 H   0  0  0  0  0  0  0  0  0  0  0  0
   39.3580   25.9240   44.6450 H   0  0  0  0  0  0  0  0  0  0  0  0
   43.2320   26.7220   43.2300 H   0  0  0  0  0  0  0  0  0  0  0  0
   38.0200   30.6810   40.1410 O   0  0  0  0  0  0  0  0  0  0  0  0
   38.5310   31.9630   40.2090 C   0  0  0  0  0  0  0  0  0  0  0  0
   37.8800   33.1770   40.0150 C   0  0  0  0  0  0  0  0  0  0  0  0
   38.5770   34.3490   40.1310 C   0  0  0  0  0  0  0  0  0  0  0  0
   39.9070   34.3260   40.4370 N   0  0  0  0  0  0  0  0  0  0  0  0
   40.5300   33.1450   40.6230 C   0  0  0  0  0  0  0  0  0  0  0  0
   39.8500   31.9550   40.5110 N   0  0  0  0  0  0  0  0  0  0  0  0
   36.8320   33.0580   39.7780 H   0  0  0  0  0  0  0  0  0  0  0  0
   38.0150   35.2710   39.9680 H   0  0  0  0  0  0  0  0  0  0  0  0
   41.9540   33.1850   40.9470 C   0  0  0  0  0  0  0  0  0  0  0  0
   42.6220   32.1390   41.5480 C   0  0  0  0  0  3  0  0  0  0  0  0
   43.9670   32.1600   41.8610 C   0  0  0  0  0  0  0  0  0  0  0  0
   44.4820   31.3330   42.3320 H   0  0  0  0  0  0  0  0  0  0  0  0
   44.6190   33.3120   41.5310 N   0  0  0  0  0  0  0  0  0  0  0  0
   43.9640   34.3410   40.9410 C   0  0  0  0  0  3  0  0  0  0  0  0
   42.6330   34.2810   40.6470 N   0  0  0  0  0  0  0  0  0  0  0  0
  2  3  1  0  0  0  0
  2  1  2  1  0  0  0
  4  3  1  0  0  0  0
  5  2  1  0  0  0  0
  5  8  1  0  0  0  0
  6  9  1  6  0  0  0
  6  8  1  0  0  0  0
  6 13  1  0  0  0  0
  6  7  1  0  0  0  0
  7 10  1  0  0  0  0
  8 12  1  1  0  0  0
  8  7  1  0  0  0  0
 11  7  1  0  0  0  0
 13 14  2  0  0  0  0
 13 16  1  0  0  0  0
 15 20  2  0  0  0  0
 15 16  1  0  0  0  0
 16 17  2  0  0  0  0
 17 18  1  0  0  0  0
 17 22  1  0  0  0  0
 19 23  1  0  0  0  0
 19 18  2  0  0  0  0
 20 19  1  0  0  0  0
 21 15  1  0  0  0  0
 24 25  1  0  0  0  0
 24  2  1  0  0  0  0
 25 30  1  0  0  0  0
 26 27  1  0  0  0  0
 26 25  2  0  0  0  0
 27 28  2  0  0  0  0
 28 29  1  0  0  0  0
 29 33  1  0  0  0  0
 30 29  2  0  0  0  0
 31 26  1  0  0  0  0
 32 27  1  0  0  0  0
 33 34  1  0  0  0  0
 34 35  2  0  0  0  0
 35 36  1  0  0  0  0
 37 35  1  0  0  0  0
 38 37  2  0  0  0  0
 39 38  1  0  0  0  0
 39 33  2  0  0  0  0
M  END
>  <minimizedAffinity>
-5.83905745

$$$$

 OpenBabel03242512133D

 39 42  0  0  1  0  0  0  0  0999 V2000
   35.0680   28.9410   40.7490 O   0  0  0  0  0  0  0  0  0  0  0  0
   36.5290   28.7580   41.1310 P   0  0  2  0  0  0  0  0  0  0  0  0
   37.2150   30.1610   41.6690 O   0  0  0  0  0  0  0  0  0  0  0  0
   38.0300   30.3560   41.1450 H   0  0  0  0  0  0  0  0  0  0  0  0
   37.2960   28.0410   39.8050 O   0  0  0  0  0  0  0  0  0  0  0  0
   37.1680   29.7770   38.0610 C   0  0  1  0  0  0  0  0  0  0  0  0
   38.2670   28.6890   37.7360 C   0  0  0  0  0  0  0  0  0  0  0  0
   37.9330   29.0420   39.0970 C   0  0  2  0  0  0  0  0  0  0  0  0
   36.1630   29.4440   37.8260 H   0  0  0  0  0  0  0  0  0  0  0  0
   39.2190   29.0670   37.3180 H   0  0  0  0  0  0  0  0  0  0  0  0
   37.8870   27.7630   37.2680 H   0  0  0  0  0  0  0  0  0  0  0  0
   38.4810   29.7530   39.7460 H   0  0  0  0  0  0  0  0  0  0  0  0
   37.6110   31.1400   37.6450 C   0  0  0  0  0  0  0  0  0  0  0  0
   37.4430   31.4570   36.4760 O   0  0  0  0  0  0  0  0  0  0  0  0
   39.5350   32.3040   38.6290 C   0  0  0  0  0  0  0  0  0  0  0  0
   38.2130   32.0980   38.5060 C   0  0  0  0  0  0  0  0  0  0  0  0
   37.3690   32.9250   39.3180 C   0  0  0  0  0  0  0  0  0  0  0  0
   37.8960   33.8500   40.1520 N   0  0  0  0  0  0  0  0  0  0  0  0
   39.2400   34.0100   40.2300 C   0  0  0  0  0  0  0  0  0  0  0  0
   40.0290   33.2560   39.4870 N   0  0  0  0  0  0  0  0  0  0  0  0
   40.1530   31.6660   38.0030 H   0  0  0  0  0  0  0  0  0  0  0  0
   36.3130   32.8880   39.3290 H   0  0  0  0  0  0  0  0  0  0  0  0
   39.7750   34.7130   40.8570 H   0  0  0  0  0  0  0  0  0  0  0  0
   36.4740   27.5620   42.3920 O   0  0  0  0  0  0  0  0  0  0  0  0
   37.2530   26.4220   42.4030 C   0  0  0  0  0  0  0  0  0  0  0  0
   36.9140   25.1250   42.0290 C   0  0  0  0  0  0  0  0  0  0  0  0
   37.8450   24.1270   42.1150 C   0  0  0  0  0  0  0  0  0  0  0  0
   39.1040   24.4020   42.5660 N   0  0  0  0  0  0  0  0  0  0  0  0
   39.4240   25.6610   42.9260 C   0  0  0  0  0  0  0  0  0  0  0  0
   38.5040   26.6810   42.8480 N   0  0  0  0  0  0  0  0  0  0  0  0
   35.8900   25.0410   41.6920 H   0  0  0  0  0  0  0  0  0  0  0  0
   37.5230   23.1290   41.8080 H   0  0  0  0  0  0  0  0  0  0  0  0
   40.7860   25.8940   43.4010 C   0  0  0  0  0  0  0  0  0  0  0  0
   41.1050   26.8510   44.3400 C   0  0  0  0  0  3  0  0  0  0  0  0
   42.3870   27.0840   44.8010 C   0  0  0  0  0  0  0  0  0  0  0  0
   42.6270   27.8380   45.5390 H   0  0  0  0  0  0  0  0  0  0  0  0
   43.3500   26.2870   44.2560 N   0  0  0  0  0  0  0  0  0  0  0  0
   43.0380   25.3450   43.3330 C   0  0  0  0  0  3  0  0  0  0  0  0
   41.7580   25.1460   42.9030 N   0  0  0  0  0  0  0  0  0  0  0  0
  2  1  2  6  0  0  0
  2  3  1  0  0  0  0
  2 24  1  0  0  0  0
  4  3  1  0  0  0  0
  5  2  1  0  0  0  0
  6  9  1  6  0  0  0
  6  8  1  0  0  0  0
  7  6  1  0  0  0  0
  7  8  1  0  0  0  0
  8 12  1  1  0  0  0
  8  5  1  0  0  0  0
 10  7  1  0  0  0  0
 11  7  1  0  0  0  0
 13  6  1  0  0  0  0
 13 16  1  0  0  0  0
 14 13  2  0  0  0  0
 15 20  1  0  0  0  0
 16 15  2  0  0  0  0
 16 17  1  0  0  0  0
 17 22  1  0  0  0  0
 17 18  2  0  0  0  0
 18 19  1  0  0  0  0
 19 23  1  0  0  0  0
 20 19  2  0  0  0  0
 21 15  1  0  0  0  0
 24 25  1  0  0  0  0
 25 30  1  0  0  0  0
 26 27  1  0  0  0  0
 26 25  2  0  0  0  0
 27 28  2  0  0  0  0
 28 29  1  0  0  0  0
 29 33  1  0  0  0  0
 30 29  2  0  0  0  0
 31 26  1  0  0  0  0
 32 27  1  0  0  0  0
 33 34  1  0  0  0  0
 34 35  2  0  0  0  0
 35 36  1  0  0  0  0
 37 35  1  0  0  0  0
 38 37  2  0  0  0  0
 39 38  1  0  0  0  0
 39 33  2  0  0  0  0
M  END
>  <minimizedAffinity>
-5.81494999

$$$$

 OpenBabel03242512133D

 39 42  0  0  1  0  0  0  0  0999 V2000
   38.7410   32.2350   38.8010 O   0  0  0  0  0  0  0  0  0  0  0  0
   38.2780   32.9990   40.0320 P   0  0  2  0  0  0  0  0  0  0  0  0
   36.7590   33.6210   39.8470 O   0  0  0  0  0  0  0  0  0  0  0  0
   36.7730   34.5940   40.0240 H   0  0  0  0  0  0  0  0  0  0  0  0
   39.4840   34.1300   40.3890 O   0  0  0  0  0  0  0  0  0  0  0  0
   41.9140   33.8530   40.0860 C   0  0  1  0  0  0  0  0  0  0  0  0
   41.3450   35.0680   39.2510 C   0  0  0  0  0  0  0  0  0  0  0  0
   40.5410   33.9010   39.5290 C   0  0  2  0  0  0  0  0  0  0  0  0
   42.0550   34.0930   41.1340 H   0  0  0  0  0  0  0  0  0  0  0  0
   41.7530   35.1900   38.2280 H   0  0  0  0  0  0  0  0  0  0  0  0
   41.2180   36.0090   39.8160 H   0  0  0  0  0  0  0  0  0  0  0  0
   40.3710   33.0410   38.8510 H   0  0  0  0  0  0  0  0  0  0  0  0
   42.9880   33.1340   39.3410 C   0  0  0  0  0  0  0  0  0  0  0  0
   44.1180   33.6010   39.3870 O   0  0  0  0  0  0  0  0  0  0  0  0
   42.5640   30.7290   39.0990 C   0  0  0  0  0  0  0  0  0  0  0  0
   42.7980   31.9480   38.5820 C   0  0  0  0  0  0  0  0  0  0  0  0
   42.8540   32.0240   37.1520 C   0  0  0  0  0  0  0  0  0  0  0  0
   42.6790   30.9220   36.3880 N   0  0  0  0  0  0  0  0  0  0  0  0
   42.4460   29.7190   36.9710 C   0  0  0  0  0  0  0  0  0  0  0  0
   42.3910   29.6350   38.2870 N   0  0  0  0  0  0  0  0  0  0  0  0
   42.5260   30.6970   40.1850 H   0  0  0  0  0  0  0  0  0  0  0  0
   43.0220   32.9080   36.5980 H   0  0  0  0  0  0  0  0  0  0  0  0
   42.2900   28.7730   36.4670 H   0  0  0  0  0  0  0  0  0  0  0  0
   38.3170   31.8020   41.2930 O   0  0  0  0  0  0  0  0  0  0  0  0
   37.5760   30.6360   41.2680 C   0  0  0  0  0  0  0  0  0  0  0  0
   36.2820   30.4310   40.8010 C   0  0  0  0  0  0  0  0  0  0  0  0
   35.7250   29.1830   40.8660 C   0  0  0  0  0  0  0  0  0  0  0  0
   36.4390   28.1430   41.3870 N   0  0  0  0  0  0  0  0  0  0  0  0
   37.6930   28.3510   41.8380 C   0  0  0  0  0  0  0  0  0  0  0  0
   38.2710   29.5970   41.7830 N   0  0  0  0  0  0  0  0  0  0  0  0
   35.8270   31.3330   40.4140 H   0  0  0  0  0  0  0  0  0  0  0  0
   34.7070   29.0800   40.4840 H   0  0  0  0  0  0  0  0  0  0  0  0
   38.4050   27.1990   42.3860 C   0  0  0  0  0  0  0  0  0  0  0  0
   39.3400   27.2990   43.3950 C   0  0  0  0  0  3  0  0  0  0  0  0
   40.0220   26.2210   43.9250 C   0  0  0  0  0  0  0  0  0  0  0  0
   40.7540   26.3090   44.7170 H   0  0  0  0  0  0  0  0  0  0  0  0
   39.7090   25.0120   43.3750 N   0  0  0  0  0  0  0  0  0  0  0  0
   38.7900   24.9130   42.3840 C   0  0  0  0  0  3  0  0  0  0  0  0
   38.1370   26.0030   41.8870 N   0  0  0  0  0  0  0  0  0  0  0  0
  2  1  2  6  0  0  0
  2  5  1  0  0  0  0
  2 24  1  0  0  0  0
  3  4  1  0  0  0  0
  3  2  1  0  0  0  0
  6  9  1  1  0  0  0
  7  8  1  0  0  0  0
  7 11  1  0  0  0  0
  7  6  1  0  0  0  0
  8 12  1  6  0  0  0
  8  6  1  0  0  0  0
  8  5  1  0  0  0  0
 10  7  1  0  0  0  0
 13 14  2  0  0  0  0
 13  6  1  0  0  0  0
 15 21  1  0  0  0  0
 16 15  1  0  0  0  0
 16 13  1  0  0  0  0
 17 16  2  0  0  0  0
 18 19  2  0  0  0  0
 18 17  1  0  0  0  0
 19 20  1  0  0  0  0
 20 15  2  0  0  0  0
 22 17  1  0  0  0  0
 23 19  1  0  0  0  0
 25 24  1  0  0  0  0
 25 30  1  0  0  0  0
 26 27  1  0  0  0  0
 26 25  2  0  0  0  0
 27 28  2  0  0  0  0
 28 29  1  0  0  0  0
 29 33  1  0  0  0  0
 30 29  2  0  0  0  0
 31 26  1  0  0  0  0
 32 27  1  0  0  0  0
 33 34  1  0  0  0  0
 34 35  2  0  0  0  0
 35 36  1  0  0  0  0
 37 35  1  0  0  0  0
 38 37  2  0  0  0  0
 39 38  1  0  0  0  0
 39 33  2  0  0  0  0
M  END
>  <minimizedAffinity>
-5.78627253

$$$$

 OpenBabel03242512133D

 39 42  0  0  1  0  0  0  0  0999 V2000
   38.8560   27.1290   44.2450 O   0  0  0  0  0  0  0  0  0  0  0  0
   37.6840   27.8210   43.5660 P   0  0  2  0  0  0  0  0  0  0  0  0
   36.9230   28.8910   44.5680 O   0  0  0  0  0  0  0  0  0  0  0  0
   35.9590   28.6790   44.6110 H   0  0  0  0  0  0  0  0  0  0  0  0
   36.6990   26.6020   42.9270 O   0  0  0  0  0  0  0  0  0  0  0  0
   37.0110   25.7210   40.6470 C   0  0  1  0  0  0  0  0  0  0  0  0
   36.9120   24.5670   41.7220 C   0  0  0  0  0  0  0  0  0  0  0  0
   37.4670   25.8600   42.0510 C   0  0  2  0  0  0  0  0  0  0  0  0
   36.0420   26.1280   40.3760 H   0  0  0  0  0  0  0  0  0  0  0  0
   37.6100   23.7180   41.5900 H   0  0  0  0  0  0  0  0  0  0  0  0
   35.8850   24.2850   42.0160 H   0  0  0  0  0  0  0  0  0  0  0  0
   38.5420   26.1270   42.0810 H   0  0  0  0  0  0  0  0  0  0  0  0
   37.9990   25.3900   39.5790 C   0  0  0  0  0  0  0  0  0  0  0  0
   37.6010   24.7320   38.6270 O   0  0  0  0  0  0  0  0  0  0  0  0
   39.8140   27.0240   39.3440 C   0  0  0  0  0  0  0  0  0  0  0  0
   39.3650   25.7800   39.5840 C   0  0  0  0  0  0  0  0  0  0  0  0
   40.3660   24.7920   39.8660 C   0  0  0  0  0  0  0  0  0  0  0  0
   41.6780   25.1170   39.8820 N   0  0  0  0  0  0  0  0  0  0  0  0
   42.0680   26.3920   39.6310 C   0  0  0  0  0  0  0  0  0  0  0  0
   41.1570   27.3110   39.3720 N   0  0  0  0  0  0  0  0  0  0  0  0
   39.0370   27.7540   39.1350 H   0  0  0  0  0  0  0  0  0  0  0  0
   40.1720   23.7760   40.0800 H   0  0  0  0  0  0  0  0  0  0  0  0
   43.0830   26.7690   39.6170 H   0  0  0  0  0  0  0  0  0  0  0  0
   38.4180   28.6370   42.2170 O   0  0  0  0  0  0  0  0  0  0  0  0
   37.7910   29.6260   41.4850 C   0  0  0  0  0  0  0  0  0  0  0  0
   36.5250   29.6190   40.9070 C   0  0  0  0  0  0  0  0  0  0  0  0
   36.0880   30.7150   40.2150 C   0  0  0  0  0  0  0  0  0  0  0  0
   36.8910   31.8120   40.0930 N   0  0  0  0  0  0  0  0  0  0  0  0
   38.1160   31.8110   40.6550 C   0  0  0  0  0  0  0  0  0  0  0  0
   38.5770   30.7200   41.3550 N   0  0  0  0  0  0  0  0  0  0  0  0
   35.9930   28.6940   41.0760 H   0  0  0  0  0  0  0  0  0  0  0  0
   35.0860   30.6540   39.7840 H   0  0  0  0  0  0  0  0  0  0  0  0
   38.9280   33.0130   40.4890 C   0  0  0  0  0  0  0  0  0  0  0  0
   40.3060   32.9910   40.4260 C   0  0  0  0  0  3  0  0  0  0  0  0
   41.0900   34.1170   40.2680 C   0  0  0  0  0  0  0  0  0  0  0  0
   42.1700   34.0900   40.2190 H   0  0  0  0  0  0  0  0  0  0  0  0
   40.4010   35.2920   40.1770 N   0  0  0  0  0  0  0  0  0  0  0  0
   39.0480   35.3150   40.2390 C   0  0  0  0  0  3  0  0  0  0  0  0
   38.3090   34.1790   40.3950 N   0  0  0  0  0  0  0  0  0  0  0  0
  2  1  2  1  0  0  0
  2  3  1  0  0  0  0
  3  4  1  0  0  0  0
  5  2  1  0  0  0  0
  6  9  1  6  0  0  0
  6  7  1  0  0  0  0
  6  8  1  0  0  0  0
  7 11  1  0  0  0  0
  7  8  1  0  0  0  0
  8 12  1  1  0  0  0
  8  5  1  0  0  0  0
 10  7  1  0  0  0  0
 13 16  1  0  0  0  0
 13  6  1  0  0  0  0
 14 13  2  0  0  0  0
 15 20  2  0  0  0  0
 15 16  1  0  0  0  0
 16 17  2  0  0  0  0
 17 18  1  0  0  0  0
 17 22  1  0  0  0  0
 19 18  2  0  0  0  0
 20 19  1  0  0  0  0
 21 15  1  0  0  0  0
 23 19  1  0  0  0  0
 24  2  1  0  0  0  0
 25 24  1  0  0  0  0
 26 31  1  0  0  0  0
 26 25  2  0  0  0  0
 27 26  1  0  0  0  0
 28 27  2  0  0  0  0
 28 29  1  0  0  0  0
 29 30  2  0  0  0  0
 30 25  1  0  0  0  0
 32 27  1  0  0  0  0
 33 29  1  0  0  0  0
 34 33  1  0  0  0  0
 35 34  2  0  0  0  0
 36 35  1  0  0  0  0
 37 38  2  0  0  0  0
 37 35  1  0  0  0  0
 38 39  1  0  0  0  0
 39 33  2  0  0  0  0
M  END
>  <minimizedAffinity>
-5.75339746

$$$$

 OpenBabel03242512133D

 39 42  0  0  1  0  0  0  0  0999 V2000
   43.8540   32.4490   39.5720 O   0  0  0  0  0  0  0  0  0  0  0  0
   43.4860   33.7750   40.2210 P   0  0  2  0  0  0  0  0  0  0  0  0
   44.7790   34.7960   40.3330 O   0  0  0  0  0  0  0  0  0  0  0  0
   44.8930   35.0890   41.2710 H   0  0  0  0  0  0  0  0  0  0  0  0
   42.7260   33.4070   41.6880 O   0  0  0  0  0  0  0  0  0  0  0  0
   41.3160   31.4460   42.1760 C   0  0  1  0  0  0  0  0  0  0  0  0
   42.5820   31.5180   43.1190 C   0  0  0  0  0  0  0  0  0  0  0  0
   42.6160   32.0330   41.7690 C   0  0  2  0  0  0  0  0  0  0  0  0
   40.5210   32.1160   42.4870 H   0  0  0  0  0  0  0  0  0  0  0  0
   43.0920   30.5570   43.3230 H   0  0  0  0  0  0  0  0  0  0  0  0
   42.4800   32.1860   43.9920 H   0  0  0  0  0  0  0  0  0  0  0  0
   43.0090   31.5110   40.8750 H   0  0  0  0  0  0  0  0  0  0  0  0
   40.9920   30.0380   41.8020 C   0  0  0  0  0  0  0  0  0  0  0  0
   41.6040   29.5490   40.8620 O   0  0  0  0  0  0  0  0  0  0  0  0
   40.2390   27.9630   42.8730 C   0  0  0  0  0  0  0  0  0  0  0  0
   40.0300   29.2230   42.4560 C   0  0  0  0  0  0  0  0  0  0  0  0
   38.7240   29.7600   42.7050 C   0  0  0  0  0  0  0  0  0  0  0  0
   37.7750   29.0210   43.3250 N   0  0  0  0  0  0  0  0  0  0  0  0
   38.0490   27.7540   43.7220 C   0  0  0  0  0  0  0  0  0  0  0  0
   39.2480   27.2480   43.5000 N   0  0  0  0  0  0  0  0  0  0  0  0
   41.2360   27.5790   42.6730 H   0  0  0  0  0  0  0  0  0  0  0  0
   38.4080   30.7340   42.4440 H   0  0  0  0  0  0  0  0  0  0  0  0
   37.3750   27.0710   44.2240 H   0  0  0  0  0  0  0  0  0  0  0  0
   42.2650   34.4210   39.1650 O   0  0  0  0  0  0  0  0  0  0  0  0
   40.9320   34.5330   39.5110 C   0  0  0  0  0  0  0  0  0  0  0  0
   40.2220   35.6610   39.9090 C   0  0  0  0  0  0  0  0  0  0  0  0
   38.8920   35.5560   40.2090 C   0  0  0  0  0  0  0  0  0  0  0  0
   38.2630   34.3480   40.1190 N   0  0  0  0  0  0  0  0  0  0  0  0
   38.9590   33.2590   39.7340 C   0  0  0  0  0  0  0  0  0  0  0  0
   40.2970   33.3410   39.4270 N   0  0  0  0  0  0  0  0  0  0  0  0
   40.8340   36.5520   39.9400 H   0  0  0  0  0  0  0  0  0  0  0  0
   38.3850   36.4740   40.5150 H   0  0  0  0  0  0  0  0  0  0  0  0
   38.2320   31.9950   39.6570 C   0  0  0  0  0  0  0  0  0  0  0  0
   36.9510   31.8290   40.1410 C   0  0  0  0  0  3  0  0  0  0  0  0
   36.2490   30.6410   40.0770 C   0  0  0  0  0  0  0  0  0  0  0  0
   35.2440   30.5220   40.4590 H   0  0  0  0  0  0  0  0  0  0  0  0
   36.9160   29.6070   39.4880 N   0  0  0  0  0  0  0  0  0  0  0  0
   38.1740   29.7690   39.0120 C   0  0  0  0  0  3  0  0  0  0  0  0
   38.8350   30.9600   39.0950 N   0  0  0  0  0  0  0  0  0  0  0  0
  2  1  2  6  0  0  0
  2  3  1  0  0  0  0
  2  5  1  0  0  0  0
  3  4  1  0  0  0  0
  5  8  1  0  0  0  0
  6  9  1  1  0  0  0
  6  7  1  0  0  0  0
  7 10  1  0  0  0  0
  7 11  1  0  0  0  0
  8 12  1  6  0  0  0
  8  6  1  0  0  0  0
  8  7  1  0  0  0  0
 13  6  1  0  0  0  0
 13 16  1  0  0  0  0
 14 13  2  0  0  0  0
 15 20  1  0  0  0  0
 16 17  1  0  0  0  0
 16 15  2  0  0  0  0
 17 18  2  0  0  0  0
 18 19  1  0  0  0  0
 19 23  1  0  0  0  0
 20 19  2  0  0  0  0
 21 15  1  0  0  0  0
 22 17  1  0  0  0  0
 24 25  1  0  0  0  0
 24  2  1  0  0  0  0
 25 26  1  0  0  0  0
 26 31  1  0  0  0  0
 26 27  2  0  0  0  0
 27 32  1  0  0  0  0
 28 27  1  0  0  0  0
 29 28  2  0  0  0  0
 30 25  2  0  0  0  0
 30 29  1  0  0  0  0
 33 29  1  0  0  0  0
 33 34  1  0  0  0  0
 35 34  2  0  0  0  0
 35 36  1  0  0  0  0
 37 35  1  0  0  0  0
 38 39  1  0  0  0  0
 38 37  2  0  0  0  0
 39 33  2  0  0  0  0
M  END
>  <minimizedAffinity>
-5.73008776

$$$$

 OpenBabel03242512133D

 39 42  0  0  1  0  0  0  0  0999 V2000
   38.8290   27.1670   44.0580 O   0  0  0  0  0  0  0  0  0  0  0  0
   37.7100   28.0140   43.4720 P   0  0  2  0  0  0  0  0  0  0  0  0
   36.8750   28.8380   44.6340 O   0  0  0  0  0  0  0  0  0  0  0  0
   35.9100   28.6370   44.5560 H   0  0  0  0  0  0  0  0  0  0  0  0
   36.7780   26.9890   42.5000 O   0  0  0  0  0  0  0  0  0  0  0  0
   36.9470   26.4300   40.1060 C   0  0  1  0  0  0  0  0  0  0  0  0
   37.3490   25.2130   41.0310 C   0  0  0  0  0  0  0  0  0  0  0  0
   37.5690   26.5800   41.4440 C   0  0  2  0  0  0  0  0  0  0  0  0
   35.8740   26.5550   40.0180 H   0  0  0  0  0  0  0  0  0  0  0  0
   38.2240   24.6200   40.7030 H   0  0  0  0  0  0  0  0  0  0  0  0
   36.5020   24.6190   41.4190 H   0  0  0  0  0  0  0  0  0  0  0  0
   38.5180   27.1470   41.3650 H   0  0  0  0  0  0  0  0  0  0  0  0
   37.8020   26.4920   38.8840 C   0  0  0  0  0  0  0  0  0  0  0  0
   37.7580   25.5410   38.1150 O   0  0  0  0  0  0  0  0  0  0  0  0
   40.0050   27.5340   38.5930 C   0  0  0  0  0  0  0  0  0  0  0  0
   38.6620   27.5710   38.5470 C   0  0  0  0  0  0  0  0  0  0  0  0
   38.0810   28.8110   38.1190 C   0  0  0  0  0  0  0  0  0  0  0  0
   38.8600   29.8660   37.7870 N   0  0  0  0  0  0  0  0  0  0  0  0
   40.2110   29.7640   37.8550 C   0  0  0  0  0  0  0  0  0  0  0  0
   40.7580   28.6290   38.2460 N   0  0  0  0  0  0  0  0  0  0  0  0
   40.4210   26.5840   38.9190 H   0  0  0  0  0  0  0  0  0  0  0  0
   37.0450   28.9950   38.0240 H   0  0  0  0  0  0  0  0  0  0  0  0
   40.9320   30.5360   37.6150 H   0  0  0  0  0  0  0  0  0  0  0  0
   38.5420   29.1060   42.4040 O   0  0  0  0  0  0  0  0  0  0  0  0
   37.9080   30.0770   41.6540 C   0  0  0  0  0  0  0  0  0  0  0  0
   36.5860   30.1280   41.2220 C   0  0  0  0  0  0  0  0  0  0  0  0
   36.1530   31.1930   40.4810 C   0  0  0  0  0  0  0  0  0  0  0  0
   37.0150   32.2030   40.1670 N   0  0  0  0  0  0  0  0  0  0  0  0
   38.2940   32.1470   40.5890 C   0  0  0  0  0  0  0  0  0  0  0  0
   38.7520   31.0850   41.3350 N   0  0  0  0  0  0  0  0  0  0  0  0
   36.0100   29.2680   41.5360 H   0  0  0  0  0  0  0  0  0  0  0  0
   35.1060   31.1790   40.1700 H   0  0  0  0  0  0  0  0  0  0  0  0
   39.1690   33.2570   40.2210 C   0  0  0  0  0  0  0  0  0  0  0  0
   38.8440   34.5800   40.4400 C   0  0  0  0  0  3  0  0  0  0  0  0
   39.6580   35.6420   40.0990 C   0  0  0  0  0  0  0  0  0  0  0  0
   39.3950   36.6760   40.2750 H   0  0  0  0  0  0  0  0  0  0  0  0
   40.8420   35.2970   39.5140 N   0  0  0  0  0  0  0  0  0  0  0  0
   41.1630   33.9990   39.2990 C   0  0  0  0  0  3  0  0  0  0  0  0
   40.3300   32.9770   39.6500 N   0  0  0  0  0  0  0  0  0  0  0  0
  2  1  2  1  0  0  0
  2  3  1  0  0  0  0
  4  3  1  0  0  0  0
  5  2  1  0  0  0  0
  6  9  1  6  0  0  0
  6  7  1  0  0  0  0
  6  8  1  0  0  0  0
  7 11  1  0  0  0  0
  7  8  1  0  0  0  0
  8 12  1  1  0  0  0
  8  5  1  0  0  0  0
 10  7  1  0  0  0  0
 13  6  1  0  0  0  0
 14 13  2  0  0  0  0
 15 21  1  0  0  0  0
 16 15  1  0  0  0  0
 16 13  1  0  0  0  0
 17 16  2  0  0  0  0
 18 19  2  0  0  0  0
 18 17  1  0  0  0  0
 19 20  1  0  0  0  0
 20 15  2  0  0  0  0
 22 17  1  0  0  0  0
 23 19  1  0  0  0  0
 24  2  1  0  0  0  0
 25 24  1  0  0  0  0
 26 31  1  0  0  0  0
 26 25  2  0  0  0  0
 27 26  1  0  0  0  0
 28 27  2  0  0  0  0
 28 29  1  0  0  0  0
 29 30  2  0  0  0  0
 30 25  1  0  0  0  0
 32 27  1  0  0  0  0
 33 34  1  0  0  0  0
 33 29  1  0  0  0  0
 35 36  1  0  0  0  0
 35 34  2  0  0  0  0
 37 35  1  0  0  0  0
 38 37  2  0  0  0  0
 38 39  1  0  0  0  0
 39 33  2  0  0  0  0
M  END
>  <minimizedAffinity>
-5.71386909

$$$$

 OpenBabel03242512133D

 39 42  0  0  1  0  0  0  0  0999 V2000
   37.2980   30.4370   39.1260 O   0  0  0  0  0  0  0  0  0  0  0  0
   36.8400   30.8960   40.5020 P   0  0  2  0  0  0  0  0  0  0  0  0
   35.3660   30.2720   40.9110 O   0  0  0  0  0  0  0  0  0  0  0  0
   34.7500   31.0060   41.1550 H   0  0  0  0  0  0  0  0  0  0  0  0
   36.9400   32.5850   40.5130 O   0  0  0  0  0  0  0  0  0  0  0  0
   39.2870   33.2340   40.8880 C   0  0  1  0  0  0  0  0  0  0  0  0
   38.4850   34.3390   40.0930 C   0  0  0  0  0  0  0  0  0  0  0  0
   38.1610   32.9360   39.9710 C   0  0  2  0  0  0  0  0  0  0  0  0
   39.0930   33.2580   41.9550 H   0  0  0  0  0  0  0  0  0  0  0  0
   39.0230   34.8250   39.2570 H   0  0  0  0  0  0  0  0  0  0  0  0
   37.8810   35.0210   40.7170 H   0  0  0  0  0  0  0  0  0  0  0  0
   38.4920   32.2510   39.1650 H   0  0  0  0  0  0  0  0  0  0  0  0
   40.6910   33.1180   40.3940 C   0  0  0  0  0  0  0  0  0  0  0  0
   40.8680   32.5550   39.3220 O   0  0  0  0  0  0  0  0  0  0  0  0
   42.7710   32.8510   41.6680 C   0  0  0  0  0  0  0  0  0  0  0  0
   41.8360   33.6120   41.0740 C   0  0  0  0  0  0  0  0  0  0  0  0
   42.0380   35.0300   41.1500 C   0  0  0  0  0  0  0  0  0  0  0  0
   43.1130   35.5470   41.7860 N   0  0  0  0  0  0  0  0  0  0  0  0
   44.0230   34.7240   42.3660 C   0  0  0  0  0  0  0  0  0  0  0  0
   43.8500   33.4170   42.3030 N   0  0  0  0  0  0  0  0  0  0  0  0
   42.5970   31.7810   41.5960 H   0  0  0  0  0  0  0  0  0  0  0  0
   41.3970   35.7570   40.7290 H   0  0  0  0  0  0  0  0  0  0  0  0
   44.9180   35.0190   42.9000 H   0  0  0  0  0  0  0  0  0  0  0  0
   38.0870   30.3080   41.5630 O   0  0  0  0  0  0  0  0  0  0  0  0
   38.1280   29.0190   42.0580 C   0  0  0  0  0  0  0  0  0  0  0  0
   38.6540   28.5600   43.2610 C   0  0  0  0  0  0  0  0  0  0  0  0
   38.5920   27.2280   43.5660 C   0  0  0  0  0  0  0  0  0  0  0  0
   38.0140   26.3520   42.6920 N   0  0  0  0  0  0  0  0  0  0  0  0
   37.5070   26.8060   41.5280 C   0  0  0  0  0  0  0  0  0  0  0  0
   37.5590   28.1410   41.2010 N   0  0  0  0  0  0  0  0  0  0  0  0
   39.0820   29.3510   43.8610 H   0  0  0  0  0  0  0  0  0  0  0  0
   39.0200   26.9240   44.5240 H   0  0  0  0  0  0  0  0  0  0  0  0
   36.9020   25.8220   40.6350 C   0  0  0  0  0  0  0  0  0  0  0  0
   36.5160   26.1110   39.3430 C   0  0  0  0  0  3  0  0  0  0  0  0
   35.9440   25.1920   38.4840 C   0  0  0  0  0  0  0  0  0  0  0  0
   35.6450   25.4290   37.4710 H   0  0  0  0  0  0  0  0  0  0  0  0
   35.7770   23.9420   39.0030 N   0  0  0  0  0  0  0  0  0  0  0  0
   36.1550   23.6570   40.2730 C   0  0  0  0  0  3  0  0  0  0  0  0
   36.7180   24.5930   41.0910 N   0  0  0  0  0  0  0  0  0  0  0  0
  2  1  2  6  0  0  0
  2  5  1  0  0  0  0
  2  3  1  0  0  0  0
  2 24  1  0  0  0  0
  3  4  1  0  0  0  0
  6  9  1  1  0  0  0
  7 11  1  0  0  0  0
  7  6  1  0  0  0  0
  8 12  1  6  0  0  0
  8  7  1  0  0  0  0
  8  5  1  0  0  0  0
  8  6  1  0  0  0  0
 10  7  1  0  0  0  0
 13  6  1  0  0  0  0
 13 16  1  0  0  0  0
 14 13  2  0  0  0  0
 15 20  1  0  0  0  0
 16 17  1  0  0  0  0
 16 15  2  0  0  0  0
 17 18  2  0  0  0  0
 18 19  1  0  0  0  0
 19 23  1  0  0  0  0
 20 19  2  0  0  0  0
 21 15  1  0  0  0  0
 22 17  1  0  0  0  0
 24 25  1  0  0  0  0
 25 26  1  0  0  0  0
 26 27  2  0  0  0  0
 26 31  1  0  0  0  0
 27 32  1  0  0  0  0
 28 27  1  0  0  0  0
 29 28  2  0  0  0  0
 30 29  1  0  0  0  0
 30 25  2  0  0  0  0
 33 39  1  0  0  0  0
 33 29  1  0  0  0  0
 34 33  2  0  0  0  0
 35 37  2  0  0  0  0
 35 34  1  0  0  0  0
 36 35  1  0  0  0  0
 37 38  1  0  0  0  0
 38 39  2  0  0  0  0
M  END
>  <minimizedAffinity>
-5.6962285

$$$$
