
 OpenBabel03252506373D

 42 45  0  0  1  0  0  0  0  0999 V2000
   44.5170   35.4970   45.1440 C   0  0  0  0  0  0  0  0  0  0  0  0
   45.1730   35.4930   43.9010 C   0  0  0  0  0  0  0  0  0  0  0  0
   46.0980   34.5410   43.6450 C   0  0  0  0  0  0  0  0  0  0  0  0
   46.3380   33.6310   44.6240 N   0  0  0  0  0  0  0  0  0  0  0  0
   45.7150   33.6420   45.7920 C   0  0  0  0  0  0  0  0  0  0  0  0
   44.8010   34.5690   46.0680 N   0  0  0  0  0  0  0  0  0  0  0  0
   46.0470   32.6320   46.7610 N   0  0  0  0  0  0  0  0  0  0  0  0
   45.3040   32.3820   47.9440 C   0  0  0  0  0  0  0  0  0  0  0  0
   46.3760   32.0380   48.9620 C   0  0  0  0  0  0  0  0  0  0  0  0
   47.6630   31.9510   48.2000 C   0  0  0  0  0  0  0  0  0  0  0  0
   47.1770   31.7330   46.7670 C   0  0  1  0  0  0  0  0  0  0  0  0
   43.7800   36.2750   45.3160 H   0  0  0  0  0  0  0  0  0  0  0  0
   46.6220   34.5080   42.7000 H   0  0  0  0  0  0  0  0  0  0  0  0
   44.4780   31.7550   48.0280 H   0  0  0  0  0  0  0  0  0  0  0  0
   44.9430   33.4000   48.3010 H   0  0  0  0  0  0  0  0  0  0  0  0
   46.4000   32.6810   49.8420 H   0  0  0  0  0  0  0  0  0  0  0  0
   46.1360   31.0090   49.3600 H   0  0  0  0  0  0  0  0  0  0  0  0
   48.2490   31.1020   48.5590 H   0  0  0  0  0  0  0  0  0  0  0  0
   48.1560   32.9420   48.2990 H   0  0  0  0  0  0  0  0  0  0  0  0
   47.9650   32.0850   46.0820 H   0  0  0  0  0  0  0  0  0  0  0  0
   44.8200   36.5180   42.9550 N   0  0  0  0  0  0  0  0  0  0  0  0
   45.1730   36.4020   41.9750 H   0  0  0  0  0  0  0  0  0  0  0  0
   44.2470   37.3230   43.2430 H   0  0  0  0  0  0  0  0  0  0  0  0
   46.6850   30.0380   46.5760 S   0  0  0  0  0  0  0  0  0  0  0  0
   45.5570   30.5260   43.4720 O   0  0  0  0  0  0  0  0  0  0  0  0
   44.9620   29.9760   44.4140 C   0  0  0  0  0  0  0  0  0  0  0  0
   45.1140   29.7400   45.8750 C   0  0  1  0  0  0  0  0  0  0  0  0
   44.5970   28.3300   46.0020 C   0  0  0  0  0  0  0  0  0  0  0  0
   43.2540   28.5310   45.2980 C   0  0  0  0  0  0  0  0  0  0  0  0
   43.7100   29.3150   44.1480 N   0  0  0  0  0  0  0  0  0  0  0  0
   44.2390   30.3220   46.2630 H   0  0  0  0  0  0  0  0  0  0  0  0
   45.1780   27.6290   45.3660 H   0  0  0  0  0  0  0  0  0  0  0  0
   44.4880   27.9950   47.0380 H   0  0  0  0  0  0  0  0  0  0  0  0
   42.5320   29.0650   45.9100 H   0  0  0  0  0  0  0  0  0  0  0  0
   42.8990   27.5550   44.9180 H   0  0  0  0  0  0  0  0  0  0  0  0
   42.9150   29.3450   42.9480 C   0  0  0  0  0  0  0  0  0  0  0  0
   42.0810   30.3310   42.5170 C   0  0  0  0  0  3  0  0  0  0  0  0
   41.4270   30.1110   41.3180 C   0  0  0  0  0  0  0  0  0  0  0  0
   40.7590   30.9180   40.9860 H   0  0  0  0  0  0  0  0  0  0  0  0
   41.5870   28.9900   40.5920 N   0  0  0  0  0  0  0  0  0  0  0  0
   42.4170   28.0250   41.0370 C   0  0  0  0  0  3  0  0  0  0  0  0
   43.0590   28.2180   42.1930 N   0  0  0  0  0  0  0  0  0  0  0  0
  1 12  1  0  0  0  0
  1  6  1  0  0  0  0
  2  1  2  0  0  0  0
  3  2  1  0  0  0  0
  3  4  2  0  0  0  0
  4  5  1  0  0  0  0
  5  6  2  0  0  0  0
  5  7  1  0  0  0  0
  7 11  1  0  0  0  0
  7  8  1  0  0  0  0
  8 14  1  0  0  0  0
  8 15  1  0  0  0  0
  8  9  1  0  0  0  0
  9 17  1  0  0  0  0
  9 16  1  0  0  0  0
 10 19  1  0  0  0  0
 10 18  1  0  0  0  0
 10  9  1  0  0  0  0
 11 20  1  6  0  0  0
 11 10  1  0  0  0  0
 13  3  1  0  0  0  0
 21 23  1  0  0  0  0
 21  2  1  0  0  0  0
 22 21  1  0  0  0  0
 24 11  1  0  0  0  0
 25 26  2  0  0  0  0
 26 27  1  0  0  0  0
 27 28  1  0  0  0  0
 27 31  1  1  0  0  0
 27 24  1  0  0  0  0
 28 33  1  0  0  0  0
 29 34  1  0  0  0  0
 29 28  1  0  0  0  0
 30 26  1  0  0  0  0
 30 29  1  0  0  0  0
 32 28  1  0  0  0  0
 35 29  1  0  0  0  0
 36 30  1  0  0  0  0
 37 36  1  0  0  0  0
 38 37  2  0  0  0  0
 39 38  1  0  0  0  0
 40 41  2  0  0  0  0
 40 38  1  0  0  0  0
 41 42  1  0  0  0  0
 42 36  2  0  0  0  0
M  END
>  <minimizedAffinity>
-5.25606155

>  <minimizedRMSD>
0.0814693868

$$$$
