
 OpenBabel03242515463D

 39 42  0  0  1  0  0  0  0  0999 V2000
   39.7160   34.6180   40.2260 C   0  0  0  0  0  0  0  0  0  0  0  0
   40.8560   34.1980   40.9230 C   0  0  0  0  0  0  0  0  0  0  0  0
   40.9040   32.9570   41.5220 C   0  0  0  0  0  0  0  0  0  0  0  0
   39.8240   32.1000   41.4430 C   0  0  0  0  0  0  0  0  0  0  0  0
   38.6950   32.5090   40.7540 C   0  0  0  0  0  0  0  0  0  0  0  0
   38.6180   33.7340   40.1510 C   0  0  0  0  0  0  0  0  0  0  0  0
   37.7850   31.4430   40.8450 O   0  0  0  0  0  0  0  0  0  0  0  0
   38.2320   30.5490   41.7870 C   0  0  2  0  0  0  0  0  0  0  0  0
   39.6090   30.8140   41.9470 O   0  0  0  0  0  0  0  0  0  0  0  0
   39.6090   35.5750   39.7340 H   0  0  0  0  0  0  0  0  0  0  0  0
   41.8210   32.7140   42.0400 H   0  0  0  0  0  0  0  0  0  0  0  0
   37.7390   34.0640   39.6100 H   0  0  0  0  0  0  0  0  0  0  0  0
   37.7190   30.6980   42.7390 H   0  0  0  0  0  0  0  0  0  0  0  0
   38.1190   29.1160   41.3480 C   0  0  0  0  0  0  0  0  0  0  0  0
   37.1180   28.7410   40.4750 C   0  0  0  0  0  0  0  0  0  0  0  0
   37.0020   27.4100   40.0590 C   0  0  0  0  0  0  0  0  0  0  0  0
   36.2070   27.1010   39.3630 H   0  0  0  0  0  0  0  0  0  0  0  0
   37.8860   26.5110   40.5300 N   0  0  0  0  0  0  0  0  0  0  0  0
   38.8570   26.8730   41.3770 C   0  0  0  0  0  0  0  0  0  0  0  0
   38.9800   28.1630   41.7880 N   0  0  0  0  0  0  0  0  0  0  0  0
   42.1670   35.4120   40.9080 S   0  0  0  0  0  0  0  0  0  0  0  0
   43.7530   34.5970   40.5180 C   0  0  0  0  0  0  0  0  0  0  0  0
   43.7460   33.7680   39.4560 C   0  0  0  0  0  0  0  0  0  0  0  0
   44.9600   33.1390   39.1850 C   0  0  0  0  0  0  0  0  0  0  0  0
   46.0500   33.3590   39.9380 N   0  0  0  0  0  0  0  0  0  0  0  0
   46.0120   34.1980   40.9900 C   0  0  0  0  0  0  0  0  0  0  0  0
   44.8490   34.7960   41.2470 N   0  0  0  0  0  0  0  0  0  0  0  0
   45.0630   32.2130   38.0830 N   0  0  0  0  0  0  0  0  0  0  0  0
   45.2030   31.1870   38.0570 H   0  0  0  0  0  0  0  0  0  0  0  0
   44.9920   32.5800   37.0970 H   0  0  0  0  0  0  0  0  0  0  0  0
   42.7180   33.3610   38.4480 C   0  0  0  0  0  0  0  0  0  0  0  0
   43.1330   33.3660   37.4200 H   0  0  0  0  0  0  0  0  0  0  0  0
   41.9700   34.1960   38.4590 H   0  0  0  0  0  0  0  0  0  0  0  0
   42.2550   32.3790   38.7070 H   0  0  0  0  0  0  0  0  0  0  0  0
   47.0740   34.4880   41.8170 O   0  0  0  0  0  0  0  0  0  0  0  0
   48.2840   34.9060   41.2080 C   0  0  0  0  0  0  0  0  0  0  0  0
   49.2850   34.0030   41.3970 F   0  0  0  0  0  0  0  0  0  0  0  0
   48.0060   35.0860   39.8410 F   0  0  0  0  0  0  0  0  0  0  0  0
   48.6670   36.1040   41.7890 F   0  0  0  0  0  0  0  0  0  0  0  0
  1  2  1  0  0  0  0
  2  3  2  0  0  0  0
  3 11  1  0  0  0  0
  4  3  1  0  0  0  0
  4  9  1  0  0  0  0
  5  7  1  0  0  0  0
  5  4  2  0  0  0  0
  6  1  2  0  0  0  0
  6  5  1  0  0  0  0
  7  8  1  0  0  0  0
  8  9  1  0  0  0  0
  8 13  1  1  0  0  0
 10  1  1  0  0  0  0
 12  6  1  0  0  0  0
 14  8  1  0  0  0  0
 14 20  1  0  0  0  0
 15 14  2  0  0  0  0
 16 15  1  0  0  0  0
 16 18  2  0  0  0  0
 17 16  1  0  0  0  0
 18 19  1  0  0  0  0
 19 20  2  0  0  0  0
 21  2  1  0  0  0  0
 22 21  1  0  0  0  0
 22 27  1  0  0  0  0
 23 22  2  0  0  0  0
 24 23  1  0  0  0  0
 24 25  2  0  0  0  0
 25 26  1  0  0  0  0
 26 27  2  0  0  0  0
 26 35  1  0  0  0  0
 28 24  1  0  0  0  0
 29 28  1  0  0  0  0
 30 28  1  0  0  0  0
 31 33  1  0  0  0  0
 31 34  1  0  0  0  0
 31 23  1  0  0  0  0
 32 31  1  0  0  0  0
 36 37  1  0  0  0  0
 36 39  1  0  0  0  0
 36 35  1  0  0  0  0
 38 36  1  0  0  0  0
M  END
>  <minimizedAffinity>
-6.17417812

>  <minimizedRMSD>
0.0596859008

$$$$
