
 OpenBabel03242522233D

 26 28  0  0  0  0  0  0  0  0999 V2000
   44.4780   35.7790   44.9130 C   0  0  0  0  0  0  0  0  0  0  0  0
   45.1210   35.7230   43.6580 C   0  0  0  0  0  0  0  0  0  0  0  0
   46.0690   34.7250   43.3970 C   0  0  0  0  0  0  0  0  0  0  0  0
   46.3120   33.8510   44.4010 N   0  0  0  0  0  0  0  0  0  0  0  0
   45.6940   33.9200   45.5800 C   0  0  0  0  0  0  0  0  0  0  0  0
   44.7950   34.8620   45.8370 N   0  0  0  0  0  0  0  0  0  0  0  0
   43.7630   36.5860   45.0160 H   0  0  0  0  0  0  0  0  0  0  0  0
   44.8970   36.4370   42.8940 H   0  0  0  0  0  0  0  0  0  0  0  0
   44.6310   33.0640   41.4490 Cl  0  0  0  0  0  0  0  0  0  0  0  0
   46.1620   33.8830   41.1240 C   0  0  0  0  0  0  0  0  0  0  0  0
   46.7550   34.6390   42.1060 C   0  0  0  0  0  0  0  0  0  0  0  0
   47.9490   35.2600   41.8050 C   0  0  0  0  0  0  0  0  0  0  0  0
   48.5250   35.1240   40.5570 C   0  0  0  0  0  0  0  0  0  0  0  0
   47.8690   34.3380   39.5990 C   0  0  0  0  0  0  0  0  0  0  0  0
   48.6070   34.1710   38.0210 Cl  0  0  0  0  0  0  0  0  0  0  0  0
   46.6760   33.7010   39.8560 C   0  0  0  0  0  0  0  0  0  0  0  0
   48.4080   35.8530   42.5840 H   0  0  0  0  0  0  0  0  0  0  0  0
   49.4610   35.6050   40.3080 H   0  0  0  0  0  0  0  0  0  0  0  0
   46.1790   33.1000   39.1130 H   0  0  0  0  0  0  0  0  0  0  0  0
   46.0140   32.9370   46.6110 C   0  0  0  0  0  0  0  0  0  0  0  0
   45.2380   32.7890   47.7430 C   0  0  0  0  0  0  0  0  0  0  0  0
   45.4990   31.8710   48.7510 C   0  0  0  0  0  0  0  0  0  0  0  0
   44.8030   31.8710   49.5770 H   0  0  0  0  0  0  0  0  0  0  0  0
   46.5910   31.0880   48.5810 N   0  0  0  0  0  0  0  0  0  0  0  0
   47.3590   31.2220   47.4800 C   0  0  0  0  0  0  0  0  0  0  0  0
   47.0980   32.1260   46.4910 N   0  0  0  0  0  0  0  0  0  0  0  0
  1  7  1  0  0  0  0
  1  6  1  0  0  0  0
  2  1  2  0  0  0  0
  3  2  1  0  0  0  0
  3  4  2  0  0  0  0
  4  5  1  0  0  0  0
  5  6  2  0  0  0  0
  5 20  1  0  0  0  0
  8  2  1  0  0  0  0
 10  9  1  0  0  0  0
 10 11  1  0  0  0  0
 11  3  1  0  0  0  0
 12 11  2  0  0  0  0
 12 17  1  0  0  0  0
 13 12  1  0  0  0  0
 14 16  1  0  0  0  0
 14 13  2  0  0  0  0
 15 14  1  0  0  0  0
 16 10  2  0  0  0  0
 18 13  1  0  0  0  0
 19 16  1  0  0  0  0
 20 21  1  0  0  0  0
 21 22  2  0  0  0  0
 22 23  1  0  0  0  0
 24 22  1  0  0  0  0
 25 24  2  0  0  0  0
 26 20  2  0  0  0  0
 26 25  1  0  0  0  0
M  END
>  <minimizedAffinity>
-6.58968306

>  <minimizedRMSD>
0.448779136

$$$$
