
 OpenBabel03252503223D

 38 42  0  0  1  0  0  0  0  0999 V2000
   33.6960   28.5490   37.8950 C   0  0  1  0  0  0  0  0  0  0  0  0
   34.7410   27.6340   37.4830 C   0  0  0  0  0  0  0  0  0  0  0  0
   35.1420   29.0180   37.9200 C   0  0  2  0  0  0  0  0  0  0  0  0
   33.1950   28.5350   38.8920 H   0  0  0  0  0  0  0  0  0  0  0  0
   35.0410   26.7930   38.1640 H   0  0  0  0  0  0  0  0  0  0  0  0
   34.8950   27.3850   36.4280 H   0  0  0  0  0  0  0  0  0  0  0  0
   35.5380   29.6760   37.1280 H   0  0  0  0  0  0  0  0  0  0  0  0
   35.7510   29.1280   39.2740 C   0  0  0  0  0  0  0  0  0  0  0  0
   35.9140   30.3130   39.9580 C   0  0  0  0  0  0  0  0  0  0  0  0
   36.4780   30.3500   41.2160 C   0  0  0  0  0  0  0  0  0  0  0  0
   36.8960   29.1730   41.8200 C   0  0  0  0  0  0  0  0  0  0  0  0
   37.4600   29.1490   43.0590 N   0  0  0  0  0  0  0  0  0  0  0  0
   37.8570   27.9970   43.6290 C   0  0  0  0  0  0  0  0  0  0  0  0
   37.7250   26.7470   43.0020 C   0  0  0  0  0  0  0  0  0  0  0  0
   37.1540   26.7420   41.7390 C   0  0  0  0  0  0  0  0  0  0  0  0
   36.7540   27.9420   41.1730 C   0  0  0  0  0  0  0  0  0  0  0  0
   36.1820   27.9780   39.9140 C   0  0  0  0  0  0  0  0  0  0  0  0
   35.5870   31.2240   39.4830 H   0  0  0  0  0  0  0  0  0  0  0  0
   36.6230   31.2470   41.7800 H   0  0  0  0  0  0  0  0  0  0  0  0
   38.3090   27.9530   44.6130 H   0  0  0  0  0  0  0  0  0  0  0  0
   38.0490   25.8300   43.4740 H   0  0  0  0  0  0  0  0  0  0  0  0
   37.0370   25.7960   41.2280 H   0  0  0  0  0  0  0  0  0  0  0  0
   36.1280   26.9760   39.4750 H   0  0  0  0  0  0  0  0  0  0  0  0
   33.1780   29.2620   35.5350 C   0  0  0  0  0  0  0  0  0  0  0  0
   32.7890   29.1850   36.9000 C   0  0  0  0  0  0  0  0  0  0  0  0
   31.5630   29.7130   37.2550 C   0  0  0  0  0  0  0  0  0  0  0  0
   30.8090   30.2710   36.2670 N   0  0  0  0  0  0  0  0  0  0  0  0
   31.1910   30.3350   34.9820 C   0  0  0  0  0  0  0  0  0  0  0  0
   32.3880   29.8250   34.6150 N   0  0  0  0  0  0  0  0  0  0  0  0
   34.1290   28.8550   35.2550 H   0  0  0  0  0  0  0  0  0  0  0  0
   31.2250   29.6780   38.2790 H   0  0  0  0  0  0  0  0  0  0  0  0
   30.3470   30.9400   33.9820 C   0  0  0  0  0  0  0  0  0  0  0  0
   30.1680   30.3660   32.7500 C   0  0  0  0  0  3  0  0  0  0  0  0
   29.3600   30.9130   31.7470 C   0  0  0  0  0  0  0  0  0  0  0  0
   29.3300   30.3250   30.8230 H   0  0  0  0  0  0  0  0  0  0  0  0
   28.7180   32.0810   32.0170 N   0  0  0  0  0  0  0  0  0  0  0  0
   28.9200   32.6230   33.2530 C   0  0  0  0  0  3  0  0  0  0  0  0
   29.6970   32.0950   34.2200 N   0  0  0  0  0  0  0  0  0  0  0  0
  1  3  1  0  0  0  0
  1  4  1  1  0  0  0
  2  1  1  0  0  0  0
  2  3  1  0  0  0  0
  2  5  1  0  0  0  0
  3  7  1  6  0  0  0
  3  8  1  0  0  0  0
  6  2  1  0  0  0  0
  8 17  2  0  0  0  0
  8  9  1  0  0  0  0
  9 10  2  0  0  0  0
 10 19  1  0  0  0  0
 10 11  1  0  0  0  0
 11 12  1  0  0  0  0
 12 13  2  0  0  0  0
 13 20  1  0  0  0  0
 14 21  1  0  0  0  0
 14 13  1  0  0  0  0
 15 14  2  0  0  0  0
 16 15  1  0  0  0  0
 16 11  2  0  0  0  0
 17 16  1  0  0  0  0
 18  9  1  0  0  0  0
 22 15  1  0  0  0  0
 23 17  1  0  0  0  0
 24 25  1  0  0  0  0
 25 26  2  0  0  0  0
 25  1  1  0  0  0  0
 26 31  1  0  0  0  0
 27 26  1  0  0  0  0
 28 27  2  0  0  0  0
 29 28  1  0  0  0  0
 29 24  2  0  0  0  0
 30 24  1  0  0  0  0
 32 38  1  0  0  0  0
 32 28  1  0  0  0  0
 33 32  2  0  0  0  0
 34 36  2  0  0  0  0
 34 33  1  0  0  0  0
 35 34  1  0  0  0  0
 36 37  1  0  0  0  0
 37 38  2  0  0  0  0
M  END
>  <minimizedAffinity>
-6.24090242

$$$$

 OpenBabel03252503223D

 38 42  0  0  1  0  0  0  0  0999 V2000
   34.6110   29.2530   37.7450 C   0  0  1  0  0  0  0  0  0  0  0  0
   34.4200   28.5980   36.4680 C   0  0  0  0  0  0  0  0  0  0  0  0
   33.2780   28.5840   37.4480 C   0  0  2  0  0  0  0  0  0  0  0  0
   34.5510   30.3550   37.9100 H   0  0  0  0  0  0  0  0  0  0  0  0
   34.2730   29.2190   35.5430 H   0  0  0  0  0  0  0  0  0  0  0  0
   34.8940   27.6360   36.2460 H   0  0  0  0  0  0  0  0  0  0  0  0
   33.0290   27.6000   37.8810 H   0  0  0  0  0  0  0  0  0  0  0  0
   32.1520   29.5120   37.1560 C   0  0  0  0  0  0  0  0  0  0  0  0
   31.1900   29.8780   38.0730 C   0  0  0  0  0  0  0  0  0  0  0  0
   30.1730   30.7510   37.7450 C   0  0  0  0  0  0  0  0  0  0  0  0
   30.1060   31.2830   36.4650 C   0  0  0  0  0  0  0  0  0  0  0  0
   29.1260   32.1480   36.0860 N   0  0  0  0  0  0  0  0  0  0  0  0
   29.0780   32.6550   34.8400 C   0  0  0  0  0  0  0  0  0  0  0  0
   30.0210   32.3360   33.8470 C   0  0  0  0  0  0  0  0  0  0  0  0
   31.0300   31.4570   34.2070 C   0  0  0  0  0  0  0  0  0  0  0  0
   31.0560   30.9480   35.4960 C   0  0  0  0  0  0  0  0  0  0  0  0
   32.0460   30.0660   35.8910 C   0  0  0  0  0  0  0  0  0  0  0  0
   31.2480   29.4610   39.0660 H   0  0  0  0  0  0  0  0  0  0  0  0
   29.4080   31.0590   38.4250 H   0  0  0  0  0  0  0  0  0  0  0  0
   28.3080   33.3440   34.5150 H   0  0  0  0  0  0  0  0  0  0  0  0
   29.9690   32.7530   32.8510 H   0  0  0  0  0  0  0  0  0  0  0  0
   31.7720   31.1910   33.4670 H   0  0  0  0  0  0  0  0  0  0  0  0
   32.7320   29.8460   35.0670 H   0  0  0  0  0  0  0  0  0  0  0  0
   36.4120   27.6480   38.4680 C   0  0  0  0  0  0  0  0  0  0  0  0
   35.4580   28.6450   38.8080 C   0  0  0  0  0  0  0  0  0  0  0  0
   35.3530   29.0170   40.1340 C   0  0  0  0  0  0  0  0  0  0  0  0
   36.1770   28.3990   41.0270 N   0  0  0  0  0  0  0  0  0  0  0  0
   37.0740   27.4600   40.6890 C   0  0  0  0  0  0  0  0  0  0  0  0
   37.1910   27.0810   39.3970 N   0  0  0  0  0  0  0  0  0  0  0  0
   36.4970   27.3560   37.4410 H   0  0  0  0  0  0  0  0  0  0  0  0
   34.6430   29.7690   40.4400 H   0  0  0  0  0  0  0  0  0  0  0  0
   37.9190   26.8430   41.6820 C   0  0  0  0  0  0  0  0  0  0  0  0
   38.3100   27.5150   42.8110 C   0  0  0  0  0  3  0  0  0  0  0  0
   39.1270   26.9610   43.8020 C   0  0  0  0  0  0  0  0  0  0  0  0
   39.3440   27.6380   44.6370 H   0  0  0  0  0  0  0  0  0  0  0  0
   39.5540   25.6810   43.6300 N   0  0  0  0  0  0  0  0  0  0  0  0
   39.1450   25.0440   42.4950 C   0  0  0  0  0  3  0  0  0  0  0  0
   38.3560   25.5780   41.5400 N   0  0  0  0  0  0  0  0  0  0  0  0
  1  4  1  6  0  0  0
  1 25  1  0  0  0  0
  2  3  1  0  0  0  0
  2  1  1  0  0  0  0
  3  1  1  0  0  0  0
  3  7  1  1  0  0  0
  5  2  1  0  0  0  0
  6  2  1  0  0  0  0
  8  3  1  0  0  0  0
  8  9  1  0  0  0  0
  9 18  1  0  0  0  0
 10  9  2  0  0  0  0
 10 19  1  0  0  0  0
 11 10  1  0  0  0  0
 12 11  1  0  0  0  0
 13 12  2  0  0  0  0
 14 15  2  0  0  0  0
 14 13  1  0  0  0  0
 15 16  1  0  0  0  0
 16 17  1  0  0  0  0
 16 11  2  0  0  0  0
 17  8  2  0  0  0  0
 20 13  1  0  0  0  0
 21 14  1  0  0  0  0
 22 15  1  0  0  0  0
 23 17  1  0  0  0  0
 24 25  2  0  0  0  0
 24 29  1  0  0  0  0
 25 26  1  0  0  0  0
 26 31  1  0  0  0  0
 26 27  2  0  0  0  0
 28 27  1  0  0  0  0
 28 32  1  0  0  0  0
 29 28  2  0  0  0  0
 30 24  1  0  0  0  0
 32 33  1  0  0  0  0
 33 34  2  0  0  0  0
 34 35  1  0  0  0  0
 36 34  1  0  0  0  0
 37 36  2  0  0  0  0
 38 32  2  0  0  0  0
 38 37  1  0  0  0  0
M  END
>  <minimizedAffinity>
-6.18213844

$$$$

 OpenBabel03252503223D

 38 42  0  0  1  0  0  0  0  0999 V2000
   37.8020   28.3150   41.9530 C   0  0  1  0  0  0  0  0  0  0  0  0
   36.4260   28.0160   42.2910 C   0  0  0  0  0  0  0  0  0  0  0  0
   36.9500   27.5330   40.9650 C   0  0  2  0  0  0  0  0  0  0  0  0
   38.6880   27.7610   42.3430 H   0  0  0  0  0  0  0  0  0  0  0  0
   36.2040   27.2220   43.0550 H   0  0  0  0  0  0  0  0  0  0  0  0
   35.6530   28.7910   42.2650 H   0  0  0  0  0  0  0  0  0  0  0  0
   36.5230   28.0230   40.0730 H   0  0  0  0  0  0  0  0  0  0  0  0
   37.2580   26.0800   40.8710 C   0  0  0  0  0  0  0  0  0  0  0  0
   36.9460   25.1570   41.8450 C   0  0  0  0  0  0  0  0  0  0  0  0
   37.2490   23.8190   41.6980 C   0  0  0  0  0  0  0  0  0  0  0  0
   37.8850   23.3790   40.5460 C   0  0  0  0  0  0  0  0  0  0  0  0
   38.2100   22.0720   40.3470 N   0  0  0  0  0  0  0  0  0  0  0  0
   38.8250   21.6630   39.2220 C   0  0  0  0  0  0  0  0  0  0  0  0
   39.1760   22.5380   38.1800 C   0  0  0  0  0  0  0  0  0  0  0  0
   38.8570   23.8760   38.3570 C   0  0  0  0  0  0  0  0  0  0  0  0
   38.2250   24.2710   39.5250 C   0  0  0  0  0  0  0  0  0  0  0  0
   37.8920   25.5970   39.7390 C   0  0  0  0  0  0  0  0  0  0  0  0
   36.4510   25.5050   42.7380 H   0  0  0  0  0  0  0  0  0  0  0  0
   37.0250   23.0710   42.4290 H   0  0  0  0  0  0  0  0  0  0  0  0
   39.0940   20.6290   39.0410 H   0  0  0  0  0  0  0  0  0  0  0  0
   39.6690   22.1940   37.2820 H   0  0  0  0  0  0  0  0  0  0  0  0
   39.1130   24.5760   37.5740 H   0  0  0  0  0  0  0  0  0  0  0  0
   38.2110   26.2250   38.9010 H   0  0  0  0  0  0  0  0  0  0  0  0
   39.6010   30.0110   41.4730 C   0  0  0  0  0  0  0  0  0  0  0  0
   38.2200   29.6880   41.5550 C   0  0  0  0  0  0  0  0  0  0  0  0
   37.3030   30.6780   41.2570 C   0  0  0  0  0  0  0  0  0  0  0  0
   37.7910   31.9000   40.9030 N   0  0  0  0  0  0  0  0  0  0  0  0
   39.0990   32.1880   40.8290 C   0  0  0  0  0  0  0  0  0  0  0  0
   40.0120   31.2340   41.1180 N   0  0  0  0  0  0  0  0  0  0  0  0
   40.3160   29.2470   41.7030 H   0  0  0  0  0  0  0  0  0  0  0  0
   36.2440   30.4800   41.3060 H   0  0  0  0  0  0  0  0  0  0  0  0
   39.5530   33.5030   40.4470 C   0  0  0  0  0  0  0  0  0  0  0  0
   40.8320   33.7220   40.0080 C   0  0  0  0  0  3  0  0  0  0  0  0
   41.3200   34.9770   39.6260 C   0  0  0  0  0  0  0  0  0  0  0  0
   42.3670   34.9730   39.3010 H   0  0  0  0  0  0  0  0  0  0  0  0
   40.4690   36.0360   39.6970 N   0  0  0  0  0  0  0  0  0  0  0  0
   39.2040   35.7800   40.1380 C   0  0  0  0  0  3  0  0  0  0  0  0
   38.7340   34.5700   40.5050 N   0  0  0  0  0  0  0  0  0  0  0  0
  1  2  1  0  0  0  0
  1  4  1  1  0  0  0
  2  5  1  0  0  0  0
  3  7  1  6  0  0  0
  3  1  1  0  0  0  0
  3  2  1  0  0  0  0
  6  2  1  0  0  0  0
  8  3  1  0  0  0  0
  8  9  1  0  0  0  0
  9 18  1  0  0  0  0
 10  9  2  0  0  0  0
 10 19  1  0  0  0  0
 11 10  1  0  0  0  0
 12 11  1  0  0  0  0
 13 12  2  0  0  0  0
 14 15  2  0  0  0  0
 14 13  1  0  0  0  0
 15 16  1  0  0  0  0
 16 17  1  0  0  0  0
 16 11  2  0  0  0  0
 17  8  2  0  0  0  0
 20 13  1  0  0  0  0
 21 14  1  0  0  0  0
 22 15  1  0  0  0  0
 23 17  1  0  0  0  0
 24 25  1  0  0  0  0
 24 30  1  0  0  0  0
 25  1  1  0  0  0  0
 26 31  1  0  0  0  0
 26 25  2  0  0  0  0
 27 26  1  0  0  0  0
 28 27  2  0  0  0  0
 28 29  1  0  0  0  0
 29 24  2  0  0  0  0
 32 38  1  0  0  0  0
 32 28  1  0  0  0  0
 33 32  2  0  0  0  0
 34 36  2  0  0  0  0
 34 33  1  0  0  0  0
 35 34  1  0  0  0  0
 36 37  1  0  0  0  0
 37 38  2  0  0  0  0
M  END
>  <minimizedAffinity>
-6.10226107

$$$$

 OpenBabel03252503223D

 38 42  0  0  1  0  0  0  0  0999 V2000
   38.8620   27.9120   41.6720 C   0  0  1  0  0  0  0  0  0  0  0  0
   38.3720   27.4890   42.9670 C   0  0  0  0  0  0  0  0  0  0  0  0
   37.4060   27.4970   41.8120 C   0  0  2  0  0  0  0  0  0  0  0  0
   39.4620   27.2760   40.9790 H   0  0  0  0  0  0  0  0  0  0  0  0
   38.6600   26.4790   43.3650 H   0  0  0  0  0  0  0  0  0  0  0  0
   38.1900   28.2110   43.7700 H   0  0  0  0  0  0  0  0  0  0  0  0
   36.6040   28.2530   41.8630 H   0  0  0  0  0  0  0  0  0  0  0  0
   37.0660   26.1690   41.2330 C   0  0  0  0  0  0  0  0  0  0  0  0
   37.1930   24.9730   41.9060 C   0  0  0  0  0  0  0  0  0  0  0  0
   36.8530   23.7720   41.3190 C   0  0  0  0  0  0  0  0  0  0  0  0
   36.3680   23.7530   40.0190 C   0  0  0  0  0  0  0  0  0  0  0  0
   36.0170   22.5990   39.3880 N   0  0  0  0  0  0  0  0  0  0  0  0
   35.5470   22.6000   38.1280 C   0  0  0  0  0  0  0  0  0  0  0  0
   35.3830   23.7740   37.3730 C   0  0  0  0  0  0  0  0  0  0  0  0
   35.7340   24.9650   37.9910 C   0  0  0  0  0  0  0  0  0  0  0  0
   36.2170   24.9360   39.2890 C   0  0  0  0  0  0  0  0  0  0  0  0
   36.5780   26.1030   39.9390 C   0  0  0  0  0  0  0  0  0  0  0  0
   37.5700   24.9950   42.9160 H   0  0  0  0  0  0  0  0  0  0  0  0
   36.9370   22.8240   41.8060 H   0  0  0  0  0  0  0  0  0  0  0  0
   35.2620   21.6950   37.6050 H   0  0  0  0  0  0  0  0  0  0  0  0
   35.0040   23.7590   36.3610 H   0  0  0  0  0  0  0  0  0  0  0  0
   35.6200   25.8870   37.4380 H   0  0  0  0  0  0  0  0  0  0  0  0
   36.4460   26.9740   39.2890 H   0  0  0  0  0  0  0  0  0  0  0  0
   39.0830   29.8190   40.0410 C   0  0  0  0  0  0  0  0  0  0  0  0
   39.1380   29.3460   41.3800 C   0  0  0  0  0  0  0  0  0  0  0  0
   39.4480   30.2520   42.3760 C   0  0  0  0  0  0  0  0  0  0  0  0
   39.6800   31.5420   42.0010 N   0  0  0  0  0  0  0  0  0  0  0  0
   39.6240   31.9720   40.7320 C   0  0  0  0  0  0  0  0  0  0  0  0
   39.3230   31.1010   39.7430 N   0  0  0  0  0  0  0  0  0  0  0  0
   38.8430   29.1200   39.2650 H   0  0  0  0  0  0  0  0  0  0  0  0
   39.5010   29.9400   43.4060 H   0  0  0  0  0  0  0  0  0  0  0  0
   39.8800   33.3520   40.3990 C   0  0  0  0  0  0  0  0  0  0  0  0
   38.8870   34.2960   40.4300 C   0  0  0  0  0  3  0  0  0  0  0  0
   39.0850   35.6450   40.1170 C   0  0  0  0  0  0  0  0  0  0  0  0
   38.1820   36.2620   40.1930 H   0  0  0  0  0  0  0  0  0  0  0  0
   40.3390   36.0360   39.7630 N   0  0  0  0  0  0  0  0  0  0  0  0
   41.3010   35.0700   39.7430 C   0  0  0  0  0  3  0  0  0  0  0  0
   41.1100   33.7700   40.0460 N   0  0  0  0  0  0  0  0  0  0  0  0
  1  4  1  6  0  0  0
  1  3  1  0  0  0  0
  1  2  1  0  0  0  0
  2  5  1  0  0  0  0
  2  6  1  0  0  0  0
  3  7  1  6  0  0  0
  3  2  1  0  0  0  0
  8  3  1  0  0  0  0
  8  9  1  0  0  0  0
  9 18  1  0  0  0  0
 10 19  1  0  0  0  0
 10  9  2  0  0  0  0
 11 10  1  0  0  0  0
 12 11  1  0  0  0  0
 13 12  2  0  0  0  0
 14 15  2  0  0  0  0
 14 13  1  0  0  0  0
 15 16  1  0  0  0  0
 16 17  1  0  0  0  0
 16 11  2  0  0  0  0
 17  8  2  0  0  0  0
 20 13  1  0  0  0  0
 21 14  1  0  0  0  0
 22 15  1  0  0  0  0
 23 17  1  0  0  0  0
 24 25  1  0  0  0  0
 25  1  1  0  0  0  0
 25 26  2  0  0  0  0
 26 31  1  0  0  0  0
 27 26  1  0  0  0  0
 28 27  2  0  0  0  0
 29 24  2  0  0  0  0
 29 28  1  0  0  0  0
 30 24  1  0  0  0  0
 32 33  1  0  0  0  0
 32 28  1  0  0  0  0
 34 35  1  0  0  0  0
 34 33  2  0  0  0  0
 36 34  1  0  0  0  0
 37 36  2  0  0  0  0
 37 38  1  0  0  0  0
 38 32  2  0  0  0  0
M  END
>  <minimizedAffinity>
-6.03282118

$$$$

 OpenBabel03252503223D

 38 42  0  0  1  0  0  0  0  0999 V2000
   36.0510   29.3900   39.5000 C   0  0  1  0  0  0  0  0  0  0  0  0
   35.6750   30.2570   40.5970 C   0  0  0  0  0  0  0  0  0  0  0  0
   35.6310   28.7690   40.8230 C   0  0  2  0  0  0  0  0  0  0  0  0
   37.1010   29.1690   39.1940 H   0  0  0  0  0  0  0  0  0  0  0  0
   36.4710   30.8200   41.1550 H   0  0  0  0  0  0  0  0  0  0  0  0
   34.7170   30.7870   40.6010 H   0  0  0  0  0  0  0  0  0  0  0  0
   34.6260   28.3330   40.9500 H   0  0  0  0  0  0  0  0  0  0  0  0
   36.7390   28.1970   41.6350 C   0  0  0  0  0  0  0  0  0  0  0  0
   37.4580   28.9040   42.5740 C   0  0  0  0  0  0  0  0  0  0  0  0
   38.4700   28.3150   43.3040 C   0  0  0  0  0  0  0  0  0  0  0  0
   38.7820   26.9790   43.0980 C   0  0  0  0  0  0  0  0  0  0  0  0
   39.7710   26.3460   43.7880 N   0  0  0  0  0  0  0  0  0  0  0  0
   40.0570   25.0490   43.5750 C   0  0  0  0  0  0  0  0  0  0  0  0
   39.3710   24.2560   42.6390 C   0  0  0  0  0  0  0  0  0  0  0  0
   38.3590   24.8760   41.9220 C   0  0  0  0  0  0  0  0  0  0  0  0
   38.0850   26.2130   42.1590 C   0  0  0  0  0  0  0  0  0  0  0  0
   37.0840   26.8670   41.4620 C   0  0  0  0  0  0  0  0  0  0  0  0
   37.2110   29.9420   42.7300 H   0  0  0  0  0  0  0  0  0  0  0  0
   39.0520   28.8280   44.0400 H   0  0  0  0  0  0  0  0  0  0  0  0
   40.8390   24.5240   44.1110 H   0  0  0  0  0  0  0  0  0  0  0  0
   39.6130   23.2150   42.4810 H   0  0  0  0  0  0  0  0  0  0  0  0
   37.8120   24.2940   41.1940 H   0  0  0  0  0  0  0  0  0  0  0  0
   36.6060   26.1990   40.7380 H   0  0  0  0  0  0  0  0  0  0  0  0
   33.7410   29.1360   38.5270 C   0  0  0  0  0  0  0  0  0  0  0  0
   35.1480   29.1840   38.3330 C   0  0  0  0  0  0  0  0  0  0  0  0
   35.6310   29.0380   37.0470 C   0  0  0  0  0  0  0  0  0  0  0  0
   34.7200   28.8560   36.0510 N   0  0  0  0  0  0  0  0  0  0  0  0
   33.3940   28.8140   36.2500 C   0  0  0  0  0  0  0  0  0  0  0  0
   32.9010   28.9540   37.5010 N   0  0  0  0  0  0  0  0  0  0  0  0
   33.3610   29.2490   39.5220 H   0  0  0  0  0  0  0  0  0  0  0  0
   36.6910   29.0680   36.8510 H   0  0  0  0  0  0  0  0  0  0  0  0
   32.4790   28.6190   35.1520 C   0  0  0  0  0  0  0  0  0  0  0  0
   31.6680   29.6280   34.7050 C   0  0  0  0  0  3  0  0  0  0  0  0
   30.7650   29.4890   33.6450 C   0  0  0  0  0  0  0  0  0  0  0  0
   30.1930   30.3960   33.4180 H   0  0  0  0  0  0  0  0  0  0  0  0
   30.6950   28.2790   33.0260 N   0  0  0  0  0  0  0  0  0  0  0  0
   31.5170   27.2990   33.4990 C   0  0  0  0  0  3  0  0  0  0  0  0
   32.3880   27.4330   34.5200 N   0  0  0  0  0  0  0  0  0  0  0  0
  1  4  1  6  0  0  0
  1  2  1  0  0  0  0
  1  3  1  0  0  0  0
  2  6  1  0  0  0  0
  2  3  1  0  0  0  0
  2  5  1  0  0  0  0
  3  7  1  1  0  0  0
  3  8  1  0  0  0  0
  8  9  1  0  0  0  0
  9 18  1  0  0  0  0
  9 10  2  0  0  0  0
 10 19  1  0  0  0  0
 11 10  1  0  0  0  0
 11 12  1  0  0  0  0
 13 12  2  0  0  0  0
 13 20  1  0  0  0  0
 14 13  1  0  0  0  0
 15 16  1  0  0  0  0
 15 14  2  0  0  0  0
 16 11  2  0  0  0  0
 17  8  2  0  0  0  0
 17 16  1  0  0  0  0
 21 14  1  0  0  0  0
 22 15  1  0  0  0  0
 23 17  1  0  0  0  0
 24 30  1  0  0  0  0
 25 24  1  0  0  0  0
 25  1  1  0  0  0  0
 26 25  2  0  0  0  0
 27 28  2  0  0  0  0
 27 26  1  0  0  0  0
 28 29  1  0  0  0  0
 29 24  2  0  0  0  0
 31 26  1  0  0  0  0
 32 28  1  0  0  0  0
 33 32  1  0  0  0  0
 34 33  2  0  0  0  0
 35 34  1  0  0  0  0
 36 37  2  0  0  0  0
 36 34  1  0  0  0  0
 37 38  1  0  0  0  0
 38 32  2  0  0  0  0
M  END
>  <minimizedAffinity>
-5.79114199

$$$$

 OpenBabel03252503223D

 38 42  0  0  1  0  0  0  0  0999 V2000
   36.3310   28.8540   40.0990 C   0  0  1  0  0  0  0  0  0  0  0  0
   35.0100   28.9060   39.5100 C   0  0  0  0  0  0  0  0  0  0  0  0
   36.1090   28.2410   38.7260 C   0  0  2  0  0  0  0  0  0  0  0  0
   36.6500   28.1300   40.8860 H   0  0  0  0  0  0  0  0  0  0  0  0
   34.2020   28.2310   39.9020 H   0  0  0  0  0  0  0  0  0  0  0  0
   34.6050   29.8380   39.1030 H   0  0  0  0  0  0  0  0  0  0  0  0
   36.4320   28.7670   37.8110 H   0  0  0  0  0  0  0  0  0  0  0  0
   36.0820   26.7530   38.6910 C   0  0  0  0  0  0  0  0  0  0  0  0
   35.2480   26.0110   37.8840 C   0  0  0  0  0  0  0  0  0  0  0  0
   35.2750   24.6320   37.8890 C   0  0  0  0  0  0  0  0  0  0  0  0
   36.1590   23.9630   38.7230 C   0  0  0  0  0  0  0  0  0  0  0  0
   36.2290   22.6040   38.7720 N   0  0  0  0  0  0  0  0  0  0  0  0
   37.0940   21.9720   39.5860 C   0  0  0  0  0  0  0  0  0  0  0  0
   37.9800   22.6530   40.4380 C   0  0  0  0  0  0  0  0  0  0  0  0
   37.9300   24.0380   40.4090 C   0  0  0  0  0  0  0  0  0  0  0  0
   37.0290   24.6650   39.5630 C   0  0  0  0  0  0  0  0  0  0  0  0
   36.9480   26.0450   39.5080 C   0  0  0  0  0  0  0  0  0  0  0  0
   34.5640   26.5370   37.2370 H   0  0  0  0  0  0  0  0  0  0  0  0
   34.6460   24.0190   37.2790 H   0  0  0  0  0  0  0  0  0  0  0  0
   37.1680   20.8930   39.6420 H   0  0  0  0  0  0  0  0  0  0  0  0
   38.6700   22.1310   41.0860 H   0  0  0  0  0  0  0  0  0  0  0  0
   38.5980   24.5930   41.0530 H   0  0  0  0  0  0  0  0  0  0  0  0
   37.6480   26.5100   40.2090 H   0  0  0  0  0  0  0  0  0  0  0  0
   36.6020   31.3590   40.1270 C   0  0  0  0  0  0  0  0  0  0  0  0
   37.1930   30.0670   40.1740 C   0  0  0  0  0  0  0  0  0  0  0  0
   38.5670   29.9860   40.2890 C   0  0  0  0  0  0  0  0  0  0  0  0
   39.2620   31.1560   40.3520 N   0  0  0  0  0  0  0  0  0  0  0  0
   38.6890   32.3680   40.3070 C   0  0  0  0  0  0  0  0  0  0  0  0
   37.3460   32.4690   40.1930 N   0  0  0  0  0  0  0  0  0  0  0  0
   35.5370   31.4270   40.0370 H   0  0  0  0  0  0  0  0  0  0  0  0
   39.0610   29.0280   40.3290 H   0  0  0  0  0  0  0  0  0  0  0  0
   39.4810   33.5720   40.3780 C   0  0  0  0  0  0  0  0  0  0  0  0
   38.9130   34.8140   40.2620 C   0  0  0  0  0  3  0  0  0  0  0  0
   39.6370   36.0090   40.3230 C   0  0  0  0  0  0  0  0  0  0  0  0
   39.0260   36.9120   40.2100 H   0  0  0  0  0  0  0  0  0  0  0  0
   40.9820   35.9270   40.5110 N   0  0  0  0  0  0  0  0  0  0  0  0
   41.5120   34.6750   40.6230 C   0  0  0  0  0  3  0  0  0  0  0  0
   40.8130   33.5230   40.5640 N   0  0  0  0  0  0  0  0  0  0  0  0
  1 25  1  0  0  0  0
  1  4  1  1  0  0  0
  2  5  1  0  0  0  0
  2  1  1  0  0  0  0
  3  7  1  6  0  0  0
  3  2  1  0  0  0  0
  3  1  1  0  0  0  0
  6  2  1  0  0  0  0
  8  3  1  0  0  0  0
  8 17  1  0  0  0  0
  9 10  1  0  0  0  0
  9  8  2  0  0  0  0
 10 11  2  0  0  0  0
 11 12  1  0  0  0  0
 11 16  1  0  0  0  0
 12 13  2  0  0  0  0
 13 20  1  0  0  0  0
 13 14  1  0  0  0  0
 14 21  1  0  0  0  0
 15 14  2  0  0  0  0
 15 22  1  0  0  0  0
 16 15  1  0  0  0  0
 17 16  2  0  0  0  0
 17 23  1  0  0  0  0
 18  9  1  0  0  0  0
 19 10  1  0  0  0  0
 24 25  2  0  0  0  0
 24 29  1  0  0  0  0
 25 26  1  0  0  0  0
 26 31  1  0  0  0  0
 26 27  2  0  0  0  0
 28 27  1  0  0  0  0
 28 32  1  0  0  0  0
 29 28  2  0  0  0  0
 30 24  1  0  0  0  0
 32 38  1  0  0  0  0
 33 34  1  0  0  0  0
 33 32  2  0  0  0  0
 34 36  2  0  0  0  0
 35 34  1  0  0  0  0
 36 37  1  0  0  0  0
 38 37  2  0  0  0  0
M  END
>  <minimizedAffinity>
-5.7573576

$$$$

 OpenBabel03252503223D

 38 42  0  0  1  0  0  0  0  0999 V2000
   34.1480   27.5880   37.3990 C   0  0  1  0  0  0  0  0  0  0  0  0
   35.2950   27.0860   36.6720 C   0  0  0  0  0  0  0  0  0  0  0  0
   35.5310   28.1220   37.7390 C   0  0  2  0  0  0  0  0  0  0  0  0
   33.6380   27.0510   38.2330 H   0  0  0  0  0  0  0  0  0  0  0  0
   35.6800   26.0540   36.8890 H   0  0  0  0  0  0  0  0  0  0  0  0
   35.4900   27.3890   35.6370 H   0  0  0  0  0  0  0  0  0  0  0  0
   35.8590   29.1130   37.3830 H   0  0  0  0  0  0  0  0  0  0  0  0
   36.1050   27.6240   39.0190 C   0  0  0  0  0  0  0  0  0  0  0  0
   36.3910   26.3020   39.2790 C   0  0  0  0  0  0  0  0  0  0  0  0
   36.9320   25.9010   40.4830 C   0  0  0  0  0  0  0  0  0  0  0  0
   37.2010   26.8440   41.4650 C   0  0  0  0  0  0  0  0  0  0  0  0
   37.7340   26.5070   42.6720 N   0  0  0  0  0  0  0  0  0  0  0  0
   37.9910   27.4350   43.6120 C   0  0  0  0  0  0  0  0  0  0  0  0
   37.7330   28.8040   43.4260 C   0  0  0  0  0  0  0  0  0  0  0  0
   37.1890   29.1750   42.2060 C   0  0  0  0  0  0  0  0  0  0  0  0
   36.9330   28.2000   41.2550 C   0  0  0  0  0  0  0  0  0  0  0  0
   36.3900   28.5300   40.0270 C   0  0  0  0  0  0  0  0  0  0  0  0
   36.1790   25.5740   38.5110 H   0  0  0  0  0  0  0  0  0  0  0  0
   37.1670   24.8870   40.7250 H   0  0  0  0  0  0  0  0  0  0  0  0
   38.4140   27.1920   44.5790 H   0  0  0  0  0  0  0  0  0  0  0  0
   37.9450   29.5380   44.1910 H   0  0  0  0  0  0  0  0  0  0  0  0
   36.9790   30.2210   42.0310 H   0  0  0  0  0  0  0  0  0  0  0  0
   36.1960   29.6050   39.9570 H   0  0  0  0  0  0  0  0  0  0  0  0
   33.2120   28.7380   35.3620 C   0  0  0  0  0  0  0  0  0  0  0  0
   33.1870   28.5360   36.7690 C   0  0  0  0  0  0  0  0  0  0  0  0
   32.2550   29.2380   37.5080 C   0  0  0  0  0  0  0  0  0  0  0  0
   31.4220   30.0780   36.8330 N   0  0  0  0  0  0  0  0  0  0  0  0
   31.4570   30.2570   35.5040 C   0  0  0  0  0  0  0  0  0  0  0  0
   32.3630   29.5800   34.7630 N   0  0  0  0  0  0  0  0  0  0  0  0
   33.9330   28.1960   34.7840 H   0  0  0  0  0  0  0  0  0  0  0  0
   32.1990   29.1180   38.5790 H   0  0  0  0  0  0  0  0  0  0  0  0
   30.5460   31.1620   34.8480 C   0  0  0  0  0  0  0  0  0  0  0  0
   29.6060   31.8690   35.5500 C   0  0  0  0  0  3  0  0  0  0  0  0
   28.7000   32.7580   34.9600 C   0  0  0  0  0  0  0  0  0  0  0  0
   28.0160   33.2390   35.6680 H   0  0  0  0  0  0  0  0  0  0  0  0
   28.7640   32.9260   33.6120 N   0  0  0  0  0  0  0  0  0  0  0  0
   29.7120   32.2070   32.9470 C   0  0  0  0  0  3  0  0  0  0  0  0
   30.5850   31.3500   33.5160 N   0  0  0  0  0  0  0  0  0  0  0  0
  1  3  1  0  0  0  0
  1  4  1  1  0  0  0
  2  5  1  0  0  0  0
  2  1  1  0  0  0  0
  2  3  1  0  0  0  0
  3  7  1  6  0  0  0
  3  8  1  0  0  0  0
  6  2  1  0  0  0  0
  8  9  2  0  0  0  0
  8 17  1  0  0  0  0
  9 10  1  0  0  0  0
 10 19  1  0  0  0  0
 10 11  2  0  0  0  0
 11 12  1  0  0  0  0
 12 13  2  0  0  0  0
 13 20  1  0  0  0  0
 14 13  1  0  0  0  0
 14 21  1  0  0  0  0
 15 14  2  0  0  0  0
 16 11  1  0  0  0  0
 16 15  1  0  0  0  0
 17 16  2  0  0  0  0
 18  9  1  0  0  0  0
 22 15  1  0  0  0  0
 23 17  1  0  0  0  0
 24 25  1  0  0  0  0
 25  1  1  0  0  0  0
 25 26  2  0  0  0  0
 26 31  1  0  0  0  0
 27 26  1  0  0  0  0
 28 27  2  0  0  0  0
 29 24  2  0  0  0  0
 29 28  1  0  0  0  0
 30 24  1  0  0  0  0
 32 28  1  0  0  0  0
 32 33  1  0  0  0  0
 34 33  2  0  0  0  0
 34 35  1  0  0  0  0
 36 34  1  0  0  0  0
 37 38  1  0  0  0  0
 37 36  2  0  0  0  0
 38 32  2  0  0  0  0
M  END
>  <minimizedAffinity>
-5.70319271

$$$$

 OpenBabel03252503223D

 38 42  0  0  1  0  0  0  0  0999 V2000
   38.2660   28.9450   41.6660 C   0  0  1  0  0  0  0  0  0  0  0  0
   39.5300   29.2730   42.2930 C   0  0  0  0  0  0  0  0  0  0  0  0
   39.3220   29.6850   40.8590 C   0  0  2  0  0  0  0  0  0  0  0  0
   37.3160   29.5090   41.8170 H   0  0  0  0  0  0  0  0  0  0  0  0
   39.5750   30.1050   43.0460 H   0  0  0  0  0  0  0  0  0  0  0  0
   40.2870   28.5050   42.4820 H   0  0  0  0  0  0  0  0  0  0  0  0
   39.9390   29.1560   40.1140 H   0  0  0  0  0  0  0  0  0  0  0  0
   39.0460   31.1280   40.6260 C   0  0  0  0  0  0  0  0  0  0  0  0
   37.7950   31.6480   40.3730 C   0  0  0  0  0  0  0  0  0  0  0  0
   37.5990   32.9990   40.1730 C   0  0  0  0  0  0  0  0  0  0  0  0
   38.6800   33.8670   40.2250 C   0  0  0  0  0  0  0  0  0  0  0  0
   38.5480   35.2090   40.0340 N   0  0  0  0  0  0  0  0  0  0  0  0
   39.6070   36.0360   40.0910 C   0  0  0  0  0  0  0  0  0  0  0  0
   40.9150   35.5890   40.3460 C   0  0  0  0  0  0  0  0  0  0  0  0
   41.0790   34.2260   40.5440 C   0  0  0  0  0  0  0  0  0  0  0  0
   39.9710   33.3950   40.4790 C   0  0  0  0  0  0  0  0  0  0  0  0
   40.0950   32.0310   40.6690 C   0  0  0  0  0  0  0  0  0  0  0  0
   36.9590   30.9680   40.3340 H   0  0  0  0  0  0  0  0  0  0  0  0
   36.6470   33.4420   39.9740 H   0  0  0  0  0  0  0  0  0  0  0  0
   39.5270   37.1060   39.9420 H   0  0  0  0  0  0  0  0  0  0  0  0
   41.7560   36.2660   40.3890 H   0  0  0  0  0  0  0  0  0  0  0  0
   42.0720   33.8490   40.7430 H   0  0  0  0  0  0  0  0  0  0  0  0
   41.1390   31.7490   40.8420 H   0  0  0  0  0  0  0  0  0  0  0  0
   36.9360   27.3130   40.2840 C   0  0  0  0  0  0  0  0  0  0  0  0
   37.9470   27.5500   41.2540 C   0  0  0  0  0  0  0  0  0  0  0  0
   38.6050   26.4570   41.7850 C   0  0  0  0  0  0  0  0  0  0  0  0
   38.2370   25.2240   41.3380 N   0  0  0  0  0  0  0  0  0  0  0  0
   37.2810   25.0170   40.4200 C   0  0  0  0  0  0  0  0  0  0  0  0
   36.6240   26.0730   39.8890 N   0  0  0  0  0  0  0  0  0  0  0  0
   36.4220   28.1570   39.8690 H   0  0  0  0  0  0  0  0  0  0  0  0
   39.3790   26.5870   42.5250 H   0  0  0  0  0  0  0  0  0  0  0  0
   36.9370   23.6850   39.9870 C   0  0  0  0  0  0  0  0  0  0  0  0
   35.7360   23.4120   39.3880 C   0  0  0  0  0  3  0  0  0  0  0  0
   35.3560   22.1380   38.9510 C   0  0  0  0  0  0  0  0  0  0  0  0
   34.3600   22.0970   38.4940 H   0  0  0  0  0  0  0  0  0  0  0  0
   36.2350   21.1170   39.1330 N   0  0  0  0  0  0  0  0  0  0  0  0
   37.4210   21.4260   39.7330 C   0  0  0  0  0  3  0  0  0  0  0  0
   37.7870   22.6540   40.1530 N   0  0  0  0  0  0  0  0  0  0  0  0
  1  4  1  1  0  0  0
  1  2  1  0  0  0  0
  2  6  1  0  0  0  0
  2  5  1  0  0  0  0
  3  7  1  6  0  0  0
  3  1  1  0  0  0  0
  3  2  1  0  0  0  0
  8 17  1  0  0  0  0
  8  3  1  0  0  0  0
  9  8  2  0  0  0  0
 10 11  2  0  0  0  0
 10  9  1  0  0  0  0
 11 16  1  0  0  0  0
 12 13  2  0  0  0  0
 12 11  1  0  0  0  0
 13 14  1  0  0  0  0
 14 21  1  0  0  0  0
 14 15  2  0  0  0  0
 15 22  1  0  0  0  0
 16 15  1  0  0  0  0
 16 17  2  0  0  0  0
 17 23  1  0  0  0  0
 18  9  1  0  0  0  0
 19 10  1  0  0  0  0
 20 13  1  0  0  0  0
 24 25  1  0  0  0  0
 25  1  1  0  0  0  0
 25 26  2  0  0  0  0
 26 31  1  0  0  0  0
 27 26  1  0  0  0  0
 28 27  2  0  0  0  0
 29 24  2  0  0  0  0
 29 28  1  0  0  0  0
 30 24  1  0  0  0  0
 32 38  1  0  0  0  0
 32 28  1  0  0  0  0
 33 32  2  0  0  0  0
 34 36  2  0  0  0  0
 34 33  1  0  0  0  0
 35 34  1  0  0  0  0
 36 37  1  0  0  0  0
 37 38  2  0  0  0  0
M  END
>  <minimizedAffinity>
-5.63726807

$$$$

 OpenBabel03252503223D

 38 42  0  0  1  0  0  0  0  0999 V2000
   35.9990   28.7530   38.4820 C   0  0  1  0  0  0  0  0  0  0  0  0
   36.1850   29.6710   39.5870 C   0  0  0  0  0  0  0  0  0  0  0  0
   35.6190   28.3080   39.8860 C   0  0  2  0  0  0  0  0  0  0  0  0
   36.8130   28.1540   38.0090 H   0  0  0  0  0  0  0  0  0  0  0  0
   37.2210   29.8730   39.9710 H   0  0  0  0  0  0  0  0  0  0  0  0
   35.5170   30.5270   39.7330 H   0  0  0  0  0  0  0  0  0  0  0  0
   34.5640   28.2870   40.2070 H   0  0  0  0  0  0  0  0  0  0  0  0
   36.5520   27.3360   40.5180 C   0  0  0  0  0  0  0  0  0  0  0  0
   36.7340   26.0410   40.0840 C   0  0  0  0  0  0  0  0  0  0  0  0
   37.6210   25.1870   40.7070 C   0  0  0  0  0  0  0  0  0  0  0  0
   38.3540   25.6310   41.7980 C   0  0  0  0  0  0  0  0  0  0  0  0
   39.2430   24.8330   42.4520 N   0  0  0  0  0  0  0  0  0  0  0  0
   39.9460   25.2810   43.5080 C   0  0  0  0  0  0  0  0  0  0  0  0
   39.8220   26.5860   44.0130 C   0  0  0  0  0  0  0  0  0  0  0  0
   38.9230   27.4200   43.3650 C   0  0  0  0  0  0  0  0  0  0  0  0
   38.2100   26.9350   42.2810 C   0  0  0  0  0  0  0  0  0  0  0  0
   37.3030   27.7360   41.6100 C   0  0  0  0  0  0  0  0  0  0  0  0
   36.1620   25.7030   39.2350 H   0  0  0  0  0  0  0  0  0  0  0  0
   37.7920   24.1770   40.4020 H   0  0  0  0  0  0  0  0  0  0  0  0
   40.6580   24.6650   44.0450 H   0  0  0  0  0  0  0  0  0  0  0  0
   40.3940   26.9320   44.8620 H   0  0  0  0  0  0  0  0  0  0  0  0
   38.8030   28.4320   43.7280 H   0  0  0  0  0  0  0  0  0  0  0  0
   37.2410   28.7290   42.0660 H   0  0  0  0  0  0  0  0  0  0  0  0
   35.1910   29.0860   36.1200 C   0  0  0  0  0  0  0  0  0  0  0  0
   34.8940   28.9360   37.5010 C   0  0  0  0  0  0  0  0  0  0  0  0
   33.5670   28.9650   37.8860 C   0  0  0  0  0  0  0  0  0  0  0  0
   32.6330   29.1360   36.9090 N   0  0  0  0  0  0  0  0  0  0  0  0
   32.9310   29.2750   35.6080 C   0  0  0  0  0  0  0  0  0  0  0  0
   34.2230   29.2500   35.2110 N   0  0  0  0  0  0  0  0  0  0  0  0
   36.2180   29.0640   35.8160 H   0  0  0  0  0  0  0  0  0  0  0  0
   33.2930   28.8560   38.9240 H   0  0  0  0  0  0  0  0  0  0  0  0
   31.8950   29.4520   34.6200 C   0  0  0  0  0  0  0  0  0  0  0  0
   31.2910   28.3830   34.0120 C   0  0  0  0  0  3  0  0  0  0  0  0
   30.2830   28.5030   33.0500 C   0  0  0  0  0  0  0  0  0  0  0  0
   29.9110   27.5460   32.6660 H   0  0  0  0  0  0  0  0  0  0  0  0
   29.8830   29.7560   32.7020 N   0  0  0  0  0  0  0  0  0  0  0  0
   30.5070   30.7960   33.3280 C   0  0  0  0  0  3  0  0  0  0  0  0
   31.4780   30.6800   34.2570 N   0  0  0  0  0  0  0  0  0  0  0  0
  1  4  1  6  0  0  0
  1  2  1  0  0  0  0
  1  3  1  0  0  0  0
  2  6  1  0  0  0  0
  2  3  1  0  0  0  0
  2  5  1  0  0  0  0
  3  7  1  1  0  0  0
  3  8  1  0  0  0  0
  8 17  1  0  0  0  0
  9  8  2  0  0  0  0
  9 10  1  0  0  0  0
 10 11  2  0  0  0  0
 11 16  1  0  0  0  0
 11 12  1  0  0  0  0
 12 13  2  0  0  0  0
 13 14  1  0  0  0  0
 13 20  1  0  0  0  0
 14 21  1  0  0  0  0
 15 22  1  0  0  0  0
 15 14  2  0  0  0  0
 16 15  1  0  0  0  0
 17 23  1  0  0  0  0
 17 16  2  0  0  0  0
 18  9  1  0  0  0  0
 19 10  1  0  0  0  0
 24 25  1  0  0  0  0
 25 26  2  0  0  0  0
 25  1  1  0  0  0  0
 26 31  1  0  0  0  0
 27 26  1  0  0  0  0
 28 27  2  0  0  0  0
 29 28  1  0  0  0  0
 29 24  2  0  0  0  0
 30 24  1  0  0  0  0
 32 28  1  0  0  0  0
 33 32  2  0  0  0  0
 34 33  1  0  0  0  0
 35 34  1  0  0  0  0
 36 34  2  0  0  0  0
 36 37  1  0  0  0  0
 37 38  2  0  0  0  0
 38 32  1  0  0  0  0
M  END
>  <minimizedAffinity>
-5.63200092

$$$$
