
 OpenBabel03252505493D

 20 21  0  0  0  0  0  0  0  0999 V2000
   44.6340   35.5860   45.0180 C   0  0  0  0  0  0  0  0  0  0  0  0
   45.4390   35.1200   43.9900 C   0  0  0  0  0  0  0  0  0  0  0  0
   46.1390   33.9320   44.2160 C   0  0  0  0  0  0  0  0  0  0  0  0
   46.0070   33.3000   45.3920 N   0  0  0  0  0  0  0  0  0  0  0  0
   45.2070   33.7900   46.3740 C   0  0  0  0  0  0  0  0  0  0  0  0
   44.5280   34.9160   46.1950 N   0  0  0  0  0  0  0  0  0  0  0  0
   44.0570   36.4980   44.9260 H   0  0  0  0  0  0  0  0  0  0  0  0
   46.7580   33.5940   43.3970 H   0  0  0  0  0  0  0  0  0  0  0  0
   45.4920   35.9270   42.7450 C   0  0  0  0  0  0  0  0  0  0  0  0
   45.2520   37.2330   43.1340 F   0  0  0  0  0  0  0  0  0  0  0  0
   44.5310   35.4680   41.8890 F   0  0  0  0  0  0  0  0  0  0  0  0
   46.7660   35.7750   42.1970 F   0  0  0  0  0  0  0  0  0  0  0  0
   45.0820   33.1250   47.5880 O   0  0  0  0  0  0  0  0  0  0  0  0
   45.9740   32.0650   47.8140 C   0  0  0  0  0  0  0  0  0  0  0  0
   45.6140   30.7510   47.5580 C   0  0  0  0  0  0  0  0  0  0  0  0
   46.5720   29.7650   47.8150 C   0  0  0  0  0  0  0  0  0  0  0  0
   46.3520   28.7230   47.6350 H   0  0  0  0  0  0  0  0  0  0  0  0
   47.7960   30.0790   48.2950 N   0  0  0  0  0  0  0  0  0  0  0  0
   48.1100   31.3660   48.5330 C   0  0  0  0  0  0  0  0  0  0  0  0
   47.2110   32.3660   48.2980 N   0  0  0  0  0  0  0  0  0  0  0  0
  1  6  1  0  0  0  0
  2  3  1  0  0  0  0
  2  1  2  0  0  0  0
  3  4  2  0  0  0  0
  4  5  1  0  0  0  0
  5 13  1  0  0  0  0
  6  5  2  0  0  0  0
  7  1  1  0  0  0  0
  8  3  1  0  0  0  0
  9 10  1  0  0  0  0
  9  2  1  0  0  0  0
 11  9  1  0  0  0  0
 12  9  1  0  0  0  0
 13 14  1  0  0  0  0
 14 20  1  0  0  0  0
 15 14  2  0  0  0  0
 15 16  1  0  0  0  0
 16 18  2  0  0  0  0
 17 16  1  0  0  0  0
 18 19  1  0  0  0  0
 20 19  2  0  0  0  0
M  END
>  <minimizedAffinity>
-5.00957918

>  <minimizedRMSD>
0.762712359

$$$$
