
 OpenBabel03252506313D

 30 32  0  0  1  0  0  0  0  0999 V2000
   44.6220   35.7780   44.5670 C   0  0  0  0  0  0  0  0  0  0  0  0
   44.4990   35.4180   43.2300 C   0  0  0  0  0  0  0  0  0  0  0  0
   44.7770   34.1160   42.8720 C   0  0  0  0  0  0  0  0  0  0  0  0
   45.1550   33.2720   43.8600 N   0  0  0  0  0  0  0  0  0  0  0  0
   45.2670   33.6390   45.1450 C   0  0  0  0  0  0  0  0  0  0  0  0
   45.0040   34.8930   45.5240 N   0  0  0  0  0  0  0  0  0  0  0  0
   45.6770   32.6430   46.0770 N   0  0  0  0  0  0  0  0  0  0  0  0
   45.5600   32.7960   47.5320 C   0  0  0  0  0  0  0  0  0  0  0  0
   46.8200   32.1250   48.0100 C   0  0  0  0  0  0  0  0  0  0  0  0
   47.4170   31.4010   46.8340 C   0  0  0  0  0  0  0  0  0  0  0  0
   46.2550   31.3480   45.8550 C   0  0  2  0  0  0  0  0  0  0  0  0
   44.4250   36.7840   44.9660 H   0  0  0  0  0  0  0  0  0  0  0  0
   44.6800   33.8480   41.8310 H   0  0  0  0  0  0  0  0  0  0  0  0
   45.4710   33.8570   47.8160 H   0  0  0  0  0  0  0  0  0  0  0  0
   44.6380   32.2420   47.8020 H   0  0  0  0  0  0  0  0  0  0  0  0
   46.6100   31.4420   48.8650 H   0  0  0  0  0  0  0  0  0  0  0  0
   47.5160   32.9110   48.3400 H   0  0  0  0  0  0  0  0  0  0  0  0
   48.2300   32.0120   46.3690 H   0  0  0  0  0  0  0  0  0  0  0  0
   47.8130   30.4180   47.0850 H   0  0  0  0  0  0  0  0  0  0  0  0
   45.5580   30.5720   46.2190 H   0  0  0  0  0  0  0  0  0  0  0  0
   46.7200   31.0970   44.4780 C   0  0  0  0  0  0  0  0  0  0  0  0
   47.9700   31.6100   44.1120 C   0  0  0  0  0  3  0  0  0  0  0  0
   48.5000   31.4440   42.8540 C   0  0  0  0  0  0  0  0  0  0  0  0
   49.4690   31.8610   42.6260 H   0  0  0  0  0  0  0  0  0  0  0  0
   47.7420   30.7470   41.9610 N   0  0  0  0  0  0  0  0  0  0  0  0
   46.5360   30.2430   42.2850 C   0  0  0  0  0  3  0  0  0  0  0  0
   46.0440   30.4280   43.5440 N   0  0  0  0  0  0  0  0  0  0  0  0
   44.0860   36.4450   42.3180 N   0  0  0  0  0  0  0  0  0  0  0  0
   44.5040   37.3780   42.4250 H   0  0  0  0  0  0  0  0  0  0  0  0
   43.3720   36.2440   41.5610 H   0  0  0  0  0  0  0  0  0  0  0  0
  1 12  1  0  0  0  0
  1  6  1  0  0  0  0
  2  1  2  0  0  0  0
  3  2  1  0  0  0  0
  3  4  2  0  0  0  0
  4  5  1  0  0  0  0
  5  6  2  0  0  0  0
  5  7  1  0  0  0  0
  7  8  1  0  0  0  0
  8 15  1  0  0  0  0
  8 14  1  0  0  0  0
  8  9  1  0  0  0  0
  9 17  1  0  0  0  0
  9 16  1  0  0  0  0
 10 19  1  0  0  0  0
 10  9  1  0  0  0  0
 11  7  1  0  0  0  0
 11 20  1  1  0  0  0
 11 10  1  0  0  0  0
 13  3  1  0  0  0  0
 18 10  1  0  0  0  0
 21 11  1  0  0  0  0
 22 21  1  0  0  0  0
 23 22  2  0  0  0  0
 24 23  1  0  0  0  0
 25 26  2  0  0  0  0
 25 23  1  0  0  0  0
 26 27  1  0  0  0  0
 27 21  2  0  0  0  0
 28 29  1  0  0  0  0
 28  2  1  0  0  0  0
 30 28  1  0  0  0  0
M  END
>  <minimizedAffinity>
-4.29201889

>  <minimizedRMSD>
1.95419073

$$$$
