
 OpenBabel03252509313D

 25 26  0  0  0  0  0  0  0  0999 V2000
   48.0320   33.4500   43.1960 O   0  0  0  0  0  0  0  0  0  0  0  0
   46.8210   34.1340   43.0470 C   0  0  0  0  0  0  0  0  0  0  0  0
   46.9350   35.1470   42.6210 H   0  0  0  0  0  0  0  0  0  0  0  0
   46.1500   33.5880   42.3200 H   0  0  0  0  0  0  0  0  0  0  0  0
   45.6330   33.3470   46.5060 C   0  0  0  0  0  0  0  0  0  0  0  0
   46.3430   33.2560   45.3000 C   0  0  0  0  0  0  0  0  0  0  0  0
   46.0930   34.2040   44.3180 C   0  0  0  0  0  0  0  0  0  0  0  0
   45.1710   35.1760   44.5730 N   0  0  0  0  0  0  0  0  0  0  0  0
   44.4950   35.2400   45.7560 C   0  0  0  0  0  0  0  0  0  0  0  0
   44.7350   34.3260   46.7030 N   0  0  0  0  0  0  0  0  0  0  0  0
   45.8800   32.5670   47.2380 H   0  0  0  0  0  0  0  0  0  0  0  0
   47.0700   32.4520   45.1560 H   0  0  0  0  0  0  0  0  0  0  0  0
   43.7670   36.0020   45.9650 H   0  0  0  0  0  0  0  0  0  0  0  0
   49.8670   33.1000   41.3670 O   0  0  0  0  0  0  0  0  0  0  0  0
   49.1250   34.1680   42.1350 P   0  0  2  0  0  0  0  0  0  0  0  0
   50.1620   35.1440   43.0320 O   0  0  0  0  0  0  0  0  0  0  0  0
   51.0840   35.0000   42.7470 H   0  0  0  0  0  0  0  0  0  0  0  0
   48.2550   35.0790   41.0200 O   0  0  0  0  0  0  0  0  0  0  0  0
   48.0500   34.5770   39.7430 C   0  0  0  0  0  0  0  0  0  0  0  0
   47.0380   33.6220   39.6060 C   0  0  0  0  0  3  0  0  0  0  0  0
   46.7580   33.0630   38.3650 C   0  0  0  0  0  0  0  0  0  0  0  0
   45.9670   32.3100   38.2350 H   0  0  0  0  0  0  0  0  0  0  0  0
   47.5000   33.4810   37.3150 N   0  0  0  0  0  0  0  0  0  0  0  0
   48.4650   34.4010   37.4820 C   0  0  0  0  0  3  0  0  0  0  0  0
   48.7430   34.9440   38.6590 N   0  0  0  0  0  0  0  0  0  0  0  0
  2  1  1  0  0  0  0
  2  7  1  0  0  0  0
  3  2  1  0  0  0  0
  4  2  1  0  0  0  0
  5 10  1  0  0  0  0
  5 11  1  0  0  0  0
  6  5  2  0  0  0  0
  7  8  2  0  0  0  0
  7  6  1  0  0  0  0
  8  9  1  0  0  0  0
  9 13  1  0  0  0  0
  9 10  2  0  0  0  0
 12  6  1  0  0  0  0
 15 14  2  6  0  0  0
 15 16  1  0  0  0  0
 15  1  1  0  0  0  0
 17 16  1  0  0  0  0
 18 15  1  0  0  0  0
 19 18  1  0  0  0  0
 20 19  1  0  0  0  0
 21 20  2  0  0  0  0
 22 21  1  0  0  0  0
 23 24  2  0  0  0  0
 23 21  1  0  0  0  0
 24 25  1  0  0  0  0
 25 19  2  0  0  0  0
M  END
>  <minimizedAffinity>
-4.63093948

>  <minimizedRMSD>
1.07978916

$$$$
