
 OpenBabel03252506313D

 30 32  0  0  1  0  0  0  0  0999 V2000
   40.0860   34.2280   39.1730 C   0  0  0  0  0  0  0  0  0  0  0  0
   41.3050   34.5310   38.5780 C   0  0  0  0  0  0  0  0  0  0  0  0
   42.3690   33.6810   38.7890 C   0  0  0  0  0  0  0  0  0  0  0  0
   42.1470   32.5980   39.5690 N   0  0  0  0  0  0  0  0  0  0  0  0
   40.9630   32.3220   40.1350 C   0  0  0  0  0  0  0  0  0  0  0  0
   39.9120   33.1260   39.9490 N   0  0  0  0  0  0  0  0  0  0  0  0
   40.8770   31.1470   40.9340 N   0  0  0  0  0  0  0  0  0  0  0  0
   39.6070   30.5510   41.3670 C   0  0  0  0  0  0  0  0  0  0  0  0
   39.9490   30.0840   42.7570 C   0  0  0  0  0  0  0  0  0  0  0  0
   41.4410   30.1920   42.9120 C   0  0  0  0  0  0  0  0  0  0  0  0
   41.9140   30.3130   41.4720 C   0  0  2  0  0  0  0  0  0  0  0  0
   39.1720   34.8320   39.0750 H   0  0  0  0  0  0  0  0  0  0  0  0
   43.3110   33.9270   38.3230 H   0  0  0  0  0  0  0  0  0  0  0  0
   38.7860   31.2830   41.3200 H   0  0  0  0  0  0  0  0  0  0  0  0
   39.4280   29.7180   40.6570 H   0  0  0  0  0  0  0  0  0  0  0  0
   39.5780   29.0490   42.9330 H   0  0  0  0  0  0  0  0  0  0  0  0
   39.4630   30.7670   43.4700 H   0  0  0  0  0  0  0  0  0  0  0  0
   41.7130   31.1370   43.4440 H   0  0  0  0  0  0  0  0  0  0  0  0
   41.8840   29.3480   43.4400 H   0  0  0  0  0  0  0  0  0  0  0  0
   41.8440   29.3080   41.0200 H   0  0  0  0  0  0  0  0  0  0  0  0
   43.2750   30.8800   41.3970 C   0  0  0  0  0  0  0  0  0  0  0  0
   43.6500   31.7980   42.3840 C   0  0  0  0  0  3  0  0  0  0  0  0
   44.8880   32.3950   42.4100 C   0  0  0  0  0  0  0  0  0  0  0  0
   45.1250   33.0960   43.1950 H   0  0  0  0  0  0  0  0  0  0  0  0
   45.7510   32.0490   41.4140 N   0  0  0  0  0  0  0  0  0  0  0  0
   45.4180   31.1680   40.4510 C   0  0  0  0  0  3  0  0  0  0  0  0
   44.1790   30.5960   40.4600 N   0  0  0  0  0  0  0  0  0  0  0  0
   41.3570   35.7230   37.7820 N   0  0  0  0  0  0  0  0  0  0  0  0
   40.8900   36.5640   38.1440 H   0  0  0  0  0  0  0  0  0  0  0  0
   41.8620   35.7310   36.8500 H   0  0  0  0  0  0  0  0  0  0  0  0
  1  6  1  0  0  0  0
  2  3  1  0  0  0  0
  2  1  2  0  0  0  0
  3  4  2  0  0  0  0
  4  5  1  0  0  0  0
  5  7  1  0  0  0  0
  6  5  2  0  0  0  0
  7  8  1  0  0  0  0
  7 11  1  0  0  0  0
  8  9  1  0  0  0  0
  9 10  1  0  0  0  0
  9 16  1  0  0  0  0
  9 17  1  0  0  0  0
 10 19  1  0  0  0  0
 10 18  1  0  0  0  0
 11 20  1  6  0  0  0
 11 10  1  0  0  0  0
 12  1  1  0  0  0  0
 13  3  1  0  0  0  0
 14  8  1  0  0  0  0
 15  8  1  0  0  0  0
 21 11  1  0  0  0  0
 21 22  1  0  0  0  0
 22 23  2  0  0  0  0
 23 24  1  0  0  0  0
 25 23  1  0  0  0  0
 26 27  1  0  0  0  0
 26 25  2  0  0  0  0
 27 21  2  0  0  0  0
 28 29  1  0  0  0  0
 28  2  1  0  0  0  0
 30 28  1  0  0  0  0
M  END
>  <minimizedAffinity>
-3.23885536

>  <minimizedRMSD>
6.98069382

$$$$
