
 OpenBabel03252509313D

 25 26  0  0  0  0  0  0  0  0999 V2000
   48.2870   33.3390   43.5100 O   0  0  0  0  0  0  0  0  0  0  0  0
   46.9520   33.2750   43.1000 C   0  0  0  0  0  0  0  0  0  0  0  0
   46.7920   33.6030   42.0570 H   0  0  0  0  0  0  0  0  0  0  0  0
   46.5840   32.2080   43.1270 H   0  0  0  0  0  0  0  0  0  0  0  0
   45.0350   34.3290   46.1360 C   0  0  0  0  0  0  0  0  0  0  0  0
   45.8680   33.5780   45.2920 C   0  0  0  0  0  0  0  0  0  0  0  0
   46.0850   34.0400   44.0030 C   0  0  0  0  0  0  0  0  0  0  0  0
   45.4780   35.1980   43.6170 N   0  0  0  0  0  0  0  0  0  0  0  0
   44.6720   35.9090   44.4580 C   0  0  0  0  0  0  0  0  0  0  0  0
   44.4630   35.4640   45.7020 N   0  0  0  0  0  0  0  0  0  0  0  0
   44.9080   33.9070   47.1410 H   0  0  0  0  0  0  0  0  0  0  0  0
   46.3260   32.6560   45.6610 H   0  0  0  0  0  0  0  0  0  0  0  0
   44.1910   36.8230   44.1620 H   0  0  0  0  0  0  0  0  0  0  0  0
   49.8390   33.0800   41.4210 O   0  0  0  0  0  0  0  0  0  0  0  0
   49.1340   34.1080   42.2740 P   0  0  2  0  0  0  0  0  0  0  0  0
   50.2060   35.1990   42.9730 O   0  0  0  0  0  0  0  0  0  0  0  0
   51.0820   35.1230   42.5500 H   0  0  0  0  0  0  0  0  0  0  0  0
   48.0250   34.9020   41.2900 O   0  0  0  0  0  0  0  0  0  0  0  0
   47.8570   34.4860   39.9770 C   0  0  0  0  0  0  0  0  0  0  0  0
   46.8230   33.5750   39.7400 C   0  0  0  0  0  3  0  0  0  0  0  0
   46.5790   33.1010   38.4570 C   0  0  0  0  0  0  0  0  0  0  0  0
   45.7720   32.3850   38.2480 H   0  0  0  0  0  0  0  0  0  0  0  0
   47.3770   33.5570   37.4660 N   0  0  0  0  0  0  0  0  0  0  0  0
   48.3630   34.4320   37.7290 C   0  0  0  0  0  3  0  0  0  0  0  0
   48.6080   34.8930   38.9470 N   0  0  0  0  0  0  0  0  0  0  0  0
  2  4  1  0  0  0  0
  2  1  1  0  0  0  0
  2  7  1  0  0  0  0
  3  2  1  0  0  0  0
  5 11  1  0  0  0  0
  6 12  1  0  0  0  0
  6  5  2  0  0  0  0
  7  6  1  0  0  0  0
  8  7  2  0  0  0  0
  8  9  1  0  0  0  0
  9 10  2  0  0  0  0
 10  5  1  0  0  0  0
 13  9  1  0  0  0  0
 15 14  2  6  0  0  0
 15 16  1  0  0  0  0
 15  1  1  0  0  0  0
 17 16  1  0  0  0  0
 18 15  1  0  0  0  0
 19 18  1  0  0  0  0
 20 19  1  0  0  0  0
 21 20  2  0  0  0  0
 22 21  1  0  0  0  0
 23 24  2  0  0  0  0
 23 21  1  0  0  0  0
 24 25  1  0  0  0  0
 25 19  2  0  0  0  0
M  END
>  <minimizedAffinity>
-4.9479332

>  <minimizedRMSD>
0.916715562

$$$$
