
 OpenBabel03252506393D

 42 45  0  0  1  0  0  0  0  0999 V2000
   38.6500   27.2950   36.2180 C   0  0  0  0  0  0  0  0  0  0  0  0
   37.4610   27.9910   35.9420 C   0  0  0  0  0  0  0  0  0  0  0  0
   36.4850   28.0300   36.8780 C   0  0  0  0  0  0  0  0  0  0  0  0
   36.7230   27.3830   38.0480 N   0  0  0  0  0  0  0  0  0  0  0  0
   37.8460   26.7300   38.3000 C   0  0  0  0  0  0  0  0  0  0  0  0
   38.8200   26.6770   37.3950 N   0  0  0  0  0  0  0  0  0  0  0  0
   37.9940   26.0760   39.5720 N   0  0  0  0  0  0  0  0  0  0  0  0
   39.2150   25.5470   40.0640 C   0  0  0  0  0  0  0  0  0  0  0  0
   38.7810   24.2900   40.7960 C   0  0  0  0  0  0  0  0  0  0  0  0
   37.2830   24.3080   40.8030 C   0  0  0  0  0  0  0  0  0  0  0  0
   36.9750   25.7840   40.5540 C   0  0  1  0  0  0  0  0  0  0  0  0
   39.4120   27.2840   35.4460 H   0  0  0  0  0  0  0  0  0  0  0  0
   35.5580   28.5560   36.6990 H   0  0  0  0  0  0  0  0  0  0  0  0
   39.9400   26.0720   40.5960 H   0  0  0  0  0  0  0  0  0  0  0  0
   39.7570   25.1290   39.1550 H   0  0  0  0  0  0  0  0  0  0  0  0
   39.2330   23.3670   40.4350 H   0  0  0  0  0  0  0  0  0  0  0  0
   39.1360   24.3900   41.8630 H   0  0  0  0  0  0  0  0  0  0  0  0
   36.9130   23.9800   41.7770 H   0  0  0  0  0  0  0  0  0  0  0  0
   36.9570   23.6890   39.9400 H   0  0  0  0  0  0  0  0  0  0  0  0
   35.9690   25.8530   40.1090 H   0  0  0  0  0  0  0  0  0  0  0  0
   37.3440   28.6330   34.6590 N   0  0  0  0  0  0  0  0  0  0  0  0
   36.5420   29.2960   34.5320 H   0  0  0  0  0  0  0  0  0  0  0  0
   38.0240   28.4380   33.9110 H   0  0  0  0  0  0  0  0  0  0  0  0
   37.2200   26.6890   42.0620 S   0  0  0  0  0  0  0  0  0  0  0  0
   39.4490   29.0010   41.1500 O   0  0  0  0  0  0  0  0  0  0  0  0
   38.2500   29.1750   41.4270 C   0  0  0  0  0  0  0  0  0  0  0  0
   37.0870   28.4270   41.9770 C   0  0  1  0  0  0  0  0  0  0  0  0
   35.9640   28.9580   41.1240 C   0  0  0  0  0  0  0  0  0  0  0  0
   36.2120   30.4510   41.3490 C   0  0  0  0  0  0  0  0  0  0  0  0
   37.6670   30.4710   41.1880 N   0  0  0  0  0  0  0  0  0  0  0  0
   36.9170   28.9950   42.9280 H   0  0  0  0  0  0  0  0  0  0  0  0
   36.1550   28.7710   40.0460 H   0  0  0  0  0  0  0  0  0  0  0  0
   34.9720   28.6370   41.4560 H   0  0  0  0  0  0  0  0  0  0  0  0
   35.8930   30.7880   42.3310 H   0  0  0  0  0  0  0  0  0  0  0  0
   35.7740   31.0170   40.5050 H   0  0  0  0  0  0  0  0  0  0  0  0
   38.3260   31.7000   40.8310 C   0  0  0  0  0  0  0  0  0  0  0  0
   39.6350   32.0350   41.0050 C   0  0  0  0  0  3  0  0  0  0  0  0
   40.0180   33.2900   40.5720 C   0  0  0  0  0  0  0  0  0  0  0  0
   41.0780   33.5410   40.7220 H   0  0  0  0  0  0  0  0  0  0  0  0
   39.1650   34.1610   40.0040 N   0  0  0  0  0  0  0  0  0  0  0  0
   37.8730   33.8110   39.8400 C   0  0  0  0  0  3  0  0  0  0  0  0
   37.4810   32.6000   40.2520 N   0  0  0  0  0  0  0  0  0  0  0  0
  1  6  1  0  0  0  0
  2  1  2  0  0  0  0
  2  3  1  0  0  0  0
  3  4  2  0  0  0  0
  4  5  1  0  0  0  0
  5  7  1  0  0  0  0
  6  5  2  0  0  0  0
  7  8  1  0  0  0  0
  7 11  1  0  0  0  0
  8 14  1  0  0  0  0
  8  9  1  0  0  0  0
  9 10  1  0  0  0  0
  9 17  1  0  0  0  0
 10 18  1  0  0  0  0
 11 20  1  6  0  0  0
 11 10  1  0  0  0  0
 11 24  1  0  0  0  0
 12  1  1  0  0  0  0
 13  3  1  0  0  0  0
 15  8  1  0  0  0  0
 16  9  1  0  0  0  0
 19 10  1  0  0  0  0
 21  2  1  0  0  0  0
 22 21  1  0  0  0  0
 23 21  1  0  0  0  0
 25 26  2  0  0  0  0
 26 27  1  0  0  0  0
 27 24  1  0  0  0  0
 27 31  1  1  0  0  0
 28 29  1  0  0  0  0
 28 33  1  0  0  0  0
 28 27  1  0  0  0  0
 29 34  1  0  0  0  0
 30 29  1  0  0  0  0
 30 26  1  0  0  0  0
 32 28  1  0  0  0  0
 35 29  1  0  0  0  0
 36 37  1  0  0  0  0
 36 30  1  0  0  0  0
 38 39  1  0  0  0  0
 38 37  2  0  0  0  0
 40 38  1  0  0  0  0
 41 40  2  0  0  0  0
 41 42  1  0  0  0  0
 42 36  2  0  0  0  0
M  END
>  <minimizedAffinity>
-5.61883783

$$$$

 OpenBabel03252506393D

 42 45  0  0  1  0  0  0  0  0999 V2000
   37.1440   30.1900   36.8050 C   0  0  0  0  0  0  0  0  0  0  0  0
   37.9920   29.1050   36.5230 C   0  0  0  0  0  0  0  0  0  0  0  0
   39.0570   28.8720   37.3230 C   0  0  0  0  0  0  0  0  0  0  0  0
   39.2410   29.7170   38.3700 N   0  0  0  0  0  0  0  0  0  0  0  0
   38.4380   30.7370   38.6290 C   0  0  0  0  0  0  0  0  0  0  0  0
   37.3840   30.9870   37.8550 N   0  0  0  0  0  0  0  0  0  0  0  0
   38.7270   31.5720   39.7630 N   0  0  0  0  0  0  0  0  0  0  0  0
   37.8360   32.5420   40.2910 C   0  0  0  0  0  0  0  0  0  0  0  0
   38.7580   33.6700   40.7140 C   0  0  0  0  0  0  0  0  0  0  0  0
   40.1550   33.1530   40.5420 C   0  0  0  0  0  0  0  0  0  0  0  0
   39.9420   31.6400   40.5400 C   0  0  1  0  0  0  0  0  0  0  0  0
   36.2990   30.3480   36.1420 H   0  0  0  0  0  0  0  0  0  0  0  0
   39.7290   28.0470   37.1350 H   0  0  0  0  0  0  0  0  0  0  0  0
   37.0900   32.3690   40.9970 H   0  0  0  0  0  0  0  0  0  0  0  0
   37.2980   32.9870   39.3920 H   0  0  0  0  0  0  0  0  0  0  0  0
   38.5580   34.6320   40.2430 H   0  0  0  0  0  0  0  0  0  0  0  0
   38.5850   33.8440   41.8160 H   0  0  0  0  0  0  0  0  0  0  0  0
   40.7730   33.4710   41.3850 H   0  0  0  0  0  0  0  0  0  0  0  0
   40.4980   33.5010   39.5450 H   0  0  0  0  0  0  0  0  0  0  0  0
   40.7830   31.1770   39.9980 H   0  0  0  0  0  0  0  0  0  0  0  0
   37.6770   28.2900   35.3790 N   0  0  0  0  0  0  0  0  0  0  0  0
   38.1980   27.3860   35.2820 H   0  0  0  0  0  0  0  0  0  0  0  0
   36.9690   28.5950   34.6960 H   0  0  0  0  0  0  0  0  0  0  0  0
   39.7000   31.0880   42.2100 S   0  0  0  0  0  0  0  0  0  0  0  0
   37.5190   28.7320   41.2940 O   0  0  0  0  0  0  0  0  0  0  0  0
   38.6180   28.5690   41.8510 C   0  0  0  0  0  0  0  0  0  0  0  0
   39.7030   29.3640   42.4870 C   0  0  1  0  0  0  0  0  0  0  0  0
   40.9280   28.6270   42.0120 C   0  0  0  0  0  0  0  0  0  0  0  0
   40.5170   27.2220   42.4570 C   0  0  0  0  0  0  0  0  0  0  0  0
   39.1280   27.2280   41.9930 N   0  0  0  0  0  0  0  0  0  0  0  0
   39.6280   28.9950   43.5430 H   0  0  0  0  0  0  0  0  0  0  0  0
   40.9760   28.5990   40.9030 H   0  0  0  0  0  0  0  0  0  0  0  0
   41.8550   28.9670   42.4830 H   0  0  0  0  0  0  0  0  0  0  0  0
   40.6010   27.0780   43.5300 H   0  0  0  0  0  0  0  0  0  0  0  0
   41.0690   26.4790   41.8500 H   0  0  0  0  0  0  0  0  0  0  0  0
   38.4560   25.9800   41.7420 C   0  0  0  0  0  0  0  0  0  0  0  0
   37.2480   25.5660   42.2140 C   0  0  0  0  0  3  0  0  0  0  0  0
   36.8240   24.3100   41.8200 C   0  0  0  0  0  0  0  0  0  0  0  0
   35.8480   23.9940   42.2120 H   0  0  0  0  0  0  0  0  0  0  0  0
   37.5470   23.5140   41.0120 N   0  0  0  0  0  0  0  0  0  0  0  0
   38.7410   23.9430   40.5540 C   0  0  0  0  0  3  0  0  0  0  0  0
   39.1690   25.1550   40.9240 N   0  0  0  0  0  0  0  0  0  0  0  0
  1  6  1  0  0  0  0
  2  1  2  0  0  0  0
  2  3  1  0  0  0  0
  3  4  2  0  0  0  0
  4  5  1  0  0  0  0
  5  7  1  0  0  0  0
  6  5  2  0  0  0  0
  7  8  1  0  0  0  0
  7 11  1  0  0  0  0
  8  9  1  0  0  0  0
  8 14  1  0  0  0  0
  9 17  1  0  0  0  0
 10  9  1  0  0  0  0
 10 18  1  0  0  0  0
 11 20  1  6  0  0  0
 11 10  1  0  0  0  0
 11 24  1  0  0  0  0
 12  1  1  0  0  0  0
 13  3  1  0  0  0  0
 15  8  1  0  0  0  0
 16  9  1  0  0  0  0
 19 10  1  0  0  0  0
 21  2  1  0  0  0  0
 22 21  1  0  0  0  0
 23 21  1  0  0  0  0
 24 27  1  0  0  0  0
 25 26  2  0  0  0  0
 26 30  1  0  0  0  0
 26 27  1  0  0  0  0
 27 31  1  1  0  0  0
 28 29  1  0  0  0  0
 28 33  1  0  0  0  0
 28 27  1  0  0  0  0
 29 34  1  0  0  0  0
 30 29  1  0  0  0  0
 32 28  1  0  0  0  0
 35 29  1  0  0  0  0
 36 30  1  0  0  0  0
 36 37  1  0  0  0  0
 38 39  1  0  0  0  0
 38 37  2  0  0  0  0
 40 38  1  0  0  0  0
 41 42  1  0  0  0  0
 41 40  2  0  0  0  0
 42 36  2  0  0  0  0
M  END
>  <minimizedAffinity>
-5.44752693

$$$$

 OpenBabel03252506393D

 42 45  0  0  1  0  0  0  0  0999 V2000
   38.0940   27.5880   36.5710 C   0  0  0  0  0  0  0  0  0  0  0  0
   37.4140   28.7210   36.0920 C   0  0  0  0  0  0  0  0  0  0  0  0
   36.8870   29.5980   36.9750 C   0  0  0  0  0  0  0  0  0  0  0  0
   37.0520   29.3240   38.2940 N   0  0  0  0  0  0  0  0  0  0  0  0
   37.6940   28.2550   38.7380 C   0  0  0  0  0  0  0  0  0  0  0  0
   38.2220   27.3770   37.8890 N   0  0  0  0  0  0  0  0  0  0  0  0
   37.8100   28.0590   40.1580 N   0  0  0  0  0  0  0  0  0  0  0  0
   38.6600   27.0990   40.7680 C   0  0  0  0  0  0  0  0  0  0  0  0
   37.8480   26.6200   41.9570 C   0  0  0  0  0  0  0  0  0  0  0  0
   36.6390   27.5040   42.0200 C   0  0  0  0  0  0  0  0  0  0  0  0
   37.0870   28.7240   41.2170 C   0  0  1  0  0  0  0  0  0  0  0  0
   38.5060   26.9050   35.8350 H   0  0  0  0  0  0  0  0  0  0  0  0
   36.3570   30.4790   36.6410 H   0  0  0  0  0  0  0  0  0  0  0  0
   39.6610   27.2370   41.0150 H   0  0  0  0  0  0  0  0  0  0  0  0
   38.6450   26.1940   40.0780 H   0  0  0  0  0  0  0  0  0  0  0  0
   37.6420   25.5500   41.9740 H   0  0  0  0  0  0  0  0  0  0  0  0
   38.4690   26.8120   42.8800 H   0  0  0  0  0  0  0  0  0  0  0  0
   36.4250   27.7640   43.0590 H   0  0  0  0  0  0  0  0  0  0  0  0
   35.8260   26.9640   41.4900 H   0  0  0  0  0  0  0  0  0  0  0  0
   36.1870   29.2250   40.8250 H   0  0  0  0  0  0  0  0  0  0  0  0
   37.3140   28.8870   34.6660 N   0  0  0  0  0  0  0  0  0  0  0  0
   36.9710   29.8140   34.3190 H   0  0  0  0  0  0  0  0  0  0  0  0
   37.5700   28.1190   34.0290 H   0  0  0  0  0  0  0  0  0  0  0  0
   38.1520   29.7230   42.2280 S   0  0  0  0  0  0  0  0  0  0  0  0
   40.8600   30.1870   40.3310 O   0  0  0  0  0  0  0  0  0  0  0  0
   39.9890   31.0240   40.6220 C   0  0  0  0  0  0  0  0  0  0  0  0
   38.8030   31.1740   41.5080 C   0  0  1  0  0  0  0  0  0  0  0  0
   37.8610   31.9410   40.6150 C   0  0  0  0  0  0  0  0  0  0  0  0
   38.8060   33.0840   40.2410 C   0  0  0  0  0  0  0  0  0  0  0  0
   40.0150   32.3050   39.9630 N   0  0  0  0  0  0  0  0  0  0  0  0
   39.1630   31.9900   42.1870 H   0  0  0  0  0  0  0  0  0  0  0  0
   37.6580   31.3870   39.6740 H   0  0  0  0  0  0  0  0  0  0  0  0
   36.9570   32.2860   41.1250 H   0  0  0  0  0  0  0  0  0  0  0  0
   38.9430   33.7990   41.0470 H   0  0  0  0  0  0  0  0  0  0  0  0
   38.4680   33.5300   39.2860 H   0  0  0  0  0  0  0  0  0  0  0  0
   41.0390   32.8600   39.1170 C   0  0  0  0  0  0  0  0  0  0  0  0
   41.1410   32.7850   37.7610 C   0  0  0  0  0  3  0  0  0  0  0  0
   42.2320   33.4090   37.1850 C   0  0  0  0  0  0  0  0  0  0  0  0
   42.2980   33.3370   36.0900 H   0  0  0  0  0  0  0  0  0  0  0  0
   43.1640   34.0640   37.9010 N   0  0  0  0  0  0  0  0  0  0  0  0
   43.0440   34.1280   39.2430 C   0  0  0  0  0  3  0  0  0  0  0  0
   41.9950   33.5310   39.8200 N   0  0  0  0  0  0  0  0  0  0  0  0
  1  6  1  0  0  0  0
  2  1  2  0  0  0  0
  2  3  1  0  0  0  0
  3  4  2  0  0  0  0
  4  5  1  0  0  0  0
  5  7  1  0  0  0  0
  6  5  2  0  0  0  0
  7  8  1  0  0  0  0
  7 11  1  0  0  0  0
  8 14  1  0  0  0  0
  8  9  1  0  0  0  0
  9 16  1  0  0  0  0
  9 10  1  0  0  0  0
  9 17  1  0  0  0  0
 10 18  1  0  0  0  0
 11 20  1  6  0  0  0
 11 10  1  0  0  0  0
 11 24  1  0  0  0  0
 12  1  1  0  0  0  0
 13  3  1  0  0  0  0
 15  8  1  0  0  0  0
 19 10  1  0  0  0  0
 21  2  1  0  0  0  0
 22 21  1  0  0  0  0
 23 21  1  0  0  0  0
 25 26  2  0  0  0  0
 26 27  1  0  0  0  0
 27 31  1  1  0  0  0
 27 24  1  0  0  0  0
 28 33  1  0  0  0  0
 28 27  1  0  0  0  0
 29 28  1  0  0  0  0
 29 34  1  0  0  0  0
 30 29  1  0  0  0  0
 30 26  1  0  0  0  0
 32 28  1  0  0  0  0
 35 29  1  0  0  0  0
 36 42  1  0  0  0  0
 36 30  1  0  0  0  0
 37 36  2  0  0  0  0
 38 37  1  0  0  0  0
 38 40  2  0  0  0  0
 39 38  1  0  0  0  0
 40 41  1  0  0  0  0
 41 42  2  0  0  0  0
M  END
>  <minimizedAffinity>
-5.40315914

$$$$

 OpenBabel03252506393D

 42 45  0  0  1  0  0  0  0  0999 V2000
   36.9520   31.9960   39.8350 C   0  0  0  0  0  0  0  0  0  0  0  0
   38.0260   32.8480   40.1460 C   0  0  0  0  0  0  0  0  0  0  0  0
   38.9980   32.4100   40.9770 C   0  0  0  0  0  0  0  0  0  0  0  0
   38.8740   31.1500   41.4650 N   0  0  0  0  0  0  0  0  0  0  0  0
   37.8600   30.3530   41.1670 C   0  0  0  0  0  0  0  0  0  0  0  0
   36.8900   30.7610   40.3530 N   0  0  0  0  0  0  0  0  0  0  0  0
   37.8250   29.0350   41.7430 N   0  0  0  0  0  0  0  0  0  0  0  0
   36.9380   28.0060   41.3340 C   0  0  0  0  0  0  0  0  0  0  0  0
   36.5980   27.3010   42.6340 C   0  0  0  0  0  0  0  0  0  0  0  0
   37.4870   27.9030   43.6800 C   0  0  0  0  0  0  0  0  0  0  0  0
   38.6080   28.5150   42.8400 C   0  0  1  0  0  0  0  0  0  0  0  0
   36.1890   32.3790   39.1650 H   0  0  0  0  0  0  0  0  0  0  0  0
   39.8370   33.0400   41.2370 H   0  0  0  0  0  0  0  0  0  0  0  0
   37.1000   27.3290   40.5600 H   0  0  0  0  0  0  0  0  0  0  0  0
   35.9610   28.5280   41.0740 H   0  0  0  0  0  0  0  0  0  0  0  0
   35.5380   27.2780   42.8830 H   0  0  0  0  0  0  0  0  0  0  0  0
   36.8910   26.2180   42.5100 H   0  0  0  0  0  0  0  0  0  0  0  0
   37.8630   27.1210   44.3420 H   0  0  0  0  0  0  0  0  0  0  0  0
   36.8920   28.7000   44.1770 H   0  0  0  0  0  0  0  0  0  0  0  0
   39.0630   29.3330   43.4210 H   0  0  0  0  0  0  0  0  0  0  0  0
   38.0300   34.1610   39.5560 N   0  0  0  0  0  0  0  0  0  0  0  0
   38.9130   34.7180   39.6430 H   0  0  0  0  0  0  0  0  0  0  0  0
   37.1940   34.5220   39.0740 H   0  0  0  0  0  0  0  0  0  0  0  0
   39.7110   27.2240   42.3210 S   0  0  0  0  0  0  0  0  0  0  0  0
   39.7450   28.0280   39.0810 O   0  0  0  0  0  0  0  0  0  0  0  0
   40.6930   28.0790   39.8810 C   0  0  0  0  0  0  0  0  0  0  0  0
   41.0320   27.6790   41.2740 C   0  0  1  0  0  0  0  0  0  0  0  0
   41.8520   28.8590   41.7300 C   0  0  0  0  0  0  0  0  0  0  0  0
   42.8530   28.8820   40.5730 C   0  0  0  0  0  0  0  0  0  0  0  0
   41.9230   28.6990   39.4570 N   0  0  0  0  0  0  0  0  0  0  0  0
   41.8370   26.9260   41.0750 H   0  0  0  0  0  0  0  0  0  0  0  0
   41.2720   29.8040   41.6560 H   0  0  0  0  0  0  0  0  0  0  0  0
   42.3290   28.7110   42.7030 H   0  0  0  0  0  0  0  0  0  0  0  0
   43.5910   28.0880   40.6390 H   0  0  0  0  0  0  0  0  0  0  0  0
   43.2800   29.8990   40.4900 H   0  0  0  0  0  0  0  0  0  0  0  0
   42.3040   29.1270   38.1370 C   0  0  0  0  0  0  0  0  0  0  0  0
   42.7210   28.3610   37.0910 C   0  0  0  0  0  3  0  0  0  0  0  0
   43.0300   29.0240   35.9180 C   0  0  0  0  0  0  0  0  0  0  0  0
   43.3650   28.3880   35.0870 H   0  0  0  0  0  0  0  0  0  0  0  0
   42.9350   30.3590   35.7850 N   0  0  0  0  0  0  0  0  0  0  0  0
   42.5190   31.1010   36.8320 C   0  0  0  0  0  3  0  0  0  0  0  0
   42.2150   30.4790   37.9760 N   0  0  0  0  0  0  0  0  0  0  0  0
  1  2  2  0  0  0  0
  1  6  1  0  0  0  0
  2  3  1  0  0  0  0
  3 13  1  0  0  0  0
  3  4  2  0  0  0  0
  5  4  1  0  0  0  0
  5  7  1  0  0  0  0
  6  5  2  0  0  0  0
  7 11  1  0  0  0  0
  8  7  1  0  0  0  0
  8  9  1  0  0  0  0
  9 16  1  0  0  0  0
  9 10  1  0  0  0  0
 10 19  1  0  0  0  0
 10 18  1  0  0  0  0
 11 20  1  1  0  0  0
 11 10  1  0  0  0  0
 12  1  1  0  0  0  0
 14  8  1  0  0  0  0
 15  8  1  0  0  0  0
 17  9  1  0  0  0  0
 21 22  1  0  0  0  0
 21  2  1  0  0  0  0
 23 21  1  0  0  0  0
 24 11  1  0  0  0  0
 25 26  2  0  0  0  0
 26 27  1  0  0  0  0
 27 31  1  6  0  0  0
 27 28  1  0  0  0  0
 27 24  1  0  0  0  0
 28 33  1  0  0  0  0
 29 34  1  0  0  0  0
 29 28  1  0  0  0  0
 30 26  1  0  0  0  0
 30 29  1  0  0  0  0
 32 28  1  0  0  0  0
 35 29  1  0  0  0  0
 36 30  1  0  0  0  0
 37 36  2  0  0  0  0
 38 37  1  0  0  0  0
 39 38  1  0  0  0  0
 40 38  2  0  0  0  0
 40 41  1  0  0  0  0
 41 42  2  0  0  0  0
 42 36  1  0  0  0  0
M  END
>  <minimizedAffinity>
-5.32938099

$$$$

 OpenBabel03252506393D

 42 45  0  0  1  0  0  0  0  0999 V2000
   42.9510   30.2400   35.9740 C   0  0  0  0  0  0  0  0  0  0  0  0
   43.0640   28.9150   36.4310 C   0  0  0  0  0  0  0  0  0  0  0  0
   42.5860   28.5950   37.6550 C   0  0  0  0  0  0  0  0  0  0  0  0
   42.0140   29.5930   38.3760 N   0  0  0  0  0  0  0  0  0  0  0  0
   41.9110   30.8380   37.9380 C   0  0  0  0  0  0  0  0  0  0  0  0
   42.3750   31.1780   36.7380 N   0  0  0  0  0  0  0  0  0  0  0  0
   41.2890   31.8190   38.7860 N   0  0  0  0  0  0  0  0  0  0  0  0
   40.9030   33.1170   38.3600 C   0  0  0  0  0  0  0  0  0  0  0  0
   41.2040   33.9840   39.5690 C   0  0  0  0  0  0  0  0  0  0  0  0
   41.5830   33.0440   40.6730 C   0  0  0  0  0  0  0  0  0  0  0  0
   40.9830   31.7220   40.1940 C   0  0  1  0  0  0  0  0  0  0  0  0
   43.3450   30.4620   34.9870 H   0  0  0  0  0  0  0  0  0  0  0  0
   42.6560   27.5870   38.0370 H   0  0  0  0  0  0  0  0  0  0  0  0
   39.9970   33.3730   37.9180 H   0  0  0  0  0  0  0  0  0  0  0  0
   41.7010   33.4460   37.6170 H   0  0  0  0  0  0  0  0  0  0  0  0
   41.9050   34.7980   39.3900 H   0  0  0  0  0  0  0  0  0  0  0  0
   40.2380   34.4910   39.8600 H   0  0  0  0  0  0  0  0  0  0  0  0
   41.1320   33.3730   41.6110 H   0  0  0  0  0  0  0  0  0  0  0  0
   42.6930   32.9910   40.6730 H   0  0  0  0  0  0  0  0  0  0  0  0
   41.5470   30.9000   40.6640 H   0  0  0  0  0  0  0  0  0  0  0  0
   43.6940   27.9580   35.5600 N   0  0  0  0  0  0  0  0  0  0  0  0
   43.6110   26.9480   35.8260 H   0  0  0  0  0  0  0  0  0  0  0  0
   44.1990   28.2680   34.7180 H   0  0  0  0  0  0  0  0  0  0  0  0
   39.2340   31.7380   40.5010 S   0  0  0  0  0  0  0  0  0  0  0  0
   39.0460   28.4830   39.7830 O   0  0  0  0  0  0  0  0  0  0  0  0
   38.7390   29.0400   40.8500 C   0  0  0  0  0  0  0  0  0  0  0  0
   38.5750   30.4060   41.4170 C   0  0  1  0  0  0  0  0  0  0  0  0
   39.1400   30.2210   42.8030 C   0  0  0  0  0  0  0  0  0  0  0  0
   38.2990   29.0110   43.2150 C   0  0  0  0  0  0  0  0  0  0  0  0
   38.4140   28.2190   41.9890 N   0  0  0  0  0  0  0  0  0  0  0  0
   37.4750   30.4010   41.6340 H   0  0  0  0  0  0  0  0  0  0  0  0
   40.1920   29.8680   42.7640 H   0  0  0  0  0  0  0  0  0  0  0  0
   38.9900   31.0860   43.4550 H   0  0  0  0  0  0  0  0  0  0  0  0
   37.2710   29.2730   43.4520 H   0  0  0  0  0  0  0  0  0  0  0  0
   38.8290   28.4650   44.0180 H   0  0  0  0  0  0  0  0  0  0  0  0
   38.2060   26.7950   42.0410 C   0  0  0  0  0  0  0  0  0  0  0  0
   37.0810   26.0980   41.7200 C   0  0  0  0  0  3  0  0  0  0  0  0
   37.1410   24.7240   41.8580 C   0  0  0  0  0  0  0  0  0  0  0  0
   36.2240   24.1790   41.5950 H   0  0  0  0  0  0  0  0  0  0  0  0
   38.2410   24.0780   42.2860 N   0  0  0  0  0  0  0  0  0  0  0  0
   39.3450   24.7870   42.5980 C   0  0  0  0  0  3  0  0  0  0  0  0
   39.3080   26.1180   42.4710 N   0  0  0  0  0  0  0  0  0  0  0  0
  1  2  2  0  0  0  0
  1  6  1  0  0  0  0
  2  3  1  0  0  0  0
  3 13  1  0  0  0  0
  3  4  2  0  0  0  0
  5  4  1  0  0  0  0
  5  7  1  0  0  0  0
  6  5  2  0  0  0  0
  7 11  1  0  0  0  0
  8  7  1  0  0  0  0
  8  9  1  0  0  0  0
  9 17  1  0  0  0  0
  9 10  1  0  0  0  0
 10 19  1  0  0  0  0
 10 18  1  0  0  0  0
 11 24  1  0  0  0  0
 11 20  1  1  0  0  0
 11 10  1  0  0  0  0
 12  1  1  0  0  0  0
 14  8  1  0  0  0  0
 15  8  1  0  0  0  0
 16  9  1  0  0  0  0
 21 22  1  0  0  0  0
 21  2  1  0  0  0  0
 23 21  1  0  0  0  0
 24 27  1  0  0  0  0
 25 26  2  0  0  0  0
 26 27  1  0  0  0  0
 26 30  1  0  0  0  0
 27 31  1  1  0  0  0
 27 28  1  0  0  0  0
 28 29  1  0  0  0  0
 28 33  1  0  0  0  0
 29 34  1  0  0  0  0
 29 35  1  0  0  0  0
 30 36  1  0  0  0  0
 30 29  1  0  0  0  0
 32 28  1  0  0  0  0
 36 42  1  0  0  0  0
 37 38  1  0  0  0  0
 37 36  2  0  0  0  0
 38 40  2  0  0  0  0
 39 38  1  0  0  0  0
 40 41  1  0  0  0  0
 42 41  2  0  0  0  0
M  END
>  <minimizedAffinity>
-5.32536316

$$$$

 OpenBabel03252506393D

 42 45  0  0  1  0  0  0  0  0999 V2000
   38.9130   32.1050   39.0140 C   0  0  0  0  0  0  0  0  0  0  0  0
   39.5460   31.5090   37.9100 C   0  0  0  0  0  0  0  0  0  0  0  0
   39.7580   30.1740   37.9100 C   0  0  0  0  0  0  0  0  0  0  0  0
   39.3350   29.4800   38.9980 N   0  0  0  0  0  0  0  0  0  0  0  0
   38.7380   30.0490   40.0340 C   0  0  0  0  0  0  0  0  0  0  0  0
   38.5200   31.3610   40.0580 N   0  0  0  0  0  0  0  0  0  0  0  0
   38.3330   29.2200   41.1370 N   0  0  0  0  0  0  0  0  0  0  0  0
   37.4860   29.6490   42.1920 C   0  0  0  0  0  0  0  0  0  0  0  0
   38.0620   28.9480   43.4090 C   0  0  0  0  0  0  0  0  0  0  0  0
   39.1140   28.0150   42.8930 C   0  0  0  0  0  0  0  0  0  0  0  0
   38.7180   27.8580   41.4250 C   0  0  1  0  0  0  0  0  0  0  0  0
   38.7580   33.1780   38.9810 H   0  0  0  0  0  0  0  0  0  0  0  0
   40.2420   29.6830   37.0780 H   0  0  0  0  0  0  0  0  0  0  0  0
   36.4450   29.6260   42.1910 H   0  0  0  0  0  0  0  0  0  0  0  0
   37.7590   30.7370   42.3820 H   0  0  0  0  0  0  0  0  0  0  0  0
   38.3810   29.6090   44.2140 H   0  0  0  0  0  0  0  0  0  0  0  0
   37.2320   28.3260   43.8550 H   0  0  0  0  0  0  0  0  0  0  0  0
   39.0600   27.0640   43.4270 H   0  0  0  0  0  0  0  0  0  0  0  0
   40.0830   28.5530   42.9810 H   0  0  0  0  0  0  0  0  0  0  0  0
   39.6180   27.5750   40.8560 H   0  0  0  0  0  0  0  0  0  0  0  0
   39.9430   32.3660   36.8240 N   0  0  0  0  0  0  0  0  0  0  0  0
   40.2430   31.8980   35.9360 H   0  0  0  0  0  0  0  0  0  0  0  0
   39.9260   33.3900   36.9310 H   0  0  0  0  0  0  0  0  0  0  0  0
   37.3460   26.7370   41.3140 S   0  0  0  0  0  0  0  0  0  0  0  0
   35.2660   28.7080   39.6010 O   0  0  0  0  0  0  0  0  0  0  0  0
   35.8000   27.6560   39.2130 C   0  0  0  0  0  0  0  0  0  0  0  0
   36.6140   26.5280   39.7420 C   0  0  1  0  0  0  0  0  0  0  0  0
   37.5700   26.2910   38.6010 C   0  0  0  0  0  0  0  0  0  0  0  0
   36.5360   26.1560   37.4820 C   0  0  0  0  0  0  0  0  0  0  0  0
   35.6710   27.2860   37.8260 N   0  0  0  0  0  0  0  0  0  0  0  0
   35.8970   25.6790   39.5980 H   0  0  0  0  0  0  0  0  0  0  0  0
   38.1560   27.2060   38.3710 H   0  0  0  0  0  0  0  0  0  0  0  0
   38.1850   25.3950   38.7230 H   0  0  0  0  0  0  0  0  0  0  0  0
   36.0130   25.2040   37.5050 H   0  0  0  0  0  0  0  0  0  0  0  0
   37.0220   26.3890   36.5160 H   0  0  0  0  0  0  0  0  0  0  0  0
   34.8340   27.8750   36.8140 C   0  0  0  0  0  0  0  0  0  0  0  0
   35.1740   28.8030   35.8770 C   0  0  0  0  0  3  0  0  0  0  0  0
   34.1740   29.2080   35.0120 C   0  0  0  0  0  0  0  0  0  0  0  0
   34.4670   29.9580   34.2640 H   0  0  0  0  0  0  0  0  0  0  0  0
   32.9190   28.7280   35.0680 N   0  0  0  0  0  0  0  0  0  0  0  0
   32.6020   27.8080   36.0030 C   0  0  0  0  0  3  0  0  0  0  0  0
   33.5550   27.4030   36.8490 N   0  0  0  0  0  0  0  0  0  0  0  0
  1  6  1  0  0  0  0
  2  3  1  0  0  0  0
  2  1  2  0  0  0  0
  3  4  2  0  0  0  0
  4  5  1  0  0  0  0
  5  6  2  0  0  0  0
  5  7  1  0  0  0  0
  7 11  1  0  0  0  0
  7  8  1  0  0  0  0
  8 15  1  0  0  0  0
  8  9  1  0  0  0  0
  9 17  1  0  0  0  0
  9 16  1  0  0  0  0
 10 19  1  0  0  0  0
 10  9  1  0  0  0  0
 10 18  1  0  0  0  0
 11 20  1  6  0  0  0
 11 10  1  0  0  0  0
 12  1  1  0  0  0  0
 13  3  1  0  0  0  0
 14  8  1  0  0  0  0
 21 23  1  0  0  0  0
 21  2  1  0  0  0  0
 22 21  1  0  0  0  0
 24 11  1  0  0  0  0
 26 25  2  0  0  0  0
 26 27  1  0  0  0  0
 27 31  1  1  0  0  0
 27 24  1  0  0  0  0
 28 33  1  0  0  0  0
 28 27  1  0  0  0  0
 29 34  1  0  0  0  0
 29 30  1  0  0  0  0
 29 28  1  0  0  0  0
 30 26  1  0  0  0  0
 32 28  1  0  0  0  0
 35 29  1  0  0  0  0
 36 42  1  0  0  0  0
 36 30  1  0  0  0  0
 37 36  2  0  0  0  0
 38 40  2  0  0  0  0
 38 37  1  0  0  0  0
 39 38  1  0  0  0  0
 40 41  1  0  0  0  0
 41 42  2  0  0  0  0
M  END
>  <minimizedAffinity>
-5.29575014

$$$$

 OpenBabel03252506393D

 42 45  0  0  1  0  0  0  0  0999 V2000
   39.3640   24.5170   40.8390 C   0  0  0  0  0  0  0  0  0  0  0  0
   38.1440   23.9190   41.1970 C   0  0  0  0  0  0  0  0  0  0  0  0
   37.1300   24.6970   41.6380 C   0  0  0  0  0  0  0  0  0  0  0  0
   37.3600   26.0330   41.7070 N   0  0  0  0  0  0  0  0  0  0  0  0
   38.5120   26.5900   41.3670 C   0  0  0  0  0  0  0  0  0  0  0  0
   39.5250   25.8450   40.9310 N   0  0  0  0  0  0  0  0  0  0  0  0
   38.6500   28.0160   41.4810 N   0  0  0  0  0  0  0  0  0  0  0  0
   39.7280   28.7630   40.9390 C   0  0  0  0  0  0  0  0  0  0  0  0
   39.9660   29.8400   41.9810 C   0  0  0  0  0  0  0  0  0  0  0  0
   38.8510   29.7130   42.9740 C   0  0  0  0  0  0  0  0  0  0  0  0
   37.7940   28.9470   42.1790 C   0  0  1  0  0  0  0  0  0  0  0  0
   40.1560   23.8640   40.4890 H   0  0  0  0  0  0  0  0  0  0  0  0
   36.1790   24.2700   41.9220 H   0  0  0  0  0  0  0  0  0  0  0  0
   39.7860   29.1430   39.9720 H   0  0  0  0  0  0  0  0  0  0  0  0
   40.6480   28.1020   41.0550 H   0  0  0  0  0  0  0  0  0  0  0  0
   40.9680   29.8570   42.4080 H   0  0  0  0  0  0  0  0  0  0  0  0
   39.8550   30.8350   41.4590 H   0  0  0  0  0  0  0  0  0  0  0  0
   38.4960   30.7050   43.2630 H   0  0  0  0  0  0  0  0  0  0  0  0
   39.2410   29.0890   43.8070 H   0  0  0  0  0  0  0  0  0  0  0  0
   37.1410   28.4210   42.8950 H   0  0  0  0  0  0  0  0  0  0  0  0
   38.0390   22.4890   41.0740 N   0  0  0  0  0  0  0  0  0  0  0  0
   37.0810   22.0730   41.1650 H   0  0  0  0  0  0  0  0  0  0  0  0
   38.8770   21.9140   40.9050 H   0  0  0  0  0  0  0  0  0  0  0  0
   36.9810   30.0700   41.0680 S   0  0  0  0  0  0  0  0  0  0  0  0
   33.9290   29.1310   40.0950 O   0  0  0  0  0  0  0  0  0  0  0  0
   34.9570   29.1930   39.4000 C   0  0  0  0  0  0  0  0  0  0  0  0
   36.4210   29.4190   39.5480 C   0  0  1  0  0  0  0  0  0  0  0  0
   36.7160   30.2550   38.3290 C   0  0  0  0  0  0  0  0  0  0  0  0
   36.0890   29.3330   37.2820 C   0  0  0  0  0  0  0  0  0  0  0  0
   34.8410   29.0070   37.9760 N   0  0  0  0  0  0  0  0  0  0  0  0
   36.8110   28.4210   39.2210 H   0  0  0  0  0  0  0  0  0  0  0  0
   36.1110   31.1860   38.3240 H   0  0  0  0  0  0  0  0  0  0  0  0
   37.7840   30.4240   38.1630 H   0  0  0  0  0  0  0  0  0  0  0  0
   36.6960   28.4560   37.0750 H   0  0  0  0  0  0  0  0  0  0  0  0
   35.8290   29.9310   36.3890 H   0  0  0  0  0  0  0  0  0  0  0  0
   33.7010   28.5630   37.2180 C   0  0  0  0  0  0  0  0  0  0  0  0
   32.5990   29.2780   36.8610 C   0  0  0  0  0  3  0  0  0  0  0  0
   31.6370   28.6110   36.1250 C   0  0  0  0  0  0  0  0  0  0  0  0
   30.7550   29.2050   35.8470 H   0  0  0  0  0  0  0  0  0  0  0  0
   31.7550   27.3210   35.7650 N   0  0  0  0  0  0  0  0  0  0  0  0
   32.8550   26.6300   36.1280 C   0  0  0  0  0  3  0  0  0  0  0  0
   33.7980   27.2570   36.8400 N   0  0  0  0  0  0  0  0  0  0  0  0
  1  6  2  0  0  0  0
  1  2  1  0  0  0  0
  2  3  2  0  0  0  0
  3  4  1  0  0  0  0
  3 13  1  0  0  0  0
  5  7  1  0  0  0  0
  5  4  2  0  0  0  0
  6  5  1  0  0  0  0
  7 11  1  0  0  0  0
  8 15  1  0  0  0  0
  8  7  1  0  0  0  0
  8  9  1  0  0  0  0
  9 16  1  0  0  0  0
  9 10  1  0  0  0  0
 10 18  1  0  0  0  0
 10 19  1  0  0  0  0
 11 20  1  1  0  0  0
 11 10  1  0  0  0  0
 12  1  1  0  0  0  0
 14  8  1  0  0  0  0
 17  9  1  0  0  0  0
 21 22  1  0  0  0  0
 21  2  1  0  0  0  0
 23 21  1  0  0  0  0
 24 11  1  0  0  0  0
 26 27  1  0  0  0  0
 26 25  2  0  0  0  0
 27 31  1  6  0  0  0
 27 24  1  0  0  0  0
 28 27  1  0  0  0  0
 29 30  1  0  0  0  0
 29 28  1  0  0  0  0
 30 26  1  0  0  0  0
 32 28  1  0  0  0  0
 33 28  1  0  0  0  0
 34 29  1  0  0  0  0
 35 29  1  0  0  0  0
 36 30  1  0  0  0  0
 37 36  1  0  0  0  0
 38 37  2  0  0  0  0
 39 38  1  0  0  0  0
 40 38  1  0  0  0  0
 40 41  2  0  0  0  0
 41 42  1  0  0  0  0
 42 36  2  0  0  0  0
M  END
>  <minimizedAffinity>
-5.28223658

$$$$

 OpenBabel03252506393D

 42 45  0  0  1  0  0  0  0  0999 V2000
   37.5240   31.9010   38.3690 C   0  0  0  0  0  0  0  0  0  0  0  0
   37.0730   32.3270   39.6310 C   0  0  0  0  0  0  0  0  0  0  0  0
   36.5870   31.4140   40.5020 C   0  0  0  0  0  0  0  0  0  0  0  0
   36.5670   30.1190   40.0950 N   0  0  0  0  0  0  0  0  0  0  0  0
   36.9940   29.7260   38.9050 C   0  0  0  0  0  0  0  0  0  0  0  0
   37.4760   30.6050   38.0310 N   0  0  0  0  0  0  0  0  0  0  0  0
   36.9250   28.3280   38.5750 N   0  0  0  0  0  0  0  0  0  0  0  0
   37.5550   27.7390   37.4470 C   0  0  0  0  0  0  0  0  0  0  0  0
   36.5580   26.6860   37.0020 C   0  0  0  0  0  0  0  0  0  0  0  0
   35.4920   26.6490   38.0540 C   0  0  0  0  0  0  0  0  0  0  0  0
   36.1980   27.2810   39.2530 C   0  0  1  0  0  0  0  0  0  0  0  0
   37.9090   32.6590   37.6950 H   0  0  0  0  0  0  0  0  0  0  0  0
   36.2320   31.7070   41.4800 H   0  0  0  0  0  0  0  0  0  0  0  0
   38.5330   27.3860   37.4060 H   0  0  0  0  0  0  0  0  0  0  0  0
   37.4820   28.5140   36.6160 H   0  0  0  0  0  0  0  0  0  0  0  0
   36.1970   26.7940   35.9790 H   0  0  0  0  0  0  0  0  0  0  0  0
   37.0960   25.6940   37.0160 H   0  0  0  0  0  0  0  0  0  0  0  0
   35.2060   25.6140   38.2560 H   0  0  0  0  0  0  0  0  0  0  0  0
   34.6700   27.3050   37.6940 H   0  0  0  0  0  0  0  0  0  0  0  0
   35.4280   27.7040   39.9200 H   0  0  0  0  0  0  0  0  0  0  0  0
   37.1530   33.7320   39.9300 N   0  0  0  0  0  0  0  0  0  0  0  0
   36.9900   34.0160   40.9250 H   0  0  0  0  0  0  0  0  0  0  0  0
   37.3620   34.4150   39.1880 H   0  0  0  0  0  0  0  0  0  0  0  0
   37.2810   26.0790   39.9850 S   0  0  0  0  0  0  0  0  0  0  0  0
   40.0250   27.9800   40.0630 O   0  0  0  0  0  0  0  0  0  0  0  0
   39.3800   27.5440   41.0320 C   0  0  0  0  0  0  0  0  0  0  0  0
   38.2630   26.6070   41.3290 C   0  0  1  0  0  0  0  0  0  0  0  0
   37.5350   27.3500   42.4200 C   0  0  0  0  0  0  0  0  0  0  0  0
   38.7280   27.5890   43.3470 C   0  0  0  0  0  0  0  0  0  0  0  0
   39.7150   28.0140   42.3520 N   0  0  0  0  0  0  0  0  0  0  0  0
   38.8070   25.8310   41.9270 H   0  0  0  0  0  0  0  0  0  0  0  0
   37.2070   28.3530   42.0730 H   0  0  0  0  0  0  0  0  0  0  0  0
   36.7400   26.7660   42.8920 H   0  0  0  0  0  0  0  0  0  0  0  0
   39.0310   26.6930   43.8830 H   0  0  0  0  0  0  0  0  0  0  0  0
   38.5090   28.4590   43.9950 H   0  0  0  0  0  0  0  0  0  0  0  0
   40.8440   28.8060   42.7640 C   0  0  0  0  0  0  0  0  0  0  0  0
   42.0190   28.3790   43.3050 C   0  0  0  0  0  3  0  0  0  0  0  0
   42.9500   29.3520   43.6160 C   0  0  0  0  0  0  0  0  0  0  0  0
   43.8910   28.9880   44.0510 H   0  0  0  0  0  0  0  0  0  0  0  0
   42.7360   30.6640   43.4080 N   0  0  0  0  0  0  0  0  0  0  0  0
   41.5660   31.0670   42.8710 C   0  0  0  0  0  3  0  0  0  0  0  0
   40.6510   30.1410   42.5630 N   0  0  0  0  0  0  0  0  0  0  0  0
  1  2  1  0  0  0  0
  2 21  1  0  0  0  0
  2  3  2  0  0  0  0
  3 13  1  0  0  0  0
  4  3  1  0  0  0  0
  5  4  2  0  0  0  0
  6  1  2  0  0  0  0
  6  5  1  0  0  0  0
  7  5  1  0  0  0  0
  7 11  1  0  0  0  0
  8  7  1  0  0  0  0
  9 17  1  0  0  0  0
  9  8  1  0  0  0  0
  9 10  1  0  0  0  0
 10 18  1  0  0  0  0
 10 11  1  0  0  0  0
 11 20  1  1  0  0  0
 11 24  1  0  0  0  0
 12  1  1  0  0  0  0
 14  8  1  0  0  0  0
 15  8  1  0  0  0  0
 16  9  1  0  0  0  0
 19 10  1  0  0  0  0
 21 22  1  0  0  0  0
 23 21  1  0  0  0  0
 24 27  1  0  0  0  0
 25 26  2  0  0  0  0
 26 27  1  0  0  0  0
 26 30  1  0  0  0  0
 27 31  1  1  0  0  0
 27 28  1  0  0  0  0
 28 33  1  0  0  0  0
 28 29  1  0  0  0  0
 29 34  1  0  0  0  0
 29 35  1  0  0  0  0
 30 36  1  0  0  0  0
 30 29  1  0  0  0  0
 32 28  1  0  0  0  0
 36 37  1  0  0  0  0
 37 38  2  0  0  0  0
 38 39  1  0  0  0  0
 40 38  1  0  0  0  0
 41 40  2  0  0  0  0
 42 36  2  0  0  0  0
 42 41  1  0  0  0  0
M  END
>  <minimizedAffinity>
-5.27865934

$$$$

 OpenBabel03252506393D

 42 45  0  0  1  0  0  0  0  0999 V2000
   41.2110   29.3930   37.4610 C   0  0  0  0  0  0  0  0  0  0  0  0
   41.8700   28.6990   38.4910 C   0  0  0  0  0  0  0  0  0  0  0  0
   41.4120   28.8080   39.7590 C   0  0  0  0  0  0  0  0  0  0  0  0
   40.3230   29.5940   39.9590 N   0  0  0  0  0  0  0  0  0  0  0  0
   39.7080   30.2430   38.9830 C   0  0  0  0  0  0  0  0  0  0  0  0
   40.1400   30.1530   37.7280 N   0  0  0  0  0  0  0  0  0  0  0  0
   38.5640   31.0510   39.3060 N   0  0  0  0  0  0  0  0  0  0  0  0
   37.6780   31.6050   38.3460 C   0  0  0  0  0  0  0  0  0  0  0  0
   37.3250   32.9580   38.9370 C   0  0  0  0  0  0  0  0  0  0  0  0
   37.9240   32.9820   40.3110 C   0  0  0  0  0  0  0  0  0  0  0  0
   38.1180   31.4950   40.6060 C   0  0  1  0  0  0  0  0  0  0  0  0
   41.6050   29.2830   36.4560 H   0  0  0  0  0  0  0  0  0  0  0  0
   41.8950   28.2890   40.5750 H   0  0  0  0  0  0  0  0  0  0  0  0
   36.8450   31.1350   37.9360 H   0  0  0  0  0  0  0  0  0  0  0  0
   38.3280   31.8890   37.4560 H   0  0  0  0  0  0  0  0  0  0  0  0
   37.5680   33.8140   38.3090 H   0  0  0  0  0  0  0  0  0  0  0  0
   36.2010   32.9870   39.0470 H   0  0  0  0  0  0  0  0  0  0  0  0
   37.2240   33.4430   41.0120 H   0  0  0  0  0  0  0  0  0  0  0  0
   38.9060   33.4930   40.2160 H   0  0  0  0  0  0  0  0  0  0  0  0
   38.9220   31.3970   41.3530 H   0  0  0  0  0  0  0  0  0  0  0  0
   43.0140   27.9010   38.1360 N   0  0  0  0  0  0  0  0  0  0  0  0
   43.3840   27.2490   38.8680 H   0  0  0  0  0  0  0  0  0  0  0  0
   43.4370   27.9790   37.2000 H   0  0  0  0  0  0  0  0  0  0  0  0
   36.5530   30.7860   41.0540 S   0  0  0  0  0  0  0  0  0  0  0  0
   37.1820   27.8970   39.5050 O   0  0  0  0  0  0  0  0  0  0  0  0
   36.9890   28.0760   40.7190 C   0  0  0  0  0  0  0  0  0  0  0  0
   36.5650   29.1490   41.6600 C   0  0  1  0  0  0  0  0  0  0  0  0
   37.4750   28.8910   42.8330 C   0  0  0  0  0  0  0  0  0  0  0  0
   37.1620   27.4060   43.0230 C   0  0  0  0  0  0  0  0  0  0  0  0
   37.2100   26.9770   41.6240 N   0  0  0  0  0  0  0  0  0  0  0  0
   35.6030   28.7140   42.0370 H   0  0  0  0  0  0  0  0  0  0  0  0
   38.5430   28.9460   42.5330 H   0  0  0  0  0  0  0  0  0  0  0  0
   37.2350   29.4930   43.7140 H   0  0  0  0  0  0  0  0  0  0  0  0
   36.1920   27.2350   43.4820 H   0  0  0  0  0  0  0  0  0  0  0  0
   38.0090   26.9260   43.5500 H   0  0  0  0  0  0  0  0  0  0  0  0
   37.4570   25.5930   41.3130 C   0  0  0  0  0  0  0  0  0  0  0  0
   36.5740   24.6640   40.8520 C   0  0  0  0  0  3  0  0  0  0  0  0
   37.0690   23.3920   40.6310 C   0  0  0  0  0  0  0  0  0  0  0  0
   36.3420   22.6570   40.2590 H   0  0  0  0  0  0  0  0  0  0  0  0
   38.3530   23.0580   40.8510 N   0  0  0  0  0  0  0  0  0  0  0  0
   39.2120   23.9920   41.3060 C   0  0  0  0  0  3  0  0  0  0  0  0
   38.7540   25.2290   41.5270 N   0  0  0  0  0  0  0  0  0  0  0  0
  1  6  2  0  0  0  0
  1  2  1  0  0  0  0
  2  3  2  0  0  0  0
  3  4  1  0  0  0  0
  3 13  1  0  0  0  0
  5  7  1  0  0  0  0
  5  4  2  0  0  0  0
  6  5  1  0  0  0  0
  7 11  1  0  0  0  0
  8  9  1  0  0  0  0
  8  7  1  0  0  0  0
  9 17  1  0  0  0  0
  9 10  1  0  0  0  0
 10 11  1  0  0  0  0
 10 18  1  0  0  0  0
 11 24  1  0  0  0  0
 11 20  1  1  0  0  0
 12  1  1  0  0  0  0
 14  8  1  0  0  0  0
 15  8  1  0  0  0  0
 16  9  1  0  0  0  0
 19 10  1  0  0  0  0
 21  2  1  0  0  0  0
 21 22  1  0  0  0  0
 23 21  1  0  0  0  0
 24 27  1  0  0  0  0
 25 26  2  0  0  0  0
 26 30  1  0  0  0  0
 26 27  1  0  0  0  0
 27 31  1  1  0  0  0
 27 28  1  0  0  0  0
 28 29  1  0  0  0  0
 28 33  1  0  0  0  0
 29 34  1  0  0  0  0
 29 35  1  0  0  0  0
 30 29  1  0  0  0  0
 32 28  1  0  0  0  0
 36 42  1  0  0  0  0
 36 30  1  0  0  0  0
 37 36  2  0  0  0  0
 38 40  2  0  0  0  0
 38 37  1  0  0  0  0
 39 38  1  0  0  0  0
 40 41  1  0  0  0  0
 41 42  2  0  0  0  0
M  END
>  <minimizedAffinity>
-5.23942471

$$$$
