
 OpenBabel03242511503D

 23 25  0  0  1  0  0  0  0  0999 V2000
   37.9190   24.2360   42.0850 C   0  0  1  0  0  0  0  0  0  0  0  0
   36.8840   25.2190   42.3710 C   0  0  2  0  0  0  0  0  0  0  0  0
   36.9100   24.6090   41.0310 C   0  0  0  0  0  0  0  0  0  0  0  0
   37.8270   23.1770   42.4840 H   0  0  0  0  0  0  0  0  0  0  0  0
   36.0730   24.8350   43.0620 H   0  0  0  0  0  0  0  0  0  0  0  0
   36.1860   23.8120   40.7710 H   0  0  0  0  0  0  0  0  0  0  0  0
   37.2840   25.1360   40.1410 H   0  0  0  0  0  0  0  0  0  0  0  0
   40.1600   24.7060   43.0080 C   0  0  0  0  0  0  0  0  0  0  0  0
   39.3320   24.6000   41.8900 C   0  0  0  0  0  0  0  0  0  0  0  0
   39.8980   24.8480   40.6440 C   0  0  0  0  0  0  0  0  0  0  0  0
   41.2230   25.1790   40.5730 N   0  0  0  0  0  0  0  0  0  0  0  0
   42.0050   25.2760   41.6760 C   0  0  0  0  0  0  0  0  0  0  0  0
   41.4710   25.0370   42.9090 N   0  0  0  0  0  0  0  0  0  0  0  0
   39.8640   24.5360   44.0260 H   0  0  0  0  0  0  0  0  0  0  0  0
   39.2790   24.7720   39.7730 H   0  0  0  0  0  0  0  0  0  0  0  0
   43.0420   25.5460   41.4960 H   0  0  0  0  0  0  0  0  0  0  0  0
   37.0460   26.6750   42.4110 C   0  0  0  0  0  0  0  0  0  0  0  0
   37.4940   27.4420   43.4920 C   0  0  0  0  0  3  0  0  0  0  0  0
   37.6140   28.8120   43.4390 C   0  0  0  0  0  0  0  0  0  0  0  0
   37.9730   29.3260   44.3340 H   0  0  0  0  0  0  0  0  0  0  0  0
   37.2950   29.4760   42.3140 N   0  0  0  0  0  0  0  0  0  0  0  0
   36.8690   28.7670   41.2800 C   0  0  0  0  0  3  0  0  0  0  0  0
   36.7530   27.4520   41.3260 N   0  0  0  0  0  0  0  0  0  0  0  0
  1  2  1  0  0  0  0
  1  4  1  1  0  0  0
  2 17  1  0  0  0  0
  2  5  1  1  0  0  0
  3  1  1  0  0  0  0
  3  2  1  0  0  0  0
  6  3  1  0  0  0  0
  7  3  1  0  0  0  0
  8 14  1  0  0  0  0
  9  1  1  0  0  0  0
  9  8  2  0  0  0  0
 10  9  1  0  0  0  0
 11 10  2  0  0  0  0
 11 12  1  0  0  0  0
 12 13  2  0  0  0  0
 13  8  1  0  0  0  0
 15 10  1  0  0  0  0
 16 12  1  0  0  0  0
 17 18  1  0  0  0  0
 19 18  2  0  0  0  0
 19 20  1  0  0  0  0
 21 19  1  0  0  0  0
 22 23  1  0  0  0  0
 22 21  2  0  0  0  0
 23 17  2  0  0  0  0
M  END
>  <minimizedAffinity>
-4.48438501

$$$$

 OpenBabel03242511503D

 23 25  0  0  1  0  0  0  0  0999 V2000
   39.9510   25.8170   43.6800 C   0  0  1  0  0  0  0  0  0  0  0  0
   39.5830   24.5810   43.0030 C   0  0  2  0  0  0  0  0  0  0  0  0
   40.9170   25.1480   42.7370 C   0  0  0  0  0  0  0  0  0  0  0  0
   40.2590   25.8010   44.7720 H   0  0  0  0  0  0  0  0  0  0  0  0
   39.5700   23.6780   43.6870 H   0  0  0  0  0  0  0  0  0  0  0  0
   41.8120   24.7070   43.2160 H   0  0  0  0  0  0  0  0  0  0  0  0
   41.1640   25.6830   41.8080 H   0  0  0  0  0  0  0  0  0  0  0  0
   38.0620   27.4060   43.6790 C   0  0  0  0  0  0  0  0  0  0  0  0
   39.3790   27.1240   43.3160 C   0  0  0  0  0  0  0  0  0  0  0  0
   40.0810   28.1060   42.6260 C   0  0  0  0  0  0  0  0  0  0  0  0
   39.4560   29.2880   42.3380 N   0  0  0  0  0  0  0  0  0  0  0  0
   38.1740   29.5360   42.7020 C   0  0  0  0  0  0  0  0  0  0  0  0
   37.4660   28.5860   43.3800 N   0  0  0  0  0  0  0  0  0  0  0  0
   37.4050   26.7500   44.2190 H   0  0  0  0  0  0  0  0  0  0  0  0
   41.0940   27.9090   42.3390 H   0  0  0  0  0  0  0  0  0  0  0  0
   37.7830   30.5090   42.4190 H   0  0  0  0  0  0  0  0  0  0  0  0
   38.7040   24.4480   41.8390 C   0  0  0  0  0  0  0  0  0  0  0  0
   37.3360   24.1550   41.8480 C   0  0  0  0  0  3  0  0  0  0  0  0
   36.5850   24.0470   40.6990 C   0  0  0  0  0  0  0  0  0  0  0  0
   35.5230   23.8150   40.8050 H   0  0  0  0  0  0  0  0  0  0  0  0
   37.1610   24.2250   39.4970 N   0  0  0  0  0  0  0  0  0  0  0  0
   38.4550   24.5030   39.4690 C   0  0  0  0  0  3  0  0  0  0  0  0
   39.1790   24.6080   40.5680 N   0  0  0  0  0  0  0  0  0  0  0  0
  1  4  1  1  0  0  0
  2  1  1  0  0  0  0
  2  5  1  1  0  0  0
  3  2  1  0  0  0  0
  3  6  1  0  0  0  0
  3  1  1  0  0  0  0
  7  3  1  0  0  0  0
  8 14  1  0  0  0  0
  9  8  2  0  0  0  0
  9  1  1  0  0  0  0
 10  9  1  0  0  0  0
 11 10  2  0  0  0  0
 11 12  1  0  0  0  0
 12 13  2  0  0  0  0
 13  8  1  0  0  0  0
 15 10  1  0  0  0  0
 16 12  1  0  0  0  0
 17 18  1  0  0  0  0
 17  2  1  0  0  0  0
 19 20  1  0  0  0  0
 19 18  2  0  0  0  0
 21 19  1  0  0  0  0
 22 21  2  0  0  0  0
 22 23  1  0  0  0  0
 23 17  2  0  0  0  0
M  END
>  <minimizedAffinity>
-4.28510952

$$$$

 OpenBabel03242511503D

 23 25  0  0  1  0  0  0  0  0999 V2000
   35.5400   28.8310   40.8440 C   0  0  1  0  0  0  0  0  0  0  0  0
   35.6030   29.8830   39.8400 C   0  0  2  0  0  0  0  0  0  0  0  0
   35.5860   28.4840   39.3780 C   0  0  0  0  0  0  0  0  0  0  0  0
   34.5580   28.5930   41.3620 H   0  0  0  0  0  0  0  0  0  0  0  0
   34.6290   30.4460   39.7120 H   0  0  0  0  0  0  0  0  0  0  0  0
   34.6550   28.0470   38.9700 H   0  0  0  0  0  0  0  0  0  0  0  0
   36.4840   27.9640   39.0130 H   0  0  0  0  0  0  0  0  0  0  0  0
   37.1000   27.1490   41.7570 C   0  0  0  0  0  0  0  0  0  0  0  0
   36.6830   28.4800   41.7030 C   0  0  0  0  0  0  0  0  0  0  0  0
   37.3800   29.4050   42.4720 C   0  0  0  0  0  0  0  0  0  0  0  0
   38.4290   28.9740   43.2360 N   0  0  0  0  0  0  0  0  0  0  0  0
   38.8140   27.6740   43.2710 C   0  0  0  0  0  0  0  0  0  0  0  0
   38.1430   26.7490   42.5240 N   0  0  0  0  0  0  0  0  0  0  0  0
   36.6630   26.3320   41.2140 H   0  0  0  0  0  0  0  0  0  0  0  0
   37.0770   30.4310   42.4440 H   0  0  0  0  0  0  0  0  0  0  0  0
   39.6600   27.4490   43.9130 H   0  0  0  0  0  0  0  0  0  0  0  0
   36.7840   30.6630   39.4620 C   0  0  0  0  0  0  0  0  0  0  0  0
   37.0580   31.9920   39.8040 C   0  0  0  0  0  3  0  0  0  0  0  0
   38.1990   32.6490   39.4010 C   0  0  0  0  0  0  0  0  0  0  0  0
   38.3270   33.6870   39.7170 H   0  0  0  0  0  0  0  0  0  0  0  0
   39.1120   32.0160   38.6440 N   0  0  0  0  0  0  0  0  0  0  0  0
   38.8700   30.7570   38.3110 C   0  0  0  0  0  3  0  0  0  0  0  0
   37.7770   30.1230   38.6950 N   0  0  0  0  0  0  0  0  0  0  0  0
  1  4  1  1  0  0  0
  1  9  1  0  0  0  0
  2  5  1  6  0  0  0
  2  1  1  0  0  0  0
  3  2  1  0  0  0  0
  3  1  1  0  0  0  0
  6  3  1  0  0  0  0
  7  3  1  0  0  0  0
  8 13  1  0  0  0  0
  9  8  2  0  0  0  0
  9 10  1  0  0  0  0
 10 11  2  0  0  0  0
 11 12  1  0  0  0  0
 12 16  1  0  0  0  0
 13 12  2  0  0  0  0
 14  8  1  0  0  0  0
 15 10  1  0  0  0  0
 17 18  1  0  0  0  0
 17  2  1  0  0  0  0
 19 20  1  0  0  0  0
 19 18  2  0  0  0  0
 21 19  1  0  0  0  0
 22 21  2  0  0  0  0
 22 23  1  0  0  0  0
 23 17  2  0  0  0  0
M  END
>  <minimizedAffinity>
-4.26386929

$$$$

 OpenBabel03242511503D

 23 25  0  0  1  0  0  0  0  0999 V2000
   36.5810   27.9850   42.1850 C   0  0  1  0  0  0  0  0  0  0  0  0
   37.0490   26.7160   42.7240 C   0  0  2  0  0  0  0  0  0  0  0  0
   36.7040   27.7890   43.6740 C   0  0  0  0  0  0  0  0  0  0  0  0
   35.5170   28.0860   41.8010 H   0  0  0  0  0  0  0  0  0  0  0  0
   36.2870   25.8810   42.6420 H   0  0  0  0  0  0  0  0  0  0  0  0
   35.7450   27.7550   44.2240 H   0  0  0  0  0  0  0  0  0  0  0  0
   37.4630   28.3890   44.1980 H   0  0  0  0  0  0  0  0  0  0  0  0
   37.7520   28.7570   40.1530 C   0  0  0  0  0  0  0  0  0  0  0  0
   37.4740   28.9400   41.5080 C   0  0  0  0  0  0  0  0  0  0  0  0
   38.0630   30.0260   42.1450 C   0  0  0  0  0  0  0  0  0  0  0  0
   38.8780   30.8550   41.4240 N   0  0  0  0  0  0  0  0  0  0  0  0
   39.1320   30.6530   40.1070 C   0  0  0  0  0  0  0  0  0  0  0  0
   38.5640   29.5930   39.4620 N   0  0  0  0  0  0  0  0  0  0  0  0
   37.3630   27.9700   39.5330 H   0  0  0  0  0  0  0  0  0  0  0  0
   37.8630   30.1850   43.1850 H   0  0  0  0  0  0  0  0  0  0  0  0
   39.7940   31.3760   39.6390 H   0  0  0  0  0  0  0  0  0  0  0  0
   38.4340   26.2420   42.7740 C   0  0  0  0  0  0  0  0  0  0  0  0
   39.4270   26.6430   43.6750 C   0  0  0  0  0  3  0  0  0  0  0  0
   40.7090   26.1420   43.6460 C   0  0  0  0  0  0  0  0  0  0  0  0
   41.4170   26.5140   44.3900 H   0  0  0  0  0  0  0  0  0  0  0  0
   41.0570   25.2270   42.7250 N   0  0  0  0  0  0  0  0  0  0  0  0
   40.1300   24.8360   41.8640 C   0  0  0  0  0  3  0  0  0  0  0  0
   38.8990   25.3130   41.8880 N   0  0  0  0  0  0  0  0  0  0  0  0
  1  4  1  6  0  0  0
  1  2  1  0  0  0  0
  1  3  1  0  0  0  0
  2  5  1  6  0  0  0
  2 17  1  0  0  0  0
  2  3  1  0  0  0  0
  3  7  1  0  0  0  0
  3  6  1  0  0  0  0
  8  9  1  0  0  0  0
  9 10  2  0  0  0  0
  9  1  1  0  0  0  0
 10 15  1  0  0  0  0
 11 10  1  0  0  0  0
 12 11  2  0  0  0  0
 13 12  1  0  0  0  0
 13  8  2  0  0  0  0
 14  8  1  0  0  0  0
 16 12  1  0  0  0  0
 17 18  1  0  0  0  0
 19 18  2  0  0  0  0
 19 20  1  0  0  0  0
 21 19  1  0  0  0  0
 22 23  1  0  0  0  0
 22 21  2  0  0  0  0
 23 17  2  0  0  0  0
M  END
>  <minimizedAffinity>
-4.21732759

$$$$

 OpenBabel03242511503D

 23 25  0  0  1  0  0  0  0  0999 V2000
   38.0510   27.0050   43.2250 C   0  0  1  0  0  0  0  0  0  0  0  0
   37.9170   28.4260   43.5110 C   0  0  2  0  0  0  0  0  0  0  0  0
   36.7050   27.5910   43.5660 C   0  0  0  0  0  0  0  0  0  0  0  0
   38.4790   26.3020   44.0070 H   0  0  0  0  0  0  0  0  0  0  0  0
   38.3420   28.7270   44.5180 H   0  0  0  0  0  0  0  0  0  0  0  0
   36.2910   27.2780   44.5440 H   0  0  0  0  0  0  0  0  0  0  0  0
   35.9420   27.5920   42.7740 H   0  0  0  0  0  0  0  0  0  0  0  0
   39.5830   26.5080   41.3550 C   0  0  0  0  0  0  0  0  0  0  0  0
   38.2860   26.4850   41.8680 C   0  0  0  0  0  0  0  0  0  0  0  0
   37.2820   25.9650   41.0590 C   0  0  0  0  0  0  0  0  0  0  0  0
   37.6080   25.5070   39.8120 N   0  0  0  0  0  0  0  0  0  0  0  0
   38.8780   25.5410   39.3370 C   0  0  0  0  0  0  0  0  0  0  0  0
   39.8780   26.0470   40.1150 N   0  0  0  0  0  0  0  0  0  0  0  0
   40.4550   26.8710   41.8670 H   0  0  0  0  0  0  0  0  0  0  0  0
   36.2800   25.9380   41.4340 H   0  0  0  0  0  0  0  0  0  0  0  0
   39.0170   25.1490   38.3340 H   0  0  0  0  0  0  0  0  0  0  0  0
   37.8940   29.5180   42.5350 C   0  0  0  0  0  0  0  0  0  0  0  0
   38.9650   30.3390   42.1670 C   0  0  0  0  0  3  0  0  0  0  0  0
   38.8510   31.3470   41.2360 C   0  0  0  0  0  0  0  0  0  0  0  0
   39.7420   31.9370   41.0120 H   0  0  0  0  0  0  0  0  0  0  0  0
   37.6710   31.5810   40.6340 N   0  0  0  0  0  0  0  0  0  0  0  0
   36.6460   30.8130   40.9700 C   0  0  0  0  0  3  0  0  0  0  0  0
   36.7510   29.8450   41.8620 N   0  0  0  0  0  0  0  0  0  0  0  0
  1  2  1  0  0  0  0
  1  3  1  0  0  0  0
  1  4  1  1  0  0  0
  2  3  1  0  0  0  0
  2  5  1  1  0  0  0
  3  6  1  0  0  0  0
  7  3  1  0  0  0  0
  8 14  1  0  0  0  0
  8  9  1  0  0  0  0
  9  1  1  0  0  0  0
 10 15  1  0  0  0  0
 10  9  2  0  0  0  0
 11 10  1  0  0  0  0
 12 11  2  0  0  0  0
 12 13  1  0  0  0  0
 13  8  2  0  0  0  0
 16 12  1  0  0  0  0
 17  2  1  0  0  0  0
 18 17  1  0  0  0  0
 19 18  2  0  0  0  0
 20 19  1  0  0  0  0
 21 22  2  0  0  0  0
 21 19  1  0  0  0  0
 22 23  1  0  0  0  0
 23 17  2  0  0  0  0
M  END
>  <minimizedAffinity>
-4.20028257

$$$$

 OpenBabel03242511503D

 23 25  0  0  1  0  0  0  0  0999 V2000
   36.1060   29.3740   39.2600 C   0  0  1  0  0  0  0  0  0  0  0  0
   36.1060   28.1460   40.0410 C   0  0  2  0  0  0  0  0  0  0  0  0
   35.0190   29.1140   40.2700 C   0  0  0  0  0  0  0  0  0  0  0  0
   35.7650   29.3620   38.1760 H   0  0  0  0  0  0  0  0  0  0  0  0
   35.8170   27.2290   39.4430 H   0  0  0  0  0  0  0  0  0  0  0  0
   34.0140   28.9310   39.8430 H   0  0  0  0  0  0  0  0  0  0  0  0
   34.9820   29.7740   41.1500 H   0  0  0  0  0  0  0  0  0  0  0  0
   38.3010   30.4280   38.8570 C   0  0  0  0  0  0  0  0  0  0  0  0
   37.0620   30.4680   39.4960 C   0  0  0  0  0  0  0  0  0  0  0  0
   36.8000   31.5520   40.3270 C   0  0  0  0  0  0  0  0  0  0  0  0
   37.7580   32.5170   40.4770 N   0  0  0  0  0  0  0  0  0  0  0  0
   38.9560   32.4530   39.8440 C   0  0  0  0  0  0  0  0  0  0  0  0
   39.2330   31.3980   39.0240 N   0  0  0  0  0  0  0  0  0  0  0  0
   38.6360   29.6610   38.1840 H   0  0  0  0  0  0  0  0  0  0  0  0
   35.8550   31.6020   40.8260 H   0  0  0  0  0  0  0  0  0  0  0  0
   39.6370   33.2760   40.0400 H   0  0  0  0  0  0  0  0  0  0  0  0
   36.9470   27.8470   41.2030 C   0  0  0  0  0  0  0  0  0  0  0  0
   36.5840   27.9450   42.5510 C   0  0  0  0  0  3  0  0  0  0  0  0
   37.4450   27.6430   43.5820 C   0  0  0  0  0  0  0  0  0  0  0  0
   37.0740   27.7490   44.6030 H   0  0  0  0  0  0  0  0  0  0  0  0
   38.6980   27.2320   43.3170 N   0  0  0  0  0  0  0  0  0  0  0  0
   39.0590   27.1330   42.0470 C   0  0  0  0  0  3  0  0  0  0  0  0
   38.2360   27.4210   41.0550 N   0  0  0  0  0  0  0  0  0  0  0  0
  1  4  1  6  0  0  0
  1  9  1  0  0  0  0
  1  2  1  0  0  0  0
  1  3  1  0  0  0  0
  2  5  1  6  0  0  0
  2  3  1  0  0  0  0
  2 17  1  0  0  0  0
  3  7  1  0  0  0  0
  6  3  1  0  0  0  0
  8 13  2  0  0  0  0
  8  9  1  0  0  0  0
  9 10  2  0  0  0  0
 10 11  1  0  0  0  0
 10 15  1  0  0  0  0
 12 16  1  0  0  0  0
 12 11  2  0  0  0  0
 13 12  1  0  0  0  0
 14  8  1  0  0  0  0
 17 18  1  0  0  0  0
 18 19  2  0  0  0  0
 19 20  1  0  0  0  0
 21 19  1  0  0  0  0
 22 21  2  0  0  0  0
 23 17  2  0  0  0  0
 23 22  1  0  0  0  0
M  END
>  <minimizedAffinity>
-4.1809988

$$$$

 OpenBabel03242511503D

 23 25  0  0  1  0  0  0  0  0999 V2000
   35.5740   28.8440   40.8570 C   0  0  1  0  0  0  0  0  0  0  0  0
   35.5650   29.9340   39.8910 C   0  0  2  0  0  0  0  0  0  0  0  0
   35.4800   28.5550   39.3810 C   0  0  0  0  0  0  0  0  0  0  0  0
   34.6380   28.6010   41.4530 H   0  0  0  0  0  0  0  0  0  0  0  0
   34.5930   30.5160   39.8740 H   0  0  0  0  0  0  0  0  0  0  0  0
   34.5080   28.1470   39.0430 H   0  0  0  0  0  0  0  0  0  0  0  0
   36.3320   28.0360   38.9160 H   0  0  0  0  0  0  0  0  0  0  0  0
   37.3410   29.3380   42.5070 C   0  0  0  0  0  0  0  0  0  0  0  0
   36.7830   28.4430   41.5940 C   0  0  0  0  0  0  0  0  0  0  0  0
   37.4100   27.2120   41.4320 C   0  0  0  0  0  0  0  0  0  0  0  0
   38.5300   26.9390   42.1680 N   0  0  0  0  0  0  0  0  0  0  0  0
   39.0520   27.8260   43.0490 C   0  0  0  0  0  0  0  0  0  0  0  0
   38.4530   29.0400   43.2230 N   0  0  0  0  0  0  0  0  0  0  0  0
   36.9620   30.3150   42.7400 H   0  0  0  0  0  0  0  0  0  0  0  0
   36.9970   26.5120   40.7360 H   0  0  0  0  0  0  0  0  0  0  0  0
   39.9430   27.4990   43.5760 H   0  0  0  0  0  0  0  0  0  0  0  0
   36.7200   30.7110   39.4370 C   0  0  0  0  0  0  0  0  0  0  0  0
   37.0780   32.0020   39.8420 C   0  0  0  0  0  3  0  0  0  0  0  0
   38.1860   32.6590   39.3580 C   0  0  0  0  0  0  0  0  0  0  0  0
   38.3860   33.6650   39.7330 H   0  0  0  0  0  0  0  0  0  0  0  0
   38.9840   32.0630   38.4540 N   0  0  0  0  0  0  0  0  0  0  0  0
   38.6620   30.8410   38.0590 C   0  0  0  0  0  3  0  0  0  0  0  0
   37.5990   30.2070   38.5210 N   0  0  0  0  0  0  0  0  0  0  0  0
  1  4  1  1  0  0  0
  1  9  1  0  0  0  0
  2  5  1  6  0  0  0
  2  1  1  0  0  0  0
  3  2  1  0  0  0  0
  3  1  1  0  0  0  0
  6  3  1  0  0  0  0
  7  3  1  0  0  0  0
  8 14  1  0  0  0  0
  8 13  1  0  0  0  0
  9  8  2  0  0  0  0
 10  9  1  0  0  0  0
 10 11  2  0  0  0  0
 11 12  1  0  0  0  0
 12 13  2  0  0  0  0
 12 16  1  0  0  0  0
 15 10  1  0  0  0  0
 17 18  1  0  0  0  0
 17  2  1  0  0  0  0
 19 20  1  0  0  0  0
 19 18  2  0  0  0  0
 21 19  1  0  0  0  0
 22 21  2  0  0  0  0
 22 23  1  0  0  0  0
 23 17  2  0  0  0  0
M  END
>  <minimizedAffinity>
-4.17404318

$$$$

 OpenBabel03242511503D

 23 25  0  0  1  0  0  0  0  0999 V2000
   36.1080   29.3300   39.2500 C   0  0  1  0  0  0  0  0  0  0  0  0
   36.0670   28.1040   40.0350 C   0  0  2  0  0  0  0  0  0  0  0  0
   35.0300   29.1210   40.2820 C   0  0  0  0  0  0  0  0  0  0  0  0
   35.7460   29.3320   38.1740 H   0  0  0  0  0  0  0  0  0  0  0  0
   35.7240   27.2000   39.4440 H   0  0  0  0  0  0  0  0  0  0  0  0
   34.0100   28.9840   39.8750 H   0  0  0  0  0  0  0  0  0  0  0  0
   35.0410   29.7840   41.1610 H   0  0  0  0  0  0  0  0  0  0  0  0
   36.7560   31.5250   40.1740 C   0  0  0  0  0  0  0  0  0  0  0  0
   37.1180   30.3790   39.4650 C   0  0  0  0  0  0  0  0  0  0  0  0
   38.4260   30.2950   39.0000 C   0  0  0  0  0  0  0  0  0  0  0  0
   39.2860   31.3270   39.2550 N   0  0  0  0  0  0  0  0  0  0  0  0
   38.9080   32.4310   39.9460 C   0  0  0  0  0  0  0  0  0  0  0  0
   37.6300   32.5340   40.4120 N   0  0  0  0  0  0  0  0  0  0  0  0
   35.7890   31.7220   40.5980 H   0  0  0  0  0  0  0  0  0  0  0  0
   38.7230   29.4240   38.4540 H   0  0  0  0  0  0  0  0  0  0  0  0
   39.6770   33.1850   40.0880 H   0  0  0  0  0  0  0  0  0  0  0  0
   36.9150   27.7680   41.1800 C   0  0  0  0  0  0  0  0  0  0  0  0
   36.6150   27.9590   42.5340 C   0  0  0  0  0  3  0  0  0  0  0  0
   37.4780   27.6120   43.5490 C   0  0  0  0  0  0  0  0  0  0  0  0
   37.1580   27.7990   44.5760 H   0  0  0  0  0  0  0  0  0  0  0  0
   38.6720   27.0630   43.2620 N   0  0  0  0  0  0  0  0  0  0  0  0
   38.9740   26.8750   41.9870 C   0  0  0  0  0  3  0  0  0  0  0  0
   38.1480   27.2050   41.0100 N   0  0  0  0  0  0  0  0  0  0  0  0
  1  4  1  6  0  0  0
  1  9  1  0  0  0  0
  1  2  1  0  0  0  0
  1  3  1  0  0  0  0
  2  5  1  6  0  0  0
  2  3  1  0  0  0  0
  2 17  1  0  0  0  0
  3  7  1  0  0  0  0
  6  3  1  0  0  0  0
  8 13  1  0  0  0  0
  8 14  1  0  0  0  0
  9  8  2  0  0  0  0
 10 11  2  0  0  0  0
 10  9  1  0  0  0  0
 11 12  1  0  0  0  0
 12 16  1  0  0  0  0
 12 13  2  0  0  0  0
 15 10  1  0  0  0  0
 17 18  1  0  0  0  0
 18 19  2  0  0  0  0
 19 20  1  0  0  0  0
 21 19  1  0  0  0  0
 22 21  2  0  0  0  0
 23 17  2  0  0  0  0
 23 22  1  0  0  0  0
M  END
>  <minimizedAffinity>
-4.15123796

$$$$

 OpenBabel03242511503D

 23 25  0  0  1  0  0  0  0  0999 V2000
   37.3600   28.3610   43.3080 C   0  0  1  0  0  0  0  0  0  0  0  0
   37.2590   27.0100   42.7720 C   0  0  2  0  0  0  0  0  0  0  0  0
   38.3850   27.3180   43.6710 C   0  0  0  0  0  0  0  0  0  0  0  0
   36.6870   28.6880   44.1620 H   0  0  0  0  0  0  0  0  0  0  0  0
   36.4250   26.4000   43.2360 H   0  0  0  0  0  0  0  0  0  0  0  0
   38.3610   26.9820   44.7250 H   0  0  0  0  0  0  0  0  0  0  0  0
   39.4120   27.4770   43.3090 H   0  0  0  0  0  0  0  0  0  0  0  0
   36.8400   30.0670   41.6020 C   0  0  0  0  0  0  0  0  0  0  0  0
   37.7650   29.5140   42.4890 C   0  0  0  0  0  0  0  0  0  0  0  0
   39.0280   30.0930   42.5450 C   0  0  0  0  0  0  0  0  0  0  0  0
   39.3020   31.1640   41.7400 N   0  0  0  0  0  0  0  0  0  0  0  0
   38.3850   31.6820   40.8870 C   0  0  0  0  0  0  0  0  0  0  0  0
   37.1390   31.1300   40.8150 N   0  0  0  0  0  0  0  0  0  0  0  0
   35.8300   29.7320   41.4590 H   0  0  0  0  0  0  0  0  0  0  0  0
   39.7520   29.6830   43.2190 H   0  0  0  0  0  0  0  0  0  0  0  0
   38.7150   32.5320   40.2980 H   0  0  0  0  0  0  0  0  0  0  0  0
   37.6230   26.5750   41.4220 C   0  0  0  0  0  0  0  0  0  0  0  0
   36.7780   26.4910   40.3100 C   0  0  0  0  0  3  0  0  0  0  0  0
   37.2090   26.0670   39.0720 C   0  0  0  0  0  0  0  0  0  0  0  0
   36.4770   26.0340   38.2630 H   0  0  0  0  0  0  0  0  0  0  0  0
   38.4920   25.7090   38.8900 N   0  0  0  0  0  0  0  0  0  0  0  0
   39.3070   25.7820   39.9310 C   0  0  0  0  0  3  0  0  0  0  0  0
   38.8980   26.1890   41.1190 N   0  0  0  0  0  0  0  0  0  0  0  0
  1  3  1  0  0  0  0
  1  4  1  1  0  0  0
  2  5  1  1  0  0  0
  2  1  1  0  0  0  0
  2  3  1  0  0  0  0
  3  6  1  0  0  0  0
  7  3  1  0  0  0  0
  8  9  1  0  0  0  0
  9 10  2  0  0  0  0
  9  1  1  0  0  0  0
 10 15  1  0  0  0  0
 11 10  1  0  0  0  0
 12 11  2  0  0  0  0
 13 12  1  0  0  0  0
 13  8  2  0  0  0  0
 14  8  1  0  0  0  0
 16 12  1  0  0  0  0
 17  2  1  0  0  0  0
 18 17  2  0  0  0  0
 19 18  1  0  0  0  0
 20 19  1  0  0  0  0
 21 19  2  0  0  0  0
 21 22  1  0  0  0  0
 22 23  2  0  0  0  0
 23 17  1  0  0  0  0
M  END
>  <minimizedAffinity>
-4.12420797

$$$$
