
 OpenBabel03252503503D

 19 20  0  0  0  0  0  0  0  0999 V2000
   47.6460   34.9470   42.2710 C   0  0  0  0  0  0  0  0  0  0  0  0
   47.7230   33.6710   42.8640 C   0  0  0  0  0  0  0  0  0  0  0  0
   46.6500   33.2370   43.6430 C   0  0  0  0  0  0  0  0  0  0  0  0
   45.5890   34.0540   43.7920 N   0  0  0  0  0  0  0  0  0  0  0  0
   45.5270   35.2800   43.2150 C   0  0  0  0  0  0  0  0  0  0  0  0
   46.5560   35.7180   42.4590 N   0  0  0  0  0  0  0  0  0  0  0  0
   48.5620   32.9940   42.7620 H   0  0  0  0  0  0  0  0  0  0  0  0
   44.6820   35.9530   43.3240 H   0  0  0  0  0  0  0  0  0  0  0  0
   46.6850   31.9430   44.2680 C   0  0  0  0  0  0  0  0  0  0  0  0
   45.5160   31.2280   44.4310 C   0  0  0  0  0  3  0  0  0  0  0  0
   45.5900   29.9740   45.0420 C   0  0  0  0  0  0  0  0  0  0  0  0
   44.7050   29.3430   45.2090 H   0  0  0  0  0  0  0  0  0  0  0  0
   46.7810   29.4630   45.4700 N   0  0  0  0  0  0  0  0  0  0  0  0
   47.8860   30.1970   45.2880 C   0  0  0  0  0  3  0  0  0  0  0  0
   47.8370   31.4120   44.6990 N   0  0  0  0  0  0  0  0  0  0  0  0
   48.8110   35.3860   41.4430 C   0  0  0  0  0  0  0  0  0  0  0  0
   48.5340   35.3330   40.1060 F   0  0  0  0  0  0  0  0  0  0  0  0
   49.1550   36.6710   41.8600 F   0  0  0  0  0  0  0  0  0  0  0  0
   49.9200   34.5800   41.7610 F   0  0  0  0  0  0  0  0  0  0  0  0
  1  6  2  0  0  0  0
  1  2  1  0  0  0  0
  2  3  2  0  0  0  0
  3  4  1  0  0  0  0
  3  9  1  0  0  0  0
  5  8  1  0  0  0  0
  5  4  2  0  0  0  0
  6  5  1  0  0  0  0
  7  2  1  0  0  0  0
  9 10  2  0  0  0  0
  9 15  1  0  0  0  0
 10 11  1  0  0  0  0
 11 12  1  0  0  0  0
 11 13  2  0  0  0  0
 14 13  1  0  0  0  0
 15 14  2  0  0  0  0
 16 19  1  0  0  0  0
 16 18  1  0  0  0  0
 16  1  1  0  0  0  0
 17 16  1  0  0  0  0
M  END
>  <minimizedAffinity>
-4.06544685

>  <minimizedRMSD>
0.939116657

$$$$
