
 OpenBabel03252506203D

 31 33  0  0  0  0  0  0  0  0999 V2000
   37.8840   30.5670   40.7170 C   0  0  0  0  0  0  0  0  0  0  0  0
   38.1300   31.9420   40.6440 C   0  0  0  0  0  0  0  0  0  0  0  0
   37.7390   32.5940   39.4600 C   0  0  0  0  0  0  0  0  0  0  0  0
   37.1590   31.8880   38.4700 N   0  0  0  0  0  0  0  0  0  0  0  0
   36.9380   30.5560   38.5810 C   0  0  0  0  0  0  0  0  0  0  0  0
   37.3010   29.8900   39.7080 N   0  0  0  0  0  0  0  0  0  0  0  0
   38.6000   32.4680   41.4640 H   0  0  0  0  0  0  0  0  0  0  0  0
   37.9230   33.6700   39.3830 H   0  0  0  0  0  0  0  0  0  0  0  0
   34.3280   29.1740   39.2440 Cl  0  0  0  0  0  0  0  0  0  0  0  0
   35.1020   29.2050   37.6890 C   0  0  0  0  0  0  0  0  0  0  0  0
   36.3050   29.8660   37.4670 C   0  0  0  0  0  0  0  0  0  0  0  0
   36.9300   29.8990   36.2410 C   0  0  0  0  0  0  0  0  0  0  0  0
   36.3250   29.2460   35.1990 C   0  0  0  0  0  0  0  0  0  0  0  0
   35.1340   28.5630   35.3150 C   0  0  0  0  0  0  0  0  0  0  0  0
   34.5590   28.5720   36.5870 C   0  0  0  0  0  0  0  0  0  0  0  0
   37.8780   30.4420   36.1480 H   0  0  0  0  0  0  0  0  0  0  0  0
   36.7900   29.2510   34.2220 H   0  0  0  0  0  0  0  0  0  0  0  0
   34.6570   28.0520   34.5130 H   0  0  0  0  0  0  0  0  0  0  0  0
   33.6100   28.0320   36.6980 H   0  0  0  0  0  0  0  0  0  0  0  0
   38.2800   29.8440   41.9460 C   0  0  0  0  0  3  0  0  0  0  0  0
   37.4190   28.9720   42.4460 C   0  0  0  0  0  3  0  0  0  0  0  0
   37.7780   28.2230   43.6800 C   0  0  0  0  0  0  0  0  0  0  0  0
   36.8700   27.9400   44.2350 H   0  0  0  0  0  0  0  0  0  0  0  0
   38.4990   28.7850   44.3050 H   0  0  0  0  0  0  0  0  0  0  0  0
   38.3890   26.9360   43.2170 C   0  0  0  0  0  0  0  0  0  0  0  0
   39.6600   26.5520   43.6370 C   0  0  0  0  0  3  0  0  0  0  0  0
   40.2020   25.3470   43.1860 C   0  0  0  0  0  0  0  0  0  0  0  0
   41.1820   24.9940   43.4770 H   0  0  0  0  0  0  0  0  0  0  0  0
   39.5220   24.5300   42.3430 N   0  0  0  0  0  0  0  0  0  0  0  0
   38.2940   24.9470   41.9640 C   0  0  0  0  0  3  0  0  0  0  0  0
   37.7410   26.1010   42.3790 N   0  0  0  0  0  0  0  0  0  0  0  0
  1 20  1  0  0  0  0
  2  1  1  0  0  0  0
  2  7  1  0  0  0  0
  3  2  2  0  0  0  0
  4  5  2  0  0  0  0
  4  3  1  0  0  0  0
  5  6  1  0  0  0  0
  6  1  2  0  0  0  0
  8  3  1  0  0  0  0
 10  9  1  0  0  0  0
 11 10  1  0  0  0  0
 11  5  1  0  0  0  0
 12 11  2  0  0  0  0
 13 14  2  0  0  0  0
 13 12  1  0  0  0  0
 14 15  1  0  0  0  0
 15 19  1  0  0  0  0
 15 10  2  0  0  0  0
 16 12  1  0  0  0  0
 17 13  1  0  0  0  0
 18 14  1  0  0  0  0
 20 21  2  0  0  0  0
 21 22  1  0  0  0  0
 22 23  1  0  0  0  0
 22 24  1  0  0  0  0
 25 26  1  0  0  0  0
 25 22  1  0  0  0  0
 27 28  1  0  0  0  0
 27 26  2  0  0  0  0
 29 27  1  0  0  0  0
 30 29  2  0  0  0  0
 30 31  1  0  0  0  0
 31 25  2  0  0  0  0
M  END
>  <minimizedAffinity>
-5.43944407

$$$$

 OpenBabel03252506203D

 31 33  0  0  0  0  0  0  0  0999 V2000
   34.9860   28.8610   38.1470 C   0  0  0  0  0  0  0  0  0  0  0  0
   35.9010   29.4170   37.2480 C   0  0  0  0  0  0  0  0  0  0  0  0
   37.2250   29.5680   37.7020 C   0  0  0  0  0  0  0  0  0  0  0  0
   37.5500   29.1820   38.9500 N   0  0  0  0  0  0  0  0  0  0  0  0
   36.6320   28.6480   39.7920 C   0  0  0  0  0  0  0  0  0  0  0  0
   35.3440   28.4850   39.3920 N   0  0  0  0  0  0  0  0  0  0  0  0
   35.5950   29.7130   36.2530 H   0  0  0  0  0  0  0  0  0  0  0  0
   37.9560   30.0010   37.0120 H   0  0  0  0  0  0  0  0  0  0  0  0
   36.9210   25.6660   40.2210 Cl  0  0  0  0  0  0  0  0  0  0  0  0
   37.2200   26.9020   41.4030 C   0  0  0  0  0  0  0  0  0  0  0  0
   37.0640   28.2550   41.1250 C   0  0  0  0  0  0  0  0  0  0  0  0
   37.2960   29.2460   42.0510 C   0  0  0  0  0  0  0  0  0  0  0  0
   37.7030   28.8640   43.3040 C   0  0  0  0  0  0  0  0  0  0  0  0
   37.8870   27.5520   43.6800 C   0  0  0  0  0  0  0  0  0  0  0  0
   37.6310   26.6030   42.6890 C   0  0  0  0  0  0  0  0  0  0  0  0
   37.1500   30.2910   41.7530 H   0  0  0  0  0  0  0  0  0  0  0  0
   37.8940   29.6180   44.0570 H   0  0  0  0  0  0  0  0  0  0  0  0
   38.2010   27.2460   44.6490 H   0  0  0  0  0  0  0  0  0  0  0  0
   37.7730   25.5520   42.9710 H   0  0  0  0  0  0  0  0  0  0  0  0
   33.5840   28.6860   37.7090 C   0  0  0  0  0  3  0  0  0  0  0  0
   33.3030   28.9400   36.4410 C   0  0  0  0  0  3  0  0  0  0  0  0
   31.9060   28.7760   35.9590 C   0  0  0  0  0  0  0  0  0  0  0  0
   31.3070   28.2240   36.6990 H   0  0  0  0  0  0  0  0  0  0  0  0
   31.8710   28.3120   34.9530 H   0  0  0  0  0  0  0  0  0  0  0  0
   31.3230   30.1550   35.9100 C   0  0  0  0  0  0  0  0  0  0  0  0
   31.4190   30.9360   34.7600 C   0  0  0  0  0  3  0  0  0  0  0  0
   30.8650   32.2180   34.7480 C   0  0  0  0  0  0  0  0  0  0  0  0
   30.9070   32.8710   33.8870 H   0  0  0  0  0  0  0  0  0  0  0  0
   30.2310   32.7320   35.8320 N   0  0  0  0  0  0  0  0  0  0  0  0
   30.1650   31.9360   36.9210 C   0  0  0  0  0  3  0  0  0  0  0  0
   30.6860   30.6970   36.9690 N   0  0  0  0  0  0  0  0  0  0  0  0
  1  6  1  0  0  0  0
  2  3  1  0  0  0  0
  2  1  2  0  0  0  0
  3  4  2  0  0  0  0
  4  5  1  0  0  0  0
  5 11  1  0  0  0  0
  6  5  2  0  0  0  0
  7  2  1  0  0  0  0
  8  3  1  0  0  0  0
  9 10  1  0  0  0  0
 10 15  1  0  0  0  0
 11 10  2  0  0  0  0
 11 12  1  0  0  0  0
 12 13  2  0  0  0  0
 13 14  1  0  0  0  0
 13 17  1  0  0  0  0
 14 18  1  0  0  0  0
 15 19  1  0  0  0  0
 15 14  2  0  0  0  0
 16 12  1  0  0  0  0
 20  1  1  0  0  0  0
 21 20  2  0  0  0  0
 22 21  1  0  0  0  0
 22 23  1  0  0  0  0
 24 22  1  0  0  0  0
 25 22  1  0  0  0  0
 25 31  1  0  0  0  0
 26 25  2  0  0  0  0
 27 26  1  0  0  0  0
 27 29  2  0  0  0  0
 28 27  1  0  0  0  0
 29 30  1  0  0  0  0
 30 31  2  0  0  0  0
M  END
>  <minimizedAffinity>
-5.41165113

$$$$

 OpenBabel03252506203D

 31 33  0  0  0  0  0  0  0  0999 V2000
   34.0650   28.1670   37.6850 C   0  0  0  0  0  0  0  0  0  0  0  0
   33.8310   26.9490   37.0390 C   0  0  0  0  0  0  0  0  0  0  0  0
   32.7710   26.9150   36.1150 C   0  0  0  0  0  0  0  0  0  0  0  0
   32.0420   28.0260   35.8940 N   0  0  0  0  0  0  0  0  0  0  0  0
   32.3020   29.1870   36.5430 C   0  0  0  0  0  0  0  0  0  0  0  0
   33.3160   29.2620   37.4420 N   0  0  0  0  0  0  0  0  0  0  0  0
   34.4430   26.0810   37.2480 H   0  0  0  0  0  0  0  0  0  0  0  0
   32.5720   25.9700   35.5990 H   0  0  0  0  0  0  0  0  0  0  0  0
   30.4240   30.0160   38.7670 Cl  0  0  0  0  0  0  0  0  0  0  0  0
   30.5770   30.7880   37.2190 C   0  0  0  0  0  0  0  0  0  0  0  0
   31.4680   30.3440   36.2480 C   0  0  0  0  0  0  0  0  0  0  0  0
   31.6000   30.9440   35.0160 C   0  0  0  0  0  0  0  0  0  0  0  0
   30.8090   32.0320   34.7500 C   0  0  0  0  0  0  0  0  0  0  0  0
   29.8970   32.5490   35.6430 C   0  0  0  0  0  0  0  0  0  0  0  0
   29.8180   31.8880   36.8700 C   0  0  0  0  0  0  0  0  0  0  0  0
   32.3260   30.5330   34.3050 H   0  0  0  0  0  0  0  0  0  0  0  0
   30.8870   32.5270   33.7910 H   0  0  0  0  0  0  0  0  0  0  0  0
   29.2790   33.3930   35.4450 H   0  0  0  0  0  0  0  0  0  0  0  0
   29.0960   32.2870   37.5940 H   0  0  0  0  0  0  0  0  0  0  0  0
   35.1710   28.2450   38.6650 C   0  0  0  0  0  3  0  0  0  0  0  0
   34.9560   28.9330   39.7760 C   0  0  0  0  0  3  0  0  0  0  0  0
   36.0400   29.0370   40.7880 C   0  0  0  0  0  0  0  0  0  0  0  0
   36.6510   28.1210   40.7910 H   0  0  0  0  0  0  0  0  0  0  0  0
   35.6420   29.2850   41.7920 H   0  0  0  0  0  0  0  0  0  0  0  0
   36.9470   30.1290   40.3090 C   0  0  0  0  0  0  0  0  0  0  0  0
   36.5610   31.4660   40.3780 C   0  0  0  0  0  3  0  0  0  0  0  0
   37.4300   32.4590   39.9230 C   0  0  0  0  0  0  0  0  0  0  0  0
   37.1880   33.5130   39.9500 H   0  0  0  0  0  0  0  0  0  0  0  0
   38.6500   32.1610   39.4100 N   0  0  0  0  0  0  0  0  0  0  0  0
   38.9770   30.8510   39.3640 C   0  0  0  0  0  3  0  0  0  0  0  0
   38.1660   29.8670   39.7940 N   0  0  0  0  0  0  0  0  0  0  0  0
  1 20  1  0  0  0  0
  2  7  1  0  0  0  0
  2  1  2  0  0  0  0
  3  2  1  0  0  0  0
  4  3  2  0  0  0  0
  4  5  1  0  0  0  0
  5  6  2  0  0  0  0
  6  1  1  0  0  0  0
  8  3  1  0  0  0  0
 10  9  1  0  0  0  0
 11  5  1  0  0  0  0
 11 10  2  0  0  0  0
 12 11  1  0  0  0  0
 13 12  2  0  0  0  0
 13 14  1  0  0  0  0
 14 15  2  0  0  0  0
 15 10  1  0  0  0  0
 15 19  1  0  0  0  0
 16 12  1  0  0  0  0
 17 13  1  0  0  0  0
 18 14  1  0  0  0  0
 20 21  2  0  0  0  0
 21 22  1  0  0  0  0
 22 23  1  0  0  0  0
 22 24  1  0  0  0  0
 25 26  1  0  0  0  0
 25 22  1  0  0  0  0
 27 28  1  0  0  0  0
 27 26  2  0  0  0  0
 29 27  1  0  0  0  0
 30 29  2  0  0  0  0
 30 31  1  0  0  0  0
 31 25  2  0  0  0  0
M  END
>  <minimizedAffinity>
-5.35280228

$$$$

 OpenBabel03252506203D

 31 33  0  0  0  0  0  0  0  0999 V2000
   37.0680   29.3960   39.4390 C   0  0  0  0  0  0  0  0  0  0  0  0
   36.4760   29.3950   38.1720 C   0  0  0  0  0  0  0  0  0  0  0  0
   36.9690   30.3270   37.2410 C   0  0  0  0  0  0  0  0  0  0  0  0
   37.9650   31.1610   37.5960 N   0  0  0  0  0  0  0  0  0  0  0  0
   38.5120   31.1300   38.8350 C   0  0  0  0  0  0  0  0  0  0  0  0
   38.0640   30.2450   39.7630 N   0  0  0  0  0  0  0  0  0  0  0  0
   35.6770   28.7070   37.9310 H   0  0  0  0  0  0  0  0  0  0  0  0
   36.5180   30.3420   36.2430 H   0  0  0  0  0  0  0  0  0  0  0  0
   37.6100   33.8280   39.8660 Cl  0  0  0  0  0  0  0  0  0  0  0  0
   39.2540   33.3270   39.6190 C   0  0  0  0  0  0  0  0  0  0  0  0
   39.5860   32.0640   39.1400 C   0  0  0  0  0  0  0  0  0  0  0  0
   40.8830   31.6530   38.9380 C   0  0  0  0  0  0  0  0  0  0  0  0
   41.8860   32.5410   39.2290 C   0  0  0  0  0  0  0  0  0  0  0  0
   41.6630   33.8140   39.7060 C   0  0  0  0  0  0  0  0  0  0  0  0
   40.3230   34.1610   39.8850 C   0  0  0  0  0  0  0  0  0  0  0  0
   41.0620   30.6400   38.5580 H   0  0  0  0  0  0  0  0  0  0  0  0
   42.9180   32.2500   39.0810 H   0  0  0  0  0  0  0  0  0  0  0  0
   42.4350   34.5110   39.9340 H   0  0  0  0  0  0  0  0  0  0  0  0
   40.1270   35.1720   40.2650 H   0  0  0  0  0  0  0  0  0  0  0  0
   36.5770   28.4310   40.4480 C   0  0  0  0  0  3  0  0  0  0  0  0
   37.0250   28.5620   41.6870 C   0  0  0  0  0  3  0  0  0  0  0  0
   36.5570   27.6140   42.7320 C   0  0  0  0  0  0  0  0  0  0  0  0
   35.6110   27.1420   42.4280 H   0  0  0  0  0  0  0  0  0  0  0  0
   36.4890   28.1000   43.7260 H   0  0  0  0  0  0  0  0  0  0  0  0
   37.5690   26.5090   42.7680 C   0  0  0  0  0  0  0  0  0  0  0  0
   37.2860   25.2580   42.2250 C   0  0  0  0  0  3  0  0  0  0  0  0
   38.2510   24.2490   42.2760 C   0  0  0  0  0  0  0  0  0  0  0  0
   38.0920   23.2590   41.8720 H   0  0  0  0  0  0  0  0  0  0  0  0
   39.4660   24.4520   42.8440 N   0  0  0  0  0  0  0  0  0  0  0  0
   39.6910   25.6810   43.3570 C   0  0  0  0  0  3  0  0  0  0  0  0
   38.7860   26.6760   43.3260 N   0  0  0  0  0  0  0  0  0  0  0  0
  1  6  1  0  0  0  0
  1 20  1  0  0  0  0
  2  1  2  0  0  0  0
  3  4  2  0  0  0  0
  3  2  1  0  0  0  0
  4  5  1  0  0  0  0
  5 11  1  0  0  0  0
  5  6  2  0  0  0  0
  7  2  1  0  0  0  0
  8  3  1  0  0  0  0
 10  9  1  0  0  0  0
 10 15  1  0  0  0  0
 11 10  2  0  0  0  0
 12 11  1  0  0  0  0
 12 13  2  0  0  0  0
 13 14  1  0  0  0  0
 14 15  2  0  0  0  0
 14 18  1  0  0  0  0
 15 19  1  0  0  0  0
 16 12  1  0  0  0  0
 17 13  1  0  0  0  0
 20 21  2  0  0  0  0
 21 22  1  0  0  0  0
 22 25  1  0  0  0  0
 22 24  1  0  0  0  0
 23 22  1  0  0  0  0
 25 31  1  0  0  0  0
 26 27  1  0  0  0  0
 26 25  2  0  0  0  0
 27 29  2  0  0  0  0
 28 27  1  0  0  0  0
 29 30  1  0  0  0  0
 31 30  2  0  0  0  0
M  END
>  <minimizedAffinity>
-5.25968885

$$$$

 OpenBabel03252506203D

 31 33  0  0  0  0  0  0  0  0999 V2000
   34.9390   28.5520   37.8170 C   0  0  0  0  0  0  0  0  0  0  0  0
   35.8840   29.0350   36.9050 C   0  0  0  0  0  0  0  0  0  0  0  0
   37.1940   29.2150   37.3850 C   0  0  0  0  0  0  0  0  0  0  0  0
   37.4800   28.9230   38.6690 N   0  0  0  0  0  0  0  0  0  0  0  0
   36.5350   28.4580   39.5200 C   0  0  0  0  0  0  0  0  0  0  0  0
   35.2590   28.2710   39.0960 N   0  0  0  0  0  0  0  0  0  0  0  0
   35.6090   29.2560   35.8830 H   0  0  0  0  0  0  0  0  0  0  0  0
   37.9480   29.5920   36.6870 H   0  0  0  0  0  0  0  0  0  0  0  0
   36.5860   30.8480   41.3760 Cl  0  0  0  0  0  0  0  0  0  0  0  0
   36.9730   29.2110   41.8080 C   0  0  0  0  0  0  0  0  0  0  0  0
   36.9250   28.1660   40.8920 C   0  0  0  0  0  0  0  0  0  0  0  0
   37.2300   26.8640   41.2190 C   0  0  0  0  0  0  0  0  0  0  0  0
   37.5960   26.6010   42.5140 C   0  0  0  0  0  0  0  0  0  0  0  0
   37.6750   27.5650   43.4950 C   0  0  0  0  0  0  0  0  0  0  0  0
   37.3530   28.8610   43.0900 C   0  0  0  0  0  0  0  0  0  0  0  0
   37.1670   26.0960   40.4390 H   0  0  0  0  0  0  0  0  0  0  0  0
   37.8430   25.5890   42.8050 H   0  0  0  0  0  0  0  0  0  0  0  0
   37.9590   27.3710   44.5020 H   0  0  0  0  0  0  0  0  0  0  0  0
   37.4100   29.6420   43.8590 H   0  0  0  0  0  0  0  0  0  0  0  0
   33.5490   28.3500   37.3520 C   0  0  0  0  0  3  0  0  0  0  0  0
   33.0530   29.2370   36.5040 C   0  0  0  0  0  3  0  0  0  0  0  0
   31.6600   29.0710   36.0120 C   0  0  0  0  0  0  0  0  0  0  0  0
   31.2770   28.0720   36.2720 H   0  0  0  0  0  0  0  0  0  0  0  0
   31.5790   29.2860   34.9280 H   0  0  0  0  0  0  0  0  0  0  0  0
   30.8280   30.0420   36.7930 C   0  0  0  0  0  0  0  0  0  0  0  0
   30.0580   29.6210   37.8750 C   0  0  0  0  0  3  0  0  0  0  0  0
   29.2940   30.5520   38.5810 C   0  0  0  0  0  0  0  0  0  0  0  0
   28.6760   30.2880   39.4290 H   0  0  0  0  0  0  0  0  0  0  0  0
   29.2770   31.8660   38.2430 N   0  0  0  0  0  0  0  0  0  0  0  0
   30.0390   32.2230   37.1870 C   0  0  0  0  0  3  0  0  0  0  0  0
   30.7890   31.3540   36.4840 N   0  0  0  0  0  0  0  0  0  0  0  0
  1  6  1  0  0  0  0
  2  3  1  0  0  0  0
  2  1  2  0  0  0  0
  3  4  2  0  0  0  0
  4  5  1  0  0  0  0
  5 11  1  0  0  0  0
  6  5  2  0  0  0  0
  7  2  1  0  0  0  0
  8  3  1  0  0  0  0
  9 10  1  0  0  0  0
 10 15  1  0  0  0  0
 11 12  1  0  0  0  0
 11 10  2  0  0  0  0
 12 13  2  0  0  0  0
 13 17  1  0  0  0  0
 13 14  1  0  0  0  0
 14 18  1  0  0  0  0
 15 14  2  0  0  0  0
 15 19  1  0  0  0  0
 16 12  1  0  0  0  0
 20  1  1  0  0  0  0
 21 20  2  0  0  0  0
 22 23  1  0  0  0  0
 22 21  1  0  0  0  0
 22 25  1  0  0  0  0
 24 22  1  0  0  0  0
 25 26  1  0  0  0  0
 26 27  2  0  0  0  0
 27 28  1  0  0  0  0
 29 27  1  0  0  0  0
 30 29  2  0  0  0  0
 31 25  2  0  0  0  0
 31 30  1  0  0  0  0
M  END
>  <minimizedAffinity>
-5.23014116

$$$$

 OpenBabel03252506203D

 31 33  0  0  0  0  0  0  0  0999 V2000
   39.1170   31.7200   39.0350 C   0  0  0  0  0  0  0  0  0  0  0  0
   38.2220   32.7930   38.9840 C   0  0  0  0  0  0  0  0  0  0  0  0
   37.1330   32.7530   39.8730 C   0  0  0  0  0  0  0  0  0  0  0  0
   36.9980   31.7120   40.7170 N   0  0  0  0  0  0  0  0  0  0  0  0
   37.8890   30.6910   40.7350 C   0  0  0  0  0  0  0  0  0  0  0  0
   38.9530   30.6910   39.8920 N   0  0  0  0  0  0  0  0  0  0  0  0
   38.3700   33.6080   38.2880 H   0  0  0  0  0  0  0  0  0  0  0  0
   36.4210   33.5850   39.8480 H   0  0  0  0  0  0  0  0  0  0  0  0
   35.5080   28.9230   40.1280 Cl  0  0  0  0  0  0  0  0  0  0  0  0
   36.5980   28.7450   41.4690 C   0  0  0  0  0  0  0  0  0  0  0  0
   37.6720   29.6030   41.6770 C   0  0  0  0  0  0  0  0  0  0  0  0
   38.5440   29.4750   42.7350 C   0  0  0  0  0  0  0  0  0  0  0  0
   38.3300   28.4470   43.6160 C   0  0  0  0  0  0  0  0  0  0  0  0
   37.2970   27.5440   43.4990 C   0  0  0  0  0  0  0  0  0  0  0  0
   36.4530   27.7370   42.4030 C   0  0  0  0  0  0  0  0  0  0  0  0
   39.3670   30.1930   42.8290 H   0  0  0  0  0  0  0  0  0  0  0  0
   38.9960   28.3180   44.4590 H   0  0  0  0  0  0  0  0  0  0  0  0
   37.1220   26.7430   44.1770 H   0  0  0  0  0  0  0  0  0  0  0  0
   35.6240   27.0260   42.2940 H   0  0  0  0  0  0  0  0  0  0  0  0
   40.2760   31.7220   38.1150 C   0  0  0  0  0  3  0  0  0  0  0  0
   41.1260   32.7330   38.2050 C   0  0  0  0  0  3  0  0  0  0  0  0
   42.3040   32.7750   37.3000 C   0  0  0  0  0  0  0  0  0  0  0  0
   42.1620   33.5370   36.5190 H   0  0  0  0  0  0  0  0  0  0  0  0
   42.5340   31.7750   36.8790 H   0  0  0  0  0  0  0  0  0  0  0  0
   43.4500   33.2570   38.1360 C   0  0  0  0  0  0  0  0  0  0  0  0
   44.7130   33.4520   37.5820 C   0  0  0  0  0  3  0  0  0  0  0  0
   45.7590   33.9020   38.3890 C   0  0  0  0  0  0  0  0  0  0  0  0
   46.7610   34.0720   38.0180 H   0  0  0  0  0  0  0  0  0  0  0  0
   45.5830   34.1580   39.7100 N   0  0  0  0  0  0  0  0  0  0  0  0
   44.3410   33.9540   40.2000 C   0  0  0  0  0  3  0  0  0  0  0  0
   43.3090   33.5210   39.4520 N   0  0  0  0  0  0  0  0  0  0  0  0
  1  6  1  0  0  0  0
  2  1  2  0  0  0  0
  2  3  1  0  0  0  0
  3  4  2  0  0  0  0
  4  5  1  0  0  0  0
  5 11  1  0  0  0  0
  6  5  2  0  0  0  0
  7  2  1  0  0  0  0
  8  3  1  0  0  0  0
  9 10  1  0  0  0  0
 10 11  2  0  0  0  0
 10 15  1  0  0  0  0
 11 12  1  0  0  0  0
 12 16  1  0  0  0  0
 12 13  2  0  0  0  0
 13 17  1  0  0  0  0
 14 13  1  0  0  0  0
 14 18  1  0  0  0  0
 15 14  2  0  0  0  0
 19 15  1  0  0  0  0
 20 21  2  0  0  0  0
 20  1  1  0  0  0  0
 22 25  1  0  0  0  0
 22 21  1  0  0  0  0
 23 22  1  0  0  0  0
 24 22  1  0  0  0  0
 25 31  1  0  0  0  0
 26 25  2  0  0  0  0
 26 27  1  0  0  0  0
 27 29  2  0  0  0  0
 28 27  1  0  0  0  0
 29 30  1  0  0  0  0
 31 30  2  0  0  0  0
M  END
>  <minimizedAffinity>
-5.17349529

$$$$

 OpenBabel03252506203D

 31 33  0  0  0  0  0  0  0  0999 V2000
   35.6310   29.4350   38.8660 C   0  0  0  0  0  0  0  0  0  0  0  0
   35.5670   28.5820   39.9720 C   0  0  0  0  0  0  0  0  0  0  0  0
   36.4180   28.8790   41.0520 C   0  0  0  0  0  0  0  0  0  0  0  0
   37.2390   29.9450   40.9820 N   0  0  0  0  0  0  0  0  0  0  0  0
   37.2700   30.7470   39.8910 C   0  0  0  0  0  0  0  0  0  0  0  0
   36.4650   30.4940   38.8270 N   0  0  0  0  0  0  0  0  0  0  0  0
   34.8930   27.7360   39.9850 H   0  0  0  0  0  0  0  0  0  0  0  0
   36.3820   28.2220   41.9280 H   0  0  0  0  0  0  0  0  0  0  0  0
   40.0830   30.1250   38.9630 Cl  0  0  0  0  0  0  0  0  0  0  0  0
   39.4980   31.6760   39.4800 C   0  0  0  0  0  0  0  0  0  0  0  0
   38.1850   31.8790   39.8930 C   0  0  0  0  0  0  0  0  0  0  0  0
   37.7070   33.1010   40.3060 C   0  0  0  0  0  0  0  0  0  0  0  0
   38.5770   34.1610   40.3040 C   0  0  0  0  0  0  0  0  0  0  0  0
   39.8950   34.0640   39.9140 C   0  0  0  0  0  0  0  0  0  0  0  0
   40.3090   32.7940   39.5090 C   0  0  0  0  0  0  0  0  0  0  0  0
   36.6580   33.1790   40.6160 H   0  0  0  0  0  0  0  0  0  0  0  0
   38.2340   35.1360   40.6230 H   0  0  0  0  0  0  0  0  0  0  0  0
   40.5790   34.8800   39.9090 H   0  0  0  0  0  0  0  0  0  0  0  0
   41.3570   32.6990   39.1950 H   0  0  0  0  0  0  0  0  0  0  0  0
   34.7540   29.1570   37.7080 C   0  0  0  0  0  3  0  0  0  0  0  0
   33.4580   29.0170   37.9430 C   0  0  0  0  0  3  0  0  0  0  0  0
   32.5400   28.7370   36.8070 C   0  0  0  0  0  0  0  0  0  0  0  0
   31.9740   27.8110   36.9900 H   0  0  0  0  0  0  0  0  0  0  0  0
   33.0790   28.7200   35.8390 H   0  0  0  0  0  0  0  0  0  0  0  0
   31.5270   29.8400   36.8150 C   0  0  0  0  0  0  0  0  0  0  0  0
   31.3260   30.6400   35.6920 C   0  0  0  0  0  3  0  0  0  0  0  0
   30.3740   31.6600   35.7320 C   0  0  0  0  0  0  0  0  0  0  0  0
   30.1720   32.3130   34.8940 H   0  0  0  0  0  0  0  0  0  0  0  0
   29.6320   31.9010   36.8420 N   0  0  0  0  0  0  0  0  0  0  0  0
   29.8650   31.1000   37.9040 C   0  0  0  0  0  3  0  0  0  0  0  0
   30.7730   30.1070   37.9010 N   0  0  0  0  0  0  0  0  0  0  0  0
  1  2  1  0  0  0  0
  2  7  1  0  0  0  0
  2  3  2  0  0  0  0
  3  8  1  0  0  0  0
  4  3  1  0  0  0  0
  5 11  1  0  0  0  0
  5  4  2  0  0  0  0
  6  1  2  0  0  0  0
  6  5  1  0  0  0  0
  9 10  1  0  0  0  0
 10 15  2  0  0  0  0
 10 11  1  0  0  0  0
 11 12  2  0  0  0  0
 12 16  1  0  0  0  0
 13 12  1  0  0  0  0
 13 17  1  0  0  0  0
 14 13  2  0  0  0  0
 15 14  1  0  0  0  0
 18 14  1  0  0  0  0
 19 15  1  0  0  0  0
 20 21  2  0  0  0  0
 20  1  1  0  0  0  0
 22 25  1  0  0  0  0
 22 23  1  0  0  0  0
 22 21  1  0  0  0  0
 24 22  1  0  0  0  0
 25 31  1  0  0  0  0
 26 27  1  0  0  0  0
 26 25  2  0  0  0  0
 27 29  2  0  0  0  0
 28 27  1  0  0  0  0
 29 30  1  0  0  0  0
 31 30  2  0  0  0  0
M  END
>  <minimizedAffinity>
-5.12136316

$$$$

 OpenBabel03252506203D

 31 33  0  0  0  0  0  0  0  0999 V2000
   32.0170   29.6340   36.5350 C   0  0  0  0  0  0  0  0  0  0  0  0
   31.0910   29.7380   37.5770 C   0  0  0  0  0  0  0  0  0  0  0  0
   29.8110   30.2180   37.2440 C   0  0  0  0  0  0  0  0  0  0  0  0
   29.5350   30.5490   35.9680 N   0  0  0  0  0  0  0  0  0  0  0  0
   30.4620   30.4330   34.9860 C   0  0  0  0  0  0  0  0  0  0  0  0
   31.7090   29.9750   35.2670 N   0  0  0  0  0  0  0  0  0  0  0  0
   31.3570   29.4610   38.5890 H   0  0  0  0  0  0  0  0  0  0  0  0
   29.0720   30.3060   38.0460 H   0  0  0  0  0  0  0  0  0  0  0  0
   30.1150   28.1260   33.0590 Cl  0  0  0  0  0  0  0  0  0  0  0  0
   29.9050   29.8090   32.6860 C   0  0  0  0  0  0  0  0  0  0  0  0
   30.0840   30.8120   33.6320 C   0  0  0  0  0  0  0  0  0  0  0  0
   29.9220   32.1490   33.3520 C   0  0  0  0  0  0  0  0  0  0  0  0
   29.5660   32.4930   32.0730 C   0  0  0  0  0  0  0  0  0  0  0  0
   29.3650   31.5780   31.0640 C   0  0  0  0  0  0  0  0  0  0  0  0
   29.5480   30.2410   31.4220 C   0  0  0  0  0  0  0  0  0  0  0  0
   30.0810   32.8790   34.1540 H   0  0  0  0  0  0  0  0  0  0  0  0
   29.4310   33.5360   31.8180 H   0  0  0  0  0  0  0  0  0  0  0  0
   29.0900   31.8350   30.0690 H   0  0  0  0  0  0  0  0  0  0  0  0
   29.3920   29.4970   30.6300 H   0  0  0  0  0  0  0  0  0  0  0  0
   33.3750   29.1350   36.8440 C   0  0  0  0  0  3  0  0  0  0  0  0
   33.6760   28.9310   38.1170 C   0  0  0  0  0  3  0  0  0  0  0  0
   35.0300   28.4300   38.4720 C   0  0  0  0  0  0  0  0  0  0  0  0
   35.6060   28.2020   37.5620 H   0  0  0  0  0  0  0  0  0  0  0  0
   34.9790   27.5690   39.1680 H   0  0  0  0  0  0  0  0  0  0  0  0
   35.7370   29.5780   39.1240 C   0  0  0  0  0  0  0  0  0  0  0  0
   36.5740   30.4170   38.3920 C   0  0  0  0  0  3  0  0  0  0  0  0
   37.2190   31.4780   39.0300 C   0  0  0  0  0  0  0  0  0  0  0  0
   37.8800   32.1630   38.5160 H   0  0  0  0  0  0  0  0  0  0  0  0
   37.0550   31.7200   40.3550 N   0  0  0  0  0  0  0  0  0  0  0  0
   36.2340   30.8790   41.0210 C   0  0  0  0  0  3  0  0  0  0  0  0
   35.5960   29.8470   40.4390 N   0  0  0  0  0  0  0  0  0  0  0  0
  1 20  1  0  0  0  0
  1  2  1  0  0  0  0
  2  7  1  0  0  0  0
  3  2  2  0  0  0  0
  3  8  1  0  0  0  0
  4  3  1  0  0  0  0
  5  6  1  0  0  0  0
  5  4  2  0  0  0  0
  6  1  2  0  0  0  0
 10  9  1  0  0  0  0
 10 11  1  0  0  0  0
 11  5  1  0  0  0  0
 12 11  2  0  0  0  0
 12 16  1  0  0  0  0
 13 12  1  0  0  0  0
 14 15  1  0  0  0  0
 14 13  2  0  0  0  0
 15 10  2  0  0  0  0
 17 13  1  0  0  0  0
 18 14  1  0  0  0  0
 19 15  1  0  0  0  0
 20 21  2  0  0  0  0
 21 22  1  0  0  0  0
 22 25  1  0  0  0  0
 22 24  1  0  0  0  0
 23 22  1  0  0  0  0
 25 31  1  0  0  0  0
 26 27  1  0  0  0  0
 26 25  2  0  0  0  0
 27 29  2  0  0  0  0
 28 27  1  0  0  0  0
 29 30  1  0  0  0  0
 31 30  2  0  0  0  0
M  END
>  <minimizedAffinity>
-5.09765291

$$$$

 OpenBabel03252506203D

 31 33  0  0  0  0  0  0  0  0999 V2000
   36.1170   28.7670   39.6140 C   0  0  0  0  0  0  0  0  0  0  0  0
   35.6270   30.0370   39.9360 C   0  0  0  0  0  0  0  0  0  0  0  0
   36.2110   30.6790   41.0430 C   0  0  0  0  0  0  0  0  0  0  0  0
   37.1930   30.0640   41.7300 N   0  0  0  0  0  0  0  0  0  0  0  0
   37.6390   28.8320   41.3850 C   0  0  0  0  0  0  0  0  0  0  0  0
   37.1010   28.1790   40.3230 N   0  0  0  0  0  0  0  0  0  0  0  0
   34.8360   30.4930   39.3560 H   0  0  0  0  0  0  0  0  0  0  0  0
   35.8410   31.6740   41.3120 H   0  0  0  0  0  0  0  0  0  0  0  0
   36.8270   26.4100   43.0060 Cl  0  0  0  0  0  0  0  0  0  0  0  0
   38.4110   27.1180   42.9520 C   0  0  0  0  0  0  0  0  0  0  0  0
   38.7040   28.2360   42.1780 C   0  0  0  0  0  0  0  0  0  0  0  0
   39.9540   28.8090   42.1250 C   0  0  0  0  0  0  0  0  0  0  0  0
   40.9490   28.2390   42.8770 C   0  0  0  0  0  0  0  0  0  0  0  0
   40.7620   27.1330   43.6760 C   0  0  0  0  0  0  0  0  0  0  0  0
   39.4700   26.6060   43.6800 C   0  0  0  0  0  0  0  0  0  0  0  0
   40.1030   29.6900   41.4900 H   0  0  0  0  0  0  0  0  0  0  0  0
   41.9430   28.6650   42.8590 H   0  0  0  0  0  0  0  0  0  0  0  0
   41.5280   26.6830   44.2630 H   0  0  0  0  0  0  0  0  0  0  0  0
   39.3030   25.7240   44.3110 H   0  0  0  0  0  0  0  0  0  0  0  0
   35.5290   28.0570   38.4570 C   0  0  0  0  0  3  0  0  0  0  0  0
   34.3390   28.4540   38.0360 C   0  0  0  0  0  3  0  0  0  0  0  0
   33.7110   27.7680   36.8760 C   0  0  0  0  0  0  0  0  0  0  0  0
   33.1680   26.8700   37.2090 H   0  0  0  0  0  0  0  0  0  0  0  0
   34.4510   27.5460   36.0810 H   0  0  0  0  0  0  0  0  0  0  0  0
   32.6650   28.7070   36.3580 C   0  0  0  0  0  0  0  0  0  0  0  0
   32.0080   29.5920   37.2090 C   0  0  0  0  0  3  0  0  0  0  0  0
   31.0370   30.4530   36.6940 C   0  0  0  0  0  0  0  0  0  0  0  0
   30.4940   31.1630   37.3030 H   0  0  0  0  0  0  0  0  0  0  0  0
   30.7100   30.4540   35.3780 N   0  0  0  0  0  0  0  0  0  0  0  0
   31.3740   29.5780   34.5940 C   0  0  0  0  0  3  0  0  0  0  0  0
   32.3150   28.7340   35.0550 N   0  0  0  0  0  0  0  0  0  0  0  0
  1  2  2  0  0  0  0
  1  6  1  0  0  0  0
  2  3  1  0  0  0  0
  3  8  1  0  0  0  0
  3  4  2  0  0  0  0
  5  4  1  0  0  0  0
  5 11  1  0  0  0  0
  6  5  2  0  0  0  0
  7  2  1  0  0  0  0
 10  9  1  0  0  0  0
 10 15  1  0  0  0  0
 11 10  2  0  0  0  0
 12 11  1  0  0  0  0
 12 13  2  0  0  0  0
 13 14  1  0  0  0  0
 14 15  2  0  0  0  0
 14 18  1  0  0  0  0
 15 19  1  0  0  0  0
 16 12  1  0  0  0  0
 17 13  1  0  0  0  0
 20  1  1  0  0  0  0
 21 20  2  0  0  0  0
 22 23  1  0  0  0  0
 22 21  1  0  0  0  0
 24 22  1  0  0  0  0
 25 22  1  0  0  0  0
 25 26  1  0  0  0  0
 27 26  2  0  0  0  0
 27 28  1  0  0  0  0
 29 27  1  0  0  0  0
 30 31  1  0  0  0  0
 30 29  2  0  0  0  0
 31 25  2  0  0  0  0
M  END
>  <minimizedAffinity>
-5.03107929

$$$$
