
 OpenBabel03252500423D

 26 28  0  0  1  0  0  0  0  0999 V2000
   47.5330   34.1450   41.6070 C   0  0  1  0  0  0  0  0  0  0  0  0
   48.6540   35.0360   41.1080 C   0  0  0  0  0  0  0  0  0  0  0  0
   48.5600   33.5960   40.6740 C   0  0  2  0  0  0  0  0  0  0  0  0
   46.5890   34.3720   41.0830 H   0  0  0  0  0  0  0  0  0  0  0  0
   48.4730   35.8440   40.4000 H   0  0  0  0  0  0  0  0  0  0  0  0
   49.5190   35.2250   41.7900 H   0  0  0  0  0  0  0  0  0  0  0  0
   49.2290   32.8280   41.1100 H   0  0  0  0  0  0  0  0  0  0  0  0
   48.2690   33.4120   39.2390 C   0  0  0  0  0  0  0  0  0  0  0  0
   47.9270   32.1860   38.7010 C   0  0  0  0  0  0  0  0  0  0  0  0
   47.6640   32.0740   37.3460 C   0  0  0  0  0  0  0  0  0  0  0  0
   47.4030   31.0830   37.0030 H   0  0  0  0  0  0  0  0  0  0  0  0
   47.7420   33.1500   36.5800 N   0  0  0  0  0  0  0  0  0  0  0  0
   48.0740   34.3490   37.0850 C   0  0  0  0  0  0  0  0  0  0  0  0
   48.3410   34.4980   38.4160 N   0  0  0  0  0  0  0  0  0  0  0  0
   47.6060   33.7530   43.0440 C   0  0  0  0  0  0  0  0  0  0  0  0
   47.6790   32.6520   43.1800 H   0  0  0  0  0  0  0  0  0  0  0  0
   48.5430   34.1450   43.5390 H   0  0  0  0  0  0  0  0  0  0  0  0
   46.4920   34.3130   43.8410 C   0  0  0  0  0  0  0  0  0  0  0  0
   45.8460   35.3640   43.2260 C   0  0  0  0  0  0  0  0  0  0  0  0
   44.7700   36.0210   43.8610 C   0  0  0  0  0  0  0  0  0  0  0  0
   44.4390   35.5360   45.0940 N   0  0  0  0  0  0  0  0  0  0  0  0
   45.0930   34.4970   45.6750 C   0  0  0  0  0  0  0  0  0  0  0  0
   46.1080   33.8860   45.0640 N   0  0  0  0  0  0  0  0  0  0  0  0
   45.9100   35.9050   42.2930 H   0  0  0  0  0  0  0  0  0  0  0  0
   44.1400   36.8360   43.5850 H   0  0  0  0  0  0  0  0  0  0  0  0
   44.7770   34.1600   46.6610 H   0  0  0  0  0  0  0  0  0  0  0  0
  1  4  1  6  0  0  0
  1 15  1  0  0  0  0
  2  1  1  0  0  0  0
  2  6  1  0  0  0  0
  3  2  1  0  0  0  0
  3  7  1  1  0  0  0
  3  1  1  0  0  0  0
  5  2  1  0  0  0  0
  8  3  1  0  0  0  0
  9  8  1  0  0  0  0
 10  9  2  0  0  0  0
 11 10  1  0  0  0  0
 12 13  2  0  0  0  0
 12 10  1  0  0  0  0
 13 14  1  0  0  0  0
 14  8  2  0  0  0  0
 15 16  1  0  0  0  0
 15 17  1  0  0  0  0
 15 18  1  0  0  0  0
 18 23  1  0  0  0  0
 19 18  2  0  0  0  0
 19 20  1  0  0  0  0
 20 21  2  0  0  0  0
 21 22  1  0  0  0  0
 22 26  1  0  0  0  0
 23 22  2  0  0  0  0
 24 19  1  0  0  0  0
 25 20  1  0  0  0  0
M  END
>  <minimizedAffinity>
-4.54119968

>  <minimizedRMSD>
2.17346191

$$$$
