
 OpenBabel03252509293D

 19 20  0  0  0  0  0  0  0  0999 V2000
   47.1050   34.9710   41.9560 C   0  0  0  0  0  0  0  0  0  0  0  0
   48.0810   34.4980   42.1900 H   0  0  0  0  0  0  0  0  0  0  0  0
   47.3800   36.0300   41.6800 H   0  0  0  0  0  0  0  0  0  0  0  0
   44.5880   36.0050   44.4970 C   0  0  0  0  0  0  0  0  0  0  0  0
   45.3930   36.0010   43.3280 C   0  0  0  0  0  0  0  0  0  0  0  0
   46.2880   34.9540   43.1660 C   0  0  0  0  0  0  0  0  0  0  0  0
   46.3570   33.9850   44.1250 N   0  0  0  0  0  0  0  0  0  0  0  0
   45.5710   34.0310   45.2220 C   0  0  0  0  0  0  0  0  0  0  0  0
   44.6950   35.0310   45.4060 N   0  0  0  0  0  0  0  0  0  0  0  0
   43.9050   36.8420   44.5780 H   0  0  0  0  0  0  0  0  0  0  0  0
   45.2960   36.7870   42.6090 H   0  0  0  0  0  0  0  0  0  0  0  0
   45.7010   33.2050   45.9340 H   0  0  0  0  0  0  0  0  0  0  0  0
   46.5390   34.2570   40.7970 C   0  0  0  0  0  0  0  0  0  0  0  0
   47.3710   33.9200   39.7450 C   0  0  0  0  0  3  0  0  0  0  0  0
   46.9230   33.2450   38.6080 C   0  0  0  0  0  0  0  0  0  0  0  0
   47.5270   32.9670   37.7770 H   0  0  0  0  0  0  0  0  0  0  0  0
   45.6240   32.9110   38.5480 N   0  0  0  0  0  0  0  0  0  0  0  0
   44.8150   33.2350   39.5650 C   0  0  0  0  0  3  0  0  0  0  0  0
   45.2270   33.8950   40.6870 N   0  0  0  0  0  0  0  0  0  0  0  0
  1  2  1  0  0  0  0
  1  6  1  0  0  0  0
  3  1  1  0  0  0  0
  4 10  1  0  0  0  0
  4  9  1  0  0  0  0
  5  4  2  0  0  0  0
  6  5  1  0  0  0  0
  6  7  2  0  0  0  0
  7  8  1  0  0  0  0
  8  9  2  0  0  0  0
  8 12  1  0  0  0  0
 11  5  1  0  0  0  0
 13  1  1  0  0  0  0
 14 13  2  0  0  0  0
 15 14  1  0  0  0  0
 16 15  1  0  0  0  0
 17 15  2  0  0  0  0
 17 18  1  0  0  0  0
 18 19  2  0  0  0  0
 19 13  1  0  0  0  0
M  END
>  <minimizedAffinity>
-3.96651602

>  <minimizedRMSD>
0.355126619

$$$$
