
 OpenBabel03252509163D

 23 25  0  0  0  0  0  0  0  0999 V2000
   45.5460   33.1020   44.3240 C   0  0  0  0  0  0  0  0  0  0  0  0
   45.4060   34.5180   44.3130 C   0  0  0  0  0  0  0  0  0  0  0  0
   44.6880   35.0780   43.3040 C   0  0  0  0  0  0  0  0  0  0  0  0
   44.1140   34.2410   42.3140 C   0  0  0  0  0  0  0  0  0  0  0  0
   44.6190   32.5680   42.8450 S   0  0  0  0  0  0  0  0  0  0  0  0
   45.8600   35.1180   45.0880 H   0  0  0  0  0  0  0  0  0  0  0  0
   44.5100   36.1190   43.1800 H   0  0  0  0  0  0  0  0  0  0  0  0
   47.4380   30.5700   46.2650 C   0  0  0  0  0  0  0  0  0  0  0  0
   47.6260   31.2920   47.4720 C   0  0  0  0  0  0  0  0  0  0  0  0
   47.1070   32.5890   47.5660 C   0  0  0  0  0  0  0  0  0  0  0  0
   46.4420   33.0870   46.4740 N   0  0  0  0  0  0  0  0  0  0  0  0
   46.2880   32.3590   45.3440 C   0  0  0  0  0  0  0  0  0  0  0  0
   46.7850   31.1020   45.2360 N   0  0  0  0  0  0  0  0  0  0  0  0
   47.8460   29.5910   46.2330 H   0  0  0  0  0  0  0  0  0  0  0  0
   48.1480   30.9080   48.3370 H   0  0  0  0  0  0  0  0  0  0  0  0
   47.2050   33.2070   48.4480 H   0  0  0  0  0  0  0  0  0  0  0  0
   43.3490   34.4900   41.1900 C   0  0  0  0  0  0  0  0  0  0  0  0
   43.7380   33.9850   39.9680 C   0  0  0  0  0  3  0  0  0  0  0  0
   42.9250   34.2680   38.8630 C   0  0  0  0  0  0  0  0  0  0  0  0
   43.2210   33.8790   37.9020 H   0  0  0  0  0  0  0  0  0  0  0  0
   41.8030   35.0160   39.0330 N   0  0  0  0  0  0  0  0  0  0  0  0
   41.4530   35.4920   40.2400 C   0  0  0  0  0  3  0  0  0  0  0  0
   42.2340   35.2260   41.3270 N   0  0  0  0  0  0  0  0  0  0  0  0
  1 12  1  0  0  0  0
  2  1  2  0  0  0  0
  2  6  1  0  0  0  0
  3  2  1  0  0  0  0
  4  5  1  0  0  0  0
  4  3  2  0  0  0  0
  5  1  1  0  0  0  0
  7  3  1  0  0  0  0
  8  9  1  0  0  0  0
  9 10  2  0  0  0  0
  9 15  1  0  0  0  0
 10 16  1  0  0  0  0
 11 10  1  0  0  0  0
 12 11  2  0  0  0  0
 13 12  1  0  0  0  0
 13  8  2  0  0  0  0
 14  8  1  0  0  0  0
 17 23  1  0  0  0  0
 17  4  1  0  0  0  0
 18 17  2  0  0  0  0
 19 21  2  0  0  0  0
 19 18  1  0  0  0  0
 20 19  1  0  0  0  0
 21 22  1  0  0  0  0
 22 23  2  0  0  0  0
M  END
>  <minimizedAffinity>
-4.21194839

>  <minimizedRMSD>
8.48208332

$$$$
