
 OpenBabel03252508543D

 41 44  0  0  1  0  0  0  0  0999 V2000
   43.2730   34.4270   40.7100 C   0  0  0  0  0  0  0  0  0  0  0  0
   43.2690   35.5890   40.1830 O   0  0  0  0  0  0  0  0  0  0  0  0
   41.8820   34.0600   40.5090 N   0  0  0  0  0  0  0  0  0  0  0  0
   41.4610   34.0140   39.1280 C   0  0  0  0  0  0  0  0  0  0  0  0
   40.7250   35.3510   38.8940 C   0  0  0  0  0  0  0  0  0  0  0  0
   39.9940   35.6730   40.2100 C   0  0  0  0  0  0  0  0  0  0  0  0
   39.5980   34.4010   40.9290 C   0  0  0  0  0  0  0  0  0  0  0  0
   40.8640   33.7360   41.4900 C   0  0  1  0  0  0  0  0  0  0  0  0
   42.2880   34.0030   38.4000 H   0  0  0  0  0  0  0  0  0  0  0  0
   40.7220   33.2020   38.9460 H   0  0  0  0  0  0  0  0  0  0  0  0
   39.9810   35.2290   38.0640 H   0  0  0  0  0  0  0  0  0  0  0  0
   41.4460   36.1550   38.6840 H   0  0  0  0  0  0  0  0  0  0  0  0
   40.6630   36.3050   40.8340 H   0  0  0  0  0  0  0  0  0  0  0  0
   39.0820   36.2020   39.9040 H   0  0  0  0  0  0  0  0  0  0  0  0
   38.8930   34.6940   41.7280 H   0  0  0  0  0  0  0  0  0  0  0  0
   39.1090   33.7650   40.1780 H   0  0  0  0  0  0  0  0  0  0  0  0
   41.1430   34.2800   42.4140 H   0  0  0  0  0  0  0  0  0  0  0  0
   40.6580   32.2850   41.6770 C   0  0  0  0  0  0  0  0  0  0  0  0
   39.4920   31.5880   41.4600 C   0  0  0  0  0  3  0  0  0  0  0  0
   39.3670   30.2370   41.6540 C   0  0  0  0  0  0  0  0  0  0  0  0
   38.3820   29.7900   41.4460 H   0  0  0  0  0  0  0  0  0  0  0  0
   40.4340   29.5410   42.0810 N   0  0  0  0  0  0  0  0  0  0  0  0
   41.6020   30.2000   42.3050 C   0  0  0  0  0  3  0  0  0  0  0  0
   41.7130   31.5390   42.1090 N   0  0  0  0  0  0  0  0  0  0  0  0
   44.3300   33.7920   41.2790 O   0  0  0  0  0  0  0  0  0  0  0  0
   45.6650   34.0740   41.1140 C   0  0  0  0  0  0  0  0  0  0  0  0
   46.3230   34.6860   42.1840 C   0  0  0  0  0  0  0  0  0  0  0  0
   47.6880   34.9720   42.0080 C   0  0  0  0  0  0  0  0  0  0  0  0
   48.2720   34.6360   40.8140 N   0  0  0  0  0  0  0  0  0  0  0  0
   47.5920   34.0570   39.8350 C   0  0  0  0  0  0  0  0  0  0  0  0
   46.2880   33.7730   39.9790 N   0  0  0  0  0  0  0  0  0  0  0  0
   48.2200   35.4460   42.8260 H   0  0  0  0  0  0  0  0  0  0  0  0
   48.1490   33.8290   38.9240 H   0  0  0  0  0  0  0  0  0  0  0  0
   45.6080   34.9990   43.4070 C   0  0  0  0  0  0  0  0  0  0  0  0
   45.0030   36.2440   43.6230 C   0  0  0  0  0  0  0  0  0  0  0  0
   44.4500   36.1220   44.8750 C   0  0  0  0  0  0  0  0  0  0  0  0
   44.6960   34.9040   45.3770 N   0  0  0  0  0  0  0  0  0  0  0  0
   45.3950   34.2420   44.4780 N   0  0  0  0  0  0  0  0  0  0  0  0
   44.9400   37.1350   43.0100 H   0  0  0  0  0  0  0  0  0  0  0  0
   43.8730   36.8260   45.4820 H   0  0  0  0  0  0  0  0  0  0  0  0
   44.4860   34.3760   46.2520 H   0  0  0  0  0  0  0  0  0  0  0  0
  1 25  1  0  0  0  0
  2  1  2  0  0  0  0
  3  1  1  0  0  0  0
  3  8  1  0  0  0  0
  4  3  1  0  0  0  0
  5  4  1  0  0  0  0
  5  6  1  0  0  0  0
  6 13  1  0  0  0  0
  6  7  1  0  0  0  0
  7  8  1  0  0  0  0
  7 15  1  0  0  0  0
  8 18  1  0  0  0  0
  8 17  1  1  0  0  0
  9  4  1  0  0  0  0
 10  4  1  0  0  0  0
 11  5  1  0  0  0  0
 12  5  1  0  0  0  0
 14  6  1  0  0  0  0
 16  7  1  0  0  0  0
 18 24  1  0  0  0  0
 19 20  1  0  0  0  0
 19 18  2  0  0  0  0
 20 22  2  0  0  0  0
 21 20  1  0  0  0  0
 22 23  1  0  0  0  0
 24 23  2  0  0  0  0
 26 25  1  0  0  0  0
 26 27  1  0  0  0  0
 27 34  1  0  0  0  0
 28 27  2  0  0  0  0
 28 32  1  0  0  0  0
 29 28  1  0  0  0  0
 30 31  1  0  0  0  0
 30 29  2  0  0  0  0
 31 26  2  0  0  0  0
 33 30  1  0  0  0  0
 34 35  1  0  0  0  0
 34 38  2  0  0  0  0
 35 36  2  0  0  0  0
 36 37  1  0  0  0  0
 36 40  1  0  0  0  0
 37 41  1  0  0  0  0
 38 37  1  0  0  0  0
 39 35  1  0  0  0  0
M  END
>  <minimizedAffinity>
-6.69556761

>  <minimizedRMSD>
0.665974915

$$$$
