
 OpenBabel03242517423D

 38 41  0  0  0  0  0  0  0  0999 V2000
   36.0100   30.5140   40.3020 C   0  0  0  0  0  0  0  0  0  0  0  0
   35.3790   31.2660   39.8180 H   0  0  0  0  0  0  0  0  0  0  0  0
   35.6200   30.4090   41.3560 H   0  0  0  0  0  0  0  0  0  0  0  0
   35.8830   29.2310   39.5600 C   0  0  0  0  0  0  0  0  0  0  0  0
   35.2240   29.2050   38.3220 C   0  0  0  0  0  0  0  0  0  0  0  0
   35.1090   28.0580   37.5840 C   0  0  0  0  0  0  0  0  0  0  0  0
   35.6650   26.8690   38.0720 C   0  0  0  0  0  0  0  0  0  0  0  0
   36.3210   26.9010   39.3060 C   0  0  0  0  0  0  0  0  0  0  0  0
   36.4290   28.0800   40.0540 C   0  0  0  0  0  0  0  0  0  0  0  0
   34.8120   30.1680   37.9960 H   0  0  0  0  0  0  0  0  0  0  0  0
   34.5790   28.1920   36.6630 H   0  0  0  0  0  0  0  0  0  0  0  0
   35.5020   26.0500   37.3910 H   0  0  0  0  0  0  0  0  0  0  0  0
   36.6540   25.8960   39.4710 H   0  0  0  0  0  0  0  0  0  0  0  0
   37.1000   27.8670   41.3170 C   0  0  0  0  0  0  0  0  0  0  0  0
   36.4310   27.7880   42.4970 C   0  0  0  0  0  3  0  0  0  0  0  0
   36.9650   27.5680   43.7470 C   0  0  0  0  0  0  0  0  0  0  0  0
   36.4180   27.5070   44.6720 H   0  0  0  0  0  0  0  0  0  0  0  0
   38.3070   27.4110   43.8150 N   0  0  0  0  0  0  0  0  0  0  0  0
   39.0200   27.4780   42.6930 C   0  0  0  0  0  3  0  0  0  0  0  0
   38.3860   27.6950   41.5560 N   0  0  0  0  0  0  0  0  0  0  0  0
   37.7210   32.2910   40.4920 C   0  0  0  0  0  3  0  0  0  0  0  0
   37.4260   31.0070   40.3380 C   0  0  0  0  0  3  0  0  0  0  0  0
   40.1110   31.9880   41.0990 C   0  0  0  0  0  0  0  0  0  0  0  0
   39.0690   32.8030   40.5810 C   0  0  0  0  0  0  0  0  0  0  0  0
   39.4030   34.0700   40.1700 C   0  0  0  0  0  0  0  0  0  0  0  0
   40.7150   34.4820   40.2780 N   0  0  0  0  0  0  0  0  0  0  0  0
   41.6660   33.6780   40.7730 C   0  0  0  0  0  0  0  0  0  0  0  0
   41.3770   32.4380   41.1820 N   0  0  0  0  0  0  0  0  0  0  0  0
   39.9280   30.9910   41.4410 H   0  0  0  0  0  0  0  0  0  0  0  0
   38.6620   34.7320   39.7710 H   0  0  0  0  0  0  0  0  0  0  0  0
   43.0470   34.1200   40.8770 C   0  0  0  0  0  0  0  0  0  0  0  0
   44.0860   33.9310   40.0670 C   0  0  0  0  0  0  0  0  0  0  0  0
   45.3170   34.4460   40.3520 C   0  0  0  0  0  0  0  0  0  0  0  0
   45.3750   35.1870   41.5760 C   0  0  0  0  0  0  0  0  0  0  0  0
   43.6510   35.0930   42.2350 S   0  0  0  0  0  0  0  0  0  0  0  0
   43.9470   33.3520   39.1570 H   0  0  0  0  0  0  0  0  0  0  0  0
   46.2270   34.3600   39.7780 H   0  0  0  0  0  0  0  0  0  0  0  0
   46.2280   35.6760   41.9950 H   0  0  0  0  0  0  0  0  0  0  0  0
  1 22  1  0  0  0  0
  1  3  1  0  0  0  0
  2  1  1  0  0  0  0
  4  9  1  0  0  0  0
  4  1  1  0  0  0  0
  5  4  2  0  0  0  0
  6  7  2  0  0  0  0
  6  5  1  0  0  0  0
  7  8  1  0  0  0  0
  8 13  1  0  0  0  0
  8  9  2  0  0  0  0
  9 14  1  0  0  0  0
 10  5  1  0  0  0  0
 11  6  1  0  0  0  0
 12  7  1  0  0  0  0
 14 20  2  0  0  0  0
 14 15  1  0  0  0  0
 15 16  2  0  0  0  0
 16 18  1  0  0  0  0
 16 17  1  0  0  0  0
 19 18  2  0  0  0  0
 20 19  1  0  0  0  0
 21 24  1  0  0  0  0
 22 21  2  0  0  0  0
 23 28  1  0  0  0  0
 23 29  1  0  0  0  0
 24 23  2  0  0  0  0
 25 26  2  0  0  0  0
 25 24  1  0  0  0  0
 26 27  1  0  0  0  0
 27 31  1  0  0  0  0
 27 28  2  0  0  0  0
 30 25  1  0  0  0  0
 31 35  1  0  0  0  0
 32 33  1  0  0  0  0
 32 31  2  0  0  0  0
 33 34  2  0  0  0  0
 34 38  1  0  0  0  0
 34 35  1  0  0  0  0
 36 32  1  0  0  0  0
 37 33  1  0  0  0  0
M  END
>  <minimizedAffinity>
-6.0356679

$$$$

 OpenBabel03242517423D

 38 41  0  0  0  0  0  0  0  0999 V2000
   36.8960   25.6120   42.3750 C   0  0  0  0  0  0  0  0  0  0  0  0
   35.8470   25.5240   42.6760 H   0  0  0  0  0  0  0  0  0  0  0  0
   37.5060   25.4280   43.3060 H   0  0  0  0  0  0  0  0  0  0  0  0
   37.1870   24.5850   41.3390 C   0  0  0  0  0  0  0  0  0  0  0  0
   36.1290   23.9390   40.6830 C   0  0  0  0  0  0  0  0  0  0  0  0
   36.3420   23.0110   39.7000 C   0  0  0  0  0  0  0  0  0  0  0  0
   37.6530   22.6900   39.3310 C   0  0  0  0  0  0  0  0  0  0  0  0
   38.7050   23.3360   39.9880 C   0  0  0  0  0  0  0  0  0  0  0  0
   38.4740   24.2820   40.9950 C   0  0  0  0  0  0  0  0  0  0  0  0
   35.1270   24.2340   41.0170 H   0  0  0  0  0  0  0  0  0  0  0  0
   35.4390   22.6030   39.2920 H   0  0  0  0  0  0  0  0  0  0  0  0
   37.6730   21.9500   38.5480 H   0  0  0  0  0  0  0  0  0  0  0  0
   39.5960   22.9360   39.5490 H   0  0  0  0  0  0  0  0  0  0  0  0
   39.7040   24.7810   41.5690 C   0  0  0  0  0  0  0  0  0  0  0  0
   40.6390   25.4410   40.8370 C   0  0  0  0  0  3  0  0  0  0  0  0
   41.8280   25.9740   41.2850 C   0  0  0  0  0  0  0  0  0  0  0  0
   42.5570   26.4950   40.6900 H   0  0  0  0  0  0  0  0  0  0  0  0
   42.1000   25.8280   42.6020 N   0  0  0  0  0  0  0  0  0  0  0  0
   41.2230   25.1910   43.3740 C   0  0  0  0  0  3  0  0  0  0  0  0
   40.1180   24.7250   42.8200 N   0  0  0  0  0  0  0  0  0  0  0  0
   37.9910   27.8270   42.4880 C   0  0  0  0  0  3  0  0  0  0  0  0
   37.1510   27.0030   41.8760 C   0  0  0  0  0  3  0  0  0  0  0  0
   39.3160   29.9230   42.6510 C   0  0  0  0  0  0  0  0  0  0  0  0
   38.3040   29.1560   42.0140 C   0  0  0  0  0  0  0  0  0  0  0  0
   37.6590   29.7250   40.9430 C   0  0  0  0  0  0  0  0  0  0  0  0
   38.0230   30.9940   40.5440 N   0  0  0  0  0  0  0  0  0  0  0  0
   38.9850   31.6820   41.1750 C   0  0  0  0  0  0  0  0  0  0  0  0
   39.6330   31.1590   42.2210 N   0  0  0  0  0  0  0  0  0  0  0  0
   39.8600   29.5480   43.4920 H   0  0  0  0  0  0  0  0  0  0  0  0
   36.8870   29.1970   40.4220 H   0  0  0  0  0  0  0  0  0  0  0  0
   39.3640   33.0170   40.7430 C   0  0  0  0  0  0  0  0  0  0  0  0
   38.6300   34.1100   40.5500 C   0  0  0  0  0  0  0  0  0  0  0  0
   39.1930   35.2850   40.1420 C   0  0  0  0  0  0  0  0  0  0  0  0
   40.6100   35.2220   39.9480 C   0  0  0  0  0  0  0  0  0  0  0  0
   41.0390   33.4730   40.3660 S   0  0  0  0  0  0  0  0  0  0  0  0
   37.5580   34.0640   40.7220 H   0  0  0  0  0  0  0  0  0  0  0  0
   38.7060   36.2290   39.9520 H   0  0  0  0  0  0  0  0  0  0  0  0
   41.2550   36.0140   39.6330 H   0  0  0  0  0  0  0  0  0  0  0  0
  1  2  1  0  0  0  0
  1  3  1  0  0  0  0
  4  1  1  0  0  0  0
  5 10  1  0  0  0  0
  5  4  2  0  0  0  0
  6  5  1  0  0  0  0
  7  6  2  0  0  0  0
  7  8  1  0  0  0  0
  8  9  2  0  0  0  0
  9  4  1  0  0  0  0
  9 14  1  0  0  0  0
 11  6  1  0  0  0  0
 12  7  1  0  0  0  0
 13  8  1  0  0  0  0
 14 20  1  0  0  0  0
 15 16  1  0  0  0  0
 15 14  2  0  0  0  0
 16 18  2  0  0  0  0
 17 16  1  0  0  0  0
 18 19  1  0  0  0  0
 20 19  2  0  0  0  0
 22  1  1  0  0  0  0
 22 21  2  0  0  0  0
 23 29  1  0  0  0  0
 24 21  1  0  0  0  0
 24 23  2  0  0  0  0
 25 24  1  0  0  0  0
 26 25  2  0  0  0  0
 26 27  1  0  0  0  0
 27 28  2  0  0  0  0
 28 23  1  0  0  0  0
 30 25  1  0  0  0  0
 31 27  1  0  0  0  0
 32 36  1  0  0  0  0
 32 31  2  0  0  0  0
 33 32  1  0  0  0  0
 34 33  2  0  0  0  0
 34 35  1  0  0  0  0
 35 31  1  0  0  0  0
 37 33  1  0  0  0  0
 38 34  1  0  0  0  0
M  END
>  <minimizedAffinity>
-5.86747408

$$$$

 OpenBabel03242517423D

 38 41  0  0  0  0  0  0  0  0999 V2000
   36.6630   29.2330   41.9020 C   0  0  0  0  0  0  0  0  0  0  0  0
   36.0200   29.6830   41.1390 H   0  0  0  0  0  0  0  0  0  0  0  0
   36.1170   29.3540   42.8820 H   0  0  0  0  0  0  0  0  0  0  0  0
   36.8580   27.7940   41.5790 C   0  0  0  0  0  0  0  0  0  0  0  0
   37.0760   26.8720   42.6130 C   0  0  0  0  0  0  0  0  0  0  0  0
   37.2290   25.5330   42.3710 C   0  0  0  0  0  0  0  0  0  0  0  0
   37.1660   25.0610   41.0550 C   0  0  0  0  0  0  0  0  0  0  0  0
   36.9480   25.9840   40.0280 C   0  0  0  0  0  0  0  0  0  0  0  0
   36.7960   27.3520   40.2870 C   0  0  0  0  0  0  0  0  0  0  0  0
   37.1150   27.3050   43.6190 H   0  0  0  0  0  0  0  0  0  0  0  0
   37.3900   24.9540   43.2580 H   0  0  0  0  0  0  0  0  0  0  0  0
   37.3000   23.9920   41.0140 H   0  0  0  0  0  0  0  0  0  0  0  0
   36.9400   25.4040   39.1280 H   0  0  0  0  0  0  0  0  0  0  0  0
   36.6330   28.1240   39.0750 C   0  0  0  0  0  0  0  0  0  0  0  0
   35.4140   28.4410   38.5670 C   0  0  0  0  0  3  0  0  0  0  0  0
   35.1470   29.1840   37.4390 C   0  0  0  0  0  0  0  0  0  0  0  0
   34.1730   29.4270   37.0510 H   0  0  0  0  0  0  0  0  0  0  0  0
   36.2150   29.6560   36.7550 N   0  0  0  0  0  0  0  0  0  0  0  0
   37.4380   29.3790   37.2020 C   0  0  0  0  0  3  0  0  0  0  0  0
   37.5580   28.6540   38.2980 N   0  0  0  0  0  0  0  0  0  0  0  0
   38.2890   30.8900   41.0490 C   0  0  0  0  0  3  0  0  0  0  0  0
   37.9620   29.9790   41.9560 C   0  0  0  0  0  3  0  0  0  0  0  0
   40.6200   31.2140   41.8470 C   0  0  0  0  0  0  0  0  0  0  0  0
   39.5070   31.6670   41.0910 C   0  0  0  0  0  0  0  0  0  0  0  0
   39.6460   32.8510   40.4080 C   0  0  0  0  0  0  0  0  0  0  0  0
   40.8440   33.5290   40.4880 N   0  0  0  0  0  0  0  0  0  0  0  0
   41.8700   33.0630   41.2140 C   0  0  0  0  0  0  0  0  0  0  0  0
   41.7690   31.9140   41.8920 N   0  0  0  0  0  0  0  0  0  0  0  0
   40.5860   30.3030   42.4070 H   0  0  0  0  0  0  0  0  0  0  0  0
   38.8430   33.2450   39.8200 H   0  0  0  0  0  0  0  0  0  0  0  0
   43.1300   33.7830   41.2880 C   0  0  0  0  0  0  0  0  0  0  0  0
   43.5600   34.7000   42.1520 C   0  0  0  0  0  0  0  0  0  0  0  0
   44.8020   35.2560   42.0440 C   0  0  0  0  0  0  0  0  0  0  0  0
   45.5710   34.7670   40.9410 C   0  0  0  0  0  0  0  0  0  0  0  0
   44.4540   33.5380   40.1300 S   0  0  0  0  0  0  0  0  0  0  0  0
   42.9030   35.0120   42.9610 H   0  0  0  0  0  0  0  0  0  0  0  0
   45.2570   36.0020   42.6780 H   0  0  0  0  0  0  0  0  0  0  0  0
   46.5620   35.0580   40.6660 H   0  0  0  0  0  0  0  0  0  0  0  0
  1 22  1  0  0  0  0
  1  3  1  0  0  0  0
  2  1  1  0  0  0  0
  4  1  1  0  0  0  0
  4  5  1  0  0  0  0
  5 10  1  0  0  0  0
  6  5  2  0  0  0  0
  6 11  1  0  0  0  0
  7  6  1  0  0  0  0
  8  9  1  0  0  0  0
  8  7  2  0  0  0  0
  9  4  2  0  0  0  0
 12  7  1  0  0  0  0
 13  8  1  0  0  0  0
 14  9  1  0  0  0  0
 15 14  1  0  0  0  0
 16 15  2  0  0  0  0
 17 16  1  0  0  0  0
 18 19  2  0  0  0  0
 18 16  1  0  0  0  0
 19 20  1  0  0  0  0
 20 14  2  0  0  0  0
 21 24  1  0  0  0  0
 21 22  2  0  0  0  0
 23 28  1  0  0  0  0
 23 29  1  0  0  0  0
 24 23  2  0  0  0  0
 25 26  2  0  0  0  0
 25 24  1  0  0  0  0
 26 27  1  0  0  0  0
 27 31  1  0  0  0  0
 27 28  2  0  0  0  0
 30 25  1  0  0  0  0
 31 32  2  0  0  0  0
 32 36  1  0  0  0  0
 33 32  1  0  0  0  0
 33 37  1  0  0  0  0
 34 33  2  0  0  0  0
 35 34  1  0  0  0  0
 35 31  1  0  0  0  0
 38 34  1  0  0  0  0
M  END
>  <minimizedAffinity>
-5.50836897

$$$$

 OpenBabel03242517423D

 38 41  0  0  0  0  0  0  0  0999 V2000
   36.9870   28.7680   42.4200 C   0  0  0  0  0  0  0  0  0  0  0  0
   36.1840   29.0920   43.0890 H   0  0  0  0  0  0  0  0  0  0  0  0
   37.4420   27.8520   42.8970 H   0  0  0  0  0  0  0  0  0  0  0  0
   36.4040   28.4390   41.0920 C   0  0  0  0  0  0  0  0  0  0  0  0
   35.5060   29.3310   40.4860 C   0  0  0  0  0  0  0  0  0  0  0  0
   34.9660   29.0910   39.2510 C   0  0  0  0  0  0  0  0  0  0  0  0
   35.3160   27.9230   38.5640 C   0  0  0  0  0  0  0  0  0  0  0  0
   36.2110   27.0380   39.1720 C   0  0  0  0  0  0  0  0  0  0  0  0
   36.7540   27.2920   40.4370 C   0  0  0  0  0  0  0  0  0  0  0  0
   35.2740   30.2260   41.0750 H   0  0  0  0  0  0  0  0  0  0  0  0
   34.2980   29.8600   38.9200 H   0  0  0  0  0  0  0  0  0  0  0  0
   34.8210   27.8660   37.6080 H   0  0  0  0  0  0  0  0  0  0  0  0
   36.3240   26.2320   38.4750 H   0  0  0  0  0  0  0  0  0  0  0  0
   37.6120   26.2190   40.8910 C   0  0  0  0  0  0  0  0  0  0  0  0
   37.1340   25.1240   41.5360 C   0  0  0  0  0  3  0  0  0  0  0  0
   37.8540   24.0400   41.9880 C   0  0  0  0  0  0  0  0  0  0  0  0
   37.4580   23.1790   42.4960 H   0  0  0  0  0  0  0  0  0  0  0  0
   39.1880   24.0640   41.7680 N   0  0  0  0  0  0  0  0  0  0  0  0
   39.7180   25.1110   41.1400 C   0  0  0  0  0  3  0  0  0  0  0  0
   38.9170   26.0870   40.7570 N   0  0  0  0  0  0  0  0  0  0  0  0
   39.3060   29.5830   42.1410 C   0  0  0  0  0  3  0  0  0  0  0  0
   38.0210   29.8510   42.3290 C   0  0  0  0  0  3  0  0  0  0  0  0
   41.5020   30.5450   42.7940 C   0  0  0  0  0  0  0  0  0  0  0  0
   40.3280   30.5960   41.9980 C   0  0  0  0  0  0  0  0  0  0  0  0
   40.2180   31.6270   41.0970 C   0  0  0  0  0  0  0  0  0  0  0  0
   41.2410   32.5480   41.0110 N   0  0  0  0  0  0  0  0  0  0  0  0
   42.3330   32.4610   41.7830 C   0  0  0  0  0  0  0  0  0  0  0  0
   42.4720   31.4700   42.6710 N   0  0  0  0  0  0  0  0  0  0  0  0
   41.6570   29.7740   43.5190 H   0  0  0  0  0  0  0  0  0  0  0  0
   39.3560   31.7190   40.4680 H   0  0  0  0  0  0  0  0  0  0  0  0
   43.4080   33.4340   41.6820 C   0  0  0  0  0  0  0  0  0  0  0  0
   43.6980   34.4930   42.4350 C   0  0  0  0  0  0  0  0  0  0  0  0
   44.7750   35.2860   42.1650 C   0  0  0  0  0  0  0  0  0  0  0  0
   45.5380   34.8770   41.0250 C   0  0  0  0  0  0  0  0  0  0  0  0
   44.6510   33.3730   40.4150 S   0  0  0  0  0  0  0  0  0  0  0  0
   43.0590   34.7280   43.2820 H   0  0  0  0  0  0  0  0  0  0  0  0
   45.1080   36.1640   42.6980 H   0  0  0  0  0  0  0  0  0  0  0  0
   46.4150   35.3440   40.6330 H   0  0  0  0  0  0  0  0  0  0  0  0
  1  3  1  0  0  0  0
  1  2  1  0  0  0  0
  4  1  1  0  0  0  0
  5 10  1  0  0  0  0
  5  4  1  0  0  0  0
  6  5  2  0  0  0  0
  7  8  2  0  0  0  0
  7  6  1  0  0  0  0
  8  9  1  0  0  0  0
  9 14  1  0  0  0  0
  9  4  2  0  0  0  0
 11  6  1  0  0  0  0
 12  7  1  0  0  0  0
 13  8  1  0  0  0  0
 14 15  1  0  0  0  0
 15 16  2  0  0  0  0
 16 17  1  0  0  0  0
 18 16  1  0  0  0  0
 19 18  2  0  0  0  0
 20 14  2  0  0  0  0
 20 19  1  0  0  0  0
 21 22  2  0  0  0  0
 22  1  1  0  0  0  0
 23 29  1  0  0  0  0
 24 21  1  0  0  0  0
 24 23  2  0  0  0  0
 25 24  1  0  0  0  0
 26 25  2  0  0  0  0
 26 27  1  0  0  0  0
 27 28  2  0  0  0  0
 28 23  1  0  0  0  0
 30 25  1  0  0  0  0
 31 27  1  0  0  0  0
 31 32  2  0  0  0  0
 32 36  1  0  0  0  0
 33 32  1  0  0  0  0
 33 37  1  0  0  0  0
 34 33  2  0  0  0  0
 35 34  1  0  0  0  0
 35 31  1  0  0  0  0
 38 34  1  0  0  0  0
M  END
>  <minimizedAffinity>
-5.5022049

$$$$

 OpenBabel03242517423D

 38 41  0  0  0  0  0  0  0  0999 V2000
   37.2880   27.2550   39.7580 C   0  0  0  0  0  0  0  0  0  0  0  0
   38.1380   27.7350   39.2620 H   0  0  0  0  0  0  0  0  0  0  0  0
   37.4600   26.1440   39.6690 H   0  0  0  0  0  0  0  0  0  0  0  0
   37.2640   27.6750   41.1850 C   0  0  0  0  0  0  0  0  0  0  0  0
   36.9380   26.7420   42.1790 C   0  0  0  0  0  0  0  0  0  0  0  0
   36.9330   27.0690   43.5090 C   0  0  0  0  0  0  0  0  0  0  0  0
   37.2640   28.3720   43.8960 C   0  0  0  0  0  0  0  0  0  0  0  0
   37.5880   29.2990   42.9010 C   0  0  0  0  0  0  0  0  0  0  0  0
   37.5860   28.9540   41.5440 C   0  0  0  0  0  0  0  0  0  0  0  0
   36.6890   25.7400   41.8100 H   0  0  0  0  0  0  0  0  0  0  0  0
   36.6630   26.2540   44.1490 H   0  0  0  0  0  0  0  0  0  0  0  0
   37.2210   28.4870   44.9670 H   0  0  0  0  0  0  0  0  0  0  0  0
   37.7980   30.2100   43.4250 H   0  0  0  0  0  0  0  0  0  0  0  0
   37.9000   30.0800   40.6920 C   0  0  0  0  0  0  0  0  0  0  0  0
   37.0120   31.0750   40.4380 C   0  0  0  0  0  3  0  0  0  0  0  0
   37.2130   32.1970   39.6650 C   0  0  0  0  0  0  0  0  0  0  0  0
   36.4970   32.9780   39.4760 H   0  0  0  0  0  0  0  0  0  0  0  0
   38.4310   32.3290   39.0910 N   0  0  0  0  0  0  0  0  0  0  0  0
   39.3460   31.3860   39.3020 C   0  0  0  0  0  3  0  0  0  0  0  0
   39.0270   30.3570   40.0650 N   0  0  0  0  0  0  0  0  0  0  0  0
   36.0250   28.4270   37.9830 C   0  0  0  0  0  3  0  0  0  0  0  0
   36.0240   27.6260   39.0400 C   0  0  0  0  0  3  0  0  0  0  0  0
   34.9190   29.0000   35.8330 C   0  0  0  0  0  0  0  0  0  0  0  0
   34.8380   28.7700   37.2320 C   0  0  0  0  0  0  0  0  0  0  0  0
   33.6020   28.8790   37.8210 C   0  0  0  0  0  0  0  0  0  0  0  0
   32.5160   29.2000   37.0340 N   0  0  0  0  0  0  0  0  0  0  0  0
   32.6380   29.4070   35.7160 C   0  0  0  0  0  0  0  0  0  0  0  0
   33.8260   29.3100   35.1100 N   0  0  0  0  0  0  0  0  0  0  0  0
   35.8470   28.9360   35.3040 H   0  0  0  0  0  0  0  0  0  0  0  0
   33.4780   28.7180   38.8720 H   0  0  0  0  0  0  0  0  0  0  0  0
   31.4850   29.7390   34.8950 C   0  0  0  0  0  0  0  0  0  0  0  0
   31.2980   30.7170   34.0120 C   0  0  0  0  0  0  0  0  0  0  0  0
   30.1210   30.8490   33.3330 C   0  0  0  0  0  0  0  0  0  0  0  0
   29.1390   29.8610   33.6580 C   0  0  0  0  0  0  0  0  0  0  0  0
   29.9760   28.8030   34.9230 S   0  0  0  0  0  0  0  0  0  0  0  0
   32.1030   31.4240   33.8290 H   0  0  0  0  0  0  0  0  0  0  0  0
   29.8540   31.5950   32.6000 H   0  0  0  0  0  0  0  0  0  0  0  0
   28.1540   29.7700   33.2530 H   0  0  0  0  0  0  0  0  0  0  0  0
  1  4  1  0  0  0  0
  2  1  1  0  0  0  0
  3  1  1  0  0  0  0
  4  9  2  0  0  0  0
  4  5  1  0  0  0  0
  5  6  2  0  0  0  0
  6  7  1  0  0  0  0
  6 11  1  0  0  0  0
  7 12  1  0  0  0  0
  8 13  1  0  0  0  0
  8  7  2  0  0  0  0
  9  8  1  0  0  0  0
 10  5  1  0  0  0  0
 14  9  1  0  0  0  0
 15 14  1  0  0  0  0
 16 15  2  0  0  0  0
 17 16  1  0  0  0  0
 18 19  2  0  0  0  0
 18 16  1  0  0  0  0
 19 20  1  0  0  0  0
 20 14  2  0  0  0  0
 21 22  2  0  0  0  0
 22  1  1  0  0  0  0
 23 24  1  0  0  0  0
 24 25  2  0  0  0  0
 24 21  1  0  0  0  0
 25 30  1  0  0  0  0
 26 25  1  0  0  0  0
 27 26  2  0  0  0  0
 28 27  1  0  0  0  0
 28 23  2  0  0  0  0
 29 23  1  0  0  0  0
 31 35  1  0  0  0  0
 31 27  1  0  0  0  0
 32 31  2  0  0  0  0
 33 34  2  0  0  0  0
 33 32  1  0  0  0  0
 34 35  1  0  0  0  0
 36 32  1  0  0  0  0
 37 33  1  0  0  0  0
 38 34  1  0  0  0  0
M  END
>  <minimizedAffinity>
-5.49090815

$$$$

 OpenBabel03242517423D

 38 41  0  0  0  0  0  0  0  0999 V2000
   36.0940   26.3890   39.4070 C   0  0  0  0  0  0  0  0  0  0  0  0
   35.7030   26.2270   38.3970 H   0  0  0  0  0  0  0  0  0  0  0  0
   35.2010   26.6340   40.0520 H   0  0  0  0  0  0  0  0  0  0  0  0
   36.7580   25.1410   39.8710 C   0  0  0  0  0  0  0  0  0  0  0  0
   36.7030   23.9860   39.0760 C   0  0  0  0  0  0  0  0  0  0  0  0
   37.3240   22.8220   39.4430 C   0  0  0  0  0  0  0  0  0  0  0  0
   38.0390   22.7750   40.6450 C   0  0  0  0  0  0  0  0  0  0  0  0
   38.0900   23.9280   41.4330 C   0  0  0  0  0  0  0  0  0  0  0  0
   37.4480   25.1120   41.0500 C   0  0  0  0  0  0  0  0  0  0  0  0
   36.1280   24.0900   38.1490 H   0  0  0  0  0  0  0  0  0  0  0  0
   37.1930   22.0270   38.7370 H   0  0  0  0  0  0  0  0  0  0  0  0
   38.4760   21.8020   40.8040 H   0  0  0  0  0  0  0  0  0  0  0  0
   38.6780   23.6570   42.2870 H   0  0  0  0  0  0  0  0  0  0  0  0
   37.5910   26.1570   42.0390 C   0  0  0  0  0  0  0  0  0  0  0  0
   38.7630   26.8100   42.2500 C   0  0  0  0  0  3  0  0  0  0  0  0
   39.0020   27.8300   43.1450 C   0  0  0  0  0  0  0  0  0  0  0  0
   39.9380   28.3370   43.2980 H   0  0  0  0  0  0  0  0  0  0  0  0
   37.9550   28.2300   43.9020 N   0  0  0  0  0  0  0  0  0  0  0  0
   36.7790   27.6290   43.7430 C   0  0  0  0  0  3  0  0  0  0  0  0
   36.6810   26.6630   42.8490 N   0  0  0  0  0  0  0  0  0  0  0  0
   36.6560   28.7620   38.9910 C   0  0  0  0  0  3  0  0  0  0  0  0
   37.0360   27.5560   39.3910 C   0  0  0  0  0  3  0  0  0  0  0  0
   38.9220   29.7740   38.8790 C   0  0  0  0  0  0  0  0  0  0  0  0
   37.5160   29.9230   39.0060 C   0  0  0  0  0  0  0  0  0  0  0  0
   37.0240   31.1990   39.1330 C   0  0  0  0  0  0  0  0  0  0  0  0
   37.9080   32.2570   39.1270 N   0  0  0  0  0  0  0  0  0  0  0  0
   39.2290   32.0700   39.0030 C   0  0  0  0  0  0  0  0  0  0  0  0
   39.7430   30.8410   38.8790 N   0  0  0  0  0  0  0  0  0  0  0  0
   39.3790   28.8120   38.7790 H   0  0  0  0  0  0  0  0  0  0  0  0
   35.9720   31.3770   39.2330 H   0  0  0  0  0  0  0  0  0  0  0  0
   40.1520   33.1930   38.9940 C   0  0  0  0  0  0  0  0  0  0  0  0
   40.1850   34.2990   39.7330 C   0  0  0  0  0  0  0  0  0  0  0  0
   41.1590   35.2410   39.5650 C   0  0  0  0  0  0  0  0  0  0  0  0
   42.1110   34.9280   38.5430 C   0  0  0  0  0  0  0  0  0  0  0  0
   41.5410   33.2950   37.8910 S   0  0  0  0  0  0  0  0  0  0  0  0
   39.4180   34.4530   40.4870 H   0  0  0  0  0  0  0  0  0  0  0  0
   41.2880   36.1710   40.0980 H   0  0  0  0  0  0  0  0  0  0  0  0
   42.9510   35.5150   38.2410 H   0  0  0  0  0  0  0  0  0  0  0  0
  1  4  1  0  0  0  0
  1  3  1  0  0  0  0
  2  1  1  0  0  0  0
  4  9  1  0  0  0  0
  5  6  1  0  0  0  0
  5  4  2  0  0  0  0
  6  7  2  0  0  0  0
  7 12  1  0  0  0  0
  7  8  1  0  0  0  0
  8 13  1  0  0  0  0
  9  8  2  0  0  0  0
  9 14  1  0  0  0  0
 10  5  1  0  0  0  0
 11  6  1  0  0  0  0
 14 15  2  0  0  0  0
 14 20  1  0  0  0  0
 15 16  1  0  0  0  0
 16 17  1  0  0  0  0
 16 18  2  0  0  0  0
 19 18  1  0  0  0  0
 20 19  2  0  0  0  0
 21 24  1  0  0  0  0
 21 22  2  0  0  0  0
 22  1  1  0  0  0  0
 23 24  1  0  0  0  0
 24 25  2  0  0  0  0
 25 30  1  0  0  0  0
 26 25  1  0  0  0  0
 27 26  2  0  0  0  0
 28 23  2  0  0  0  0
 28 27  1  0  0  0  0
 29 23  1  0  0  0  0
 31 27  1  0  0  0  0
 31 32  2  0  0  0  0
 32 36  1  0  0  0  0
 33 32  1  0  0  0  0
 33 37  1  0  0  0  0
 34 33  2  0  0  0  0
 35 34  1  0  0  0  0
 35 31  1  0  0  0  0
 38 34  1  0  0  0  0
M  END
>  <minimizedAffinity>
-5.44799042

$$$$

 OpenBabel03242517423D

 38 41  0  0  0  0  0  0  0  0999 V2000
   37.4520   28.0610   39.5570 C   0  0  0  0  0  0  0  0  0  0  0  0
   38.1450   28.8590   39.2710 H   0  0  0  0  0  0  0  0  0  0  0  0
   37.8960   27.1030   39.1590 H   0  0  0  0  0  0  0  0  0  0  0  0
   37.3510   28.0220   41.0410 C   0  0  0  0  0  0  0  0  0  0  0  0
   36.9990   26.8250   41.6830 C   0  0  0  0  0  0  0  0  0  0  0  0
   36.9230   26.7280   43.0470 C   0  0  0  0  0  0  0  0  0  0  0  0
   37.2070   27.8510   43.8320 C   0  0  0  0  0  0  0  0  0  0  0  0
   37.5570   29.0410   43.1870 C   0  0  0  0  0  0  0  0  0  0  0  0
   37.6280   29.1300   41.7910 C   0  0  0  0  0  0  0  0  0  0  0  0
   36.7900   25.9840   41.0120 H   0  0  0  0  0  0  0  0  0  0  0  0
   36.6410   25.7540   43.3910 H   0  0  0  0  0  0  0  0  0  0  0  0
   37.1110   27.6310   44.8830 H   0  0  0  0  0  0  0  0  0  0  0  0
   37.7230   29.7470   43.9760 H   0  0  0  0  0  0  0  0  0  0  0  0
   37.9570   30.4650   41.3440 C   0  0  0  0  0  0  0  0  0  0  0  0
   39.1940   31.0050   41.5000 C   0  0  0  0  0  3  0  0  0  0  0  0
   39.6190   32.2500   41.0940 C   0  0  0  0  0  0  0  0  0  0  0  0
   40.6040   32.6620   41.2250 H   0  0  0  0  0  0  0  0  0  0  0  0
   38.7070   33.0280   40.4670 N   0  0  0  0  0  0  0  0  0  0  0  0
   37.4760   32.5560   40.2840 C   0  0  0  0  0  3  0  0  0  0  0  0
   37.1950   31.3430   40.7220 N   0  0  0  0  0  0  0  0  0  0  0  0
   36.0180   28.7120   37.6500 C   0  0  0  0  0  3  0  0  0  0  0  0
   36.1220   28.3050   38.9080 C   0  0  0  0  0  3  0  0  0  0  0  0
   33.5460   28.9600   37.7100 C   0  0  0  0  0  0  0  0  0  0  0  0
   34.7580   28.9120   36.9710 C   0  0  0  0  0  0  0  0  0  0  0  0
   34.6750   29.0710   35.6090 C   0  0  0  0  0  0  0  0  0  0  0  0
   33.4370   29.2680   35.0360 N   0  0  0  0  0  0  0  0  0  0  0  0
   32.3180   29.3080   35.7730 C   0  0  0  0  0  0  0  0  0  0  0  0
   32.3620   29.1560   37.1010 N   0  0  0  0  0  0  0  0  0  0  0  0
   33.5300   28.8420   38.7730 H   0  0  0  0  0  0  0  0  0  0  0  0
   35.5540   29.0440   34.9970 H   0  0  0  0  0  0  0  0  0  0  0  0
   31.0180   29.5210   35.1590 C   0  0  0  0  0  0  0  0  0  0  0  0
   29.8220   29.0170   35.4540 C   0  0  0  0  0  0  0  0  0  0  0  0
   28.7080   29.3590   34.7430 C   0  0  0  0  0  0  0  0  0  0  0  0
   28.9500   30.2870   33.6800 C   0  0  0  0  0  0  0  0  0  0  0  0
   30.7680   30.6060   33.7750 S   0  0  0  0  0  0  0  0  0  0  0  0
   29.7340   28.3160   36.2800 H   0  0  0  0  0  0  0  0  0  0  0  0
   27.6940   29.0180   34.8860 H   0  0  0  0  0  0  0  0  0  0  0  0
   28.2320   30.6910   33.0000 H   0  0  0  0  0  0  0  0  0  0  0  0
  1  4  1  0  0  0  0
  2  1  1  0  0  0  0
  3  1  1  0  0  0  0
  4  5  2  0  0  0  0
  4  9  1  0  0  0  0
  5  6  1  0  0  0  0
  6 11  1  0  0  0  0
  6  7  2  0  0  0  0
  7 12  1  0  0  0  0
  8  7  1  0  0  0  0
  8 13  1  0  0  0  0
  9  8  2  0  0  0  0
 10  5  1  0  0  0  0
 14 15  1  0  0  0  0
 14  9  1  0  0  0  0
 16 17  1  0  0  0  0
 16 15  2  0  0  0  0
 18 16  1  0  0  0  0
 19 18  2  0  0  0  0
 19 20  1  0  0  0  0
 20 14  2  0  0  0  0
 21 22  2  0  0  0  0
 22  1  1  0  0  0  0
 23 29  1  0  0  0  0
 24 21  1  0  0  0  0
 24 23  2  0  0  0  0
 25 24  1  0  0  0  0
 26 25  2  0  0  0  0
 26 27  1  0  0  0  0
 27 28  2  0  0  0  0
 28 23  1  0  0  0  0
 30 25  1  0  0  0  0
 31 32  2  0  0  0  0
 31 27  1  0  0  0  0
 32 36  1  0  0  0  0
 33 37  1  0  0  0  0
 33 32  1  0  0  0  0
 34 35  1  0  0  0  0
 34 33  2  0  0  0  0
 35 31  1  0  0  0  0
 38 34  1  0  0  0  0
M  END
>  <minimizedAffinity>
-5.44318628

$$$$

 OpenBabel03242517423D

 38 41  0  0  0  0  0  0  0  0999 V2000
   36.8790   27.4930   42.1790 C   0  0  0  0  0  0  0  0  0  0  0  0
   35.9730   26.8870   42.2770 H   0  0  0  0  0  0  0  0  0  0  0  0
   36.7390   28.3780   42.8640 H   0  0  0  0  0  0  0  0  0  0  0  0
   38.0510   26.6780   42.5980 C   0  0  0  0  0  0  0  0  0  0  0  0
   38.8780   27.1310   43.6360 C   0  0  0  0  0  0  0  0  0  0  0  0
   39.9490   26.4030   44.0810 C   0  0  0  0  0  0  0  0  0  0  0  0
   40.2340   25.1680   43.4880 C   0  0  0  0  0  0  0  0  0  0  0  0
   39.4060   24.7220   42.4530 C   0  0  0  0  0  0  0  0  0  0  0  0
   38.3150   25.4760   42.0040 C   0  0  0  0  0  0  0  0  0  0  0  0
   38.6010   28.1040   44.0580 H   0  0  0  0  0  0  0  0  0  0  0  0
   40.4870   26.8770   44.8770 H   0  0  0  0  0  0  0  0  0  0  0  0
   41.0990   24.7070   43.9360 H   0  0  0  0  0  0  0  0  0  0  0  0
   39.8130   23.7750   42.1590 H   0  0  0  0  0  0  0  0  0  0  0  0
   37.6340   24.8470   40.8940 C   0  0  0  0  0  0  0  0  0  0  0  0
   36.4780   24.1500   41.0450 C   0  0  0  0  0  3  0  0  0  0  0  0
   35.7400   23.5330   40.0600 C   0  0  0  0  0  0  0  0  0  0  0  0
   34.8240   22.9850   40.1980 H   0  0  0  0  0  0  0  0  0  0  0  0
   36.2130   23.6290   38.7960 N   0  0  0  0  0  0  0  0  0  0  0  0
   37.3430   24.3000   38.5820 C   0  0  0  0  0  3  0  0  0  0  0  0
   37.9570   24.8460   39.6150 N   0  0  0  0  0  0  0  0  0  0  0  0
   35.9730   27.9640   39.9260 C   0  0  0  0  0  3  0  0  0  0  0  0
   37.0020   27.9710   40.7620 C   0  0  0  0  0  3  0  0  0  0  0  0
   37.2890   28.6340   37.9270 C   0  0  0  0  0  0  0  0  0  0  0  0
   36.0340   28.4610   38.5690 C   0  0  0  0  0  0  0  0  0  0  0  0
   34.9070   28.7720   37.8500 C   0  0  0  0  0  0  0  0  0  0  0  0
   35.0480   29.2290   36.5570 N   0  0  0  0  0  0  0  0  0  0  0  0
   36.2530   29.3770   35.9890 C   0  0  0  0  0  0  0  0  0  0  0  0
   37.3710   29.0840   36.6610 N   0  0  0  0  0  0  0  0  0  0  0  0
   38.2100   28.4150   38.4240 H   0  0  0  0  0  0  0  0  0  0  0  0
   33.9320   28.6620   38.2790 H   0  0  0  0  0  0  0  0  0  0  0  0
   36.3900   29.8560   34.6240 C   0  0  0  0  0  0  0  0  0  0  0  0
   36.5220   29.1920   33.4780 C   0  0  0  0  0  0  0  0  0  0  0  0
   36.6310   29.8450   32.2840 C   0  0  0  0  0  0  0  0  0  0  0  0
   36.5900   31.2720   32.3870 C   0  0  0  0  0  0  0  0  0  0  0  0
   36.3980   31.5810   34.1990 S   0  0  0  0  0  0  0  0  0  0  0  0
   36.5430   28.1060   33.4970 H   0  0  0  0  0  0  0  0  0  0  0  0
   36.7420   29.4200   31.2980 H   0  0  0  0  0  0  0  0  0  0  0  0
   36.6570   31.9790   31.5890 H   0  0  0  0  0  0  0  0  0  0  0  0
  1  2  1  0  0  0  0
  1  4  1  0  0  0  0
  1  3  1  0  0  0  0
  4  5  1  0  0  0  0
  5 10  1  0  0  0  0
  5  6  2  0  0  0  0
  6 11  1  0  0  0  0
  7 12  1  0  0  0  0
  7  6  1  0  0  0  0
  8  7  2  0  0  0  0
  9  8  1  0  0  0  0
  9  4  2  0  0  0  0
 13  8  1  0  0  0  0
 14 15  1  0  0  0  0
 14  9  1  0  0  0  0
 16 17  1  0  0  0  0
 16 15  2  0  0  0  0
 18 16  1  0  0  0  0
 19 18  2  0  0  0  0
 19 20  1  0  0  0  0
 20 14  2  0  0  0  0
 21 22  2  0  0  0  0
 22  1  1  0  0  0  0
 23 29  1  0  0  0  0
 23 24  1  0  0  0  0
 24 21  1  0  0  0  0
 25 30  1  0  0  0  0
 25 24  2  0  0  0  0
 26 25  1  0  0  0  0
 27 26  2  0  0  0  0
 27 28  1  0  0  0  0
 28 23  2  0  0  0  0
 31 27  1  0  0  0  0
 32 36  1  0  0  0  0
 32 31  2  0  0  0  0
 33 34  2  0  0  0  0
 33 32  1  0  0  0  0
 34 35  1  0  0  0  0
 35 31  1  0  0  0  0
 37 33  1  0  0  0  0
 38 34  1  0  0  0  0
M  END
>  <minimizedAffinity>
-5.34252787

$$$$

 OpenBabel03242517423D

 38 41  0  0  0  0  0  0  0  0999 V2000
   42.5940   32.5080   42.0270 C   0  0  0  0  0  0  0  0  0  0  0  0
   43.4120   32.4440   42.7510 H   0  0  0  0  0  0  0  0  0  0  0  0
   41.8370   33.2180   42.4710 H   0  0  0  0  0  0  0  0  0  0  0  0
   43.1280   33.0360   40.7430 C   0  0  0  0  0  0  0  0  0  0  0  0
   44.5030   32.9620   40.4780 C   0  0  0  0  0  0  0  0  0  0  0  0
   45.0400   33.4040   39.2990 C   0  0  0  0  0  0  0  0  0  0  0  0
   44.1990   33.9480   38.3220 C   0  0  0  0  0  0  0  0  0  0  0  0
   42.8280   34.0190   38.5910 C   0  0  0  0  0  0  0  0  0  0  0  0
   42.2900   33.5670   39.8020 C   0  0  0  0  0  0  0  0  0  0  0  0
   45.1070   32.5260   41.2830 H   0  0  0  0  0  0  0  0  0  0  0  0
   46.1030   33.2840   39.2410 H   0  0  0  0  0  0  0  0  0  0  0  0
   44.7530   34.2510   37.4490 H   0  0  0  0  0  0  0  0  0  0  0  0
   42.3950   34.4640   37.7180 H   0  0  0  0  0  0  0  0  0  0  0  0
   40.8630   33.7870   39.8840 C   0  0  0  0  0  0  0  0  0  0  0  0
   40.3270   34.9640   40.2970 C   0  0  0  0  0  3  0  0  0  0  0  0
   38.9910   35.2860   40.3910 C   0  0  0  0  0  0  0  0  0  0  0  0
   38.5830   36.2260   40.7190 H   0  0  0  0  0  0  0  0  0  0  0  0
   38.1080   34.3260   40.0310 N   0  0  0  0  0  0  0  0  0  0  0  0
   38.5720   33.1490   39.6160 C   0  0  0  0  0  3  0  0  0  0  0  0
   39.8780   32.9670   39.5730 N   0  0  0  0  0  0  0  0  0  0  0  0
   40.7570   30.8760   42.3140 C   0  0  0  0  0  3  0  0  0  0  0  0
   41.9730   31.1520   41.8640 C   0  0  0  0  0  3  0  0  0  0  0  0
   40.5400   28.7070   41.1220 C   0  0  0  0  0  0  0  0  0  0  0  0
   40.1020   29.6000   42.1350 C   0  0  0  0  0  0  0  0  0  0  0  0
   39.0540   29.1950   42.9250 C   0  0  0  0  0  0  0  0  0  0  0  0
   38.4890   27.9580   42.6990 N   0  0  0  0  0  0  0  0  0  0  0  0
   38.9350   27.1460   41.7300 C   0  0  0  0  0  0  0  0  0  0  0  0
   39.9540   27.5090   40.9420 N   0  0  0  0  0  0  0  0  0  0  0  0
   41.3480   28.9530   40.4660 H   0  0  0  0  0  0  0  0  0  0  0  0
   38.6780   29.8240   43.7060 H   0  0  0  0  0  0  0  0  0  0  0  0
   38.3350   25.8420   41.5030 C   0  0  0  0  0  0  0  0  0  0  0  0
   37.0720   25.4360   41.6010 C   0  0  0  0  0  0  0  0  0  0  0  0
   36.7140   24.1460   41.3330 C   0  0  0  0  0  0  0  0  0  0  0  0
   37.8030   23.3010   40.9480 C   0  0  0  0  0  0  0  0  0  0  0  0
   39.2730   24.4210   40.9980 S   0  0  0  0  0  0  0  0  0  0  0  0
   36.3100   26.1500   41.9030 H   0  0  0  0  0  0  0  0  0  0  0  0
   35.7310   23.7020   41.3780 H   0  0  0  0  0  0  0  0  0  0  0  0
   37.7570   22.2640   40.6930 H   0  0  0  0  0  0  0  0  0  0  0  0
  1  3  1  0  0  0  0
  1  2  1  0  0  0  0
  4  1  1  0  0  0  0
  5  4  1  0  0  0  0
  5 10  1  0  0  0  0
  6  5  2  0  0  0  0
  7  8  2  0  0  0  0
  7  6  1  0  0  0  0
  8  9  1  0  0  0  0
  9 14  1  0  0  0  0
  9  4  2  0  0  0  0
 11  6  1  0  0  0  0
 12  7  1  0  0  0  0
 13  8  1  0  0  0  0
 14 15  1  0  0  0  0
 15 16  2  0  0  0  0
 16 17  1  0  0  0  0
 18 16  1  0  0  0  0
 19 18  2  0  0  0  0
 20 19  1  0  0  0  0
 20 14  2  0  0  0  0
 22  1  1  0  0  0  0
 22 21  2  0  0  0  0
 23 24  1  0  0  0  0
 24 21  1  0  0  0  0
 24 25  2  0  0  0  0
 25 30  1  0  0  0  0
 26 25  1  0  0  0  0
 27 26  2  0  0  0  0
 28 23  2  0  0  0  0
 28 27  1  0  0  0  0
 29 23  1  0  0  0  0
 31 32  2  0  0  0  0
 31 27  1  0  0  0  0
 32 36  1  0  0  0  0
 33 37  1  0  0  0  0
 33 32  1  0  0  0  0
 34 35  1  0  0  0  0
 34 33  2  0  0  0  0
 35 31  1  0  0  0  0
 38 34  1  0  0  0  0
M  END
>  <minimizedAffinity>
-5.26969957

$$$$
