
 OpenBabel03252502343D

 38 40  0  0  1  0  0  0  0  0999 V2000
   46.2360   31.0590   44.1240 C   0  0  2  0  0  0  0  0  0  0  0  0
   45.2930   30.4710   43.0920 C   0  0  0  0  0  0  0  0  0  0  0  0
   45.3660   28.9580   43.3180 C   0  0  0  0  0  0  0  0  0  0  0  0
   44.5870   28.7530   44.5950 C   0  0  0  0  0  0  0  0  0  0  0  0
   45.2630   29.4340   45.7220 C   0  0  0  0  0  0  0  0  0  0  0  0
   45.6850   30.8560   45.4980 C   0  0  1  0  0  0  0  0  0  0  0  0
   47.1990   30.4930   43.9740 H   0  0  0  0  0  0  0  0  0  0  0  0
   44.2640   30.8060   43.3520 H   0  0  0  0  0  0  0  0  0  0  0  0
   45.5740   30.7320   42.0640 H   0  0  0  0  0  0  0  0  0  0  0  0
   46.3930   28.5970   43.3630 H   0  0  0  0  0  0  0  0  0  0  0  0
   44.7760   28.5210   42.4830 H   0  0  0  0  0  0  0  0  0  0  0  0
   43.5510   29.0730   44.4330 H   0  0  0  0  0  0  0  0  0  0  0  0
   44.6160   27.6630   44.7990 H   0  0  0  0  0  0  0  0  0  0  0  0
   46.2070   28.8700   45.9510 H   0  0  0  0  0  0  0  0  0  0  0  0
   44.6500   29.3730   46.6480 H   0  0  0  0  0  0  0  0  0  0  0  0
   44.7590   31.4710   45.5500 H   0  0  0  0  0  0  0  0  0  0  0  0
   47.7500   34.2300   42.8020 C   0  0  0  0  0  0  0  0  0  0  0  0
   47.6360   32.8600   43.1040 C   0  0  0  0  0  0  0  0  0  0  0  0
   46.4550   32.4460   43.7550 C   0  0  0  0  0  0  0  0  0  0  0  0
   45.5120   33.3910   44.0450 N   0  0  0  0  0  0  0  0  0  0  0  0
   45.6640   34.6800   43.7380 C   0  0  0  0  0  0  0  0  0  0  0  0
   46.7850   35.1050   43.1140 N   0  0  0  0  0  0  0  0  0  0  0  0
   48.3980   32.1380   42.8630 H   0  0  0  0  0  0  0  0  0  0  0  0
   49.0090   34.6490   42.1110 C   0  0  0  0  0  0  0  0  0  0  0  0
   49.5830   33.5940   41.4270 F   0  0  0  0  0  0  0  0  0  0  0  0
   48.7020   35.7110   41.2510 F   0  0  0  0  0  0  0  0  0  0  0  0
   49.8980   35.1760   43.0410 F   0  0  0  0  0  0  0  0  0  0  0  0
   44.6040   35.6720   44.0830 C   0  0  0  0  0  0  0  0  0  0  0  0
   43.5210   35.5420   43.2720 F   0  0  0  0  0  0  0  0  0  0  0  0
   45.1320   36.9800   44.0140 F   0  0  0  0  0  0  0  0  0  0  0  0
   44.2220   35.5620   45.4000 F   0  0  0  0  0  0  0  0  0  0  0  0
   46.6360   31.1640   46.5760 C   0  0  0  0  0  0  0  0  0  0  0  0
   46.7360   32.3330   47.3070 C   0  0  0  0  0  0  0  0  0  0  0  0
   47.6810   32.4900   48.3000 C   0  0  0  0  0  0  0  0  0  0  0  0
   47.6780   33.4580   48.8230 H   0  0  0  0  0  0  0  0  0  0  0  0
   48.5460   31.4860   48.5830 N   0  0  0  0  0  0  0  0  0  0  0  0
   48.4430   30.3440   47.8640 C   0  0  0  0  0  0  0  0  0  0  0  0
   47.5160   30.1650   46.8790 N   0  0  0  0  0  0  0  0  0  0  0  0
  1  7  1  6  0  0  0
  1  6  1  0  0  0  0
  2  3  1  0  0  0  0
  2  8  1  0  0  0  0
  2  1  1  0  0  0  0
  3 10  1  0  0  0  0
  3  4  1  0  0  0  0
  4 13  1  0  0  0  0
  4  5  1  0  0  0  0
  5 14  1  0  0  0  0
  5 15  1  0  0  0  0
  6 16  1  1  0  0  0
  6  5  1  0  0  0  0
  6 32  1  0  0  0  0
  9  2  1  0  0  0  0
 11  3  1  0  0  0  0
 12  4  1  0  0  0  0
 17 18  2  0  0  0  0
 17 22  1  0  0  0  0
 18 19  1  0  0  0  0
 19 20  2  0  0  0  0
 19  1  1  0  0  0  0
 21 20  1  0  0  0  0
 21 28  1  0  0  0  0
 22 21  2  0  0  0  0
 23 18  1  0  0  0  0
 24 17  1  0  0  0  0
 24 27  1  0  0  0  0
 25 24  1  0  0  0  0
 26 24  1  0  0  0  0
 28 31  1  0  0  0  0
 29 28  1  0  0  0  0
 30 28  1  0  0  0  0
 32 38  2  0  0  0  0
 32 33  1  0  0  0  0
 33 34  2  0  0  0  0
 34 36  1  0  0  0  0
 34 35  1  0  0  0  0
 37 36  2  0  0  0  0
 38 37  1  0  0  0  0
M  END
>  <minimizedAffinity>
-5.89759493

>  <minimizedRMSD>
2.15799594

$$$$
