
 OpenBabel03252507583D

 25 27  0  0  1  0  0  0  0  0999 V2000
   46.5610   32.4520   46.0340 C   0  0  1  0  0  0  0  0  0  0  0  0
   46.9230   32.7110   47.4550 C   0  0  0  0  0  0  0  0  0  0  0  0
   45.5870   32.1450   47.1310 C   0  0  2  0  0  0  0  0  0  0  0  0
   47.1550   31.7080   45.4980 H   0  0  0  0  0  0  0  0  0  0  0  0
   46.9260   33.7800   47.7760 H   0  0  0  0  0  0  0  0  0  0  0  0
   47.7280   32.1120   47.8740 H   0  0  0  0  0  0  0  0  0  0  0  0
   44.6980   32.7660   47.2680 H   0  0  0  0  0  0  0  0  0  0  0  0
   46.3420   34.7530   43.1870 C   0  0  0  0  0  0  0  0  0  0  0  0
   45.3290   35.6600   43.5690 C   0  0  0  0  0  0  0  0  0  0  0  0
   44.7190   35.4630   44.8200 C   0  0  0  0  0  0  0  0  0  0  0  0
   45.1380   34.4190   45.5830 N   0  0  0  0  0  0  0  0  0  0  0  0
   46.1230   33.5810   45.1510 C   0  0  0  0  0  0  0  0  0  0  0  0
   46.7300   33.7270   43.9750 N   0  0  0  0  0  0  0  0  0  0  0  0
   45.0100   36.4720   42.9650 H   0  0  0  0  0  0  0  0  0  0  0  0
   43.9410   36.1210   45.1670 H   0  0  0  0  0  0  0  0  0  0  0  0
   46.9210   35.0200   41.9050 C   0  0  0  0  0  0  0  0  0  0  0  0
   48.1060   35.4230   41.7020 O   0  0  0  0  0  0  0  0  0  0  0  0
   46.1930   34.8260   41.1150 H   0  0  0  0  0  0  0  0  0  0  0  0
   45.3540   30.6720   47.3090 C   0  0  0  0  0  0  0  0  0  0  0  0
   45.2210   30.1170   48.5740 C   0  0  0  0  0  3  0  0  0  0  0  0
   45.0100   28.7550   48.6350 C   0  0  0  0  0  0  0  0  0  0  0  0
   44.9070   28.3280   49.6270 H   0  0  0  0  0  0  0  0  0  0  0  0
   44.9250   27.9490   47.5620 N   0  0  0  0  0  0  0  0  0  0  0  0
   45.0580   28.5220   46.3510 C   0  0  0  0  0  3  0  0  0  0  0  0
   45.2660   29.8470   46.2450 N   0  0  0  0  0  0  0  0  0  0  0  0
  1  4  1  6  0  0  0
  1  3  1  0  0  0  0
  1  2  1  0  0  0  0
  2  5  1  0  0  0  0
  2  6  1  0  0  0  0
  3  7  1  1  0  0  0
  3 19  1  0  0  0  0
  3  2  1  0  0  0  0
  8  9  2  0  0  0  0
  8 13  1  0  0  0  0
  9 10  1  0  0  0  0
 10 15  1  0  0  0  0
 10 11  2  0  0  0  0
 12 11  1  0  0  0  0
 12  1  1  0  0  0  0
 13 12  2  0  0  0  0
 14  9  1  0  0  0  0
 16  8  1  0  0  0  0
 17 16  2  0  0  0  0
 18 16  1  0  0  0  0
 19 20  1  0  0  0  0
 20 21  2  0  0  0  0
 21 22  1  0  0  0  0
 23 21  1  0  0  0  0
 24 23  2  0  0  0  0
 25 24  1  0  0  0  0
 25 19  2  0  0  0  0
M  END
>  <minimizedAffinity>
-4.4595027

>  <minimizedRMSD>
1.02597272

$$$$
