
 OpenBabel03252509213D

 23 25  0  0  0  0  0  0  0  0999 V2000
   45.5250   33.4210   46.2000 C   0  0  0  0  0  0  0  0  0  0  0  0
   45.9580   33.3440   44.8480 C   0  0  0  0  0  0  0  0  0  0  0  0
   46.9630   32.4300   44.6140 C   0  0  0  0  0  0  0  0  0  0  0  0
   47.4630   31.6840   45.6650 N   0  0  0  0  0  0  0  0  0  0  0  0
   47.0220   31.7950   46.9210 C   0  0  0  0  0  0  0  0  0  0  0  0
   46.0440   32.6780   47.1700 N   0  0  0  0  0  0  0  0  0  0  0  0
   44.7610   34.0650   46.5920 H   0  0  0  0  0  0  0  0  0  0  0  0
   47.5720   31.1060   47.5470 H   0  0  0  0  0  0  0  0  0  0  0  0
   47.4240   32.1760   43.2020 C   0  0  0  0  0  0  0  0  0  0  0  0
   48.6430   33.0450   42.8660 C   0  0  0  0  0  0  0  0  0  0  0  0
   48.6910   31.4930   43.0120 C   0  0  0  0  0  0  0  0  0  0  0  0
   46.6600   32.4100   42.4260 H   0  0  0  0  0  0  0  0  0  0  0  0
   49.1960   33.5470   43.6670 H   0  0  0  0  0  0  0  0  0  0  0  0
   48.8140   33.3740   41.8460 H   0  0  0  0  0  0  0  0  0  0  0  0
   49.2400   31.0680   43.8520 H   0  0  0  0  0  0  0  0  0  0  0  0
   48.7910   30.9110   42.0550 H   0  0  0  0  0  0  0  0  0  0  0  0
   45.3360   34.2080   43.8640 C   0  0  0  0  0  0  0  0  0  0  0  0
   44.5100   33.6420   42.9230 C   0  0  0  0  0  3  0  0  0  0  0  0
   43.8610   34.3340   41.9260 C   0  0  0  0  0  0  0  0  0  0  0  0
   43.2080   33.9460   41.1680 H   0  0  0  0  0  0  0  0  0  0  0  0
   44.0330   35.6840   41.8390 N   0  0  0  0  0  0  0  0  0  0  0  0
   44.8420   36.2280   42.7630 C   0  0  0  0  0  3  0  0  0  0  0  0
   45.4410   35.5200   43.6990 N   0  0  0  0  0  0  0  0  0  0  0  0
  1  7  1  0  0  0  0
  1  6  1  0  0  0  0
  2  1  2  0  0  0  0
  3  2  1  0  0  0  0
  3  4  2  0  0  0  0
  4  5  1  0  0  0  0
  5  6  2  0  0  0  0
  5  8  1  0  0  0  0
  9  3  1  0  0  0  0
 10 11  1  0  0  0  0
 10  9  1  0  0  0  0
 10 13  1  0  0  0  0
 11  9  1  0  0  0  0
 11 15  1  0  0  0  0
 12  9  1  0  0  0  0
 14 10  1  0  0  0  0
 16 11  1  0  0  0  0
 17  2  1  0  0  0  0
 18 17  2  0  0  0  0
 19 18  1  0  0  0  0
 20 19  1  0  0  0  0
 21 19  2  0  0  0  0
 21 22  1  0  0  0  0
 22 23  2  0  0  0  0
 23 17  1  0  0  0  0
M  END
>  <minimizedAffinity>
-3.55184102

>  <minimizedRMSD>
3.18683434

$$$$
