
 OpenBabel03242518583D

 23 25  0  0  1  0  0  0  0  0999 V2000
   36.8060   25.2850   42.3990 C   0  0  1  0  0  0  0  0  0  0  0  0
   36.9610   24.5700   41.0320 C   0  0  0  0  0  0  0  0  0  0  0  0
   37.8480   24.3000   42.2020 C   0  0  1  0  0  0  0  0  0  0  0  0
   35.8650   25.0100   42.9260 H   0  0  0  0  0  0  0  0  0  0  0  0
   37.2980   25.1620   40.1800 H   0  0  0  0  0  0  0  0  0  0  0  0
   36.1720   23.8310   40.7860 H   0  0  0  0  0  0  0  0  0  0  0  0
   37.7750   23.3080   42.7060 H   0  0  0  0  0  0  0  0  0  0  0  0
   37.0430   26.7390   42.3110 C   0  0  0  0  0  0  0  0  0  0  0  0
   37.5130   27.3920   43.4710 C   0  0  0  0  0  0  0  0  0  0  0  0
   37.7610   28.7780   43.4160 C   0  0  0  0  0  0  0  0  0  0  0  0
   37.5270   29.4140   42.2200 N   0  0  0  0  0  0  0  0  0  0  0  0
   37.0750   28.7320   41.1330 C   0  0  0  0  0  0  0  0  0  0  0  0
   36.8390   27.4210   41.1810 N   0  0  0  0  0  0  0  0  0  0  0  0
   37.7040   26.9050   44.4260 H   0  0  0  0  0  0  0  0  0  0  0  0
   38.1190   29.3300   44.2700 H   0  0  0  0  0  0  0  0  0  0  0  0
   36.9140   29.3160   40.2160 H   0  0  0  0  0  0  0  0  0  0  0  0
   39.2650   24.6620   41.9390 C   0  0  0  0  0  0  0  0  0  0  0  0
   40.1580   24.7620   43.0110 C   0  0  0  0  0  3  0  0  0  0  0  0
   41.5000   25.0910   42.8840 C   0  0  0  0  0  0  0  0  0  0  0  0
   42.1420   25.1540   43.7390 H   0  0  0  0  0  0  0  0  0  0  0  0
   41.9430   25.3260   41.6390 N   0  0  0  0  0  0  0  0  0  0  0  0
   41.0800   25.2310   40.5930 C   0  0  0  0  0  3  0  0  0  0  0  0
   39.7840   24.9090   40.7450 N   0  0  0  0  0  0  0  0  0  0  0  0
  1  4  1  1  0  0  0
  2  3  1  0  0  0  0
  2  1  1  0  0  0  0
  3  1  1  0  0  0  0
  3  7  1  1  0  0  0
  5  2  1  0  0  0  0
  6  2  1  0  0  0  0
  8  1  1  0  0  0  0
  8  9  1  0  0  0  0
  9 14  1  0  0  0  0
 10  9  2  0  0  0  0
 10 15  1  0  0  0  0
 11 10  1  0  0  0  0
 12 13  1  0  0  0  0
 12 11  2  0  0  0  0
 13  8  2  0  0  0  0
 16 12  1  0  0  0  0
 17  3  1  0  0  0  0
 17 18  1  0  0  0  0
 19 18  2  0  0  0  0
 19 20  1  0  0  0  0
 21 19  1  0  0  0  0
 22 23  1  0  0  0  0
 22 21  2  0  0  0  0
 23 17  2  0  0  0  0
M  END
>  <minimizedAffinity>
-4.37242746

$$$$

 OpenBabel03242518583D

 23 25  0  0  1  0  0  0  0  0999 V2000
   37.4640   28.5620   42.9650 C   0  0  1  0  0  0  0  0  0  0  0  0
   36.5460   27.5360   43.6760 C   0  0  0  0  0  0  0  0  0  0  0  0
   37.9740   27.2620   43.3420 C   0  0  1  0  0  0  0  0  0  0  0  0
   37.6810   29.4550   43.5920 H   0  0  0  0  0  0  0  0  0  0  0  0
   35.7270   27.0970   43.1030 H   0  0  0  0  0  0  0  0  0  0  0  0
   36.2850   27.7740   44.7270 H   0  0  0  0  0  0  0  0  0  0  0  0
   38.7080   27.1750   44.1780 H   0  0  0  0  0  0  0  0  0  0  0  0
   37.0070   28.8830   41.5980 C   0  0  0  0  0  0  0  0  0  0  0  0
   37.9690   29.3750   40.6900 C   0  0  0  0  0  0  0  0  0  0  0  0
   37.5680   29.6790   39.3740 C   0  0  0  0  0  0  0  0  0  0  0  0
   36.2450   29.4750   39.0550 N   0  0  0  0  0  0  0  0  0  0  0  0
   35.3630   28.9980   39.9720 C   0  0  0  0  0  0  0  0  0  0  0  0
   35.7380   28.7090   41.2180 N   0  0  0  0  0  0  0  0  0  0  0  0
   39.0190   29.5420   40.9250 H   0  0  0  0  0  0  0  0  0  0  0  0
   38.2570   30.0580   38.6380 H   0  0  0  0  0  0  0  0  0  0  0  0
   34.3250   28.8640   39.6350 H   0  0  0  0  0  0  0  0  0  0  0  0
   38.1300   26.1420   42.3780 C   0  0  0  0  0  0  0  0  0  0  0  0
   37.0910   25.2170   42.2260 C   0  0  0  0  0  3  0  0  0  0  0  0
   37.1280   24.1350   41.3580 C   0  0  0  0  0  0  0  0  0  0  0  0
   36.3030   23.4550   41.2790 H   0  0  0  0  0  0  0  0  0  0  0  0
   38.2450   23.9900   40.6300 N   0  0  0  0  0  0  0  0  0  0  0  0
   39.2580   24.8840   40.7730 C   0  0  0  0  0  3  0  0  0  0  0  0
   39.1970   25.9250   41.6220 N   0  0  0  0  0  0  0  0  0  0  0  0
  1  3  1  0  0  0  0
  1  4  1  1  0  0  0
  1  2  1  0  0  0  0
  2  6  1  0  0  0  0
  3  2  1  0  0  0  0
  3  7  1  1  0  0  0
  5  2  1  0  0  0  0
  8  1  1  0  0  0  0
  9 14  1  0  0  0  0
  9  8  2  0  0  0  0
 10  9  1  0  0  0  0
 11 10  2  0  0  0  0
 11 12  1  0  0  0  0
 12 13  2  0  0  0  0
 13  8  1  0  0  0  0
 15 10  1  0  0  0  0
 16 12  1  0  0  0  0
 17  3  1  0  0  0  0
 18 17  1  0  0  0  0
 19 18  2  0  0  0  0
 20 19  1  0  0  0  0
 21 22  2  0  0  0  0
 21 19  1  0  0  0  0
 22 23  1  0  0  0  0
 23 17  2  0  0  0  0
M  END
>  <minimizedAffinity>
-4.26965046

$$$$

 OpenBabel03242518583D

 23 25  0  0  1  0  0  0  0  0999 V2000
   39.6310   24.4580   42.9570 C   0  0  1  0  0  0  0  0  0  0  0  0
   41.0030   25.1490   42.7520 C   0  0  0  0  0  0  0  0  0  0  0  0
   39.9550   25.6700   43.6780 C   0  0  1  0  0  0  0  0  0  0  0  0
   39.7160   23.4680   43.4570 H   0  0  0  0  0  0  0  0  0  0  0  0
   41.2010   25.6170   41.7860 H   0  0  0  0  0  0  0  0  0  0  0  0
   41.8750   24.6200   43.1860 H   0  0  0  0  0  0  0  0  0  0  0  0
   40.1480   25.6280   44.7760 H   0  0  0  0  0  0  0  0  0  0  0  0
   38.8100   24.4450   41.7290 C   0  0  0  0  0  0  0  0  0  0  0  0
   37.4230   24.2360   41.8780 C   0  0  0  0  0  0  0  0  0  0  0  0
   36.6100   24.2300   40.7270 C   0  0  0  0  0  0  0  0  0  0  0  0
   37.2310   24.4310   39.5160 N   0  0  0  0  0  0  0  0  0  0  0  0
   38.5730   24.6290   39.4340 C   0  0  0  0  0  0  0  0  0  0  0  0
   39.3450   24.6350   40.5210 N   0  0  0  0  0  0  0  0  0  0  0  0
   36.9140   24.0750   42.8270 H   0  0  0  0  0  0  0  0  0  0  0  0
   35.5450   24.0740   40.7780 H   0  0  0  0  0  0  0  0  0  0  0  0
   38.9890   24.7820   38.4280 H   0  0  0  0  0  0  0  0  0  0  0  0
   39.4540   27.0100   43.2770 C   0  0  0  0  0  0  0  0  0  0  0  0
   38.1770   27.4150   43.6800 C   0  0  0  0  0  3  0  0  0  0  0  0
   37.6080   28.6410   43.3640 C   0  0  0  0  0  0  0  0  0  0  0  0
   36.6240   28.9010   43.6990 H   0  0  0  0  0  0  0  0  0  0  0  0
   38.3540   29.4730   42.6220 N   0  0  0  0  0  0  0  0  0  0  0  0
   39.5950   29.0860   42.2270 C   0  0  0  0  0  3  0  0  0  0  0  0
   40.1230   27.8920   42.5470 N   0  0  0  0  0  0  0  0  0  0  0  0
  1  4  1  1  0  0  0
  1  3  1  0  0  0  0
  2  1  1  0  0  0  0
  2  6  1  0  0  0  0
  2  3  1  0  0  0  0
  3  7  1  1  0  0  0
  5  2  1  0  0  0  0
  8  9  1  0  0  0  0
  8  1  1  0  0  0  0
  9 14  1  0  0  0  0
 10 15  1  0  0  0  0
 10  9  2  0  0  0  0
 11 10  1  0  0  0  0
 12 11  2  0  0  0  0
 12 13  1  0  0  0  0
 13  8  2  0  0  0  0
 16 12  1  0  0  0  0
 17  3  1  0  0  0  0
 17 18  1  0  0  0  0
 19 18  2  0  0  0  0
 19 20  1  0  0  0  0
 21 19  1  0  0  0  0
 22 23  1  0  0  0  0
 22 21  2  0  0  0  0
 23 17  2  0  0  0  0
M  END
>  <minimizedAffinity>
-4.26070833

$$$$

 OpenBabel03242518583D

 23 25  0  0  1  0  0  0  0  0999 V2000
   36.6580   27.5300   42.1290 C   0  0  1  0  0  0  0  0  0  0  0  0
   36.7240   27.4530   43.6760 C   0  0  0  0  0  0  0  0  0  0  0  0
   37.4620   28.4730   42.8760 C   0  0  1  0  0  0  0  0  0  0  0  0
   35.6530   27.8230   41.7540 H   0  0  0  0  0  0  0  0  0  0  0  0
   37.2310   26.5970   44.1250 H   0  0  0  0  0  0  0  0  0  0  0  0
   35.8040   27.7650   44.2100 H   0  0  0  0  0  0  0  0  0  0  0  0
   37.1420   29.5390   42.9490 H   0  0  0  0  0  0  0  0  0  0  0  0
   37.2200   26.3320   41.4750 C   0  0  0  0  0  0  0  0  0  0  0  0
   36.9110   25.0770   42.0410 C   0  0  0  0  0  0  0  0  0  0  0  0
   37.4220   23.9130   41.4320 C   0  0  0  0  0  0  0  0  0  0  0  0
   38.2010   24.0780   40.3100 N   0  0  0  0  0  0  0  0  0  0  0  0
   38.4640   25.3140   39.8090 C   0  0  0  0  0  0  0  0  0  0  0  0
   37.9820   26.4170   40.3810 N   0  0  0  0  0  0  0  0  0  0  0  0
   36.2970   24.9270   42.9280 H   0  0  0  0  0  0  0  0  0  0  0  0
   37.2200   22.9280   41.8200 H   0  0  0  0  0  0  0  0  0  0  0  0
   39.0950   25.3570   38.9090 H   0  0  0  0  0  0  0  0  0  0  0  0
   38.9360   28.3500   43.0140 C   0  0  0  0  0  0  0  0  0  0  0  0
   39.7610   29.3580   42.5030 C   0  0  0  0  0  3  0  0  0  0  0  0
   41.1470   29.3470   42.5750 C   0  0  0  0  0  0  0  0  0  0  0  0
   41.7320   30.1460   42.1660 H   0  0  0  0  0  0  0  0  0  0  0  0
   41.7060   28.2880   43.1800 N   0  0  0  0  0  0  0  0  0  0  0  0
   40.9110   27.3060   43.6790 C   0  0  0  0  0  3  0  0  0  0  0  0
   39.5700   27.3410   43.5950 N   0  0  0  0  0  0  0  0  0  0  0  0
  1  4  1  6  0  0  0
  1  3  1  0  0  0  0
  1  2  1  0  0  0  0
  2  5  1  0  0  0  0
  2  6  1  0  0  0  0
  3  7  1  1  0  0  0
  3 17  1  0  0  0  0
  3  2  1  0  0  0  0
  8  9  1  0  0  0  0
  8  1  1  0  0  0  0
  9 14  1  0  0  0  0
 10 15  1  0  0  0  0
 10  9  2  0  0  0  0
 11 10  1  0  0  0  0
 12 11  2  0  0  0  0
 12 13  1  0  0  0  0
 13  8  2  0  0  0  0
 16 12  1  0  0  0  0
 17 23  1  0  0  0  0
 18 19  1  0  0  0  0
 18 17  2  0  0  0  0
 19 21  2  0  0  0  0
 20 19  1  0  0  0  0
 21 22  1  0  0  0  0
 23 22  2  0  0  0  0
M  END
>  <minimizedAffinity>
-4.22443295

$$$$

 OpenBabel03242518583D

 23 25  0  0  1  0  0  0  0  0999 V2000
   35.5870   29.9190   39.7070 C   0  0  1  0  0  0  0  0  0  0  0  0
   35.6350   28.4030   39.3880 C   0  0  0  0  0  0  0  0  0  0  0  0
   35.4860   28.9440   40.7710 C   0  0  1  0  0  0  0  0  0  0  0  0
   34.6740   30.4160   39.3120 H   0  0  0  0  0  0  0  0  0  0  0  0
   36.5780   27.9840   39.0330 H   0  0  0  0  0  0  0  0  0  0  0  0
   34.7380   27.9930   38.8830 H   0  0  0  0  0  0  0  0  0  0  0  0
   34.5140   28.7960   41.2980 H   0  0  0  0  0  0  0  0  0  0  0  0
   36.8460   30.6130   39.3660 C   0  0  0  0  0  0  0  0  0  0  0  0
   37.0630   31.8830   39.9400 C   0  0  0  0  0  0  0  0  0  0  0  0
   38.2600   32.5660   39.6440 C   0  0  0  0  0  0  0  0  0  0  0  0
   39.1510   31.9410   38.8020 N   0  0  0  0  0  0  0  0  0  0  0  0
   38.8870   30.7140   38.2790 C   0  0  0  0  0  0  0  0  0  0  0  0
   37.7560   30.0650   38.5570 N   0  0  0  0  0  0  0  0  0  0  0  0
   36.3710   32.3930   40.6080 H   0  0  0  0  0  0  0  0  0  0  0  0
   38.4810   33.5380   40.0520 H   0  0  0  0  0  0  0  0  0  0  0  0
   39.6520   30.2860   37.6150 H   0  0  0  0  0  0  0  0  0  0  0  0
   36.6290   28.5830   41.6510 C   0  0  0  0  0  0  0  0  0  0  0  0
   37.1560   27.2880   41.5950 C   0  0  0  0  0  3  0  0  0  0  0  0
   38.2180   26.8420   42.3680 C   0  0  0  0  0  0  0  0  0  0  0  0
   38.5840   25.8380   42.2860 H   0  0  0  0  0  0  0  0  0  0  0  0
   38.7560   27.7310   43.2170 N   0  0  0  0  0  0  0  0  0  0  0  0
   38.2480   28.9900   43.2760 C   0  0  0  0  0  3  0  0  0  0  0  0
   37.2180   29.3970   42.5150 N   0  0  0  0  0  0  0  0  0  0  0  0
  1  4  1  6  0  0  0
  1  3  1  0  0  0  0
  2  1  1  0  0  0  0
  2  3  1  0  0  0  0
  3  7  1  1  0  0  0
  3 17  1  0  0  0  0
  5  2  1  0  0  0  0
  6  2  1  0  0  0  0
  8  1  1  0  0  0  0
  8  9  1  0  0  0  0
  9 14  1  0  0  0  0
 10  9  2  0  0  0  0
 10 15  1  0  0  0  0
 11 10  1  0  0  0  0
 12 13  1  0  0  0  0
 12 11  2  0  0  0  0
 13  8  2  0  0  0  0
 16 12  1  0  0  0  0
 17 23  1  0  0  0  0
 18 17  2  0  0  0  0
 18 19  1  0  0  0  0
 19 21  2  0  0  0  0
 20 19  1  0  0  0  0
 21 22  1  0  0  0  0
 23 22  2  0  0  0  0
M  END
>  <minimizedAffinity>
-4.22233248

$$$$

 OpenBabel03242518583D

 23 25  0  0  1  0  0  0  0  0999 V2000
   36.1190   28.0910   40.0880 C   0  0  1  0  0  0  0  0  0  0  0  0
   35.0660   29.2100   40.2990 C   0  0  0  0  0  0  0  0  0  0  0  0
   36.0300   29.1980   39.1600 C   0  0  1  0  0  0  0  0  0  0  0  0
   35.6610   27.1090   39.8370 H   0  0  0  0  0  0  0  0  0  0  0  0
   35.1940   29.8780   41.1530 H   0  0  0  0  0  0  0  0  0  0  0  0
   34.0140   28.9190   40.1050 H   0  0  0  0  0  0  0  0  0  0  0  0
   35.6330   29.0280   38.1310 H   0  0  0  0  0  0  0  0  0  0  0  0
   37.1130   28.0310   41.1780 C   0  0  0  0  0  0  0  0  0  0  0  0
   36.6250   27.9130   42.4970 C   0  0  0  0  0  0  0  0  0  0  0  0
   37.5490   27.8410   43.5590 C   0  0  0  0  0  0  0  0  0  0  0  0
   38.8850   27.8920   43.2370 N   0  0  0  0  0  0  0  0  0  0  0  0
   39.2970   28.0060   41.9460 C   0  0  0  0  0  0  0  0  0  0  0  0
   38.4260   28.0740   40.9390 N   0  0  0  0  0  0  0  0  0  0  0  0
   35.5720   27.8710   42.7710 H   0  0  0  0  0  0  0  0  0  0  0  0
   37.2350   27.7500   44.5860 H   0  0  0  0  0  0  0  0  0  0  0  0
   40.3830   28.0400   41.7760 H   0  0  0  0  0  0  0  0  0  0  0  0
   36.9610   30.3560   39.1870 C   0  0  0  0  0  0  0  0  0  0  0  0
   36.7130   31.4150   40.0670 C   0  0  0  0  0  3  0  0  0  0  0  0
   37.5130   32.5430   40.1780 C   0  0  0  0  0  0  0  0  0  0  0  0
   37.2780   33.3270   40.8690 H   0  0  0  0  0  0  0  0  0  0  0  0
   38.5870   32.5960   39.3750 N   0  0  0  0  0  0  0  0  0  0  0  0
   38.8330   31.5710   38.5180 C   0  0  0  0  0  3  0  0  0  0  0  0
   38.0410   30.4880   38.4310 N   0  0  0  0  0  0  0  0  0  0  0  0
  1  4  1  6  0  0  0
  1  2  1  0  0  0  0
  1  8  1  0  0  0  0
  2  5  1  0  0  0  0
  3  7  1  6  0  0  0
  3 17  1  0  0  0  0
  3  1  1  0  0  0  0
  3  2  1  0  0  0  0
  6  2  1  0  0  0  0
  8  9  1  0  0  0  0
  9 14  1  0  0  0  0
  9 10  2  0  0  0  0
 10 15  1  0  0  0  0
 11 10  1  0  0  0  0
 12 11  2  0  0  0  0
 13  8  2  0  0  0  0
 13 12  1  0  0  0  0
 16 12  1  0  0  0  0
 17 18  1  0  0  0  0
 18 19  2  0  0  0  0
 19 20  1  0  0  0  0
 21 19  1  0  0  0  0
 22 21  2  0  0  0  0
 23 22  1  0  0  0  0
 23 17  2  0  0  0  0
M  END
>  <minimizedAffinity>
-4.2067647

$$$$

 OpenBabel03242518583D

 23 25  0  0  1  0  0  0  0  0999 V2000
   37.8390   27.5220   43.4120 C   0  0  1  0  0  0  0  0  0  0  0  0
   38.8270   28.6680   43.0770 C   0  0  0  0  0  0  0  0  0  0  0  0
   37.3590   28.7520   42.8220 C   0  0  1  0  0  0  0  0  0  0  0  0
   37.7370   27.3460   44.5060 H   0  0  0  0  0  0  0  0  0  0  0  0
   39.5420   28.5070   42.2680 H   0  0  0  0  0  0  0  0  0  0  0  0
   39.2430   29.2120   43.9480 H   0  0  0  0  0  0  0  0  0  0  0  0
   36.7530   29.4610   43.4330 H   0  0  0  0  0  0  0  0  0  0  0  0
   38.0990   26.2980   42.6280 C   0  0  0  0  0  0  0  0  0  0  0  0
   36.9950   25.4710   42.3310 C   0  0  0  0  0  0  0  0  0  0  0  0
   37.2080   24.3020   41.5730 C   0  0  0  0  0  0  0  0  0  0  0  0
   38.4950   24.0390   41.1660 N   0  0  0  0  0  0  0  0  0  0  0  0
   39.5200   24.8750   41.4820 C   0  0  0  0  0  0  0  0  0  0  0  0
   39.3230   25.9810   42.1990 N   0  0  0  0  0  0  0  0  0  0  0  0
   35.9700   25.6620   42.6430 H   0  0  0  0  0  0  0  0  0  0  0  0
   36.4040   23.6320   41.3160 H   0  0  0  0  0  0  0  0  0  0  0  0
   40.5180   24.5910   41.1170 H   0  0  0  0  0  0  0  0  0  0  0  0
   37.0370   28.8860   41.3770 C   0  0  0  0  0  0  0  0  0  0  0  0
   35.7030   28.8110   40.9610 C   0  0  0  0  0  3  0  0  0  0  0  0
   35.2880   28.9220   39.6420 C   0  0  0  0  0  0  0  0  0  0  0  0
   34.2520   28.8570   39.3770 H   0  0  0  0  0  0  0  0  0  0  0  0
   36.2490   29.1130   38.7260 N   0  0  0  0  0  0  0  0  0  0  0  0
   37.5470   29.1870   39.1240 C   0  0  0  0  0  3  0  0  0  0  0  0
   37.9220   29.0760   40.4090 N   0  0  0  0  0  0  0  0  0  0  0  0
  1  4  1  1  0  0  0
  2  1  1  0  0  0  0
  2  6  1  0  0  0  0
  3  2  1  0  0  0  0
  3  1  1  0  0  0  0
  3  7  1  1  0  0  0
  5  2  1  0  0  0  0
  8  1  1  0  0  0  0
  9  8  1  0  0  0  0
  9 14  1  0  0  0  0
 10  9  2  0  0  0  0
 11 12  2  0  0  0  0
 11 10  1  0  0  0  0
 12 13  1  0  0  0  0
 13  8  2  0  0  0  0
 15 10  1  0  0  0  0
 16 12  1  0  0  0  0
 17  3  1  0  0  0  0
 18 17  1  0  0  0  0
 19 18  2  0  0  0  0
 20 19  1  0  0  0  0
 21 22  2  0  0  0  0
 21 19  1  0  0  0  0
 22 23  1  0  0  0  0
 23 17  2  0  0  0  0
M  END
>  <minimizedAffinity>
-4.14665222

$$$$

 OpenBabel03242518583D

 23 25  0  0  1  0  0  0  0  0999 V2000
   37.1060   26.5830   42.5700 C   0  0  1  0  0  0  0  0  0  0  0  0
   36.7900   27.6200   43.6790 C   0  0  0  0  0  0  0  0  0  0  0  0
   36.7300   27.9370   42.2220 C   0  0  1  0  0  0  0  0  0  0  0  0
   36.3570   25.7620   42.5200 H   0  0  0  0  0  0  0  0  0  0  0  0
   37.6140   27.9630   44.3070 H   0  0  0  0  0  0  0  0  0  0  0  0
   35.8390   27.4610   44.2250 H   0  0  0  0  0  0  0  0  0  0  0  0
   35.7330   28.1340   41.7620 H   0  0  0  0  0  0  0  0  0  0  0  0
   38.5070   26.1200   42.6050 C   0  0  0  0  0  0  0  0  0  0  0  0
   39.0120   25.4900   41.4470 C   0  0  0  0  0  0  0  0  0  0  0  0
   40.3500   25.0480   41.4450 C   0  0  0  0  0  0  0  0  0  0  0  0
   41.0870   25.2600   42.5870 N   0  0  0  0  0  0  0  0  0  0  0  0
   40.5460   25.8740   43.6730 C   0  0  0  0  0  0  0  0  0  0  0  0
   39.2810   26.2940   43.6790 N   0  0  0  0  0  0  0  0  0  0  0  0
   38.4450   25.3140   40.5360 H   0  0  0  0  0  0  0  0  0  0  0  0
   40.7910   24.5600   40.5910 H   0  0  0  0  0  0  0  0  0  0  0  0
   41.2040   26.0050   44.5440 H   0  0  0  0  0  0  0  0  0  0  0  0
   37.7150   28.9740   41.8220 C   0  0  0  0  0  0  0  0  0  0  0  0
   37.9080   29.2520   40.4640 C   0  0  0  0  0  3  0  0  0  0  0  0
   38.7990   30.1970   39.9770 C   0  0  0  0  0  0  0  0  0  0  0  0
   38.9070   30.3710   38.9250 H   0  0  0  0  0  0  0  0  0  0  0  0
   39.5100   30.8750   40.8900 N   0  0  0  0  0  0  0  0  0  0  0  0
   39.3280   30.6100   42.2110 C   0  0  0  0  0  3  0  0  0  0  0  0
   38.4580   29.6880   42.6560 N   0  0  0  0  0  0  0  0  0  0  0  0
  1  4  1  6  0  0  0
  1  8  1  0  0  0  0
  1  2  1  0  0  0  0
  2  6  1  0  0  0  0
  2  5  1  0  0  0  0
  3  7  1  6  0  0  0
  3  1  1  0  0  0  0
  3  2  1  0  0  0  0
  8 13  1  0  0  0  0
  9  8  2  0  0  0  0
 10  9  1  0  0  0  0
 10 11  2  0  0  0  0
 11 12  1  0  0  0  0
 12 13  2  0  0  0  0
 12 16  1  0  0  0  0
 14  9  1  0  0  0  0
 15 10  1  0  0  0  0
 17  3  1  0  0  0  0
 17 23  1  0  0  0  0
 18 17  2  0  0  0  0
 19 18  1  0  0  0  0
 19 21  2  0  0  0  0
 20 19  1  0  0  0  0
 21 22  1  0  0  0  0
 22 23  2  0  0  0  0
M  END
>  <minimizedAffinity>
-4.14303589

$$$$

 OpenBabel03242518583D

 23 25  0  0  1  0  0  0  0  0999 V2000
   37.0370   26.8410   42.7100 C   0  0  1  0  0  0  0  0  0  0  0  0
   38.1080   27.4030   43.6800 C   0  0  0  0  0  0  0  0  0  0  0  0
   36.9530   28.2060   43.1810 C   0  0  1  0  0  0  0  0  0  0  0  0
   36.4090   26.0470   43.1720 H   0  0  0  0  0  0  0  0  0  0  0  0
   39.1190   27.5500   43.2960 H   0  0  0  0  0  0  0  0  0  0  0  0
   38.0690   27.0090   44.7150 H   0  0  0  0  0  0  0  0  0  0  0  0
   36.1550   28.4950   43.9050 H   0  0  0  0  0  0  0  0  0  0  0  0
   37.5970   26.4750   41.3930 C   0  0  0  0  0  0  0  0  0  0  0  0
   36.7460   26.5840   40.2730 C   0  0  0  0  0  0  0  0  0  0  0  0
   37.2540   26.2540   39.0000 C   0  0  0  0  0  0  0  0  0  0  0  0
   38.5640   25.8420   38.9310 N   0  0  0  0  0  0  0  0  0  0  0  0
   39.3380   25.7590   40.0460 C   0  0  0  0  0  0  0  0  0  0  0  0
   38.8610   26.0690   41.2520 N   0  0  0  0  0  0  0  0  0  0  0  0
   35.7070   26.9070   40.3080 H   0  0  0  0  0  0  0  0  0  0  0  0
   36.6510   26.3170   38.1090 H   0  0  0  0  0  0  0  0  0  0  0  0
   40.3750   25.4210   39.9030 H   0  0  0  0  0  0  0  0  0  0  0  0
   37.3790   29.3730   42.3660 C   0  0  0  0  0  0  0  0  0  0  0  0
   38.6890   29.8520   42.4830 C   0  0  0  0  0  3  0  0  0  0  0  0
   39.1940   30.9310   41.7730 C   0  0  0  0  0  0  0  0  0  0  0  0
   40.2060   31.2570   41.9000 H   0  0  0  0  0  0  0  0  0  0  0  0
   38.3490   31.5380   40.9250 N   0  0  0  0  0  0  0  0  0  0  0  0
   37.0760   31.0780   40.8070 C   0  0  0  0  0  3  0  0  0  0  0  0
   36.6110   30.0290   41.5070 N   0  0  0  0  0  0  0  0  0  0  0  0
  1  4  1  1  0  0  0
  1  3  1  0  0  0  0
  1  2  1  0  0  0  0
  2  6  1  0  0  0  0
  3  2  1  0  0  0  0
  3  7  1  1  0  0  0
  5  2  1  0  0  0  0
  8  1  1  0  0  0  0
  9 14  1  0  0  0  0
  9  8  2  0  0  0  0
 10  9  1  0  0  0  0
 11 10  2  0  0  0  0
 11 12  1  0  0  0  0
 12 13  2  0  0  0  0
 13  8  1  0  0  0  0
 15 10  1  0  0  0  0
 16 12  1  0  0  0  0
 17 18  1  0  0  0  0
 17  3  1  0  0  0  0
 19 20  1  0  0  0  0
 19 18  2  0  0  0  0
 21 19  1  0  0  0  0
 22 21  2  0  0  0  0
 22 23  1  0  0  0  0
 23 17  2  0  0  0  0
M  END
>  <minimizedAffinity>
-4.14228868

$$$$
