
 OpenBabel03252506213D

 33 35  0  0  0  0  0  0  0  0999 V2000
   44.7260   35.1440   42.1030 C   0  0  0  0  0  0  0  0  0  0  0  0
   43.5630   35.2630   41.3280 C   0  0  0  0  0  0  0  0  0  0  0  0
   43.5180   34.5400   40.1290 C   0  0  0  0  0  0  0  0  0  0  0  0
   44.5780   33.7700   39.7740 N   0  0  0  0  0  0  0  0  0  0  0  0
   45.6810   33.6860   40.5570 C   0  0  0  0  0  0  0  0  0  0  0  0
   45.7490   34.3750   41.7200 N   0  0  0  0  0  0  0  0  0  0  0  0
   42.7120   35.8750   41.6040 H   0  0  0  0  0  0  0  0  0  0  0  0
   42.6480   34.5950   39.4930 H   0  0  0  0  0  0  0  0  0  0  0  0
   48.3380   35.0980   40.2370 Cl  0  0  0  0  0  0  0  0  0  0  0  0
   48.0310   33.4150   39.9290 C   0  0  0  0  0  0  0  0  0  0  0  0
   46.7810   32.8340   40.1000 C   0  0  0  0  0  0  0  0  0  0  0  0
   46.5240   31.5180   39.8660 C   0  0  0  0  0  0  0  0  0  0  0  0
   47.5770   30.7480   39.4380 C   0  0  0  0  0  0  0  0  0  0  0  0
   48.8500   31.2020   39.2310 C   0  0  0  0  0  0  0  0  0  0  0  0
   49.0320   32.5680   39.4950 C   0  0  0  0  0  0  0  0  0  0  0  0
   45.5710   31.0420   39.9900 H   0  0  0  0  0  0  0  0  0  0  0  0
   47.4750   29.6720   39.2190 H   0  0  0  0  0  0  0  0  0  0  0  0
   49.6830   30.6290   38.9010 H   0  0  0  0  0  0  0  0  0  0  0  0
   50.0080   33.0350   39.3650 H   0  0  0  0  0  0  0  0  0  0  0  0
   44.8000   35.8910   43.3630 C   0  0  0  0  0  0  0  0  0  0  0  0
   45.0810   37.1840   43.3180 C   0  0  0  0  0  0  0  0  0  0  0  0
   45.1490   37.9150   44.6210 C   0  0  0  0  0  0  0  0  0  0  0  0
   44.3610   37.6320   45.3150 H   0  0  0  0  0  0  0  0  0  0  0  0
   46.1590   37.6630   45.0320 H   0  0  0  0  0  0  0  0  0  0  0  0
   45.1800   39.3370   44.2890 N   0  0  0  0  0  0  0  0  0  0  0  0
   45.4210   39.6960   43.3250 H   0  0  0  0  0  0  0  0  0  0  0  0
   44.8870   40.3530   45.2380 C   0  0  0  0  0  0  0  0  0  0  0  0
   44.9640   40.2410   46.6080 C   0  0  0  0  0  0  0  0  0  0  0  0
   44.6290   41.3800   47.3490 C   0  0  0  0  0  0  0  0  0  0  0  0
   44.6920   41.2850   48.4260 H   0  0  0  0  0  0  0  0  0  0  0  0
   44.2580   42.5030   46.6960 N   0  0  0  0  0  0  0  0  0  0  0  0
   44.1840   42.6090   45.3680 C   0  0  0  0  0  0  0  0  0  0  0  0
   44.5040   41.5200   44.6590 N   0  0  0  0  0  0  0  0  0  0  0  0
  1 20  1  0  0  0  0
  2  7  1  0  0  0  0
  2  1  2  0  0  0  0
  3  2  1  0  0  0  0
  4  3  2  0  0  0  0
  4  5  1  0  0  0  0
  5  6  2  0  0  0  0
  6  1  1  0  0  0  0
  8  3  1  0  0  0  0
 10 11  1  0  0  0  0
 10  9  1  0  0  0  0
 11  5  1  0  0  0  0
 12 16  1  0  0  0  0
 12 11  2  0  0  0  0
 13 12  1  0  0  0  0
 14 13  2  0  0  0  0
 14 15  1  0  0  0  0
 15 10  2  0  0  0  0
 17 13  1  0  0  0  0
 18 14  1  0  0  0  0
 19 15  1  0  0  0  0
 21 20  2  0  0  0  0
 21 22  1  0  0  0  0
 22 24  1  0  0  0  0
 22 23  1  0  0  0  0
 25 22  1  0  0  0  0
 25 27  1  0  0  0  0
 26 25  1  0  0  0  0
 27 28  1  0  0  0  0
 28 29  2  0  0  0  0
 29 30  1  0  0  0  0
 31 29  1  0  0  0  0
 32 31  2  0  0  0  0
 33 27  2  0  0  0  0
 33 32  1  0  0  0  0
M  END
>  <minimizedAffinity>
-3.87022924

>  <minimizedRMSD>
1.97504449

$$$$
