
 OpenBabel03252509213D

 23 25  0  0  0  0  0  0  0  0999 V2000
   45.2340   36.0570   43.0910 C   0  0  0  0  0  0  0  0  0  0  0  0
   45.7500   34.7490   42.8820 C   0  0  0  0  0  0  0  0  0  0  0  0
   45.6500   33.9070   43.9690 C   0  0  0  0  0  0  0  0  0  0  0  0
   45.0810   34.3720   45.1400 N   0  0  0  0  0  0  0  0  0  0  0  0
   44.6100   35.6140   45.2860 C   0  0  0  0  0  0  0  0  0  0  0  0
   44.6970   36.4480   44.2400 N   0  0  0  0  0  0  0  0  0  0  0  0
   45.2170   36.8600   42.3790 H   0  0  0  0  0  0  0  0  0  0  0  0
   44.2190   35.7240   46.2880 H   0  0  0  0  0  0  0  0  0  0  0  0
   46.0580   32.4620   43.8320 C   0  0  0  0  0  0  0  0  0  0  0  0
   47.4270   32.2230   44.4830 C   0  0  0  0  0  0  0  0  0  0  0  0
   46.0870   31.6470   45.0330 C   0  0  0  0  0  0  0  0  0  0  0  0
   46.1560   32.1170   42.7780 H   0  0  0  0  0  0  0  0  0  0  0  0
   47.8550   32.9750   45.1540 H   0  0  0  0  0  0  0  0  0  0  0  0
   48.0870   31.4520   44.0970 H   0  0  0  0  0  0  0  0  0  0  0  0
   45.7140   32.0230   45.9850 H   0  0  0  0  0  0  0  0  0  0  0  0
   45.9230   30.5450   44.8770 H   0  0  0  0  0  0  0  0  0  0  0  0
   46.3290   34.4230   41.5930 C   0  0  0  0  0  0  0  0  0  0  0  0
   45.5490   33.7660   40.6730 C   0  0  0  0  0  3  0  0  0  0  0  0
   45.9620   33.3850   39.4160 C   0  0  0  0  0  0  0  0  0  0  0  0
   45.4000   32.8730   38.6600 H   0  0  0  0  0  0  0  0  0  0  0  0
   47.2400   33.6660   39.0290 N   0  0  0  0  0  0  0  0  0  0  0  0
   47.9950   34.3070   39.9360 C   0  0  0  0  0  3  0  0  0  0  0  0
   47.5490   34.6510   41.1270 N   0  0  0  0  0  0  0  0  0  0  0  0
  1  6  1  0  0  0  0
  2  1  2  0  0  0  0
  2  3  1  0  0  0  0
  3  4  2  0  0  0  0
  4  5  1  0  0  0  0
  5  8  1  0  0  0  0
  6  5  2  0  0  0  0
  7  1  1  0  0  0  0
  9  3  1  0  0  0  0
  9 10  1  0  0  0  0
  9 11  1  0  0  0  0
 10 11  1  0  0  0  0
 10 13  1  0  0  0  0
 11 15  1  0  0  0  0
 12  9  1  0  0  0  0
 14 10  1  0  0  0  0
 16 11  1  0  0  0  0
 17  2  1  0  0  0  0
 18 17  2  0  0  0  0
 19 18  1  0  0  0  0
 20 19  1  0  0  0  0
 21 19  2  0  0  0  0
 21 22  1  0  0  0  0
 22 23  2  0  0  0  0
 23 17  1  0  0  0  0
M  END
>  <minimizedAffinity>
-4.22556734

>  <minimizedRMSD>
3.57950234

$$$$
