
 OpenBabel03242518333D

 26 28  0  0  0  0  0  0  0  0999 V2000
   36.6620   28.6930   41.0740 C   0  0  0  0  0  0  0  0  0  0  0  0
   35.6010   29.4780   40.6690 C   0  0  0  0  0  0  0  0  0  0  0  0
   36.0810   30.7530   40.4440 C   0  0  0  0  0  0  0  0  0  0  0  0
   37.4370   30.6940   40.7250 C   0  0  0  0  0  0  0  0  0  0  0  0
   37.7350   29.4630   41.0910 O   0  0  0  0  0  0  0  0  0  0  0  0
   34.6210   29.0600   40.5820 H   0  0  0  0  0  0  0  0  0  0  0  0
   35.4800   31.5860   40.1190 H   0  0  0  0  0  0  0  0  0  0  0  0
   38.3480   31.8300   40.6190 C   0  0  0  0  0  0  0  0  0  0  0  0
   39.7220   31.6690   40.7850 C   0  0  0  0  0  3  0  0  0  0  0  0
   40.4840   32.8130   40.6620 C   0  0  0  0  0  0  0  0  0  0  0  0
   41.5570   32.6150   40.8040 H   0  0  0  0  0  0  0  0  0  0  0  0
   39.9890   34.0360   40.3990 N   0  0  0  0  0  0  0  0  0  0  0  0
   38.6430   34.1270   40.2480 C   0  0  0  0  0  3  0  0  0  0  0  0
   37.8200   33.0600   40.3510 N   0  0  0  0  0  0  0  0  0  0  0  0
   36.7490   27.3410   41.4290 O   0  0  0  0  0  0  0  0  0  0  0  0
   37.0750   26.9780   42.7460 C   0  0  0  0  0  0  0  0  0  0  0  0
   36.2500   27.2960   43.6420 O   0  0  0  0  0  0  0  0  0  0  0  0
   38.3170   26.2840   42.9060 C   0  0  0  0  0  0  0  0  0  0  0  0
   39.2970   27.0540   43.4870 C   0  0  0  0  0  0  0  0  0  0  0  0
   40.5580   26.4410   43.6800 C   0  0  0  0  0  0  0  0  0  0  0  0
   40.7150   25.1560   43.2860 N   0  0  0  0  0  0  0  0  0  0  0  0
   39.7080   24.4610   42.7220 C   0  0  0  0  0  0  0  0  0  0  0  0
   38.5020   25.0280   42.5310 N   0  0  0  0  0  0  0  0  0  0  0  0
   39.2320   28.0820   43.8210 H   0  0  0  0  0  0  0  0  0  0  0  0
   41.3790   26.9820   44.1310 H   0  0  0  0  0  0  0  0  0  0  0  0
   39.7920   23.4260   42.3910 H   0  0  0  0  0  0  0  0  0  0  0  0
  1  5  1  0  0  0  0
  1 15  1  0  0  0  0
  2  1  2  0  0  0  0
  3  2  1  0  0  0  0
  3  4  2  0  0  0  0
  4  5  1  0  0  0  0
  6  2  1  0  0  0  0
  7  3  1  0  0  0  0
  8  4  1  0  0  0  0
  8  9  1  0  0  0  0
 10  9  2  0  0  0  0
 10 11  1  0  0  0  0
 12 10  1  0  0  0  0
 13 14  1  0  0  0  0
 13 12  2  0  0  0  0
 14  8  2  0  0  0  0
 15 16  1  0  0  0  0
 16 18  1  0  0  0  0
 16 17  2  0  0  0  0
 18 19  1  0  0  0  0
 19 20  2  0  0  0  0
 19 24  1  0  0  0  0
 20 25  1  0  0  0  0
 21 20  1  0  0  0  0
 22 21  2  0  0  0  0
 23 22  1  0  0  0  0
 23 18  2  0  0  0  0
 26 22  1  0  0  0  0
M  END
>  <minimizedAffinity>
-5.09970379

$$$$

 OpenBabel03242518333D

 26 28  0  0  0  0  0  0  0  0999 V2000
   36.4740   28.6070   41.7380 C   0  0  0  0  0  0  0  0  0  0  0  0
   35.5520   28.9600   40.7740 C   0  0  0  0  0  0  0  0  0  0  0  0
   35.9460   30.1690   40.2350 C   0  0  0  0  0  0  0  0  0  0  0  0
   37.1110   30.5100   40.9040 C   0  0  0  0  0  0  0  0  0  0  0  0
   37.3850   29.5630   41.7780 O   0  0  0  0  0  0  0  0  0  0  0  0
   34.7160   28.3260   40.5660 H   0  0  0  0  0  0  0  0  0  0  0  0
   35.4180   30.6960   39.4570 H   0  0  0  0  0  0  0  0  0  0  0  0
   37.8780   31.7270   40.6490 C   0  0  0  0  0  0  0  0  0  0  0  0
   37.3050   32.8150   39.9950 C   0  0  0  0  0  3  0  0  0  0  0  0
   38.1240   33.9100   39.8100 C   0  0  0  0  0  0  0  0  0  0  0  0
   37.6090   34.7320   39.2890 H   0  0  0  0  0  0  0  0  0  0  0  0
   39.4050   33.9830   40.2150 N   0  0  0  0  0  0  0  0  0  0  0  0
   39.9050   32.8900   40.8460 C   0  0  0  0  0  3  0  0  0  0  0  0
   39.1760   31.7740   41.0700 N   0  0  0  0  0  0  0  0  0  0  0  0
   36.5680   27.4970   42.5870 O   0  0  0  0  0  0  0  0  0  0  0  0
   37.7990   26.8440   42.7590 C   0  0  0  0  0  0  0  0  0  0  0  0
   38.5440   27.2710   43.6790 O   0  0  0  0  0  0  0  0  0  0  0  0
   38.0540   25.7620   41.8570 C   0  0  0  0  0  0  0  0  0  0  0  0
   37.1150   24.7590   41.9340 C   0  0  0  0  0  0  0  0  0  0  0  0
   37.2960   23.6510   41.0730 C   0  0  0  0  0  0  0  0  0  0  0  0
   38.3640   23.6480   40.2430 N   0  0  0  0  0  0  0  0  0  0  0  0
   39.2460   24.6660   40.2210 C   0  0  0  0  0  0  0  0  0  0  0  0
   39.0900   25.7290   41.0330 N   0  0  0  0  0  0  0  0  0  0  0  0
   36.2440   24.7050   42.5750 H   0  0  0  0  0  0  0  0  0  0  0  0
   36.5990   22.8220   41.0750 H   0  0  0  0  0  0  0  0  0  0  0  0
   40.1180   24.7040   39.5690 H   0  0  0  0  0  0  0  0  0  0  0  0
  1  5  1  0  0  0  0
  1 15  1  0  0  0  0
  2  1  2  0  0  0  0
  3  2  1  0  0  0  0
  3  4  2  0  0  0  0
  4  5  1  0  0  0  0
  6  2  1  0  0  0  0
  7  3  1  0  0  0  0
  8  4  1  0  0  0  0
  8 14  1  0  0  0  0
  9  8  2  0  0  0  0
 10  9  1  0  0  0  0
 10 12  2  0  0  0  0
 11 10  1  0  0  0  0
 12 13  1  0  0  0  0
 13 14  2  0  0  0  0
 15 16  1  0  0  0  0
 16 17  2  0  0  0  0
 18 19  1  0  0  0  0
 18 16  1  0  0  0  0
 19 24  1  0  0  0  0
 20 25  1  0  0  0  0
 20 19  2  0  0  0  0
 21 20  1  0  0  0  0
 22 21  2  0  0  0  0
 22 23  1  0  0  0  0
 23 18  2  0  0  0  0
 26 22  1  0  0  0  0
M  END
>  <minimizedAffinity>
-5.09708118

$$$$

 OpenBabel03242518333D

 26 28  0  0  0  0  0  0  0  0999 V2000
   37.1530   31.2960   39.5210 C   0  0  0  0  0  0  0  0  0  0  0  0
   37.1850   30.9930   38.1740 C   0  0  0  0  0  0  0  0  0  0  0  0
   38.3600   31.5010   37.6550 C   0  0  0  0  0  0  0  0  0  0  0  0
   39.0070   32.1020   38.7230 C   0  0  0  0  0  0  0  0  0  0  0  0
   38.2620   31.9570   39.8000 O   0  0  0  0  0  0  0  0  0  0  0  0
   36.3800   30.4540   37.7210 H   0  0  0  0  0  0  0  0  0  0  0  0
   38.6610   31.4190   36.6230 H   0  0  0  0  0  0  0  0  0  0  0  0
   40.3010   32.7730   38.6260 C   0  0  0  0  0  0  0  0  0  0  0  0
   41.0930   32.6470   37.4880 C   0  0  0  0  0  3  0  0  0  0  0  0
   42.2940   33.3260   37.5090 C   0  0  0  0  0  0  0  0  0  0  0  0
   42.8690   33.1840   36.5810 H   0  0  0  0  0  0  0  0  0  0  0  0
   42.7290   34.0790   38.5360 N   0  0  0  0  0  0  0  0  0  0  0  0
   41.9100   34.1610   39.6160 C   0  0  0  0  0  3  0  0  0  0  0  0
   40.7170   33.5310   39.6830 N   0  0  0  0  0  0  0  0  0  0  0  0
   36.2120   31.0270   40.5220 O   0  0  0  0  0  0  0  0  0  0  0  0
   35.8420   29.7030   40.8050 C   0  0  0  0  0  0  0  0  0  0  0  0
   34.7900   29.2790   40.2600 O   0  0  0  0  0  0  0  0  0  0  0  0
   36.7180   28.9930   41.6870 C   0  0  0  0  0  0  0  0  0  0  0  0
   36.5810   27.6260   41.6030 C   0  0  0  0  0  0  0  0  0  0  0  0
   37.4120   26.8510   42.4450 C   0  0  0  0  0  0  0  0  0  0  0  0
   38.2750   27.4920   43.2660 N   0  0  0  0  0  0  0  0  0  0  0  0
   38.3550   28.8370   43.2970 C   0  0  0  0  0  0  0  0  0  0  0  0
   37.5730   29.5920   42.5020 N   0  0  0  0  0  0  0  0  0  0  0  0
   35.9120   27.0580   40.9690 H   0  0  0  0  0  0  0  0  0  0  0  0
   37.3630   25.7690   42.4360 H   0  0  0  0  0  0  0  0  0  0  0  0
   39.0350   29.3930   43.9410 H   0  0  0  0  0  0  0  0  0  0  0  0
  1  5  1  0  0  0  0
  1 15  1  0  0  0  0
  2  1  2  0  0  0  0
  3  2  1  0  0  0  0
  3  4  2  0  0  0  0
  4  5  1  0  0  0  0
  6  2  1  0  0  0  0
  7  3  1  0  0  0  0
  8  4  1  0  0  0  0
  8 14  1  0  0  0  0
  9 10  1  0  0  0  0
  9  8  2  0  0  0  0
 10 12  2  0  0  0  0
 11 10  1  0  0  0  0
 12 13  1  0  0  0  0
 13 14  2  0  0  0  0
 15 16  1  0  0  0  0
 16 18  1  0  0  0  0
 17 16  2  0  0  0  0
 18 23  1  0  0  0  0
 19 18  2  0  0  0  0
 19 20  1  0  0  0  0
 20 21  2  0  0  0  0
 21 22  1  0  0  0  0
 22 26  1  0  0  0  0
 23 22  2  0  0  0  0
 24 19  1  0  0  0  0
 25 20  1  0  0  0  0
M  END
>  <minimizedAffinity>
-4.95481348

$$$$

 OpenBabel03242518333D

 26 28  0  0  0  0  0  0  0  0999 V2000
   37.1460   27.0240   42.5310 C   0  0  0  0  0  0  0  0  0  0  0  0
   37.5950   27.9140   43.4870 C   0  0  0  0  0  0  0  0  0  0  0  0
   37.6720   29.1610   42.8980 C   0  0  0  0  0  0  0  0  0  0  0  0
   37.2620   28.9780   41.5870 C   0  0  0  0  0  0  0  0  0  0  0  0
   36.9620   27.7060   41.4160 O   0  0  0  0  0  0  0  0  0  0  0  0
   37.8120   27.5790   44.4790 H   0  0  0  0  0  0  0  0  0  0  0  0
   37.9930   30.0580   43.4020 H   0  0  0  0  0  0  0  0  0  0  0  0
   37.1890   30.0460   40.5940 C   0  0  0  0  0  0  0  0  0  0  0  0
   36.8550   29.7750   39.2690 C   0  0  0  0  0  3  0  0  0  0  0  0
   36.8150   30.8610   38.4200 C   0  0  0  0  0  0  0  0  0  0  0  0
   36.5460   30.5770   37.3910 H   0  0  0  0  0  0  0  0  0  0  0  0
   37.0730   32.1290   38.7890 N   0  0  0  0  0  0  0  0  0  0  0  0
   37.3930   32.3280   40.0940 C   0  0  0  0  0  3  0  0  0  0  0  0
   37.4550   31.3230   40.9960 N   0  0  0  0  0  0  0  0  0  0  0  0
   36.8880   25.6480   42.5760 O   0  0  0  0  0  0  0  0  0  0  0  0
   37.7990   24.7410   42.0110 C   0  0  0  0  0  0  0  0  0  0  0  0
   38.9810   24.7840   42.4400 O   0  0  0  0  0  0  0  0  0  0  0  0
   37.2630   23.8730   41.0080 C   0  0  0  0  0  0  0  0  0  0  0  0
   38.1160   22.8510   40.6620 C   0  0  0  0  0  0  0  0  0  0  0  0
   37.6600   21.9470   39.6750 C   0  0  0  0  0  0  0  0  0  0  0  0
   36.4330   22.1420   39.1410 N   0  0  0  0  0  0  0  0  0  0  0  0
   35.6480   23.1680   39.5260 C   0  0  0  0  0  0  0  0  0  0  0  0
   36.0660   24.0380   40.4660 N   0  0  0  0  0  0  0  0  0  0  0  0
   39.1050   22.6440   41.0520 H   0  0  0  0  0  0  0  0  0  0  0  0
   38.2750   21.1170   39.3500 H   0  0  0  0  0  0  0  0  0  0  0  0
   34.6550   23.3610   39.1240 H   0  0  0  0  0  0  0  0  0  0  0  0
  1 15  1  0  0  0  0
  1  2  2  0  0  0  0
  2  6  1  0  0  0  0
  3  7  1  0  0  0  0
  3  2  1  0  0  0  0
  4  3  2  0  0  0  0
  5  4  1  0  0  0  0
  5  1  1  0  0  0  0
  8 14  1  0  0  0  0
  8  4  1  0  0  0  0
  9  8  2  0  0  0  0
 10 12  2  0  0  0  0
 10  9  1  0  0  0  0
 11 10  1  0  0  0  0
 12 13  1  0  0  0  0
 13 14  2  0  0  0  0
 16 17  2  0  0  0  0
 16 15  1  0  0  0  0
 18 16  1  0  0  0  0
 19 18  1  0  0  0  0
 19 24  1  0  0  0  0
 20 19  2  0  0  0  0
 21 22  2  0  0  0  0
 21 20  1  0  0  0  0
 22 23  1  0  0  0  0
 23 18  2  0  0  0  0
 25 20  1  0  0  0  0
 26 22  1  0  0  0  0
M  END
>  <minimizedAffinity>
-4.74124241

$$$$

 OpenBabel03242518333D

 26 28  0  0  0  0  0  0  0  0999 V2000
   38.1150   29.0880   42.5930 C   0  0  0  0  0  0  0  0  0  0  0  0
   37.3290   28.5370   43.5840 C   0  0  0  0  0  0  0  0  0  0  0  0
   37.1890   27.1900   43.3120 C   0  0  0  0  0  0  0  0  0  0  0  0
   37.9070   26.9710   42.1470 C   0  0  0  0  0  0  0  0  0  0  0  0
   38.4350   28.1150   41.7590 O   0  0  0  0  0  0  0  0  0  0  0  0
   36.9500   29.1470   44.3770 H   0  0  0  0  0  0  0  0  0  0  0  0
   36.6250   26.4970   43.9160 H   0  0  0  0  0  0  0  0  0  0  0  0
   38.0320   25.6720   41.4920 C   0  0  0  0  0  0  0  0  0  0  0  0
   37.1120   24.6540   41.7300 C   0  0  0  0  0  3  0  0  0  0  0  0
   37.3300   23.4710   41.0560 C   0  0  0  0  0  0  0  0  0  0  0  0
   36.5680   22.7110   41.2900 H   0  0  0  0  0  0  0  0  0  0  0  0
   38.3500   23.2520   40.2060 N   0  0  0  0  0  0  0  0  0  0  0  0
   39.2120   24.2840   40.0160 C   0  0  0  0  0  3  0  0  0  0  0  0
   39.0760   25.4780   40.6340 N   0  0  0  0  0  0  0  0  0  0  0  0
   38.5710   30.3940   42.3720 O   0  0  0  0  0  0  0  0  0  0  0  0
   38.0630   31.1460   41.3000 C   0  0  0  0  0  0  0  0  0  0  0  0
   36.8310   31.0380   41.0650 O   0  0  0  0  0  0  0  0  0  0  0  0
   39.0200   31.9500   40.6030 C   0  0  0  0  0  0  0  0  0  0  0  0
   38.7430   33.2960   40.6620 C   0  0  0  0  0  0  0  0  0  0  0  0
   39.6430   34.1610   39.9960 C   0  0  0  0  0  0  0  0  0  0  0  0
   40.7010   33.6170   39.3530 N   0  0  0  0  0  0  0  0  0  0  0  0
   40.9110   32.2860   39.3350 C   0  0  0  0  0  0  0  0  0  0  0  0
   40.0660   31.4480   39.9640 N   0  0  0  0  0  0  0  0  0  0  0  0
   37.9160   33.7880   41.1580 H   0  0  0  0  0  0  0  0  0  0  0  0
   39.4920   35.2330   39.9970 H   0  0  0  0  0  0  0  0  0  0  0  0
   41.7500   31.8070   38.8310 H   0  0  0  0  0  0  0  0  0  0  0  0
  1  2  2  0  0  0  0
  2  6  1  0  0  0  0
  3  2  1  0  0  0  0
  3  7  1  0  0  0  0
  4  3  2  0  0  0  0
  5  4  1  0  0  0  0
  5  1  1  0  0  0  0
  8  9  1  0  0  0  0
  8  4  1  0  0  0  0
 10 11  1  0  0  0  0
 10  9  2  0  0  0  0
 12 10  1  0  0  0  0
 13 12  2  0  0  0  0
 13 14  1  0  0  0  0
 14  8  2  0  0  0  0
 15  1  1  0  0  0  0
 16 15  1  0  0  0  0
 17 16  2  0  0  0  0
 18 19  1  0  0  0  0
 18 16  1  0  0  0  0
 19 24  1  0  0  0  0
 20 25  1  0  0  0  0
 20 19  2  0  0  0  0
 21 20  1  0  0  0  0
 22 21  2  0  0  0  0
 22 23  1  0  0  0  0
 23 18  2  0  0  0  0
 26 22  1  0  0  0  0
M  END
>  <minimizedAffinity>
-4.72053337

$$$$

 OpenBabel03242518333D

 26 28  0  0  0  0  0  0  0  0999 V2000
   37.3270   27.3030   41.6500 C   0  0  0  0  0  0  0  0  0  0  0  0
   37.2400   27.7770   42.9440 C   0  0  0  0  0  0  0  0  0  0  0  0
   37.4220   29.1450   42.9050 C   0  0  0  0  0  0  0  0  0  0  0  0
   37.6150   29.4560   41.5680 C   0  0  0  0  0  0  0  0  0  0  0  0
   37.5500   28.3430   40.8660 O   0  0  0  0  0  0  0  0  0  0  0  0
   37.0610   27.1040   43.7560 H   0  0  0  0  0  0  0  0  0  0  0  0
   37.4080   29.7910   43.7680 H   0  0  0  0  0  0  0  0  0  0  0  0
   37.8470   30.8070   41.0650 C   0  0  0  0  0  0  0  0  0  0  0  0
   36.8960   31.4570   40.2820 C   0  0  0  0  0  3  0  0  0  0  0  0
   37.2230   32.7300   39.8640 C   0  0  0  0  0  0  0  0  0  0  0  0
   36.4300   33.1840   39.2510 H   0  0  0  0  0  0  0  0  0  0  0  0
   38.3750   33.3590   40.1610 N   0  0  0  0  0  0  0  0  0  0  0  0
   39.2610   32.6730   40.9280 C   0  0  0  0  0  3  0  0  0  0  0  0
   39.0240   31.4230   41.3820 N   0  0  0  0  0  0  0  0  0  0  0  0
   37.2210   26.0150   41.1120 O   0  0  0  0  0  0  0  0  0  0  0  0
   37.9320   24.9500   41.6880 C   0  0  0  0  0  0  0  0  0  0  0  0
   37.2510   24.0100   42.1750 O   0  0  0  0  0  0  0  0  0  0  0  0
   39.3580   25.0680   41.6490 C   0  0  0  0  0  0  0  0  0  0  0  0
   39.9460   24.9610   42.8880 C   0  0  0  0  0  0  0  0  0  0  0  0
   41.3550   25.0670   42.9360 C   0  0  0  0  0  0  0  0  0  0  0  0
   42.0260   25.2640   41.7780 N   0  0  0  0  0  0  0  0  0  0  0  0
   41.3840   25.3600   40.5960 C   0  0  0  0  0  0  0  0  0  0  0  0
   40.0430   25.2600   40.5320 N   0  0  0  0  0  0  0  0  0  0  0  0
   39.4650   24.8050   43.8460 H   0  0  0  0  0  0  0  0  0  0  0  0
   41.8900   24.9940   43.8740 H   0  0  0  0  0  0  0  0  0  0  0  0
   41.8840   25.5170   39.6410 H   0  0  0  0  0  0  0  0  0  0  0  0
  1  2  2  0  0  0  0
  2  6  1  0  0  0  0
  3  2  1  0  0  0  0
  3  7  1  0  0  0  0
  4  3  2  0  0  0  0
  5  4  1  0  0  0  0
  5  1  1  0  0  0  0
  8 14  1  0  0  0  0
  8  4  1  0  0  0  0
  9  8  2  0  0  0  0
 10 12  2  0  0  0  0
 10  9  1  0  0  0  0
 11 10  1  0  0  0  0
 12 13  1  0  0  0  0
 13 14  2  0  0  0  0
 15  1  1  0  0  0  0
 15 16  1  0  0  0  0
 16 17  2  0  0  0  0
 18 16  1  0  0  0  0
 18 19  1  0  0  0  0
 19 20  2  0  0  0  0
 19 24  1  0  0  0  0
 20 25  1  0  0  0  0
 21 20  1  0  0  0  0
 22 21  2  0  0  0  0
 23 22  1  0  0  0  0
 23 18  2  0  0  0  0
 26 22  1  0  0  0  0
M  END
>  <minimizedAffinity>
-4.65444851

$$$$

 OpenBabel03242518333D

 26 28  0  0  0  0  0  0  0  0999 V2000
   36.5950   29.1930   39.4280 C   0  0  0  0  0  0  0  0  0  0  0  0
   36.0990   27.9770   39.0020 C   0  0  0  0  0  0  0  0  0  0  0  0
   36.6630   26.9920   39.7880 C   0  0  0  0  0  0  0  0  0  0  0  0
   37.4940   27.6570   40.6760 C   0  0  0  0  0  0  0  0  0  0  0  0
   37.4230   28.9490   40.4280 O   0  0  0  0  0  0  0  0  0  0  0  0
   35.4020   27.9310   38.1910 H   0  0  0  0  0  0  0  0  0  0  0  0
   36.4630   25.9380   39.6870 H   0  0  0  0  0  0  0  0  0  0  0  0
   38.2970   26.9960   41.7010 C   0  0  0  0  0  0  0  0  0  0  0  0
   38.8270   27.7110   42.7720 C   0  0  0  0  0  3  0  0  0  0  0  0
   39.5680   26.9820   43.6790 C   0  0  0  0  0  0  0  0  0  0  0  0
   39.9560   27.6060   44.4980 H   0  0  0  0  0  0  0  0  0  0  0  0
   39.8000   25.6600   43.5880 N   0  0  0  0  0  0  0  0  0  0  0  0
   39.2570   25.0200   42.5210 C   0  0  0  0  0  3  0  0  0  0  0  0
   38.5170   25.6530   41.5840 N   0  0  0  0  0  0  0  0  0  0  0  0
   36.3670   30.5050   38.9940 O   0  0  0  0  0  0  0  0  0  0  0  0
   37.2910   31.1370   38.1460 C   0  0  0  0  0  0  0  0  0  0  0  0
   37.3130   30.7550   36.9470 O   0  0  0  0  0  0  0  0  0  0  0  0
   38.0990   32.1480   38.7580 C   0  0  0  0  0  0  0  0  0  0  0  0
   37.3610   33.1190   39.3960 C   0  0  0  0  0  0  0  0  0  0  0  0
   38.0860   34.1560   40.0280 C   0  0  0  0  0  0  0  0  0  0  0  0
   39.4370   34.1290   39.9640 N   0  0  0  0  0  0  0  0  0  0  0  0
   40.0950   33.1450   39.3190 C   0  0  0  0  0  0  0  0  0  0  0  0
   39.4220   32.1490   38.7130 N   0  0  0  0  0  0  0  0  0  0  0  0
   36.2840   33.1940   39.4810 H   0  0  0  0  0  0  0  0  0  0  0  0
   37.5770   34.9560   40.5500 H   0  0  0  0  0  0  0  0  0  0  0  0
   41.1810   33.0840   39.2440 H   0  0  0  0  0  0  0  0  0  0  0  0
  1  5  1  0  0  0  0
  2  1  2  0  0  0  0
  2  3  1  0  0  0  0
  3  4  2  0  0  0  0
  4  8  1  0  0  0  0
  5  4  1  0  0  0  0
  6  2  1  0  0  0  0
  7  3  1  0  0  0  0
  8  9  1  0  0  0  0
  9 10  2  0  0  0  0
 10 11  1  0  0  0  0
 12 10  1  0  0  0  0
 13 12  2  0  0  0  0
 14  8  2  0  0  0  0
 14 13  1  0  0  0  0
 15  1  1  0  0  0  0
 16 18  1  0  0  0  0
 16 15  1  0  0  0  0
 17 16  2  0  0  0  0
 18 19  1  0  0  0  0
 19 24  1  0  0  0  0
 19 20  2  0  0  0  0
 20 25  1  0  0  0  0
 21 20  1  0  0  0  0
 22 21  2  0  0  0  0
 23 18  2  0  0  0  0
 23 22  1  0  0  0  0
 26 22  1  0  0  0  0
M  END
>  <minimizedAffinity>
-4.64062595

$$$$

 OpenBabel03242518333D

 26 28  0  0  0  0  0  0  0  0999 V2000
   38.0200   29.3580   42.2660 C   0  0  0  0  0  0  0  0  0  0  0  0
   37.6580   28.7650   43.4590 C   0  0  0  0  0  0  0  0  0  0  0  0
   37.2220   27.4850   43.1780 C   0  0  0  0  0  0  0  0  0  0  0  0
   37.3370   27.3480   41.8040 C   0  0  0  0  0  0  0  0  0  0  0  0
   37.8100   28.4730   41.3090 O   0  0  0  0  0  0  0  0  0  0  0  0
   37.7440   29.3030   44.3800 H   0  0  0  0  0  0  0  0  0  0  0  0
   36.8740   26.7800   43.9150 H   0  0  0  0  0  0  0  0  0  0  0  0
   36.9820   26.1380   41.0670 C   0  0  0  0  0  0  0  0  0  0  0  0
   37.0290   24.8850   41.6750 C   0  0  0  0  0  3  0  0  0  0  0  0
   36.6710   23.8140   40.8820 C   0  0  0  0  0  0  0  0  0  0  0  0
   36.7300   22.8570   41.4230 H   0  0  0  0  0  0  0  0  0  0  0  0
   36.2920   23.9090   39.5950 N   0  0  0  0  0  0  0  0  0  0  0  0
   36.2660   25.1570   39.0610 C   0  0  0  0  0  3  0  0  0  0  0  0
   36.6000   26.2630   39.7620 N   0  0  0  0  0  0  0  0  0  0  0  0
   38.5230   30.6300   41.9640 O   0  0  0  0  0  0  0  0  0  0  0  0
   38.0800   31.3090   40.8180 C   0  0  0  0  0  0  0  0  0  0  0  0
   36.8650   31.6370   40.7880 O   0  0  0  0  0  0  0  0  0  0  0  0
   39.0760   31.5470   39.8180 C   0  0  0  0  0  0  0  0  0  0  0  0
   40.3490   31.6370   40.3320 C   0  0  0  0  0  0  0  0  0  0  0  0
   41.3930   31.8710   39.4070 C   0  0  0  0  0  0  0  0  0  0  0  0
   41.0780   31.9910   38.0970 N   0  0  0  0  0  0  0  0  0  0  0  0
   39.8060   31.8930   37.6630 C   0  0  0  0  0  0  0  0  0  0  0  0
   38.7990   31.6690   38.5290 N   0  0  0  0  0  0  0  0  0  0  0  0
   40.6620   31.5500   41.3640 H   0  0  0  0  0  0  0  0  0  0  0  0
   42.4220   31.9540   39.7340 H   0  0  0  0  0  0  0  0  0  0  0  0
   39.5080   31.9820   36.6190 H   0  0  0  0  0  0  0  0  0  0  0  0
  1  2  2  0  0  0  0
  2  6  1  0  0  0  0
  3  2  1  0  0  0  0
  3  7  1  0  0  0  0
  4  3  2  0  0  0  0
  5  4  1  0  0  0  0
  5  1  1  0  0  0  0
  8  9  1  0  0  0  0
  8  4  1  0  0  0  0
 10 11  1  0  0  0  0
 10  9  2  0  0  0  0
 12 10  1  0  0  0  0
 13 12  2  0  0  0  0
 13 14  1  0  0  0  0
 14  8  2  0  0  0  0
 15  1  1  0  0  0  0
 16 15  1  0  0  0  0
 17 16  2  0  0  0  0
 18 19  1  0  0  0  0
 18 16  1  0  0  0  0
 19 24  1  0  0  0  0
 20 25  1  0  0  0  0
 20 19  2  0  0  0  0
 21 20  1  0  0  0  0
 22 21  2  0  0  0  0
 22 23  1  0  0  0  0
 23 18  2  0  0  0  0
 26 22  1  0  0  0  0
M  END
>  <minimizedAffinity>
-4.54628515

$$$$

 OpenBabel03242518333D

 26 28  0  0  0  0  0  0  0  0999 V2000
   36.9320   29.5460   41.8240 C   0  0  0  0  0  0  0  0  0  0  0  0
   37.7350   29.2120   42.8970 C   0  0  0  0  0  0  0  0  0  0  0  0
   37.9400   27.8470   42.8610 C   0  0  0  0  0  0  0  0  0  0  0  0
   37.2430   27.3960   41.7510 C   0  0  0  0  0  0  0  0  0  0  0  0
   36.6660   28.4300   41.1710 O   0  0  0  0  0  0  0  0  0  0  0  0
   38.0780   29.9670   43.5730 H   0  0  0  0  0  0  0  0  0  0  0  0
   38.5290   27.2960   43.5760 H   0  0  0  0  0  0  0  0  0  0  0  0
   37.1850   25.9990   41.3290 C   0  0  0  0  0  0  0  0  0  0  0  0
   37.6550   24.9790   42.1530 C   0  0  0  0  0  3  0  0  0  0  0  0
   37.5490   23.6980   41.6500 C   0  0  0  0  0  0  0  0  0  0  0  0
   37.9370   22.9430   42.3500 H   0  0  0  0  0  0  0  0  0  0  0  0
   37.0330   23.3900   40.4470 N   0  0  0  0  0  0  0  0  0  0  0  0
   36.5920   24.4290   39.6920 C   0  0  0  0  0  3  0  0  0  0  0  0
   36.6560   25.7150   40.1030 N   0  0  0  0  0  0  0  0  0  0  0  0
   36.4180   30.7710   41.3810 O   0  0  0  0  0  0  0  0  0  0  0  0
   37.0610   31.4740   40.3500 C   0  0  0  0  0  0  0  0  0  0  0  0
   37.4250   32.6510   40.6070 O   0  0  0  0  0  0  0  0  0  0  0  0
   37.2250   30.7550   39.1230 C   0  0  0  0  0  0  0  0  0  0  0  0
   38.5430   30.5420   38.7910 C   0  0  0  0  0  0  0  0  0  0  0  0
   38.7910   29.8380   37.5890 C   0  0  0  0  0  0  0  0  0  0  0  0
   37.7320   29.4260   36.8540 N   0  0  0  0  0  0  0  0  0  0  0  0
   36.4650   29.6710   37.2410 C   0  0  0  0  0  0  0  0  0  0  0  0
   36.2100   30.3390   38.3820 N   0  0  0  0  0  0  0  0  0  0  0  0
   39.4280   30.8460   39.3350 H   0  0  0  0  0  0  0  0  0  0  0  0
   39.8010   29.6310   37.2610 H   0  0  0  0  0  0  0  0  0  0  0  0
   35.5840   29.3570   36.6800 H   0  0  0  0  0  0  0  0  0  0  0  0
  1  2  2  0  0  0  0
  2  6  1  0  0  0  0
  3  2  1  0  0  0  0
  3  7  1  0  0  0  0
  4  3  2  0  0  0  0
  5  4  1  0  0  0  0
  5  1  1  0  0  0  0
  8  4  1  0  0  0  0
  8  9  1  0  0  0  0
 10  9  2  0  0  0  0
 10 11  1  0  0  0  0
 12 10  1  0  0  0  0
 13 14  1  0  0  0  0
 13 12  2  0  0  0  0
 14  8  2  0  0  0  0
 15  1  1  0  0  0  0
 16 17  2  0  0  0  0
 16 15  1  0  0  0  0
 18 16  1  0  0  0  0
 19 18  1  0  0  0  0
 19 24  1  0  0  0  0
 20 19  2  0  0  0  0
 21 22  2  0  0  0  0
 21 20  1  0  0  0  0
 22 23  1  0  0  0  0
 23 18  2  0  0  0  0
 25 20  1  0  0  0  0
 26 22  1  0  0  0  0
M  END
>  <minimizedAffinity>
-4.5454874

$$$$
