
 OpenBabel03242523533D

 41 44  0  0  1  0  0  0  0  0999 V2000
   38.1900   32.3290   39.2580 C   0  0  1  0  0  0  0  0  0  0  0  0
   37.7400   30.9290   39.6770 C   0  0  1  0  0  0  0  0  0  0  0  0
   38.5330   29.9770   39.0090 O   0  0  0  0  0  0  0  0  0  0  0  0
   38.9060   30.3760   37.7260 C   0  0  0  0  0  0  0  0  0  0  0  0
   39.9010   31.5230   37.7840 C   0  0  2  0  0  0  0  0  0  0  0  0
   39.7020   32.2320   39.1320 C   0  0  1  0  0  0  0  0  0  0  0  0
   37.9160   33.0550   40.0720 H   0  0  0  0  0  0  0  0  0  0  0  0
   36.6780   30.8030   39.4390 H   0  0  0  0  0  0  0  0  0  0  0  0
   39.4210   29.4990   37.2940 H   0  0  0  0  0  0  0  0  0  0  0  0
   38.0460   30.5810   37.0840 H   0  0  0  0  0  0  0  0  0  0  0  0
   40.9410   31.1950   37.6460 H   0  0  0  0  0  0  0  0  0  0  0  0
   40.0970   31.5650   39.9450 H   0  0  0  0  0  0  0  0  0  0  0  0
   37.6300   32.6770   38.0290 O   0  0  0  0  0  0  0  0  0  0  0  0
   37.1630   33.5460   38.1770 H   0  0  0  0  0  0  0  0  0  0  0  0
   39.5120   32.4680   36.8270 O   0  0  0  0  0  0  0  0  0  0  0  0
   40.1750   33.2030   36.8770 H   0  0  0  0  0  0  0  0  0  0  0  0
   38.0870   30.7920   41.0220 O   0  0  0  0  0  0  0  0  0  0  0  0
   38.0030   29.6610   41.7310 C   0  0  0  0  0  0  0  0  0  0  0  0
   39.1350   29.0980   42.3140 C   0  0  0  0  0  0  0  0  0  0  0  0
   38.9970   27.9260   43.0420 C   0  0  0  0  0  0  0  0  0  0  0  0
   37.7490   27.3530   43.1680 N   0  0  0  0  0  0  0  0  0  0  0  0
   36.6770   27.9210   42.5910 C   0  0  0  0  0  0  0  0  0  0  0  0
   36.7940   29.0660   41.8760 N   0  0  0  0  0  0  0  0  0  0  0  0
   40.1270   29.5290   42.2310 H   0  0  0  0  0  0  0  0  0  0  0  0
   35.6740   27.5080   42.6600 H   0  0  0  0  0  0  0  0  0  0  0  0
   40.1850   27.2620   43.6770 C   0  0  0  0  0  0  0  0  0  0  0  0
   40.2290   25.7510   43.6790 C   0  0  0  0  0  0  0  0  0  0  0  0
   41.1800   26.6270   42.8520 C   0  0  0  0  0  0  0  0  0  0  0  0
   40.4840   27.7740   44.6270 H   0  0  0  0  0  0  0  0  0  0  0  0
   40.6700   25.3010   44.5860 H   0  0  0  0  0  0  0  0  0  0  0  0
   39.3760   25.2780   43.1930 H   0  0  0  0  0  0  0  0  0  0  0  0
   41.0240   26.4720   41.7580 H   0  0  0  0  0  0  0  0  0  0  0  0
   42.2530   26.5410   43.1110 H   0  0  0  0  0  0  0  0  0  0  0  0
   40.3300   33.4600   39.1400 O   0  0  0  0  0  0  0  0  0  0  0  0
   41.6530   33.6140   39.5000 C   0  0  0  0  0  0  0  0  0  0  0  0
   41.9080   33.4850   40.8500 C   0  0  0  0  0  3  0  0  0  0  0  0
   43.1810   33.6050   41.4180 C   0  0  0  0  0  0  0  0  0  0  0  0
   43.3840   33.5070   42.4580 H   0  0  0  0  0  0  0  0  0  0  0  0
   44.2180   33.8640   40.5760 N   0  0  0  0  0  0  0  0  0  0  0  0
   43.9470   33.9870   39.2600 C   0  0  0  0  0  3  0  0  0  0  0  0
   42.7250   33.8730   38.6980 N   0  0  0  0  0  0  0  0  0  0  0  0
  1  2  1  0  0  0  0
  1  7  1  1  0  0  0
  2  8  1  6  0  0  0
  2 17  1  0  0  0  0
  3  2  1  0  0  0  0
  4  5  1  0  0  0  0
  4  3  1  0  0  0  0
  5 11  1  6  0  0  0
  5  6  1  0  0  0  0
  6 34  1  0  0  0  0
  6  1  1  0  0  0  0
  6 12  1  1  0  0  0
  9  4  1  0  0  0  0
 10  4  1  0  0  0  0
 13 14  1  0  0  0  0
 13  1  1  0  0  0  0
 15 16  1  0  0  0  0
 15  5  1  0  0  0  0
 17 18  1  0  0  0  0
 18 23  2  0  0  0  0
 18 19  1  0  0  0  0
 19 20  2  0  0  0  0
 20 21  1  0  0  0  0
 20 26  1  0  0  0  0
 22 25  1  0  0  0  0
 22 21  2  0  0  0  0
 23 22  1  0  0  0  0
 24 19  1  0  0  0  0
 26 27  1  0  0  0  0
 26 29  1  0  0  0  0
 27 30  1  0  0  0  0
 28 33  1  0  0  0  0
 28 26  1  0  0  0  0
 28 27  1  0  0  0  0
 31 27  1  0  0  0  0
 32 28  1  0  0  0  0
 34 35  1  0  0  0  0
 35 36  1  0  0  0  0
 36 37  2  0  0  0  0
 37 38  1  0  0  0  0
 39 37  1  0  0  0  0
 40 39  2  0  0  0  0
 41 40  1  0  0  0  0
 41 35  2  0  0  0  0
M  END
>  <minimizedAffinity>
-5.81402016

$$$$

 OpenBabel03242523533D

 41 44  0  0  1  0  0  0  0  0999 V2000
   39.4120   30.7690   40.1240 C   0  0  1  0  0  0  0  0  0  0  0  0
   40.3670   30.8360   41.3150 C   0  0  1  0  0  0  0  0  0  0  0  0
   40.8200   32.1610   41.4620 O   0  0  0  0  0  0  0  0  0  0  0  0
   40.9670   32.8280   40.2450 C   0  0  0  0  0  0  0  0  0  0  0  0
   39.6130   33.1030   39.6130 C   0  0  2  0  0  0  0  0  0  0  0  0
   38.6270   32.0700   40.1780 C   0  0  1  0  0  0  0  0  0  0  0  0
   38.7190   29.8930   40.2650 H   0  0  0  0  0  0  0  0  0  0  0  0
   41.2010   30.1440   41.1510 H   0  0  0  0  0  0  0  0  0  0  0  0
   41.4250   33.7990   40.5080 H   0  0  0  0  0  0  0  0  0  0  0  0
   41.6650   32.3250   39.5720 H   0  0  0  0  0  0  0  0  0  0  0  0
   39.2630   34.1320   39.7790 H   0  0  0  0  0  0  0  0  0  0  0  0
   38.4180   32.3290   41.2510 H   0  0  0  0  0  0  0  0  0  0  0  0
   40.1230   30.6920   38.9270 O   0  0  0  0  0  0  0  0  0  0  0  0
   39.7800   29.8820   38.4550 H   0  0  0  0  0  0  0  0  0  0  0  0
   39.7120   32.7900   38.2520 O   0  0  0  0  0  0  0  0  0  0  0  0
   38.8220   32.9810   37.8580 H   0  0  0  0  0  0  0  0  0  0  0  0
   39.5920   30.6040   42.4520 O   0  0  0  0  0  0  0  0  0  0  0  0
   39.1150   29.4130   42.8340 C   0  0  0  0  0  0  0  0  0  0  0  0
   39.9680   28.3290   43.0210 C   0  0  0  0  0  0  0  0  0  0  0  0
   39.4270   27.1160   43.4200 C   0  0  0  0  0  0  0  0  0  0  0  0
   38.0660   27.0180   43.6190 N   0  0  0  0  0  0  0  0  0  0  0  0
   37.2700   28.0830   43.4280 C   0  0  0  0  0  0  0  0  0  0  0  0
   37.7830   29.2760   43.0390 N   0  0  0  0  0  0  0  0  0  0  0  0
   41.0420   28.3810   42.8720 H   0  0  0  0  0  0  0  0  0  0  0  0
   36.1940   28.0560   43.5710 H   0  0  0  0  0  0  0  0  0  0  0  0
   40.2940   25.9060   43.6180 C   0  0  0  0  0  0  0  0  0  0  0  0
   39.7430   24.5660   43.1880 C   0  0  0  0  0  0  0  0  0  0  0  0
   40.9110   25.2700   42.4830 C   0  0  0  0  0  0  0  0  0  0  0  0
   40.8250   25.9380   44.6030 H   0  0  0  0  0  0  0  0  0  0  0  0
   40.0250   23.7180   43.8370 H   0  0  0  0  0  0  0  0  0  0  0  0
   38.7460   24.6130   42.7500 H   0  0  0  0  0  0  0  0  0  0  0  0
   40.6430   25.5490   41.4360 H   0  0  0  0  0  0  0  0  0  0  0  0
   41.8770   24.7310   42.5090 H   0  0  0  0  0  0  0  0  0  0  0  0
   37.4660   32.0380   39.4330 O   0  0  0  0  0  0  0  0  0  0  0  0
   36.6120   30.9540   39.4370 C   0  0  0  0  0  0  0  0  0  0  0  0
   36.4410   30.3440   38.2110 C   0  0  0  0  0  3  0  0  0  0  0  0
   35.6190   29.2310   38.0030 C   0  0  0  0  0  0  0  0  0  0  0  0
   35.4820   28.7550   37.0610 H   0  0  0  0  0  0  0  0  0  0  0  0
   34.9570   28.7330   39.0820 N   0  0  0  0  0  0  0  0  0  0  0  0
   35.1390   29.3450   40.2720 C   0  0  0  0  0  3  0  0  0  0  0  0
   35.9280   30.4180   40.4880 N   0  0  0  0  0  0  0  0  0  0  0  0
  1  6  1  0  0  0  0
  1  7  1  1  0  0  0
  1  2  1  0  0  0  0
  2  8  1  6  0  0  0
  2  3  1  0  0  0  0
  2 17  1  0  0  0  0
  4  9  1  0  0  0  0
  4  3  1  0  0  0  0
  5 11  1  1  0  0  0
  5  6  1  0  0  0  0
  5  4  1  0  0  0  0
  6 12  1  1  0  0  0
 10  4  1  0  0  0  0
 13  1  1  0  0  0  0
 14 13  1  0  0  0  0
 15  5  1  0  0  0  0
 16 15  1  0  0  0  0
 17 18  1  0  0  0  0
 18 19  2  0  0  0  0
 18 23  1  0  0  0  0
 19 20  1  0  0  0  0
 20 26  1  0  0  0  0
 20 21  2  0  0  0  0
 22 25  1  0  0  0  0
 22 21  1  0  0  0  0
 23 22  2  0  0  0  0
 24 19  1  0  0  0  0
 26 29  1  0  0  0  0
 27 26  1  0  0  0  0
 27 30  1  0  0  0  0
 28 33  1  0  0  0  0
 28 27  1  0  0  0  0
 28 26  1  0  0  0  0
 31 27  1  0  0  0  0
 32 28  1  0  0  0  0
 34 35  1  0  0  0  0
 34  6  1  0  0  0  0
 35 41  1  0  0  0  0
 36 35  2  0  0  0  0
 37 36  1  0  0  0  0
 37 39  2  0  0  0  0
 38 37  1  0  0  0  0
 39 40  1  0  0  0  0
 40 41  2  0  0  0  0
M  END
>  <minimizedAffinity>
-5.75363207

$$$$

 OpenBabel03242523533D

 41 44  0  0  1  0  0  0  0  0999 V2000
   38.8530   31.4140   40.8610 C   0  0  1  0  0  0  0  0  0  0  0  0
   38.3650   30.2300   41.6950 C   0  0  1  0  0  0  0  0  0  0  0  0
   37.0310   29.9450   41.3430 O   0  0  0  0  0  0  0  0  0  0  0  0
   36.2960   31.0840   41.0120 C   0  0  0  0  0  0  0  0  0  0  0  0
   36.7740   31.6720   39.6950 C   0  0  2  0  0  0  0  0  0  0  0  0
   38.2260   31.2140   39.4910 C   0  0  1  0  0  0  0  0  0  0  0  0
   39.9750   31.3630   40.7840 H   0  0  0  0  0  0  0  0  0  0  0  0
   38.4540   30.4740   42.7590 H   0  0  0  0  0  0  0  0  0  0  0  0
   35.2620   30.7220   40.8680 H   0  0  0  0  0  0  0  0  0  0  0  0
   36.2630   31.8120   41.8250 H   0  0  0  0  0  0  0  0  0  0  0  0
   36.1360   31.3930   38.8440 H   0  0  0  0  0  0  0  0  0  0  0  0
   38.2210   30.1180   39.2450 H   0  0  0  0  0  0  0  0  0  0  0  0
   38.4170   32.6170   41.4140 O   0  0  0  0  0  0  0  0  0  0  0  0
   39.2370   33.1710   41.5480 H   0  0  0  0  0  0  0  0  0  0  0  0
   36.8620   33.0600   39.8600 O   0  0  0  0  0  0  0  0  0  0  0  0
   37.1690   33.4240   38.9910 H   0  0  0  0  0  0  0  0  0  0  0  0
   39.0860   29.1190   41.2580 O   0  0  0  0  0  0  0  0  0  0  0  0
   39.3400   28.0260   41.9870 C   0  0  0  0  0  0  0  0  0  0  0  0
   38.6170   26.8520   41.7910 C   0  0  0  0  0  0  0  0  0  0  0  0
   38.9180   25.7450   42.5690 C   0  0  0  0  0  0  0  0  0  0  0  0
   39.9220   25.8360   43.5110 N   0  0  0  0  0  0  0  0  0  0  0  0
   40.6000   26.9830   43.6760 C   0  0  0  0  0  0  0  0  0  0  0  0
   40.3180   28.0750   42.9230 N   0  0  0  0  0  0  0  0  0  0  0  0
   37.8230   26.7550   41.0570 H   0  0  0  0  0  0  0  0  0  0  0  0
   41.3970   27.1050   44.4030 H   0  0  0  0  0  0  0  0  0  0  0  0
   38.1580   24.4590   42.4170 C   0  0  0  0  0  0  0  0  0  0  0  0
   36.8520   24.4990   41.6580 C   0  0  0  0  0  0  0  0  0  0  0  0
   38.1140   23.7960   41.1400 C   0  0  0  0  0  0  0  0  0  0  0  0
   38.1710   23.8600   43.3630 H   0  0  0  0  0  0  0  0  0  0  0  0
   36.0660   23.8290   42.0500 H   0  0  0  0  0  0  0  0  0  0  0  0
   36.5900   25.4830   41.2710 H   0  0  0  0  0  0  0  0  0  0  0  0
   38.4970   24.2830   40.2120 H   0  0  0  0  0  0  0  0  0  0  0  0
   38.0270   22.7010   41.0000 H   0  0  0  0  0  0  0  0  0  0  0  0
   38.8390   31.9480   38.4970 O   0  0  0  0  0  0  0  0  0  0  0  0
   40.0620   31.5970   37.9630 C   0  0  0  0  0  0  0  0  0  0  0  0
   40.8910   32.6570   37.6570 C   0  0  0  0  0  3  0  0  0  0  0  0
   42.1700   32.5120   37.1080 C   0  0  0  0  0  0  0  0  0  0  0  0
   42.8140   33.3250   36.8690 H   0  0  0  0  0  0  0  0  0  0  0  0
   42.6070   31.2470   36.8690 N   0  0  0  0  0  0  0  0  0  0  0  0
   41.7810   30.2240   37.1750 C   0  0  0  0  0  3  0  0  0  0  0  0
   40.5460   30.3470   37.7050 N   0  0  0  0  0  0  0  0  0  0  0  0
  1  7  1  6  0  0  0
  1 13  1  0  0  0  0
  1  2  1  0  0  0  0
  2  8  1  1  0  0  0
  3  2  1  0  0  0  0
  4  3  1  0  0  0  0
  4 10  1  0  0  0  0
  5 11  1  6  0  0  0
  5 15  1  0  0  0  0
  5  4  1  0  0  0  0
  6 12  1  6  0  0  0
  6  5  1  0  0  0  0
  6  1  1  0  0  0  0
  9  4  1  0  0  0  0
 13 14  1  0  0  0  0
 16 15  1  0  0  0  0
 17  2  1  0  0  0  0
 17 18  1  0  0  0  0
 18 23  1  0  0  0  0
 19 18  2  0  0  0  0
 19 20  1  0  0  0  0
 20 21  2  0  0  0  0
 21 22  1  0  0  0  0
 22 25  1  0  0  0  0
 23 22  2  0  0  0  0
 24 19  1  0  0  0  0
 26 20  1  0  0  0  0
 26 29  1  0  0  0  0
 27 30  1  0  0  0  0
 27 26  1  0  0  0  0
 28 27  1  0  0  0  0
 28 26  1  0  0  0  0
 31 27  1  0  0  0  0
 32 28  1  0  0  0  0
 33 28  1  0  0  0  0
 34  6  1  0  0  0  0
 35 34  1  0  0  0  0
 36 35  2  0  0  0  0
 37 36  1  0  0  0  0
 38 37  1  0  0  0  0
 39 37  2  0  0  0  0
 39 40  1  0  0  0  0
 40 41  2  0  0  0  0
 41 35  1  0  0  0  0
M  END
>  <minimizedAffinity>
-5.67424059

$$$$

 OpenBabel03242523533D

 41 44  0  0  1  0  0  0  0  0999 V2000
   36.9940   31.6240   39.8740 C   0  0  1  0  0  0  0  0  0  0  0  0
   37.3380   31.5490   38.3870 C   0  0  1  0  0  0  0  0  0  0  0  0
   38.7120   31.8080   38.2240 O   0  0  0  0  0  0  0  0  0  0  0  0
   39.2090   32.7330   39.1420 C   0  0  0  0  0  0  0  0  0  0  0  0
   39.2370   32.1440   40.5430 C   0  0  2  0  0  0  0  0  0  0  0  0
   38.1930   31.0180   40.5840 C   0  0  1  0  0  0  0  0  0  0  0  0
   36.0760   31.0010   40.0650 H   0  0  0  0  0  0  0  0  0  0  0  0
   36.7270   32.2720   37.8360 H   0  0  0  0  0  0  0  0  0  0  0  0
   40.2520   32.9140   38.8270 H   0  0  0  0  0  0  0  0  0  0  0  0
   38.6940   33.6950   39.0880 H   0  0  0  0  0  0  0  0  0  0  0  0
   40.2340   31.7860   40.8370 H   0  0  0  0  0  0  0  0  0  0  0  0
   38.5800   30.1530   39.9810 H   0  0  0  0  0  0  0  0  0  0  0  0
   36.8230   32.9490   40.2720 O   0  0  0  0  0  0  0  0  0  0  0  0
   35.9210   32.9950   40.6960 H   0  0  0  0  0  0  0  0  0  0  0  0
   38.7430   33.1170   41.4200 O   0  0  0  0  0  0  0  0  0  0  0  0
   38.7750   32.7150   42.3260 H   0  0  0  0  0  0  0  0  0  0  0  0
   37.1880   30.2110   38.0170 O   0  0  0  0  0  0  0  0  0  0  0  0
   36.3720   29.7610   37.0580 C   0  0  0  0  0  0  0  0  0  0  0  0
   35.0710   29.3630   37.3540 C   0  0  0  0  0  0  0  0  0  0  0  0
   34.2620   28.9060   36.3250 C   0  0  0  0  0  0  0  0  0  0  0  0
   34.7660   28.8590   35.0420 N   0  0  0  0  0  0  0  0  0  0  0  0
   36.0260   29.2490   34.7900 C   0  0  0  0  0  0  0  0  0  0  0  0
   36.8300   29.6980   35.7840 N   0  0  0  0  0  0  0  0  0  0  0  0
   34.6510   29.3920   38.3550 H   0  0  0  0  0  0  0  0  0  0  0  0
   36.4680   29.2290   33.7970 H   0  0  0  0  0  0  0  0  0  0  0  0
   32.8580   28.4450   36.5880 C   0  0  0  0  0  0  0  0  0  0  0  0
   31.8750   29.4550   37.1350 C   0  0  0  0  0  0  0  0  0  0  0  0
   31.7880   28.8650   35.7210 C   0  0  0  0  0  0  0  0  0  0  0  0
   32.8400   27.4260   37.0510 H   0  0  0  0  0  0  0  0  0  0  0  0
   31.1480   29.0490   37.8610 H   0  0  0  0  0  0  0  0  0  0  0  0
   32.2910   30.4520   37.2750 H   0  0  0  0  0  0  0  0  0  0  0  0
   31.9370   29.6530   34.9440 H   0  0  0  0  0  0  0  0  0  0  0  0
   30.8780   28.2720   35.5070 H   0  0  0  0  0  0  0  0  0  0  0  0
   37.9250   30.6430   41.8850 O   0  0  0  0  0  0  0  0  0  0  0  0
   38.0140   29.3340   42.3120 C   0  0  0  0  0  0  0  0  0  0  0  0
   37.0030   28.5060   41.8700 C   0  0  0  0  0  3  0  0  0  0  0  0
   36.9120   27.1480   42.1900 C   0  0  0  0  0  0  0  0  0  0  0  0
   36.1350   26.5030   41.8520 H   0  0  0  0  0  0  0  0  0  0  0  0
   37.8850   26.6270   42.9850 N   0  0  0  0  0  0  0  0  0  0  0  0
   38.8650   27.4540   43.4080 C   0  0  0  0  0  3  0  0  0  0  0  0
   38.9660   28.7650   43.1070 N   0  0  0  0  0  0  0  0  0  0  0  0
  1  7  1  1  0  0  0
  1 13  1  0  0  0  0
  1  6  1  0  0  0  0
  2  8  1  6  0  0  0
  2  1  1  0  0  0  0
  3  2  1  0  0  0  0
  3  4  1  0  0  0  0
  4  5  1  0  0  0  0
  5  6  1  0  0  0  0
  5 11  1  1  0  0  0
  5 15  1  0  0  0  0
  6 12  1  6  0  0  0
  6 34  1  0  0  0  0
  9  4  1  0  0  0  0
 10  4  1  0  0  0  0
 13 14  1  0  0  0  0
 15 16  1  0  0  0  0
 17  2  1  0  0  0  0
 18 19  1  0  0  0  0
 18 17  1  0  0  0  0
 19 24  1  0  0  0  0
 20 26  1  0  0  0  0
 20 19  2  0  0  0  0
 21 20  1  0  0  0  0
 22 21  2  0  0  0  0
 22 23  1  0  0  0  0
 23 18  2  0  0  0  0
 25 22  1  0  0  0  0
 26 29  1  0  0  0  0
 26 27  1  0  0  0  0
 27 31  1  0  0  0  0
 27 30  1  0  0  0  0
 28 26  1  0  0  0  0
 28 27  1  0  0  0  0
 32 28  1  0  0  0  0
 33 28  1  0  0  0  0
 34 35  1  0  0  0  0
 35 41  1  0  0  0  0
 36 37  1  0  0  0  0
 36 35  2  0  0  0  0
 37 39  2  0  0  0  0
 38 37  1  0  0  0  0
 39 40  1  0  0  0  0
 41 40  2  0  0  0  0
M  END
>  <minimizedAffinity>
-5.66087389

$$$$

 OpenBabel03242523533D

 41 44  0  0  1  0  0  0  0  0999 V2000
   37.7580   31.3020   40.3310 C   0  0  1  0  0  0  0  0  0  0  0  0
   37.9830   31.2100   38.8220 C   0  0  1  0  0  0  0  0  0  0  0  0
   39.0860   32.0150   38.4770 O   0  0  0  0  0  0  0  0  0  0  0  0
   39.1930   33.1640   39.2600 C   0  0  0  0  0  0  0  0  0  0  0  0
   39.5870   32.8110   40.6850 C   0  0  2  0  0  0  0  0  0  0  0  0
   39.1530   31.3590   40.9320 C   0  0  1  0  0  0  0  0  0  0  0  0
   37.2260   30.3710   40.6750 H   0  0  0  0  0  0  0  0  0  0  0  0
   37.0750   31.5300   38.2990 H   0  0  0  0  0  0  0  0  0  0  0  0
   40.0220   33.7380   38.8090 H   0  0  0  0  0  0  0  0  0  0  0  0
   38.3050   33.7970   39.2000 H   0  0  0  0  0  0  0  0  0  0  0  0
   40.6590   32.9550   40.8810 H   0  0  0  0  0  0  0  0  0  0  0  0
   39.8330   30.6810   40.3500 H   0  0  0  0  0  0  0  0  0  0  0  0
   37.0530   32.4610   40.6530 O   0  0  0  0  0  0  0  0  0  0  0  0
   36.2580   32.1630   41.1780 H   0  0  0  0  0  0  0  0  0  0  0  0
   38.7850   33.5720   41.5450 O   0  0  0  0  0  0  0  0  0  0  0  0
   39.0610   33.3320   42.4660 H   0  0  0  0  0  0  0  0  0  0  0  0
   38.4100   29.9050   38.5690 O   0  0  0  0  0  0  0  0  0  0  0  0
   37.6910   28.7990   38.7930 C   0  0  0  0  0  0  0  0  0  0  0  0
   38.1770   27.7840   39.6120 C   0  0  0  0  0  0  0  0  0  0  0  0
   37.3940   26.6580   39.8160 C   0  0  0  0  0  0  0  0  0  0  0  0
   36.1600   26.5760   39.2050 N   0  0  0  0  0  0  0  0  0  0  0  0
   35.7200   27.5730   38.4200 C   0  0  0  0  0  0  0  0  0  0  0  0
   36.4730   28.6800   38.2100 N   0  0  0  0  0  0  0  0  0  0  0  0
   39.1440   27.8250   40.1040 H   0  0  0  0  0  0  0  0  0  0  0  0
   34.7580   27.5540   37.9170 H   0  0  0  0  0  0  0  0  0  0  0  0
   37.8750   25.5220   40.6720 C   0  0  0  0  0  0  0  0  0  0  0  0
   36.8830   24.8830   41.6160 C   0  0  0  0  0  0  0  0  0  0  0  0
   37.4580   24.1760   40.3810 C   0  0  0  0  0  0  0  0  0  0  0  0
   38.9000   25.7190   41.0780 H   0  0  0  0  0  0  0  0  0  0  0  0
   37.3060   24.5600   42.5840 H   0  0  0  0  0  0  0  0  0  0  0  0
   35.8830   25.3130   41.5710 H   0  0  0  0  0  0  0  0  0  0  0  0
   36.6590   23.9570   39.6320 H   0  0  0  0  0  0  0  0  0  0  0  0
   38.0590   23.2700   40.5880 H   0  0  0  0  0  0  0  0  0  0  0  0
   39.1790   31.0600   42.2790 O   0  0  0  0  0  0  0  0  0  0  0  0
   38.9550   29.7860   42.7600 C   0  0  0  0  0  0  0  0  0  0  0  0
   40.0510   28.9490   42.7250 C   0  0  0  0  0  3  0  0  0  0  0  0
   40.0310   27.6210   43.1650 C   0  0  0  0  0  0  0  0  0  0  0  0
   40.8730   26.9690   43.1400 H   0  0  0  0  0  0  0  0  0  0  0  0
   38.8560   27.1430   43.6540 N   0  0  0  0  0  0  0  0  0  0  0  0
   37.7960   27.9780   43.6800 C   0  0  0  0  0  3  0  0  0  0  0  0
   37.8000   29.2600   43.2590 N   0  0  0  0  0  0  0  0  0  0  0  0
  1 13  1  0  0  0  0
  1  7  1  1  0  0  0
  1  6  1  0  0  0  0
  2  8  1  6  0  0  0
  2  1  1  0  0  0  0
  3  2  1  0  0  0  0
  3  4  1  0  0  0  0
  4  5  1  0  0  0  0
  5 11  1  1  0  0  0
  5  6  1  0  0  0  0
  5 15  1  0  0  0  0
  6 12  1  6  0  0  0
  6 34  1  0  0  0  0
  9  4  1  0  0  0  0
 10  4  1  0  0  0  0
 13 14  1  0  0  0  0
 15 16  1  0  0  0  0
 17 18  1  0  0  0  0
 17  2  1  0  0  0  0
 18 19  1  0  0  0  0
 19 20  2  0  0  0  0
 19 24  1  0  0  0  0
 20 26  1  0  0  0  0
 21 20  1  0  0  0  0
 22 21  2  0  0  0  0
 23 22  1  0  0  0  0
 23 18  2  0  0  0  0
 25 22  1  0  0  0  0
 26 29  1  0  0  0  0
 26 27  1  0  0  0  0
 27 30  1  0  0  0  0
 28 33  1  0  0  0  0
 28 26  1  0  0  0  0
 28 27  1  0  0  0  0
 31 27  1  0  0  0  0
 32 28  1  0  0  0  0
 34 35  1  0  0  0  0
 35 41  1  0  0  0  0
 36 35  2  0  0  0  0
 36 37  1  0  0  0  0
 37 39  2  0  0  0  0
 38 37  1  0  0  0  0
 39 40  1  0  0  0  0
 41 40  2  0  0  0  0
M  END
>  <minimizedAffinity>
-5.64721918

$$$$

 OpenBabel03242523533D

 41 44  0  0  1  0  0  0  0  0999 V2000
   38.4800   30.3590   39.5320 C   0  0  1  0  0  0  0  0  0  0  0  0
   38.1680   30.8070   40.9590 C   0  0  1  0  0  0  0  0  0  0  0  0
   37.3470   31.9500   40.9090 O   0  0  0  0  0  0  0  0  0  0  0  0
   37.6300   32.7810   39.8240 C   0  0  0  0  0  0  0  0  0  0  0  0
   37.2140   32.1250   38.5180 C   0  0  2  0  0  0  0  0  0  0  0  0
   37.1970   30.6080   38.7550 C   0  0  1  0  0  0  0  0  0  0  0  0
   38.7180   29.2590   39.5420 H   0  0  0  0  0  0  0  0  0  0  0  0
   39.1050   31.0110   41.4890 H   0  0  0  0  0  0  0  0  0  0  0  0
   36.9950   33.6730   39.9770 H   0  0  0  0  0  0  0  0  0  0  0  0
   38.6650   33.1310   39.8230 H   0  0  0  0  0  0  0  0  0  0  0  0
   36.2460   32.4900   38.1450 H   0  0  0  0  0  0  0  0  0  0  0  0
   36.3170   30.3600   39.4070 H   0  0  0  0  0  0  0  0  0  0  0  0
   39.5180   31.1190   38.9940 O   0  0  0  0  0  0  0  0  0  0  0  0
   40.2070   30.4650   38.6890 H   0  0  0  0  0  0  0  0  0  0  0  0
   38.2480   32.3280   37.5960 O   0  0  0  0  0  0  0  0  0  0  0  0
   37.9550   31.8990   36.7520 H   0  0  0  0  0  0  0  0  0  0  0  0
   37.3540   29.8170   41.5120 O   0  0  0  0  0  0  0  0  0  0  0  0
   37.7850   28.6630   42.0340 C   0  0  0  0  0  0  0  0  0  0  0  0
   37.1260   27.4670   41.7660 C   0  0  0  0  0  0  0  0  0  0  0  0
   37.6130   26.2960   42.3270 C   0  0  0  0  0  0  0  0  0  0  0  0
   38.7310   26.3490   43.1320 N   0  0  0  0  0  0  0  0  0  0  0  0
   39.3440   27.5200   43.3720 C   0  0  0  0  0  0  0  0  0  0  0  0
   38.8810   28.6730   42.8310 N   0  0  0  0  0  0  0  0  0  0  0  0
   36.2450   27.3980   41.1350 H   0  0  0  0  0  0  0  0  0  0  0  0
   40.2260   27.6140   43.9990 H   0  0  0  0  0  0  0  0  0  0  0  0
   36.9310   24.9790   42.0900 C   0  0  0  0  0  0  0  0  0  0  0  0
   36.6960   24.5560   40.6580 C   0  0  0  0  0  0  0  0  0  0  0  0
   37.6870   23.8570   41.5980 C   0  0  0  0  0  0  0  0  0  0  0  0
   36.0860   24.8190   42.8060 H   0  0  0  0  0  0  0  0  0  0  0  0
   35.7480   24.0150   40.4840 H   0  0  0  0  0  0  0  0  0  0  0  0
   37.0680   25.2620   39.9170 H   0  0  0  0  0  0  0  0  0  0  0  0
   38.7370   23.9690   41.2350 H   0  0  0  0  0  0  0  0  0  0  0  0
   37.4620   22.7970   41.8240 H   0  0  0  0  0  0  0  0  0  0  0  0
   37.1420   29.9240   37.5580 O   0  0  0  0  0  0  0  0  0  0  0  0
   35.9620   29.4340   37.0370 C   0  0  0  0  0  0  0  0  0  0  0  0
   34.9990   29.1180   37.9740 C   0  0  0  0  0  3  0  0  0  0  0  0
   33.7370   28.6080   37.6510 C   0  0  0  0  0  0  0  0  0  0  0  0
   32.9890   28.3620   38.3690 H   0  0  0  0  0  0  0  0  0  0  0  0
   33.4570   28.4190   36.3340 N   0  0  0  0  0  0  0  0  0  0  0  0
   34.4130   28.7340   35.4340 C   0  0  0  0  0  3  0  0  0  0  0  0
   35.6340   29.2270   35.7290 N   0  0  0  0  0  0  0  0  0  0  0  0
  1  7  1  6  0  0  0
  1  2  1  0  0  0  0
  2  8  1  1  0  0  0
  2 17  1  0  0  0  0
  3  2  1  0  0  0  0
  4  9  1  0  0  0  0
  4  3  1  0  0  0  0
  5 11  1  6  0  0  0
  5  6  1  0  0  0  0
  5  4  1  0  0  0  0
  6 12  1  1  0  0  0
  6  1  1  0  0  0  0
 10  4  1  0  0  0  0
 13  1  1  0  0  0  0
 14 13  1  0  0  0  0
 15  5  1  0  0  0  0
 16 15  1  0  0  0  0
 17 18  1  0  0  0  0
 18 23  1  0  0  0  0
 19 18  2  0  0  0  0
 19 20  1  0  0  0  0
 20 21  2  0  0  0  0
 21 22  1  0  0  0  0
 22 25  1  0  0  0  0
 23 22  2  0  0  0  0
 24 19  1  0  0  0  0
 26 20  1  0  0  0  0
 26 29  1  0  0  0  0
 27 28  1  0  0  0  0
 27 26  1  0  0  0  0
 28 33  1  0  0  0  0
 28 26  1  0  0  0  0
 30 27  1  0  0  0  0
 31 27  1  0  0  0  0
 32 28  1  0  0  0  0
 34  6  1  0  0  0  0
 35 34  1  0  0  0  0
 35 36  1  0  0  0  0
 37 36  2  0  0  0  0
 37 38  1  0  0  0  0
 39 37  1  0  0  0  0
 40 41  1  0  0  0  0
 40 39  2  0  0  0  0
 41 35  2  0  0  0  0
M  END
>  <minimizedAffinity>
-5.64024115

$$$$

 OpenBabel03242523533D

 41 44  0  0  1  0  0  0  0  0999 V2000
   37.7670   31.7300   40.1890 C   0  0  1  0  0  0  0  0  0  0  0  0
   38.1050   31.7020   38.6990 C   0  0  1  0  0  0  0  0  0  0  0  0
   39.3370   32.3530   38.5000 O   0  0  0  0  0  0  0  0  0  0  0  0
   39.5410   33.4210   39.3740 C   0  0  0  0  0  0  0  0  0  0  0  0
   39.7560   32.9230   40.7940 C   0  0  2  0  0  0  0  0  0  0  0  0
   39.0990   31.5390   40.8970 C   0  0  1  0  0  0  0  0  0  0  0  0
   37.0800   30.8690   40.4200 H   0  0  0  0  0  0  0  0  0  0  0  0
   37.3010   32.1860   38.1350 H   0  0  0  0  0  0  0  0  0  0  0  0
   40.4800   33.8930   39.0320 H   0  0  0  0  0  0  0  0  0  0  0  0
   38.7610   34.1820   39.2960 H   0  0  0  0  0  0  0  0  0  0  0  0
   40.8170   32.8920   41.0810 H   0  0  0  0  0  0  0  0  0  0  0  0
   39.7220   30.8060   40.3170 H   0  0  0  0  0  0  0  0  0  0  0  0
   37.2100   32.9580   40.5430 O   0  0  0  0  0  0  0  0  0  0  0  0
   36.3390   32.7490   40.9830 H   0  0  0  0  0  0  0  0  0  0  0  0
   39.0010   33.7380   41.6450 O   0  0  0  0  0  0  0  0  0  0  0  0
   39.1590   33.4020   42.5640 H   0  0  0  0  0  0  0  0  0  0  0  0
   38.3600   30.3670   38.3800 O   0  0  0  0  0  0  0  0  0  0  0  0
   37.5200   29.3470   38.5900 C   0  0  0  0  0  0  0  0  0  0  0  0
   36.2350   29.3580   38.0550 C   0  0  0  0  0  0  0  0  0  0  0  0
   35.4010   28.2770   38.2980 C   0  0  0  0  0  0  0  0  0  0  0  0
   35.8660   27.2260   39.0590 N   0  0  0  0  0  0  0  0  0  0  0  0
   37.1110   27.2460   39.5630 C   0  0  0  0  0  0  0  0  0  0  0  0
   37.9390   28.2950   39.3340 N   0  0  0  0  0  0  0  0  0  0  0  0
   35.8460   30.1730   37.4520 H   0  0  0  0  0  0  0  0  0  0  0  0
   37.5230   26.4440   40.1680 H   0  0  0  0  0  0  0  0  0  0  0  0
   33.9980   28.2430   37.7640 C   0  0  0  0  0  0  0  0  0  0  0  0
   33.7200   28.9700   36.4680 C   0  0  0  0  0  0  0  0  0  0  0  0
   33.6880   27.4420   36.6090 C   0  0  0  0  0  0  0  0  0  0  0  0
   33.2440   28.3680   38.5810 H   0  0  0  0  0  0  0  0  0  0  0  0
   32.7320   29.4600   36.4140 H   0  0  0  0  0  0  0  0  0  0  0  0
   34.5950   29.4490   36.0280 H   0  0  0  0  0  0  0  0  0  0  0  0
   34.4870   26.9620   35.9950 H   0  0  0  0  0  0  0  0  0  0  0  0
   32.7070   26.9660   36.4150 H   0  0  0  0  0  0  0  0  0  0  0  0
   38.9660   31.1540   42.2150 O   0  0  0  0  0  0  0  0  0  0  0  0
   38.7210   29.8470   42.5840 C   0  0  0  0  0  0  0  0  0  0  0  0
   39.8380   29.0390   42.6450 C   0  0  0  0  0  3  0  0  0  0  0  0
   39.8020   27.6860   42.9980 C   0  0  0  0  0  0  0  0  0  0  0  0
   40.6600   27.0570   43.0470 H   0  0  0  0  0  0  0  0  0  0  0  0
   38.5880   27.1500   43.2960 N   0  0  0  0  0  0  0  0  0  0  0  0
   37.5080   27.9580   43.2300 C   0  0  0  0  0  3  0  0  0  0  0  0
   37.5270   29.2640   42.8920 N   0  0  0  0  0  0  0  0  0  0  0  0
  1  7  1  1  0  0  0
  1 13  1  0  0  0  0
  1  6  1  0  0  0  0
  2  8  1  6  0  0  0
  2  1  1  0  0  0  0
  3  2  1  0  0  0  0
  3  4  1  0  0  0  0
  4  5  1  0  0  0  0
  5  6  1  0  0  0  0
  5 11  1  1  0  0  0
  5 15  1  0  0  0  0
  6 12  1  6  0  0  0
  6 34  1  0  0  0  0
  9  4  1  0  0  0  0
 10  4  1  0  0  0  0
 13 14  1  0  0  0  0
 15 16  1  0  0  0  0
 17 18  1  0  0  0  0
 17  2  1  0  0  0  0
 18 23  1  0  0  0  0
 19 20  1  0  0  0  0
 19 18  2  0  0  0  0
 20 21  2  0  0  0  0
 21 22  1  0  0  0  0
 22 25  1  0  0  0  0
 23 22  2  0  0  0  0
 24 19  1  0  0  0  0
 26 20  1  0  0  0  0
 26 29  1  0  0  0  0
 27 28  1  0  0  0  0
 27 26  1  0  0  0  0
 28 26  1  0  0  0  0
 30 27  1  0  0  0  0
 31 27  1  0  0  0  0
 32 28  1  0  0  0  0
 33 28  1  0  0  0  0
 34 35  1  0  0  0  0
 35 36  2  0  0  0  0
 35 41  1  0  0  0  0
 36 37  1  0  0  0  0
 37 38  1  0  0  0  0
 37 39  2  0  0  0  0
 40 39  1  0  0  0  0
 41 40  2  0  0  0  0
M  END
>  <minimizedAffinity>
-5.61506939

$$$$

 OpenBabel03242523533D

 41 44  0  0  1  0  0  0  0  0999 V2000
   37.0000   29.8730   40.9510 C   0  0  1  0  0  0  0  0  0  0  0  0
   38.2170   30.6890   40.5150 C   0  0  1  0  0  0  0  0  0  0  0  0
   39.2860   30.4130   41.3890 O   0  0  0  0  0  0  0  0  0  0  0  0
   38.8750   30.1770   42.7020 C   0  0  0  0  0  0  0  0  0  0  0  0
   38.1300   28.8570   42.8050 C   0  0  2  0  0  0  0  0  0  0  0  0
   37.5670   28.5400   41.4120 C   0  0  1  0  0  0  0  0  0  0  0  0
   36.3300   29.7200   40.0590 H   0  0  0  0  0  0  0  0  0  0  0  0
   37.9610   31.7530   40.5190 H   0  0  0  0  0  0  0  0  0  0  0  0
   39.8110   30.0880   43.2810 H   0  0  0  0  0  0  0  0  0  0  0  0
   38.3240   31.0200   43.1260 H   0  0  0  0  0  0  0  0  0  0  0  0
   38.7590   28.0390   43.1860 H   0  0  0  0  0  0  0  0  0  0  0  0
   38.4210   28.2510   40.7420 H   0  0  0  0  0  0  0  0  0  0  0  0
   36.3400   30.5010   42.0060 O   0  0  0  0  0  0  0  0  0  0  0  0
   35.3910   30.6030   41.7140 H   0  0  0  0  0  0  0  0  0  0  0  0
   37.0000   29.0720   43.6030 O   0  0  0  0  0  0  0  0  0  0  0  0
   36.5330   28.1990   43.6630 H   0  0  0  0  0  0  0  0  0  0  0  0
   38.6240   30.1610   39.2890 O   0  0  0  0  0  0  0  0  0  0  0  0
   39.6390   30.6200   38.5480 C   0  0  0  0  0  0  0  0  0  0  0  0
   40.5870   29.7500   38.0150 C   0  0  0  0  0  0  0  0  0  0  0  0
   41.6180   30.2740   37.2510 C   0  0  0  0  0  0  0  0  0  0  0  0
   41.6770   31.6360   37.0410 N   0  0  0  0  0  0  0  0  0  0  0  0
   40.7470   32.4480   37.5700 C   0  0  0  0  0  0  0  0  0  0  0  0
   39.7330   31.9530   38.3190 N   0  0  0  0  0  0  0  0  0  0  0  0
   40.5620   28.6750   38.1660 H   0  0  0  0  0  0  0  0  0  0  0  0
   40.7510   33.5260   37.4330 H   0  0  0  0  0  0  0  0  0  0  0  0
   42.6800   29.3870   36.6690 C   0  0  0  0  0  0  0  0  0  0  0  0
   43.2710   29.7790   35.3330 C   0  0  0  0  0  0  0  0  0  0  0  0
   44.0530   29.8220   36.6540 C   0  0  0  0  0  0  0  0  0  0  0  0
   42.4350   28.3040   36.8100 H   0  0  0  0  0  0  0  0  0  0  0  0
   43.5160   28.9320   34.6680 H   0  0  0  0  0  0  0  0  0  0  0  0
   42.8660   30.7020   34.9200 H   0  0  0  0  0  0  0  0  0  0  0  0
   44.3400   30.8670   36.9200 H   0  0  0  0  0  0  0  0  0  0  0  0
   44.9290   29.1490   36.7110 H   0  0  0  0  0  0  0  0  0  0  0  0
   36.6210   27.5380   41.4800 O   0  0  0  0  0  0  0  0  0  0  0  0
   36.8980   26.2320   41.1280 C   0  0  0  0  0  0  0  0  0  0  0  0
   37.3830   25.4440   42.1500 C   0  0  0  0  0  3  0  0  0  0  0  0
   37.7240   24.0950   41.9990 C   0  0  0  0  0  0  0  0  0  0  0  0
   38.0990   23.4810   42.7840 H   0  0  0  0  0  0  0  0  0  0  0  0
   37.5600   23.5440   40.7670 N   0  0  0  0  0  0  0  0  0  0  0  0
   37.0840   24.3330   39.7800 C   0  0  0  0  0  3  0  0  0  0  0  0
   36.7510   25.6340   39.9110 N   0  0  0  0  0  0  0  0  0  0  0  0
  1  7  1  6  0  0  0
  1  6  1  0  0  0  0
  1 13  1  0  0  0  0
  2  8  1  6  0  0  0
  2  1  1  0  0  0  0
  2  3  1  0  0  0  0
  3  4  1  0  0  0  0
  4  5  1  0  0  0  0
  4 10  1  0  0  0  0
  4  9  1  0  0  0  0
  5 11  1  1  0  0  0
  5 15  1  0  0  0  0
  6 12  1  6  0  0  0
  6 34  1  0  0  0  0
  6  5  1  0  0  0  0
 14 13  1  0  0  0  0
 15 16  1  0  0  0  0
 17  2  1  0  0  0  0
 18 17  1  0  0  0  0
 19 24  1  0  0  0  0
 19 18  2  0  0  0  0
 20 19  1  0  0  0  0
 21 20  2  0  0  0  0
 21 22  1  0  0  0  0
 22 23  2  0  0  0  0
 23 18  1  0  0  0  0
 25 22  1  0  0  0  0
 26 29  1  0  0  0  0
 26 20  1  0  0  0  0
 27 28  1  0  0  0  0
 27 26  1  0  0  0  0
 28 26  1  0  0  0  0
 28 33  1  0  0  0  0
 28 32  1  0  0  0  0
 30 27  1  0  0  0  0
 31 27  1  0  0  0  0
 35 34  1  0  0  0  0
 35 36  1  0  0  0  0
 37 36  2  0  0  0  0
 37 38  1  0  0  0  0
 39 37  1  0  0  0  0
 40 41  1  0  0  0  0
 40 39  2  0  0  0  0
 41 35  2  0  0  0  0
M  END
>  <minimizedAffinity>
-5.53672695

$$$$

 OpenBabel03242523533D

 41 44  0  0  1  0  0  0  0  0999 V2000
   40.7590   31.2310   39.6490 C   0  0  1  0  0  0  0  0  0  0  0  0
   41.5350   31.5630   40.9230 C   0  0  1  0  0  0  0  0  0  0  0  0
   41.6090   32.9630   41.0590 O   0  0  0  0  0  0  0  0  0  0  0  0
   41.7020   33.6280   39.8360 C   0  0  0  0  0  0  0  0  0  0  0  0
   40.3970   33.5280   39.0660 C   0  0  2  0  0  0  0  0  0  0  0  0
   39.6610   32.2800   39.5750 C   0  0  1  0  0  0  0  0  0  0  0  0
   40.3070   30.2060   39.7580 H   0  0  0  0  0  0  0  0  0  0  0  0
   42.5320   31.1130   40.8680 H   0  0  0  0  0  0  0  0  0  0  0  0
   41.8620   34.6890   40.1020 H   0  0  0  0  0  0  0  0  0  0  0  0
   42.5730   33.3170   39.2550 H   0  0  0  0  0  0  0  0  0  0  0  0
   39.7760   34.4310   39.1550 H   0  0  0  0  0  0  0  0  0  0  0  0
   39.2810   32.4900   40.6110 H   0  0  0  0  0  0  0  0  0  0  0  0
   41.5860   31.3270   38.5310 O   0  0  0  0  0  0  0  0  0  0  0  0
   41.5160   30.4490   38.0610 H   0  0  0  0  0  0  0  0  0  0  0  0
   40.7140   33.2340   37.7340 O   0  0  0  0  0  0  0  0  0  0  0  0
   39.8510   33.1790   37.2490 H   0  0  0  0  0  0  0  0  0  0  0  0
   40.7330   31.1510   41.9880 O   0  0  0  0  0  0  0  0  0  0  0  0
   40.6880   29.9110   42.4880 C   0  0  0  0  0  0  0  0  0  0  0  0
   39.4720   29.2610   42.6820 C   0  0  0  0  0  0  0  0  0  0  0  0
   39.4770   27.9750   43.1990 C   0  0  0  0  0  0  0  0  0  0  0  0
   40.6810   27.3770   43.5070 N   0  0  0  0  0  0  0  0  0  0  0  0
   41.8380   28.0320   43.3100 C   0  0  0  0  0  0  0  0  0  0  0  0
   41.8500   29.2890   42.8040 N   0  0  0  0  0  0  0  0  0  0  0  0
   38.5120   29.7100   42.4470 H   0  0  0  0  0  0  0  0  0  0  0  0
   42.8100   27.6040   43.5370 H   0  0  0  0  0  0  0  0  0  0  0  0
   38.1960   27.2330   43.4490 C   0  0  0  0  0  0  0  0  0  0  0  0
   36.9440   28.0490   43.6790 C   0  0  0  0  0  0  0  0  0  0  0  0
   37.1800   27.1890   42.4290 C   0  0  0  0  0  0  0  0  0  0  0  0
   38.3540   26.3550   44.1240 H   0  0  0  0  0  0  0  0  0  0  0  0
   36.2420   27.6230   44.4190 H   0  0  0  0  0  0  0  0  0  0  0  0
   37.0960   29.1260   43.6250 H   0  0  0  0  0  0  0  0  0  0  0  0
   37.2420   27.8200   41.5110 H   0  0  0  0  0  0  0  0  0  0  0  0
   36.4680   26.3550   42.2830 H   0  0  0  0  0  0  0  0  0  0  0  0
   38.6310   31.9340   38.7230 O   0  0  0  0  0  0  0  0  0  0  0  0
   37.5530   31.1780   39.1340 C   0  0  0  0  0  0  0  0  0  0  0  0
   37.1920   31.3460   40.4550 C   0  0  0  0  0  3  0  0  0  0  0  0
   36.1280   30.6730   41.0640 C   0  0  0  0  0  0  0  0  0  0  0  0
   35.8450   30.7980   42.0830 H   0  0  0  0  0  0  0  0  0  0  0  0
   35.4160   29.8050   40.2960 N   0  0  0  0  0  0  0  0  0  0  0  0
   35.7860   29.6550   39.0060 C   0  0  0  0  0  3  0  0  0  0  0  0
   36.8090   30.2970   38.4040 N   0  0  0  0  0  0  0  0  0  0  0  0
  1  7  1  1  0  0  0
  1  2  1  0  0  0  0
  2  8  1  1  0  0  0
  2  3  1  0  0  0  0
  2 17  1  0  0  0  0
  4  9  1  0  0  0  0
  4  3  1  0  0  0  0
  5 11  1  1  0  0  0
  5  6  1  0  0  0  0
  5  4  1  0  0  0  0
  6  1  1  0  0  0  0
  6 12  1  1  0  0  0
 10  4  1  0  0  0  0
 13  1  1  0  0  0  0
 14 13  1  0  0  0  0
 15  5  1  0  0  0  0
 16 15  1  0  0  0  0
 17 18  1  0  0  0  0
 18 19  2  0  0  0  0
 18 23  1  0  0  0  0
 19 20  1  0  0  0  0
 20 26  1  0  0  0  0
 20 21  2  0  0  0  0
 22 21  1  0  0  0  0
 22 25  1  0  0  0  0
 23 22  2  0  0  0  0
 24 19  1  0  0  0  0
 26 27  1  0  0  0  0
 26 29  1  0  0  0  0
 27 30  1  0  0  0  0
 28 26  1  0  0  0  0
 28 27  1  0  0  0  0
 31 27  1  0  0  0  0
 32 28  1  0  0  0  0
 33 28  1  0  0  0  0
 34 35  1  0  0  0  0
 34  6  1  0  0  0  0
 35 36  1  0  0  0  0
 36 37  2  0  0  0  0
 37 38  1  0  0  0  0
 39 37  1  0  0  0  0
 40 39  2  0  0  0  0
 41 40  1  0  0  0  0
 41 35  2  0  0  0  0
M  END
>  <minimizedAffinity>
-5.4597187

$$$$
