
 OpenBabel03252506093D

 28 30  0  0  0  0  0  0  0  0999 V2000
   45.1850   33.4260   41.1330 F   0  0  0  0  0  0  0  0  0  0  0  0
   46.3520   34.0420   41.0030 C   0  0  0  0  0  0  0  0  0  0  0  0
   46.8550   34.7840   42.0530 C   0  0  0  0  0  0  0  0  0  0  0  0
   48.0580   35.4530   42.0000 C   0  0  0  0  0  0  0  0  0  0  0  0
   48.8250   35.3940   40.8350 C   0  0  0  0  0  0  0  0  0  0  0  0
   48.2840   34.6410   39.8080 C   0  0  0  0  0  0  0  0  0  0  0  0
   47.0740   33.9600   39.8450 C   0  0  0  0  0  0  0  0  0  0  0  0
   48.3960   36.0180   42.8620 H   0  0  0  0  0  0  0  0  0  0  0  0
   49.7580   35.8980   40.7580 H   0  0  0  0  0  0  0  0  0  0  0  0
   48.9310   34.6320   38.9190 H   0  0  0  0  0  0  0  0  0  0  0  0
   45.4710   34.0100   45.3830 C   0  0  0  0  0  0  0  0  0  0  0  0
   44.6340   35.1290   45.6080 C   0  0  0  0  0  0  0  0  0  0  0  0
   44.5510   36.1270   44.6270 C   0  0  0  0  0  0  0  0  0  0  0  0
   45.2960   35.9500   43.5020 N   0  0  0  0  0  0  0  0  0  0  0  0
   46.0870   34.8800   43.3060 C   0  0  0  0  0  0  0  0  0  0  0  0
   46.1600   33.9390   44.2410 N   0  0  0  0  0  0  0  0  0  0  0  0
   44.0770   35.1860   46.5310 H   0  0  0  0  0  0  0  0  0  0  0  0
   43.9250   36.9790   44.7730 H   0  0  0  0  0  0  0  0  0  0  0  0
   45.5530   33.0040   46.3770 N   0  0  0  0  0  0  0  0  0  0  0  0
   44.9900   32.1430   46.2370 H   0  0  0  0  0  0  0  0  0  0  0  0
   46.1380   33.0700   47.2370 H   0  0  0  0  0  0  0  0  0  0  0  0
   46.7140   33.2450   38.6610 C   0  0  0  0  0  0  0  0  0  0  0  0
   45.6510   32.3980   38.4620 C   0  0  0  0  0  0  0  0  0  0  0  0
   45.3480   31.7290   37.2970 C   0  0  0  0  0  0  0  0  0  0  0  0
   44.4850   31.0800   37.2370 H   0  0  0  0  0  0  0  0  0  0  0  0
   46.1580   31.9110   36.2380 N   0  0  0  0  0  0  0  0  0  0  0  0
   47.2120   32.7340   36.3880 C   0  0  0  0  0  0  0  0  0  0  0  0
   47.4570   33.3570   37.5480 N   0  0  0  0  0  0  0  0  0  0  0  0
  2  1  1  0  0  0  0
  2  3  1  0  0  0  0
  3 15  1  0  0  0  0
  4  3  2  0  0  0  0
  4  8  1  0  0  0  0
  5  4  1  0  0  0  0
  6  7  1  0  0  0  0
  6  5  2  0  0  0  0
  7  2  2  0  0  0  0
  9  5  1  0  0  0  0
 10  6  1  0  0  0  0
 11 12  1  0  0  0  0
 11 19  1  0  0  0  0
 12 17  1  0  0  0  0
 13 18  1  0  0  0  0
 13 12  2  0  0  0  0
 14 13  1  0  0  0  0
 15 14  2  0  0  0  0
 15 16  1  0  0  0  0
 16 11  2  0  0  0  0
 19 21  1  0  0  0  0
 20 19  1  0  0  0  0
 22  7  1  0  0  0  0
 23 22  1  0  0  0  0
 24 23  2  0  0  0  0
 25 24  1  0  0  0  0
 26 27  2  0  0  0  0
 26 24  1  0  0  0  0
 27 28  1  0  0  0  0
 28 22  2  0  0  0  0
M  END
>  <minimizedAffinity>
-6.06819916

>  <minimizedRMSD>
0.172111765

$$$$
