
 OpenBabel03242517313D

 45 48  0  0  1  0  0  0  0  0999 V2000
   45.0040   34.7150   44.9650 C   0  0  0  0  0  0  0  0  0  0  0  0
   45.8820   34.5930   43.8530 C   0  0  0  0  0  0  0  0  0  0  0  0
   46.9490   33.6940   43.9460 C   0  0  0  0  0  0  0  0  0  0  0  0
   47.0940   32.9750   45.1000 N   0  0  0  0  0  0  0  0  0  0  0  0
   46.2680   33.0970   46.1320 C   0  0  0  0  0  0  0  0  0  0  0  0
   45.2470   33.9660   46.0290 N   0  0  0  0  0  0  0  0  0  0  0  0
   46.4720   32.3400   47.2700 N   0  0  0  0  0  0  0  0  0  0  0  0
   47.7260   32.4260   47.9890 C   0  0  0  0  0  0  0  0  0  0  0  0
   47.9500   31.3010   48.9470 C   0  0  0  0  0  0  0  0  0  0  0  0
   46.8130   30.7160   49.5460 N   0  0  0  0  0  0  0  0  0  0  0  0
   45.5900   31.4090   49.2350 C   0  0  0  0  0  0  0  0  0  0  0  0
   45.4070   31.4400   47.7580 C   0  0  2  0  0  0  0  0  0  0  0  0
   44.1710   35.4010   44.9240 H   0  0  0  0  0  0  0  0  0  0  0  0
   45.7210   35.1840   42.9660 H   0  0  0  0  0  0  0  0  0  0  0  0
   47.6280   33.5850   43.1130 H   0  0  0  0  0  0  0  0  0  0  0  0
   47.7520   33.3890   48.5280 H   0  0  0  0  0  0  0  0  0  0  0  0
   48.5720   32.4490   47.2630 H   0  0  0  0  0  0  0  0  0  0  0  0
   48.5400   30.5080   48.4150 H   0  0  0  0  0  0  0  0  0  0  0  0
   48.6420   31.6800   49.7410 H   0  0  0  0  0  0  0  0  0  0  0  0
   46.8700   30.6600   50.6070 H   0  0  0  0  0  0  0  0  0  0  0  0
   44.7380   31.0920   49.8360 H   0  0  0  0  0  0  0  0  0  0  0  0
   45.7750   32.4810   49.5430 H   0  0  0  0  0  0  0  0  0  0  0  0
   44.4410   31.8790   47.4820 H   0  0  0  0  0  0  0  0  0  0  0  0
   45.5060   30.0830   47.1200 C   0  0  0  0  0  0  0  0  0  0  0  0
   46.5420   29.7470   46.9820 H   0  0  0  0  0  0  0  0  0  0  0  0
   45.0120   30.0530   46.1390 H   0  0  0  0  0  0  0  0  0  0  0  0
   44.7750   29.1270   48.0280 C   0  0  0  0  0  0  0  0  0  0  0  0
   45.0220   27.8240   47.9830 C   0  0  0  0  0  0  0  0  0  0  0  0
   44.3730   26.7780   48.8240 C   0  0  0  0  0  0  0  0  0  0  0  0
   45.1140   26.4190   49.5650 H   0  0  0  0  0  0  0  0  0  0  0  0
   43.5300   27.2120   49.3860 H   0  0  0  0  0  0  0  0  0  0  0  0
   43.9260   25.6380   47.9420 C   0  0  2  0  0  0  0  0  0  0  0  0
   44.7100   25.3680   46.6920 C   0  0  0  0  0  0  0  0  0  0  0  0
   43.3130   25.9240   46.6230 C   0  0  1  0  0  0  0  0  0  0  0  0
   43.6040   24.7430   48.5090 H   0  0  0  0  0  0  0  0  0  0  0  0
   44.8540   24.3040   46.3930 H   0  0  0  0  0  0  0  0  0  0  0  0
   45.5490   26.0220   46.3970 H   0  0  0  0  0  0  0  0  0  0  0  0
   43.1500   26.9790   46.3730 H   0  0  0  0  0  0  0  0  0  0  0  0
   42.2090   25.0440   46.1170 C   0  0  0  0  0  0  0  0  0  0  0  0
   40.8990   25.4770   46.2560 C   0  0  0  0  0  0  0  0  0  0  0  0
   39.9200   24.6230   45.7710 C   0  0  0  0  0  0  0  0  0  0  0  0
   38.9030   24.9930   45.8950 H   0  0  0  0  0  0  0  0  0  0  0  0
   40.1900   23.4470   45.1990 N   0  0  0  0  0  0  0  0  0  0  0  0
   41.4770   23.0650   45.0850 C   0  0  0  0  0  0  0  0  0  0  0  0
   42.4810   23.8430   45.5340 N   0  0  0  0  0  0  0  0  0  0  0  0
  1  6  1  0  0  0  0
  2  3  1  0  0  0  0
  2  1  2  0  0  0  0
  3  4  2  0  0  0  0
  4  5  1  0  0  0  0
  5  7  1  0  0  0  0
  6  5  2  0  0  0  0
  7 12  1  0  0  0  0
  7  8  1  0  0  0  0
  8 16  1  0  0  0  0
  8  9  1  0  0  0  0
  9 10  1  0  0  0  0
  9 19  1  0  0  0  0
 10 20  1  0  0  0  0
 11 22  1  0  0  0  0
 11 10  1  0  0  0  0
 11 21  1  0  0  0  0
 12 23  1  6  0  0  0
 12 11  1  0  0  0  0
 13  1  1  0  0  0  0
 14  2  1  0  0  0  0
 15  3  1  0  0  0  0
 17  8  1  0  0  0  0
 18  9  1  0  0  0  0
 24 12  1  0  0  0  0
 24 27  1  0  0  0  0
 25 24  1  0  0  0  0
 26 24  1  0  0  0  0
 28 27  2  0  0  0  0
 28 29  1  0  0  0  0
 29 31  1  0  0  0  0
 29 30  1  0  0  0  0
 32 35  1  1  0  0  0
 32 29  1  0  0  0  0
 33 32  1  0  0  0  0
 34 38  1  6  0  0  0
 34 33  1  0  0  0  0
 34 32  1  0  0  0  0
 36 33  1  0  0  0  0
 37 33  1  0  0  0  0
 39 40  1  0  0  0  0
 39 34  1  0  0  0  0
 41 42  1  0  0  0  0
 41 40  2  0  0  0  0
 43 41  1  0  0  0  0
 44 43  2  0  0  0  0
 44 45  1  0  0  0  0
 45 39  2  0  0  0  0
M  END
>  <minimizedAffinity>
-5.97466373

>  <minimizedRMSD>
1.06820977

$$$$
