
 OpenBabel03252509043D

 46 48  0  0  1  0  0  0  0  0999 V2000
   46.8380   34.3830   43.3420 N   0  0  0  0  0  0  0  0  0  0  0  0
   46.5200   34.8660   42.0490 C   0  0  0  0  0  0  0  0  0  0  0  0
   45.0530   34.8090   41.6830 C   0  0  0  0  0  0  0  0  0  0  0  0
   44.1080   34.9860   42.8470 C   0  0  0  0  0  0  0  0  0  0  0  0
   44.8560   35.3130   44.1190 C   0  0  0  0  0  0  0  0  0  0  0  0
   45.8560   34.1020   44.2700 C   0  0  2  0  0  0  0  0  0  0  0  0
   46.8000   35.9570   42.0360 H   0  0  0  0  0  0  0  0  0  0  0  0
   47.0670   34.4300   41.2070 H   0  0  0  0  0  0  0  0  0  0  0  0
   44.8470   33.8550   41.1270 H   0  0  0  0  0  0  0  0  0  0  0  0
   44.8170   35.6280   40.9580 H   0  0  0  0  0  0  0  0  0  0  0  0
   43.2630   35.6600   42.6340 H   0  0  0  0  0  0  0  0  0  0  0  0
   43.6490   33.9750   43.0340 H   0  0  0  0  0  0  0  0  0  0  0  0
   45.4340   36.2400   44.0600 H   0  0  0  0  0  0  0  0  0  0  0  0
   44.1230   35.2760   44.9470 H   0  0  0  0  0  0  0  0  0  0  0  0
   45.2390   33.1890   44.1390 H   0  0  0  0  0  0  0  0  0  0  0  0
   48.0720   33.6270   43.4000 C   0  0  0  0  0  0  0  0  0  0  0  0
   48.8250   34.2280   42.8460 H   0  0  0  0  0  0  0  0  0  0  0  0
   48.4610   33.5560   44.4470 H   0  0  0  0  0  0  0  0  0  0  0  0
   47.8570   32.3160   42.7430 C   0  0  0  0  0  0  0  0  0  0  0  0
   47.7870   31.5160   43.4810 H   0  0  0  0  0  0  0  0  0  0  0  0
   46.8630   32.2900   42.2010 H   0  0  0  0  0  0  0  0  0  0  0  0
   51.3120   32.0600   41.2640 C   0  0  0  0  0  0  0  0  0  0  0  0
   50.2450   32.2860   42.1560 C   0  0  0  0  0  0  0  0  0  0  0  0
   48.9580   32.0680   41.7790 C   0  0  0  0  0  0  0  0  0  0  0  0
   48.7580   31.6330   40.5320 N   0  0  0  0  0  0  0  0  0  0  0  0
   49.7560   31.4100   39.6630 C   0  0  0  0  0  0  0  0  0  0  0  0
   51.0380   31.6180   40.0090 N   0  0  0  0  0  0  0  0  0  0  0  0
   52.3300   32.2190   41.5210 H   0  0  0  0  0  0  0  0  0  0  0  0
   50.5860   32.6320   43.1150 H   0  0  0  0  0  0  0  0  0  0  0  0
   49.4470   31.0570   38.6830 H   0  0  0  0  0  0  0  0  0  0  0  0
   46.2880   34.2690   45.5650 O   0  0  0  0  0  0  0  0  0  0  0  0
   45.5830   31.6960   45.6860 O   0  0  0  0  0  0  0  0  0  0  0  0
   46.0960   32.9030   46.5050 P   0  0  2  0  0  0  0  0  0  0  0  0
   44.7850   33.2320   47.5780 O   0  0  0  0  0  0  0  0  0  0  0  0
   44.9480   34.1420   47.9480 H   0  0  0  0  0  0  0  0  0  0  0  0
   47.4010   32.4940   47.4280 O   0  0  0  0  0  0  0  0  0  0  0  0
   47.5290   31.1340   47.5320 C   0  0  0  0  0  0  0  0  0  0  0  0
   47.6510   30.7690   46.4620 H   0  0  0  0  0  0  0  0  0  0  0  0
   46.4980   30.7440   47.7880 H   0  0  0  0  0  0  0  0  0  0  0  0
   48.5600   30.6070   48.4110 C   0  0  0  0  0  0  0  0  0  0  0  0
   49.0530   31.6220   49.2400 C   0  0  0  0  0  3  0  0  0  0  0  0
   50.0230   31.2630   50.1830 C   0  0  0  0  0  0  0  0  0  0  0  0
   50.4690   31.9890   50.8790 H   0  0  0  0  0  0  0  0  0  0  0  0
   50.4870   30.0080   50.3200 N   0  0  0  0  0  0  0  0  0  0  0  0
   49.9820   29.0700   49.5000 C   0  0  0  0  0  3  0  0  0  0  0  0
   49.0490   29.3470   48.5710 N   0  0  0  0  0  0  0  0  0  0  0  0
  1 16  1  0  0  0  0
  1  6  1  0  0  0  0
  2  1  1  0  0  0  0
  3  2  1  0  0  0  0
  3  4  1  0  0  0  0
  4 12  1  0  0  0  0
  4  5  1  0  0  0  0
  5  6  1  0  0  0  0
  5 14  1  0  0  0  0
  6 15  1  6  0  0  0
  6 31  1  0  0  0  0
  7  2  1  0  0  0  0
  8  2  1  0  0  0  0
  9  3  1  0  0  0  0
 10  3  1  0  0  0  0
 11  4  1  0  0  0  0
 13  5  1  0  0  0  0
 16 18  1  0  0  0  0
 17 16  1  0  0  0  0
 19 16  1  0  0  0  0
 19 20  1  0  0  0  0
 21 19  1  0  0  0  0
 22 28  1  0  0  0  0
 22 23  1  0  0  0  0
 23 29  1  0  0  0  0
 24 23  2  0  0  0  0
 24 19  1  0  0  0  0
 25 24  1  0  0  0  0
 26 27  1  0  0  0  0
 26 25  2  0  0  0  0
 27 22  2  0  0  0  0
 30 26  1  0  0  0  0
 31 33  1  0  0  0  0
 33 32  2  6  0  0  0
 33 36  1  0  0  0  0
 33 34  1  0  0  0  0
 34 35  1  0  0  0  0
 36 37  1  0  0  0  0
 37 39  1  0  0  0  0
 37 40  1  0  0  0  0
 38 37  1  0  0  0  0
 40 46  2  0  0  0  0
 40 41  1  0  0  0  0
 41 42  2  0  0  0  0
 42 44  1  0  0  0  0
 42 43  1  0  0  0  0
 45 44  2  0  0  0  0
 46 45  1  0  0  0  0
M  END
>  <minimizedAffinity>
-4.99249077

>  <minimizedRMSD>
4.12107944

$$$$
