
 OpenBabel03242522343D

 19 20  0  0  0  0  0  0  0  0999 V2000
   35.6250   29.4220   40.6780 C   0  0  0  0  0  0  0  0  0  0  0  0
   35.1360   28.6160   40.0950 H   0  0  0  0  0  0  0  0  0  0  0  0
   34.8490   29.9800   41.2490 H   0  0  0  0  0  0  0  0  0  0  0  0
   38.1870   28.8480   43.3250 C   0  0  0  0  0  0  0  0  0  0  0  0
   38.3370   27.4580   43.2880 C   0  0  0  0  0  0  0  0  0  0  0  0
   37.5590   26.7520   42.3590 C   0  0  0  0  0  0  0  0  0  0  0  0
   36.7130   27.4430   41.5540 N   0  0  0  0  0  0  0  0  0  0  0  0
   36.5930   28.7920   41.6190 C   0  0  0  0  0  0  0  0  0  0  0  0
   37.3400   29.4670   42.5100 N   0  0  0  0  0  0  0  0  0  0  0  0
   38.7840   29.3780   44.0360 H   0  0  0  0  0  0  0  0  0  0  0  0
   38.9920   26.8710   43.9020 H   0  0  0  0  0  0  0  0  0  0  0  0
   37.5700   25.6710   42.2160 H   0  0  0  0  0  0  0  0  0  0  0  0
   36.3010   30.3310   39.7370 C   0  0  0  0  0  0  0  0  0  0  0  0
   36.6460   29.8710   38.4610 C   0  0  0  0  0  3  0  0  0  0  0  0
   37.2860   30.6760   37.5220 C   0  0  0  0  0  0  0  0  0  0  0  0
   37.5290   30.2710   36.5560 H   0  0  0  0  0  0  0  0  0  0  0  0
   37.5650   31.9370   37.8950 N   0  0  0  0  0  0  0  0  0  0  0  0
   37.2470   32.4250   39.1240 C   0  0  0  0  0  3  0  0  0  0  0  0
   36.6300   31.5970   39.9870 N   0  0  0  0  0  0  0  0  0  0  0  0
  1  3  1  0  0  0  0
  1  8  1  0  0  0  0
  2  1  1  0  0  0  0
  4 10  1  0  0  0  0
  5  4  1  0  0  0  0
  5 11  1  0  0  0  0
  6  5  2  0  0  0  0
  7  8  2  0  0  0  0
  7  6  1  0  0  0  0
  8  9  1  0  0  0  0
  9  4  2  0  0  0  0
 12  6  1  0  0  0  0
 13 19  1  0  0  0  0
 13  1  1  0  0  0  0
 14 13  2  0  0  0  0
 15 17  2  0  0  0  0
 15 14  1  0  0  0  0
 16 15  1  0  0  0  0
 17 18  1  0  0  0  0
 18 19  2  0  0  0  0
M  END
>  <minimizedAffinity>
-3.99469256

$$$$

 OpenBabel03242522343D

 19 20  0  0  0  0  0  0  0  0999 V2000
   36.6930   27.3990   42.9810 C   0  0  0  0  0  0  0  0  0  0  0  0
   37.1450   27.7470   43.9310 H   0  0  0  0  0  0  0  0  0  0  0  0
   35.6660   27.0190   43.1840 H   0  0  0  0  0  0  0  0  0  0  0  0
   37.3630   30.6110   41.2100 C   0  0  0  0  0  0  0  0  0  0  0  0
   36.3610   30.6200   40.2350 C   0  0  0  0  0  0  0  0  0  0  0  0
   35.4810   29.5280   40.2070 C   0  0  0  0  0  0  0  0  0  0  0  0
   35.6450   28.5330   41.1150 N   0  0  0  0  0  0  0  0  0  0  0  0
   36.6290   28.5580   42.0470 C   0  0  0  0  0  0  0  0  0  0  0  0
   37.4710   29.6060   42.0720 N   0  0  0  0  0  0  0  0  0  0  0  0
   38.0290   31.4470   41.2250 H   0  0  0  0  0  0  0  0  0  0  0  0
   36.1940   31.3820   39.4990 H   0  0  0  0  0  0  0  0  0  0  0  0
   34.6560   29.3990   39.5070 H   0  0  0  0  0  0  0  0  0  0  0  0
   37.5280   26.3140   42.4390 C   0  0  0  0  0  0  0  0  0  0  0  0
   36.9440   25.0760   42.1470 C   0  0  0  0  0  3  0  0  0  0  0  0
   37.6730   24.0070   41.6320 C   0  0  0  0  0  0  0  0  0  0  0  0
   37.1740   23.0770   41.4270 H   0  0  0  0  0  0  0  0  0  0  0  0
   38.9850   24.2130   41.4230 N   0  0  0  0  0  0  0  0  0  0  0  0
   39.5930   25.4000   41.6920 C   0  0  0  0  0  3  0  0  0  0  0  0
   38.8330   26.3940   42.1880 N   0  0  0  0  0  0  0  0  0  0  0  0
  1  3  1  0  0  0  0
  1  2  1  0  0  0  0
  4 10  1  0  0  0  0
  4  9  1  0  0  0  0
  5  4  2  0  0  0  0
  6  5  1  0  0  0  0
  6  7  2  0  0  0  0
  7  8  1  0  0  0  0
  8  9  2  0  0  0  0
  8  1  1  0  0  0  0
 11  5  1  0  0  0  0
 12  6  1  0  0  0  0
 13  1  1  0  0  0  0
 14 13  2  0  0  0  0
 15 14  1  0  0  0  0
 16 15  1  0  0  0  0
 17 15  2  0  0  0  0
 17 18  1  0  0  0  0
 18 19  2  0  0  0  0
 19 13  1  0  0  0  0
M  END
>  <minimizedAffinity>
-3.93420506

$$$$

 OpenBabel03242522343D

 19 20  0  0  0  0  0  0  0  0999 V2000
   39.2390   30.0870   42.4780 C   0  0  0  0  0  0  0  0  0  0  0  0
   40.2590   29.8620   42.1080 H   0  0  0  0  0  0  0  0  0  0  0  0
   39.3100   30.5180   43.5030 H   0  0  0  0  0  0  0  0  0  0  0  0
   36.9450   31.8160   40.1020 C   0  0  0  0  0  0  0  0  0  0  0  0
   37.6160   33.0230   39.8760 C   0  0  0  0  0  0  0  0  0  0  0  0
   38.8350   33.2150   40.5420 C   0  0  0  0  0  0  0  0  0  0  0  0
   39.2960   32.2340   41.3590 N   0  0  0  0  0  0  0  0  0  0  0  0
   38.6170   31.0760   41.5540 C   0  0  0  0  0  0  0  0  0  0  0  0
   37.4490   30.8940   40.9150 N   0  0  0  0  0  0  0  0  0  0  0  0
   36.0170   31.6780   39.5900 H   0  0  0  0  0  0  0  0  0  0  0  0
   37.2910   33.8230   39.2410 H   0  0  0  0  0  0  0  0  0  0  0  0
   39.4650   34.1000   40.4630 H   0  0  0  0  0  0  0  0  0  0  0  0
   38.4720   28.8300   42.5180 C   0  0  0  0  0  0  0  0  0  0  0  0
   37.4980   28.6480   43.5080 C   0  0  0  0  0  3  0  0  0  0  0  0
   36.7370   27.4870   43.6050 C   0  0  0  0  0  0  0  0  0  0  0  0
   36.0030   27.3990   44.3850 H   0  0  0  0  0  0  0  0  0  0  0  0
   36.9780   26.5270   42.6930 N   0  0  0  0  0  0  0  0  0  0  0  0
   37.9140   26.6620   41.7160 C   0  0  0  0  0  3  0  0  0  0  0  0
   38.6170   27.8090   41.6760 N   0  0  0  0  0  0  0  0  0  0  0  0
  1 13  1  0  0  0  0
  1  3  1  0  0  0  0
  2  1  1  0  0  0  0
  4  9  1  0  0  0  0
  5  4  2  0  0  0  0
  5  6  1  0  0  0  0
  6  7  2  0  0  0  0
  7  8  1  0  0  0  0
  8  1  1  0  0  0  0
  9  8  2  0  0  0  0
 10  4  1  0  0  0  0
 11  5  1  0  0  0  0
 12  6  1  0  0  0  0
 13 14  1  0  0  0  0
 14 15  2  0  0  0  0
 15 16  1  0  0  0  0
 17 15  1  0  0  0  0
 18 17  2  0  0  0  0
 19 18  1  0  0  0  0
 19 13  2  0  0  0  0
M  END
>  <minimizedAffinity>
-3.91363931

$$$$

 OpenBabel03242522343D

 19 20  0  0  0  0  0  0  0  0999 V2000
   36.2380   30.7280   41.0030 C   0  0  0  0  0  0  0  0  0  0  0  0
   35.1400   30.6030   41.0920 H   0  0  0  0  0  0  0  0  0  0  0  0
   36.5300   31.7080   41.4440 H   0  0  0  0  0  0  0  0  0  0  0  0
   36.9870   27.4540   42.6190 C   0  0  0  0  0  0  0  0  0  0  0  0
   38.2540   27.6820   43.1660 C   0  0  0  0  0  0  0  0  0  0  0  0
   38.8200   28.9500   42.9690 C   0  0  0  0  0  0  0  0  0  0  0  0
   38.1200   29.8770   42.2670 N   0  0  0  0  0  0  0  0  0  0  0  0
   36.8930   29.6190   41.7510 C   0  0  0  0  0  0  0  0  0  0  0  0
   36.3530   28.4030   41.9410 N   0  0  0  0  0  0  0  0  0  0  0  0
   36.5630   26.4850   42.7740 H   0  0  0  0  0  0  0  0  0  0  0  0
   38.8430   26.9820   43.7260 H   0  0  0  0  0  0  0  0  0  0  0  0
   39.7950   29.2710   43.3350 H   0  0  0  0  0  0  0  0  0  0  0  0
   36.5940   30.7000   39.5740 C   0  0  0  0  0  0  0  0  0  0  0  0
   37.3300   31.7580   39.0260 C   0  0  0  0  0  3  0  0  0  0  0  0
   37.7000   31.7960   37.6850 C   0  0  0  0  0  0  0  0  0  0  0  0
   38.2650   32.6340   37.3160 H   0  0  0  0  0  0  0  0  0  0  0  0
   37.3170   30.7580   36.9200 N   0  0  0  0  0  0  0  0  0  0  0  0
   36.6030   29.7100   37.4120 C   0  0  0  0  0  3  0  0  0  0  0  0
   36.2750   29.7320   38.7170 N   0  0  0  0  0  0  0  0  0  0  0  0
  1  2  1  0  0  0  0
  1  3  1  0  0  0  0
  1  8  1  0  0  0  0
  4 10  1  0  0  0  0
  4  5  1  0  0  0  0
  5 11  1  0  0  0  0
  6  5  2  0  0  0  0
  6 12  1  0  0  0  0
  7  6  1  0  0  0  0
  8  9  1  0  0  0  0
  8  7  2  0  0  0  0
  9  4  2  0  0  0  0
 13  1  1  0  0  0  0
 14 13  1  0  0  0  0
 15 14  2  0  0  0  0
 16 15  1  0  0  0  0
 17 18  2  0  0  0  0
 17 15  1  0  0  0  0
 18 19  1  0  0  0  0
 19 13  2  0  0  0  0
M  END
>  <minimizedAffinity>
-3.90946627

$$$$

 OpenBabel03242522343D

 19 20  0  0  0  0  0  0  0  0999 V2000
   37.6050   28.3230   43.6790 C   0  0  0  0  0  0  0  0  0  0  0  0
   36.5120   28.1820   43.7930 H   0  0  0  0  0  0  0  0  0  0  0  0
   38.0330   28.6570   44.6530 H   0  0  0  0  0  0  0  0  0  0  0  0
   39.8920   25.4060   43.2930 C   0  0  0  0  0  0  0  0  0  0  0  0
   39.1550   24.5670   42.4500 C   0  0  0  0  0  0  0  0  0  0  0  0
   37.8950   25.0200   42.0350 C   0  0  0  0  0  0  0  0  0  0  0  0
   37.4610   26.2320   42.4660 N   0  0  0  0  0  0  0  0  0  0  0  0
   38.2040   27.0180   43.2840 C   0  0  0  0  0  0  0  0  0  0  0  0
   39.4120   26.5820   43.6800 N   0  0  0  0  0  0  0  0  0  0  0  0
   40.8520   25.0520   43.6040 H   0  0  0  0  0  0  0  0  0  0  0  0
   39.4570   23.6050   42.0850 H   0  0  0  0  0  0  0  0  0  0  0  0
   37.2110   24.4780   41.3820 H   0  0  0  0  0  0  0  0  0  0  0  0
   37.8350   29.3550   42.6550 C   0  0  0  0  0  0  0  0  0  0  0  0
   39.0760   30.0000   42.5920 C   0  0  0  0  0  3  0  0  0  0  0  0
   39.3620   30.9850   41.6500 C   0  0  0  0  0  0  0  0  0  0  0  0
   40.3320   31.4480   41.6460 H   0  0  0  0  0  0  0  0  0  0  0  0
   38.3800   31.2990   40.7850 N   0  0  0  0  0  0  0  0  0  0  0  0
   37.1610   30.6970   40.8100 C   0  0  0  0  0  3  0  0  0  0  0  0
   36.9470   29.7530   41.7450 N   0  0  0  0  0  0  0  0  0  0  0  0
  1  2  1  0  0  0  0
  1  3  1  0  0  0  0
  4 10  1  0  0  0  0
  4  9  1  0  0  0  0
  5  4  2  0  0  0  0
  6  5  1  0  0  0  0
  6  7  2  0  0  0  0
  7  8  1  0  0  0  0
  8  1  1  0  0  0  0
  8  9  2  0  0  0  0
 11  5  1  0  0  0  0
 12  6  1  0  0  0  0
 13  1  1  0  0  0  0
 14 13  1  0  0  0  0
 15 14  2  0  0  0  0
 16 15  1  0  0  0  0
 17 18  2  0  0  0  0
 17 15  1  0  0  0  0
 18 19  1  0  0  0  0
 19 13  2  0  0  0  0
M  END
>  <minimizedAffinity>
-3.87809515

$$$$

 OpenBabel03242522343D

 19 20  0  0  0  0  0  0  0  0999 V2000
   35.3320   29.1990   40.5260 C   0  0  0  0  0  0  0  0  0  0  0  0
   34.7510   29.5560   41.4000 H   0  0  0  0  0  0  0  0  0  0  0  0
   34.6260   28.8690   39.7290 H   0  0  0  0  0  0  0  0  0  0  0  0
   37.3700   32.3120   40.2950 C   0  0  0  0  0  0  0  0  0  0  0  0
   37.6950   32.3470   38.9350 C   0  0  0  0  0  0  0  0  0  0  0  0
   37.2100   31.3060   38.1310 C   0  0  0  0  0  0  0  0  0  0  0  0
   36.4600   30.3310   38.7050 N   0  0  0  0  0  0  0  0  0  0  0  0
   36.1650   30.3300   40.0290 C   0  0  0  0  0  0  0  0  0  0  0  0
   36.6310   31.3300   40.7970 N   0  0  0  0  0  0  0  0  0  0  0  0
   37.7440   33.1100   40.9000 H   0  0  0  0  0  0  0  0  0  0  0  0
   38.2830   33.0950   38.4390 H   0  0  0  0  0  0  0  0  0  0  0  0
   37.3810   31.2010   37.0600 H   0  0  0  0  0  0  0  0  0  0  0  0
   36.1650   28.0630   40.9540 C   0  0  0  0  0  0  0  0  0  0  0  0
   36.5790   27.9760   42.2890 C   0  0  0  0  0  3  0  0  0  0  0  0
   37.3660   26.9300   42.7620 C   0  0  0  0  0  0  0  0  0  0  0  0
   37.6560   26.9130   43.7980 H   0  0  0  0  0  0  0  0  0  0  0  0
   37.7220   25.9880   41.8700 N   0  0  0  0  0  0  0  0  0  0  0  0
   37.3430   26.0340   40.5660 C   0  0  0  0  0  3  0  0  0  0  0  0
   36.5820   27.0710   40.1700 N   0  0  0  0  0  0  0  0  0  0  0  0
  1 13  1  0  0  0  0
  1  2  1  0  0  0  0
  3  1  1  0  0  0  0
  4  9  1  0  0  0  0
  4 10  1  0  0  0  0
  5  4  2  0  0  0  0
  6  7  2  0  0  0  0
  6  5  1  0  0  0  0
  7  8  1  0  0  0  0
  8  1  1  0  0  0  0
  8  9  2  0  0  0  0
 11  5  1  0  0  0  0
 12  6  1  0  0  0  0
 13 14  1  0  0  0  0
 14 15  2  0  0  0  0
 15 16  1  0  0  0  0
 17 15  1  0  0  0  0
 18 17  2  0  0  0  0
 19 18  1  0  0  0  0
 19 13  2  0  0  0  0
M  END
>  <minimizedAffinity>
-3.87475538

$$$$

 OpenBabel03242522343D

 19 20  0  0  0  0  0  0  0  0999 V2000
   38.0960   28.9360   43.3190 C   0  0  0  0  0  0  0  0  0  0  0  0
   38.9780   29.3970   43.8070 H   0  0  0  0  0  0  0  0  0  0  0  0
   37.2130   29.0400   43.9900 H   0  0  0  0  0  0  0  0  0  0  0  0
   38.5030   30.5620   39.9900 C   0  0  0  0  0  0  0  0  0  0  0  0
   37.2010   30.9970   39.7170 C   0  0  0  0  0  0  0  0  0  0  0  0
   36.2180   30.7230   40.6790 C   0  0  0  0  0  0  0  0  0  0  0  0
   36.5730   30.0600   41.8080 N   0  0  0  0  0  0  0  0  0  0  0  0
   37.8460   29.6540   42.0380 C   0  0  0  0  0  0  0  0  0  0  0  0
   38.7880   29.9170   41.1150 N   0  0  0  0  0  0  0  0  0  0  0  0
   39.2460   30.7750   39.2520 H   0  0  0  0  0  0  0  0  0  0  0  0
   36.8750   31.5220   38.8410 H   0  0  0  0  0  0  0  0  0  0  0  0
   35.1660   31.0000   40.6040 H   0  0  0  0  0  0  0  0  0  0  0  0
   38.3840   27.5100   43.0920 C   0  0  0  0  0  0  0  0  0  0  0  0
   39.5170   26.9330   43.6800 C   0  0  0  0  0  3  0  0  0  0  0  0
   39.8490   25.5920   43.5080 C   0  0  0  0  0  0  0  0  0  0  0  0
   40.7310   25.2010   43.9810 H   0  0  0  0  0  0  0  0  0  0  0  0
   39.0240   24.8580   42.7400 N   0  0  0  0  0  0  0  0  0  0  0  0
   37.9130   25.3770   42.1520 C   0  0  0  0  0  3  0  0  0  0  0  0
   37.6470   26.6800   42.3570 N   0  0  0  0  0  0  0  0  0  0  0  0
  1  2  1  0  0  0  0
  1  3  1  0  0  0  0
  4  9  1  0  0  0  0
  5  4  2  0  0  0  0
  5  6  1  0  0  0  0
  6  7  2  0  0  0  0
  7  8  1  0  0  0  0
  8  1  1  0  0  0  0
  9  8  2  0  0  0  0
 10  4  1  0  0  0  0
 11  5  1  0  0  0  0
 12  6  1  0  0  0  0
 13  1  1  0  0  0  0
 13 14  1  0  0  0  0
 15 14  2  0  0  0  0
 15 16  1  0  0  0  0
 17 15  1  0  0  0  0
 18 19  1  0  0  0  0
 18 17  2  0  0  0  0
 19 13  2  0  0  0  0
M  END
>  <minimizedAffinity>
-3.83038116

$$$$

 OpenBabel03242522343D

 19 20  0  0  0  0  0  0  0  0999 V2000
   39.3040   29.7250   40.6580 C   0  0  0  0  0  0  0  0  0  0  0  0
   40.3120   29.8140   41.1100 H   0  0  0  0  0  0  0  0  0  0  0  0
   39.3850   29.1800   39.6900 H   0  0  0  0  0  0  0  0  0  0  0  0
   37.4550   28.5650   43.6800 C   0  0  0  0  0  0  0  0  0  0  0  0
   36.8000   27.4260   43.2010 C   0  0  0  0  0  0  0  0  0  0  0  0
   37.0060   27.0830   41.8570 C   0  0  0  0  0  0  0  0  0  0  0  0
   37.8200   27.8630   41.1000 N   0  0  0  0  0  0  0  0  0  0  0  0
   38.4390   28.9610   41.6000 C   0  0  0  0  0  0  0  0  0  0  0  0
   38.2400   29.2870   42.8880 N   0  0  0  0  0  0  0  0  0  0  0  0
   37.2920   28.8190   44.7050 H   0  0  0  0  0  0  0  0  0  0  0  0
   36.1490   26.7820   43.7600 H   0  0  0  0  0  0  0  0  0  0  0  0
   36.5640   26.2270   41.3470 H   0  0  0  0  0  0  0  0  0  0  0  0
   38.7800   31.0810   40.4230 C   0  0  0  0  0  0  0  0  0  0  0  0
   37.7050   31.2610   39.5440 C   0  0  0  0  0  3  0  0  0  0  0  0
   37.1590   32.5140   39.2760 C   0  0  0  0  0  0  0  0  0  0  0  0
   36.3340   32.5960   38.5920 H   0  0  0  0  0  0  0  0  0  0  0  0
   37.7160   33.5650   39.9040 N   0  0  0  0  0  0  0  0  0  0  0  0
   38.7610   33.4340   40.7650 C   0  0  0  0  0  3  0  0  0  0  0  0
   39.2430   32.1970   40.9830 N   0  0  0  0  0  0  0  0  0  0  0  0
  1  2  1  0  0  0  0
  1  8  1  0  0  0  0
  3  1  1  0  0  0  0
  4 10  1  0  0  0  0
  5  4  1  0  0  0  0
  5 11  1  0  0  0  0
  6  5  2  0  0  0  0
  7  8  2  0  0  0  0
  7  6  1  0  0  0  0
  8  9  1  0  0  0  0
  9  4  2  0  0  0  0
 12  6  1  0  0  0  0
 13  1  1  0  0  0  0
 13 19  1  0  0  0  0
 14 13  2  0  0  0  0
 15 14  1  0  0  0  0
 15 17  2  0  0  0  0
 16 15  1  0  0  0  0
 17 18  1  0  0  0  0
 18 19  2  0  0  0  0
M  END
>  <minimizedAffinity>
-3.77563906

$$$$

 OpenBabel03242522343D

 19 20  0  0  0  0  0  0  0  0999 V2000
   36.2140   30.6500   41.0310 C   0  0  0  0  0  0  0  0  0  0  0  0
   36.4630   31.6420   41.4600 H   0  0  0  0  0  0  0  0  0  0  0  0
   35.1200   30.4710   41.1410 H   0  0  0  0  0  0  0  0  0  0  0  0
   36.4540   29.8820   37.3920 C   0  0  0  0  0  0  0  0  0  0  0  0
   37.3840   30.8300   36.9540 C   0  0  0  0  0  0  0  0  0  0  0  0
   37.9060   31.7090   37.9150 C   0  0  0  0  0  0  0  0  0  0  0  0
   37.4880   31.5950   39.2010 N   0  0  0  0  0  0  0  0  0  0  0  0
   36.5830   30.6620   39.5880 C   0  0  0  0  0  0  0  0  0  0  0  0
   36.0850   29.8210   38.6660 N   0  0  0  0  0  0  0  0  0  0  0  0
   36.0610   29.2160   36.6530 H   0  0  0  0  0  0  0  0  0  0  0  0
   37.7420   30.9560   35.9520 H   0  0  0  0  0  0  0  0  0  0  0  0
   38.6350   32.4950   37.7220 H   0  0  0  0  0  0  0  0  0  0  0  0
   36.9640   29.6220   41.7720 C   0  0  0  0  0  0  0  0  0  0  0  0
   36.4290   28.3340   41.8950 C   0  0  0  0  0  3  0  0  0  0  0  0
   37.0840   27.3140   42.5800 C   0  0  0  0  0  0  0  0  0  0  0  0
   36.6280   26.3420   42.6450 H   0  0  0  0  0  0  0  0  0  0  0  0
   38.2720   27.6200   43.1310 N   0  0  0  0  0  0  0  0  0  0  0  0
   38.8280   28.8570   43.0360 C   0  0  0  0  0  3  0  0  0  0  0  0
   38.1450   29.8000   42.3600 N   0  0  0  0  0  0  0  0  0  0  0  0
  1  3  1  0  0  0  0
  1  2  1  0  0  0  0
  1 13  1  0  0  0  0
  4  9  1  0  0  0  0
  5  4  2  0  0  0  0
  5  6  1  0  0  0  0
  6  7  2  0  0  0  0
  7  8  1  0  0  0  0
  8  1  1  0  0  0  0
  9  8  2  0  0  0  0
 10  4  1  0  0  0  0
 11  5  1  0  0  0  0
 12  6  1  0  0  0  0
 13 14  2  0  0  0  0
 13 19  1  0  0  0  0
 14 15  1  0  0  0  0
 15 16  1  0  0  0  0
 15 17  2  0  0  0  0
 18 17  1  0  0  0  0
 19 18  2  0  0  0  0
M  END
>  <minimizedAffinity>
-3.77130532

$$$$
