
 OpenBabel03242516523D

 43 46  0  0  1  0  0  0  0  0999 V2000
   47.8420   32.9050   41.8300 C   0  0  1  0  0  0  0  0  0  0  0  0
   47.5420   32.2940   40.5350 C   0  0  0  0  0  0  0  0  0  0  0  0
   48.5710   32.8410   39.5520 C   0  0  0  0  0  0  0  0  0  0  0  0
   48.2340   34.2930   39.3380 C   0  0  0  0  0  0  0  0  0  0  0  0
   48.1510   35.0910   40.6030 C   0  0  0  0  0  0  0  0  0  0  0  0
   47.6390   34.4240   41.8090 C   0  0  1  0  0  0  0  0  0  0  0  0
   48.9570   32.8190   42.0170 H   0  0  0  0  0  0  0  0  0  0  0  0
   46.5480   32.4960   40.1450 H   0  0  0  0  0  0  0  0  0  0  0  0
   47.6580   31.1820   40.6430 H   0  0  0  0  0  0  0  0  0  0  0  0
   49.6060   32.7150   39.9070 H   0  0  0  0  0  0  0  0  0  0  0  0
   48.3640   32.3400   38.5720 H   0  0  0  0  0  0  0  0  0  0  0  0
   47.2880   34.3560   38.7300 H   0  0  0  0  0  0  0  0  0  0  0  0
   49.0310   34.7030   38.6790 H   0  0  0  0  0  0  0  0  0  0  0  0
   49.1740   35.5350   40.7730 H   0  0  0  0  0  0  0  0  0  0  0  0
   47.5200   35.9870   40.3800 H   0  0  0  0  0  0  0  0  0  0  0  0
   48.2220   34.7980   42.6940 H   0  0  0  0  0  0  0  0  0  0  0  0
   45.3930   30.9210   43.9080 C   0  0  0  0  0  0  0  0  0  0  0  0
   46.0820   31.4940   42.8360 C   0  0  0  0  0  0  0  0  0  0  0  0
   47.1800   32.3440   42.9890 C   0  0  0  0  0  0  0  0  0  0  0  0
   47.5480   32.5900   44.2470 N   0  0  0  0  0  0  0  0  0  0  0  0
   46.8860   32.0390   45.2970 C   0  0  0  0  0  0  0  0  0  0  0  0
   45.8390   31.2270   45.1440 N   0  0  0  0  0  0  0  0  0  0  0  0
   44.5630   30.2780   43.7460 H   0  0  0  0  0  0  0  0  0  0  0  0
   45.7380   31.2600   41.8180 H   0  0  0  0  0  0  0  0  0  0  0  0
   47.2480   32.2880   46.2860 H   0  0  0  0  0  0  0  0  0  0  0  0
   46.2510   34.7850   42.1060 C   0  0  0  0  0  0  0  0  0  0  0  0
   45.7830   35.3340   43.3030 C   0  0  0  0  0  0  0  0  0  0  0  0
   44.4150   35.6140   43.3570 C   0  0  0  0  0  0  0  0  0  0  0  0
   43.6510   35.3280   42.2380 C   0  0  0  0  0  0  0  0  0  0  0  0
   44.1320   34.7830   41.0560 C   0  0  0  0  0  0  0  0  0  0  0  0
   45.4710   34.5210   41.0340 N   0  0  0  0  0  0  0  0  0  0  0  0
   46.5020   35.4920   44.0730 H   0  0  0  0  0  0  0  0  0  0  0  0
   44.0420   36.0300   44.2600 H   0  0  0  0  0  0  0  0  0  0  0  0
   42.5940   35.5650   42.3320 H   0  0  0  0  0  0  0  0  0  0  0  0
   43.2330   34.5290   39.9380 C   0  0  0  0  0  0  0  0  0  0  0  0
   42.2540   35.3270   39.7920 O   0  0  0  0  0  0  0  0  0  0  0  0
   43.3150   33.4600   38.9500 C   0  0  0  0  0  0  0  0  0  0  0  0
   42.1750   32.7290   38.6980 C   0  0  0  0  0  3  0  0  0  0  0  0
   42.2160   31.6930   37.7580 C   0  0  0  0  0  0  0  0  0  0  0  0
   41.3340   31.1030   37.5420 H   0  0  0  0  0  0  0  0  0  0  0  0
   43.3840   31.4270   37.1120 N   0  0  0  0  0  0  0  0  0  0  0  0
   44.4810   32.1300   37.3530 C   0  0  0  0  0  3  0  0  0  0  0  0
   44.4010   33.1000   38.2480 N   0  0  0  0  0  0  0  0  0  0  0  0
  1  7  1  1  0  0  0
  1 19  1  0  0  0  0
  2  9  1  0  0  0  0
  2  1  1  0  0  0  0
  3 10  1  0  0  0  0
  3  2  1  0  0  0  0
  4  3  1  0  0  0  0
  4  5  1  0  0  0  0
  5 14  1  0  0  0  0
  5  6  1  0  0  0  0
  6  1  1  0  0  0  0
  6 26  1  0  0  0  0
  6 16  1  1  0  0  0
  8  2  1  0  0  0  0
 11  3  1  0  0  0  0
 12  4  1  0  0  0  0
 13  4  1  0  0  0  0
 15  5  1  0  0  0  0
 17 22  1  0  0  0  0
 18 19  1  0  0  0  0
 18 17  2  0  0  0  0
 19 20  2  0  0  0  0
 20 21  1  0  0  0  0
 21 25  1  0  0  0  0
 22 21  2  0  0  0  0
 23 17  1  0  0  0  0
 24 18  1  0  0  0  0
 26 27  1  0  0  0  0
 27 28  2  0  0  0  0
 27 32  1  0  0  0  0
 28 33  1  0  0  0  0
 29 34  1  0  0  0  0
 29 28  1  0  0  0  0
 30 29  2  0  0  0  0
 31 30  1  0  0  0  0
 31 26  2  0  0  0  0
 35 30  1  0  0  0  0
 36 35  2  0  0  0  0
 37 35  1  0  0  0  0
 38 37  1  0  0  0  0
 39 38  2  0  0  0  0
 40 39  1  0  0  0  0
 41 42  2  0  0  0  0
 41 39  1  0  0  0  0
 42 43  1  0  0  0  0
 43 37  2  0  0  0  0
M  END
>  <minimizedAffinity>
-5.45868492

>  <minimizedRMSD>
0.524372935

$$$$
