
 OpenBabel03252507083D

 22 23  0  0  0  0  0  0  0  0999 V2000
   44.5480   36.0060   44.4730 C   0  0  0  0  0  0  0  0  0  0  0  0
   45.1830   35.9660   43.2190 C   0  0  0  0  0  0  0  0  0  0  0  0
   46.0920   34.9250   42.9930 C   0  0  0  0  0  0  0  0  0  0  0  0
   46.3170   34.0180   43.9760 N   0  0  0  0  0  0  0  0  0  0  0  0
   45.6900   34.0830   45.1750 C   0  0  0  0  0  0  0  0  0  0  0  0
   44.8170   35.0680   45.4160 N   0  0  0  0  0  0  0  0  0  0  0  0
   43.8490   36.8420   44.5860 H   0  0  0  0  0  0  0  0  0  0  0  0
   44.9930   36.6950   42.4440 H   0  0  0  0  0  0  0  0  0  0  0  0
   45.9740   33.0780   46.1940 C   0  0  0  0  0  0  0  0  0  0  0  0
   46.9660   32.1510   45.9810 C   0  0  0  0  0  3  0  0  0  0  0  0
   47.1690   31.2410   46.9880 C   0  0  0  0  0  0  0  0  0  0  0  0
   47.9220   30.4550   46.9460 H   0  0  0  0  0  0  0  0  0  0  0  0
   46.4750   31.2110   48.1270 N   0  0  0  0  0  0  0  0  0  0  0  0
   45.4950   32.1440   48.3100 C   0  0  0  0  0  3  0  0  0  0  0  0
   45.2720   33.0510   47.3390 N   0  0  0  0  0  0  0  0  0  0  0  0
   46.7100   34.9020   41.7470 O   0  0  0  0  0  0  0  0  0  0  0  0
   48.6730   33.2780   41.0390 O   0  0  0  0  0  0  0  0  0  0  0  0
   48.4020   34.6330   41.6670 P   0  0  0  0  0  0  0  0  0  0  0  0
   49.0880   35.8800   40.7880 O   0  0  0  0  0  0  0  0  0  0  0  0
   50.0270   35.6290   40.5640 H   0  0  0  0  0  0  0  0  0  0  0  0
   48.9830   34.5950   43.2710 O   0  0  0  0  0  0  0  0  0  0  0  0
   48.7570   35.4990   43.6460 H   0  0  0  0  0  0  0  0  0  0  0  0
  1  7  1  0  0  0  0
  1  6  1  0  0  0  0
  2  1  2  0  0  0  0
  3  2  1  0  0  0  0
  3  4  2  0  0  0  0
  4  5  1  0  0  0  0
  5  6  2  0  0  0  0
  5  9  1  0  0  0  0
  8  2  1  0  0  0  0
  9 15  1  0  0  0  0
 10  9  2  0  0  0  0
 10 11  1  0  0  0  0
 11 13  2  0  0  0  0
 12 11  1  0  0  0  0
 13 14  1  0  0  0  0
 15 14  2  0  0  0  0
 16  3  1  0  0  0  0
 17 18  2  0  0  0  0
 18 16  1  0  0  0  0
 18 21  1  0  0  0  0
 19 18  1  0  0  0  0
 20 19  1  0  0  0  0
 21 22  1  0  0  0  0
M  END
>  <minimizedAffinity>
-5.66984367

>  <minimizedRMSD>
0.402166218

$$$$
