
 OpenBabel03242519583D

 26 28  0  0  0  0  0  0  0  0999 V2000
   44.7820   32.9080   41.2180 Br  0  0  0  0  0  0  0  0  0  0  0  0
   46.4000   33.9140   41.0030 C   0  0  0  0  0  0  0  0  0  0  0  0
   46.9090   34.7500   41.9840 C   0  0  0  0  0  0  0  0  0  0  0  0
   48.0690   35.4320   41.7380 C   0  0  0  0  0  0  0  0  0  0  0  0
   48.7490   35.3120   40.5410 C   0  0  0  0  0  0  0  0  0  0  0  0
   48.2600   34.4850   39.5510 C   0  0  0  0  0  0  0  0  0  0  0  0
   47.0950   33.8060   39.8100 C   0  0  0  0  0  0  0  0  0  0  0  0
   48.4450   36.0810   42.5280 H   0  0  0  0  0  0  0  0  0  0  0  0
   49.6650   35.8730   40.3920 H   0  0  0  0  0  0  0  0  0  0  0  0
   48.8320   34.4320   38.6420 H   0  0  0  0  0  0  0  0  0  0  0  0
   44.4980   35.8940   44.6830 C   0  0  0  0  0  0  0  0  0  0  0  0
   45.2170   35.8280   43.4840 C   0  0  0  0  0  0  0  0  0  0  0  0
   46.1500   34.8370   43.2300 C   0  0  0  0  0  0  0  0  0  0  0  0
   46.3090   33.9340   44.2440 N   0  0  0  0  0  0  0  0  0  0  0  0
   45.6150   33.9990   45.3960 C   0  0  0  0  0  0  0  0  0  0  0  0
   44.7220   34.9710   45.6070 N   0  0  0  0  0  0  0  0  0  0  0  0
   43.8190   36.7380   44.6930 H   0  0  0  0  0  0  0  0  0  0  0  0
   45.0970   36.5510   42.6620 H   0  0  0  0  0  0  0  0  0  0  0  0
   45.7690   33.2620   46.1800 H   0  0  0  0  0  0  0  0  0  0  0  0
   46.5460   32.9210   38.7890 C   0  0  0  0  0  0  0  0  0  0  0  0
   46.9380   31.6180   38.5880 C   0  0  0  0  0  0  0  0  0  0  0  0
   46.4200   30.7810   37.6220 C   0  0  0  0  0  0  0  0  0  0  0  0
   46.7700   29.7590   37.5100 H   0  0  0  0  0  0  0  0  0  0  0  0
   45.4570   31.2630   36.8100 N   0  0  0  0  0  0  0  0  0  0  0  0
   45.0480   32.5540   36.9870 C   0  0  0  0  0  0  0  0  0  0  0  0
   45.5780   33.3260   37.9330 N   0  0  0  0  0  0  0  0  0  0  0  0
  2  1  1  0  0  0  0
  2  3  1  0  0  0  0
  3 13  1  0  0  0  0
  4  3  2  0  0  0  0
  4  8  1  0  0  0  0
  5  4  1  0  0  0  0
  6  7  1  0  0  0  0
  6  5  2  0  0  0  0
  7  2  2  0  0  0  0
  9  5  1  0  0  0  0
 10  6  1  0  0  0  0
 11 17  1  0  0  0  0
 11 16  1  0  0  0  0
 12 11  2  0  0  0  0
 13 12  1  0  0  0  0
 13 14  2  0  0  0  0
 14 15  1  0  0  0  0
 15 16  2  0  0  0  0
 15 19  1  0  0  0  0
 18 12  1  0  0  0  0
 20  7  1  0  0  0  0
 21 20  1  0  0  0  0
 22 21  2  0  0  0  0
 23 22  1  0  0  0  0
 24 25  2  0  0  0  0
 24 22  1  0  0  0  0
 25 26  1  0  0  0  0
 26 20  2  0  0  0  0
M  END
>  <minimizedAffinity>
-5.45676565

>  <minimizedRMSD>
0.291144729

$$$$
