
 OpenBabel03252506183D

 21 22  0  0  0  0  0  0  0  0999 V2000
   45.0490   34.8710   44.4190 C   0  0  0  0  0  0  0  0  0  0  0  0
   44.9600   34.1480   43.2140 C   0  0  0  0  0  0  0  0  0  0  0  0
   45.2530   32.7730   43.2490 C   0  0  0  0  0  0  0  0  0  0  0  0
   45.6050   32.2240   44.4390 N   0  0  0  0  0  0  0  0  0  0  0  0
   45.6840   32.9570   45.5910 C   0  0  0  0  0  0  0  0  0  0  0  0
   45.4000   34.2770   45.5530 N   0  0  0  0  0  0  0  0  0  0  0  0
   44.6720   34.6360   42.2890 H   0  0  0  0  0  0  0  0  0  0  0  0
   45.1980   32.1810   42.3520 H   0  0  0  0  0  0  0  0  0  0  0  0
   46.0640   32.3440   46.8590 C   0  0  0  0  0  0  0  0  0  0  0  0
   47.2370   31.6050   46.9130 C   0  0  0  0  0  3  0  0  0  0  0  0
   47.6030   31.0200   48.1200 C   0  0  0  0  0  0  0  0  0  0  0  0
   48.5150   30.4400   48.1760 H   0  0  0  0  0  0  0  0  0  0  0  0
   46.7820   31.2180   49.1600 N   0  0  0  0  0  0  0  0  0  0  0  0
   45.6540   31.9200   49.1390 C   0  0  0  0  0  3  0  0  0  0  0  0
   45.2850   32.4990   47.9600 N   0  0  0  0  0  0  0  0  0  0  0  0
   44.7420   36.2940   44.3800 C   0  0  0  0  0  3  0  0  0  0  0  0
   45.3670   37.0700   43.5210 C   0  0  0  0  0  3  0  0  0  0  0  0
   45.1110   38.5240   43.4190 C   0  0  0  0  0  0  0  0  0  0  0  0
   44.6730   38.9290   44.3400 H   0  0  0  0  0  0  0  0  0  0  0  0
   44.3870   38.6920   42.6140 H   0  0  0  0  0  0  0  0  0  0  0  0
   46.0670   39.0810   43.2570 H   0  0  0  0  0  0  0  0  0  0  0  0
  1  6  1  0  0  0  0
  2  3  1  0  0  0  0
  2  1  2  0  0  0  0
  3  4  2  0  0  0  0
  4  5  1  0  0  0  0
  5  9  1  0  0  0  0
  6  5  2  0  0  0  0
  7  2  1  0  0  0  0
  8  3  1  0  0  0  0
  9 10  2  0  0  0  0
  9 15  1  0  0  0  0
 10 11  1  0  0  0  0
 11 12  1  0  0  0  0
 11 13  2  0  0  0  0
 14 13  1  0  0  0  0
 15 14  2  0  0  0  0
 16  1  1  0  0  0  0
 17 16  2  0  0  0  0
 18 17  1  0  0  0  0
 18 19  1  0  0  0  0
 20 18  1  0  0  0  0
 21 18  1  0  0  0  0
M  END
>  <minimizedAffinity>
-3.919554

>  <minimizedRMSD>
2.52475667

$$$$
