
 OpenBabel03252506193D

 21 22  0  0  0  0  0  0  0  0999 V2000
   44.8380   35.7710   43.9190 C   0  0  0  0  0  0  0  0  0  0  0  0
   44.2890   35.4340   42.6680 C   0  0  0  0  0  0  0  0  0  0  0  0
   44.3070   34.0800   42.2840 C   0  0  0  0  0  0  0  0  0  0  0  0
   44.8530   33.1810   43.1410 N   0  0  0  0  0  0  0  0  0  0  0  0
   45.3800   33.5430   44.3490 C   0  0  0  0  0  0  0  0  0  0  0  0
   45.3590   34.8440   44.7140 N   0  0  0  0  0  0  0  0  0  0  0  0
   43.8640   36.1930   42.0200 H   0  0  0  0  0  0  0  0  0  0  0  0
   43.8980   33.7770   41.3360 H   0  0  0  0  0  0  0  0  0  0  0  0
   45.9610   32.5570   45.2530 C   0  0  0  0  0  0  0  0  0  0  0  0
   46.5580   33.0010   46.4250 C   0  0  0  0  0  3  0  0  0  0  0  0
   47.1140   32.0640   47.2890 C   0  0  0  0  0  0  0  0  0  0  0  0
   47.5820   32.3980   48.2060 H   0  0  0  0  0  0  0  0  0  0  0  0
   47.0290   30.7790   46.9180 N   0  0  0  0  0  0  0  0  0  0  0  0
   46.4660   30.3250   45.8050 C   0  0  0  0  0  3  0  0  0  0  0  0
   45.9170   31.2340   44.9510 N   0  0  0  0  0  0  0  0  0  0  0  0
   44.8160   37.1720   44.3140 C   0  0  0  0  0  3  0  0  0  0  0  0
   45.4040   38.0710   43.5540 C   0  0  0  0  0  3  0  0  0  0  0  0
   45.4250   39.5130   43.8860 C   0  0  0  0  0  0  0  0  0  0  0  0
   45.2600   39.6900   44.9560 H   0  0  0  0  0  0  0  0  0  0  0  0
   44.6060   40.0040   43.3460 H   0  0  0  0  0  0  0  0  0  0  0  0
   46.4220   39.9570   43.6460 H   0  0  0  0  0  0  0  0  0  0  0  0
  1 16  1  0  0  0  0
  1  6  1  0  0  0  0
  2  1  2  0  0  0  0
  3  2  1  0  0  0  0
  3  4  2  0  0  0  0
  4  5  1  0  0  0  0
  5  6  2  0  0  0  0
  5  9  1  0  0  0  0
  7  2  1  0  0  0  0
  8  3  1  0  0  0  0
  9 10  1  0  0  0  0
 10 11  2  0  0  0  0
 11 12  1  0  0  0  0
 13 11  1  0  0  0  0
 14 13  2  0  0  0  0
 15  9  2  0  0  0  0
 15 14  1  0  0  0  0
 17 18  1  0  0  0  0
 17 16  2  0  0  0  0
 18 19  1  0  0  0  0
 20 18  1  0  0  0  0
 21 18  1  0  0  0  0
M  END
>  <minimizedAffinity>
-3.63052082

>  <minimizedRMSD>
1.04943168

$$$$
