
 OpenBabel03252502173D

 22 23  0  0  0  0  0  0  0  0999 V2000
   36.9240   28.4950   38.2050 C   0  0  0  0  0  0  0  0  0  0  0  0
   37.4520   29.6370   38.8360 C   0  0  0  0  0  0  0  0  0  0  0  0
   37.6500   30.7960   38.0660 C   0  0  0  0  0  0  0  0  0  0  0  0
   37.3220   30.7620   36.7440 N   0  0  0  0  0  0  0  0  0  0  0  0
   36.8170   29.6390   36.1880 C   0  0  0  0  0  0  0  0  0  0  0  0
   36.6130   28.5100   36.8910 N   0  0  0  0  0  0  0  0  0  0  0  0
   36.7700   27.6020   38.7890 H   0  0  0  0  0  0  0  0  0  0  0  0
   36.5740   29.6700   35.1390 H   0  0  0  0  0  0  0  0  0  0  0  0
   38.1990   31.9620   38.7480 C   0  0  0  0  0  0  0  0  0  0  0  0
   39.5740   32.2020   38.7950 C   0  0  0  0  0  3  0  0  0  0  0  0
   40.0700   33.3290   39.4570 C   0  0  0  0  0  0  0  0  0  0  0  0
   41.1510   33.4750   39.4680 H   0  0  0  0  0  0  0  0  0  0  0  0
   39.2020   34.1610   40.0370 N   0  0  0  0  0  0  0  0  0  0  0  0
   37.8860   33.9590   40.0090 C   0  0  0  0  0  3  0  0  0  0  0  0
   37.4350   32.8640   39.3640 N   0  0  0  0  0  0  0  0  0  0  0  0
   37.7430   29.5340   40.1830 O   0  0  0  0  0  0  0  0  0  0  0  0
   35.5330   28.5290   41.2140 O   0  0  0  0  0  0  0  0  0  0  0  0
   36.5140   29.6420   41.3710 P   0  0  0  0  0  0  0  0  0  0  0  0
   37.1840   29.5190   42.9320 O   0  0  0  0  0  0  0  0  0  0  0  0
   37.7320   28.7240   43.0380 H   0  0  0  0  0  0  0  0  0  0  0  0
   35.7080   31.1220   41.2460 O   0  0  0  0  0  0  0  0  0  0  0  0
   35.7080   31.6010   42.1340 H   0  0  0  0  0  0  0  0  0  0  0  0
  1  7  1  0  0  0  0
  1  2  1  0  0  0  0
  2 16  1  0  0  0  0
  3  9  1  0  0  0  0
  3  2  2  0  0  0  0
  4  3  1  0  0  0  0
  5  4  2  0  0  0  0
  5  6  1  0  0  0  0
  6  1  2  0  0  0  0
  8  5  1  0  0  0  0
  9 10  2  0  0  0  0
  9 15  1  0  0  0  0
 10 11  1  0  0  0  0
 11 12  1  0  0  0  0
 11 13  2  0  0  0  0
 14 13  1  0  0  0  0
 15 14  2  0  0  0  0
 16 18  1  0  0  0  0
 17 18  2  0  0  0  0
 18 19  1  0  0  0  0
 19 20  1  0  0  0  0
 21 18  1  0  0  0  0
 21 22  1  0  0  0  0
M  END
>  <minimizedAffinity>
-4.70077038

$$$$

 OpenBabel03252502173D

 22 23  0  0  0  0  0  0  0  0999 V2000
   39.9220   30.5670   38.7460 C   0  0  0  0  0  0  0  0  0  0  0  0
   39.1990   30.1200   39.8680 C   0  0  0  0  0  0  0  0  0  0  0  0
   39.1930   28.7440   40.1550 C   0  0  0  0  0  0  0  0  0  0  0  0
   39.8860   27.9060   39.3360 N   0  0  0  0  0  0  0  0  0  0  0  0
   40.5650   28.3870   38.2710 C   0  0  0  0  0  0  0  0  0  0  0  0
   40.5950   29.6960   37.9630 N   0  0  0  0  0  0  0  0  0  0  0  0
   39.9300   31.6210   38.5190 H   0  0  0  0  0  0  0  0  0  0  0  0
   41.0960   27.6790   37.6580 H   0  0  0  0  0  0  0  0  0  0  0  0
   38.4350   28.3120   41.3240 C   0  0  0  0  0  0  0  0  0  0  0  0
   39.0450   28.1350   42.5680 C   0  0  0  0  0  3  0  0  0  0  0  0
   38.2910   27.7200   43.6700 C   0  0  0  0  0  0  0  0  0  0  0  0
   38.8100   27.5960   44.6200 H   0  0  0  0  0  0  0  0  0  0  0  0
   36.9850   27.5010   43.5010 N   0  0  0  0  0  0  0  0  0  0  0  0
   36.3750   27.6610   42.3280 C   0  0  0  0  0  3  0  0  0  0  0  0
   37.1260   28.0620   41.2830 N   0  0  0  0  0  0  0  0  0  0  0  0
   38.5390   31.0780   40.6140 O   0  0  0  0  0  0  0  0  0  0  0  0
   36.5670   31.0670   38.8620 O   0  0  0  0  0  0  0  0  0  0  0  0
   36.9610   31.6000   40.2000 P   0  0  0  0  0  0  0  0  0  0  0  0
   35.8290   31.0270   41.3350 O   0  0  0  0  0  0  0  0  0  0  0  0
   35.8790   30.0650   41.4560 H   0  0  0  0  0  0  0  0  0  0  0  0
   36.8920   33.2880   40.1730 O   0  0  0  0  0  0  0  0  0  0  0  0
   36.1450   33.6210   40.7650 H   0  0  0  0  0  0  0  0  0  0  0  0
  1  2  1  0  0  0  0
  2  3  2  0  0  0  0
  2 16  1  0  0  0  0
  3  9  1  0  0  0  0
  4  3  1  0  0  0  0
  5  4  2  0  0  0  0
  6  5  1  0  0  0  0
  6  1  2  0  0  0  0
  7  1  1  0  0  0  0
  8  5  1  0  0  0  0
  9 10  1  0  0  0  0
 10 11  2  0  0  0  0
 11 12  1  0  0  0  0
 13 11  1  0  0  0  0
 14 13  2  0  0  0  0
 15  9  2  0  0  0  0
 15 14  1  0  0  0  0
 17 18  2  0  0  0  0
 18 16  1  0  0  0  0
 18 19  1  0  0  0  0
 19 20  1  0  0  0  0
 21 18  1  0  0  0  0
 21 22  1  0  0  0  0
M  END
>  <minimizedAffinity>
-4.65292501

$$$$

 OpenBabel03252502173D

 22 23  0  0  0  0  0  0  0  0999 V2000
   38.5940   29.7950   42.1360 C   0  0  0  0  0  0  0  0  0  0  0  0
   37.8050   29.5360   41.0000 C   0  0  0  0  0  0  0  0  0  0  0  0
   36.7460   28.6180   41.1160 C   0  0  0  0  0  0  0  0  0  0  0  0
   36.5320   28.0210   42.3210 N   0  0  0  0  0  0  0  0  0  0  0  0
   37.3210   28.3050   43.3810 C   0  0  0  0  0  0  0  0  0  0  0  0
   38.3430   29.1770   43.3110 N   0  0  0  0  0  0  0  0  0  0  0  0
   39.4090   30.4970   42.0550 H   0  0  0  0  0  0  0  0  0  0  0  0
   37.1060   27.8030   44.3100 H   0  0  0  0  0  0  0  0  0  0  0  0
   35.9470   28.3720   39.9220 C   0  0  0  0  0  0  0  0  0  0  0  0
   34.8240   29.1460   39.6200 C   0  0  0  0  0  3  0  0  0  0  0  0
   34.0770   28.8860   38.4670 C   0  0  0  0  0  0  0  0  0  0  0  0
   33.2100   29.5160   38.2730 H   0  0  0  0  0  0  0  0  0  0  0  0
   34.4640   27.8870   37.6710 N   0  0  0  0  0  0  0  0  0  0  0  0
   35.5290   27.1310   37.9310 C   0  0  0  0  0  3  0  0  0  0  0  0
   36.2310   27.4050   39.0500 N   0  0  0  0  0  0  0  0  0  0  0  0
   38.1320   30.2110   39.8400 O   0  0  0  0  0  0  0  0  0  0  0  0
   39.1280   32.6250   40.2070 O   0  0  0  0  0  0  0  0  0  0  0  0
   37.9210   31.9050   39.7030 P   0  0  0  0  0  0  0  0  0  0  0  0
   37.7020   32.3470   38.0740 O   0  0  0  0  0  0  0  0  0  0  0  0
   38.4130   32.0160   37.5000 H   0  0  0  0  0  0  0  0  0  0  0  0
   36.5660   32.3990   40.5830 O   0  0  0  0  0  0  0  0  0  0  0  0
   35.9370   32.9270   39.9970 H   0  0  0  0  0  0  0  0  0  0  0  0
  1  6  1  0  0  0  0
  2  3  1  0  0  0  0
  2  1  2  0  0  0  0
  3  4  2  0  0  0  0
  4  5  1  0  0  0  0
  5  8  1  0  0  0  0
  6  5  2  0  0  0  0
  7  1  1  0  0  0  0
  9  3  1  0  0  0  0
 10  9  1  0  0  0  0
 11 10  2  0  0  0  0
 12 11  1  0  0  0  0
 13 14  2  0  0  0  0
 13 11  1  0  0  0  0
 14 15  1  0  0  0  0
 15  9  2  0  0  0  0
 16  2  1  0  0  0  0
 18 16  1  0  0  0  0
 18 17  2  0  0  0  0
 18 21  1  0  0  0  0
 19 18  1  0  0  0  0
 20 19  1  0  0  0  0
 22 21  1  0  0  0  0
M  END
>  <minimizedAffinity>
-4.56973457

$$$$

 OpenBabel03252502173D

 22 23  0  0  0  0  0  0  0  0999 V2000
   35.1230   28.9110   39.8120 C   0  0  0  0  0  0  0  0  0  0  0  0
   36.0910   29.8760   40.1470 C   0  0  0  0  0  0  0  0  0  0  0  0
   36.7130   30.5890   39.1070 C   0  0  0  0  0  0  0  0  0  0  0  0
   36.3510   30.3140   37.8230 N   0  0  0  0  0  0  0  0  0  0  0  0
   35.4140   29.3770   37.5560 C   0  0  0  0  0  0  0  0  0  0  0  0
   34.7970   28.6740   38.5230 N   0  0  0  0  0  0  0  0  0  0  0  0
   34.6420   28.3600   40.6040 H   0  0  0  0  0  0  0  0  0  0  0  0
   35.1670   29.2010   36.5230 H   0  0  0  0  0  0  0  0  0  0  0  0
   37.7120   31.5810   39.4860 C   0  0  0  0  0  0  0  0  0  0  0  0
   37.3730   32.9210   39.6860 C   0  0  0  0  0  3  0  0  0  0  0  0
   38.3530   33.8490   40.0500 C   0  0  0  0  0  0  0  0  0  0  0  0
   38.0420   34.8830   40.1950 H   0  0  0  0  0  0  0  0  0  0  0  0
   39.6090   33.4230   40.1980 N   0  0  0  0  0  0  0  0  0  0  0  0
   39.9640   32.1520   40.0140 C   0  0  0  0  0  3  0  0  0  0  0  0
   38.9980   31.2790   39.6640 N   0  0  0  0  0  0  0  0  0  0  0  0
   36.3640   30.0540   41.4900 O   0  0  0  0  0  0  0  0  0  0  0  0
   38.1430   28.1080   41.4790 O   0  0  0  0  0  0  0  0  0  0  0  0
   37.2500   28.8920   42.3820 P   0  0  0  0  0  0  0  0  0  0  0  0
   38.2360   29.6570   43.5400 O   0  0  0  0  0  0  0  0  0  0  0  0
   38.8080   30.3380   43.1490 H   0  0  0  0  0  0  0  0  0  0  0  0
   36.1960   27.8400   43.1810 O   0  0  0  0  0  0  0  0  0  0  0  0
   36.4100   27.8070   44.1670 H   0  0  0  0  0  0  0  0  0  0  0  0
  1  2  1  0  0  0  0
  1  7  1  0  0  0  0
  2 16  1  0  0  0  0
  3  9  1  0  0  0  0
  3  2  2  0  0  0  0
  4  3  1  0  0  0  0
  5  4  2  0  0  0  0
  5  6  1  0  0  0  0
  6  1  2  0  0  0  0
  8  5  1  0  0  0  0
  9 15  2  0  0  0  0
  9 10  1  0  0  0  0
 10 11  2  0  0  0  0
 11 12  1  0  0  0  0
 11 13  1  0  0  0  0
 14 13  2  0  0  0  0
 15 14  1  0  0  0  0
 16 18  1  0  0  0  0
 17 18  2  0  0  0  0
 18 21  1  0  0  0  0
 18 19  1  0  0  0  0
 20 19  1  0  0  0  0
 21 22  1  0  0  0  0
M  END
>  <minimizedAffinity>
-4.51347637

$$$$

 OpenBabel03252502173D

 22 23  0  0  0  0  0  0  0  0999 V2000
   36.7430   30.2190   37.9270 C   0  0  0  0  0  0  0  0  0  0  0  0
   37.3630   29.8580   39.1370 C   0  0  0  0  0  0  0  0  0  0  0  0
   36.8300   28.7810   39.8670 C   0  0  0  0  0  0  0  0  0  0  0  0
   35.7380   28.1360   39.3700 N   0  0  0  0  0  0  0  0  0  0  0  0
   35.1800   28.5240   38.2010 C   0  0  0  0  0  0  0  0  0  0  0  0
   35.6600   29.5490   37.4740 N   0  0  0  0  0  0  0  0  0  0  0  0
   37.1450   31.0450   37.3620 H   0  0  0  0  0  0  0  0  0  0  0  0
   34.3180   27.9780   37.8560 H   0  0  0  0  0  0  0  0  0  0  0  0
   37.4940   28.4310   41.1160 C   0  0  0  0  0  0  0  0  0  0  0  0
   37.1810   29.0720   42.3170 C   0  0  0  0  0  3  0  0  0  0  0  0
   37.8360   28.7140   43.4990 C   0  0  0  0  0  0  0  0  0  0  0  0
   37.5580   29.2420   44.4110 H   0  0  0  0  0  0  0  0  0  0  0  0
   38.7590   27.7520   43.4490 N   0  0  0  0  0  0  0  0  0  0  0  0
   39.0800   27.1220   42.3200 C   0  0  0  0  0  3  0  0  0  0  0  0
   38.4330   27.4880   41.1950 N   0  0  0  0  0  0  0  0  0  0  0  0
   38.4640   30.5970   39.5250 O   0  0  0  0  0  0  0  0  0  0  0  0
   39.1760   32.3680   41.3450 O   0  0  0  0  0  0  0  0  0  0  0  0
   38.2980   32.1820   40.1520 P   0  0  0  0  0  0  0  0  0  0  0  0
   38.7630   33.3330   38.9880 O   0  0  0  0  0  0  0  0  0  0  0  0
   39.6540   33.1660   38.6350 H   0  0  0  0  0  0  0  0  0  0  0  0
   36.6920   32.4740   40.5880 O   0  0  0  0  0  0  0  0  0  0  0  0
   36.3520   33.3130   40.1430 H   0  0  0  0  0  0  0  0  0  0  0  0
  1  2  1  0  0  0  0
  2 16  1  0  0  0  0
  2  3  2  0  0  0  0
  3  9  1  0  0  0  0
  4  3  1  0  0  0  0
  5  4  2  0  0  0  0
  6  1  2  0  0  0  0
  6  5  1  0  0  0  0
  7  1  1  0  0  0  0
  8  5  1  0  0  0  0
  9 15  2  0  0  0  0
  9 10  1  0  0  0  0
 10 11  2  0  0  0  0
 11 12  1  0  0  0  0
 13 11  1  0  0  0  0
 14 13  2  0  0  0  0
 15 14  1  0  0  0  0
 16 18  1  0  0  0  0
 18 21  1  0  0  0  0
 18 17  2  0  0  0  0
 19 18  1  0  0  0  0
 20 19  1  0  0  0  0
 22 21  1  0  0  0  0
M  END
>  <minimizedAffinity>
-4.42680359

$$$$

 OpenBabel03252502173D

 22 23  0  0  0  0  0  0  0  0999 V2000
   39.5940   23.9310   39.5890 C   0  0  0  0  0  0  0  0  0  0  0  0
   39.3300   25.0340   40.4220 C   0  0  0  0  0  0  0  0  0  0  0  0
   38.0150   25.5270   40.4820 C   0  0  0  0  0  0  0  0  0  0  0  0
   37.0560   24.9150   39.7330 N   0  0  0  0  0  0  0  0  0  0  0  0
   37.3630   23.8570   38.9500 C   0  0  0  0  0  0  0  0  0  0  0  0
   38.6090   23.3560   38.8650 N   0  0  0  0  0  0  0  0  0  0  0  0
   40.6010   23.5470   39.5370 H   0  0  0  0  0  0  0  0  0  0  0  0
   36.5660   23.4120   38.3800 H   0  0  0  0  0  0  0  0  0  0  0  0
   37.7730   26.6710   41.3530 C   0  0  0  0  0  0  0  0  0  0  0  0
   37.0670   26.5420   42.5520 C   0  0  0  0  0  3  0  0  0  0  0  0
   36.8520   27.6580   43.3660 C   0  0  0  0  0  0  0  0  0  0  0  0
   36.2960   27.5090   44.2920 H   0  0  0  0  0  0  0  0  0  0  0  0
   37.3350   28.8380   42.9700 N   0  0  0  0  0  0  0  0  0  0  0  0
   38.0110   28.9920   41.8330 C   0  0  0  0  0  3  0  0  0  0  0  0
   38.2040   27.8990   41.0680 N   0  0  0  0  0  0  0  0  0  0  0  0
   40.3960   25.5600   41.1270 O   0  0  0  0  0  0  0  0  0  0  0  0
   40.4010   26.2240   43.6790 O   0  0  0  0  0  0  0  0  0  0  0  0
   40.7080   25.1000   42.7470 P   0  0  0  0  0  0  0  0  0  0  0  0
   39.7240   23.7830   43.1900 O   0  0  0  0  0  0  0  0  0  0  0  0
   38.7810   23.9520   43.0290 H   0  0  0  0  0  0  0  0  0  0  0  0
   42.3260   24.6490   42.9250 O   0  0  0  0  0  0  0  0  0  0  0  0
   42.3940   23.7290   43.3350 H   0  0  0  0  0  0  0  0  0  0  0  0
  1  2  1  0  0  0  0
  2  3  2  0  0  0  0
  2 16  1  0  0  0  0
  3  9  1  0  0  0  0
  4  3  1  0  0  0  0
  5  4  2  0  0  0  0
  6  5  1  0  0  0  0
  6  1  2  0  0  0  0
  7  1  1  0  0  0  0
  8  5  1  0  0  0  0
  9 10  1  0  0  0  0
 10 11  2  0  0  0  0
 11 12  1  0  0  0  0
 13 11  1  0  0  0  0
 14 13  2  0  0  0  0
 15  9  2  0  0  0  0
 15 14  1  0  0  0  0
 16 18  1  0  0  0  0
 18 21  1  0  0  0  0
 18 19  1  0  0  0  0
 18 17  2  0  0  0  0
 20 19  1  0  0  0  0
 21 22  1  0  0  0  0
M  END
>  <minimizedAffinity>
-4.31075859

$$$$

 OpenBabel03252502173D

 22 23  0  0  0  0  0  0  0  0999 V2000
   36.9850   27.1390   41.6680 C   0  0  0  0  0  0  0  0  0  0  0  0
   37.2890   28.3310   40.9840 C   0  0  0  0  0  0  0  0  0  0  0  0
   37.7740   29.4230   41.7260 C   0  0  0  0  0  0  0  0  0  0  0  0
   37.9280   29.2780   43.0710 N   0  0  0  0  0  0  0  0  0  0  0  0
   37.6210   28.1100   43.6790 C   0  0  0  0  0  0  0  0  0  0  0  0
   37.1540   27.0430   43.0040 N   0  0  0  0  0  0  0  0  0  0  0  0
   36.6120   26.2980   41.1060 H   0  0  0  0  0  0  0  0  0  0  0  0
   37.7620   28.0520   44.7450 H   0  0  0  0  0  0  0  0  0  0  0  0
   38.0790   30.6440   40.9890 C   0  0  0  0  0  0  0  0  0  0  0  0
   39.3700   30.9190   40.5330 C   0  0  0  0  0  3  0  0  0  0  0  0
   39.6320   32.0990   39.8290 C   0  0  0  0  0  0  0  0  0  0  0  0
   40.6540   32.2710   39.4920 H   0  0  0  0  0  0  0  0  0  0  0  0
   38.6240   32.9450   39.6080 N   0  0  0  0  0  0  0  0  0  0  0  0
   37.3830   32.7100   40.0300 C   0  0  0  0  0  3  0  0  0  0  0  0
   37.1590   31.5650   40.7070 N   0  0  0  0  0  0  0  0  0  0  0  0
   37.0860   28.3430   39.6180 O   0  0  0  0  0  0  0  0  0  0  0  0
   35.8420   29.9240   37.9120 O   0  0  0  0  0  0  0  0  0  0  0  0
   35.6030   28.8690   38.9410 P   0  0  0  0  0  0  0  0  0  0  0  0
   34.8080   27.5740   38.1730 O   0  0  0  0  0  0  0  0  0  0  0  0
   35.3730   27.1250   37.5220 H   0  0  0  0  0  0  0  0  0  0  0  0
   34.5940   29.4830   40.1490 O   0  0  0  0  0  0  0  0  0  0  0  0
   33.6950   29.0240   40.1250 H   0  0  0  0  0  0  0  0  0  0  0  0
  1  6  1  0  0  0  0
  2  1  2  0  0  0  0
  2  3  1  0  0  0  0
  3  4  2  0  0  0  0
  4  5  1  0  0  0  0
  5  8  1  0  0  0  0
  6  5  2  0  0  0  0
  7  1  1  0  0  0  0
  9  3  1  0  0  0  0
 10  9  2  0  0  0  0
 11 10  1  0  0  0  0
 12 11  1  0  0  0  0
 13 11  2  0  0  0  0
 13 14  1  0  0  0  0
 14 15  2  0  0  0  0
 15  9  1  0  0  0  0
 16  2  1  0  0  0  0
 17 18  2  0  0  0  0
 18 16  1  0  0  0  0
 18 21  1  0  0  0  0
 19 18  1  0  0  0  0
 20 19  1  0  0  0  0
 22 21  1  0  0  0  0
M  END
>  <minimizedAffinity>
-4.22559261

$$$$

 OpenBabel03252502173D

 22 23  0  0  0  0  0  0  0  0999 V2000
   37.4190   26.3690   41.6980 C   0  0  0  0  0  0  0  0  0  0  0  0
   36.8210   27.0860   40.6450 C   0  0  0  0  0  0  0  0  0  0  0  0
   37.0450   26.6510   39.3270 C   0  0  0  0  0  0  0  0  0  0  0  0
   37.8300   25.5550   39.1290 N   0  0  0  0  0  0  0  0  0  0  0  0
   38.3810   24.9030   40.1770 C   0  0  0  0  0  0  0  0  0  0  0  0
   38.1900   25.2880   41.4510 N   0  0  0  0  0  0  0  0  0  0  0  0
   37.2520   26.6970   42.7110 H   0  0  0  0  0  0  0  0  0  0  0  0
   38.9920   24.0430   39.9610 H   0  0  0  0  0  0  0  0  0  0  0  0
   36.4130   27.4140   38.2580 C   0  0  0  0  0  0  0  0  0  0  0  0
   35.1620   27.0590   37.7470 C   0  0  0  0  0  3  0  0  0  0  0  0
   34.5810   27.8110   36.7210 C   0  0  0  0  0  0  0  0  0  0  0  0
   33.6040   27.4970   36.3540 H   0  0  0  0  0  0  0  0  0  0  0  0
   35.2480   28.8670   36.2500 N   0  0  0  0  0  0  0  0  0  0  0  0
   36.4410   29.2300   36.7160 C   0  0  0  0  0  3  0  0  0  0  0  0
   36.9780   28.4870   37.7050 N   0  0  0  0  0  0  0  0  0  0  0  0
   36.0480   28.1790   40.9860 O   0  0  0  0  0  0  0  0  0  0  0  0
   37.9560   29.9780   40.7070 O   0  0  0  0  0  0  0  0  0  0  0  0
   36.7590   29.6390   41.5310 P   0  0  0  0  0  0  0  0  0  0  0  0
   35.6550   30.9270   41.3880 O   0  0  0  0  0  0  0  0  0  0  0  0
   35.2910   31.0060   40.4900 H   0  0  0  0  0  0  0  0  0  0  0  0
   37.2160   29.4980   43.1520 O   0  0  0  0  0  0  0  0  0  0  0  0
   36.8170   30.2460   43.6980 H   0  0  0  0  0  0  0  0  0  0  0  0
  1  7  1  0  0  0  0
  2 16  1  0  0  0  0
  2  1  2  0  0  0  0
  3  2  1  0  0  0  0
  4  3  2  0  0  0  0
  4  5  1  0  0  0  0
  5  6  2  0  0  0  0
  6  1  1  0  0  0  0
  8  5  1  0  0  0  0
  9  3  1  0  0  0  0
 10  9  1  0  0  0  0
 11 10  2  0  0  0  0
 12 11  1  0  0  0  0
 13 14  2  0  0  0  0
 13 11  1  0  0  0  0
 14 15  1  0  0  0  0
 15  9  2  0  0  0  0
 16 18  1  0  0  0  0
 17 18  2  0  0  0  0
 18 21  1  0  0  0  0
 19 18  1  0  0  0  0
 20 19  1  0  0  0  0
 21 22  1  0  0  0  0
M  END
>  <minimizedAffinity>
-4.19335604

$$$$

 OpenBabel03252502173D

 22 23  0  0  0  0  0  0  0  0999 V2000
   38.1810   27.3940   38.9930 C   0  0  0  0  0  0  0  0  0  0  0  0
   38.2400   28.7240   39.4480 C   0  0  0  0  0  0  0  0  0  0  0  0
   38.2720   29.7570   38.4940 C   0  0  0  0  0  0  0  0  0  0  0  0
   38.2430   29.4230   37.1730 N   0  0  0  0  0  0  0  0  0  0  0  0
   38.1850   28.1280   36.7900 C   0  0  0  0  0  0  0  0  0  0  0  0
   38.1540   27.1130   37.6720 N   0  0  0  0  0  0  0  0  0  0  0  0
   38.1570   26.5970   39.7180 H   0  0  0  0  0  0  0  0  0  0  0  0
   38.1650   27.9230   35.7330 H   0  0  0  0  0  0  0  0  0  0  0  0
   38.3340   31.1240   38.9960 C   0  0  0  0  0  0  0  0  0  0  0  0
   37.1810   31.8940   39.1660 C   0  0  0  0  0  3  0  0  0  0  0  0
   37.2730   33.2030   39.6500 C   0  0  0  0  0  0  0  0  0  0  0  0
   36.3470   33.7650   39.7660 H   0  0  0  0  0  0  0  0  0  0  0  0
   38.4810   33.6910   39.9410 N   0  0  0  0  0  0  0  0  0  0  0  0
   39.5980   32.9810   39.7900 C   0  0  0  0  0  3  0  0  0  0  0  0
   39.4800   31.7220   39.3210 N   0  0  0  0  0  0  0  0  0  0  0  0
   38.2650   28.9220   40.8150 O   0  0  0  0  0  0  0  0  0  0  0  0
   35.6450   28.8030   41.0900 O   0  0  0  0  0  0  0  0  0  0  0  0
   36.9250   28.5130   41.7990 P   0  0  0  0  0  0  0  0  0  0  0  0
   36.9430   26.8500   42.1650 O   0  0  0  0  0  0  0  0  0  0  0  0
   37.0000   26.2950   41.3690 H   0  0  0  0  0  0  0  0  0  0  0  0
   36.9740   29.3840   43.2460 O   0  0  0  0  0  0  0  0  0  0  0  0
   36.9200   28.7590   44.0370 H   0  0  0  0  0  0  0  0  0  0  0  0
  1  2  1  0  0  0  0
  1  7  1  0  0  0  0
  2 16  1  0  0  0  0
  3  9  1  0  0  0  0
  3  2  2  0  0  0  0
  4  3  1  0  0  0  0
  5  4  2  0  0  0  0
  5  6  1  0  0  0  0
  6  1  2  0  0  0  0
  8  5  1  0  0  0  0
  9 10  2  0  0  0  0
  9 15  1  0  0  0  0
 10 11  1  0  0  0  0
 11 12  1  0  0  0  0
 11 13  2  0  0  0  0
 14 13  1  0  0  0  0
 15 14  2  0  0  0  0
 16 18  1  0  0  0  0
 17 18  2  0  0  0  0
 18 19  1  0  0  0  0
 18 21  1  0  0  0  0
 20 19  1  0  0  0  0
 21 22  1  0  0  0  0
M  END
>  <minimizedAffinity>
-4.0376215

$$$$
