
 OpenBabel03242512303D

 36 38  0  0  1  0  0  0  0  0999 V2000
   47.3570   31.8720   47.3950 C   0  0  1  0  0  0  0  0  0  0  0  0
   47.1930   31.5030   48.8490 C   0  0  0  0  0  0  0  0  0  0  0  0
   48.4190   30.7810   49.3240 C   0  0  0  0  0  0  0  0  0  0  0  0
   48.7270   29.6220   48.4540 C   0  0  0  0  0  0  0  0  0  0  0  0
   48.8210   29.9660   47.0020 C   0  0  0  0  0  0  0  0  0  0  0  0
   47.5280   30.5840   46.5590 C   0  0  1  0  0  0  0  0  0  0  0  0
   48.2830   32.4450   47.1800 H   0  0  0  0  0  0  0  0  0  0  0  0
   47.1210   32.4490   49.4420 H   0  0  0  0  0  0  0  0  0  0  0  0
   46.2790   30.8960   48.9440 H   0  0  0  0  0  0  0  0  0  0  0  0
   49.2520   31.4880   49.4550 H   0  0  0  0  0  0  0  0  0  0  0  0
   48.1840   30.3910   50.3510 H   0  0  0  0  0  0  0  0  0  0  0  0
   49.7590   29.2690   48.7480 H   0  0  0  0  0  0  0  0  0  0  0  0
   48.0720   28.7810   48.6910 H   0  0  0  0  0  0  0  0  0  0  0  0
   49.6140   30.7160   46.8870 H   0  0  0  0  0  0  0  0  0  0  0  0
   48.9920   29.0380   46.4260 H   0  0  0  0  0  0  0  0  0  0  0  0
   47.6520   30.9880   45.5110 H   0  0  0  0  0  0  0  0  0  0  0  0
   46.3640   29.7210   46.5690 C   0  0  0  0  0  0  0  0  0  0  0  0
   46.3990   28.6250   47.4420 C   0  0  0  0  0  0  0  0  0  0  0  0
   45.3420   27.7140   47.5570 C   0  0  0  0  0  0  0  0  0  0  0  0
   45.3980   26.8780   48.2400 H   0  0  0  0  0  0  0  0  0  0  0  0
   44.2440   27.9250   46.7760 N   0  0  0  0  0  0  0  0  0  0  0  0
   44.2760   28.9890   45.9630 C   0  0  0  0  0  0  0  0  0  0  0  0
   45.2620   29.8890   45.8170 N   0  0  0  0  0  0  0  0  0  0  0  0
   46.1880   32.6530   46.9430 C   0  0  0  0  0  0  0  0  0  0  0  0
   45.2580   32.5700   47.7890 O   0  0  0  0  0  0  0  0  0  0  0  0
   44.9640   34.9850   44.4620 C   0  0  0  0  0  0  0  0  0  0  0  0
   45.8710   34.8780   43.4200 C   0  0  0  0  0  0  0  0  0  0  0  0
   46.9300   33.9910   43.5640 C   0  0  0  0  0  0  0  0  0  0  0  0
   47.0000   33.2930   44.7160 N   0  0  0  0  0  0  0  0  0  0  0  0
   46.1220   33.4010   45.7180 C   0  0  0  0  0  0  0  0  0  0  0  0
   45.0960   34.2560   45.5840 N   0  0  0  0  0  0  0  0  0  0  0  0
   43.8630   35.8850   44.3680 N   0  0  0  0  0  0  0  0  0  0  0  0
   45.7470   35.4700   42.5270 H   0  0  0  0  0  0  0  0  0  0  0  0
   47.6640   33.8650   42.7910 H   0  0  0  0  0  0  0  0  0  0  0  0
   43.4500   36.4820   45.1190 H   0  0  0  0  0  0  0  0  0  0  0  0
   43.4010   35.9740   43.4590 H   0  0  0  0  0  0  0  0  0  0  0  0
  1  7  1  6  0  0  0
  1  2  1  0  0  0  0
  2  9  1  0  0  0  0
  2  3  1  0  0  0  0
  2  8  1  0  0  0  0
  3 10  1  0  0  0  0
  3 11  1  0  0  0  0
  4 13  1  0  0  0  0
  4 12  1  0  0  0  0
  4  3  1  0  0  0  0
  5  4  1  0  0  0  0
  6 16  1  6  0  0  0
  6 17  1  0  0  0  0
  6  5  1  0  0  0  0
  6  1  1  0  0  0  0
 14  5  1  0  0  0  0
 15  5  1  0  0  0  0
 17 18  1  0  0  0  0
 18 19  2  0  0  0  0
 19 20  1  0  0  0  0
 21 19  1  0  0  0  0
 22 21  2  0  0  0  0
 23 22  1  0  0  0  0
 23 17  2  0  0  0  0
 24  1  1  0  0  0  0
 24 25  2  0  0  0  0
 26 31  1  0  0  0  0
 27 28  1  0  0  0  0
 27 26  2  0  0  0  0
 28 29  2  0  0  0  0
 29 30  1  0  0  0  0
 30 24  1  0  0  0  0
 31 30  2  0  0  0  0
 32 26  1  0  0  0  0
 32 35  1  0  0  0  0
 33 27  1  0  0  0  0
 34 28  1  0  0  0  0
 36 32  1  0  0  0  0
M  END
>  <minimizedAffinity>
-5.70784664

>  <minimizedRMSD>
0.763546467

$$$$
