
 OpenBabel03242516523D

 43 46  0  0  1  0  0  0  0  0999 V2000
   47.8410   32.9030   41.8280 C   0  0  1  0  0  0  0  0  0  0  0  0
   47.5400   32.2940   40.5330 C   0  0  0  0  0  0  0  0  0  0  0  0
   48.5700   32.8420   39.5510 C   0  0  0  0  0  0  0  0  0  0  0  0
   48.2350   34.2940   39.3380 C   0  0  0  0  0  0  0  0  0  0  0  0
   48.1520   35.0910   40.6040 C   0  0  0  0  0  0  0  0  0  0  0  0
   47.6390   34.4220   41.8090 C   0  0  1  0  0  0  0  0  0  0  0  0
   48.9550   32.8150   42.0160 H   0  0  0  0  0  0  0  0  0  0  0  0
   46.5470   32.4970   40.1430 H   0  0  0  0  0  0  0  0  0  0  0  0
   47.6550   31.1810   40.6390 H   0  0  0  0  0  0  0  0  0  0  0  0
   49.6050   32.7140   39.9050 H   0  0  0  0  0  0  0  0  0  0  0  0
   48.3630   32.3420   38.5690 H   0  0  0  0  0  0  0  0  0  0  0  0
   47.2890   34.3590   38.7300 H   0  0  0  0  0  0  0  0  0  0  0  0
   49.0320   34.7040   38.6800 H   0  0  0  0  0  0  0  0  0  0  0  0
   49.1750   35.5330   40.7750 H   0  0  0  0  0  0  0  0  0  0  0  0
   47.5220   35.9870   40.3830 H   0  0  0  0  0  0  0  0  0  0  0  0
   48.2230   34.7940   42.6950 H   0  0  0  0  0  0  0  0  0  0  0  0
   45.3910   30.9160   43.9030 C   0  0  0  0  0  0  0  0  0  0  0  0
   46.0810   31.4890   42.8320 C   0  0  0  0  0  0  0  0  0  0  0  0
   47.1770   32.3410   42.9860 C   0  0  0  0  0  0  0  0  0  0  0  0
   47.5440   32.5870   44.2450 N   0  0  0  0  0  0  0  0  0  0  0  0
   46.8820   32.0340   45.2940 C   0  0  0  0  0  0  0  0  0  0  0  0
   45.8350   31.2210   45.1400 N   0  0  0  0  0  0  0  0  0  0  0  0
   44.5620   30.2730   43.7400 H   0  0  0  0  0  0  0  0  0  0  0  0
   45.7380   31.2560   41.8140 H   0  0  0  0  0  0  0  0  0  0  0  0
   47.2420   32.2840   46.2840 H   0  0  0  0  0  0  0  0  0  0  0  0
   46.2510   34.7840   42.1070 C   0  0  0  0  0  0  0  0  0  0  0  0
   45.7840   35.3330   43.3040 C   0  0  0  0  0  0  0  0  0  0  0  0
   44.4160   35.6140   43.3580 C   0  0  0  0  0  0  0  0  0  0  0  0
   43.6520   35.3290   42.2390 C   0  0  0  0  0  0  0  0  0  0  0  0
   44.1320   34.7840   41.0570 C   0  0  0  0  0  0  0  0  0  0  0  0
   45.4710   34.5200   41.0350 N   0  0  0  0  0  0  0  0  0  0  0  0
   46.5030   35.4910   44.0730 H   0  0  0  0  0  0  0  0  0  0  0  0
   44.0440   36.0300   44.2610 H   0  0  0  0  0  0  0  0  0  0  0  0
   42.5950   35.5670   42.3330 H   0  0  0  0  0  0  0  0  0  0  0  0
   43.2330   34.5290   39.9390 C   0  0  0  0  0  0  0  0  0  0  0  0
   42.2540   35.3280   39.7930 O   0  0  0  0  0  0  0  0  0  0  0  0
   43.3140   33.4610   38.9510 C   0  0  0  0  0  0  0  0  0  0  0  0
   42.1740   32.7310   38.6990 C   0  0  0  0  0  3  0  0  0  0  0  0
   42.2140   31.6950   37.7590 C   0  0  0  0  0  0  0  0  0  0  0  0
   41.3320   31.1060   37.5410 H   0  0  0  0  0  0  0  0  0  0  0  0
   43.3820   31.4270   37.1130 N   0  0  0  0  0  0  0  0  0  0  0  0
   44.4810   32.1290   37.3560 C   0  0  0  0  0  3  0  0  0  0  0  0
   44.4000   33.0990   38.2510 N   0  0  0  0  0  0  0  0  0  0  0  0
  1  7  1  1  0  0  0
  1 19  1  0  0  0  0
  2  9  1  0  0  0  0
  2  1  1  0  0  0  0
  3 10  1  0  0  0  0
  3  2  1  0  0  0  0
  4  3  1  0  0  0  0
  4  5  1  0  0  0  0
  5 14  1  0  0  0  0
  5  6  1  0  0  0  0
  6  1  1  0  0  0  0
  6 26  1  0  0  0  0
  6 16  1  1  0  0  0
  8  2  1  0  0  0  0
 11  3  1  0  0  0  0
 12  4  1  0  0  0  0
 13  4  1  0  0  0  0
 15  5  1  0  0  0  0
 17 22  1  0  0  0  0
 18 19  1  0  0  0  0
 18 17  2  0  0  0  0
 19 20  2  0  0  0  0
 20 21  1  0  0  0  0
 21 25  1  0  0  0  0
 22 21  2  0  0  0  0
 23 17  1  0  0  0  0
 24 18  1  0  0  0  0
 26 27  1  0  0  0  0
 27 28  2  0  0  0  0
 27 32  1  0  0  0  0
 28 33  1  0  0  0  0
 29 34  1  0  0  0  0
 29 28  1  0  0  0  0
 30 29  2  0  0  0  0
 31 30  1  0  0  0  0
 31 26  2  0  0  0  0
 35 30  1  0  0  0  0
 36 35  2  0  0  0  0
 37 35  1  0  0  0  0
 38 37  1  0  0  0  0
 39 38  2  0  0  0  0
 40 39  1  0  0  0  0
 41 42  2  0  0  0  0
 41 39  1  0  0  0  0
 42 43  1  0  0  0  0
 43 37  2  0  0  0  0
M  END
>  <minimizedAffinity>
-5.46234608

>  <minimizedRMSD>
0.57227242

$$$$
