
 OpenBabel03242516513D

 43 46  0  0  1  0  0  0  0  0999 V2000
   47.8400   32.9020   41.8290 C   0  0  1  0  0  0  0  0  0  0  0  0
   47.5400   32.2940   40.5330 C   0  0  0  0  0  0  0  0  0  0  0  0
   48.5700   32.8430   39.5510 C   0  0  0  0  0  0  0  0  0  0  0  0
   48.2350   34.2960   39.3400 C   0  0  0  0  0  0  0  0  0  0  0  0
   48.1520   35.0910   40.6070 C   0  0  0  0  0  0  0  0  0  0  0  0
   47.6390   34.4220   41.8110 C   0  0  1  0  0  0  0  0  0  0  0  0
   48.9540   32.8140   42.0170 H   0  0  0  0  0  0  0  0  0  0  0  0
   46.5470   32.4980   40.1430 H   0  0  0  0  0  0  0  0  0  0  0  0
   47.6540   31.1820   40.6380 H   0  0  0  0  0  0  0  0  0  0  0  0
   49.6050   32.7140   39.9060 H   0  0  0  0  0  0  0  0  0  0  0  0
   48.3630   32.3440   38.5700 H   0  0  0  0  0  0  0  0  0  0  0  0
   47.2900   34.3610   38.7320 H   0  0  0  0  0  0  0  0  0  0  0  0
   49.0340   34.7060   38.6830 H   0  0  0  0  0  0  0  0  0  0  0  0
   49.1760   35.5330   40.7780 H   0  0  0  0  0  0  0  0  0  0  0  0
   47.5230   35.9870   40.3860 H   0  0  0  0  0  0  0  0  0  0  0  0
   48.2220   34.7920   42.6980 H   0  0  0  0  0  0  0  0  0  0  0  0
   45.3900   30.9130   43.9010 C   0  0  0  0  0  0  0  0  0  0  0  0
   46.0800   31.4880   42.8310 C   0  0  0  0  0  0  0  0  0  0  0  0
   47.1760   32.3390   42.9860 C   0  0  0  0  0  0  0  0  0  0  0  0
   47.5420   32.5850   44.2450 N   0  0  0  0  0  0  0  0  0  0  0  0
   46.8790   32.0320   45.2930 C   0  0  0  0  0  0  0  0  0  0  0  0
   45.8330   31.2190   45.1380 N   0  0  0  0  0  0  0  0  0  0  0  0
   44.5610   30.2700   43.7370 H   0  0  0  0  0  0  0  0  0  0  0  0
   45.7380   31.2540   41.8120 H   0  0  0  0  0  0  0  0  0  0  0  0
   47.2380   32.2810   46.2840 H   0  0  0  0  0  0  0  0  0  0  0  0
   46.2510   34.7830   42.1080 C   0  0  0  0  0  0  0  0  0  0  0  0
   45.7840   35.3320   43.3050 C   0  0  0  0  0  0  0  0  0  0  0  0
   44.4160   35.6130   43.3590 C   0  0  0  0  0  0  0  0  0  0  0  0
   43.6520   35.3290   42.2390 C   0  0  0  0  0  0  0  0  0  0  0  0
   44.1320   34.7840   41.0580 C   0  0  0  0  0  0  0  0  0  0  0  0
   45.4710   34.5200   41.0360 N   0  0  0  0  0  0  0  0  0  0  0  0
   46.5030   35.4900   44.0740 H   0  0  0  0  0  0  0  0  0  0  0  0
   44.0430   36.0300   44.2610 H   0  0  0  0  0  0  0  0  0  0  0  0
   42.5950   35.5660   42.3330 H   0  0  0  0  0  0  0  0  0  0  0  0
   43.2330   34.5300   39.9390 C   0  0  0  0  0  0  0  0  0  0  0  0
   42.2540   35.3290   39.7930 O   0  0  0  0  0  0  0  0  0  0  0  0
   43.3140   33.4610   38.9510 C   0  0  0  0  0  0  0  0  0  0  0  0
   42.1740   32.7320   38.6980 C   0  0  0  0  0  3  0  0  0  0  0  0
   42.2140   31.6950   37.7600 C   0  0  0  0  0  0  0  0  0  0  0  0
   41.3310   31.1070   37.5410 H   0  0  0  0  0  0  0  0  0  0  0  0
   43.3820   31.4280   37.1140 N   0  0  0  0  0  0  0  0  0  0  0  0
   44.4800   32.1290   37.3570 C   0  0  0  0  0  3  0  0  0  0  0  0
   44.4000   33.1000   38.2500 N   0  0  0  0  0  0  0  0  0  0  0  0
  1  7  1  1  0  0  0
  1 19  1  0  0  0  0
  2  9  1  0  0  0  0
  2  1  1  0  0  0  0
  3 10  1  0  0  0  0
  3  2  1  0  0  0  0
  4  3  1  0  0  0  0
  4  5  1  0  0  0  0
  5 14  1  0  0  0  0
  5  6  1  0  0  0  0
  6  1  1  0  0  0  0
  6 26  1  0  0  0  0
  6 16  1  1  0  0  0
  8  2  1  0  0  0  0
 11  3  1  0  0  0  0
 12  4  1  0  0  0  0
 13  4  1  0  0  0  0
 15  5  1  0  0  0  0
 17 22  1  0  0  0  0
 18 19  1  0  0  0  0
 18 17  2  0  0  0  0
 19 20  2  0  0  0  0
 20 21  1  0  0  0  0
 21 25  1  0  0  0  0
 22 21  2  0  0  0  0
 23 17  1  0  0  0  0
 24 18  1  0  0  0  0
 26 27  1  0  0  0  0
 27 28  2  0  0  0  0
 27 32  1  0  0  0  0
 28 33  1  0  0  0  0
 29 34  1  0  0  0  0
 29 28  1  0  0  0  0
 30 29  2  0  0  0  0
 31 30  1  0  0  0  0
 31 26  2  0  0  0  0
 35 30  1  0  0  0  0
 36 35  2  0  0  0  0
 37 35  1  0  0  0  0
 38 37  1  0  0  0  0
 39 38  2  0  0  0  0
 40 39  1  0  0  0  0
 41 42  2  0  0  0  0
 41 39  1  0  0  0  0
 42 43  1  0  0  0  0
 43 37  2  0  0  0  0
M  END
>  <minimizedAffinity>
-5.46257591

>  <minimizedRMSD>
0.525085568

$$$$
