
 OpenBabel03242511543D

 32 34  0  0  1  0  0  0  0  0999 V2000
   46.2360   33.7680   43.2050 C   0  0  2  0  0  0  0  0  0  0  0  0
   45.6280   34.8250   42.3700 C   0  0  0  0  0  0  0  0  0  0  0  0
   45.3620   36.1000   43.1090 C   0  0  0  0  0  0  0  0  0  0  0  0
   44.5210   35.8800   44.3550 C   0  0  0  0  0  0  0  0  0  0  0  0
   44.9260   34.6720   45.1440 C   0  0  0  0  0  0  0  0  0  0  0  0
   46.2380   34.0950   44.6860 C   0  0  1  0  0  0  0  0  0  0  0  0
   45.6830   32.7840   43.1390 H   0  0  0  0  0  0  0  0  0  0  0  0
   46.1650   35.0820   41.4410 H   0  0  0  0  0  0  0  0  0  0  0  0
   44.6160   34.4480   42.0430 H   0  0  0  0  0  0  0  0  0  0  0  0
   46.2130   36.7490   43.2910 H   0  0  0  0  0  0  0  0  0  0  0  0
   44.6960   36.7030   42.4200 H   0  0  0  0  0  0  0  0  0  0  0  0
   44.6160   36.8050   44.9720 H   0  0  0  0  0  0  0  0  0  0  0  0
   43.4510   35.8140   44.0700 H   0  0  0  0  0  0  0  0  0  0  0  0
   44.1640   33.8590   44.9980 H   0  0  0  0  0  0  0  0  0  0  0  0
   44.9890   34.8450   46.2230 H   0  0  0  0  0  0  0  0  0  0  0  0
   47.0930   34.7620   44.8800 H   0  0  0  0  0  0  0  0  0  0  0  0
   47.6250   33.4730   42.8100 C   0  0  0  0  0  0  0  0  0  0  0  0
   48.5340   34.5430   42.9180 C   0  0  0  0  0  0  0  0  0  0  0  0
   49.8770   34.3570   42.5680 C   0  0  0  0  0  0  0  0  0  0  0  0
   50.2240   33.1040   42.1300 N   0  0  0  0  0  0  0  0  0  0  0  0
   49.3280   32.0890   42.0370 C   0  0  0  0  0  0  0  0  0  0  0  0
   48.0360   32.2820   42.3780 N   0  0  0  0  0  0  0  0  0  0  0  0
   48.3500   35.5530   43.2490 H   0  0  0  0  0  0  0  0  0  0  0  0
   50.6280   35.1320   42.6250 H   0  0  0  0  0  0  0  0  0  0  0  0
   49.6440   31.1160   41.6870 H   0  0  0  0  0  0  0  0  0  0  0  0
   46.4230   32.8150   45.4220 C   0  0  0  0  0  0  0  0  0  0  0  0
   45.9090   31.6260   44.9410 C   0  0  0  0  0  0  0  0  0  0  0  0
   46.1210   30.4670   45.6800 C   0  0  0  0  0  0  0  0  0  0  0  0
   45.7300   29.5060   45.3310 H   0  0  0  0  0  0  0  0  0  0  0  0
   46.8150   30.4980   46.8420 N   0  0  0  0  0  0  0  0  0  0  0  0
   47.3110   31.6840   47.2940 C   0  0  0  0  0  0  0  0  0  0  0  0
   47.1150   32.8270   46.5860 N   0  0  0  0  0  0  0  0  0  0  0  0
  1  7  1  6  0  0  0
  1  6  1  0  0  0  0
  2  3  1  0  0  0  0
  2  1  1  0  0  0  0
  3 10  1  0  0  0  0
  3  4  1  0  0  0  0
  4 12  1  0  0  0  0
  4  5  1  0  0  0  0
  5 15  1  0  0  0  0
  6 16  1  1  0  0  0
  6  5  1  0  0  0  0
  6 26  1  0  0  0  0
  8  2  1  0  0  0  0
  9  2  1  0  0  0  0
 11  3  1  0  0  0  0
 13  4  1  0  0  0  0
 14  5  1  0  0  0  0
 17 18  1  0  0  0  0
 17  1  1  0  0  0  0
 18 23  1  0  0  0  0
 19 24  1  0  0  0  0
 19 18  2  0  0  0  0
 20 19  1  0  0  0  0
 21 20  2  0  0  0  0
 21 22  1  0  0  0  0
 22 17  2  0  0  0  0
 25 21  1  0  0  0  0
 26 32  1  0  0  0  0
 27 26  2  0  0  0  0
 27 28  1  0  0  0  0
 28 30  2  0  0  0  0
 29 28  1  0  0  0  0
 30 31  1  0  0  0  0
 32 31  2  0  0  0  0
M  END
>  <minimizedAffinity>
-4.8624711

>  <minimizedRMSD>
1.89240885

$$$$
