
 OpenBabel03252507083D

 22 23  0  0  0  0  0  0  0  0999 V2000
   44.5550   35.9770   44.5030 C   0  0  0  0  0  0  0  0  0  0  0  0
   45.1850   35.9370   43.2470 C   0  0  0  0  0  0  0  0  0  0  0  0
   46.0990   34.9000   43.0210 C   0  0  0  0  0  0  0  0  0  0  0  0
   46.3340   33.9980   44.0060 N   0  0  0  0  0  0  0  0  0  0  0  0
   45.7120   34.0630   45.2070 C   0  0  0  0  0  0  0  0  0  0  0  0
   44.8340   35.0440   45.4480 N   0  0  0  0  0  0  0  0  0  0  0  0
   43.8520   36.8100   44.6160 H   0  0  0  0  0  0  0  0  0  0  0  0
   44.9880   36.6620   42.4710 H   0  0  0  0  0  0  0  0  0  0  0  0
   46.0060   33.0630   46.2290 C   0  0  0  0  0  0  0  0  0  0  0  0
   45.2790   33.0480   47.3950 C   0  0  0  0  0  3  0  0  0  0  0  0
   45.6160   32.0770   48.3050 C   0  0  0  0  0  0  0  0  0  0  0  0
   45.1220   31.9540   49.2680 H   0  0  0  0  0  0  0  0  0  0  0  0
   46.5830   31.1760   48.1200 N   0  0  0  0  0  0  0  0  0  0  0  0
   47.2870   31.2170   46.9500 C   0  0  0  0  0  3  0  0  0  0  0  0
   46.9780   32.1580   46.0390 N   0  0  0  0  0  0  0  0  0  0  0  0
   46.7130   34.8770   41.7730 O   0  0  0  0  0  0  0  0  0  0  0  0
   48.6740   33.2460   41.0760 O   0  0  0  0  0  0  0  0  0  0  0  0
   48.4040   34.6090   41.6860 P   0  0  0  0  0  0  0  0  0  0  0  0
   49.0820   35.8450   40.7840 O   0  0  0  0  0  0  0  0  0  0  0  0
   50.0200   35.5920   40.5580 H   0  0  0  0  0  0  0  0  0  0  0  0
   48.9950   34.5960   43.2860 O   0  0  0  0  0  0  0  0  0  0  0  0
   48.7700   35.5050   43.6500 H   0  0  0  0  0  0  0  0  0  0  0  0
  1  7  1  0  0  0  0
  1  6  1  0  0  0  0
  2  1  2  0  0  0  0
  3  2  1  0  0  0  0
  3  4  2  0  0  0  0
  4  5  1  0  0  0  0
  5  6  2  0  0  0  0
  5  9  1  0  0  0  0
  8  2  1  0  0  0  0
  9 10  1  0  0  0  0
 10 11  2  0  0  0  0
 11 12  1  0  0  0  0
 13 11  1  0  0  0  0
 14 13  2  0  0  0  0
 15  9  2  0  0  0  0
 15 14  1  0  0  0  0
 16  3  1  0  0  0  0
 17 18  2  0  0  0  0
 18 16  1  0  0  0  0
 18 21  1  0  0  0  0
 19 18  1  0  0  0  0
 20 19  1  0  0  0  0
 21 22  1  0  0  0  0
M  END
>  <minimizedAffinity>
-5.62768793

>  <minimizedRMSD>
0.22495921

$$$$
