
 OpenBabel03242510093D

 26 28  0  0  0  0  0  0  0  0999 V2000
   44.7860   32.9880   41.1870 Br  0  0  0  0  0  0  0  0  0  0  0  0
   46.4340   33.9500   40.9340 C   0  0  0  0  0  0  0  0  0  0  0  0
   46.8980   34.7590   41.9390 C   0  0  0  0  0  0  0  0  0  0  0  0
   48.0980   35.4660   41.7720 C   0  0  0  0  0  0  0  0  0  0  0  0
   48.7810   35.3290   40.5970 C   0  0  0  0  0  0  0  0  0  0  0  0
   48.2720   34.5070   39.6280 C   0  0  0  0  0  0  0  0  0  0  0  0
   47.1230   33.8130   39.7550 C   0  0  0  0  0  0  0  0  0  0  0  0
   48.4200   36.0990   42.6090 H   0  0  0  0  0  0  0  0  0  0  0  0
   49.7070   35.8710   40.4570 H   0  0  0  0  0  0  0  0  0  0  0  0
   48.8430   34.4280   38.7160 H   0  0  0  0  0  0  0  0  0  0  0  0
   45.6410   34.0430   45.2880 C   0  0  0  0  0  0  0  0  0  0  0  0
   44.7090   35.0750   45.5260 C   0  0  0  0  0  0  0  0  0  0  0  0
   44.5290   36.0180   44.5020 C   0  0  0  0  0  0  0  0  0  0  0  0
   45.2530   35.8800   43.3650 N   0  0  0  0  0  0  0  0  0  0  0  0
   46.1420   34.8750   43.1690 C   0  0  0  0  0  0  0  0  0  0  0  0
   46.3290   33.9540   44.1490 N   0  0  0  0  0  0  0  0  0  0  0  0
   45.7990   33.3110   46.0510 H   0  0  0  0  0  0  0  0  0  0  0  0
   44.1770   35.1050   46.4640 H   0  0  0  0  0  0  0  0  0  0  0  0
   43.8230   36.8160   44.6590 H   0  0  0  0  0  0  0  0  0  0  0  0
   46.5600   32.9320   38.7360 C   0  0  0  0  0  0  0  0  0  0  0  0
   46.9210   31.6070   38.5990 C   0  0  0  0  0  3  0  0  0  0  0  0
   46.3710   30.8080   37.6290 C   0  0  0  0  0  0  0  0  0  0  0  0
   46.6450   29.7740   37.5130 H   0  0  0  0  0  0  0  0  0  0  0  0
   45.4650   31.2690   36.7770 N   0  0  0  0  0  0  0  0  0  0  0  0
   45.0990   32.5650   36.8970 C   0  0  0  0  0  3  0  0  0  0  0  0
   45.6370   33.3550   37.8480 N   0  0  0  0  0  0  0  0  0  0  0  0
  2  1  1  0  0  0  0
  2  3  1  0  0  0  0
  3 15  1  0  0  0  0
  4  3  2  0  0  0  0
  4  8  1  0  0  0  0
  5  4  1  0  0  0  0
  6  7  1  0  0  0  0
  6  5  2  0  0  0  0
  7  2  2  0  0  0  0
  9  5  1  0  0  0  0
 10  6  1  0  0  0  0
 11 12  1  0  0  0  0
 11 17  1  0  0  0  0
 12 18  1  0  0  0  0
 13 19  1  0  0  0  0
 13 12  2  0  0  0  0
 14 13  1  0  0  0  0
 15 14  2  0  0  0  0
 15 16  1  0  0  0  0
 16 11  2  0  0  0  0
 20  7  1  0  0  0  0
 21 20  1  0  0  0  0
 22 21  2  0  0  0  0
 23 22  1  0  0  0  0
 24 25  2  0  0  0  0
 24 22  1  0  0  0  0
 25 26  1  0  0  0  0
 26 20  2  0  0  0  0
M  END
>  <minimizedAffinity>
-5.3863821

>  <minimizedRMSD>
0.303303987

$$$$
