
 OpenBabel03252506563D

 36 40  0  0  0  0  0  0  0  0999 V2000
   47.3080   31.3370   45.2010 C   0  0  0  0  0  0  0  0  0  0  0  0
   46.8980   32.6680   45.1210 C   0  0  0  0  0  0  0  0  0  0  0  0
   46.2540   33.3130   46.1480 C   0  0  0  0  0  0  0  0  0  0  0  0
   45.9870   32.6340   47.3310 C   0  0  0  0  0  0  0  0  0  0  0  0
   45.3900   32.9410   48.5180 N   0  0  0  0  0  0  0  0  0  0  0  0
   45.4280   31.8370   49.3070 C   0  0  0  0  0  0  0  0  0  0  0  0
   46.0470   30.8580   48.6060 N   0  0  0  0  0  0  0  0  0  0  0  0
   46.3990   31.3210   47.3930 C   0  0  0  0  0  0  0  0  0  0  0  0
   47.0390   30.6530   46.3920 C   0  0  0  0  0  0  0  0  0  0  0  0
   47.8170   30.8130   44.3980 H   0  0  0  0  0  0  0  0  0  0  0  0
   45.9360   34.3340   46.0940 H   0  0  0  0  0  0  0  0  0  0  0  0
   45.0020   33.9120   48.6720 H   0  0  0  0  0  0  0  0  0  0  0  0
   45.0260   31.8140   50.2930 H   0  0  0  0  0  0  0  0  0  0  0  0
   46.6140   35.1030   42.3810 C   0  0  0  0  0  0  0  0  0  0  0  0
   47.6950   34.7780   41.5740 C   0  0  0  0  0  0  0  0  0  0  0  0
   48.5250   33.7290   41.9600 C   0  0  0  0  0  0  0  0  0  0  0  0
   48.2260   33.0730   43.1180 N   0  0  0  0  0  0  0  0  0  0  0  0
   47.1630   33.4080   43.8920 C   0  0  0  0  0  0  0  0  0  0  0  0
   46.3630   34.4150   43.5260 N   0  0  0  0  0  0  0  0  0  0  0  0
   45.9850   35.9290   42.0510 H   0  0  0  0  0  0  0  0  0  0  0  0
   47.9660   35.2680   40.6550 H   0  0  0  0  0  0  0  0  0  0  0  0
   49.4010   33.3640   41.4330 H   0  0  0  0  0  0  0  0  0  0  0  0
   47.4400   29.2480   46.5520 C   0  0  0  0  0  0  0  0  0  0  0  0
   48.5570   28.6800   45.9860 C   0  0  0  0  0  0  0  0  0  0  0  0
   48.5270   27.3510   46.4080 C   0  0  0  0  0  0  0  0  0  0  0  0
   47.4080   27.1900   47.1950 C   0  0  0  0  0  0  0  0  0  0  0  0
   46.8010   28.3560   47.2420 O   0  0  0  0  0  0  0  0  0  0  0  0
   49.3190   29.1240   45.3500 H   0  0  0  0  0  0  0  0  0  0  0  0
   49.2290   26.5500   46.1870 H   0  0  0  0  0  0  0  0  0  0  0  0
   46.9430   25.9820   47.8660 C   0  0  0  0  0  0  0  0  0  0  0  0
   45.7190   25.4560   47.5080 C   0  0  0  0  0  0  0  0  0  0  0  0
   45.3530   24.2970   48.2030 C   0  0  0  0  0  0  0  0  0  0  0  0
   44.4020   23.8460   47.9600 H   0  0  0  0  0  0  0  0  0  0  0  0
   46.1310   23.7380   49.1470 N   0  0  0  0  0  0  0  0  0  0  0  0
   47.3100   24.2820   49.4620 C   0  0  0  0  0  0  0  0  0  0  0  0
   47.7070   25.4010   48.8160 N   0  0  0  0  0  0  0  0  0  0  0  0
  1  9  1  0  0  0  0
  2  1  2  0  0  0  0
  2  3  1  0  0  0  0
  3  4  2  0  0  0  0
  4  8  1  0  0  0  0
  4  5  1  0  0  0  0
  5 12  1  0  0  0  0
  5  6  1  0  0  0  0
  6 13  1  0  0  0  0
  7  6  2  0  0  0  0
  8  7  1  0  0  0  0
  9 23  1  0  0  0  0
  9  8  2  0  0  0  0
 10  1  1  0  0  0  0
 11  3  1  0  0  0  0
 14 19  1  0  0  0  0
 15 16  1  0  0  0  0
 15 14  2  0  0  0  0
 16 17  2  0  0  0  0
 17 18  1  0  0  0  0
 18  2  1  0  0  0  0
 19 18  2  0  0  0  0
 20 14  1  0  0  0  0
 21 15  1  0  0  0  0
 22 16  1  0  0  0  0
 23 27  1  0  0  0  0
 24 25  1  0  0  0  0
 24 23  2  0  0  0  0
 25 26  2  0  0  0  0
 26 27  1  0  0  0  0
 26 30  1  0  0  0  0
 28 24  1  0  0  0  0
 29 25  1  0  0  0  0
 30 36  1  0  0  0  0
 31 30  2  0  0  0  0
 31 32  1  0  0  0  0
 32 34  2  0  0  0  0
 33 32  1  0  0  0  0
 34 35  1  0  0  0  0
 36 35  2  0  0  0  0
M  END
>  <minimizedAffinity>
-5.88112545

>  <minimizedRMSD>
1.18403471

$$$$
