
 OpenBabel03252507083D

 22 23  0  0  0  0  0  0  0  0999 V2000
   44.5480   36.0060   44.4750 C   0  0  0  0  0  0  0  0  0  0  0  0
   45.1830   35.9660   43.2210 C   0  0  0  0  0  0  0  0  0  0  0  0
   46.0920   34.9250   42.9950 C   0  0  0  0  0  0  0  0  0  0  0  0
   46.3170   34.0180   43.9770 N   0  0  0  0  0  0  0  0  0  0  0  0
   45.6910   34.0830   45.1760 C   0  0  0  0  0  0  0  0  0  0  0  0
   44.8170   35.0670   45.4170 N   0  0  0  0  0  0  0  0  0  0  0  0
   43.8490   36.8420   44.5880 H   0  0  0  0  0  0  0  0  0  0  0  0
   44.9930   36.6960   42.4460 H   0  0  0  0  0  0  0  0  0  0  0  0
   45.9740   33.0770   46.1950 C   0  0  0  0  0  0  0  0  0  0  0  0
   46.9670   32.1520   45.9820 C   0  0  0  0  0  3  0  0  0  0  0  0
   47.1710   31.2400   46.9890 C   0  0  0  0  0  0  0  0  0  0  0  0
   47.9240   30.4560   46.9470 H   0  0  0  0  0  0  0  0  0  0  0  0
   46.4760   31.2100   48.1270 N   0  0  0  0  0  0  0  0  0  0  0  0
   45.4940   32.1430   48.3100 C   0  0  0  0  0  3  0  0  0  0  0  0
   45.2720   33.0490   47.3390 N   0  0  0  0  0  0  0  0  0  0  0  0
   46.7100   34.9030   41.7490 O   0  0  0  0  0  0  0  0  0  0  0  0
   48.6720   33.2770   41.0410 O   0  0  0  0  0  0  0  0  0  0  0  0
   48.4010   34.6320   41.6680 P   0  0  0  0  0  0  0  0  0  0  0  0
   49.0870   35.8790   40.7870 O   0  0  0  0  0  0  0  0  0  0  0  0
   50.0260   35.6270   40.5630 H   0  0  0  0  0  0  0  0  0  0  0  0
   48.9820   34.5950   43.2710 O   0  0  0  0  0  0  0  0  0  0  0  0
   48.7570   35.5000   43.6460 H   0  0  0  0  0  0  0  0  0  0  0  0
  1  7  1  0  0  0  0
  1  6  1  0  0  0  0
  2  1  2  0  0  0  0
  3  2  1  0  0  0  0
  3  4  2  0  0  0  0
  4  5  1  0  0  0  0
  5  6  2  0  0  0  0
  5  9  1  0  0  0  0
  8  2  1  0  0  0  0
  9 15  1  0  0  0  0
 10  9  2  0  0  0  0
 10 11  1  0  0  0  0
 11 13  2  0  0  0  0
 12 11  1  0  0  0  0
 13 14  1  0  0  0  0
 15 14  2  0  0  0  0
 16  3  1  0  0  0  0
 17 18  2  0  0  0  0
 18 16  1  0  0  0  0
 18 21  1  0  0  0  0
 19 18  1  0  0  0  0
 20 19  1  0  0  0  0
 21 22  1  0  0  0  0
M  END
>  <minimizedAffinity>
-5.66983128

>  <minimizedRMSD>
0.19890295

$$$$
