
 OpenBabel03242522543D

 38 40  0  0  1  0  0  0  0  0999 V2000
   48.2910   31.3890   48.4890 C   0  0  0  0  0  0  0  0  0  0  0  0
   48.8880   32.1800   49.2960 O   0  0  0  0  0  0  0  0  0  0  0  0
   49.1840   30.3540   48.8690 N   0  0  0  0  0  0  0  0  0  0  0  0
   49.3510   29.4540   47.7420 C   0  0  0  0  0  0  0  0  0  0  0  0
   50.2270   28.3220   48.2370 C   0  0  0  0  0  0  0  0  0  0  0  0
   49.7840   27.9000   49.5720 N   0  0  0  0  0  0  0  0  0  0  0  0
   50.3440   28.8690   50.4740 C   0  0  0  0  0  0  0  0  0  0  0  0
   49.8220   30.2200   50.1640 C   0  0  1  0  0  0  0  0  0  0  0  0
   49.9670   29.9840   46.9740 H   0  0  0  0  0  0  0  0  0  0  0  0
   48.3950   29.0610   47.3420 H   0  0  0  0  0  0  0  0  0  0  0  0
   51.2960   28.5260   48.1780 H   0  0  0  0  0  0  0  0  0  0  0  0
   50.0420   27.4480   47.5680 H   0  0  0  0  0  0  0  0  0  0  0  0
   50.1580   26.9350   49.7110 H   0  0  0  0  0  0  0  0  0  0  0  0
   51.4480   28.8050   50.5590 H   0  0  0  0  0  0  0  0  0  0  0  0
   49.9660   28.5830   51.4960 H   0  0  0  0  0  0  0  0  0  0  0  0
   49.1150   30.6000   50.9160 H   0  0  0  0  0  0  0  0  0  0  0  0
   50.9800   31.1710   50.1360 C   0  0  0  0  0  0  0  0  0  0  0  0
   51.2310   32.1470   51.0640 C   0  0  0  0  0  0  0  0  0  0  0  0
   52.3610   32.9350   50.8690 C   0  0  0  0  0  0  0  0  0  0  0  0
   52.5590   33.7110   51.6060 H   0  0  0  0  0  0  0  0  0  0  0  0
   53.1800   32.7540   49.8160 N   0  0  0  0  0  0  0  0  0  0  0  0
   52.9180   31.7900   48.9150 C   0  0  0  0  0  0  0  0  0  0  0  0
   51.8370   31.0380   49.1050 N   0  0  0  0  0  0  0  0  0  0  0  0
   47.2550   31.9780   47.8200 O   0  0  0  0  0  0  0  0  0  0  0  0
   44.8790   30.8670   47.5490 O   0  0  0  0  0  0  0  0  0  0  0  0
   45.6410   32.0380   48.1900 P   0  0  1  0  0  0  0  0  0  0  0  0
   45.3890   31.9250   49.8460 O   0  0  0  0  0  0  0  0  0  0  0  0
   46.1540   32.3110   50.3560 H   0  0  0  0  0  0  0  0  0  0  0  0
   44.9740   33.4750   47.5830 O   0  0  0  0  0  0  0  0  0  0  0  0
   46.5340   33.6420   44.3140 C   0  0  0  0  0  0  0  0  0  0  0  0
   46.1910   33.2370   45.6280 C   0  0  0  0  0  0  0  0  0  0  0  0
   45.2450   33.9340   46.3220 C   0  0  0  0  0  0  0  0  0  0  0  0
   44.6550   35.0000   45.7320 N   0  0  0  0  0  0  0  0  0  0  0  0
   44.9830   35.3830   44.4850 C   0  0  0  0  0  0  0  0  0  0  0  0
   45.9060   34.7250   43.7740 N   0  0  0  0  0  0  0  0  0  0  0  0
   47.2730   33.1390   43.7060 H   0  0  0  0  0  0  0  0  0  0  0  0
   46.7550   32.3830   45.9210 H   0  0  0  0  0  0  0  0  0  0  0  0
   44.4900   36.2380   44.0540 H   0  0  0  0  0  0  0  0  0  0  0  0
  1  3  1  0  0  0  0
  1  2  2  0  0  0  0
  3  8  1  0  0  0  0
  4  5  1  0  0  0  0
  4  3  1  0  0  0  0
  5  6  1  0  0  0  0
  6 13  1  0  0  0  0
  6  7  1  0  0  0  0
  7 14  1  0  0  0  0
  7 15  1  0  0  0  0
  8  7  1  0  0  0  0
  8 16  1  1  0  0  0
  9  4  1  0  0  0  0
 10  4  1  0  0  0  0
 11  5  1  0  0  0  0
 12  5  1  0  0  0  0
 17  8  1  0  0  0  0
 17 18  1  0  0  0  0
 19 18  2  0  0  0  0
 19 20  1  0  0  0  0
 21 19  1  0  0  0  0
 22 23  1  0  0  0  0
 22 21  2  0  0  0  0
 23 17  2  0  0  0  0
 24 26  1  0  0  0  0
 24  1  1  0  0  0  0
 26 25  2  6  0  0  0
 26 27  1  0  0  0  0
 27 28  1  0  0  0  0
 29 26  1  0  0  0  0
 30 31  1  0  0  0  0
 31 37  1  0  0  0  0
 31 32  2  0  0  0  0
 32 29  1  0  0  0  0
 33 32  1  0  0  0  0
 34 33  2  0  0  0  0
 35 30  2  0  0  0  0
 35 34  1  0  0  0  0
 36 30  1  0  0  0  0
 38 34  1  0  0  0  0
M  END
>  <minimizedAffinity>
-5.8589282

>  <minimizedRMSD>
0.778428495

$$$$
