
 OpenBabel03242519233D

 32 34  0  0  0  0  0  0  0  0999 V2000
   37.3170   27.4310   42.5620 C   0  0  0  0  0  0  0  0  0  0  0  0
   38.2160   27.7700   43.6800 C   0  0  0  0  0  0  0  0  0  0  0  0
   39.5890   27.1910   43.5420 C   0  0  0  0  0  0  0  0  0  0  0  0
   39.5770   25.6900   43.3360 C   0  0  0  0  0  0  0  0  0  0  0  0
   38.4800   25.2200   42.4070 C   0  0  0  0  0  0  0  0  0  0  0  0
   37.8680   26.3620   41.6260 C   0  0  0  0  0  0  0  0  0  0  0  0
   36.3260   27.0430   42.9430 H   0  0  0  0  0  0  0  0  0  0  0  0
   38.3240   28.8430   43.8940 H   0  0  0  0  0  0  0  0  0  0  0  0
   37.7900   27.3390   44.6320 H   0  0  0  0  0  0  0  0  0  0  0  0
   40.2480   27.6370   42.8070 H   0  0  0  0  0  0  0  0  0  0  0  0
   40.0760   27.3310   44.5520 H   0  0  0  0  0  0  0  0  0  0  0  0
   40.5530   25.4050   42.8920 H   0  0  0  0  0  0  0  0  0  0  0  0
   39.5160   25.1540   44.3160 H   0  0  0  0  0  0  0  0  0  0  0  0
   38.8340   24.4810   41.6760 H   0  0  0  0  0  0  0  0  0  0  0  0
   37.6610   24.7670   43.0090 H   0  0  0  0  0  0  0  0  0  0  0  0
   36.9870   25.9410   41.0960 H   0  0  0  0  0  0  0  0  0  0  0  0
   38.5240   26.7760   40.8490 H   0  0  0  0  0  0  0  0  0  0  0  0
   36.9820   28.6000   41.7210 C   0  0  0  0  0  0  0  0  0  0  0  0
   35.7350   28.5430   41.0550 C   0  0  0  0  0  0  0  0  0  0  0  0
   35.3390   29.6120   40.2430 C   0  0  0  0  0  0  0  0  0  0  0  0
   36.2090   30.6690   40.1470 N   0  0  0  0  0  0  0  0  0  0  0  0
   37.4010   30.6960   40.8000 C   0  0  0  0  0  0  0  0  0  0  0  0
   37.7720   29.6710   41.5730 N   0  0  0  0  0  0  0  0  0  0  0  0
   35.0200   27.7670   41.0810 H   0  0  0  0  0  0  0  0  0  0  0  0
   34.4020   29.6340   39.7050 H   0  0  0  0  0  0  0  0  0  0  0  0
   38.2610   31.8650   40.6380 C   0  0  0  0  0  0  0  0  0  0  0  0
   37.7000   33.0800   40.3040 C   0  0  0  0  0  3  0  0  0  0  0  0
   38.6100   34.1240   40.1750 C   0  0  0  0  0  0  0  0  0  0  0  0
   38.1610   35.0920   39.9090 H   0  0  0  0  0  0  0  0  0  0  0  0
   39.9330   33.9830   40.3570 N   0  0  0  0  0  0  0  0  0  0  0  0
   40.4380   32.7800   40.6810 C   0  0  0  0  0  3  0  0  0  0  0  0
   39.5890   31.7510   40.8140 N   0  0  0  0  0  0  0  0  0  0  0  0
  1  7  1  0  0  0  0
  1  2  1  0  0  0  0
  2  8  1  0  0  0  0
  2  9  1  0  0  0  0
  3  2  1  0  0  0  0
  3 11  1  0  0  0  0
  4  3  1  0  0  0  0
  4 13  1  0  0  0  0
  5 15  1  0  0  0  0
  5  4  1  0  0  0  0
  6  5  1  0  0  0  0
  6  1  1  0  0  0  0
 10  3  1  0  0  0  0
 12  4  1  0  0  0  0
 14  5  1  0  0  0  0
 16  6  1  0  0  0  0
 17  6  1  0  0  0  0
 18  1  1  0  0  0  0
 19 24  1  0  0  0  0
 19 18  2  0  0  0  0
 20 19  1  0  0  0  0
 21 20  2  0  0  0  0
 21 22  1  0  0  0  0
 22 23  2  0  0  0  0
 23 18  1  0  0  0  0
 25 20  1  0  0  0  0
 26 22  1  0  0  0  0
 26 32  1  0  0  0  0
 27 26  2  0  0  0  0
 28 27  1  0  0  0  0
 28 30  2  0  0  0  0
 29 28  1  0  0  0  0
 30 31  1  0  0  0  0
 31 32  2  0  0  0  0
M  END
>  <minimizedAffinity>
-5.44278288

$$$$

 OpenBabel03242519233D

 32 34  0  0  0  0  0  0  0  0999 V2000
   37.2320   29.6370   42.0020 C   0  0  0  0  0  0  0  0  0  0  0  0
   38.4570   29.6310   42.8220 C   0  0  0  0  0  0  0  0  0  0  0  0
   39.0030   28.2600   43.0730 C   0  0  0  0  0  0  0  0  0  0  0  0
   37.9810   27.3210   43.6790 C   0  0  0  0  0  0  0  0  0  0  0  0
   36.6010   27.4670   43.0780 C   0  0  0  0  0  0  0  0  0  0  0  0
   36.6220   28.2560   41.7890 C   0  0  0  0  0  0  0  0  0  0  0  0
   36.4270   30.2710   42.4810 H   0  0  0  0  0  0  0  0  0  0  0  0
   39.2800   30.2590   42.4510 H   0  0  0  0  0  0  0  0  0  0  0  0
   38.2160   30.0610   43.8380 H   0  0  0  0  0  0  0  0  0  0  0  0
   39.4910   27.7590   42.2470 H   0  0  0  0  0  0  0  0  0  0  0  0
   39.7790   28.3920   43.8850 H   0  0  0  0  0  0  0  0  0  0  0  0
   38.3310   26.2840   43.4960 H   0  0  0  0  0  0  0  0  0  0  0  0
   37.9390   27.4410   44.7910 H   0  0  0  0  0  0  0  0  0  0  0  0
   36.1330   26.4980   42.8580 H   0  0  0  0  0  0  0  0  0  0  0  0
   35.9520   28.0270   43.7880 H   0  0  0  0  0  0  0  0  0  0  0  0
   35.5610   28.4330   41.5130 H   0  0  0  0  0  0  0  0  0  0  0  0
   37.0740   27.7210   40.9430 H   0  0  0  0  0  0  0  0  0  0  0  0
   37.4430   30.2200   40.6600 C   0  0  0  0  0  0  0  0  0  0  0  0
   36.4600   29.9090   39.6910 C   0  0  0  0  0  0  0  0  0  0  0  0
   36.5830   30.4260   38.3960 C   0  0  0  0  0  0  0  0  0  0  0  0
   37.6740   31.2210   38.1500 N   0  0  0  0  0  0  0  0  0  0  0  0
   38.6030   31.5030   39.1020 C   0  0  0  0  0  0  0  0  0  0  0  0
   38.4790   31.0050   40.3360 N   0  0  0  0  0  0  0  0  0  0  0  0
   35.6000   29.3090   39.8080 H   0  0  0  0  0  0  0  0  0  0  0  0
   35.8710   30.2290   37.6080 H   0  0  0  0  0  0  0  0  0  0  0  0
   39.7310   32.3590   38.7470 C   0  0  0  0  0  0  0  0  0  0  0  0
   40.0710   33.4110   39.5730 C   0  0  0  0  0  3  0  0  0  0  0  0
   41.1600   34.1600   39.1380 C   0  0  0  0  0  0  0  0  0  0  0  0
   41.4300   34.9980   39.7980 H   0  0  0  0  0  0  0  0  0  0  0  0
   41.8400   33.8980   38.0110 N   0  0  0  0  0  0  0  0  0  0  0  0
   41.4750   32.8620   37.2360 C   0  0  0  0  0  3  0  0  0  0  0  0
   40.4290   32.1180   37.6230 N   0  0  0  0  0  0  0  0  0  0  0  0
  1  7  1  0  0  0  0
  1  2  1  0  0  0  0
  2  3  1  0  0  0  0
  2  9  1  0  0  0  0
  3  4  1  0  0  0  0
  3 11  1  0  0  0  0
  4 13  1  0  0  0  0
  5  4  1  0  0  0  0
  5 15  1  0  0  0  0
  6  1  1  0  0  0  0
  6  5  1  0  0  0  0
  8  2  1  0  0  0  0
 10  3  1  0  0  0  0
 12  4  1  0  0  0  0
 14  5  1  0  0  0  0
 16  6  1  0  0  0  0
 17  6  1  0  0  0  0
 18  1  1  0  0  0  0
 19 24  1  0  0  0  0
 19 18  2  0  0  0  0
 20 19  1  0  0  0  0
 21 20  2  0  0  0  0
 21 22  1  0  0  0  0
 22 23  2  0  0  0  0
 23 18  1  0  0  0  0
 25 20  1  0  0  0  0
 26 22  1  0  0  0  0
 26 27  1  0  0  0  0
 28 27  2  0  0  0  0
 28 29  1  0  0  0  0
 30 28  1  0  0  0  0
 31 32  1  0  0  0  0
 31 30  2  0  0  0  0
 32 26  2  0  0  0  0
M  END
>  <minimizedAffinity>
-5.23427677

$$$$

 OpenBabel03242519233D

 32 34  0  0  0  0  0  0  0  0999 V2000
   36.8950   26.9570   41.4200 C   0  0  0  0  0  0  0  0  0  0  0  0
   36.9670   25.9230   42.4680 C   0  0  0  0  0  0  0  0  0  0  0  0
   37.5470   24.6270   41.9910 C   0  0  0  0  0  0  0  0  0  0  0  0
   36.8300   24.0730   40.7770 C   0  0  0  0  0  0  0  0  0  0  0  0
   36.4580   25.1320   39.7640 C   0  0  0  0  0  0  0  0  0  0  0  0
   37.1780   26.4380   40.0160 C   0  0  0  0  0  0  0  0  0  0  0  0
   35.8680   27.4280   41.3860 H   0  0  0  0  0  0  0  0  0  0  0  0
   37.4990   26.2120   43.3850 H   0  0  0  0  0  0  0  0  0  0  0  0
   35.9200   25.6850   42.8170 H   0  0  0  0  0  0  0  0  0  0  0  0
   38.6140   24.5940   41.8110 H   0  0  0  0  0  0  0  0  0  0  0  0
   37.3260   23.8810   42.8120 H   0  0  0  0  0  0  0  0  0  0  0  0
   37.5140   23.3490   40.2870 H   0  0  0  0  0  0  0  0  0  0  0  0
   35.9270   23.4870   41.0810 H   0  0  0  0  0  0  0  0  0  0  0  0
   36.6870   24.8290   38.7340 H   0  0  0  0  0  0  0  0  0  0  0  0
   35.3690   25.3450   39.8430 H   0  0  0  0  0  0  0  0  0  0  0  0
   36.7300   27.1810   39.3220 H   0  0  0  0  0  0  0  0  0  0  0  0
   38.2510   26.4100   39.7830 H   0  0  0  0  0  0  0  0  0  0  0  0
   37.8310   28.0770   41.6560 C   0  0  0  0  0  0  0  0  0  0  0  0
   38.9620   27.7790   42.4520 C   0  0  0  0  0  0  0  0  0  0  0  0
   39.9000   28.7830   42.7180 C   0  0  0  0  0  0  0  0  0  0  0  0
   39.6520   30.0190   42.1760 N   0  0  0  0  0  0  0  0  0  0  0  0
   38.5560   30.2760   41.4150 C   0  0  0  0  0  0  0  0  0  0  0  0
   37.6640   29.3120   41.1640 N   0  0  0  0  0  0  0  0  0  0  0  0
   39.2160   26.8580   42.8990 H   0  0  0  0  0  0  0  0  0  0  0  0
   40.7850   28.6250   43.3180 H   0  0  0  0  0  0  0  0  0  0  0  0
   38.3760   31.6230   40.8790 C   0  0  0  0  0  0  0  0  0  0  0  0
   37.2470   31.9150   40.1420 C   0  0  0  0  0  3  0  0  0  0  0  0
   37.1800   33.2260   39.6800 C   0  0  0  0  0  0  0  0  0  0  0  0
   36.2780   33.4580   39.0940 H   0  0  0  0  0  0  0  0  0  0  0  0
   38.1250   34.1490   39.9220 N   0  0  0  0  0  0  0  0  0  0  0  0
   39.2090   33.8210   40.6450 C   0  0  0  0  0  3  0  0  0  0  0  0
   39.3080   32.5650   41.1060 N   0  0  0  0  0  0  0  0  0  0  0  0
  1 18  1  0  0  0  0
  1  2  1  0  0  0  0
  2  9  1  0  0  0  0
  2  8  1  0  0  0  0
  3  2  1  0  0  0  0
  3 11  1  0  0  0  0
  4 13  1  0  0  0  0
  4  3  1  0  0  0  0
  5 15  1  0  0  0  0
  5  6  1  0  0  0  0
  5  4  1  0  0  0  0
  6  1  1  0  0  0  0
  7  1  1  0  0  0  0
 10  3  1  0  0  0  0
 12  4  1  0  0  0  0
 14  5  1  0  0  0  0
 16  6  1  0  0  0  0
 17  6  1  0  0  0  0
 18 19  1  0  0  0  0
 19 20  2  0  0  0  0
 19 24  1  0  0  0  0
 20 25  1  0  0  0  0
 21 20  1  0  0  0  0
 22 21  2  0  0  0  0
 23 22  1  0  0  0  0
 23 18  2  0  0  0  0
 26 32  1  0  0  0  0
 26 22  1  0  0  0  0
 27 26  2  0  0  0  0
 28 30  2  0  0  0  0
 28 27  1  0  0  0  0
 29 28  1  0  0  0  0
 30 31  1  0  0  0  0
 31 32  2  0  0  0  0
M  END
>  <minimizedAffinity>
-5.1625433

$$$$

 OpenBabel03242519233D

 32 34  0  0  0  0  0  0  0  0999 V2000
   36.9940   25.3590   41.8650 C   0  0  0  0  0  0  0  0  0  0  0  0
   38.1140   24.5680   42.4050 C   0  0  0  0  0  0  0  0  0  0  0  0
   38.9210   23.8750   41.3510 C   0  0  0  0  0  0  0  0  0  0  0  0
   38.0780   23.0060   40.4400 C   0  0  0  0  0  0  0  0  0  0  0  0
   36.7570   23.6390   40.0620 C   0  0  0  0  0  0  0  0  0  0  0  0
   36.7190   25.1150   40.3860 C   0  0  0  0  0  0  0  0  0  0  0  0
   36.0320   25.1230   42.4110 H   0  0  0  0  0  0  0  0  0  0  0  0
   38.8110   25.1140   43.0570 H   0  0  0  0  0  0  0  0  0  0  0  0
   37.6990   23.7520   43.0650 H   0  0  0  0  0  0  0  0  0  0  0  0
   39.5760   24.4850   40.7420 H   0  0  0  0  0  0  0  0  0  0  0  0
   39.5750   23.1420   41.9100 H   0  0  0  0  0  0  0  0  0  0  0  0
   38.6590   22.8350   39.5100 H   0  0  0  0  0  0  0  0  0  0  0  0
   37.9140   21.9970   40.8920 H   0  0  0  0  0  0  0  0  0  0  0  0
   36.5310   23.5350   38.9930 H   0  0  0  0  0  0  0  0  0  0  0  0
   35.9420   23.1590   40.6500 H   0  0  0  0  0  0  0  0  0  0  0  0
   35.6730   25.4460   40.2140 H   0  0  0  0  0  0  0  0  0  0  0  0
   37.3480   25.7330   39.7310 H   0  0  0  0  0  0  0  0  0  0  0  0
   37.1900   26.8150   42.0270 C   0  0  0  0  0  0  0  0  0  0  0  0
   37.4070   27.2640   43.3510 C   0  0  0  0  0  0  0  0  0  0  0  0
   37.6060   28.6280   43.5910 C   0  0  0  0  0  0  0  0  0  0  0  0
   37.5780   29.4580   42.4980 N   0  0  0  0  0  0  0  0  0  0  0  0
   37.3680   28.9970   41.2370 C   0  0  0  0  0  0  0  0  0  0  0  0
   37.1770   27.6930   41.0160 N   0  0  0  0  0  0  0  0  0  0  0  0
   37.4410   26.6880   44.2350 H   0  0  0  0  0  0  0  0  0  0  0  0
   37.7770   29.0390   44.5760 H   0  0  0  0  0  0  0  0  0  0  0  0
   37.3550   29.9560   40.1350 C   0  0  0  0  0  0  0  0  0  0  0  0
   37.0610   31.2790   40.3900 C   0  0  0  0  0  3  0  0  0  0  0  0
   37.0760   32.1030   39.2690 C   0  0  0  0  0  0  0  0  0  0  0  0
   36.8420   33.1580   39.4740 H   0  0  0  0  0  0  0  0  0  0  0  0
   37.3540   31.6660   38.0290 N   0  0  0  0  0  0  0  0  0  0  0  0
   37.6360   30.3680   37.8260 C   0  0  0  0  0  3  0  0  0  0  0  0
   37.6290   29.5440   38.8840 N   0  0  0  0  0  0  0  0  0  0  0  0
  1 18  1  0  0  0  0
  1  2  1  0  0  0  0
  1  7  1  0  0  0  0
  2  8  1  0  0  0  0
  2  9  1  0  0  0  0
  3 11  1  0  0  0  0
  3  2  1  0  0  0  0
  4 13  1  0  0  0  0
  4  3  1  0  0  0  0
  5  6  1  0  0  0  0
  5  4  1  0  0  0  0
  5 15  1  0  0  0  0
  6  1  1  0  0  0  0
 10  3  1  0  0  0  0
 12  4  1  0  0  0  0
 14  5  1  0  0  0  0
 16  6  1  0  0  0  0
 17  6  1  0  0  0  0
 18 19  1  0  0  0  0
 19 20  2  0  0  0  0
 19 24  1  0  0  0  0
 20 25  1  0  0  0  0
 21 20  1  0  0  0  0
 22 21  2  0  0  0  0
 23 22  1  0  0  0  0
 23 18  2  0  0  0  0
 26 27  1  0  0  0  0
 26 22  1  0  0  0  0
 28 29  1  0  0  0  0
 28 27  2  0  0  0  0
 30 28  1  0  0  0  0
 31 30  2  0  0  0  0
 31 32  1  0  0  0  0
 32 26  2  0  0  0  0
M  END
>  <minimizedAffinity>
-5.13817739

$$$$

 OpenBabel03242519233D

 32 34  0  0  0  0  0  0  0  0999 V2000
   37.7720   25.8470   40.6790 C   0  0  0  0  0  0  0  0  0  0  0  0
   37.3810   26.0410   39.2710 C   0  0  0  0  0  0  0  0  0  0  0  0
   36.0940   25.3680   38.9080 C   0  0  0  0  0  0  0  0  0  0  0  0
   36.0900   23.8890   39.2370 C   0  0  0  0  0  0  0  0  0  0  0  0
   36.7440   23.5680   40.5630 C   0  0  0  0  0  0  0  0  0  0  0  0
   36.9410   24.8020   41.4140 C   0  0  0  0  0  0  0  0  0  0  0  0
   38.8490   25.5110   40.7570 H   0  0  0  0  0  0  0  0  0  0  0  0
   37.3210   27.0860   38.9340 H   0  0  0  0  0  0  0  0  0  0  0  0
   38.1710   25.5820   38.6070 H   0  0  0  0  0  0  0  0  0  0  0  0
   35.1780   25.8100   39.2790 H   0  0  0  0  0  0  0  0  0  0  0  0
   36.0470   25.4030   37.7790 H   0  0  0  0  0  0  0  0  0  0  0  0
   35.0310   23.5600   39.2840 H   0  0  0  0  0  0  0  0  0  0  0  0
   36.5620   23.2970   38.4140 H   0  0  0  0  0  0  0  0  0  0  0  0
   36.1600   22.8530   41.1580 H   0  0  0  0  0  0  0  0  0  0  0  0
   37.7540   23.1400   40.3770 H   0  0  0  0  0  0  0  0  0  0  0  0
   37.5540   24.4860   42.2850 H   0  0  0  0  0  0  0  0  0  0  0  0
   36.0110   25.2150   41.8270 H   0  0  0  0  0  0  0  0  0  0  0  0
   37.6910   27.0910   41.4730 C   0  0  0  0  0  0  0  0  0  0  0  0
   37.4380   26.9240   42.8550 C   0  0  0  0  0  0  0  0  0  0  0  0
   37.3510   28.0520   43.6790 C   0  0  0  0  0  0  0  0  0  0  0  0
   37.5240   29.2720   43.0760 N   0  0  0  0  0  0  0  0  0  0  0  0
   37.7660   29.4020   41.7450 C   0  0  0  0  0  0  0  0  0  0  0  0
   37.8470   28.3200   40.9640 N   0  0  0  0  0  0  0  0  0  0  0  0
   37.2960   26.0230   43.3850 H   0  0  0  0  0  0  0  0  0  0  0  0
   37.1600   27.9980   44.7420 H   0  0  0  0  0  0  0  0  0  0  0  0
   37.9350   30.7420   41.1910 C   0  0  0  0  0  0  0  0  0  0  0  0
   36.9300   31.2910   40.4220 C   0  0  0  0  0  3  0  0  0  0  0  0
   37.1970   32.5700   39.9460 C   0  0  0  0  0  0  0  0  0  0  0  0
   36.3940   33.0070   39.3340 H   0  0  0  0  0  0  0  0  0  0  0  0
   38.3350   33.2360   40.2020 N   0  0  0  0  0  0  0  0  0  0  0  0
   39.2890   32.6630   40.9570 C   0  0  0  0  0  3  0  0  0  0  0  0
   39.0650   31.4300   41.4330 N   0  0  0  0  0  0  0  0  0  0  0  0
  1  7  1  0  0  0  0
  1  6  1  0  0  0  0
  1 18  1  0  0  0  0
  2  1  1  0  0  0  0
  3  4  1  0  0  0  0
  3  2  1  0  0  0  0
  3 10  1  0  0  0  0
  4 12  1  0  0  0  0
  4  5  1  0  0  0  0
  5 14  1  0  0  0  0
  5  6  1  0  0  0  0
  6 17  1  0  0  0  0
  6 16  1  0  0  0  0
  8  2  1  0  0  0  0
  9  2  1  0  0  0  0
 11  3  1  0  0  0  0
 13  4  1  0  0  0  0
 15  5  1  0  0  0  0
 18 19  1  0  0  0  0
 19 24  1  0  0  0  0
 19 20  2  0  0  0  0
 20 25  1  0  0  0  0
 21 20  1  0  0  0  0
 22 21  2  0  0  0  0
 23 18  2  0  0  0  0
 23 22  1  0  0  0  0
 26 32  1  0  0  0  0
 26 22  1  0  0  0  0
 27 26  2  0  0  0  0
 28 30  2  0  0  0  0
 28 27  1  0  0  0  0
 29 28  1  0  0  0  0
 30 31  1  0  0  0  0
 31 32  2  0  0  0  0
M  END
>  <minimizedAffinity>
-5.05864477

$$$$

 OpenBabel03242519233D

 32 34  0  0  0  0  0  0  0  0999 V2000
   36.4730   30.0710   41.0600 C   0  0  0  0  0  0  0  0  0  0  0  0
   35.8600   29.9390   39.7260 C   0  0  0  0  0  0  0  0  0  0  0  0
   36.6870   30.5260   38.6250 C   0  0  0  0  0  0  0  0  0  0  0  0
   37.0560   31.9740   38.8740 C   0  0  0  0  0  0  0  0  0  0  0  0
   37.4300   32.2590   40.3120 C   0  0  0  0  0  0  0  0  0  0  0  0
   37.6870   30.9910   41.0960 C   0  0  0  0  0  0  0  0  0  0  0  0
   35.7330   30.4880   41.8060 H   0  0  0  0  0  0  0  0  0  0  0  0
   35.5810   28.9180   39.4300 H   0  0  0  0  0  0  0  0  0  0  0  0
   34.8830   30.5050   39.7180 H   0  0  0  0  0  0  0  0  0  0  0  0
   37.5770   29.9860   38.3280 H   0  0  0  0  0  0  0  0  0  0  0  0
   36.0040   30.5620   37.7250 H   0  0  0  0  0  0  0  0  0  0  0  0
   37.9320   32.2100   38.2350 H   0  0  0  0  0  0  0  0  0  0  0  0
   36.2360   32.6570   38.5400 H   0  0  0  0  0  0  0  0  0  0  0  0
   38.3310   32.8810   40.3980 H   0  0  0  0  0  0  0  0  0  0  0  0
   36.5840   32.7810   40.8120 H   0  0  0  0  0  0  0  0  0  0  0  0
   37.8040   31.2980   42.1570 H   0  0  0  0  0  0  0  0  0  0  0  0
   38.6170   30.4760   40.8220 H   0  0  0  0  0  0  0  0  0  0  0  0
   36.9060   28.7740   41.6220 C   0  0  0  0  0  0  0  0  0  0  0  0
   37.4220   28.8140   42.9390 C   0  0  0  0  0  0  0  0  0  0  0  0
   37.8490   27.6280   43.5470 C   0  0  0  0  0  0  0  0  0  0  0  0
   37.7360   26.4790   42.8060 N   0  0  0  0  0  0  0  0  0  0  0  0
   37.2360   26.4710   41.5420 C   0  0  0  0  0  0  0  0  0  0  0  0
   36.8300   27.6070   40.9680 N   0  0  0  0  0  0  0  0  0  0  0  0
   37.5380   29.6560   43.5650 H   0  0  0  0  0  0  0  0  0  0  0  0
   38.2530   27.5860   44.5490 H   0  0  0  0  0  0  0  0  0  0  0  0
   37.1540   25.1980   40.8300 C   0  0  0  0  0  0  0  0  0  0  0  0
   36.4040   25.1140   39.6750 C   0  0  0  0  0  3  0  0  0  0  0  0
   36.3940   23.8570   39.0810 C   0  0  0  0  0  0  0  0  0  0  0  0
   35.7960   23.7910   38.1590 H   0  0  0  0  0  0  0  0  0  0  0  0
   37.0540   22.7960   39.5740 N   0  0  0  0  0  0  0  0  0  0  0  0
   37.7740   22.9230   40.7020 C   0  0  0  0  0  3  0  0  0  0  0  0
   37.8050   24.1210   41.3030 N   0  0  0  0  0  0  0  0  0  0  0  0
  1  6  1  0  0  0  0
  1 18  1  0  0  0  0
  1  7  1  0  0  0  0
  2  1  1  0  0  0  0
  3  4  1  0  0  0  0
  3  2  1  0  0  0  0
  4  5  1  0  0  0  0
  5 14  1  0  0  0  0
  5 15  1  0  0  0  0
  5  6  1  0  0  0  0
  6 16  1  0  0  0  0
  8  2  1  0  0  0  0
  9  2  1  0  0  0  0
 10  3  1  0  0  0  0
 11  3  1  0  0  0  0
 12  4  1  0  0  0  0
 13  4  1  0  0  0  0
 17  6  1  0  0  0  0
 18 19  1  0  0  0  0
 19 20  2  0  0  0  0
 19 24  1  0  0  0  0
 20 25  1  0  0  0  0
 21 20  1  0  0  0  0
 22 21  2  0  0  0  0
 23 22  1  0  0  0  0
 23 18  2  0  0  0  0
 26 32  1  0  0  0  0
 26 22  1  0  0  0  0
 27 26  2  0  0  0  0
 28 30  2  0  0  0  0
 28 27  1  0  0  0  0
 29 28  1  0  0  0  0
 30 31  1  0  0  0  0
 31 32  2  0  0  0  0
M  END
>  <minimizedAffinity>
-4.96046782

$$$$

 OpenBabel03242519233D

 32 34  0  0  0  0  0  0  0  0999 V2000
   37.8080   31.8500   40.0330 C   0  0  0  0  0  0  0  0  0  0  0  0
   38.3170   31.8000   38.6510 C   0  0  0  0  0  0  0  0  0  0  0  0
   39.7980   31.9910   38.5500 C   0  0  0  0  0  0  0  0  0  0  0  0
   40.2750   33.2620   39.2230 C   0  0  0  0  0  0  0  0  0  0  0  0
   39.5820   33.5420   40.5380 C   0  0  0  0  0  0  0  0  0  0  0  0
   38.8310   32.3350   41.0530 C   0  0  0  0  0  0  0  0  0  0  0  0
   36.9210   32.5470   40.1130 H   0  0  0  0  0  0  0  0  0  0  0  0
   38.0550   30.8990   38.0790 H   0  0  0  0  0  0  0  0  0  0  0  0
   37.8540   32.6460   38.0620 H   0  0  0  0  0  0  0  0  0  0  0  0
   40.4300   31.1710   38.8690 H   0  0  0  0  0  0  0  0  0  0  0  0
   40.0040   32.1620   37.4520 H   0  0  0  0  0  0  0  0  0  0  0  0
   41.3610   33.1480   39.4220 H   0  0  0  0  0  0  0  0  0  0  0  0
   40.1770   34.1380   38.5350 H   0  0  0  0  0  0  0  0  0  0  0  0
   40.2810   33.8490   41.3260 H   0  0  0  0  0  0  0  0  0  0  0  0
   38.8300   34.3490   40.3890 H   0  0  0  0  0  0  0  0  0  0  0  0
   38.2430   32.6830   41.9290 H   0  0  0  0  0  0  0  0  0  0  0  0
   39.4780   31.5270   41.4200 H   0  0  0  0  0  0  0  0  0  0  0  0
   37.3190   30.5390   40.5110 C   0  0  0  0  0  0  0  0  0  0  0  0
   35.9540   30.2620   40.2640 C   0  0  0  0  0  0  0  0  0  0  0  0
   35.4130   29.0400   40.6800 C   0  0  0  0  0  0  0  0  0  0  0  0
   36.2660   28.1720   41.3130 N   0  0  0  0  0  0  0  0  0  0  0  0
   37.5740   28.4650   41.5370 C   0  0  0  0  0  0  0  0  0  0  0  0
   38.0830   29.6340   41.1370 N   0  0  0  0  0  0  0  0  0  0  0  0
   35.2430   30.8790   39.7860 H   0  0  0  0  0  0  0  0  0  0  0  0
   34.3800   28.7650   40.5240 H   0  0  0  0  0  0  0  0  0  0  0  0
   38.4060   27.4770   42.2190 C   0  0  0  0  0  0  0  0  0  0  0  0
   39.3900   27.9020   43.0870 C   0  0  0  0  0  3  0  0  0  0  0  0
   40.1220   26.8780   43.6800 C   0  0  0  0  0  0  0  0  0  0  0  0
   40.9060   27.2180   44.3720 H   0  0  0  0  0  0  0  0  0  0  0  0
   39.9030   25.5740   43.4420 N   0  0  0  0  0  0  0  0  0  0  0  0
   38.9330   25.2050   42.5890 C   0  0  0  0  0  3  0  0  0  0  0  0
   38.2080   26.1650   41.9980 N   0  0  0  0  0  0  0  0  0  0  0  0
  1  7  1  0  0  0  0
  1 18  1  0  0  0  0
  1  6  1  0  0  0  0
  2  1  1  0  0  0  0
  3  2  1  0  0  0  0
  3 10  1  0  0  0  0
  3  4  1  0  0  0  0
  4 12  1  0  0  0  0
  4  5  1  0  0  0  0
  5  6  1  0  0  0  0
  5 14  1  0  0  0  0
  6 17  1  0  0  0  0
  6 16  1  0  0  0  0
  8  2  1  0  0  0  0
  9  2  1  0  0  0  0
 11  3  1  0  0  0  0
 13  4  1  0  0  0  0
 15  5  1  0  0  0  0
 18 23  1  0  0  0  0
 19 18  2  0  0  0  0
 19 20  1  0  0  0  0
 20 21  2  0  0  0  0
 21 22  1  0  0  0  0
 22 26  1  0  0  0  0
 23 22  2  0  0  0  0
 24 19  1  0  0  0  0
 25 20  1  0  0  0  0
 26 27  1  0  0  0  0
 27 28  2  0  0  0  0
 28 29  1  0  0  0  0
 30 28  1  0  0  0  0
 31 30  2  0  0  0  0
 32 26  2  0  0  0  0
 32 31  1  0  0  0  0
M  END
>  <minimizedAffinity>
-4.77967167

$$$$

 OpenBabel03242519233D

 32 34  0  0  0  0  0  0  0  0999 V2000
   36.0880   28.4150   40.0080 C   0  0  0  0  0  0  0  0  0  0  0  0
   36.6720   28.0080   38.7170 C   0  0  0  0  0  0  0  0  0  0  0  0
   36.1650   28.8020   37.5530 C   0  0  0  0  0  0  0  0  0  0  0  0
   34.6530   28.7990   37.4520 C   0  0  0  0  0  0  0  0  0  0  0  0
   33.9620   28.9270   38.7910 C   0  0  0  0  0  0  0  0  0  0  0  0
   34.9100   29.3730   39.8810 C   0  0  0  0  0  0  0  0  0  0  0  0
   35.7100   27.5170   40.5820 H   0  0  0  0  0  0  0  0  0  0  0  0
   37.7700   28.0080   38.6710 H   0  0  0  0  0  0  0  0  0  0  0  0
   36.3850   26.9360   38.5100 H   0  0  0  0  0  0  0  0  0  0  0  0
   36.5180   29.8200   37.4520 H   0  0  0  0  0  0  0  0  0  0  0  0
   36.5080   28.2390   36.6350 H   0  0  0  0  0  0  0  0  0  0  0  0
   34.3580   29.6660   36.8260 H   0  0  0  0  0  0  0  0  0  0  0  0
   34.2930   27.8890   36.9100 H   0  0  0  0  0  0  0  0  0  0  0  0
   33.1310   29.6450   38.7700 H   0  0  0  0  0  0  0  0  0  0  0  0
   33.5690   27.9310   39.0950 H   0  0  0  0  0  0  0  0  0  0  0  0
   34.3490   29.2910   40.8370 H   0  0  0  0  0  0  0  0  0  0  0  0
   35.2250   30.4220   39.7990 H   0  0  0  0  0  0  0  0  0  0  0  0
   37.0710   29.0650   40.9010 C   0  0  0  0  0  0  0  0  0  0  0  0
   37.2790   28.4340   42.1510 C   0  0  0  0  0  0  0  0  0  0  0  0
   38.1970   28.9830   43.0540 C   0  0  0  0  0  0  0  0  0  0  0  0
   38.8500   30.1220   42.6550 N   0  0  0  0  0  0  0  0  0  0  0  0
   38.6290   30.7060   41.4470 C   0  0  0  0  0  0  0  0  0  0  0  0
   37.7500   30.1770   40.5900 N   0  0  0  0  0  0  0  0  0  0  0  0
   36.8160   27.5620   42.5230 H   0  0  0  0  0  0  0  0  0  0  0  0
   38.4040   28.5540   44.0240 H   0  0  0  0  0  0  0  0  0  0  0  0
   39.3710   31.9180   41.1090 C   0  0  0  0  0  0  0  0  0  0  0  0
   38.6810   33.0680   40.7860 C   0  0  0  0  0  3  0  0  0  0  0  0
   39.4870   34.1600   40.4810 C   0  0  0  0  0  0  0  0  0  0  0  0
   38.9350   35.0770   40.2240 H   0  0  0  0  0  0  0  0  0  0  0  0
   40.8290   34.1210   40.4950 N   0  0  0  0  0  0  0  0  0  0  0  0
   41.4600   32.9790   40.8160 C   0  0  0  0  0  3  0  0  0  0  0  0
   40.7150   31.9050   41.1160 N   0  0  0  0  0  0  0  0  0  0  0  0
  1  7  1  0  0  0  0
  1 18  1  0  0  0  0
  2  1  1  0  0  0  0
  3  2  1  0  0  0  0
  4  3  1  0  0  0  0
  4  5  1  0  0  0  0
  5 15  1  0  0  0  0
  5  6  1  0  0  0  0
  6  1  1  0  0  0  0
  6 16  1  0  0  0  0
  8  2  1  0  0  0  0
  9  2  1  0  0  0  0
 10  3  1  0  0  0  0
 11  3  1  0  0  0  0
 12  4  1  0  0  0  0
 13  4  1  0  0  0  0
 14  5  1  0  0  0  0
 17  6  1  0  0  0  0
 18 19  1  0  0  0  0
 19 24  1  0  0  0  0
 19 20  2  0  0  0  0
 20 25  1  0  0  0  0
 21 20  1  0  0  0  0
 22 21  2  0  0  0  0
 23 18  2  0  0  0  0
 23 22  1  0  0  0  0
 26 32  1  0  0  0  0
 26 22  1  0  0  0  0
 27 26  2  0  0  0  0
 28 30  2  0  0  0  0
 28 27  1  0  0  0  0
 29 28  1  0  0  0  0
 30 31  1  0  0  0  0
 31 32  2  0  0  0  0
M  END
>  <minimizedAffinity>
-4.77191687

$$$$

 OpenBabel03242519233D

 32 34  0  0  0  0  0  0  0  0999 V2000
   38.1240   27.1150   41.7370 C   0  0  0  0  0  0  0  0  0  0  0  0
   39.3040   26.7240   40.9440 C   0  0  0  0  0  0  0  0  0  0  0  0
   39.0880   25.4970   40.1140 C   0  0  0  0  0  0  0  0  0  0  0  0
   38.6060   24.3130   40.9270 C   0  0  0  0  0  0  0  0  0  0  0  0
   37.5820   24.6830   41.9780 C   0  0  0  0  0  0  0  0  0  0  0  0
   37.0170   26.0680   41.7580 C   0  0  0  0  0  0  0  0  0  0  0  0
   38.4060   27.3040   42.8160 H   0  0  0  0  0  0  0  0  0  0  0  0
   39.7170   27.5040   40.2900 H   0  0  0  0  0  0  0  0  0  0  0  0
   40.1500   26.4770   41.6500 H   0  0  0  0  0  0  0  0  0  0  0  0
   38.4630   25.5930   39.2350 H   0  0  0  0  0  0  0  0  0  0  0  0
   40.1160   25.1920   39.7580 H   0  0  0  0  0  0  0  0  0  0  0  0
   38.1350   23.5940   40.2240 H   0  0  0  0  0  0  0  0  0  0  0  0
   39.4670   23.7720   41.3920 H   0  0  0  0  0  0  0  0  0  0  0  0
   36.7340   23.9870   42.0040 H   0  0  0  0  0  0  0  0  0  0  0  0
   38.0730   24.6900   42.9770 H   0  0  0  0  0  0  0  0  0  0  0  0
   36.3990   26.2990   42.6530 H   0  0  0  0  0  0  0  0  0  0  0  0
   36.3450   26.1460   40.8930 H   0  0  0  0  0  0  0  0  0  0  0  0
   37.5100   28.3750   41.2670 C   0  0  0  0  0  0  0  0  0  0  0  0
   36.1170   28.3290   41.0250 C   0  0  0  0  0  0  0  0  0  0  0  0
   35.4570   29.4810   40.5820 C   0  0  0  0  0  0  0  0  0  0  0  0
   36.2260   30.6050   40.4100 N   0  0  0  0  0  0  0  0  0  0  0  0
   37.5630   30.6190   40.6510 C   0  0  0  0  0  0  0  0  0  0  0  0
   38.1870   29.5150   41.0730 N   0  0  0  0  0  0  0  0  0  0  0  0
   35.4660   27.5050   41.1340 H   0  0  0  0  0  0  0  0  0  0  0  0
   34.3970   29.5160   40.3780 H   0  0  0  0  0  0  0  0  0  0  0  0
   38.2990   31.8630   40.4400 C   0  0  0  0  0  0  0  0  0  0  0  0
   37.6050   33.0260   40.1810 C   0  0  0  0  0  3  0  0  0  0  0  0
   38.4050   34.1490   39.9950 C   0  0  0  0  0  0  0  0  0  0  0  0
   37.8500   35.0770   39.7900 H   0  0  0  0  0  0  0  0  0  0  0  0
   39.7460   34.1250   40.0600 N   0  0  0  0  0  0  0  0  0  0  0  0
   40.3820   32.9690   40.3150 C   0  0  0  0  0  3  0  0  0  0  0  0
   39.6420   31.8660   40.4990 N   0  0  0  0  0  0  0  0  0  0  0  0
  1  6  1  0  0  0  0
  1  7  1  0  0  0  0
  2  9  1  0  0  0  0
  2  1  1  0  0  0  0
  3  4  1  0  0  0  0
  3  2  1  0  0  0  0
  4 13  1  0  0  0  0
  4  5  1  0  0  0  0
  5 14  1  0  0  0  0
  5 15  1  0  0  0  0
  6  5  1  0  0  0  0
  6 16  1  0  0  0  0
  8  2  1  0  0  0  0
 10  3  1  0  0  0  0
 11  3  1  0  0  0  0
 12  4  1  0  0  0  0
 17  6  1  0  0  0  0
 18  1  1  0  0  0  0
 19 24  1  0  0  0  0
 19 18  2  0  0  0  0
 20 19  1  0  0  0  0
 21 20  2  0  0  0  0
 21 22  1  0  0  0  0
 22 23  2  0  0  0  0
 23 18  1  0  0  0  0
 25 20  1  0  0  0  0
 26 32  1  0  0  0  0
 26 22  1  0  0  0  0
 27 26  2  0  0  0  0
 28 30  2  0  0  0  0
 28 27  1  0  0  0  0
 29 28  1  0  0  0  0
 30 31  1  0  0  0  0
 31 32  2  0  0  0  0
M  END
>  <minimizedAffinity>
-4.77112913

$$$$
