
 OpenBabel03252504493D

 22 23  0  0  0  0  0  0  0  0999 V2000
   49.0490   33.8220   41.3450 C   0  0  0  0  0  0  0  0  0  0  0  0
   49.1230   32.4380   41.2230 C   0  0  0  0  0  0  0  0  0  0  0  0
   48.2170   31.6790   41.9650 C   0  0  0  0  0  0  0  0  0  0  0  0
   47.3210   32.3460   42.7540 N   0  0  0  0  0  0  0  0  0  0  0  0
   47.2740   33.6770   42.8500 C   0  0  0  0  0  0  0  0  0  0  0  0
   48.1430   34.4270   42.1420 N   0  0  0  0  0  0  0  0  0  0  0  0
   49.7240   34.4710   40.7970 H   0  0  0  0  0  0  0  0  0  0  0  0
   48.2460   30.5990   41.8950 H   0  0  0  0  0  0  0  0  0  0  0  0
   46.2960   34.3290   43.7090 C   0  0  0  0  0  0  0  0  0  0  0  0
   46.0060   33.8130   44.9550 C   0  0  0  0  0  0  0  0  0  0  0  0
   45.0800   34.4330   45.7650 C   0  0  0  0  0  0  0  0  0  0  0  0
   44.8640   34.0120   46.7450 H   0  0  0  0  0  0  0  0  0  0  0  0
   44.4920   35.5440   45.2790 N   0  0  0  0  0  0  0  0  0  0  0  0
   44.7640   36.0540   44.0740 C   0  0  0  0  0  0  0  0  0  0  0  0
   45.6670   35.4430   43.2940 N   0  0  0  0  0  0  0  0  0  0  0  0
   50.1170   31.8680   40.3490 C   0  0  0  0  0  0  0  0  0  0  0  0
   50.1880   32.4210   39.4020 H   0  0  0  0  0  0  0  0  0  0  0  0
   49.9190   30.7920   40.0800 H   0  0  0  0  0  0  0  0  0  0  0  0
   51.4620   31.8970   41.0520 C   0  0  0  0  0  0  0  0  0  0  0  0
   52.2400   31.7770   40.2430 H   0  0  0  0  0  0  0  0  0  0  0  0
   51.6160   32.9110   41.4400 H   0  0  0  0  0  0  0  0  0  0  0  0
   51.5460   31.0880   41.8070 H   0  0  0  0  0  0  0  0  0  0  0  0
  1  6  1  0  0  0  0
  2  1  2  0  0  0  0
  2  3  1  0  0  0  0
  3  4  2  0  0  0  0
  4  5  1  0  0  0  0
  5  9  1  0  0  0  0
  6  5  2  0  0  0  0
  7  1  1  0  0  0  0
  8  3  1  0  0  0  0
  9 10  1  0  0  0  0
 10 11  2  0  0  0  0
 11 12  1  0  0  0  0
 13 11  1  0  0  0  0
 14 13  2  0  0  0  0
 15  9  2  0  0  0  0
 15 14  1  0  0  0  0
 16 19  1  0  0  0  0
 16  2  1  0  0  0  0
 17 16  1  0  0  0  0
 18 16  1  0  0  0  0
 19 21  1  0  0  0  0
 19 22  1  0  0  0  0
 20 19  1  0  0  0  0
M  END
>  <minimizedAffinity>
-3.78485727

>  <minimizedRMSD>
4.42994881

$$$$
