
 OpenBabel03252507083D

 22 23  0  0  0  0  0  0  0  0999 V2000
   44.5480   35.9670   44.5350 C   0  0  0  0  0  0  0  0  0  0  0  0
   45.1740   35.9110   43.2770 C   0  0  0  0  0  0  0  0  0  0  0  0
   46.0880   34.8720   43.0620 C   0  0  0  0  0  0  0  0  0  0  0  0
   46.3260   33.9830   44.0580 N   0  0  0  0  0  0  0  0  0  0  0  0
   45.7070   34.0630   45.2600 C   0  0  0  0  0  0  0  0  0  0  0  0
   44.8290   35.0470   45.4910 N   0  0  0  0  0  0  0  0  0  0  0  0
   43.8440   36.8020   44.6390 H   0  0  0  0  0  0  0  0  0  0  0  0
   44.9750   36.6260   42.4920 H   0  0  0  0  0  0  0  0  0  0  0  0
   46.0040   33.0770   46.2940 C   0  0  0  0  0  0  0  0  0  0  0  0
   45.2410   33.0370   47.4370 C   0  0  0  0  0  3  0  0  0  0  0  0
   45.5830   32.0810   48.3590 C   0  0  0  0  0  0  0  0  0  0  0  0
   45.0620   31.9420   49.3060 H   0  0  0  0  0  0  0  0  0  0  0  0
   46.5870   31.2160   48.2090 N   0  0  0  0  0  0  0  0  0  0  0  0
   47.3280   31.2800   47.0630 C   0  0  0  0  0  3  0  0  0  0  0  0
   47.0140   32.2080   46.1380 N   0  0  0  0  0  0  0  0  0  0  0  0
   46.6970   34.8320   41.8120 O   0  0  0  0  0  0  0  0  0  0  0  0
   48.6630   33.1980   41.1340 O   0  0  0  0  0  0  0  0  0  0  0  0
   48.3890   34.5690   41.7240 P   0  0  0  0  0  0  0  0  0  0  0  0
   49.0600   35.7930   40.8020 O   0  0  0  0  0  0  0  0  0  0  0  0
   49.9990   35.5410   40.5770 H   0  0  0  0  0  0  0  0  0  0  0  0
   48.9850   34.5830   43.3230 O   0  0  0  0  0  0  0  0  0  0  0  0
   48.7580   35.4960   43.6730 H   0  0  0  0  0  0  0  0  0  0  0  0
  1  7  1  0  0  0  0
  1  6  1  0  0  0  0
  2  1  2  0  0  0  0
  3  2  1  0  0  0  0
  3  4  2  0  0  0  0
  4  5  1  0  0  0  0
  5  6  2  0  0  0  0
  5  9  1  0  0  0  0
  8  2  1  0  0  0  0
  9 10  1  0  0  0  0
 10 11  2  0  0  0  0
 11 12  1  0  0  0  0
 13 11  1  0  0  0  0
 14 13  2  0  0  0  0
 15  9  2  0  0  0  0
 15 14  1  0  0  0  0
 16  3  1  0  0  0  0
 17 18  2  0  0  0  0
 18 16  1  0  0  0  0
 18 21  1  0  0  0  0
 19 18  1  0  0  0  0
 20 19  1  0  0  0  0
 21 22  1  0  0  0  0
M  END
>  <minimizedAffinity>
-5.63082266

>  <minimizedRMSD>
0.270478368

$$$$
