
 OpenBabel03242510093D

 26 28  0  0  0  0  0  0  0  0999 V2000
   44.7850   32.9870   41.1870 Br  0  0  0  0  0  0  0  0  0  0  0  0
   46.4330   33.9490   40.9330 C   0  0  0  0  0  0  0  0  0  0  0  0
   46.8980   34.7580   41.9390 C   0  0  0  0  0  0  0  0  0  0  0  0
   48.0970   35.4660   41.7710 C   0  0  0  0  0  0  0  0  0  0  0  0
   48.7800   35.3280   40.5960 C   0  0  0  0  0  0  0  0  0  0  0  0
   48.2700   34.5060   39.6270 C   0  0  0  0  0  0  0  0  0  0  0  0
   47.1220   33.8120   39.7550 C   0  0  0  0  0  0  0  0  0  0  0  0
   48.4190   36.0980   42.6080 H   0  0  0  0  0  0  0  0  0  0  0  0
   49.7060   35.8700   40.4560 H   0  0  0  0  0  0  0  0  0  0  0  0
   48.8410   34.4270   38.7150 H   0  0  0  0  0  0  0  0  0  0  0  0
   45.6410   34.0440   45.2880 C   0  0  0  0  0  0  0  0  0  0  0  0
   44.7100   35.0750   45.5260 C   0  0  0  0  0  0  0  0  0  0  0  0
   44.5290   36.0180   44.5020 C   0  0  0  0  0  0  0  0  0  0  0  0
   45.2530   35.8800   43.3650 N   0  0  0  0  0  0  0  0  0  0  0  0
   46.1420   34.8750   43.1690 C   0  0  0  0  0  0  0  0  0  0  0  0
   46.3280   33.9540   44.1490 N   0  0  0  0  0  0  0  0  0  0  0  0
   45.7990   33.3110   46.0510 H   0  0  0  0  0  0  0  0  0  0  0  0
   44.1780   35.1060   46.4640 H   0  0  0  0  0  0  0  0  0  0  0  0
   43.8230   36.8160   44.6580 H   0  0  0  0  0  0  0  0  0  0  0  0
   46.5580   32.9300   38.7360 C   0  0  0  0  0  0  0  0  0  0  0  0
   46.9200   31.6060   38.5980 C   0  0  0  0  0  3  0  0  0  0  0  0
   46.3700   30.8060   37.6280 C   0  0  0  0  0  0  0  0  0  0  0  0
   46.6460   29.7730   37.5120 H   0  0  0  0  0  0  0  0  0  0  0  0
   45.4630   31.2670   36.7780 N   0  0  0  0  0  0  0  0  0  0  0  0
   45.0960   32.5640   36.8980 C   0  0  0  0  0  3  0  0  0  0  0  0
   45.6330   33.3540   37.8490 N   0  0  0  0  0  0  0  0  0  0  0  0
  2  1  1  0  0  0  0
  2  3  1  0  0  0  0
  3 15  1  0  0  0  0
  4  3  2  0  0  0  0
  4  8  1  0  0  0  0
  5  4  1  0  0  0  0
  6  7  1  0  0  0  0
  6  5  2  0  0  0  0
  7  2  2  0  0  0  0
  9  5  1  0  0  0  0
 10  6  1  0  0  0  0
 11 12  1  0  0  0  0
 11 17  1  0  0  0  0
 12 18  1  0  0  0  0
 13 19  1  0  0  0  0
 13 12  2  0  0  0  0
 14 13  1  0  0  0  0
 15 14  2  0  0  0  0
 15 16  1  0  0  0  0
 16 11  2  0  0  0  0
 20  7  1  0  0  0  0
 21 20  1  0  0  0  0
 22 21  2  0  0  0  0
 23 22  1  0  0  0  0
 24 25  2  0  0  0  0
 24 22  1  0  0  0  0
 25 26  1  0  0  0  0
 26 20  2  0  0  0  0
M  END
>  <minimizedAffinity>
-5.3868351

>  <minimizedRMSD>
0.617051661

$$$$
