
 OpenBabel03242517073D

 32 34  0  0  1  0  0  0  0  0999 V2000
   46.1080   33.8360   43.0320 C   0  0  2  0  0  0  0  0  0  0  0  0
   45.4310   34.9620   42.3560 C   0  0  2  0  0  0  0  0  0  0  0  0
   45.2670   36.1710   43.2220 C   0  0  0  0  0  0  0  0  0  0  0  0
   44.5950   35.8680   44.5510 C   0  0  0  0  0  0  0  0  0  0  0  0
   45.0280   34.5650   45.1630 C   0  0  0  0  0  0  0  0  0  0  0  0
   46.2960   34.0420   44.5280 C   0  0  0  0  0  0  0  0  0  0  0  0
   45.5430   32.8710   42.9490 H   0  0  0  0  0  0  0  0  0  0  0  0
   46.0780   35.2960   41.4980 H   0  0  0  0  0  0  0  0  0  0  0  0
   46.1340   36.8150   43.3360 H   0  0  0  0  0  0  0  0  0  0  0  0
   44.5080   36.8170   42.6860 H   0  0  0  0  0  0  0  0  0  0  0  0
   44.9470   36.6830   45.2490 H   0  0  0  0  0  0  0  0  0  0  0  0
   43.4970   35.9590   44.5090 H   0  0  0  0  0  0  0  0  0  0  0  0
   45.1470   34.6000   46.2450 H   0  0  0  0  0  0  0  0  0  0  0  0
   44.2260   33.8090   44.9690 H   0  0  0  0  0  0  0  0  0  0  0  0
   46.5450   33.0680   44.9640 H   0  0  0  0  0  0  0  0  0  0  0  0
   47.0700   34.8230   44.6850 H   0  0  0  0  0  0  0  0  0  0  0  0
   47.4400   33.5610   42.4590 C   0  0  0  0  0  0  0  0  0  0  0  0
   48.4900   34.3760   42.9250 C   0  0  0  0  0  0  0  0  0  0  0  0
   49.7960   34.2060   42.4520 C   0  0  0  0  0  0  0  0  0  0  0  0
   49.9710   33.2080   41.5200 N   0  0  0  0  0  0  0  0  0  0  0  0
   48.9420   32.4370   41.0870 C   0  0  0  0  0  0  0  0  0  0  0  0
   47.6820   32.6110   41.5540 N   0  0  0  0  0  0  0  0  0  0  0  0
   48.4440   35.1760   43.6490 H   0  0  0  0  0  0  0  0  0  0  0  0
   50.6360   34.7790   42.7550 H   0  0  0  0  0  0  0  0  0  0  0  0
   49.1740   31.6670   40.3460 H   0  0  0  0  0  0  0  0  0  0  0  0
   44.1480   34.5530   41.7270 C   0  0  0  0  0  0  0  0  0  0  0  0
   43.4420   35.4890   40.9600 C   0  0  0  0  0  0  0  0  0  0  0  0
   42.2450   35.0300   40.4010 C   0  0  0  0  0  0  0  0  0  0  0  0
   41.6580   35.7260   39.7920 H   0  0  0  0  0  0  0  0  0  0  0  0
   41.7330   33.7960   40.5380 N   0  0  0  0  0  0  0  0  0  0  0  0
   42.4600   32.9300   41.2930 C   0  0  0  0  0  0  0  0  0  0  0  0
   43.6190   33.3220   41.8530 N   0  0  0  0  0  0  0  0  0  0  0  0
  1  7  1  6  0  0  0
  1  6  1  0  0  0  0
  2  8  1  6  0  0  0
  2  1  1  0  0  0  0
  2  3  1  0  0  0  0
  3  9  1  0  0  0  0
  3  4  1  0  0  0  0
  4  5  1  0  0  0  0
  4 11  1  0  0  0  0
  5 13  1  0  0  0  0
  6 16  1  0  0  0  0
  6 15  1  0  0  0  0
  6  5  1  0  0  0  0
 10  3  1  0  0  0  0
 12  4  1  0  0  0  0
 14  5  1  0  0  0  0
 17 18  1  0  0  0  0
 17  1  1  0  0  0  0
 18 23  1  0  0  0  0
 19 24  1  0  0  0  0
 19 18  2  0  0  0  0
 20 19  1  0  0  0  0
 21 20  2  0  0  0  0
 21 22  1  0  0  0  0
 22 17  2  0  0  0  0
 25 21  1  0  0  0  0
 26 32  1  0  0  0  0
 26  2  1  0  0  0  0
 27 26  2  0  0  0  0
 28 30  2  0  0  0  0
 28 27  1  0  0  0  0
 29 28  1  0  0  0  0
 30 31  1  0  0  0  0
 31 32  2  0  0  0  0
M  END
>  <minimizedAffinity>
-5.12941313

>  <minimizedRMSD>
2.40140986

$$$$
