
 OpenBabel03252506303D

 45 49  0  0  0  0  0  0  0  0999 V2000
   36.3440   29.6510   37.5170 C   0  0  0  0  0  0  0  0  0  0  0  0
   35.8100   30.2290   36.7590 H   0  0  0  0  0  0  0  0  0  0  0  0
   36.6570   28.6540   37.0970 H   0  0  0  0  0  0  0  0  0  0  0  0
   38.7730   31.9170   38.8430 C   0  0  0  0  0  0  0  0  0  0  0  0
   39.5850   30.8700   38.3820 C   0  0  0  0  0  0  0  0  0  0  0  0
   38.7890   29.9200   37.8440 C   0  0  0  0  0  0  0  0  0  0  0  0
   37.5290   30.3620   37.9660 N   0  0  0  0  0  0  0  0  0  0  0  0
   37.5030   31.5530   38.5610 N   0  0  0  0  0  0  0  0  0  0  0  0
   40.6490   30.8520   38.4570 H   0  0  0  0  0  0  0  0  0  0  0  0
   39.0940   28.9800   37.3970 H   0  0  0  0  0  0  0  0  0  0  0  0
   38.8180   35.2200   40.4270 C   0  0  0  0  0  0  0  0  0  0  0  0
   40.1720   35.4180   40.7060 C   0  0  0  0  0  0  0  0  0  0  0  0
   41.0470   34.3980   40.3390 C   0  0  0  0  0  0  0  0  0  0  0  0
   40.5390   33.3070   39.7480 N   0  0  0  0  0  0  0  0  0  0  0  0
   39.2550   33.1220   39.4840 C   0  0  0  0  0  0  0  0  0  0  0  0
   38.3950   34.0930   39.8310 N   0  0  0  0  0  0  0  0  0  0  0  0
   38.1260   36.0070   40.7090 H   0  0  0  0  0  0  0  0  0  0  0  0
   40.5630   36.2860   41.1740 H   0  0  0  0  0  0  0  0  0  0  0  0
   42.4880   34.4470   40.5580 C   0  0  0  0  0  0  0  0  0  0  0  0
   43.0680   34.9830   41.6900 C   0  0  0  0  0  3  0  0  0  0  0  0
   44.4290   35.0340   41.9080 C   0  0  0  0  0  0  0  0  0  0  0  0
   44.8550   35.4620   42.8070 H   0  0  0  0  0  0  0  0  0  0  0  0
   45.2630   34.5370   40.9740 N   0  0  0  0  0  0  0  0  0  0  0  0
   44.6960   34.0050   39.8520 C   0  0  0  0  0  3  0  0  0  0  0  0
   43.3670   33.9580   39.6460 N   0  0  0  0  0  0  0  0  0  0  0  0
   35.4510   29.3560   38.6660 C   0  0  0  0  0  0  0  0  0  0  0  0
   34.5120   28.9190   38.2650 H   0  0  0  0  0  0  0  0  0  0  0  0
   35.1330   30.3460   39.1030 H   0  0  0  0  0  0  0  0  0  0  0  0
   36.4110   27.2420   39.7430 C   0  0  0  0  0  0  0  0  0  0  0  0
   35.9970   28.5590   39.7490 C   0  0  0  0  0  0  0  0  0  0  0  0
   36.1080   29.2330   40.9510 C   0  0  0  0  0  0  0  0  0  0  0  0
   36.6080   28.6230   42.0840 C   0  0  0  0  0  0  0  0  0  0  0  0
   36.8290   29.0120   43.3540 N   0  0  0  0  0  0  0  0  0  0  0  0
   37.3410   28.0200   44.0900 C   0  0  0  0  0  0  0  0  0  0  0  0
   37.4790   26.8910   43.2770 C   0  0  0  0  0  0  0  0  0  0  0  0
   37.0170   27.3180   42.0700 C   0  0  0  0  0  0  0  0  0  0  0  0
   36.9060   26.6410   40.8700 C   0  0  0  0  0  0  0  0  0  0  0  0
   36.3050   26.7500   38.7740 H   0  0  0  0  0  0  0  0  0  0  0  0
   35.8220   30.2740   41.1110 H   0  0  0  0  0  0  0  0  0  0  0  0
   36.6250   29.9770   43.7280 H   0  0  0  0  0  0  0  0  0  0  0  0
   37.6050   28.0910   45.1450 H   0  0  0  0  0  0  0  0  0  0  0  0
   37.8690   25.9330   43.6000 H   0  0  0  0  0  0  0  0  0  0  0  0
   37.3250   25.2440   40.7820 C   0  0  0  0  0  0  0  0  0  0  0  0
   36.5340   24.2980   41.0350 O   0  0  0  0  0  0  0  0  0  0  0  0
   38.3450   24.9710   40.4930 H   0  0  0  0  0  0  0  0  0  0  0  0
  1  7  1  0  0  0  0
  1 26  1  0  0  0  0
  2  1  1  0  0  0  0
  3  1  1  0  0  0  0
  4 15  1  0  0  0  0
  5  9  1  0  0  0  0
  5  4  1  0  0  0  0
  6  7  1  0  0  0  0
  6  5  2  0  0  0  0
  7  8  1  0  0  0  0
  8  4  2  0  0  0  0
 10  6  1  0  0  0  0
 11 12  1  0  0  0  0
 11 17  1  0  0  0  0
 12 18  1  0  0  0  0
 13 19  1  0  0  0  0
 13 12  2  0  0  0  0
 14 13  1  0  0  0  0
 15 14  2  0  0  0  0
 15 16  1  0  0  0  0
 16 11  2  0  0  0  0
 19 20  1  0  0  0  0
 20 21  2  0  0  0  0
 21 22  1  0  0  0  0
 23 21  1  0  0  0  0
 24 23  2  0  0  0  0
 25 24  1  0  0  0  0
 25 19  2  0  0  0  0
 26 28  1  0  0  0  0
 26 30  1  0  0  0  0
 27 26  1  0  0  0  0
 29 30  2  0  0  0  0
 29 37  1  0  0  0  0
 30 31  1  0  0  0  0
 31 39  1  0  0  0  0
 31 32  2  0  0  0  0
 32 33  1  0  0  0  0
 33 40  1  0  0  0  0
 33 34  1  0  0  0  0
 34 41  1  0  0  0  0
 35 42  1  0  0  0  0
 35 34  2  0  0  0  0
 36 32  1  0  0  0  0
 36 35  1  0  0  0  0
 37 36  2  0  0  0  0
 38 29  1  0  0  0  0
 43 37  1  0  0  0  0
 43 44  2  0  0  0  0
 45 43  1  0  0  0  0
M  END
>  <minimizedAffinity>
-6.9321785

$$$$

 OpenBabel03252506303D

 45 49  0  0  0  0  0  0  0  0999 V2000
   37.0660   32.3130   39.6060 C   0  0  0  0  0  0  0  0  0  0  0  0
   36.4980   32.2070   40.5330 H   0  0  0  0  0  0  0  0  0  0  0  0
   36.4120   32.7420   38.7970 H   0  0  0  0  0  0  0  0  0  0  0  0
   40.2740   33.8590   39.9350 C   0  0  0  0  0  0  0  0  0  0  0  0
   39.4130   34.9360   40.1950 C   0  0  0  0  0  0  0  0  0  0  0  0
   38.1400   34.4940   40.1040 C   0  0  0  0  0  0  0  0  0  0  0  0
   38.2080   33.1890   39.8000 N   0  0  0  0  0  0  0  0  0  0  0  0
   39.4760   32.7960   39.6950 N   0  0  0  0  0  0  0  0  0  0  0  0
   39.7360   35.9270   40.4230 H   0  0  0  0  0  0  0  0  0  0  0  0
   37.2300   35.0680   40.2470 H   0  0  0  0  0  0  0  0  0  0  0  0
   43.7410   33.9660   38.7570 C   0  0  0  0  0  0  0  0  0  0  0  0
   44.4740   34.0710   39.9420 C   0  0  0  0  0  0  0  0  0  0  0  0
   43.7490   34.1040   41.1300 C   0  0  0  0  0  0  0  0  0  0  0  0
   42.4120   34.0330   41.0620 N   0  0  0  0  0  0  0  0  0  0  0  0
   41.7190   33.9320   39.9380 C   0  0  0  0  0  0  0  0  0  0  0  0
   42.4000   33.8990   38.7810 N   0  0  0  0  0  0  0  0  0  0  0  0
   44.2940   33.9400   37.8240 H   0  0  0  0  0  0  0  0  0  0  0  0
   45.5320   34.1270   39.9840 H   0  0  0  0  0  0  0  0  0  0  0  0
   44.3600   34.2110   42.4510 C   0  0  0  0  0  0  0  0  0  0  0  0
   44.6170   35.4150   43.0750 C   0  0  0  0  0  3  0  0  0  0  0  0
   45.1940   35.5280   44.3220 C   0  0  0  0  0  0  0  0  0  0  0  0
   45.3840   36.4870   44.7870 H   0  0  0  0  0  0  0  0  0  0  0  0
   45.5350   34.4090   44.9920 N   0  0  0  0  0  0  0  0  0  0  0  0
   45.2830   33.2150   44.3810 C   0  0  0  0  0  3  0  0  0  0  0  0
   44.7200   33.1130   43.1640 N   0  0  0  0  0  0  0  0  0  0  0  0
   37.5110   30.9820   39.1190 C   0  0  0  0  0  0  0  0  0  0  0  0
   38.5600   31.0800   38.7690 H   0  0  0  0  0  0  0  0  0  0  0  0
   36.9250   30.7580   38.1830 H   0  0  0  0  0  0  0  0  0  0  0  0
   37.1540   28.5190   39.7180 C   0  0  0  0  0  0  0  0  0  0  0  0
   37.3450   29.8530   40.0160 C   0  0  0  0  0  0  0  0  0  0  0  0
   37.3860   30.1840   41.3580 C   0  0  0  0  0  0  0  0  0  0  0  0
   37.2450   29.2310   42.3470 C   0  0  0  0  0  0  0  0  0  0  0  0
   37.2420   29.2500   43.6930 N   0  0  0  0  0  0  0  0  0  0  0  0
   37.0630   28.0280   44.2030 C   0  0  0  0  0  0  0  0  0  0  0  0
   36.9370   27.1210   43.1460 C   0  0  0  0  0  0  0  0  0  0  0  0
   37.0560   27.9100   42.0430 C   0  0  0  0  0  0  0  0  0  0  0  0
   37.0130   27.5770   40.7020 C   0  0  0  0  0  0  0  0  0  0  0  0
   37.1280   28.3050   38.6470 H   0  0  0  0  0  0  0  0  0  0  0  0
   37.5300   31.1920   41.7490 H   0  0  0  0  0  0  0  0  0  0  0  0
   37.3650   30.1190   44.2780 H   0  0  0  0  0  0  0  0  0  0  0  0
   37.0240   27.7880   45.2650 H   0  0  0  0  0  0  0  0  0  0  0  0
   36.7830   26.0540   43.2530 H   0  0  0  0  0  0  0  0  0  0  0  0
   36.8150   26.1850   40.3050 C   0  0  0  0  0  0  0  0  0  0  0  0
   37.7830   25.3990   40.1380 O   0  0  0  0  0  0  0  0  0  0  0  0
   35.8130   25.7770   40.1370 H   0  0  0  0  0  0  0  0  0  0  0  0
  1  7  1  0  0  0  0
  1  2  1  0  0  0  0
  3  1  1  0  0  0  0
  4 15  1  0  0  0  0
  4  5  1  0  0  0  0
  5  9  1  0  0  0  0
  6  5  2  0  0  0  0
  6 10  1  0  0  0  0
  7  6  1  0  0  0  0
  8  7  1  0  0  0  0
  8  4  2  0  0  0  0
 11 16  2  0  0  0  0
 11 12  1  0  0  0  0
 12 18  1  0  0  0  0
 12 13  2  0  0  0  0
 13 19  1  0  0  0  0
 14 13  1  0  0  0  0
 15 14  2  0  0  0  0
 16 15  1  0  0  0  0
 17 11  1  0  0  0  0
 19 20  2  0  0  0  0
 19 25  1  0  0  0  0
 20 21  1  0  0  0  0
 21 22  1  0  0  0  0
 21 23  2  0  0  0  0
 24 23  1  0  0  0  0
 25 24  2  0  0  0  0
 26  1  1  0  0  0  0
 26 30  1  0  0  0  0
 27 26  1  0  0  0  0
 28 26  1  0  0  0  0
 29 30  2  0  0  0  0
 29 37  1  0  0  0  0
 30 31  1  0  0  0  0
 31 39  1  0  0  0  0
 31 32  2  0  0  0  0
 32 33  1  0  0  0  0
 33 34  1  0  0  0  0
 33 40  1  0  0  0  0
 34 41  1  0  0  0  0
 35 42  1  0  0  0  0
 35 34  2  0  0  0  0
 36 32  1  0  0  0  0
 36 35  1  0  0  0  0
 37 36  2  0  0  0  0
 38 29  1  0  0  0  0
 43 37  1  0  0  0  0
 44 43  2  0  0  0  0
 45 43  1  0  0  0  0
M  END
>  <minimizedAffinity>
-6.91147137

$$$$

 OpenBabel03252506303D

 45 49  0  0  0  0  0  0  0  0999 V2000
   36.0420   29.4600   40.8500 C   0  0  0  0  0  0  0  0  0  0  0  0
   34.9830   29.6930   40.9820 H   0  0  0  0  0  0  0  0  0  0  0  0
   36.1600   28.4830   40.3020 H   0  0  0  0  0  0  0  0  0  0  0  0
   37.9470   32.2380   39.6500 C   0  0  0  0  0  0  0  0  0  0  0  0
   37.3840   31.7480   38.4630 C   0  0  0  0  0  0  0  0  0  0  0  0
   36.6230   30.6740   38.7650 C   0  0  0  0  0  0  0  0  0  0  0  0
   36.7090   30.5050   40.0930 N   0  0  0  0  0  0  0  0  0  0  0  0
   37.4970   31.4320   40.6350 N   0  0  0  0  0  0  0  0  0  0  0  0
   37.5470   32.1690   37.4960 H   0  0  0  0  0  0  0  0  0  0  0  0
   36.0480   30.0590   38.0810 H   0  0  0  0  0  0  0  0  0  0  0  0
   39.1390   35.6560   40.2110 C   0  0  0  0  0  0  0  0  0  0  0  0
   40.5010   35.5690   39.9120 C   0  0  0  0  0  0  0  0  0  0  0  0
   40.9810   34.3220   39.5210 C   0  0  0  0  0  0  0  0  0  0  0  0
   40.1170   33.2990   39.4570 N   0  0  0  0  0  0  0  0  0  0  0  0
   38.8260   33.3840   39.7400 C   0  0  0  0  0  0  0  0  0  0  0  0
   38.3440   34.5780   40.1190 N   0  0  0  0  0  0  0  0  0  0  0  0
   38.7530   36.6230   40.5170 H   0  0  0  0  0  0  0  0  0  0  0  0
   41.1760   36.3850   39.9670 H   0  0  0  0  0  0  0  0  0  0  0  0
   42.3750   34.0600   39.1760 C   0  0  0  0  0  0  0  0  0  0  0  0
   42.7930   33.7290   37.9030 C   0  0  0  0  0  3  0  0  0  0  0  0
   44.1070   33.4790   37.5650 C   0  0  0  0  0  0  0  0  0  0  0  0
   44.4060   33.2210   36.5570 H   0  0  0  0  0  0  0  0  0  0  0  0
   45.0570   33.5580   38.5180 N   0  0  0  0  0  0  0  0  0  0  0  0
   44.6490   33.8850   39.7790 C   0  0  0  0  0  3  0  0  0  0  0  0
   43.3660   34.1270   40.1010 N   0  0  0  0  0  0  0  0  0  0  0  0
   36.6980   29.2780   42.1700 C   0  0  0  0  0  0  0  0  0  0  0  0
   35.9280   29.4160   42.9570 H   0  0  0  0  0  0  0  0  0  0  0  0
   37.4030   30.1450   42.3140 H   0  0  0  0  0  0  0  0  0  0  0  0
   37.1450   26.7610   42.0300 C   0  0  0  0  0  0  0  0  0  0  0  0
   37.4620   28.0600   42.3730 C   0  0  0  0  0  0  0  0  0  0  0  0
   38.6780   28.2500   43.0040 C   0  0  0  0  0  0  0  0  0  0  0  0
   39.5290   27.1980   43.2740 C   0  0  0  0  0  0  0  0  0  0  0  0
   40.7380   27.0780   43.8560 N   0  0  0  0  0  0  0  0  0  0  0  0
   41.1500   25.8070   43.8790 C   0  0  0  0  0  0  0  0  0  0  0  0
   40.1680   25.0120   43.2780 C   0  0  0  0  0  0  0  0  0  0  0  0
   39.2080   25.9130   42.9310 C   0  0  0  0  0  0  0  0  0  0  0  0
   37.9930   25.7200   42.3020 C   0  0  0  0  0  0  0  0  0  0  0  0
   36.1770   26.6580   41.5360 H   0  0  0  0  0  0  0  0  0  0  0  0
   39.0660   29.2150   43.3340 H   0  0  0  0  0  0  0  0  0  0  0  0
   41.2950   27.8840   44.2470 H   0  0  0  0  0  0  0  0  0  0  0  0
   42.0940   25.4580   44.2960 H   0  0  0  0  0  0  0  0  0  0  0  0
   40.2250   23.9380   43.1520 H   0  0  0  0  0  0  0  0  0  0  0  0
   37.5850   24.3740   41.9060 C   0  0  0  0  0  0  0  0  0  0  0  0
   36.5210   24.1640   41.2670 O   0  0  0  0  0  0  0  0  0  0  0  0
   38.1930   23.4970   42.1540 H   0  0  0  0  0  0  0  0  0  0  0  0
  1  2  1  0  0  0  0
  1 26  1  0  0  0  0
  3  1  1  0  0  0  0
  4 15  1  0  0  0  0
  4  8  2  0  0  0  0
  5  6  2  0  0  0  0
  5  4  1  0  0  0  0
  6  7  1  0  0  0  0
  7  8  1  0  0  0  0
  7  1  1  0  0  0  0
  9  5  1  0  0  0  0
 10  6  1  0  0  0  0
 11 17  1  0  0  0  0
 12 18  1  0  0  0  0
 12 11  2  0  0  0  0
 13 12  1  0  0  0  0
 14 13  2  0  0  0  0
 14 15  1  0  0  0  0
 15 16  2  0  0  0  0
 16 11  1  0  0  0  0
 19 13  1  0  0  0  0
 19 25  1  0  0  0  0
 20 19  2  0  0  0  0
 21 20  1  0  0  0  0
 21 23  2  0  0  0  0
 22 21  1  0  0  0  0
 23 24  1  0  0  0  0
 24 25  2  0  0  0  0
 26 28  1  0  0  0  0
 26 30  1  0  0  0  0
 26 27  1  0  0  0  0
 29 37  2  0  0  0  0
 29 30  1  0  0  0  0
 30 31  2  0  0  0  0
 31 32  1  0  0  0  0
 31 39  1  0  0  0  0
 32 33  1  0  0  0  0
 33 34  1  0  0  0  0
 33 40  1  0  0  0  0
 34 41  1  0  0  0  0
 35 34  2  0  0  0  0
 36 32  2  0  0  0  0
 36 35  1  0  0  0  0
 37 36  1  0  0  0  0
 38 29  1  0  0  0  0
 42 35  1  0  0  0  0
 43 45  1  0  0  0  0
 43 37  1  0  0  0  0
 44 43  2  0  0  0  0
M  END
>  <minimizedAffinity>
-6.89853764

$$$$

 OpenBabel03252506303D

 45 49  0  0  0  0  0  0  0  0999 V2000
   36.2040   29.6530   38.1220 C   0  0  0  0  0  0  0  0  0  0  0  0
   35.5840   30.2290   37.4310 H   0  0  0  0  0  0  0  0  0  0  0  0
   36.4900   28.6680   37.6560 H   0  0  0  0  0  0  0  0  0  0  0  0
   38.7130   31.9830   39.1530 C   0  0  0  0  0  0  0  0  0  0  0  0
   39.4930   30.8940   38.7360 C   0  0  0  0  0  0  0  0  0  0  0  0
   38.6640   29.9160   38.3110 C   0  0  0  0  0  0  0  0  0  0  0  0
   37.4150   30.3810   38.4580 N   0  0  0  0  0  0  0  0  0  0  0  0
   37.4280   31.6150   38.9600 N   0  0  0  0  0  0  0  0  0  0  0  0
   40.5590   30.8690   38.7620 H   0  0  0  0  0  0  0  0  0  0  0  0
   38.9390   28.9400   37.9240 H   0  0  0  0  0  0  0  0  0  0  0  0
   38.8780   35.4360   40.3640 C   0  0  0  0  0  0  0  0  0  0  0  0
   40.2300   35.5980   40.6730 C   0  0  0  0  0  0  0  0  0  0  0  0
   41.0620   34.5030   40.4550 C   0  0  0  0  0  0  0  0  0  0  0  0
   40.5180   33.3790   39.9690 N   0  0  0  0  0  0  0  0  0  0  0  0
   39.2360   33.2270   39.6760 C   0  0  0  0  0  0  0  0  0  0  0  0
   38.4170   34.2720   39.8790 N   0  0  0  0  0  0  0  0  0  0  0  0
   38.2190   36.2830   40.5300 H   0  0  0  0  0  0  0  0  0  0  0  0
   40.6500   36.4930   41.0580 H   0  0  0  0  0  0  0  0  0  0  0  0
   42.4960   34.5060   40.7250 C   0  0  0  0  0  0  0  0  0  0  0  0
   43.0670   35.1600   41.7970 C   0  0  0  0  0  3  0  0  0  0  0  0
   44.4200   35.1700   42.0620 C   0  0  0  0  0  0  0  0  0  0  0  0
   44.8400   35.6930   42.9120 H   0  0  0  0  0  0  0  0  0  0  0  0
   45.2550   34.5070   41.2370 N   0  0  0  0  0  0  0  0  0  0  0  0
   44.6970   33.8570   40.1750 C   0  0  0  0  0  3  0  0  0  0  0  0
   43.3760   33.8520   39.9230 N   0  0  0  0  0  0  0  0  0  0  0  0
   35.4380   29.3240   39.3510 C   0  0  0  0  0  0  0  0  0  0  0  0
   34.4140   29.0260   39.0460 H   0  0  0  0  0  0  0  0  0  0  0  0
   35.2910   30.2870   39.9190 H   0  0  0  0  0  0  0  0  0  0  0  0
   36.3740   28.5220   41.5950 C   0  0  0  0  0  0  0  0  0  0  0  0
   36.0280   28.3660   40.2680 C   0  0  0  0  0  0  0  0  0  0  0  0
   36.2720   27.1230   39.7110 C   0  0  0  0  0  0  0  0  0  0  0  0
   36.8300   26.0950   40.4440 C   0  0  0  0  0  0  0  0  0  0  0  0
   37.1730   24.8190   40.1840 N   0  0  0  0  0  0  0  0  0  0  0  0
   37.6930   24.2200   41.2590 C   0  0  0  0  0  0  0  0  0  0  0  0
   37.7060   25.1370   42.3140 C   0  0  0  0  0  0  0  0  0  0  0  0
   37.1700   26.2580   41.7590 C   0  0  0  0  0  0  0  0  0  0  0  0
   36.9280   27.4990   42.3180 C   0  0  0  0  0  0  0  0  0  0  0  0
   36.1640   29.5180   41.9920 H   0  0  0  0  0  0  0  0  0  0  0  0
   36.0540   26.8480   38.6780 H   0  0  0  0  0  0  0  0  0  0  0  0
   37.0490   24.3460   39.2490 H   0  0  0  0  0  0  0  0  0  0  0  0
   38.0440   23.1890   41.2970 H   0  0  0  0  0  0  0  0  0  0  0  0
   38.0720   24.9340   43.3140 H   0  0  0  0  0  0  0  0  0  0  0  0
   37.2660   27.7440   43.7180 C   0  0  0  0  0  0  0  0  0  0  0  0
   36.3900   27.7350   44.6220 O   0  0  0  0  0  0  0  0  0  0  0  0
   38.2960   27.9470   44.0300 H   0  0  0  0  0  0  0  0  0  0  0  0
  1  7  1  0  0  0  0
  1 26  1  0  0  0  0
  2  1  1  0  0  0  0
  3  1  1  0  0  0  0
  4 15  1  0  0  0  0
  5  9  1  0  0  0  0
  5  4  1  0  0  0  0
  6  7  1  0  0  0  0
  6  5  2  0  0  0  0
  7  8  1  0  0  0  0
  8  4  2  0  0  0  0
 10  6  1  0  0  0  0
 11 17  1  0  0  0  0
 11 12  1  0  0  0  0
 12 18  1  0  0  0  0
 13 12  2  0  0  0  0
 13 19  1  0  0  0  0
 14 13  1  0  0  0  0
 15 16  1  0  0  0  0
 15 14  2  0  0  0  0
 16 11  2  0  0  0  0
 19 20  1  0  0  0  0
 20 21  2  0  0  0  0
 21 22  1  0  0  0  0
 23 21  1  0  0  0  0
 24 23  2  0  0  0  0
 25 24  1  0  0  0  0
 25 19  2  0  0  0  0
 26 28  1  0  0  0  0
 26 30  1  0  0  0  0
 27 26  1  0  0  0  0
 29 38  1  0  0  0  0
 29 37  1  0  0  0  0
 30 29  2  0  0  0  0
 31 30  1  0  0  0  0
 31 32  2  0  0  0  0
 32 36  1  0  0  0  0
 33 32  1  0  0  0  0
 33 34  1  0  0  0  0
 34 41  1  0  0  0  0
 34 35  2  0  0  0  0
 35 42  1  0  0  0  0
 36 35  1  0  0  0  0
 36 37  2  0  0  0  0
 37 43  1  0  0  0  0
 39 31  1  0  0  0  0
 40 33  1  0  0  0  0
 43 45  1  0  0  0  0
 43 44  2  0  0  0  0
M  END
>  <minimizedAffinity>
-6.76332092

$$$$

 OpenBabel03252506303D

 45 49  0  0  0  0  0  0  0  0999 V2000
   35.5390   29.2480   39.5430 C   0  0  0  0  0  0  0  0  0  0  0  0
   35.1200   29.5460   40.5070 H   0  0  0  0  0  0  0  0  0  0  0  0
   34.7150   29.1040   38.7890 H   0  0  0  0  0  0  0  0  0  0  0  0
   37.8250   31.9500   39.0300 C   0  0  0  0  0  0  0  0  0  0  0  0
   37.6840   31.4480   37.7280 C   0  0  0  0  0  0  0  0  0  0  0  0
   36.8320   30.4010   37.7660 C   0  0  0  0  0  0  0  0  0  0  0  0
   36.4560   30.2590   39.0450 N   0  0  0  0  0  0  0  0  0  0  0  0
   37.0420   31.1770   39.8120 N   0  0  0  0  0  0  0  0  0  0  0  0
   38.1800   31.8440   36.8700 H   0  0  0  0  0  0  0  0  0  0  0  0
   36.5040   29.7870   36.9340 H   0  0  0  0  0  0  0  0  0  0  0  0
   38.8630   35.2180   40.3200 C   0  0  0  0  0  0  0  0  0  0  0  0
   40.2430   35.2170   40.1080 C   0  0  0  0  0  0  0  0  0  0  0  0
   40.7900   34.0800   39.5200 C   0  0  0  0  0  0  0  0  0  0  0  0
   39.9670   33.0710   39.1990 N   0  0  0  0  0  0  0  0  0  0  0  0
   38.6580   33.0740   39.4010 C   0  0  0  0  0  0  0  0  0  0  0  0
   38.1120   34.1620   39.9670 N   0  0  0  0  0  0  0  0  0  0  0  0
   38.4240   36.0980   40.7780 H   0  0  0  0  0  0  0  0  0  0  0  0
   40.8860   36.0210   40.3660 H   0  0  0  0  0  0  0  0  0  0  0  0
   42.2110   33.9180   39.2300 C   0  0  0  0  0  0  0  0  0  0  0  0
   42.7490   34.0460   37.9660 C   0  0  0  0  0  3  0  0  0  0  0  0
   44.0900   33.8960   37.6800 C   0  0  0  0  0  0  0  0  0  0  0  0
   44.4830   34.0020   36.6770 H   0  0  0  0  0  0  0  0  0  0  0  0
   44.9460   33.6070   38.6810 N   0  0  0  0  0  0  0  0  0  0  0  0
   44.4200   33.4790   39.9340 C   0  0  0  0  0  3  0  0  0  0  0  0
   43.1110   33.6280   40.2050 N   0  0  0  0  0  0  0  0  0  0  0  0
   36.2270   27.9380   39.6620 C   0  0  0  0  0  0  0  0  0  0  0  0
   36.8580   27.8000   38.7590 H   0  0  0  0  0  0  0  0  0  0  0  0
   35.4380   27.1380   39.5760 H   0  0  0  0  0  0  0  0  0  0  0  0
   36.6480   27.9990   42.1860 C   0  0  0  0  0  0  0  0  0  0  0  0
   36.9710   27.6840   40.8820 C   0  0  0  0  0  0  0  0  0  0  0  0
   38.1760   27.0330   40.6880 C   0  0  0  0  0  0  0  0  0  0  0  0
   39.0090   26.7150   41.7410 C   0  0  0  0  0  0  0  0  0  0  0  0
   40.2030   26.1030   41.8590 N   0  0  0  0  0  0  0  0  0  0  0  0
   40.6000   26.0380   43.1330 C   0  0  0  0  0  0  0  0  0  0  0  0
   39.6230   26.6380   43.9330 C   0  0  0  0  0  0  0  0  0  0  0  0
   38.6800   27.0300   43.0310 C   0  0  0  0  0  0  0  0  0  0  0  0
   37.4770   27.6820   43.2290 C   0  0  0  0  0  0  0  0  0  0  0  0
   35.6890   28.5120   42.2920 H   0  0  0  0  0  0  0  0  0  0  0  0
   38.5670   26.7200   39.7190 H   0  0  0  0  0  0  0  0  0  0  0  0
   40.7600   25.7210   41.0490 H   0  0  0  0  0  0  0  0  0  0  0  0
   41.5300   25.5890   43.4800 H   0  0  0  0  0  0  0  0  0  0  0  0
   39.6700   26.7340   45.0110 H   0  0  0  0  0  0  0  0  0  0  0  0
   37.0630   28.0490   44.5810 C   0  0  0  0  0  0  0  0  0  0  0  0
   35.8900   27.8480   44.9920 O   0  0  0  0  0  0  0  0  0  0  0  0
   37.7600   28.5150   45.2850 H   0  0  0  0  0  0  0  0  0  0  0  0
  1 26  1  0  0  0  0
  1  2  1  0  0  0  0
  3  1  1  0  0  0  0
  4 15  1  0  0  0  0
  4  8  2  0  0  0  0
  5  6  2  0  0  0  0
  5  4  1  0  0  0  0
  6  7  1  0  0  0  0
  7  1  1  0  0  0  0
  7  8  1  0  0  0  0
  9  5  1  0  0  0  0
 10  6  1  0  0  0  0
 11 17  1  0  0  0  0
 12 11  1  0  0  0  0
 12 18  1  0  0  0  0
 13 12  2  0  0  0  0
 14 15  2  0  0  0  0
 14 13  1  0  0  0  0
 15 16  1  0  0  0  0
 16 11  2  0  0  0  0
 19 13  1  0  0  0  0
 19 25  1  0  0  0  0
 20 19  2  0  0  0  0
 21 20  1  0  0  0  0
 21 23  2  0  0  0  0
 22 21  1  0  0  0  0
 23 24  1  0  0  0  0
 24 25  2  0  0  0  0
 26 30  1  0  0  0  0
 27 26  1  0  0  0  0
 28 26  1  0  0  0  0
 29 38  1  0  0  0  0
 29 37  1  0  0  0  0
 30 29  2  0  0  0  0
 31 30  1  0  0  0  0
 31 32  2  0  0  0  0
 32 33  1  0  0  0  0
 32 36  1  0  0  0  0
 33 34  1  0  0  0  0
 34 41  1  0  0  0  0
 34 35  2  0  0  0  0
 35 42  1  0  0  0  0
 36 37  2  0  0  0  0
 36 35  1  0  0  0  0
 37 43  1  0  0  0  0
 39 31  1  0  0  0  0
 40 33  1  0  0  0  0
 43 44  2  0  0  0  0
 43 45  1  0  0  0  0
M  END
>  <minimizedAffinity>
-6.73425436

$$$$

 OpenBabel03252506303D

 45 49  0  0  0  0  0  0  0  0999 V2000
   37.9710   28.8690   42.5000 C   0  0  0  0  0  0  0  0  0  0  0  0
   38.8680   28.3190   42.2070 H   0  0  0  0  0  0  0  0  0  0  0  0
   37.9900   29.0810   43.6060 H   0  0  0  0  0  0  0  0  0  0  0  0
   38.4350   32.0860   41.0090 C   0  0  0  0  0  0  0  0  0  0  0  0
   37.1500   31.7490   40.5590 C   0  0  0  0  0  0  0  0  0  0  0  0
   36.8320   30.5320   41.0530 C   0  0  0  0  0  0  0  0  0  0  0  0
   37.8820   30.1290   41.7840 N   0  0  0  0  0  0  0  0  0  0  0  0
   38.8470   31.0470   41.7660 N   0  0  0  0  0  0  0  0  0  0  0  0
   36.5470   32.3670   39.9320 H   0  0  0  0  0  0  0  0  0  0  0  0
   35.9130   29.9770   40.8990 H   0  0  0  0  0  0  0  0  0  0  0  0
   39.0560   35.5730   40.0740 C   0  0  0  0  0  0  0  0  0  0  0  0
   40.4510   35.6600   40.0890 C   0  0  0  0  0  0  0  0  0  0  0  0
   41.1510   34.5040   40.4240 C   0  0  0  0  0  0  0  0  0  0  0  0
   40.4510   33.3960   40.7080 N   0  0  0  0  0  0  0  0  0  0  0  0
   39.1290   33.3160   40.6930 C   0  0  0  0  0  0  0  0  0  0  0  0
   38.4360   34.4200   40.3720 N   0  0  0  0  0  0  0  0  0  0  0  0
   38.4990   36.4670   39.8140 H   0  0  0  0  0  0  0  0  0  0  0  0
   40.9940   36.5420   39.8630 H   0  0  0  0  0  0  0  0  0  0  0  0
   42.6060   34.4250   40.4860 C   0  0  0  0  0  0  0  0  0  0  0  0
   43.3830   33.8900   39.4790 C   0  0  0  0  0  3  0  0  0  0  0  0
   44.7590   33.8100   39.5270 C   0  0  0  0  0  0  0  0  0  0  0  0
   45.3420   33.3840   38.7200 H   0  0  0  0  0  0  0  0  0  0  0  0
   45.4060   34.2780   40.6120 N   0  0  0  0  0  0  0  0  0  0  0  0
   44.6440   34.8090   41.6120 C   0  0  0  0  0  3  0  0  0  0  0  0
   43.3020   34.8830   41.5580 N   0  0  0  0  0  0  0  0  0  0  0  0
   36.7580   28.0470   42.2550 C   0  0  0  0  0  0  0  0  0  0  0  0
   35.9400   28.7300   41.9460 H   0  0  0  0  0  0  0  0  0  0  0  0
   36.4220   27.6430   43.2520 H   0  0  0  0  0  0  0  0  0  0  0  0
   36.6410   26.8500   39.9950 C   0  0  0  0  0  0  0  0  0  0  0  0
   36.8890   26.9180   41.3510 C   0  0  0  0  0  0  0  0  0  0  0  0
   37.3230   25.7530   41.9570 C   0  0  0  0  0  0  0  0  0  0  0  0
   37.5010   24.5850   41.2430 C   0  0  0  0  0  0  0  0  0  0  0  0
   37.9000   23.3360   41.5470 N   0  0  0  0  0  0  0  0  0  0  0  0
   37.9040   22.5430   40.4710 C   0  0  0  0  0  0  0  0  0  0  0  0
   37.4840   23.2930   39.3680 C   0  0  0  0  0  0  0  0  0  0  0  0
   37.2530   24.5260   39.8980 C   0  0  0  0  0  0  0  0  0  0  0  0
   36.8170   25.6890   39.2910 C   0  0  0  0  0  0  0  0  0  0  0  0
   36.2990   27.7920   39.5600 H   0  0  0  0  0  0  0  0  0  0  0  0
   37.5590   25.6510   43.0170 H   0  0  0  0  0  0  0  0  0  0  0  0
   38.1770   23.0160   42.5140 H   0  0  0  0  0  0  0  0  0  0  0  0
   38.1890   21.4920   40.4640 H   0  0  0  0  0  0  0  0  0  0  0  0
   37.3880   22.9170   38.3570 H   0  0  0  0  0  0  0  0  0  0  0  0
   36.5340   25.6980   37.8580 C   0  0  0  0  0  0  0  0  0  0  0  0
   36.3870   26.7720   37.2180 O   0  0  0  0  0  0  0  0  0  0  0  0
   36.4390   24.7670   37.2880 H   0  0  0  0  0  0  0  0  0  0  0  0
  1  3  1  0  0  0  0
  2  1  1  0  0  0  0
  4  8  2  0  0  0  0
  5  4  1  0  0  0  0
  5  6  2  0  0  0  0
  6  7  1  0  0  0  0
  7  1  1  0  0  0  0
  8  7  1  0  0  0  0
  9  5  1  0  0  0  0
 10  6  1  0  0  0  0
 11 12  2  0  0  0  0
 11 16  1  0  0  0  0
 12 13  1  0  0  0  0
 13 19  1  0  0  0  0
 13 14  2  0  0  0  0
 15 14  1  0  0  0  0
 15  4  1  0  0  0  0
 16 15  2  0  0  0  0
 17 11  1  0  0  0  0
 18 12  1  0  0  0  0
 19 25  1  0  0  0  0
 20 21  1  0  0  0  0
 20 19  2  0  0  0  0
 21 23  2  0  0  0  0
 22 21  1  0  0  0  0
 23 24  1  0  0  0  0
 25 24  2  0  0  0  0
 26  1  1  0  0  0  0
 26 28  1  0  0  0  0
 27 26  1  0  0  0  0
 29 30  1  0  0  0  0
 30 31  2  0  0  0  0
 30 26  1  0  0  0  0
 31 39  1  0  0  0  0
 32 33  1  0  0  0  0
 32 31  1  0  0  0  0
 33 40  1  0  0  0  0
 34 33  1  0  0  0  0
 35 36  1  0  0  0  0
 35 34  2  0  0  0  0
 36 32  2  0  0  0  0
 37 36  1  0  0  0  0
 37 29  2  0  0  0  0
 38 29  1  0  0  0  0
 41 34  1  0  0  0  0
 42 35  1  0  0  0  0
 43 37  1  0  0  0  0
 44 43  2  0  0  0  0
 45 43  1  0  0  0  0
M  END
>  <minimizedAffinity>
-6.70422173

$$$$

 OpenBabel03252506303D

 45 49  0  0  0  0  0  0  0  0999 V2000
   37.2240   32.6100   39.8960 C   0  0  0  0  0  0  0  0  0  0  0  0
   36.7700   32.4440   40.8760 H   0  0  0  0  0  0  0  0  0  0  0  0
   36.4970   33.1320   39.2140 H   0  0  0  0  0  0  0  0  0  0  0  0
   40.5250   33.9620   40.1570 C   0  0  0  0  0  0  0  0  0  0  0  0
   39.7390   35.1230   40.2060 C   0  0  0  0  0  0  0  0  0  0  0  0
   38.4410   34.7620   40.1160 C   0  0  0  0  0  0  0  0  0  0  0  0
   38.4210   33.4250   40.0150 N   0  0  0  0  0  0  0  0  0  0  0  0
   39.6590   32.9330   40.0380 N   0  0  0  0  0  0  0  0  0  0  0  0
   40.1270   36.1130   40.2990 H   0  0  0  0  0  0  0  0  0  0  0  0
   37.5730   35.4130   40.1230 H   0  0  0  0  0  0  0  0  0  0  0  0
   43.9540   34.5810   41.2880 C   0  0  0  0  0  0  0  0  0  0  0  0
   44.7240   33.8830   40.3540 C   0  0  0  0  0  0  0  0  0  0  0  0
   44.0380   33.2090   39.3470 C   0  0  0  0  0  0  0  0  0  0  0  0
   42.6990   33.2730   39.3390 N   0  0  0  0  0  0  0  0  0  0  0  0
   41.9700   33.9350   40.2240 C   0  0  0  0  0  0  0  0  0  0  0  0
   42.6130   34.5910   41.2030 N   0  0  0  0  0  0  0  0  0  0  0  0
   44.4770   35.1100   42.0770 H   0  0  0  0  0  0  0  0  0  0  0  0
   45.7840   33.8400   40.3710 H   0  0  0  0  0  0  0  0  0  0  0  0
   44.6910   32.4360   38.2970 C   0  0  0  0  0  0  0  0  0  0  0  0
   44.7830   31.0590   38.3120 C   0  0  0  0  0  3  0  0  0  0  0  0
   45.3980   30.3170   37.3250 C   0  0  0  0  0  0  0  0  0  0  0  0
   45.4550   29.2370   37.3640 H   0  0  0  0  0  0  0  0  0  0  0  0
   45.9490   30.9540   36.2720 N   0  0  0  0  0  0  0  0  0  0  0  0
   45.8610   32.3160   36.2510 C   0  0  0  0  0  3  0  0  0  0  0  0
   45.2600   33.0320   37.2180 N   0  0  0  0  0  0  0  0  0  0  0  0
   37.5430   31.3120   39.2490 C   0  0  0  0  0  0  0  0  0  0  0  0
   38.5820   31.3700   38.8610 H   0  0  0  0  0  0  0  0  0  0  0  0
   36.9040   31.2350   38.3240 H   0  0  0  0  0  0  0  0  0  0  0  0
   37.0890   28.8170   39.5970 C   0  0  0  0  0  0  0  0  0  0  0  0
   37.3260   30.1070   40.0280 C   0  0  0  0  0  0  0  0  0  0  0  0
   37.3640   30.3000   41.3970 C   0  0  0  0  0  0  0  0  0  0  0  0
   37.1770   29.2600   42.2840 C   0  0  0  0  0  0  0  0  0  0  0  0
   37.1600   29.1450   43.6260 N   0  0  0  0  0  0  0  0  0  0  0  0
   36.9300   27.8860   44.0100 C   0  0  0  0  0  0  0  0  0  0  0  0
   36.7830   27.0940   42.8670 C   0  0  0  0  0  0  0  0  0  0  0  0
   36.9430   27.9840   41.8490 C   0  0  0  0  0  0  0  0  0  0  0  0
   36.9030   27.7880   40.4810 C   0  0  0  0  0  0  0  0  0  0  0  0
   37.0670   28.7110   38.5100 H   0  0  0  0  0  0  0  0  0  0  0  0
   37.5410   31.2590   41.8870 H   0  0  0  0  0  0  0  0  0  0  0  0
   37.3080   29.9470   44.2960 H   0  0  0  0  0  0  0  0  0  0  0  0
   36.8720   27.5440   45.0430 H   0  0  0  0  0  0  0  0  0  0  0  0
   36.5880   26.0290   42.8660 H   0  0  0  0  0  0  0  0  0  0  0  0
   36.6580   26.4510   39.9460 C   0  0  0  0  0  0  0  0  0  0  0  0
   37.5490   25.8090   39.3310 O   0  0  0  0  0  0  0  0  0  0  0  0
   35.6850   25.9590   40.0600 H   0  0  0  0  0  0  0  0  0  0  0  0
  1  7  1  0  0  0  0
  1  2  1  0  0  0  0
  3  1  1  0  0  0  0
  4  5  1  0  0  0  0
  4 15  1  0  0  0  0
  5  9  1  0  0  0  0
  6 10  1  0  0  0  0
  6  5  2  0  0  0  0
  7  8  1  0  0  0  0
  7  6  1  0  0  0  0
  8  4  2  0  0  0  0
 11 17  1  0  0  0  0
 12 18  1  0  0  0  0
 12 11  2  0  0  0  0
 13 12  1  0  0  0  0
 14 13  2  0  0  0  0
 14 15  1  0  0  0  0
 15 16  2  0  0  0  0
 16 11  1  0  0  0  0
 19 20  1  0  0  0  0
 19 13  1  0  0  0  0
 21 22  1  0  0  0  0
 21 20  2  0  0  0  0
 23 21  1  0  0  0  0
 24 23  2  0  0  0  0
 24 25  1  0  0  0  0
 25 19  2  0  0  0  0
 26  1  1  0  0  0  0
 26 30  1  0  0  0  0
 27 26  1  0  0  0  0
 28 26  1  0  0  0  0
 29 30  2  0  0  0  0
 29 37  1  0  0  0  0
 30 31  1  0  0  0  0
 31 39  1  0  0  0  0
 31 32  2  0  0  0  0
 32 33  1  0  0  0  0
 33 34  1  0  0  0  0
 33 40  1  0  0  0  0
 34 41  1  0  0  0  0
 35 34  2  0  0  0  0
 36 32  1  0  0  0  0
 36 35  1  0  0  0  0
 37 36  2  0  0  0  0
 38 29  1  0  0  0  0
 42 35  1  0  0  0  0
 43 45  1  0  0  0  0
 43 37  1  0  0  0  0
 44 43  2  0  0  0  0
M  END
>  <minimizedAffinity>
-6.46709728

$$$$

 OpenBabel03252506303D

 45 49  0  0  0  0  0  0  0  0999 V2000
   35.5230   29.4040   38.3730 C   0  0  0  0  0  0  0  0  0  0  0  0
   34.8890   28.7380   37.7830 H   0  0  0  0  0  0  0  0  0  0  0  0
   34.9570   30.3400   38.6410 H   0  0  0  0  0  0  0  0  0  0  0  0
   36.9190   27.3200   40.9210 C   0  0  0  0  0  0  0  0  0  0  0  0
   36.2580   28.2940   41.6830 C   0  0  0  0  0  0  0  0  0  0  0  0
   35.6710   29.1690   40.8380 C   0  0  0  0  0  0  0  0  0  0  0  0
   35.9570   28.7530   39.5960 N   0  0  0  0  0  0  0  0  0  0  0  0
   36.7020   27.6490   39.6290 N   0  0  0  0  0  0  0  0  0  0  0  0
   36.2390   28.3170   42.7500 H   0  0  0  0  0  0  0  0  0  0  0  0
   35.0810   30.0420   41.0980 H   0  0  0  0  0  0  0  0  0  0  0  0
   37.8580   23.9090   41.8710 C   0  0  0  0  0  0  0  0  0  0  0  0
   39.0930   24.0850   42.5000 C   0  0  0  0  0  0  0  0  0  0  0  0
   39.5790   25.3870   42.5820 C   0  0  0  0  0  0  0  0  0  0  0  0
   38.8380   26.3760   42.0590 N   0  0  0  0  0  0  0  0  0  0  0  0
   37.6680   26.2070   41.4640 C   0  0  0  0  0  0  0  0  0  0  0  0
   37.1830   24.9580   41.3750 N   0  0  0  0  0  0  0  0  0  0  0  0
   37.4690   22.8980   41.8010 H   0  0  0  0  0  0  0  0  0  0  0  0
   39.6700   23.2950   42.9090 H   0  0  0  0  0  0  0  0  0  0  0  0
   40.8490   25.7430   43.2050 C   0  0  0  0  0  0  0  0  0  0  0  0
   40.9760   26.7240   44.1670 C   0  0  0  0  0  3  0  0  0  0  0  0
   42.1710   27.0680   44.7630 C   0  0  0  0  0  0  0  0  0  0  0  0
   42.2400   27.8430   45.5160 H   0  0  0  0  0  0  0  0  0  0  0  0
   43.2960   26.4210   44.4000 N   0  0  0  0  0  0  0  0  0  0  0  0
   43.1770   25.4490   43.4490 C   0  0  0  0  0  3  0  0  0  0  0  0
   42.0080   25.1190   42.8720 N   0  0  0  0  0  0  0  0  0  0  0  0
   36.6960   29.8420   37.5740 C   0  0  0  0  0  0  0  0  0  0  0  0
   36.3240   30.2180   36.5980 H   0  0  0  0  0  0  0  0  0  0  0  0
   37.2830   28.9170   37.3110 H   0  0  0  0  0  0  0  0  0  0  0  0
   38.9750   30.6620   38.4020 C   0  0  0  0  0  0  0  0  0  0  0  0
   37.6150   30.7770   38.1970 C   0  0  0  0  0  0  0  0  0  0  0  0
   37.0230   31.9440   38.6440 C   0  0  0  0  0  0  0  0  0  0  0  0
   37.7520   32.9400   39.2600 C   0  0  0  0  0  0  0  0  0  0  0  0
   37.4620   34.1470   39.7820 N   0  0  0  0  0  0  0  0  0  0  0  0
   38.5500   34.7450   40.2770 C   0  0  0  0  0  0  0  0  0  0  0  0
   39.6470   33.9000   40.0820 C   0  0  0  0  0  0  0  0  0  0  0  0
   39.1000   32.8190   39.4590 C   0  0  0  0  0  0  0  0  0  0  0  0
   39.6950   31.6530   39.0150 C   0  0  0  0  0  0  0  0  0  0  0  0
   39.4000   29.7250   38.0350 H   0  0  0  0  0  0  0  0  0  0  0  0
   35.9610   32.1790   38.5530 H   0  0  0  0  0  0  0  0  0  0  0  0
   36.4970   34.5730   39.8020 H   0  0  0  0  0  0  0  0  0  0  0  0
   38.5690   35.7260   40.7500 H   0  0  0  0  0  0  0  0  0  0  0  0
   40.6650   34.1180   40.3810 H   0  0  0  0  0  0  0  0  0  0  0  0
   41.1320   31.4560   39.1940 C   0  0  0  0  0  0  0  0  0  0  0  0
   41.6010   30.8950   40.2190 O   0  0  0  0  0  0  0  0  0  0  0  0
   41.8520   31.7910   38.4410 H   0  0  0  0  0  0  0  0  0  0  0  0
  1  3  1  0  0  0  0
  1  7  1  0  0  0  0
  2  1  1  0  0  0  0
  4 15  1  0  0  0  0
  4  5  1  0  0  0  0
  5  9  1  0  0  0  0
  6 10  1  0  0  0  0
  6  5  2  0  0  0  0
  7  8  1  0  0  0  0
  7  6  1  0  0  0  0
  8  4  2  0  0  0  0
 11 12  1  0  0  0  0
 12 13  2  0  0  0  0
 12 18  1  0  0  0  0
 13 19  1  0  0  0  0
 14 13  1  0  0  0  0
 15 14  2  0  0  0  0
 16 15  1  0  0  0  0
 16 11  2  0  0  0  0
 17 11  1  0  0  0  0
 19 20  1  0  0  0  0
 20 21  2  0  0  0  0
 21 22  1  0  0  0  0
 23 21  1  0  0  0  0
 24 23  2  0  0  0  0
 25 19  2  0  0  0  0
 25 24  1  0  0  0  0
 26 30  1  0  0  0  0
 26  1  1  0  0  0  0
 27 26  1  0  0  0  0
 28 26  1  0  0  0  0
 29 37  1  0  0  0  0
 30 29  2  0  0  0  0
 30 31  1  0  0  0  0
 31 32  2  0  0  0  0
 32 36  1  0  0  0  0
 32 33  1  0  0  0  0
 33 40  1  0  0  0  0
 33 34  1  0  0  0  0
 34 41  1  0  0  0  0
 35 34  2  0  0  0  0
 35 42  1  0  0  0  0
 36 35  1  0  0  0  0
 37 43  1  0  0  0  0
 37 36  2  0  0  0  0
 38 29  1  0  0  0  0
 39 31  1  0  0  0  0
 43 44  2  0  0  0  0
 45 43  1  0  0  0  0
M  END
>  <minimizedAffinity>
-6.45234013

$$$$

 OpenBabel03252506303D

 45 49  0  0  0  0  0  0  0  0999 V2000
   36.8110   30.0170   39.8710 C   0  0  0  0  0  0  0  0  0  0  0  0
   35.8830   30.1330   39.3060 H   0  0  0  0  0  0  0  0  0  0  0  0
   37.4260   29.1780   39.4380 H   0  0  0  0  0  0  0  0  0  0  0  0
   39.3040   32.5690   39.6230 C   0  0  0  0  0  0  0  0  0  0  0  0
   38.1570   33.3210   39.9150 C   0  0  0  0  0  0  0  0  0  0  0  0
   37.1120   32.4740   40.0380 C   0  0  0  0  0  0  0  0  0  0  0  0
   37.5940   31.2400   39.8320 N   0  0  0  0  0  0  0  0  0  0  0  0
   38.9020   31.2800   39.5820 N   0  0  0  0  0  0  0  0  0  0  0  0
   38.1400   34.3840   40.0150 H   0  0  0  0  0  0  0  0  0  0  0  0
   36.0810   32.7260   40.2610 H   0  0  0  0  0  0  0  0  0  0  0  0
   42.2990   33.8610   37.9570 C   0  0  0  0  0  0  0  0  0  0  0  0
   43.1490   34.1630   39.0240 C   0  0  0  0  0  0  0  0  0  0  0  0
   42.6650   33.9130   40.3050 C   0  0  0  0  0  0  0  0  0  0  0  0
   41.4300   33.4040   40.4300 N   0  0  0  0  0  0  0  0  0  0  0  0
   40.6270   33.1180   39.4180 C   0  0  0  0  0  0  0  0  0  0  0  0
   41.0760   33.3520   38.1740 N   0  0  0  0  0  0  0  0  0  0  0  0
   42.6650   34.0520   36.9530 H   0  0  0  0  0  0  0  0  0  0  0  0
   44.1240   34.5660   38.9130 H   0  0  0  0  0  0  0  0  0  0  0  0
   43.4230   34.1720   41.5250 C   0  0  0  0  0  0  0  0  0  0  0  0
   44.0540   33.1840   42.2520 C   0  0  0  0  0  3  0  0  0  0  0  0
   44.7730   33.4160   43.4060 C   0  0  0  0  0  0  0  0  0  0  0  0
   45.2590   32.6200   43.9560 H   0  0  0  0  0  0  0  0  0  0  0  0
   44.8790   34.6770   43.8700 N   0  0  0  0  0  0  0  0  0  0  0  0
   44.2560   35.6590   43.1550 C   0  0  0  0  0  3  0  0  0  0  0  0
   43.5570   35.4240   42.0310 N   0  0  0  0  0  0  0  0  0  0  0  0
   36.5170   29.6340   41.2750 C   0  0  0  0  0  0  0  0  0  0  0  0
   35.4140   29.5660   41.3860 H   0  0  0  0  0  0  0  0  0  0  0  0
   36.8090   30.5060   41.9260 H   0  0  0  0  0  0  0  0  0  0  0  0
   36.7580   27.1450   41.8240 C   0  0  0  0  0  0  0  0  0  0  0  0
   37.1850   28.4570   41.8000 C   0  0  0  0  0  0  0  0  0  0  0  0
   38.4260   28.7090   42.3560 C   0  0  0  0  0  0  0  0  0  0  0  0
   39.1970   27.7030   42.9010 C   0  0  0  0  0  0  0  0  0  0  0  0
   40.4060   27.6450   43.4930 N   0  0  0  0  0  0  0  0  0  0  0  0
   40.7150   26.3970   43.8590 C   0  0  0  0  0  0  0  0  0  0  0  0
   39.6600   25.5550   43.4970 C   0  0  0  0  0  0  0  0  0  0  0  0
   38.7670   26.4040   42.9190 C   0  0  0  0  0  0  0  0  0  0  0  0
   37.5250   26.1500   42.3670 C   0  0  0  0  0  0  0  0  0  0  0  0
   35.7730   26.9930   41.3750 H   0  0  0  0  0  0  0  0  0  0  0  0
   38.8970   29.6920   42.4110 H   0  0  0  0  0  0  0  0  0  0  0  0
   41.0340   28.4770   43.6510 H   0  0  0  0  0  0  0  0  0  0  0  0
   41.6380   26.0980   44.3550 H   0  0  0  0  0  0  0  0  0  0  0  0
   39.6270   24.4850   43.6680 H   0  0  0  0  0  0  0  0  0  0  0  0
   37.0030   24.7850   42.3510 C   0  0  0  0  0  0  0  0  0  0  0  0
   36.8990   24.1270   41.2840 O   0  0  0  0  0  0  0  0  0  0  0  0
   36.6800   24.2870   43.2720 H   0  0  0  0  0  0  0  0  0  0  0  0
  1 26  1  0  0  0  0
  2  1  1  0  0  0  0
  3  1  1  0  0  0  0
  4  5  1  0  0  0  0
  5  9  1  0  0  0  0
  5  6  2  0  0  0  0
  6 10  1  0  0  0  0
  7  1  1  0  0  0  0
  7  6  1  0  0  0  0
  8  4  2  0  0  0  0
  8  7  1  0  0  0  0
 11 16  2  0  0  0  0
 11 12  1  0  0  0  0
 12 13  2  0  0  0  0
 13 14  1  0  0  0  0
 13 19  1  0  0  0  0
 15  4  1  0  0  0  0
 15 14  2  0  0  0  0
 16 15  1  0  0  0  0
 17 11  1  0  0  0  0
 18 12  1  0  0  0  0
 19 25  2  0  0  0  0
 19 20  1  0  0  0  0
 20 21  2  0  0  0  0
 21 23  1  0  0  0  0
 21 22  1  0  0  0  0
 24 23  2  0  0  0  0
 25 24  1  0  0  0  0
 26 27  1  0  0  0  0
 26 30  1  0  0  0  0
 26 28  1  0  0  0  0
 29 37  1  0  0  0  0
 30 29  2  0  0  0  0
 30 31  1  0  0  0  0
 31 39  1  0  0  0  0
 31 32  2  0  0  0  0
 32 36  1  0  0  0  0
 32 33  1  0  0  0  0
 33 40  1  0  0  0  0
 33 34  1  0  0  0  0
 34 41  1  0  0  0  0
 35 42  1  0  0  0  0
 35 34  2  0  0  0  0
 36 35  1  0  0  0  0
 37 36  2  0  0  0  0
 38 29  1  0  0  0  0
 43 37  1  0  0  0  0
 43 45  1  0  0  0  0
 44 43  2  0  0  0  0
M  END
>  <minimizedAffinity>
-6.42026043

$$$$
