
 OpenBabel03252502443D

 29 31  0  0  1  0  0  0  0  0999 V2000
   47.6530   35.4500   41.9350 C   0  0  0  0  0  0  0  0  0  0  0  0
   47.2650   36.1580   41.1940 H   0  0  0  0  0  0  0  0  0  0  0  0
   47.9110   35.9870   42.8860 H   0  0  0  0  0  0  0  0  0  0  0  0
   48.9220   34.7880   41.5060 C   0  0  1  0  0  0  0  0  0  0  0  0
   50.0380   34.7290   42.5010 C   0  0  0  0  0  0  0  0  0  0  0  0
   49.2640   33.5140   42.1610 C   0  0  2  0  0  0  0  0  0  0  0  0
   49.1470   34.9960   40.4210 H   0  0  0  0  0  0  0  0  0  0  0  0
   50.0010   35.2510   43.4730 H   0  0  0  0  0  0  0  0  0  0  0  0
   51.0310   34.9130   42.0370 H   0  0  0  0  0  0  0  0  0  0  0  0
   48.6640   32.8680   42.7620 H   0  0  0  0  0  0  0  0  0  0  0  0
   50.0230   32.6140   41.2150 C   0  0  0  0  0  0  0  0  0  0  0  0
   49.4790   32.0660   40.0650 C   0  0  0  0  0  0  0  0  0  0  0  0
   50.2400   31.2490   39.2490 C   0  0  0  0  0  0  0  0  0  0  0  0
   49.7200   30.8730   38.3760 H   0  0  0  0  0  0  0  0  0  0  0  0
   51.5050   30.9720   39.5500 N   0  0  0  0  0  0  0  0  0  0  0  0
   52.0380   31.5020   40.6660 C   0  0  0  0  0  0  0  0  0  0  0  0
   51.3070   32.2980   41.4670 N   0  0  0  0  0  0  0  0  0  0  0  0
   46.6540   34.3350   42.1510 C   0  0  0  0  0  0  0  0  0  0  0  0
   46.0410   34.1040   41.2940 H   0  0  0  0  0  0  0  0  0  0  0  0
   47.2530   33.4610   42.5570 H   0  0  0  0  0  0  0  0  0  0  0  0
   44.4830   35.9200   44.7670 C   0  0  0  0  0  0  0  0  0  0  0  0
   45.1250   35.6890   43.5210 C   0  0  0  0  0  0  0  0  0  0  0  0
   45.9230   34.5820   43.4230 C   0  0  0  0  0  0  0  0  0  0  0  0
   46.0700   33.7540   44.4970 N   0  0  0  0  0  0  0  0  0  0  0  0
   45.4630   33.9870   45.6480 C   0  0  0  0  0  0  0  0  0  0  0  0
   44.6730   35.0560   45.7980 N   0  0  0  0  0  0  0  0  0  0  0  0
   43.8310   36.7570   44.9700 H   0  0  0  0  0  0  0  0  0  0  0  0
   44.8580   36.4500   42.8250 H   0  0  0  0  0  0  0  0  0  0  0  0
   45.6980   33.2250   46.3840 H   0  0  0  0  0  0  0  0  0  0  0  0
  1 18  1  0  0  0  0
  1  3  1  0  0  0  0
  2  1  1  0  0  0  0
  4  7  1  6  0  0  0
  4  1  1  0  0  0  0
  4  6  1  0  0  0  0
  4  5  1  0  0  0  0
  5  8  1  0  0  0  0
  6  5  1  0  0  0  0
  6 10  1  1  0  0  0
  9  5  1  0  0  0  0
 11 17  1  0  0  0  0
 11  6  1  0  0  0  0
 12 11  2  0  0  0  0
 13 15  2  0  0  0  0
 13 12  1  0  0  0  0
 14 13  1  0  0  0  0
 15 16  1  0  0  0  0
 16 17  2  0  0  0  0
 18 20  1  0  0  0  0
 18 23  1  0  0  0  0
 19 18  1  0  0  0  0
 21 27  1  0  0  0  0
 21 26  1  0  0  0  0
 22 21  2  0  0  0  0
 23 22  1  0  0  0  0
 23 24  2  0  0  0  0
 24 25  1  0  0  0  0
 25 26  2  0  0  0  0
 25 29  1  0  0  0  0
 28 22  1  0  0  0  0
M  END
>  <minimizedAffinity>
-4.8873682

>  <minimizedRMSD>
1.19221187

$$$$
