
 OpenBabel03242513303D

 35 38  0  0  0  0  0  0  0  0999 V2000
   46.4520   33.6280   41.1730 C   0  0  0  0  0  0  0  0  0  0  0  0
   46.8400   34.6280   42.0440 C   0  0  0  0  0  0  0  0  0  0  0  0
   47.8970   35.3970   41.6740 C   0  0  0  0  0  0  0  0  0  0  0  0
   48.5670   35.1990   40.4810 C   0  0  0  0  0  0  0  0  0  0  0  0
   48.1720   34.2010   39.6260 C   0  0  0  0  0  0  0  0  0  0  0  0
   47.0950   33.3870   39.9580 C   0  0  0  0  0  0  0  0  0  0  0  0
   48.2180   36.1880   42.3420 H   0  0  0  0  0  0  0  0  0  0  0  0
   49.4000   35.8210   40.2140 H   0  0  0  0  0  0  0  0  0  0  0  0
   48.6920   34.0400   38.6880 H   0  0  0  0  0  0  0  0  0  0  0  0
   44.5140   35.9350   44.7110 C   0  0  0  0  0  0  0  0  0  0  0  0
   45.2200   35.8060   43.5160 C   0  0  0  0  0  0  0  0  0  0  0  0
   46.0960   34.7830   43.2760 C   0  0  0  0  0  0  0  0  0  0  0  0
   46.2230   33.8950   44.3080 N   0  0  0  0  0  0  0  0  0  0  0  0
   45.5550   34.0000   45.4620 C   0  0  0  0  0  0  0  0  0  0  0  0
   44.6960   35.0220   45.6710 N   0  0  0  0  0  0  0  0  0  0  0  0
   43.8320   36.7500   44.8700 H   0  0  0  0  0  0  0  0  0  0  0  0
   45.0550   36.5580   42.7530 H   0  0  0  0  0  0  0  0  0  0  0  0
   45.8120   33.1850   46.1360 H   0  0  0  0  0  0  0  0  0  0  0  0
   45.3810   32.8160   41.5020 O   0  0  0  0  0  0  0  0  0  0  0  0
   44.5910   32.6740   40.9080 H   0  0  0  0  0  0  0  0  0  0  0  0
   46.6590   32.3790   39.1430 O   0  0  0  0  0  0  0  0  0  0  0  0
   46.7140   32.3680   37.7970 C   0  0  0  0  0  0  0  0  0  0  0  0
   45.7220   32.5900   36.8640 C   0  0  0  0  0  0  0  0  0  0  0  0
   46.0190   32.5250   35.5420 C   0  0  0  0  0  0  0  0  0  0  0  0
   47.3710   32.2230   35.2110 C   0  0  0  0  0  0  0  0  0  0  0  0
   48.1830   32.0410   36.8210 S   0  0  0  0  0  0  0  0  0  0  0  0
   44.7240   32.8130   37.2140 H   0  0  0  0  0  0  0  0  0  0  0  0
   45.3500   32.6750   34.7340 H   0  0  0  0  0  0  0  0  0  0  0  0
   47.9570   32.0930   33.8580 C   0  0  0  0  0  0  0  0  0  0  0  0
   47.7070   31.0320   33.0170 C   0  0  0  0  0  0  0  0  0  0  0  0
   48.3460   31.0880   31.7980 C   0  0  0  0  0  0  0  0  0  0  0  0
   48.1220   30.2250   31.1520 H   0  0  0  0  0  0  0  0  0  0  0  0
   49.1590   32.0880   31.4210 N   0  0  0  0  0  0  0  0  0  0  0  0
   49.3780   33.1070   32.2730 C   0  0  0  0  0  0  0  0  0  0  0  0
   48.7630   33.0860   33.4910 N   0  0  0  0  0  0  0  0  0  0  0  0
  1 19  1  0  0  0  0
  1  2  1  0  0  0  0
  2 12  1  0  0  0  0
  3  2  2  0  0  0  0
  3  7  1  0  0  0  0
  4  3  1  0  0  0  0
  5  6  1  0  0  0  0
  5  4  2  0  0  0  0
  6  1  2  0  0  0  0
  8  4  1  0  0  0  0
  9  5  1  0  0  0  0
 10 16  1  0  0  0  0
 10 15  1  0  0  0  0
 11 10  2  0  0  0  0
 12 11  1  0  0  0  0
 12 13  2  0  0  0  0
 13 14  1  0  0  0  0
 14 15  2  0  0  0  0
 14 18  1  0  0  0  0
 17 11  1  0  0  0  0
 20 19  1  0  0  0  0
 21  6  1  0  0  0  0
 22 21  1  0  0  0  0
 23 27  1  0  0  0  0
 23 22  2  0  0  0  0
 24 23  1  0  0  0  0
 25 24  2  0  0  0  0
 25 26  1  0  0  0  0
 26 22  1  0  0  0  0
 28 24  1  0  0  0  0
 29 25  1  0  0  0  0
 30 29  2  0  0  0  0
 31 30  1  0  0  0  0
 32 31  1  0  0  0  0
 33 31  2  0  0  0  0
 33 34  1  0  0  0  0
 34 35  2  0  0  0  0
 35 29  1  0  0  0  0
M  END
>  <minimizedAffinity>
-6.42501068

>  <minimizedRMSD>
0.654974282

$$$$
