
 OpenBabel03242521403D

 19 20  0  0  0  0  0  0  0  0999 V2000
   37.6860   28.1360   43.1670 C   0  0  0  0  0  0  0  0  0  0  0  0
   37.4750   29.3290   42.4470 C   0  0  0  0  0  0  0  0  0  0  0  0
   38.6100   30.0110   41.9990 C   0  0  0  0  0  0  0  0  0  0  0  0
   39.8370   29.5160   42.2660 N   0  0  0  0  0  0  0  0  0  0  0  0
   39.9870   28.3500   42.9720 C   0  0  0  0  0  0  0  0  0  0  0  0
   38.9150   27.6720   43.4150 N   0  0  0  0  0  0  0  0  0  0  0  0
   36.4750   29.6860   42.2590 H   0  0  0  0  0  0  0  0  0  0  0  0
   40.9920   27.9910   43.1610 H   0  0  0  0  0  0  0  0  0  0  0  0
   38.4170   31.2460   41.2540 C   0  0  0  0  0  0  0  0  0  0  0  0
   37.2610   31.4460   40.5290 C   0  0  0  0  0  3  0  0  0  0  0  0
   37.1910   32.6550   39.8620 C   0  0  0  0  0  0  0  0  0  0  0  0
   36.3100   32.8930   39.2650 H   0  0  0  0  0  0  0  0  0  0  0  0
   38.1900   33.5850   39.9150 N   0  0  0  0  0  0  0  0  0  0  0  0
   39.2910   33.3340   40.6370 C   0  0  0  0  0  3  0  0  0  0  0  0
   39.3920   32.1690   41.2970 N   0  0  0  0  0  0  0  0  0  0  0  0
   36.4710   27.3980   43.6510 C   0  0  0  0  0  0  0  0  0  0  0  0
   36.8040   26.5580   44.2750 H   0  0  0  0  0  0  0  0  0  0  0  0
   35.8090   28.1020   44.2260 H   0  0  0  0  0  0  0  0  0  0  0  0
   35.9440   27.0510   42.7420 H   0  0  0  0  0  0  0  0  0  0  0  0
  1  6  1  0  0  0  0
  1 16  1  0  0  0  0
  2  1  2  0  0  0  0
  3  4  2  0  0  0  0
  3  2  1  0  0  0  0
  4  5  1  0  0  0  0
  5  8  1  0  0  0  0
  5  6  2  0  0  0  0
  7  2  1  0  0  0  0
  9 15  1  0  0  0  0
  9  3  1  0  0  0  0
 10  9  2  0  0  0  0
 11 13  2  0  0  0  0
 11 10  1  0  0  0  0
 12 11  1  0  0  0  0
 13 14  1  0  0  0  0
 14 15  2  0  0  0  0
 16 18  1  0  0  0  0
 16 17  1  0  0  0  0
 19 16  1  0  0  0  0
M  END
>  <minimizedAffinity>
-4.13309383

$$$$

 OpenBabel03242521403D

 19 20  0  0  0  0  0  0  0  0999 V2000
   37.2490   28.5650   42.5310 C   0  0  0  0  0  0  0  0  0  0  0  0
   37.9260   29.7550   42.1980 C   0  0  0  0  0  0  0  0  0  0  0  0
   37.4180   30.4980   41.1280 C   0  0  0  0  0  0  0  0  0  0  0  0
   36.3260   30.0590   40.4670 N   0  0  0  0  0  0  0  0  0  0  0  0
   35.7040   28.8920   40.8330 C   0  0  0  0  0  0  0  0  0  0  0  0
   36.1690   28.1570   41.8570 N   0  0  0  0  0  0  0  0  0  0  0  0
   38.7950   30.0660   42.7540 H   0  0  0  0  0  0  0  0  0  0  0  0
   34.8300   28.5810   40.2730 H   0  0  0  0  0  0  0  0  0  0  0  0
   38.1010   31.7310   40.7650 C   0  0  0  0  0  0  0  0  0  0  0  0
   37.4040   32.7620   40.1720 C   0  0  0  0  0  3  0  0  0  0  0  0
   38.1580   33.8820   39.8720 C   0  0  0  0  0  0  0  0  0  0  0  0
   37.6840   34.7430   39.4010 H   0  0  0  0  0  0  0  0  0  0  0  0
   39.4950   33.9630   40.1410 N   0  0  0  0  0  0  0  0  0  0  0  0
   40.1190   32.9270   40.7180 C   0  0  0  0  0  3  0  0  0  0  0  0
   39.4160   31.8240   41.0240 N   0  0  0  0  0  0  0  0  0  0  0  0
   37.7890   27.7630   43.6800 C   0  0  0  0  0  0  0  0  0  0  0  0
   37.2200   26.8250   43.7430 H   0  0  0  0  0  0  0  0  0  0  0  0
   38.8860   27.5700   43.5200 H   0  0  0  0  0  0  0  0  0  0  0  0
   37.6490   28.3900   44.5810 H   0  0  0  0  0  0  0  0  0  0  0  0
  1 16  1  0  0  0  0
  2  1  1  0  0  0  0
  2  7  1  0  0  0  0
  3  2  2  0  0  0  0
  4  5  2  0  0  0  0
  4  3  1  0  0  0  0
  5  6  1  0  0  0  0
  6  1  2  0  0  0  0
  8  5  1  0  0  0  0
  9 15  1  0  0  0  0
  9  3  1  0  0  0  0
 10  9  2  0  0  0  0
 11 13  2  0  0  0  0
 11 10  1  0  0  0  0
 12 11  1  0  0  0  0
 13 14  1  0  0  0  0
 14 15  2  0  0  0  0
 16 17  1  0  0  0  0
 16 19  1  0  0  0  0
 18 16  1  0  0  0  0
M  END
>  <minimizedAffinity>
-4.13016367

$$$$

 OpenBabel03242521403D

 19 20  0  0  0  0  0  0  0  0999 V2000
   37.2700   32.4130   39.3060 C   0  0  0  0  0  0  0  0  0  0  0  0
   37.2620   31.5940   40.4530 C   0  0  0  0  0  0  0  0  0  0  0  0
   37.1970   30.2130   40.2480 C   0  0  0  0  0  0  0  0  0  0  0  0
   37.1450   29.7240   38.9910 N   0  0  0  0  0  0  0  0  0  0  0  0
   37.1540   30.5660   37.9080 C   0  0  0  0  0  0  0  0  0  0  0  0
   37.2170   31.8980   38.0740 N   0  0  0  0  0  0  0  0  0  0  0  0
   37.3060   32.0300   41.4380 H   0  0  0  0  0  0  0  0  0  0  0  0
   37.1110   30.1270   36.9180 H   0  0  0  0  0  0  0  0  0  0  0  0
   37.1870   29.3460   41.4180 C   0  0  0  0  0  0  0  0  0  0  0  0
   36.3570   28.2470   41.4610 C   0  0  0  0  0  3  0  0  0  0  0  0
   36.4330   27.5010   42.6220 C   0  0  0  0  0  0  0  0  0  0  0  0
   35.8090   26.6140   42.7380 H   0  0  0  0  0  0  0  0  0  0  0  0
   37.2690   27.8260   43.6530 N   0  0  0  0  0  0  0  0  0  0  0  0
   38.0530   28.9080   43.5540 C   0  0  0  0  0  3  0  0  0  0  0  0
   38.0040   29.6550   42.4390 N   0  0  0  0  0  0  0  0  0  0  0  0
   37.3400   33.8980   39.5190 C   0  0  0  0  0  0  0  0  0  0  0  0
   37.2330   34.3910   38.5430 H   0  0  0  0  0  0  0  0  0  0  0  0
   36.5300   34.2120   40.2320 H   0  0  0  0  0  0  0  0  0  0  0  0
   38.3310   34.0940   39.9720 H   0  0  0  0  0  0  0  0  0  0  0  0
  1 16  1  0  0  0  0
  1  2  1  0  0  0  0
  2  7  1  0  0  0  0
  3  2  2  0  0  0  0
  3  9  1  0  0  0  0
  4  3  1  0  0  0  0
  5  6  1  0  0  0  0
  5  4  2  0  0  0  0
  6  1  2  0  0  0  0
  8  5  1  0  0  0  0
  9 10  2  0  0  0  0
  9 15  1  0  0  0  0
 10 11  1  0  0  0  0
 11 12  1  0  0  0  0
 11 13  2  0  0  0  0
 14 13  1  0  0  0  0
 15 14  2  0  0  0  0
 16 19  1  0  0  0  0
 16 18  1  0  0  0  0
 17 16  1  0  0  0  0
M  END
>  <minimizedAffinity>
-4.01374149

$$$$

 OpenBabel03242521403D

 19 20  0  0  0  0  0  0  0  0999 V2000
   39.0410   27.4280   43.1050 C   0  0  0  0  0  0  0  0  0  0  0  0
   39.2280   28.7160   42.5640 C   0  0  0  0  0  0  0  0  0  0  0  0
   38.1010   29.3550   42.0390 C   0  0  0  0  0  0  0  0  0  0  0  0
   36.9050   28.7320   42.0650 N   0  0  0  0  0  0  0  0  0  0  0  0
   36.7780   27.4760   42.6030 C   0  0  0  0  0  0  0  0  0  0  0  0
   37.8420   26.8370   43.1160 N   0  0  0  0  0  0  0  0  0  0  0  0
   40.2040   29.1750   42.5650 H   0  0  0  0  0  0  0  0  0  0  0  0
   35.7960   27.0170   42.6030 H   0  0  0  0  0  0  0  0  0  0  0  0
   38.2710   30.6860   41.4740 C   0  0  0  0  0  0  0  0  0  0  0  0
   39.4600   31.3640   41.6380 C   0  0  0  0  0  3  0  0  0  0  0  0
   39.5030   32.6190   41.0590 C   0  0  0  0  0  0  0  0  0  0  0  0
   40.4080   33.2220   41.1410 H   0  0  0  0  0  0  0  0  0  0  0  0
   38.4470   33.1520   40.3760 N   0  0  0  0  0  0  0  0  0  0  0  0
   37.3150   32.4450   40.2500 C   0  0  0  0  0  3  0  0  0  0  0  0
   37.2400   31.2220   40.8000 N   0  0  0  0  0  0  0  0  0  0  0  0
   40.2470   26.7360   43.6720 C   0  0  0  0  0  0  0  0  0  0  0  0
   39.9570   25.7150   43.9530 H   0  0  0  0  0  0  0  0  0  0  0  0
   41.0730   26.7360   42.9080 H   0  0  0  0  0  0  0  0  0  0  0  0
   40.5560   27.3330   44.5510 H   0  0  0  0  0  0  0  0  0  0  0  0
  1  6  1  0  0  0  0
  1 16  1  0  0  0  0
  2  7  1  0  0  0  0
  2  1  2  0  0  0  0
  3  4  2  0  0  0  0
  3  2  1  0  0  0  0
  4  5  1  0  0  0  0
  5  6  2  0  0  0  0
  8  5  1  0  0  0  0
  9 10  1  0  0  0  0
  9  3  1  0  0  0  0
 11 12  1  0  0  0  0
 11 10  2  0  0  0  0
 13 11  1  0  0  0  0
 14 13  2  0  0  0  0
 14 15  1  0  0  0  0
 15  9  2  0  0  0  0
 16 17  1  0  0  0  0
 16 19  1  0  0  0  0
 18 16  1  0  0  0  0
M  END
>  <minimizedAffinity>
-3.93414044

$$$$

 OpenBabel03242521403D

 19 20  0  0  0  0  0  0  0  0999 V2000
   37.1660   27.1910   41.3150 C   0  0  0  0  0  0  0  0  0  0  0  0
   37.3780   28.4670   40.7560 C   0  0  0  0  0  0  0  0  0  0  0  0
   37.6260   29.5170   41.6450 C   0  0  0  0  0  0  0  0  0  0  0  0
   37.6510   29.2790   42.9720 N   0  0  0  0  0  0  0  0  0  0  0  0
   37.4370   28.0170   43.4650 C   0  0  0  0  0  0  0  0  0  0  0  0
   37.1970   26.9870   42.6350 N   0  0  0  0  0  0  0  0  0  0  0  0
   37.3490   28.6090   39.6880 H   0  0  0  0  0  0  0  0  0  0  0  0
   37.4680   27.8740   44.5390 H   0  0  0  0  0  0  0  0  0  0  0  0
   37.8470   30.8450   41.0900 C   0  0  0  0  0  0  0  0  0  0  0  0
   36.9010   31.4220   40.2700 C   0  0  0  0  0  3  0  0  0  0  0  0
   37.2220   32.6830   39.8030 C   0  0  0  0  0  0  0  0  0  0  0  0
   36.5270   33.2110   39.1480 H   0  0  0  0  0  0  0  0  0  0  0  0
   38.3900   33.3140   40.1280 N   0  0  0  0  0  0  0  0  0  0  0  0
   39.2720   32.7020   40.9300 C   0  0  0  0  0  3  0  0  0  0  0  0
   38.9910   31.4760   41.4010 N   0  0  0  0  0  0  0  0  0  0  0  0
   36.9000   26.0570   40.3660 C   0  0  0  0  0  0  0  0  0  0  0  0
   36.6550   25.1640   40.9570 H   0  0  0  0  0  0  0  0  0  0  0  0
   36.0590   26.3380   39.6740 H   0  0  0  0  0  0  0  0  0  0  0  0
   37.8320   25.9230   39.7840 H   0  0  0  0  0  0  0  0  0  0  0  0
  1  6  1  0  0  0  0
  2  1  2  0  0  0  0
  2  3  1  0  0  0  0
  3  4  2  0  0  0  0
  4  5  1  0  0  0  0
  5  8  1  0  0  0  0
  6  5  2  0  0  0  0
  7  2  1  0  0  0  0
  9 15  1  0  0  0  0
  9  3  1  0  0  0  0
 10  9  2  0  0  0  0
 11 13  2  0  0  0  0
 11 10  1  0  0  0  0
 12 11  1  0  0  0  0
 13 14  1  0  0  0  0
 14 15  2  0  0  0  0
 16 17  1  0  0  0  0
 16  1  1  0  0  0  0
 18 16  1  0  0  0  0
 19 16  1  0  0  0  0
M  END
>  <minimizedAffinity>
-3.9128871

$$$$

 OpenBabel03242521403D

 19 20  0  0  0  0  0  0  0  0999 V2000
   39.6810   32.7410   40.5410 C   0  0  0  0  0  0  0  0  0  0  0  0
   39.3520   31.5340   41.1900 C   0  0  0  0  0  0  0  0  0  0  0  0
   38.0250   31.1040   41.1000 C   0  0  0  0  0  0  0  0  0  0  0  0
   37.1280   31.8420   40.4130 N   0  0  0  0  0  0  0  0  0  0  0  0
   37.5010   33.0110   39.8000 C   0  0  0  0  0  0  0  0  0  0  0  0
   38.7690   33.4490   39.8680 N   0  0  0  0  0  0  0  0  0  0  0  0
   40.1040   30.9780   41.7270 H   0  0  0  0  0  0  0  0  0  0  0  0
   36.7450   33.5690   39.2590 H   0  0  0  0  0  0  0  0  0  0  0  0
   37.6620   29.8600   41.7630 C   0  0  0  0  0  0  0  0  0  0  0  0
   38.2860   29.4910   42.9360 C   0  0  0  0  0  3  0  0  0  0  0  0
   37.8590   28.2900   43.4720 C   0  0  0  0  0  0  0  0  0  0  0  0
   38.3010   27.9240   44.4000 H   0  0  0  0  0  0  0  0  0  0  0  0
   36.8910   27.5240   42.8860 N   0  0  0  0  0  0  0  0  0  0  0  0
   36.3210   27.9350   41.7450 C   0  0  0  0  0  3  0  0  0  0  0  0
   36.7120   29.0970   41.1970 N   0  0  0  0  0  0  0  0  0  0  0  0
   41.1060   33.2080   40.6320 C   0  0  0  0  0  0  0  0  0  0  0  0
   41.1730   34.2020   40.1700 H   0  0  0  0  0  0  0  0  0  0  0  0
   41.4230   33.2320   41.7110 H   0  0  0  0  0  0  0  0  0  0  0  0
   41.7080   32.4580   40.0850 H   0  0  0  0  0  0  0  0  0  0  0  0
  1 16  1  0  0  0  0
  1  2  1  0  0  0  0
  2  7  1  0  0  0  0
  3  2  2  0  0  0  0
  3  9  1  0  0  0  0
  4  3  1  0  0  0  0
  5  6  1  0  0  0  0
  5  4  2  0  0  0  0
  6  1  2  0  0  0  0
  8  5  1  0  0  0  0
  9 10  1  0  0  0  0
 10 11  2  0  0  0  0
 11 12  1  0  0  0  0
 13 11  1  0  0  0  0
 14 13  2  0  0  0  0
 15 14  1  0  0  0  0
 15  9  2  0  0  0  0
 16 18  1  0  0  0  0
 17 16  1  0  0  0  0
 19 16  1  0  0  0  0
M  END
>  <minimizedAffinity>
-3.91090274

$$$$

 OpenBabel03242521403D

 19 20  0  0  0  0  0  0  0  0999 V2000
   35.6870   29.1400   40.5160 C   0  0  0  0  0  0  0  0  0  0  0  0
   36.2420   27.8980   40.8820 C   0  0  0  0  0  0  0  0  0  0  0  0
   37.3590   27.9230   41.7230 C   0  0  0  0  0  0  0  0  0  0  0  0
   37.8540   29.1060   42.1420 N   0  0  0  0  0  0  0  0  0  0  0  0
   37.2760   30.2880   41.7560 C   0  0  0  0  0  0  0  0  0  0  0  0
   36.2010   30.2950   40.9490 N   0  0  0  0  0  0  0  0  0  0  0  0
   35.8120   26.9770   40.5210 H   0  0  0  0  0  0  0  0  0  0  0  0
   37.7090   31.2120   42.1200 H   0  0  0  0  0  0  0  0  0  0  0  0
   37.9500   26.6510   42.1140 C   0  0  0  0  0  0  0  0  0  0  0  0
   37.3410   25.4650   41.7620 C   0  0  0  0  0  3  0  0  0  0  0  0
   37.9930   24.3230   42.1890 C   0  0  0  0  0  0  0  0  0  0  0  0
   37.5780   23.3430   41.9530 H   0  0  0  0  0  0  0  0  0  0  0  0
   39.1550   24.3640   42.9070 N   0  0  0  0  0  0  0  0  0  0  0  0
   39.7000   25.5470   43.2200 C   0  0  0  0  0  3  0  0  0  0  0  0
   39.0920   26.6760   42.8200 N   0  0  0  0  0  0  0  0  0  0  0  0
   34.4870   29.1210   39.6140 C   0  0  0  0  0  0  0  0  0  0  0  0
   34.2430   30.1570   39.3420 H   0  0  0  0  0  0  0  0  0  0  0  0
   34.7120   28.4970   38.7050 H   0  0  0  0  0  0  0  0  0  0  0  0
   33.6750   28.6470   40.1970 H   0  0  0  0  0  0  0  0  0  0  0  0
  1  2  2  0  0  0  0
  1  6  1  0  0  0  0
  2  3  1  0  0  0  0
  3  9  1  0  0  0  0
  3  4  2  0  0  0  0
  5  8  1  0  0  0  0
  5  4  1  0  0  0  0
  6  5  2  0  0  0  0
  7  2  1  0  0  0  0
  9 15  1  0  0  0  0
 10  9  2  0  0  0  0
 10 11  1  0  0  0  0
 11 13  2  0  0  0  0
 12 11  1  0  0  0  0
 13 14  1  0  0  0  0
 15 14  2  0  0  0  0
 16 19  1  0  0  0  0
 16  1  1  0  0  0  0
 17 16  1  0  0  0  0
 18 16  1  0  0  0  0
M  END
>  <minimizedAffinity>
-3.90598536

$$$$

 OpenBabel03242521403D

 19 20  0  0  0  0  0  0  0  0999 V2000
   37.7620   25.6440   42.1280 C   0  0  0  0  0  0  0  0  0  0  0  0
   37.3550   26.9060   41.6520 C   0  0  0  0  0  0  0  0  0  0  0  0
   38.1530   28.0020   41.9930 C   0  0  0  0  0  0  0  0  0  0  0  0
   39.2560   27.8180   42.7480 N   0  0  0  0  0  0  0  0  0  0  0  0
   39.6070   26.5670   43.1860 C   0  0  0  0  0  0  0  0  0  0  0  0
   38.8610   25.4940   42.8740 N   0  0  0  0  0  0  0  0  0  0  0  0
   36.4650   27.0040   41.0510 H   0  0  0  0  0  0  0  0  0  0  0  0
   40.5030   26.4690   43.7890 H   0  0  0  0  0  0  0  0  0  0  0  0
   37.7510   29.3160   41.5130 C   0  0  0  0  0  0  0  0  0  0  0  0
   36.4280   29.5760   41.2230 C   0  0  0  0  0  3  0  0  0  0  0  0
   36.1680   30.8570   40.7750 C   0  0  0  0  0  0  0  0  0  0  0  0
   35.1470   31.1450   40.5230 H   0  0  0  0  0  0  0  0  0  0  0  0
   37.1460   31.7990   40.6270 N   0  0  0  0  0  0  0  0  0  0  0  0
   38.4150   31.4890   40.9240 C   0  0  0  0  0  3  0  0  0  0  0  0
   38.7030   30.2520   41.3630 N   0  0  0  0  0  0  0  0  0  0  0  0
   36.9100   24.4610   41.7650 C   0  0  0  0  0  0  0  0  0  0  0  0
   37.3000   23.5810   42.2930 H   0  0  0  0  0  0  0  0  0  0  0  0
   35.8410   24.6710   42.0440 H   0  0  0  0  0  0  0  0  0  0  0  0
   36.9930   24.3520   40.6670 H   0  0  0  0  0  0  0  0  0  0  0  0
  1  6  1  0  0  0  0
  2  3  1  0  0  0  0
  2  1  2  0  0  0  0
  3  4  2  0  0  0  0
  4  5  1  0  0  0  0
  5  8  1  0  0  0  0
  6  5  2  0  0  0  0
  7  2  1  0  0  0  0
  9  3  1  0  0  0  0
 10  9  2  0  0  0  0
 11 10  1  0  0  0  0
 12 11  1  0  0  0  0
 13 11  2  0  0  0  0
 13 14  1  0  0  0  0
 14 15  2  0  0  0  0
 15  9  1  0  0  0  0
 16 18  1  0  0  0  0
 16  1  1  0  0  0  0
 16 17  1  0  0  0  0
 19 16  1  0  0  0  0
M  END
>  <minimizedAffinity>
-3.85123467

$$$$

 OpenBabel03242521403D

 19 20  0  0  0  0  0  0  0  0999 V2000
   38.1960   32.5010   40.3420 C   0  0  0  0  0  0  0  0  0  0  0  0
   37.6330   31.2720   40.7410 C   0  0  0  0  0  0  0  0  0  0  0  0
   38.4490   30.4060   41.4750 C   0  0  0  0  0  0  0  0  0  0  0  0
   39.7160   30.7680   41.7660 N   0  0  0  0  0  0  0  0  0  0  0  0
   40.2160   31.9760   41.3530 C   0  0  0  0  0  0  0  0  0  0  0  0
   39.4550   32.8290   40.6470 N   0  0  0  0  0  0  0  0  0  0  0  0
   36.6150   31.0270   40.4840 H   0  0  0  0  0  0  0  0  0  0  0  0
   41.2390   32.2220   41.6120 H   0  0  0  0  0  0  0  0  0  0  0  0
   37.8890   29.1310   41.8970 C   0  0  0  0  0  0  0  0  0  0  0  0
   37.5960   28.1580   40.9650 C   0  0  0  0  0  3  0  0  0  0  0  0
   37.0680   26.9900   41.4840 C   0  0  0  0  0  0  0  0  0  0  0  0
   36.8090   26.1700   40.8150 H   0  0  0  0  0  0  0  0  0  0  0  0
   36.8500   26.8110   42.8210 N   0  0  0  0  0  0  0  0  0  0  0  0
   37.1540   27.7930   43.6800 C   0  0  0  0  0  3  0  0  0  0  0  0
   37.6700   28.9410   43.2090 N   0  0  0  0  0  0  0  0  0  0  0  0
   37.3250   33.4360   39.5540 C   0  0  0  0  0  0  0  0  0  0  0  0
   37.9360   34.2910   39.2350 H   0  0  0  0  0  0  0  0  0  0  0  0
   36.8880   32.8890   38.6740 H   0  0  0  0  0  0  0  0  0  0  0  0
   36.5120   33.7450   40.2400 H   0  0  0  0  0  0  0  0  0  0  0  0
  1  6  2  0  0  0  0
  1  2  1  0  0  0  0
  2  3  2  0  0  0  0
  3  4  1  0  0  0  0
  3  9  1  0  0  0  0
  5  8  1  0  0  0  0
  5  4  2  0  0  0  0
  6  5  1  0  0  0  0
  7  2  1  0  0  0  0
  9 15  1  0  0  0  0
 10 11  1  0  0  0  0
 10  9  2  0  0  0  0
 11 13  2  0  0  0  0
 12 11  1  0  0  0  0
 13 14  1  0  0  0  0
 15 14  2  0  0  0  0
 16 19  1  0  0  0  0
 16  1  1  0  0  0  0
 17 16  1  0  0  0  0
 18 16  1  0  0  0  0
M  END
>  <minimizedAffinity>
-3.84645081

$$$$
