
 OpenBabel03252506183D

 21 22  0  0  0  0  0  0  0  0999 V2000
   44.8820   35.4070   43.9930 C   0  0  0  0  0  0  0  0  0  0  0  0
   44.4060   34.9780   42.7390 C   0  0  0  0  0  0  0  0  0  0  0  0
   44.4990   33.6080   42.4330 C   0  0  0  0  0  0  0  0  0  0  0  0
   45.0410   32.7810   43.3630 N   0  0  0  0  0  0  0  0  0  0  0  0
   45.4950   33.2310   44.5720 C   0  0  0  0  0  0  0  0  0  0  0  0
   45.4030   34.5480   44.8610 N   0  0  0  0  0  0  0  0  0  0  0  0
   43.9810   35.6820   42.0320 H   0  0  0  0  0  0  0  0  0  0  0  0
   44.1480   33.2350   41.4870 H   0  0  0  0  0  0  0  0  0  0  0  0
   46.0740   32.3230   45.5550 C   0  0  0  0  0  0  0  0  0  0  0  0
   46.7060   32.8620   46.6670 C   0  0  0  0  0  3  0  0  0  0  0  0
   47.2580   31.9970   47.6060 C   0  0  0  0  0  0  0  0  0  0  0  0
   47.7530   32.4060   48.4780 H   0  0  0  0  0  0  0  0  0  0  0  0
   47.1380   30.6860   47.3610 N   0  0  0  0  0  0  0  0  0  0  0  0
   46.5420   30.1410   46.3070 C   0  0  0  0  0  3  0  0  0  0  0  0
   45.9950   30.9780   45.3790 N   0  0  0  0  0  0  0  0  0  0  0  0
   44.7830   36.8250   44.3070 C   0  0  0  0  0  3  0  0  0  0  0  0
   45.3860   37.7050   43.5360 C   0  0  0  0  0  3  0  0  0  0  0  0
   45.3320   39.1620   43.7880 C   0  0  0  0  0  0  0  0  0  0  0  0
   45.0910   39.3890   44.8340 H   0  0  0  0  0  0  0  0  0  0  0  0
   44.5320   39.5900   43.1720 H   0  0  0  0  0  0  0  0  0  0  0  0
   46.3260   39.6330   43.5860 H   0  0  0  0  0  0  0  0  0  0  0  0
  1 16  1  0  0  0  0
  1  6  1  0  0  0  0
  2  1  2  0  0  0  0
  3  2  1  0  0  0  0
  3  4  2  0  0  0  0
  4  5  1  0  0  0  0
  5  6  2  0  0  0  0
  5  9  1  0  0  0  0
  7  2  1  0  0  0  0
  8  3  1  0  0  0  0
  9 10  1  0  0  0  0
 10 11  2  0  0  0  0
 11 12  1  0  0  0  0
 13 11  1  0  0  0  0
 14 13  2  0  0  0  0
 15  9  2  0  0  0  0
 15 14  1  0  0  0  0
 17 18  1  0  0  0  0
 17 16  2  0  0  0  0
 18 19  1  0  0  0  0
 20 18  1  0  0  0  0
 21 18  1  0  0  0  0
M  END
>  <minimizedAffinity>
-3.62489438

>  <minimizedRMSD>
1.61675096

$$$$
