
 OpenBabel03252508323D

 30 32  0  0  1  0  0  0  0  0999 V2000
   45.2210   34.3130   42.1420 N   0  0  0  0  0  0  0  0  0  0  0  0
   46.2320   33.6020   41.4510 C   0  0  1  0  0  0  0  0  0  0  0  0
   46.1240   33.5790   39.9760 C   0  0  0  0  0  0  0  0  0  0  0  0
   44.8470   33.6400   39.4030 N   0  0  0  0  0  0  0  0  0  0  0  0
   43.8110   34.2250   40.1420 C   0  0  0  0  0  0  0  0  0  0  0  0
   44.3460   35.0530   41.2880 C   0  0  0  0  0  0  0  0  0  0  0  0
   46.2360   32.5480   41.8310 H   0  0  0  0  0  0  0  0  0  0  0  0
   46.7320   34.4370   39.5530 H   0  0  0  0  0  0  0  0  0  0  0  0
   46.6640   32.6760   39.5850 H   0  0  0  0  0  0  0  0  0  0  0  0
   44.9030   34.0580   38.4460 H   0  0  0  0  0  0  0  0  0  0  0  0
   43.1420   33.4110   40.5180 H   0  0  0  0  0  0  0  0  0  0  0  0
   43.1650   34.9000   39.5240 H   0  0  0  0  0  0  0  0  0  0  0  0
   43.5460   35.6200   41.7670 H   0  0  0  0  0  0  0  0  0  0  0  0
   44.9740   35.8470   40.7720 H   0  0  0  0  0  0  0  0  0  0  0  0
   44.6560   35.3720   44.2020 C   0  0  0  0  0  0  0  0  0  0  0  0
   45.1670   34.2590   43.5430 C   0  0  0  0  0  0  0  0  0  0  0  0
   45.6100   33.1800   44.3210 C   0  0  0  0  0  0  0  0  0  0  0  0
   45.5370   33.2360   45.6790 N   0  0  0  0  0  0  0  0  0  0  0  0
   45.0300   34.3460   46.2860 C   0  0  0  0  0  0  0  0  0  0  0  0
   44.5980   35.3940   45.5600 N   0  0  0  0  0  0  0  0  0  0  0  0
   44.2680   36.2910   43.7970 H   0  0  0  0  0  0  0  0  0  0  0  0
   45.9960   32.3210   43.8400 H   0  0  0  0  0  0  0  0  0  0  0  0
   45.0000   34.3270   47.3760 H   0  0  0  0  0  0  0  0  0  0  0  0
   47.6120   34.1400   41.7550 C   0  0  0  0  0  0  0  0  0  0  0  0
   48.1150   35.4210   41.7060 C   0  0  0  0  0  3  0  0  0  0  0  0
   49.4300   35.6180   42.0420 C   0  0  0  0  0  0  0  0  0  0  0  0
   49.7420   36.6540   41.9770 H   0  0  0  0  0  0  0  0  0  0  0  0
   50.2030   34.5790   42.4080 N   0  0  0  0  0  0  0  0  0  0  0  0
   49.7080   33.3500   42.4510 C   0  0  0  0  0  3  0  0  0  0  0  0
   48.4160   33.1030   42.1290 N   0  0  0  0  0  0  0  0  0  0  0  0
  1 16  1  0  0  0  0
  2 24  1  0  0  0  0
  2  7  1  1  0  0  0
  2  1  1  0  0  0  0
  3  2  1  0  0  0  0
  4  3  1  0  0  0  0
  4  5  1  0  0  0  0
  5 11  1  0  0  0  0
  5  6  1  0  0  0  0
  6 13  1  0  0  0  0
  6  1  1  0  0  0  0
  8  3  1  0  0  0  0
  9  3  1  0  0  0  0
 10  4  1  0  0  0  0
 12  5  1  0  0  0  0
 14  6  1  0  0  0  0
 15 20  1  0  0  0  0
 16 15  2  0  0  0  0
 16 17  1  0  0  0  0
 17 18  2  0  0  0  0
 18 19  1  0  0  0  0
 19 23  1  0  0  0  0
 20 19  2  0  0  0  0
 21 15  1  0  0  0  0
 22 17  1  0  0  0  0
 24 30  1  0  0  0  0
 25 24  2  0  0  0  0
 25 26  1  0  0  0  0
 26 28  2  0  0  0  0
 27 26  1  0  0  0  0
 28 29  1  0  0  0  0
 30 29  2  0  0  0  0
M  END
>  <minimizedAffinity>
-4.95929146

>  <minimizedRMSD>
2.08534598

$$$$
