
 OpenBabel03242522553D

 38 40  0  0  1  0  0  0  0  0999 V2000
   37.1440   27.3790   41.7290 C   0  0  0  0  0  0  0  0  0  0  0  0
   38.2010   27.1650   42.4160 O   0  0  0  0  0  0  0  0  0  0  0  0
   37.2530   26.0710   41.1880 N   0  0  0  0  0  0  0  0  0  0  0  0
   36.6820   26.0780   39.8530 C   0  0  0  0  0  0  0  0  0  0  0  0
   36.7340   24.6440   39.3690 C   0  0  0  0  0  0  0  0  0  0  0  0
   36.3060   23.7420   40.4460 N   0  0  0  0  0  0  0  0  0  0  0  0
   37.4550   23.6070   41.2980 C   0  0  0  0  0  0  0  0  0  0  0  0
   37.8380   24.9250   41.8550 C   0  0  1  0  0  0  0  0  0  0  0  0
   37.3860   26.6360   39.1860 H   0  0  0  0  0  0  0  0  0  0  0  0
   35.6450   26.4650   39.8160 H   0  0  0  0  0  0  0  0  0  0  0  0
   37.6820   24.3600   38.9160 H   0  0  0  0  0  0  0  0  0  0  0  0
   35.9640   24.5410   38.5660 H   0  0  0  0  0  0  0  0  0  0  0  0
   36.0220   22.8500   39.9830 H   0  0  0  0  0  0  0  0  0  0  0  0
   38.2860   23.0400   40.8300 H   0  0  0  0  0  0  0  0  0  0  0  0
   37.1190   22.9580   42.1550 H   0  0  0  0  0  0  0  0  0  0  0  0
   37.6210   25.0270   42.9280 H   0  0  0  0  0  0  0  0  0  0  0  0
   39.3200   25.0840   41.6940 C   0  0  0  0  0  0  0  0  0  0  0  0
   39.9680   25.3470   40.5170 C   0  0  0  0  0  3  0  0  0  0  0  0
   41.3540   25.4620   40.5650 C   0  0  0  0  0  0  0  0  0  0  0  0
   41.8690   25.6700   39.6290 H   0  0  0  0  0  0  0  0  0  0  0  0
   42.0380   25.3220   41.7160 N   0  0  0  0  0  0  0  0  0  0  0  0
   41.3840   25.0650   42.8640 C   0  0  0  0  0  3  0  0  0  0  0  0
   40.0590   24.9560   42.8140 N   0  0  0  0  0  0  0  0  0  0  0  0
   36.6120   28.6220   41.9250 O   0  0  0  0  0  0  0  0  0  0  0  0
   36.9370   29.8010   39.5900 O   0  0  0  0  0  0  0  0  0  0  0  0
   36.8760   30.0380   41.1060 P   0  0  1  0  0  0  0  0  0  0  0  0
   35.6330   31.1360   41.3700 O   0  0  0  0  0  0  0  0  0  0  0  0
   35.2230   31.0100   42.2700 H   0  0  0  0  0  0  0  0  0  0  0  0
   38.3630   30.6990   41.5820 O   0  0  0  0  0  0  0  0  0  0  0  0
   40.8180   33.0220   40.2650 C   0  0  0  0  0  0  0  0  0  0  0  0
   40.2130   31.8700   40.8290 C   0  0  0  0  0  0  0  0  0  0  0  0
   38.8640   31.8490   41.0340 C   0  0  0  0  0  0  0  0  0  0  0  0
   38.1340   32.9370   40.6900 N   0  0  0  0  0  0  0  0  0  0  0  0
   38.7100   34.0290   40.1550 C   0  0  0  0  0  0  0  0  0  0  0  0
   40.0290   34.0860   39.9400 N   0  0  0  0  0  0  0  0  0  0  0  0
   41.8790   33.1090   40.0750 H   0  0  0  0  0  0  0  0  0  0  0  0
   40.9410   31.1210   41.0330 H   0  0  0  0  0  0  0  0  0  0  0  0
   38.0920   34.8720   39.8970 H   0  0  0  0  0  0  0  0  0  0  0  0
  1 24  1  0  0  0  0
  1  2  2  0  0  0  0
  3  1  1  0  0  0  0
  3  8  1  0  0  0  0
  4  3  1  0  0  0  0
  5  4  1  0  0  0  0
  5  6  1  0  0  0  0
  6  7  1  0  0  0  0
  7  8  1  0  0  0  0
  7 15  1  0  0  0  0
  8 16  1  1  0  0  0
  9  4  1  0  0  0  0
 10  4  1  0  0  0  0
 11  5  1  0  0  0  0
 12  5  1  0  0  0  0
 13  6  1  0  0  0  0
 14  7  1  0  0  0  0
 17  8  1  0  0  0  0
 17 23  1  0  0  0  0
 18 19  1  0  0  0  0
 18 17  2  0  0  0  0
 19 21  2  0  0  0  0
 20 19  1  0  0  0  0
 21 22  1  0  0  0  0
 23 22  2  0  0  0  0
 26 25  2  6  0  0  0
 26 27  1  0  0  0  0
 26 29  1  0  0  0  0
 26 24  1  0  0  0  0
 27 28  1  0  0  0  0
 30 31  1  0  0  0  0
 31 37  1  0  0  0  0
 31 32  2  0  0  0  0
 32 29  1  0  0  0  0
 33 32  1  0  0  0  0
 34 33  2  0  0  0  0
 35 34  1  0  0  0  0
 35 30  2  0  0  0  0
 36 30  1  0  0  0  0
 38 34  1  0  0  0  0
M  END
>  <minimizedAffinity>
-5.63215303

$$$$

 OpenBabel03242522553D

 38 40  0  0  1  0  0  0  0  0999 V2000
   35.7960   29.6310   37.5390 C   0  0  0  0  0  0  0  0  0  0  0  0
   36.7870   30.2670   37.0410 O   0  0  0  0  0  0  0  0  0  0  0  0
   36.2080   30.0400   38.8350 N   0  0  0  0  0  0  0  0  0  0  0  0
   35.8050   29.0200   39.7870 C   0  0  0  0  0  0  0  0  0  0  0  0
   36.1770   29.5560   41.1550 C   0  0  0  0  0  0  0  0  0  0  0  0
   35.8000   30.9730   41.2510 N   0  0  0  0  0  0  0  0  0  0  0  0
   36.8470   31.6840   40.5700 C   0  0  0  0  0  0  0  0  0  0  0  0
   36.9120   31.2670   39.1510 C   0  0  1  0  0  0  0  0  0  0  0  0
   36.4670   28.1320   39.6320 H   0  0  0  0  0  0  0  0  0  0  0  0
   34.7250   28.7750   39.7450 H   0  0  0  0  0  0  0  0  0  0  0  0
   37.2090   29.3610   41.4450 H   0  0  0  0  0  0  0  0  0  0  0  0
   35.5400   29.0230   41.9000 H   0  0  0  0  0  0  0  0  0  0  0  0
   35.7430   31.1890   42.2710 H   0  0  0  0  0  0  0  0  0  0  0  0
   37.8170   31.6590   41.1080 H   0  0  0  0  0  0  0  0  0  0  0  0
   36.5390   32.7670   40.5950 H   0  0  0  0  0  0  0  0  0  0  0  0
   36.5560   32.0370   38.4510 H   0  0  0  0  0  0  0  0  0  0  0  0
   38.3470   31.0000   38.8100 C   0  0  0  0  0  0  0  0  0  0  0  0
   39.0840   29.9330   39.2490 C   0  0  0  0  0  3  0  0  0  0  0  0
   40.4060   29.8540   38.8240 C   0  0  0  0  0  0  0  0  0  0  0  0
   40.9910   29.0050   39.1740 H   0  0  0  0  0  0  0  0  0  0  0  0
   40.9490   30.7840   38.0160 N   0  0  0  0  0  0  0  0  0  0  0  0
   40.2100   31.8260   37.5950 C   0  0  0  0  0  3  0  0  0  0  0  0
   38.9450   31.8980   38.0020 N   0  0  0  0  0  0  0  0  0  0  0  0
   35.0240   29.0080   36.6000 O   0  0  0  0  0  0  0  0  0  0  0  0
   33.3670   26.9570   36.6050 O   0  0  0  0  0  0  0  0  0  0  0  0
   33.4520   28.4890   36.6810 P   0  0  1  0  0  0  0  0  0  0  0  0
   32.7360   28.9380   38.1310 O   0  0  0  0  0  0  0  0  0  0  0  0
   33.1250   29.7870   38.4800 H   0  0  0  0  0  0  0  0  0  0  0  0
   32.5810   29.1160   35.3680 O   0  0  0  0  0  0  0  0  0  0  0  0
   30.9840   32.2130   34.3630 C   0  0  0  0  0  0  0  0  0  0  0  0
   31.7560   31.0230   34.3490 C   0  0  0  0  0  0  0  0  0  0  0  0
   31.8140   30.2450   35.4690 C   0  0  0  0  0  0  0  0  0  0  0  0
   31.1290   30.6330   36.5700 N   0  0  0  0  0  0  0  0  0  0  0  0
   30.3970   31.7620   36.5810 C   0  0  0  0  0  0  0  0  0  0  0  0
   30.3160   32.5510   35.5030 N   0  0  0  0  0  0  0  0  0  0  0  0
   30.8920   32.8770   33.5150 H   0  0  0  0  0  0  0  0  0  0  0  0
   32.2190   30.8840   33.4010 H   0  0  0  0  0  0  0  0  0  0  0  0
   29.8690   32.0340   37.4790 H   0  0  0  0  0  0  0  0  0  0  0  0
  1  3  1  0  0  0  0
  2  1  2  0  0  0  0
  3  8  1  0  0  0  0
  3  4  1  0  0  0  0
  4  5  1  0  0  0  0
  5  6  1  0  0  0  0
  5 11  1  0  0  0  0
  5 12  1  0  0  0  0
  6 13  1  0  0  0  0
  7 15  1  0  0  0  0
  7 14  1  0  0  0  0
  7  6  1  0  0  0  0
  8 16  1  6  0  0  0
  8  7  1  0  0  0  0
  9  4  1  0  0  0  0
 10  4  1  0  0  0  0
 17  8  1  0  0  0  0
 17 18  1  0  0  0  0
 19 20  1  0  0  0  0
 19 18  2  0  0  0  0
 21 19  1  0  0  0  0
 22 23  1  0  0  0  0
 22 21  2  0  0  0  0
 23 17  2  0  0  0  0
 24 26  1  0  0  0  0
 24  1  1  0  0  0  0
 26 25  2  6  0  0  0
 26 27  1  0  0  0  0
 27 28  1  0  0  0  0
 29 32  1  0  0  0  0
 29 26  1  0  0  0  0
 30 35  1  0  0  0  0
 31 30  2  0  0  0  0
 31 32  1  0  0  0  0
 32 33  2  0  0  0  0
 33 34  1  0  0  0  0
 34 38  1  0  0  0  0
 35 34  2  0  0  0  0
 36 30  1  0  0  0  0
 37 31  1  0  0  0  0
M  END
>  <minimizedAffinity>
-5.53671503

$$$$

 OpenBabel03242522553D

 38 40  0  0  1  0  0  0  0  0999 V2000
   39.9900   29.7570   39.7260 C   0  0  0  0  0  0  0  0  0  0  0  0
   39.1870   28.7830   39.9270 O   0  0  0  0  0  0  0  0  0  0  0  0
   40.5460   29.5410   41.0150 N   0  0  0  0  0  0  0  0  0  0  0  0
   41.0270   30.8120   41.5250 C   0  0  0  0  0  0  0  0  0  0  0  0
   41.6970   30.5040   42.8490 C   0  0  0  0  0  0  0  0  0  0  0  0
   42.5260   29.2990   42.7160 N   0  0  0  0  0  0  0  0  0  0  0  0
   41.6050   28.2000   42.8050 C   0  0  0  0  0  0  0  0  0  0  0  0
   40.6180   28.2670   41.7020 C   0  0  1  0  0  0  0  0  0  0  0  0
   40.1340   31.4320   41.7880 H   0  0  0  0  0  0  0  0  0  0  0  0
   41.7320   31.3270   40.8430 H   0  0  0  0  0  0  0  0  0  0  0  0
   41.0140   30.4690   43.6970 H   0  0  0  0  0  0  0  0  0  0  0  0
   42.4080   31.3390   43.0590 H   0  0  0  0  0  0  0  0  0  0  0  0
   43.2140   29.3320   43.5000 H   0  0  0  0  0  0  0  0  0  0  0  0
   41.1650   28.0750   43.8160 H   0  0  0  0  0  0  0  0  0  0  0  0
   42.2260   27.2730   42.6520 H   0  0  0  0  0  0  0  0  0  0  0  0
   40.7630   27.4910   40.9370 H   0  0  0  0  0  0  0  0  0  0  0  0
   39.2540   28.0530   42.2860 C   0  0  0  0  0  0  0  0  0  0  0  0
   38.6120   28.9080   43.1420 C   0  0  0  0  0  3  0  0  0  0  0  0
   37.3440   28.5370   43.5800 C   0  0  0  0  0  0  0  0  0  0  0  0
   36.8340   29.2170   44.2600 H   0  0  0  0  0  0  0  0  0  0  0  0
   36.7640   27.3890   43.1850 N   0  0  0  0  0  0  0  0  0  0  0  0
   37.4100   26.5600   42.3430 C   0  0  0  0  0  3  0  0  0  0  0  0
   38.6220   26.9180   41.9260 N   0  0  0  0  0  0  0  0  0  0  0  0
   39.8310   30.3480   38.5050 O   0  0  0  0  0  0  0  0  0  0  0  0
   39.7930   32.8980   39.1730 O   0  0  0  0  0  0  0  0  0  0  0  0
   39.3350   31.8810   38.1170 P   0  0  1  0  0  0  0  0  0  0  0  0
   39.9890   32.3820   36.6540 O   0  0  0  0  0  0  0  0  0  0  0  0
   40.1440   31.6090   36.0430 H   0  0  0  0  0  0  0  0  0  0  0  0
   37.6410   31.9310   38.0580 O   0  0  0  0  0  0  0  0  0  0  0  0
   35.9660   30.5790   40.9770 C   0  0  0  0  0  0  0  0  0  0  0  0
   36.7580   31.3950   40.1300 C   0  0  0  0  0  0  0  0  0  0  0  0
   36.8570   31.0920   38.8030 C   0  0  0  0  0  0  0  0  0  0  0  0
   36.1890   30.0130   38.3280 N   0  0  0  0  0  0  0  0  0  0  0  0
   35.4390   29.2410   39.1340 C   0  0  0  0  0  0  0  0  0  0  0  0
   35.3180   29.5060   40.4400 N   0  0  0  0  0  0  0  0  0  0  0  0
   35.8430   30.7580   42.0370 H   0  0  0  0  0  0  0  0  0  0  0  0
   37.2030   32.1910   40.6780 H   0  0  0  0  0  0  0  0  0  0  0  0
   34.9260   28.3920   38.7150 H   0  0  0  0  0  0  0  0  0  0  0  0
  1  2  2  0  0  0  0
  1  3  1  0  0  0  0
  3  4  1  0  0  0  0
  3  8  1  0  0  0  0
  4  9  1  0  0  0  0
  4  5  1  0  0  0  0
  5 12  1  0  0  0  0
  5 11  1  0  0  0  0
  6  7  1  0  0  0  0
  6  5  1  0  0  0  0
  6 13  1  0  0  0  0
  7 14  1  0  0  0  0
  8 16  1  6  0  0  0
  8 17  1  0  0  0  0
  8  7  1  0  0  0  0
 10  4  1  0  0  0  0
 15  7  1  0  0  0  0
 17 18  1  0  0  0  0
 18 19  2  0  0  0  0
 19 20  1  0  0  0  0
 21 19  1  0  0  0  0
 22 21  2  0  0  0  0
 23 17  2  0  0  0  0
 23 22  1  0  0  0  0
 24  1  1  0  0  0  0
 26 24  1  0  0  0  0
 26 25  2  1  0  0  0
 27 26  1  0  0  0  0
 28 27  1  0  0  0  0
 29 26  1  0  0  0  0
 29 32  1  0  0  0  0
 30 36  1  0  0  0  0
 31 37  1  0  0  0  0
 31 30  2  0  0  0  0
 32 31  1  0  0  0  0
 33 32  2  0  0  0  0
 33 34  1  0  0  0  0
 34 35  2  0  0  0  0
 35 30  1  0  0  0  0
 38 34  1  0  0  0  0
M  END
>  <minimizedAffinity>
-5.48147917

$$$$

 OpenBabel03242522553D

 38 40  0  0  1  0  0  0  0  0999 V2000
   37.3150   27.5110   42.0030 C   0  0  0  0  0  0  0  0  0  0  0  0
   38.2770   28.1190   42.5870 O   0  0  0  0  0  0  0  0  0  0  0  0
   38.1010   26.3280   41.9800 N   0  0  0  0  0  0  0  0  0  0  0  0
   37.7170   25.5460   40.8190 C   0  0  0  0  0  0  0  0  0  0  0  0
   38.5100   24.2570   40.9030 C   0  0  0  0  0  0  0  0  0  0  0  0
   38.4910   23.7530   42.2820 N   0  0  0  0  0  0  0  0  0  0  0  0
   39.4800   24.5310   42.9770 C   0  0  0  0  0  0  0  0  0  0  0  0
   39.1140   25.9660   42.9510 C   0  0  1  0  0  0  0  0  0  0  0  0
   38.1080   26.0700   39.9120 H   0  0  0  0  0  0  0  0  0  0  0  0
   36.6310   25.3320   40.7660 H   0  0  0  0  0  0  0  0  0  0  0  0
   39.5100   24.3210   40.4770 H   0  0  0  0  0  0  0  0  0  0  0  0
   37.9630   23.4960   40.2960 H   0  0  0  0  0  0  0  0  0  0  0  0
   38.7250   22.7370   42.2230 H   0  0  0  0  0  0  0  0  0  0  0  0
   40.5190   24.3090   42.6570 H   0  0  0  0  0  0  0  0  0  0  0  0
   39.4350   24.1870   44.0480 H   0  0  0  0  0  0  0  0  0  0  0  0
   38.7840   26.3520   43.9260 H   0  0  0  0  0  0  0  0  0  0  0  0
   40.3320   26.7490   42.5640 C   0  0  0  0  0  0  0  0  0  0  0  0
   40.8960   26.7780   41.3160 C   0  0  0  0  0  3  0  0  0  0  0  0
   42.0300   27.5660   41.1480 C   0  0  0  0  0  0  0  0  0  0  0  0
   42.4780   27.5890   40.1550 H   0  0  0  0  0  0  0  0  0  0  0  0
   42.5590   28.2750   42.1620 N   0  0  0  0  0  0  0  0  0  0  0  0
   41.9920   28.2350   43.3820 C   0  0  0  0  0  3  0  0  0  0  0  0
   40.9070   27.4800   43.5390 N   0  0  0  0  0  0  0  0  0  0  0  0
   36.2250   28.3050   41.7840 O   0  0  0  0  0  0  0  0  0  0  0  0
   34.8770   29.1930   39.7000 O   0  0  0  0  0  0  0  0  0  0  0  0
   35.9990   29.5320   40.6930 P   0  0  1  0  0  0  0  0  0  0  0  0
   35.5470   30.9550   41.4610 O   0  0  0  0  0  0  0  0  0  0  0  0
   35.9300   31.0090   42.3800 H   0  0  0  0  0  0  0  0  0  0  0  0
   37.4220   29.7640   39.7990 O   0  0  0  0  0  0  0  0  0  0  0  0
   40.7040   31.1210   40.5330 C   0  0  0  0  0  0  0  0  0  0  0  0
   39.6570   30.2340   40.1760 C   0  0  0  0  0  0  0  0  0  0  0  0
   38.3690   30.6860   40.1550 C   0  0  0  0  0  0  0  0  0  0  0  0
   38.1250   31.9780   40.4780 N   0  0  0  0  0  0  0  0  0  0  0  0
   39.1200   32.8180   40.8170 C   0  0  0  0  0  0  0  0  0  0  0  0
   40.3940   32.4120   40.8490 N   0  0  0  0  0  0  0  0  0  0  0  0
   41.7460   30.8340   40.5710 H   0  0  0  0  0  0  0  0  0  0  0  0
   40.0390   29.2660   39.9550 H   0  0  0  0  0  0  0  0  0  0  0  0
   38.8810   33.8370   41.0680 H   0  0  0  0  0  0  0  0  0  0  0  0
  1  2  2  0  0  0  0
  3  1  1  0  0  0  0
  3  8  1  0  0  0  0
  4  5  1  0  0  0  0
  4  3  1  0  0  0  0
  5  6  1  0  0  0  0
  6  7  1  0  0  0  0
  7 15  1  0  0  0  0
  8  7  1  0  0  0  0
  8 16  1  1  0  0  0
  9  4  1  0  0  0  0
 10  4  1  0  0  0  0
 11  5  1  0  0  0  0
 12  5  1  0  0  0  0
 13  6  1  0  0  0  0
 14  7  1  0  0  0  0
 17  8  1  0  0  0  0
 17 23  1  0  0  0  0
 18 17  2  0  0  0  0
 19 18  1  0  0  0  0
 19 21  2  0  0  0  0
 20 19  1  0  0  0  0
 21 22  1  0  0  0  0
 22 23  2  0  0  0  0
 24  1  1  0  0  0  0
 26 25  2  6  0  0  0
 26 27  1  0  0  0  0
 26 24  1  0  0  0  0
 27 28  1  0  0  0  0
 29 32  1  0  0  0  0
 29 26  1  0  0  0  0
 30 36  1  0  0  0  0
 30 35  1  0  0  0  0
 31 30  2  0  0  0  0
 32 31  1  0  0  0  0
 32 33  2  0  0  0  0
 33 34  1  0  0  0  0
 34 35  2  0  0  0  0
 34 38  1  0  0  0  0
 37 31  1  0  0  0  0
M  END
>  <minimizedAffinity>
-5.46742487

$$$$

 OpenBabel03242522553D

 38 40  0  0  1  0  0  0  0  0999 V2000
   36.5300   26.3690   39.2380 C   0  0  0  0  0  0  0  0  0  0  0  0
   36.1990   27.1350   40.2060 O   0  0  0  0  0  0  0  0  0  0  0  0
   37.2820   25.5760   40.1440 N   0  0  0  0  0  0  0  0  0  0  0  0
   38.3920   24.9820   39.4210 C   0  0  0  0  0  0  0  0  0  0  0  0
   39.0950   24.0730   40.4090 C   0  0  0  0  0  0  0  0  0  0  0  0
   38.1000   23.3070   41.1710 N   0  0  0  0  0  0  0  0  0  0  0  0
   37.6250   24.2130   42.1810 C   0  0  0  0  0  0  0  0  0  0  0  0
   36.9900   25.3940   41.5520 C   0  0  1  0  0  0  0  0  0  0  0  0
   39.1270   25.7950   39.2000 H   0  0  0  0  0  0  0  0  0  0  0  0
   38.0830   24.4140   38.5210 H   0  0  0  0  0  0  0  0  0  0  0  0
   39.8280   24.5770   41.0360 H   0  0  0  0  0  0  0  0  0  0  0  0
   39.6640   23.3190   39.8130 H   0  0  0  0  0  0  0  0  0  0  0  0
   38.6050   22.4780   41.5570 H   0  0  0  0  0  0  0  0  0  0  0  0
   38.3860   24.4490   42.9530 H   0  0  0  0  0  0  0  0  0  0  0  0
   36.8240   23.6500   42.7370 H   0  0  0  0  0  0  0  0  0  0  0  0
   35.8970   25.4150   41.6640 H   0  0  0  0  0  0  0  0  0  0  0  0
   37.5210   26.6220   42.2290 C   0  0  0  0  0  0  0  0  0  0  0  0
   36.8260   27.4080   43.1100 C   0  0  0  0  0  3  0  0  0  0  0  0
   37.4880   28.5110   43.6380 C   0  0  0  0  0  0  0  0  0  0  0  0
   36.9360   29.1350   44.3380 H   0  0  0  0  0  0  0  0  0  0  0  0
   38.7590   28.8030   43.3040 N   0  0  0  0  0  0  0  0  0  0  0  0
   39.4270   28.0200   42.4380 C   0  0  0  0  0  3  0  0  0  0  0  0
   38.7900   26.9650   41.9350 N   0  0  0  0  0  0  0  0  0  0  0  0
   36.0010   26.7530   38.0380 O   0  0  0  0  0  0  0  0  0  0  0  0
   34.7280   28.1120   36.1710 O   0  0  0  0  0  0  0  0  0  0  0  0
   35.3550   28.2060   37.5710 P   0  0  1  0  0  0  0  0  0  0  0  0
   34.1320   28.6930   38.6130 O   0  0  0  0  0  0  0  0  0  0  0  0
   34.2880   28.3560   39.5380 H   0  0  0  0  0  0  0  0  0  0  0  0
   36.5820   29.3750   37.5050 O   0  0  0  0  0  0  0  0  0  0  0  0
   37.5310   32.5300   39.0200 C   0  0  0  0  0  0  0  0  0  0  0  0
   37.3240   31.4920   38.0770 C   0  0  0  0  0  0  0  0  0  0  0  0
   36.7440   30.3230   38.4790 C   0  0  0  0  0  0  0  0  0  0  0  0
   36.3790   30.1870   39.7750 N   0  0  0  0  0  0  0  0  0  0  0  0
   36.5770   31.1740   40.6680 C   0  0  0  0  0  0  0  0  0  0  0  0
   37.1430   32.3330   40.3120 N   0  0  0  0  0  0  0  0  0  0  0  0
   37.9840   33.4810   38.7740 H   0  0  0  0  0  0  0  0  0  0  0  0
   37.6720   31.7800   37.1130 H   0  0  0  0  0  0  0  0  0  0  0  0
   36.2730   31.0230   41.6900 H   0  0  0  0  0  0  0  0  0  0  0  0
  1  3  1  0  0  0  0
  1  2  2  0  0  0  0
  3  8  1  0  0  0  0
  4  3  1  0  0  0  0
  4  5  1  0  0  0  0
  5 11  1  0  0  0  0
  5  6  1  0  0  0  0
  6 13  1  0  0  0  0
  6  7  1  0  0  0  0
  7 15  1  0  0  0  0
  7 14  1  0  0  0  0
  8 16  1  1  0  0  0
  8  7  1  0  0  0  0
  8 17  1  0  0  0  0
  9  4  1  0  0  0  0
 10  4  1  0  0  0  0
 12  5  1  0  0  0  0
 17 18  1  0  0  0  0
 18 19  2  0  0  0  0
 19 20  1  0  0  0  0
 21 19  1  0  0  0  0
 22 21  2  0  0  0  0
 23 17  2  0  0  0  0
 23 22  1  0  0  0  0
 24  1  1  0  0  0  0
 26 25  2  6  0  0  0
 26 24  1  0  0  0  0
 26 27  1  0  0  0  0
 27 28  1  0  0  0  0
 29 26  1  0  0  0  0
 29 32  1  0  0  0  0
 30 35  1  0  0  0  0
 31 32  1  0  0  0  0
 31 30  2  0  0  0  0
 32 33  2  0  0  0  0
 33 34  1  0  0  0  0
 34 38  1  0  0  0  0
 35 34  2  0  0  0  0
 36 30  1  0  0  0  0
 37 31  1  0  0  0  0
M  END
>  <minimizedAffinity>
-5.35781431

$$$$

 OpenBabel03242522553D

 38 40  0  0  1  0  0  0  0  0999 V2000
   37.7160   27.9340   40.5050 C   0  0  0  0  0  0  0  0  0  0  0  0
   37.9010   26.9910   39.6620 O   0  0  0  0  0  0  0  0  0  0  0  0
   38.5850   27.2710   41.4110 N   0  0  0  0  0  0  0  0  0  0  0  0
   38.1690   27.5930   42.7650 C   0  0  0  0  0  0  0  0  0  0  0  0
   39.1880   26.9450   43.6800 C   0  0  0  0  0  0  0  0  0  0  0  0
   40.5410   27.1720   43.1540 N   0  0  0  0  0  0  0  0  0  0  0  0
   40.7030   26.1990   42.1090 C   0  0  0  0  0  0  0  0  0  0  0  0
   39.6970   26.4170   41.0450 C   0  0  1  0  0  0  0  0  0  0  0  0
   37.2120   27.0500   42.9630 H   0  0  0  0  0  0  0  0  0  0  0  0
   38.1050   28.6810   42.9620 H   0  0  0  0  0  0  0  0  0  0  0  0
   38.9810   25.9010   43.9100 H   0  0  0  0  0  0  0  0  0  0  0  0
   39.1470   27.4900   44.6540 H   0  0  0  0  0  0  0  0  0  0  0  0
   41.1920   27.0340   43.9590 H   0  0  0  0  0  0  0  0  0  0  0  0
   40.7660   25.1560   42.4850 H   0  0  0  0  0  0  0  0  0  0  0  0
   41.7190   26.4000   41.6660 H   0  0  0  0  0  0  0  0  0  0  0  0
   40.1240   26.8170   40.1140 H   0  0  0  0  0  0  0  0  0  0  0  0
   39.0840   25.0910   40.7060 C   0  0  0  0  0  0  0  0  0  0  0  0
   38.1230   24.4490   41.4400 C   0  0  0  0  0  3  0  0  0  0  0  0
   37.6740   23.2200   40.9650 C   0  0  0  0  0  0  0  0  0  0  0  0
   36.9090   22.7100   41.5480 H   0  0  0  0  0  0  0  0  0  0  0  0
   38.1590   22.6770   39.8330 N   0  0  0  0  0  0  0  0  0  0  0  0
   39.1040   23.3220   39.1240 C   0  0  0  0  0  3  0  0  0  0  0  0
   39.5300   24.4970   39.5820 N   0  0  0  0  0  0  0  0  0  0  0  0
   36.8720   28.9090   40.0520 O   0  0  0  0  0  0  0  0  0  0  0  0
   36.6430   31.3590   39.1060 O   0  0  0  0  0  0  0  0  0  0  0  0
   36.8370   30.5310   40.3860 P   0  0  1  0  0  0  0  0  0  0  0  0
   35.5590   30.9170   41.4050 O   0  0  0  0  0  0  0  0  0  0  0  0
   35.3360   30.1570   42.0110 H   0  0  0  0  0  0  0  0  0  0  0  0
   38.3120   30.9990   41.0790 O   0  0  0  0  0  0  0  0  0  0  0  0
   39.8710   34.1590   40.2210 C   0  0  0  0  0  0  0  0  0  0  0  0
   39.0260   33.1850   40.8100 C   0  0  0  0  0  0  0  0  0  0  0  0
   39.1680   31.8720   40.4640 C   0  0  0  0  0  0  0  0  0  0  0  0
   40.1190   31.5340   39.5610 N   0  0  0  0  0  0  0  0  0  0  0  0
   40.9200   32.4600   39.0030 C   0  0  0  0  0  0  0  0  0  0  0  0
   40.8100   33.7560   39.3170 N   0  0  0  0  0  0  0  0  0  0  0  0
   39.8160   35.2150   40.4470 H   0  0  0  0  0  0  0  0  0  0  0  0
   38.3460   33.6360   41.4920 H   0  0  0  0  0  0  0  0  0  0  0  0
   41.6620   32.1470   38.2880 H   0  0  0  0  0  0  0  0  0  0  0  0
  1  3  1  0  0  0  0
  2  1  2  0  0  0  0
  3  4  1  0  0  0  0
  4 10  1  0  0  0  0
  4  9  1  0  0  0  0
  4  5  1  0  0  0  0
  5 11  1  0  0  0  0
  5 12  1  0  0  0  0
  6  5  1  0  0  0  0
  6 13  1  0  0  0  0
  7 14  1  0  0  0  0
  7  6  1  0  0  0  0
  8 16  1  6  0  0  0
  8  3  1  0  0  0  0
  8  7  1  0  0  0  0
 15  7  1  0  0  0  0
 17  8  1  0  0  0  0
 17 18  1  0  0  0  0
 19 18  2  0  0  0  0
 19 20  1  0  0  0  0
 21 19  1  0  0  0  0
 22 23  1  0  0  0  0
 22 21  2  0  0  0  0
 23 17  2  0  0  0  0
 24 26  1  0  0  0  0
 24  1  1  0  0  0  0
 26 25  2  6  0  0  0
 26 29  1  0  0  0  0
 26 27  1  0  0  0  0
 27 28  1  0  0  0  0
 30 36  1  0  0  0  0
 30 31  1  0  0  0  0
 31 37  1  0  0  0  0
 32 31  2  0  0  0  0
 32 29  1  0  0  0  0
 33 32  1  0  0  0  0
 34 35  1  0  0  0  0
 34 33  2  0  0  0  0
 35 30  2  0  0  0  0
 38 34  1  0  0  0  0
M  END
>  <minimizedAffinity>
-5.27390194

$$$$

 OpenBabel03242522553D

 38 40  0  0  1  0  0  0  0  0999 V2000
   37.6450   27.6940   42.3340 C   0  0  0  0  0  0  0  0  0  0  0  0
   38.6410   28.2540   42.9080 O   0  0  0  0  0  0  0  0  0  0  0  0
   38.3900   26.4880   42.2570 N   0  0  0  0  0  0  0  0  0  0  0  0
   37.9500   25.7520   41.0850 C   0  0  0  0  0  0  0  0  0  0  0  0
   38.7020   24.4370   41.1120 C   0  0  0  0  0  0  0  0  0  0  0  0
   38.7030   23.8950   42.4770 N   0  0  0  0  0  0  0  0  0  0  0  0
   39.7340   24.6200   43.1660 C   0  0  0  0  0  0  0  0  0  0  0  0
   39.4160   26.0660   43.1900 C   0  0  1  0  0  0  0  0  0  0  0  0
   38.3350   26.2890   40.1840 H   0  0  0  0  0  0  0  0  0  0  0  0
   36.8570   25.5750   41.0560 H   0  0  0  0  0  0  0  0  0  0  0  0
   39.6930   24.4800   40.6610 H   0  0  0  0  0  0  0  0  0  0  0  0
   38.1150   23.7110   40.4990 H   0  0  0  0  0  0  0  0  0  0  0  0
   38.9010   22.8740   42.3840 H   0  0  0  0  0  0  0  0  0  0  0  0
   40.7570   24.3740   42.8120 H   0  0  0  0  0  0  0  0  0  0  0  0
   39.7060   24.2460   44.2280 H   0  0  0  0  0  0  0  0  0  0  0  0
   39.1240   26.4340   44.1840 H   0  0  0  0  0  0  0  0  0  0  0  0
   40.6490   26.8200   42.7920 C   0  0  0  0  0  0  0  0  0  0  0  0
   41.4240   27.5760   43.6300 C   0  0  0  0  0  3  0  0  0  0  0  0
   42.5350   28.2040   43.0760 C   0  0  0  0  0  0  0  0  0  0  0  0
   43.1510   28.8060   43.7430 H   0  0  0  0  0  0  0  0  0  0  0  0
   42.8430   28.0810   41.7720 N   0  0  0  0  0  0  0  0  0  0  0  0
   42.0700   27.3340   40.9620 C   0  0  0  0  0  3  0  0  0  0  0  0
   41.0090   26.7340   41.4960 N   0  0  0  0  0  0  0  0  0  0  0  0
   36.5760   28.5290   42.1670 O   0  0  0  0  0  0  0  0  0  0  0  0
   35.0170   28.8690   40.0680 O   0  0  0  0  0  0  0  0  0  0  0  0
   36.1620   29.4900   40.8820 P   0  0  1  0  0  0  0  0  0  0  0  0
   35.6250   30.9960   41.3940 O   0  0  0  0  0  0  0  0  0  0  0  0
   36.0580   31.2640   42.2510 H   0  0  0  0  0  0  0  0  0  0  0  0
   37.4950   29.6560   39.8460 O   0  0  0  0  0  0  0  0  0  0  0  0
   37.9170   27.7400   36.7960 C   0  0  0  0  0  0  0  0  0  0  0  0
   37.9420   28.1380   38.1570 C   0  0  0  0  0  0  0  0  0  0  0  0
   37.4300   29.3520   38.5130 C   0  0  0  0  0  0  0  0  0  0  0  0
   36.9070   30.1480   37.5510 N   0  0  0  0  0  0  0  0  0  0  0  0
   36.8840   29.7680   36.2600 C   0  0  0  0  0  0  0  0  0  0  0  0
   37.3770   28.5860   35.8730 N   0  0  0  0  0  0  0  0  0  0  0  0
   38.3040   26.7940   36.4410 H   0  0  0  0  0  0  0  0  0  0  0  0
   38.3880   27.3860   38.7630 H   0  0  0  0  0  0  0  0  0  0  0  0
   36.4590   30.4330   35.5270 H   0  0  0  0  0  0  0  0  0  0  0  0
  1  2  2  0  0  0  0
  3  1  1  0  0  0  0
  3  8  1  0  0  0  0
  4  5  1  0  0  0  0
  4  3  1  0  0  0  0
  5  6  1  0  0  0  0
  6  7  1  0  0  0  0
  7  8  1  0  0  0  0
  7 15  1  0  0  0  0
  8 16  1  1  0  0  0
  9  4  1  0  0  0  0
 10  4  1  0  0  0  0
 11  5  1  0  0  0  0
 12  5  1  0  0  0  0
 13  6  1  0  0  0  0
 14  7  1  0  0  0  0
 17  8  1  0  0  0  0
 17 18  1  0  0  0  0
 19 18  2  0  0  0  0
 19 20  1  0  0  0  0
 21 19  1  0  0  0  0
 22 23  1  0  0  0  0
 22 21  2  0  0  0  0
 23 17  2  0  0  0  0
 24  1  1  0  0  0  0
 26 25  2  6  0  0  0
 26 27  1  0  0  0  0
 26 24  1  0  0  0  0
 27 28  1  0  0  0  0
 29 26  1  0  0  0  0
 30 31  1  0  0  0  0
 31 32  2  0  0  0  0
 31 37  1  0  0  0  0
 32 29  1  0  0  0  0
 33 32  1  0  0  0  0
 34 33  2  0  0  0  0
 35 34  1  0  0  0  0
 35 30  2  0  0  0  0
 36 30  1  0  0  0  0
 38 34  1  0  0  0  0
M  END
>  <minimizedAffinity>
-5.25316429

$$$$

 OpenBabel03242522553D

 38 40  0  0  1  0  0  0  0  0999 V2000
   38.4300   29.5120   40.4720 C   0  0  0  0  0  0  0  0  0  0  0  0
   39.6990   29.4450   40.3380 O   0  0  0  0  0  0  0  0  0  0  0  0
   38.4330   30.7260   39.7350 N   0  0  0  0  0  0  0  0  0  0  0  0
   37.3260   31.5440   40.1940 C   0  0  0  0  0  0  0  0  0  0  0  0
   37.3190   32.7730   39.3080 C   0  0  0  0  0  0  0  0  0  0  0  0
   37.5290   32.3760   37.9100 N   0  0  0  0  0  0  0  0  0  0  0  0
   38.9460   32.1680   37.7900 C   0  0  0  0  0  0  0  0  0  0  0  0
   39.3840   31.0850   38.7010 C   0  0  1  0  0  0  0  0  0  0  0  0
   37.5840   31.9220   41.2140 H   0  0  0  0  0  0  0  0  0  0  0  0
   36.3460   31.0290   40.1530 H   0  0  0  0  0  0  0  0  0  0  0  0
   37.9880   33.5660   39.6400 H   0  0  0  0  0  0  0  0  0  0  0  0
   36.2880   33.2010   39.3490 H   0  0  0  0  0  0  0  0  0  0  0  0
   37.1730   33.1660   37.3270 H   0  0  0  0  0  0  0  0  0  0  0  0
   39.5360   33.1040   37.8630 H   0  0  0  0  0  0  0  0  0  0  0  0
   39.1100   31.8130   36.7340 H   0  0  0  0  0  0  0  0  0  0  0  0
   39.6630   30.1590   38.1790 H   0  0  0  0  0  0  0  0  0  0  0  0
   40.6050   31.5570   39.4310 C   0  0  0  0  0  0  0  0  0  0  0  0
   40.6170   32.4630   40.4580 C   0  0  0  0  0  3  0  0  0  0  0  0
   41.8530   32.7790   41.0140 C   0  0  0  0  0  0  0  0  0  0  0  0
   41.8620   33.4990   41.8300 H   0  0  0  0  0  0  0  0  0  0  0  0
   42.9950   32.2230   40.5680 N   0  0  0  0  0  0  0  0  0  0  0  0
   42.9640   31.3350   39.5580 C   0  0  0  0  0  3  0  0  0  0  0  0
   41.7800   31.0350   39.0290 N   0  0  0  0  0  0  0  0  0  0  0  0
   37.9030   28.4670   41.1770 O   0  0  0  0  0  0  0  0  0  0  0  0
   39.3960   28.3250   43.3460 O   0  0  0  0  0  0  0  0  0  0  0  0
   37.9740   28.1280   42.7970 P   0  0  1  0  0  0  0  0  0  0  0  0
   36.9740   29.1480   43.6790 O   0  0  0  0  0  0  0  0  0  0  0  0
   36.1840   29.4350   43.1420 H   0  0  0  0  0  0  0  0  0  0  0  0
   37.5460   26.5070   43.0560 O   0  0  0  0  0  0  0  0  0  0  0  0
   37.1860   23.5650   40.9660 C   0  0  0  0  0  0  0  0  0  0  0  0
   36.9080   24.6320   41.8580 C   0  0  0  0  0  0  0  0  0  0  0  0
   37.9000   25.5080   42.1900 C   0  0  0  0  0  0  0  0  0  0  0  0
   39.1310   25.3340   41.6540 N   0  0  0  0  0  0  0  0  0  0  0  0
   39.3930   24.3210   40.8080 C   0  0  0  0  0  0  0  0  0  0  0  0
   38.4460   23.4420   40.4600 N   0  0  0  0  0  0  0  0  0  0  0  0
   36.4500   22.8340   40.6590 H   0  0  0  0  0  0  0  0  0  0  0  0
   35.8920   24.6070   42.1730 H   0  0  0  0  0  0  0  0  0  0  0  0
   40.3870   24.2180   40.4060 H   0  0  0  0  0  0  0  0  0  0  0  0
  1 24  1  0  0  0  0
  2  1  2  0  0  0  0
  3  4  1  0  0  0  0
  3  1  1  0  0  0  0
  4  9  1  0  0  0  0
  5 12  1  0  0  0  0
  5 11  1  0  0  0  0
  5  4  1  0  0  0  0
  6  5  1  0  0  0  0
  7 14  1  0  0  0  0
  7  6  1  0  0  0  0
  7  8  1  0  0  0  0
  8 16  1  6  0  0  0
  8 17  1  0  0  0  0
  8  3  1  0  0  0  0
 10  4  1  0  0  0  0
 13  6  1  0  0  0  0
 15  7  1  0  0  0  0
 17 18  1  0  0  0  0
 18 19  2  0  0  0  0
 19 20  1  0  0  0  0
 21 19  1  0  0  0  0
 22 21  2  0  0  0  0
 23 17  2  0  0  0  0
 23 22  1  0  0  0  0
 24 26  1  0  0  0  0
 26 29  1  0  0  0  0
 26 25  2  1  0  0  0
 26 27  1  0  0  0  0
 28 27  1  0  0  0  0
 30 31  1  0  0  0  0
 31 37  1  0  0  0  0
 31 32  2  0  0  0  0
 32 29  1  0  0  0  0
 33 32  1  0  0  0  0
 34 33  2  0  0  0  0
 35 34  1  0  0  0  0
 35 30  2  0  0  0  0
 36 30  1  0  0  0  0
 38 34  1  0  0  0  0
M  END
>  <minimizedAffinity>
-5.16803074

$$$$

 OpenBabel03242522553D

 38 40  0  0  1  0  0  0  0  0999 V2000
   38.6130   30.7780   39.2040 C   0  0  0  0  0  0  0  0  0  0  0  0
   39.2740   30.0640   38.3750 O   0  0  0  0  0  0  0  0  0  0  0  0
   39.6660   31.7300   39.1970 N   0  0  0  0  0  0  0  0  0  0  0  0
   39.6970   32.3890   40.4900 C   0  0  0  0  0  0  0  0  0  0  0  0
   40.7670   33.4570   40.3890 C   0  0  0  0  0  0  0  0  0  0  0  0
   40.6430   34.1610   39.1050 N   0  0  0  0  0  0  0  0  0  0  0  0
   41.2680   33.2950   38.1440 C   0  0  0  0  0  0  0  0  0  0  0  0
   40.5580   31.9960   38.0860 C   0  0  1  0  0  0  0  0  0  0  0  0
   40.0900   31.6540   41.2360 H   0  0  0  0  0  0  0  0  0  0  0  0
   38.7270   32.8350   40.7850 H   0  0  0  0  0  0  0  0  0  0  0  0
   41.7750   33.1000   40.5930 H   0  0  0  0  0  0  0  0  0  0  0  0
   40.5430   34.2200   41.1740 H   0  0  0  0  0  0  0  0  0  0  0  0
   41.1350   35.0740   39.2270 H   0  0  0  0  0  0  0  0  0  0  0  0
   42.3680   33.2200   38.2690 H   0  0  0  0  0  0  0  0  0  0  0  0
   41.1320   33.8040   37.1480 H   0  0  0  0  0  0  0  0  0  0  0  0
   39.9800   31.8540   37.1620 H   0  0  0  0  0  0  0  0  0  0  0  0
   41.5840   30.9040   38.1300 C   0  0  0  0  0  0  0  0  0  0  0  0
   42.2720   30.5030   39.2440 C   0  0  0  0  0  3  0  0  0  0  0  0
   43.1880   29.4680   39.0880 C   0  0  0  0  0  0  0  0  0  0  0  0
   43.7350   29.1500   39.9750 H   0  0  0  0  0  0  0  0  0  0  0  0
   43.3970   28.8780   37.8970 N   0  0  0  0  0  0  0  0  0  0  0  0
   42.7120   29.2850   36.8120 C   0  0  0  0  0  3  0  0  0  0  0  0
   41.8360   30.2750   36.9650 N   0  0  0  0  0  0  0  0  0  0  0  0
   37.4100   30.2310   39.5510 O   0  0  0  0  0  0  0  0  0  0  0  0
   37.8510   29.9760   42.1380 O   0  0  0  0  0  0  0  0  0  0  0  0
   36.7700   29.9190   41.0480 P   0  0  1  0  0  0  0  0  0  0  0  0
   35.6080   31.0570   41.4650 O   0  0  0  0  0  0  0  0  0  0  0  0
   35.1450   31.4150   40.6570 H   0  0  0  0  0  0  0  0  0  0  0  0
   36.1070   28.3580   41.0660 O   0  0  0  0  0  0  0  0  0  0  0  0
   37.9830   25.5140   42.3070 C   0  0  0  0  0  0  0  0  0  0  0  0
   37.1830   26.6840   42.2460 C   0  0  0  0  0  0  0  0  0  0  0  0
   36.8830   27.2310   41.0330 C   0  0  0  0  0  0  0  0  0  0  0  0
   37.3580   26.6380   39.9120 N   0  0  0  0  0  0  0  0  0  0  0  0
   38.1160   25.5280   39.9720 C   0  0  0  0  0  0  0  0  0  0  0  0
   38.4320   24.9630   41.1430 N   0  0  0  0  0  0  0  0  0  0  0  0
   38.2610   25.0260   43.2310 H   0  0  0  0  0  0  0  0  0  0  0  0
   36.9040   27.0020   43.2220 H   0  0  0  0  0  0  0  0  0  0  0  0
   38.4740   25.0900   39.0560 H   0  0  0  0  0  0  0  0  0  0  0  0
  1 24  1  0  0  0  0
  2  1  2  0  0  0  0
  3  1  1  0  0  0  0
  3  4  1  0  0  0  0
  4 10  1  0  0  0  0
  4  9  1  0  0  0  0
  5  4  1  0  0  0  0
  5 11  1  0  0  0  0
  5 12  1  0  0  0  0
  6 13  1  0  0  0  0
  6  5  1  0  0  0  0
  7 14  1  0  0  0  0
  7  6  1  0  0  0  0
  8 16  1  6  0  0  0
  8 17  1  0  0  0  0
  8  7  1  0  0  0  0
  8  3  1  0  0  0  0
 15  7  1  0  0  0  0
 17 18  1  0  0  0  0
 19 18  2  0  0  0  0
 19 20  1  0  0  0  0
 21 19  1  0  0  0  0
 22 23  1  0  0  0  0
 22 21  2  0  0  0  0
 23 17  2  0  0  0  0
 24 26  1  0  0  0  0
 26 29  1  0  0  0  0
 26 27  1  0  0  0  0
 26 25  2  1  0  0  0
 28 27  1  0  0  0  0
 30 36  1  0  0  0  0
 31 30  1  0  0  0  0
 31 37  1  0  0  0  0
 32 29  1  0  0  0  0
 32 31  2  0  0  0  0
 33 34  2  0  0  0  0
 33 32  1  0  0  0  0
 34 35  1  0  0  0  0
 35 30  2  0  0  0  0
 38 34  1  0  0  0  0
M  END
>  <minimizedAffinity>
-5.15843487

$$$$
