
 OpenBabel03242516523D

 43 46  0  0  1  0  0  0  0  0999 V2000
   47.8340   32.8940   41.8170 C   0  0  1  0  0  0  0  0  0  0  0  0
   47.5280   32.2810   40.5250 C   0  0  0  0  0  0  0  0  0  0  0  0
   48.5520   32.8270   39.5360 C   0  0  0  0  0  0  0  0  0  0  0  0
   48.2160   34.2790   39.3210 C   0  0  0  0  0  0  0  0  0  0  0  0
   48.1400   35.0790   40.5860 C   0  0  0  0  0  0  0  0  0  0  0  0
   47.6330   34.4130   41.7950 C   0  0  1  0  0  0  0  0  0  0  0  0
   48.9500   32.8070   41.9990 H   0  0  0  0  0  0  0  0  0  0  0  0
   46.5320   32.4840   40.1390 H   0  0  0  0  0  0  0  0  0  0  0  0
   47.6430   31.1690   40.6340 H   0  0  0  0  0  0  0  0  0  0  0  0
   49.5890   32.7000   39.8860 H   0  0  0  0  0  0  0  0  0  0  0  0
   48.3400   32.3240   38.5570 H   0  0  0  0  0  0  0  0  0  0  0  0
   47.2680   34.3420   38.7180 H   0  0  0  0  0  0  0  0  0  0  0  0
   49.0110   34.6870   38.6590 H   0  0  0  0  0  0  0  0  0  0  0  0
   49.1640   35.5210   40.7510 H   0  0  0  0  0  0  0  0  0  0  0  0
   47.5090   35.9740   40.3650 H   0  0  0  0  0  0  0  0  0  0  0  0
   48.2210   34.7870   42.6770 H   0  0  0  0  0  0  0  0  0  0  0  0
   45.3940   30.9140   43.9090 C   0  0  0  0  0  0  0  0  0  0  0  0
   46.0790   31.4840   42.8340 C   0  0  0  0  0  0  0  0  0  0  0  0
   47.1770   32.3350   42.9800 C   0  0  0  0  0  0  0  0  0  0  0  0
   47.5500   32.5840   44.2360 N   0  0  0  0  0  0  0  0  0  0  0  0
   46.8930   32.0340   45.2900 C   0  0  0  0  0  0  0  0  0  0  0  0
   45.8450   31.2220   45.1430 N   0  0  0  0  0  0  0  0  0  0  0  0
   44.5640   30.2710   43.7520 H   0  0  0  0  0  0  0  0  0  0  0  0
   45.7300   31.2490   41.8170 H   0  0  0  0  0  0  0  0  0  0  0  0
   47.2590   32.2860   46.2770 H   0  0  0  0  0  0  0  0  0  0  0  0
   46.2460   34.7760   42.0980 C   0  0  0  0  0  0  0  0  0  0  0  0
   45.7860   35.3300   43.2950 C   0  0  0  0  0  0  0  0  0  0  0  0
   44.4180   35.6110   43.3560 C   0  0  0  0  0  0  0  0  0  0  0  0
   43.6480   35.3210   42.2420 C   0  0  0  0  0  0  0  0  0  0  0  0
   44.1220   34.7700   41.0610 C   0  0  0  0  0  0  0  0  0  0  0  0
   45.4600   34.5070   41.0320 N   0  0  0  0  0  0  0  0  0  0  0  0
   46.5090   35.4920   44.0600 H   0  0  0  0  0  0  0  0  0  0  0  0
   44.0500   36.0310   44.2590 H   0  0  0  0  0  0  0  0  0  0  0  0
   42.5920   35.5580   42.3410 H   0  0  0  0  0  0  0  0  0  0  0  0
   43.2170   34.5110   39.9480 C   0  0  0  0  0  0  0  0  0  0  0  0
   42.3620   35.4140   39.6780 O   0  0  0  0  0  0  0  0  0  0  0  0
   43.1660   33.3320   39.0930 C   0  0  0  0  0  0  0  0  0  0  0  0
   44.2380   33.0910   38.2630 C   0  0  0  0  0  3  0  0  0  0  0  0
   44.2210   31.9710   37.4250 C   0  0  0  0  0  0  0  0  0  0  0  0
   45.0520   31.7590   36.7630 H   0  0  0  0  0  0  0  0  0  0  0  0
   43.1440   31.1400   37.4470 N   0  0  0  0  0  0  0  0  0  0  0  0
   42.1110   31.3700   38.2460 C   0  0  0  0  0  3  0  0  0  0  0  0
   42.1650   32.4400   39.0210 N   0  0  0  0  0  0  0  0  0  0  0  0
  1  7  1  1  0  0  0
  1 19  1  0  0  0  0
  2  9  1  0  0  0  0
  2  1  1  0  0  0  0
  3 10  1  0  0  0  0
  3  2  1  0  0  0  0
  4  3  1  0  0  0  0
  4  5  1  0  0  0  0
  5 14  1  0  0  0  0
  5  6  1  0  0  0  0
  6  1  1  0  0  0  0
  6 26  1  0  0  0  0
  6 16  1  1  0  0  0
  8  2  1  0  0  0  0
 11  3  1  0  0  0  0
 12  4  1  0  0  0  0
 13  4  1  0  0  0  0
 15  5  1  0  0  0  0
 17 22  1  0  0  0  0
 18 19  1  0  0  0  0
 18 17  2  0  0  0  0
 19 20  2  0  0  0  0
 20 21  1  0  0  0  0
 21 25  1  0  0  0  0
 22 21  2  0  0  0  0
 23 17  1  0  0  0  0
 24 18  1  0  0  0  0
 26 27  1  0  0  0  0
 27 28  2  0  0  0  0
 27 32  1  0  0  0  0
 28 33  1  0  0  0  0
 29 34  1  0  0  0  0
 29 28  1  0  0  0  0
 30 29  2  0  0  0  0
 31 30  1  0  0  0  0
 31 26  2  0  0  0  0
 35 30  1  0  0  0  0
 36 35  2  0  0  0  0
 37 35  1  0  0  0  0
 38 37  2  0  0  0  0
 39 41  2  0  0  0  0
 39 38  1  0  0  0  0
 40 39  1  0  0  0  0
 41 42  1  0  0  0  0
 42 43  2  0  0  0  0
 43 37  1  0  0  0  0
M  END
>  <minimizedAffinity>
-5.31879759

>  <minimizedRMSD>
0.375447512

$$$$
