
 OpenBabel03242510093D

 26 28  0  0  0  0  0  0  0  0999 V2000
   44.7510   33.0060   41.1640 Br  0  0  0  0  0  0  0  0  0  0  0  0
   46.4120   33.9460   40.9100 C   0  0  0  0  0  0  0  0  0  0  0  0
   46.8890   34.7470   41.9160 C   0  0  0  0  0  0  0  0  0  0  0  0
   48.0970   35.4390   41.7470 C   0  0  0  0  0  0  0  0  0  0  0  0
   48.7760   35.2940   40.5710 C   0  0  0  0  0  0  0  0  0  0  0  0
   48.2540   34.4820   39.6010 C   0  0  0  0  0  0  0  0  0  0  0  0
   47.0960   33.8030   39.7300 C   0  0  0  0  0  0  0  0  0  0  0  0
   48.4290   36.0650   42.5850 H   0  0  0  0  0  0  0  0  0  0  0  0
   49.7090   35.8240   40.4300 H   0  0  0  0  0  0  0  0  0  0  0  0
   48.8220   34.3970   38.6880 H   0  0  0  0  0  0  0  0  0  0  0  0
   45.6350   34.0470   45.2700 C   0  0  0  0  0  0  0  0  0  0  0  0
   44.7120   35.0850   45.5080 C   0  0  0  0  0  0  0  0  0  0  0  0
   44.5350   36.0280   44.4830 C   0  0  0  0  0  0  0  0  0  0  0  0
   45.2550   35.8830   43.3440 N   0  0  0  0  0  0  0  0  0  0  0  0
   46.1360   34.8710   43.1480 C   0  0  0  0  0  0  0  0  0  0  0  0
   46.3200   33.9510   44.1290 N   0  0  0  0  0  0  0  0  0  0  0  0
   45.7900   33.3150   46.0340 H   0  0  0  0  0  0  0  0  0  0  0  0
   44.1820   35.1220   46.4470 H   0  0  0  0  0  0  0  0  0  0  0  0
   43.8340   36.8310   44.6390 H   0  0  0  0  0  0  0  0  0  0  0  0
   46.5190   32.9310   38.7100 C   0  0  0  0  0  0  0  0  0  0  0  0
   45.7590   33.3980   37.6580 C   0  0  0  0  0  3  0  0  0  0  0  0
   45.2320   32.5470   36.7170 C   0  0  0  0  0  0  0  0  0  0  0  0
   44.6380   32.9020   35.8930 H   0  0  0  0  0  0  0  0  0  0  0  0
   45.4280   31.2380   36.7750 N   0  0  0  0  0  0  0  0  0  0  0  0
   46.1710   30.7620   37.8000 C   0  0  0  0  0  3  0  0  0  0  0  0
   46.6910   31.5920   38.7260 N   0  0  0  0  0  0  0  0  0  0  0  0
  2  1  1  0  0  0  0
  2  3  1  0  0  0  0
  3 15  1  0  0  0  0
  4  3  2  0  0  0  0
  4  8  1  0  0  0  0
  5  4  1  0  0  0  0
  6  7  1  0  0  0  0
  6  5  2  0  0  0  0
  7  2  2  0  0  0  0
  9  5  1  0  0  0  0
 10  6  1  0  0  0  0
 11 12  1  0  0  0  0
 11 17  1  0  0  0  0
 12 18  1  0  0  0  0
 13 19  1  0  0  0  0
 13 12  2  0  0  0  0
 14 13  1  0  0  0  0
 15 14  2  0  0  0  0
 15 16  1  0  0  0  0
 16 11  2  0  0  0  0
 20 26  1  0  0  0  0
 20  7  1  0  0  0  0
 21 20  2  0  0  0  0
 22 24  2  0  0  0  0
 22 21  1  0  0  0  0
 23 22  1  0  0  0  0
 24 25  1  0  0  0  0
 25 26  2  0  0  0  0
M  END
>  <minimizedAffinity>
-5.36407328

>  <minimizedRMSD>
0.222094581

$$$$
