
 OpenBabel03252508323D

 30 32  0  0  1  0  0  0  0  0999 V2000
   44.4060   34.4030   41.9510 N   0  0  0  0  0  0  0  0  0  0  0  0
   44.7670   33.4010   41.0180 C   0  0  1  0  0  0  0  0  0  0  0  0
   44.2490   33.5720   39.6420 C   0  0  0  0  0  0  0  0  0  0  0  0
   43.0220   34.2260   39.4720 N   0  0  0  0  0  0  0  0  0  0  0  0
   42.5990   35.1210   40.4630 C   0  0  0  0  0  0  0  0  0  0  0  0
   43.7400   35.5250   41.3690 C   0  0  0  0  0  0  0  0  0  0  0  0
   44.4180   32.4140   41.4170 H   0  0  0  0  0  0  0  0  0  0  0  0
   45.0230   34.1260   39.0280 H   0  0  0  0  0  0  0  0  0  0  0  0
   44.2080   32.5680   39.1420 H   0  0  0  0  0  0  0  0  0  0  0  0
   42.9830   34.6730   38.5270 H   0  0  0  0  0  0  0  0  0  0  0  0
   41.7780   34.6360   41.0490 H   0  0  0  0  0  0  0  0  0  0  0  0
   42.1660   36.0640   40.0400 H   0  0  0  0  0  0  0  0  0  0  0  0
   43.4370   36.3280   42.0430 H   0  0  0  0  0  0  0  0  0  0  0  0
   44.4770   36.0240   40.6620 H   0  0  0  0  0  0  0  0  0  0  0  0
   44.4880   35.3170   44.1520 C   0  0  0  0  0  0  0  0  0  0  0  0
   44.7310   34.2400   43.3060 C   0  0  0  0  0  0  0  0  0  0  0  0
   45.3010   33.0850   43.8600 C   0  0  0  0  0  0  0  0  0  0  0  0
   45.6020   33.0350   45.1870 N   0  0  0  0  0  0  0  0  0  0  0  0
   45.3480   34.1130   45.9810 C   0  0  0  0  0  0  0  0  0  0  0  0
   44.8010   35.2330   45.4720 N   0  0  0  0  0  0  0  0  0  0  0  0
   44.0620   36.2810   43.9300 H   0  0  0  0  0  0  0  0  0  0  0  0
   45.4880   32.2510   43.2360 H   0  0  0  0  0  0  0  0  0  0  0  0
   45.6140   34.0080   47.0340 H   0  0  0  0  0  0  0  0  0  0  0  0
   46.2670   33.2680   40.8800 C   0  0  0  0  0  0  0  0  0  0  0  0
   47.0760   32.1540   40.8420 C   0  0  0  0  0  3  0  0  0  0  0  0
   48.4290   32.3370   40.7070 C   0  0  0  0  0  0  0  0  0  0  0  0
   48.9900   31.4080   40.6870 H   0  0  0  0  0  0  0  0  0  0  0  0
   48.9430   33.5770   40.6140 N   0  0  0  0  0  0  0  0  0  0  0  0
   48.1530   34.6410   40.6520 C   0  0  0  0  0  3  0  0  0  0  0  0
   46.8110   34.5140   40.7840 N   0  0  0  0  0  0  0  0  0  0  0  0
  1 16  1  0  0  0  0
  2  7  1  1  0  0  0
  2  1  1  0  0  0  0
  3  2  1  0  0  0  0
  4  3  1  0  0  0  0
  4  5  1  0  0  0  0
  5 11  1  0  0  0  0
  5  6  1  0  0  0  0
  6  1  1  0  0  0  0
  6 13  1  0  0  0  0
  8  3  1  0  0  0  0
  9  3  1  0  0  0  0
 10  4  1  0  0  0  0
 12  5  1  0  0  0  0
 14  6  1  0  0  0  0
 15 20  1  0  0  0  0
 16 17  1  0  0  0  0
 16 15  2  0  0  0  0
 17 18  2  0  0  0  0
 18 19  1  0  0  0  0
 19 23  1  0  0  0  0
 20 19  2  0  0  0  0
 21 15  1  0  0  0  0
 22 17  1  0  0  0  0
 24  2  1  0  0  0  0
 25 24  1  0  0  0  0
 26 25  2  0  0  0  0
 27 26  1  0  0  0  0
 28 29  2  0  0  0  0
 28 26  1  0  0  0  0
 29 30  1  0  0  0  0
 30 24  2  0  0  0  0
M  END
>  <minimizedAffinity>
-4.25210238

>  <minimizedRMSD>
0.537664175

$$$$
