
 OpenBabel03252508323D

 30 32  0  0  1  0  0  0  0  0999 V2000
   44.0150   34.2180   41.8130 N   0  0  0  0  0  0  0  0  0  0  0  0
   44.4130   33.5010   40.6580 C   0  0  1  0  0  0  0  0  0  0  0  0
   43.6190   33.7430   39.4330 C   0  0  0  0  0  0  0  0  0  0  0  0
   42.2650   34.0740   39.5740 N   0  0  0  0  0  0  0  0  0  0  0  0
   41.8430   34.6640   40.7720 C   0  0  0  0  0  0  0  0  0  0  0  0
   43.0110   35.2050   41.5650 C   0  0  0  0  0  0  0  0  0  0  0  0
   44.3820   32.4090   40.9010 H   0  0  0  0  0  0  0  0  0  0  0  0
   44.1150   34.5670   38.8350 H   0  0  0  0  0  0  0  0  0  0  0  0
   43.7150   32.8520   38.7560 H   0  0  0  0  0  0  0  0  0  0  0  0
   41.9470   34.6360   38.7510 H   0  0  0  0  0  0  0  0  0  0  0  0
   41.2810   33.8980   41.3640 H   0  0  0  0  0  0  0  0  0  0  0  0
   41.1340   35.5150   40.6110 H   0  0  0  0  0  0  0  0  0  0  0  0
   42.6650   35.7880   42.4210 H   0  0  0  0  0  0  0  0  0  0  0  0
   43.4660   35.9810   40.8710 H   0  0  0  0  0  0  0  0  0  0  0  0
   44.7420   34.9900   43.9480 C   0  0  0  0  0  0  0  0  0  0  0  0
   44.6180   33.9370   43.0480 C   0  0  0  0  0  0  0  0  0  0  0  0
   45.1230   32.6850   43.4260 C   0  0  0  0  0  0  0  0  0  0  0  0
   45.7140   32.5220   44.6410 N   0  0  0  0  0  0  0  0  0  0  0  0
   45.8160   33.5790   45.4950 C   0  0  0  0  0  0  0  0  0  0  0  0
   45.3390   34.7910   45.1530 N   0  0  0  0  0  0  0  0  0  0  0  0
   44.4260   36.0150   43.8540 H   0  0  0  0  0  0  0  0  0  0  0  0
   45.0330   31.8690   42.7590 H   0  0  0  0  0  0  0  0  0  0  0  0
   46.3020   33.3810   46.4510 H   0  0  0  0  0  0  0  0  0  0  0  0
   45.8490   33.7850   40.2820 C   0  0  0  0  0  0  0  0  0  0  0  0
   46.8320   34.4960   40.9330 C   0  0  0  0  0  3  0  0  0  0  0  0
   48.0670   34.5900   40.3430 C   0  0  0  0  0  0  0  0  0  0  0  0
   48.7800   35.1670   40.9240 H   0  0  0  0  0  0  0  0  0  0  0  0
   48.3040   33.9980   39.1580 N   0  0  0  0  0  0  0  0  0  0  0  0
   47.3490   33.3150   38.5410 C   0  0  0  0  0  3  0  0  0  0  0  0
   46.1130   33.1940   39.0810 N   0  0  0  0  0  0  0  0  0  0  0  0
  1 16  1  0  0  0  0
  2  7  1  1  0  0  0
  2  1  1  0  0  0  0
  3  4  1  0  0  0  0
  3  2  1  0  0  0  0
  4  5  1  0  0  0  0
  5 11  1  0  0  0  0
  5  6  1  0  0  0  0
  6  1  1  0  0  0  0
  6 13  1  0  0  0  0
  8  3  1  0  0  0  0
  9  3  1  0  0  0  0
 10  4  1  0  0  0  0
 12  5  1  0  0  0  0
 14  6  1  0  0  0  0
 15 20  1  0  0  0  0
 16 17  1  0  0  0  0
 16 15  2  0  0  0  0
 17 18  2  0  0  0  0
 18 19  1  0  0  0  0
 19 23  1  0  0  0  0
 20 19  2  0  0  0  0
 21 15  1  0  0  0  0
 22 17  1  0  0  0  0
 24  2  1  0  0  0  0
 24 25  1  0  0  0  0
 26 27  1  0  0  0  0
 26 25  2  0  0  0  0
 28 26  1  0  0  0  0
 29 30  1  0  0  0  0
 29 28  2  0  0  0  0
 30 24  2  0  0  0  0
M  END
>  <minimizedAffinity>
-4.30346727

>  <minimizedRMSD>
0.780896366

$$$$
