
 OpenBabel03242516523D

 43 46  0  0  1  0  0  0  0  0999 V2000
   47.8320   32.8870   41.8180 C   0  0  1  0  0  0  0  0  0  0  0  0
   47.5150   32.2300   40.5500 C   0  0  0  0  0  0  0  0  0  0  0  0
   48.5250   32.7490   39.5320 C   0  0  0  0  0  0  0  0  0  0  0  0
   48.1760   34.1910   39.2730 C   0  0  0  0  0  0  0  0  0  0  0  0
   48.1080   35.0310   40.5110 C   0  0  0  0  0  0  0  0  0  0  0  0
   47.6190   34.4030   41.7480 C   0  0  1  0  0  0  0  0  0  0  0  0
   48.9500   32.8130   41.9900 H   0  0  0  0  0  0  0  0  0  0  0  0
   46.5140   32.4130   40.1690 H   0  0  0  0  0  0  0  0  0  0  0  0
   47.6390   31.1220   40.6940 H   0  0  0  0  0  0  0  0  0  0  0  0
   49.5670   32.6400   39.8740 H   0  0  0  0  0  0  0  0  0  0  0  0
   48.3060   32.2130   38.5730 H   0  0  0  0  0  0  0  0  0  0  0  0
   47.2210   34.2270   38.6790 H   0  0  0  0  0  0  0  0  0  0  0  0
   48.9610   34.5820   38.5890 H   0  0  0  0  0  0  0  0  0  0  0  0
   49.1310   35.4860   40.6500 H   0  0  0  0  0  0  0  0  0  0  0  0
   47.4680   35.9150   40.2680 H   0  0  0  0  0  0  0  0  0  0  0  0
   48.2140   34.8100   42.6100 H   0  0  0  0  0  0  0  0  0  0  0  0
   45.4250   30.9650   44.0010 C   0  0  0  0  0  0  0  0  0  0  0  0
   46.0940   31.5040   42.9000 C   0  0  0  0  0  0  0  0  0  0  0  0
   47.1910   32.3620   43.0050 C   0  0  0  0  0  0  0  0  0  0  0  0
   47.5800   32.6510   44.2480 N   0  0  0  0  0  0  0  0  0  0  0  0
   46.9380   32.1320   45.3270 C   0  0  0  0  0  0  0  0  0  0  0  0
   45.8910   31.3130   45.2190 N   0  0  0  0  0  0  0  0  0  0  0  0
   44.5950   30.3150   43.8750 H   0  0  0  0  0  0  0  0  0  0  0  0
   45.7340   31.2360   41.8960 H   0  0  0  0  0  0  0  0  0  0  0  0
   47.3150   32.4150   46.3010 H   0  0  0  0  0  0  0  0  0  0  0  0
   46.2340   34.7660   42.0540 C   0  0  0  0  0  0  0  0  0  0  0  0
   45.7830   35.3590   43.2360 C   0  0  0  0  0  0  0  0  0  0  0  0
   44.4140   35.6320   43.3030 C   0  0  0  0  0  0  0  0  0  0  0  0
   43.6330   35.2970   42.2090 C   0  0  0  0  0  0  0  0  0  0  0  0
   44.0970   34.7080   41.0420 C   0  0  0  0  0  0  0  0  0  0  0  0
   45.4370   34.4540   41.0070 N   0  0  0  0  0  0  0  0  0  0  0  0
   46.5130   35.5530   43.9860 H   0  0  0  0  0  0  0  0  0  0  0  0
   44.0530   36.0820   44.1940 H   0  0  0  0  0  0  0  0  0  0  0  0
   42.5760   35.5300   42.3120 H   0  0  0  0  0  0  0  0  0  0  0  0
   43.1810   34.4030   39.9500 C   0  0  0  0  0  0  0  0  0  0  0  0
   42.6020   35.3880   39.3920 O   0  0  0  0  0  0  0  0  0  0  0  0
   42.8400   33.0930   39.4090 C   0  0  0  0  0  0  0  0  0  0  0  0
   43.1660   31.9830   40.1550 C   0  0  0  0  0  3  0  0  0  0  0  0
   42.8580   30.7090   39.6650 C   0  0  0  0  0  0  0  0  0  0  0  0
   43.1040   29.8190   40.2320 H   0  0  0  0  0  0  0  0  0  0  0  0
   42.2380   30.5920   38.4590 N   0  0  0  0  0  0  0  0  0  0  0  0
   41.9230   31.6610   37.7400 C   0  0  0  0  0  3  0  0  0  0  0  0
   42.2330   32.8450   38.2380 N   0  0  0  0  0  0  0  0  0  0  0  0
  1  7  1  1  0  0  0
  1 19  1  0  0  0  0
  2  9  1  0  0  0  0
  2  1  1  0  0  0  0
  3 10  1  0  0  0  0
  3  2  1  0  0  0  0
  4  3  1  0  0  0  0
  4  5  1  0  0  0  0
  5 14  1  0  0  0  0
  5  6  1  0  0  0  0
  6  1  1  0  0  0  0
  6 26  1  0  0  0  0
  6 16  1  1  0  0  0
  8  2  1  0  0  0  0
 11  3  1  0  0  0  0
 12  4  1  0  0  0  0
 13  4  1  0  0  0  0
 15  5  1  0  0  0  0
 17 22  1  0  0  0  0
 18 19  1  0  0  0  0
 18 17  2  0  0  0  0
 19 20  2  0  0  0  0
 20 21  1  0  0  0  0
 21 25  1  0  0  0  0
 22 21  2  0  0  0  0
 23 17  1  0  0  0  0
 24 18  1  0  0  0  0
 26 27  1  0  0  0  0
 27 28  2  0  0  0  0
 27 32  1  0  0  0  0
 28 33  1  0  0  0  0
 29 34  1  0  0  0  0
 29 28  1  0  0  0  0
 30 29  2  0  0  0  0
 31 30  1  0  0  0  0
 31 26  2  0  0  0  0
 35 30  1  0  0  0  0
 36 35  2  0  0  0  0
 37 35  1  0  0  0  0
 37 38  1  0  0  0  0
 39 38  2  0  0  0  0
 39 40  1  0  0  0  0
 41 39  1  0  0  0  0
 42 43  1  0  0  0  0
 42 41  2  0  0  0  0
 43 37  2  0  0  0  0
M  END
>  <minimizedAffinity>
-5.19707632

>  <minimizedRMSD>
0.4277623

$$$$
