
 OpenBabel03252506183D

 21 22  0  0  0  0  0  0  0  0999 V2000
   45.0650   34.7600   44.4510 C   0  0  0  0  0  0  0  0  0  0  0  0
   44.9560   34.0330   43.2510 C   0  0  0  0  0  0  0  0  0  0  0  0
   45.2530   32.6580   43.2840 C   0  0  0  0  0  0  0  0  0  0  0  0
   45.6280   32.1150   44.4700 N   0  0  0  0  0  0  0  0  0  0  0  0
   45.7260   32.8510   45.6180 C   0  0  0  0  0  0  0  0  0  0  0  0
   45.4380   34.1710   45.5800 N   0  0  0  0  0  0  0  0  0  0  0  0
   44.6510   34.5170   42.3290 H   0  0  0  0  0  0  0  0  0  0  0  0
   45.1830   32.0630   42.3910 H   0  0  0  0  0  0  0  0  0  0  0  0
   46.1310   32.2440   46.8800 C   0  0  0  0  0  0  0  0  0  0  0  0
   45.2900   32.3680   47.9780 C   0  0  0  0  0  3  0  0  0  0  0  0
   45.6740   31.7910   49.1820 C   0  0  0  0  0  0  0  0  0  0  0  0
   45.0260   31.8800   50.0470 H   0  0  0  0  0  0  0  0  0  0  0  0
   46.8480   31.1470   49.1940 N   0  0  0  0  0  0  0  0  0  0  0  0
   47.6740   31.0120   48.1630 C   0  0  0  0  0  3  0  0  0  0  0  0
   47.3090   31.5730   46.9750 N   0  0  0  0  0  0  0  0  0  0  0  0
   44.7540   36.1820   44.4130 C   0  0  0  0  0  3  0  0  0  0  0  0
   45.3390   36.9510   43.5190 C   0  0  0  0  0  3  0  0  0  0  0  0
   45.0760   38.4040   43.4160 C   0  0  0  0  0  0  0  0  0  0  0  0
   44.6780   38.8170   44.3520 H   0  0  0  0  0  0  0  0  0  0  0  0
   44.3160   38.5640   42.6420 H   0  0  0  0  0  0  0  0  0  0  0  0
   46.0230   38.9610   43.2070 H   0  0  0  0  0  0  0  0  0  0  0  0
  1  6  1  0  0  0  0
  2  3  1  0  0  0  0
  2  1  2  0  0  0  0
  3  4  2  0  0  0  0
  4  5  1  0  0  0  0
  5  9  1  0  0  0  0
  6  5  2  0  0  0  0
  7  2  1  0  0  0  0
  8  3  1  0  0  0  0
  9 15  2  0  0  0  0
  9 10  1  0  0  0  0
 10 11  2  0  0  0  0
 11 13  1  0  0  0  0
 11 12  1  0  0  0  0
 14 13  2  0  0  0  0
 15 14  1  0  0  0  0
 16  1  1  0  0  0  0
 17 16  2  0  0  0  0
 18 17  1  0  0  0  0
 18 19  1  0  0  0  0
 20 18  1  0  0  0  0
 21 18  1  0  0  0  0
M  END
>  <minimizedAffinity>
-3.99136424

>  <minimizedRMSD>
2.53097606

$$$$
