
 OpenBabel03242516513D

 41 44  0  0  1  0  0  0  0  0999 V2000
   36.6180   30.5520   39.2160 C   0  0  1  0  0  0  0  0  0  0  0  0
   36.8020   29.6350   38.0730 C   0  0  0  0  0  0  0  0  0  0  0  0
   35.4000   29.3780   37.5190 C   0  0  0  0  0  0  0  0  0  0  0  0
   34.6680   28.5440   38.5530 C   0  0  0  0  0  0  0  0  0  0  0  0
   34.6540   29.1440   39.9240 C   0  0  0  0  0  0  0  0  0  0  0  0
   35.8300   29.9170   40.3420 C   0  0  1  0  0  0  0  0  0  0  0  0
   35.9550   31.4060   38.8820 H   0  0  0  0  0  0  0  0  0  0  0  0
   37.2600   28.6780   38.3690 H   0  0  0  0  0  0  0  0  0  0  0  0
   37.4500   30.1320   37.3210 H   0  0  0  0  0  0  0  0  0  0  0  0
   34.9060   30.3210   37.2870 H   0  0  0  0  0  0  0  0  0  0  0  0
   35.5350   28.7070   36.6380 H   0  0  0  0  0  0  0  0  0  0  0  0
   35.1180   27.5270   38.5220 H   0  0  0  0  0  0  0  0  0  0  0  0
   33.6240   28.4250   38.1750 H   0  0  0  0  0  0  0  0  0  0  0  0
   33.7180   29.7500   40.0080 H   0  0  0  0  0  0  0  0  0  0  0  0
   34.4940   28.3070   40.6530 H   0  0  0  0  0  0  0  0  0  0  0  0
   35.4750   30.7950   40.9640 H   0  0  0  0  0  0  0  0  0  0  0  0
   38.9120   33.0370   40.9000 C   0  0  0  0  0  0  0  0  0  0  0  0
   37.7870   32.3930   40.3900 C   0  0  0  0  0  0  0  0  0  0  0  0
   37.8320   31.1700   39.7350 C   0  0  0  0  0  0  0  0  0  0  0  0
   39.0520   30.6230   39.6120 N   0  0  0  0  0  0  0  0  0  0  0  0
   40.1580   31.2350   40.1010 C   0  0  0  0  0  0  0  0  0  0  0  0
   40.1050   32.4040   40.7280 N   0  0  0  0  0  0  0  0  0  0  0  0
   38.8320   33.9820   41.4020 H   0  0  0  0  0  0  0  0  0  0  0  0
   36.8580   32.9150   40.5410 H   0  0  0  0  0  0  0  0  0  0  0  0
   41.0750   30.6660   39.9240 H   0  0  0  0  0  0  0  0  0  0  0  0
   36.7120   29.1740   41.2610 C   0  0  0  0  0  0  0  0  0  0  0  0
   37.2830   29.6530   42.4450 C   0  0  0  0  0  0  0  0  0  0  0  0
   38.0690   28.7370   43.1560 C   0  0  0  0  0  0  0  0  0  0  0  0
   38.2140   27.4670   42.6430 C   0  0  0  0  0  0  0  0  0  0  0  0
   37.6470   27.0140   41.4790 C   0  0  0  0  0  0  0  0  0  0  0  0
   36.8870   27.9010   40.7930 N   0  0  0  0  0  0  0  0  0  0  0  0
   37.0570   30.6650   42.6800 H   0  0  0  0  0  0  0  0  0  0  0  0
   38.4950   29.1150   44.0520 H   0  0  0  0  0  0  0  0  0  0  0  0
   38.8470   26.8410   43.2810 H   0  0  0  0  0  0  0  0  0  0  0  0
   37.8750   25.6360   41.0340 C   0  0  0  0  0  0  0  0  0  0  0  0
   37.0490   24.6120   41.3930 C   0  0  0  0  0  3  0  0  0  0  0  0
   37.4090   23.3810   40.8880 C   0  0  0  0  0  0  0  0  0  0  0  0
   36.8230   22.5000   41.1090 H   0  0  0  0  0  0  0  0  0  0  0  0
   38.4770   23.1530   40.1030 N   0  0  0  0  0  0  0  0  0  0  0  0
   39.2700   24.2080   39.7730 C   0  0  0  0  0  3  0  0  0  0  0  0
   38.9510   25.4410   40.2500 N   0  0  0  0  0  0  0  0  0  0  0  0
  1  7  1  6  0  0  0
  1 19  1  0  0  0  0
  1  6  1  0  0  0  0
  2  8  1  0  0  0  0
  2  1  1  0  0  0  0
  3  2  1  0  0  0  0
  3  4  1  0  0  0  0
  4  5  1  0  0  0  0
  5 14  1  0  0  0  0
  5  6  1  0  0  0  0
  5 15  1  0  0  0  0
  6 16  1  1  0  0  0
  6 26  1  0  0  0  0
  9  2  1  0  0  0  0
 10  3  1  0  0  0  0
 11  3  1  0  0  0  0
 12  4  1  0  0  0  0
 13  4  1  0  0  0  0
 17 23  1  0  0  0  0
 18 24  1  0  0  0  0
 18 17  2  0  0  0  0
 19 18  1  0  0  0  0
 20 19  2  0  0  0  0
 20 21  1  0  0  0  0
 21 22  2  0  0  0  0
 22 17  1  0  0  0  0
 25 21  1  0  0  0  0
 26 27  1  0  0  0  0
 27 32  1  0  0  0  0
 27 28  2  0  0  0  0
 28 33  1  0  0  0  0
 29 28  1  0  0  0  0
 29 34  1  0  0  0  0
 30 29  2  0  0  0  0
 31 26  2  0  0  0  0
 31 30  1  0  0  0  0
 35 36  1  0  0  0  0
 35 30  1  0  0  0  0
 37 38  1  0  0  0  0
 37 36  2  0  0  0  0
 39 37  1  0  0  0  0
 40 39  2  0  0  0  0
 40 41  1  0  0  0  0
 41 35  2  0  0  0  0
M  END
>  <minimizedAffinity>
-6.13009453

$$$$

 OpenBabel03242516513D

 41 44  0  0  1  0  0  0  0  0999 V2000
   38.9170   24.8510   40.9310 C   0  0  1  0  0  0  0  0  0  0  0  0
   38.3080   23.7260   41.6670 C   0  0  0  0  0  0  0  0  0  0  0  0
   37.4570   22.9730   40.6430 C   0  0  0  0  0  0  0  0  0  0  0  0
   36.2850   23.8740   40.3030 C   0  0  0  0  0  0  0  0  0  0  0  0
   36.6800   25.2420   39.8430 C   0  0  0  0  0  0  0  0  0  0  0  0
   37.8830   25.8400   40.4330 C   0  0  1  0  0  0  0  0  0  0  0  0
   39.3710   24.4460   39.9760 H   0  0  0  0  0  0  0  0  0  0  0  0
   37.6680   24.0620   42.4980 H   0  0  0  0  0  0  0  0  0  0  0  0
   39.1200   23.0840   42.0680 H   0  0  0  0  0  0  0  0  0  0  0  0
   38.0600   22.6950   39.7800 H   0  0  0  0  0  0  0  0  0  0  0  0
   37.0160   22.1060   41.1880 H   0  0  0  0  0  0  0  0  0  0  0  0
   35.6190   23.8850   41.1940 H   0  0  0  0  0  0  0  0  0  0  0  0
   35.7120   23.3490   39.5010 H   0  0  0  0  0  0  0  0  0  0  0  0
   36.7480   25.2070   38.7270 H   0  0  0  0  0  0  0  0  0  0  0  0
   35.8080   25.9220   40.0330 H   0  0  0  0  0  0  0  0  0  0  0  0
   38.4220   26.4260   39.6260 H   0  0  0  0  0  0  0  0  0  0  0  0
   41.2720   25.9530   43.6710 C   0  0  0  0  0  0  0  0  0  0  0  0
   40.2610   25.3110   42.9590 C   0  0  0  0  0  0  0  0  0  0  0  0
   39.9950   25.5510   41.6180 C   0  0  0  0  0  0  0  0  0  0  0  0
   40.7840   26.4610   41.0240 N   0  0  0  0  0  0  0  0  0  0  0  0
   41.7710   27.0950   41.7010 C   0  0  0  0  0  0  0  0  0  0  0  0
   42.0190   26.8600   42.9830 N   0  0  0  0  0  0  0  0  0  0  0  0
   41.4450   25.7370   44.7080 H   0  0  0  0  0  0  0  0  0  0  0  0
   39.6870   24.6000   43.5280 H   0  0  0  0  0  0  0  0  0  0  0  0
   42.3260   27.8070   41.0820 H   0  0  0  0  0  0  0  0  0  0  0  0
   37.5790   26.8570   41.4560 C   0  0  0  0  0  0  0  0  0  0  0  0
   37.0850   26.6270   42.7450 C   0  0  0  0  0  0  0  0  0  0  0  0
   36.9020   27.7660   43.5400 C   0  0  0  0  0  0  0  0  0  0  0  0
   37.2140   28.9940   43.0000 C   0  0  0  0  0  0  0  0  0  0  0  0
   37.6970   29.2010   41.7320 C   0  0  0  0  0  0  0  0  0  0  0  0
   37.8750   28.0980   40.9660 N   0  0  0  0  0  0  0  0  0  0  0  0
   36.9020   25.6070   42.9850 H   0  0  0  0  0  0  0  0  0  0  0  0
   36.5270   27.5760   44.5140 H   0  0  0  0  0  0  0  0  0  0  0  0
   37.0310   29.8080   43.7090 H   0  0  0  0  0  0  0  0  0  0  0  0
   37.9940   30.5600   41.2690 C   0  0  0  0  0  0  0  0  0  0  0  0
   37.0540   31.3420   40.6660 C   0  0  0  0  0  3  0  0  0  0  0  0
   37.5010   32.5910   40.2930 C   0  0  0  0  0  0  0  0  0  0  0  0
   36.8380   33.2930   39.8060 H   0  0  0  0  0  0  0  0  0  0  0  0
   38.7500   33.0520   40.4830 N   0  0  0  0  0  0  0  0  0  0  0  0
   39.6510   32.2320   41.0900 C   0  0  0  0  0  3  0  0  0  0  0  0
   39.2520   30.9910   41.4750 N   0  0  0  0  0  0  0  0  0  0  0  0
  1  7  1  6  0  0  0
  1 19  1  0  0  0  0
  1  2  1  0  0  0  0
  2  9  1  0  0  0  0
  2  8  1  0  0  0  0
  3 11  1  0  0  0  0
  3  2  1  0  0  0  0
  4  3  1  0  0  0  0
  4 12  1  0  0  0  0
  5 15  1  0  0  0  0
  5  4  1  0  0  0  0
  5  6  1  0  0  0  0
  6 16  1  6  0  0  0
  6  1  1  0  0  0  0
  6 26  1  0  0  0  0
 10  3  1  0  0  0  0
 13  4  1  0  0  0  0
 14  5  1  0  0  0  0
 17 23  1  0  0  0  0
 18 24  1  0  0  0  0
 18 17  2  0  0  0  0
 19 18  1  0  0  0  0
 20 19  2  0  0  0  0
 20 21  1  0  0  0  0
 21 22  2  0  0  0  0
 22 17  1  0  0  0  0
 25 21  1  0  0  0  0
 26 27  1  0  0  0  0
 27 32  1  0  0  0  0
 27 28  2  0  0  0  0
 28 33  1  0  0  0  0
 29 28  1  0  0  0  0
 29 34  1  0  0  0  0
 30 29  2  0  0  0  0
 31 26  2  0  0  0  0
 31 30  1  0  0  0  0
 35 41  1  0  0  0  0
 35 30  1  0  0  0  0
 36 35  2  0  0  0  0
 37 39  2  0  0  0  0
 37 36  1  0  0  0  0
 38 37  1  0  0  0  0
 39 40  1  0  0  0  0
 40 41  2  0  0  0  0
M  END
>  <minimizedAffinity>
-5.9212079

$$$$

 OpenBabel03242516513D

 41 44  0  0  1  0  0  0  0  0999 V2000
   37.2170   27.3120   41.0080 C   0  0  1  0  0  0  0  0  0  0  0  0
   38.6030   26.9030   41.3120 C   0  0  0  0  0  0  0  0  0  0  0  0
   38.5560   26.2910   42.7140 C   0  0  0  0  0  0  0  0  0  0  0  0
   38.2810   27.4290   43.6780 C   0  0  0  0  0  0  0  0  0  0  0  0
   37.0600   28.2290   43.3480 C   0  0  0  0  0  0  0  0  0  0  0  0
   36.7230   28.4070   41.9310 C   0  0  1  0  0  0  0  0  0  0  0  0
   36.5310   26.4420   41.2440 H   0  0  0  0  0  0  0  0  0  0  0  0
   39.3040   27.7530   41.3080 H   0  0  0  0  0  0  0  0  0  0  0  0
   38.9270   26.1590   40.5560 H   0  0  0  0  0  0  0  0  0  0  0  0
   37.8140   25.4940   42.7540 H   0  0  0  0  0  0  0  0  0  0  0  0
   39.5960   25.9560   42.9380 H   0  0  0  0  0  0  0  0  0  0  0  0
   39.2090   28.0410   43.7240 H   0  0  0  0  0  0  0  0  0  0  0  0
   38.1740   26.9620   44.6870 H   0  0  0  0  0  0  0  0  0  0  0  0
   36.2080   27.7770   43.9150 H   0  0  0  0  0  0  0  0  0  0  0  0
   37.1860   29.2390   43.8190 H   0  0  0  0  0  0  0  0  0  0  0  0
   35.5950   28.3730   41.8260 H   0  0  0  0  0  0  0  0  0  0  0  0
   37.7850   28.3750   37.4270 C   0  0  0  0  0  0  0  0  0  0  0  0
   37.9790   28.0230   38.7610 C   0  0  0  0  0  0  0  0  0  0  0  0
   36.9490   27.6630   39.6190 C   0  0  0  0  0  0  0  0  0  0  0  0
   35.7180   27.6730   39.0830 N   0  0  0  0  0  0  0  0  0  0  0  0
   35.5100   28.0130   37.7880 C   0  0  0  0  0  0  0  0  0  0  0  0
   36.5010   28.3550   36.9740 N   0  0  0  0  0  0  0  0  0  0  0  0
   38.6100   28.6460   36.7990 H   0  0  0  0  0  0  0  0  0  0  0  0
   39.0030   28.0460   39.0920 H   0  0  0  0  0  0  0  0  0  0  0  0
   34.4550   27.9740   37.4990 H   0  0  0  0  0  0  0  0  0  0  0  0
   37.0810   29.7410   41.4160 C   0  0  0  0  0  0  0  0  0  0  0  0
   36.2440   30.6240   40.7250 C   0  0  0  0  0  0  0  0  0  0  0  0
   36.8190   31.8500   40.3610 C   0  0  0  0  0  0  0  0  0  0  0  0
   38.1320   32.0800   40.7060 C   0  0  0  0  0  0  0  0  0  0  0  0
   38.9380   31.2020   41.3850 C   0  0  0  0  0  0  0  0  0  0  0  0
   38.3810   30.0190   41.7350 N   0  0  0  0  0  0  0  0  0  0  0  0
   35.2570   30.2690   40.5490 H   0  0  0  0  0  0  0  0  0  0  0  0
   36.1720   32.5090   39.8380 H   0  0  0  0  0  0  0  0  0  0  0  0
   38.4720   33.0670   40.3720 H   0  0  0  0  0  0  0  0  0  0  0  0
   40.3250   31.5630   41.6950 C   0  0  0  0  0  0  0  0  0  0  0  0
   41.0220   30.9640   42.7020 C   0  0  0  0  0  3  0  0  0  0  0  0
   42.3130   31.4220   42.8580 C   0  0  0  0  0  0  0  0  0  0  0  0
   42.9550   31.0150   43.6270 H   0  0  0  0  0  0  0  0  0  0  0  0
   42.8870   32.3790   42.1060 N   0  0  0  0  0  0  0  0  0  0  0  0
   42.1480   32.9450   41.1140 C   0  0  0  0  0  3  0  0  0  0  0  0
   40.8700   32.5220   40.9250 N   0  0  0  0  0  0  0  0  0  0  0  0
  1  7  1  1  0  0  0
  1  2  1  0  0  0  0
  1  6  1  0  0  0  0
  2  3  1  0  0  0  0
  3 10  1  0  0  0  0
  3 11  1  0  0  0  0
  3  4  1  0  0  0  0
  4 12  1  0  0  0  0
  4 13  1  0  0  0  0
  5  4  1  0  0  0  0
  5 15  1  0  0  0  0
  5 14  1  0  0  0  0
  6 16  1  6  0  0  0
  6  5  1  0  0  0  0
  8  2  1  0  0  0  0
  9  2  1  0  0  0  0
 17 18  1  0  0  0  0
 18 24  1  0  0  0  0
 18 19  2  0  0  0  0
 19  1  1  0  0  0  0
 20 19  1  0  0  0  0
 21 20  2  0  0  0  0
 22 17  2  0  0  0  0
 22 21  1  0  0  0  0
 23 17  1  0  0  0  0
 25 21  1  0  0  0  0
 26 31  1  0  0  0  0
 26  6  1  0  0  0  0
 27 26  2  0  0  0  0
 28 29  2  0  0  0  0
 28 27  1  0  0  0  0
 29 30  1  0  0  0  0
 30 35  1  0  0  0  0
 30 31  2  0  0  0  0
 32 27  1  0  0  0  0
 33 28  1  0  0  0  0
 34 29  1  0  0  0  0
 35 36  1  0  0  0  0
 36 37  2  0  0  0  0
 37 38  1  0  0  0  0
 39 37  1  0  0  0  0
 40 39  2  0  0  0  0
 41 40  1  0  0  0  0
 41 35  2  0  0  0  0
M  END
>  <minimizedAffinity>
-5.699193

$$$$

 OpenBabel03242516513D

 41 44  0  0  1  0  0  0  0  0999 V2000
   38.2350   26.5200   41.3550 C   0  0  1  0  0  0  0  0  0  0  0  0
   39.2920   27.3260   41.9990 C   0  0  0  0  0  0  0  0  0  0  0  0
   38.9710   27.3090   43.4950 C   0  0  0  0  0  0  0  0  0  0  0  0
   37.7090   28.1300   43.6800 C   0  0  0  0  0  0  0  0  0  0  0  0
   36.5600   27.6850   42.8300 C   0  0  0  0  0  0  0  0  0  0  0  0
   36.8640   27.1460   41.5000 C   0  0  1  0  0  0  0  0  0  0  0  0
   38.1380   25.5440   41.9220 H   0  0  0  0  0  0  0  0  0  0  0  0
   39.3060   28.3670   41.6390 H   0  0  0  0  0  0  0  0  0  0  0  0
   40.2750   26.8530   41.7900 H   0  0  0  0  0  0  0  0  0  0  0  0
   38.8820   26.2840   43.8510 H   0  0  0  0  0  0  0  0  0  0  0  0
   39.7810   27.8940   43.9890 H   0  0  0  0  0  0  0  0  0  0  0  0
   37.9920   29.1930   43.5160 H   0  0  0  0  0  0  0  0  0  0  0  0
   37.4420   28.0500   44.7610 H   0  0  0  0  0  0  0  0  0  0  0  0
   35.9650   26.9580   43.4380 H   0  0  0  0  0  0  0  0  0  0  0  0
   35.8710   28.5620   42.7160 H   0  0  0  0  0  0  0  0  0  0  0  0
   36.1450   26.2960   41.2870 H   0  0  0  0  0  0  0  0  0  0  0  0
   39.6280   26.5710   37.8430 C   0  0  0  0  0  0  0  0  0  0  0  0
   39.3610   26.8720   39.1770 C   0  0  0  0  0  0  0  0  0  0  0  0
   38.4780   26.1480   39.9660 C   0  0  0  0  0  0  0  0  0  0  0  0
   37.8730   25.1130   39.3610 N   0  0  0  0  0  0  0  0  0  0  0  0
   38.1200   24.8060   38.0640 C   0  0  0  0  0  0  0  0  0  0  0  0
   38.9670   25.5030   37.3170 N   0  0  0  0  0  0  0  0  0  0  0  0
   40.3200   27.1560   37.2700 H   0  0  0  0  0  0  0  0  0  0  0  0
   39.8970   27.7200   39.5670 H   0  0  0  0  0  0  0  0  0  0  0  0
   37.5530   23.9380   37.7150 H   0  0  0  0  0  0  0  0  0  0  0  0
   36.5980   28.1070   40.4140 C   0  0  0  0  0  0  0  0  0  0  0  0
   35.8180   27.8870   39.2730 C   0  0  0  0  0  0  0  0  0  0  0  0
   35.6990   28.9740   38.3970 C   0  0  0  0  0  0  0  0  0  0  0  0
   36.3470   30.1450   38.7220 C   0  0  0  0  0  0  0  0  0  0  0  0
   37.1080   30.3430   39.8460 C   0  0  0  0  0  0  0  0  0  0  0  0
   37.2210   29.2910   40.6910 N   0  0  0  0  0  0  0  0  0  0  0  0
   35.3960   26.9140   39.1930 H   0  0  0  0  0  0  0  0  0  0  0  0
   35.1050   28.7920   37.5370 H   0  0  0  0  0  0  0  0  0  0  0  0
   36.1830   30.9220   37.9670 H   0  0  0  0  0  0  0  0  0  0  0  0
   37.7500   31.6400   40.0830 C   0  0  0  0  0  0  0  0  0  0  0  0
   37.2090   32.8090   39.6360 C   0  0  0  0  0  3  0  0  0  0  0  0
   37.9420   33.9350   39.9460 C   0  0  0  0  0  0  0  0  0  0  0  0
   37.6040   34.9160   39.6400 H   0  0  0  0  0  0  0  0  0  0  0  0
   39.1010   33.9370   40.6280 N   0  0  0  0  0  0  0  0  0  0  0  0
   39.5990   32.7430   41.0520 C   0  0  0  0  0  3  0  0  0  0  0  0
   38.9080   31.6080   40.7690 N   0  0  0  0  0  0  0  0  0  0  0  0
  1  6  1  0  0  0  0
  1  7  1  1  0  0  0
  1  2  1  0  0  0  0
  2  3  1  0  0  0  0
  3  4  1  0  0  0  0
  3 10  1  0  0  0  0
  3 11  1  0  0  0  0
  4 13  1  0  0  0  0
  5 14  1  0  0  0  0
  5  4  1  0  0  0  0
  6 16  1  6  0  0  0
  6  5  1  0  0  0  0
  8  2  1  0  0  0  0
  9  2  1  0  0  0  0
 12  4  1  0  0  0  0
 15  5  1  0  0  0  0
 17 18  1  0  0  0  0
 18 24  1  0  0  0  0
 18 19  2  0  0  0  0
 19  1  1  0  0  0  0
 20 19  1  0  0  0  0
 21 20  2  0  0  0  0
 22 17  2  0  0  0  0
 22 21  1  0  0  0  0
 23 17  1  0  0  0  0
 25 21  1  0  0  0  0
 26 31  1  0  0  0  0
 26  6  1  0  0  0  0
 27 26  2  0  0  0  0
 28 29  2  0  0  0  0
 28 27  1  0  0  0  0
 29 30  1  0  0  0  0
 30 35  1  0  0  0  0
 30 31  2  0  0  0  0
 32 27  1  0  0  0  0
 33 28  1  0  0  0  0
 34 29  1  0  0  0  0
 35 41  1  0  0  0  0
 36 37  1  0  0  0  0
 36 35  2  0  0  0  0
 37 39  2  0  0  0  0
 38 37  1  0  0  0  0
 39 40  1  0  0  0  0
 41 40  2  0  0  0  0
M  END
>  <minimizedAffinity>
-5.65344954

$$$$

 OpenBabel03242516513D

 41 44  0  0  1  0  0  0  0  0999 V2000
   37.6710   30.9350   39.6170 C   0  0  1  0  0  0  0  0  0  0  0  0
   37.3800   32.1600   40.3870 C   0  0  0  0  0  0  0  0  0  0  0  0
   38.6640   32.9920   40.3440 C   0  0  0  0  0  0  0  0  0  0  0  0
   39.6890   32.2550   41.1860 C   0  0  0  0  0  0  0  0  0  0  0  0
   39.9010   30.8300   40.7820 C   0  0  0  0  0  0  0  0  0  0  0  0
   38.7450   30.0870   40.2670 C   0  0  1  0  0  0  0  0  0  0  0  0
   38.1390   31.2390   38.6320 H   0  0  0  0  0  0  0  0  0  0  0  0
   37.1170   31.9470   41.4360 H   0  0  0  0  0  0  0  0  0  0  0  0
   36.5360   32.6930   39.9010 H   0  0  0  0  0  0  0  0  0  0  0  0
   38.9770   33.1510   39.3130 H   0  0  0  0  0  0  0  0  0  0  0  0
   38.4410   33.9310   40.9020 H   0  0  0  0  0  0  0  0  0  0  0  0
   39.3750   32.3700   42.2460 H   0  0  0  0  0  0  0  0  0  0  0  0
   40.6420   32.8290   41.0870 H   0  0  0  0  0  0  0  0  0  0  0  0
   40.7500   30.8170   40.0540 H   0  0  0  0  0  0  0  0  0  0  0  0
   40.3100   30.2880   41.6750 H   0  0  0  0  0  0  0  0  0  0  0  0
   39.1030   29.4040   39.4360 H   0  0  0  0  0  0  0  0  0  0  0  0
   35.3690   28.6650   37.6620 C   0  0  0  0  0  0  0  0  0  0  0  0
   36.4470   29.4580   38.0510 C   0  0  0  0  0  0  0  0  0  0  0  0
   36.5180   30.1130   39.2720 C   0  0  0  0  0  0  0  0  0  0  0  0
   35.4620   29.9420   40.0840 N   0  0  0  0  0  0  0  0  0  0  0  0
   34.4050   29.1760   39.7220 C   0  0  0  0  0  0  0  0  0  0  0  0
   34.3460   28.5510   38.5530 N   0  0  0  0  0  0  0  0  0  0  0  0
   35.3560   28.1750   36.7080 H   0  0  0  0  0  0  0  0  0  0  0  0
   37.2410   29.5300   37.3280 H   0  0  0  0  0  0  0  0  0  0  0  0
   33.6250   29.1330   40.4890 H   0  0  0  0  0  0  0  0  0  0  0  0
   38.1680   29.1600   41.2570 C   0  0  0  0  0  0  0  0  0  0  0  0
   37.8310   29.4530   42.5830 C   0  0  0  0  0  0  0  0  0  0  0  0
   37.2720   28.3980   43.3170 C   0  0  0  0  0  0  0  0  0  0  0  0
   37.1040   27.1850   42.6880 C   0  0  0  0  0  0  0  0  0  0  0  0
   37.4400   26.9150   41.3860 C   0  0  0  0  0  0  0  0  0  0  0  0
   37.9800   27.9360   40.6780 N   0  0  0  0  0  0  0  0  0  0  0  0
   38.0360   30.4490   42.8930 H   0  0  0  0  0  0  0  0  0  0  0  0
   37.0220   28.6360   44.3210 H   0  0  0  0  0  0  0  0  0  0  0  0
   36.6600   26.4390   43.3570 H   0  0  0  0  0  0  0  0  0  0  0  0
   37.2120   25.5790   40.8270 C   0  0  0  0  0  0  0  0  0  0  0  0
   37.7350   24.4560   41.3960 C   0  0  0  0  0  3  0  0  0  0  0  0
   37.4230   23.2830   40.7420 C   0  0  0  0  0  0  0  0  0  0  0  0
   37.7850   22.3320   41.1090 H   0  0  0  0  0  0  0  0  0  0  0  0
   36.6700   23.1970   39.6310 N   0  0  0  0  0  0  0  0  0  0  0  0
   36.1720   24.3470   39.1020 C   0  0  0  0  0  3  0  0  0  0  0  0
   36.4550   25.5270   39.7160 N   0  0  0  0  0  0  0  0  0  0  0  0
  1  7  1  6  0  0  0
  1  6  1  0  0  0  0
  1  2  1  0  0  0  0
  2  8  1  0  0  0  0
  3  2  1  0  0  0  0
  3 11  1  0  0  0  0
  3  4  1  0  0  0  0
  4 12  1  0  0  0  0
  5  4  1  0  0  0  0
  5 15  1  0  0  0  0
  6 16  1  6  0  0  0
  6  5  1  0  0  0  0
  6 26  1  0  0  0  0
  9  2  1  0  0  0  0
 10  3  1  0  0  0  0
 13  4  1  0  0  0  0
 14  5  1  0  0  0  0
 17 18  2  0  0  0  0
 17 22  1  0  0  0  0
 18 19  1  0  0  0  0
 19  1  1  0  0  0  0
 19 20  2  0  0  0  0
 21 20  1  0  0  0  0
 21 25  1  0  0  0  0
 22 21  2  0  0  0  0
 23 17  1  0  0  0  0
 24 18  1  0  0  0  0
 26 27  1  0  0  0  0
 27 32  1  0  0  0  0
 27 28  2  0  0  0  0
 28 33  1  0  0  0  0
 29 28  1  0  0  0  0
 29 34  1  0  0  0  0
 30 29  2  0  0  0  0
 31 26  2  0  0  0  0
 31 30  1  0  0  0  0
 35 30  1  0  0  0  0
 35 36  1  0  0  0  0
 37 38  1  0  0  0  0
 37 36  2  0  0  0  0
 39 37  1  0  0  0  0
 40 39  2  0  0  0  0
 40 41  1  0  0  0  0
 41 35  2  0  0  0  0
M  END
>  <minimizedAffinity>
-5.64961529

$$$$

 OpenBabel03242516513D

 41 44  0  0  1  0  0  0  0  0999 V2000
   37.5390   30.6110   38.7440 C   0  0  1  0  0  0  0  0  0  0  0  0
   37.0340   29.2330   38.5830 C   0  0  0  0  0  0  0  0  0  0  0  0
   35.5310   29.3080   38.8610 C   0  0  0  0  0  0  0  0  0  0  0  0
   35.3750   29.5930   40.3430 C   0  0  0  0  0  0  0  0  0  0  0  0
   36.1180   30.8040   40.8140 C   0  0  0  0  0  0  0  0  0  0  0  0
   37.3980   31.1140   40.1650 C   0  0  1  0  0  0  0  0  0  0  0  0
   36.8680   31.3060   38.1530 H   0  0  0  0  0  0  0  0  0  0  0  0
   37.5010   28.5270   39.2870 H   0  0  0  0  0  0  0  0  0  0  0  0
   37.2370   28.9000   37.5440 H   0  0  0  0  0  0  0  0  0  0  0  0
   35.0650   30.0550   38.2200 H   0  0  0  0  0  0  0  0  0  0  0  0
   35.1390   28.2750   38.7150 H   0  0  0  0  0  0  0  0  0  0  0  0
   35.6630   28.6630   40.8800 H   0  0  0  0  0  0  0  0  0  0  0  0
   34.2800   29.7210   40.5210 H   0  0  0  0  0  0  0  0  0  0  0  0
   35.4110   31.6680   40.7540 H   0  0  0  0  0  0  0  0  0  0  0  0
   36.2920   30.6800   41.9150 H   0  0  0  0  0  0  0  0  0  0  0  0
   37.4850   32.2410   40.0730 H   0  0  0  0  0  0  0  0  0  0  0  0
   41.0630   29.9670   37.5440 C   0  0  0  0  0  0  0  0  0  0  0  0
   39.7590   29.7990   38.0050 C   0  0  0  0  0  0  0  0  0  0  0  0
   38.8910   30.8530   38.2540 C   0  0  0  0  0  0  0  0  0  0  0  0
   39.3850   32.0790   38.0230 N   0  0  0  0  0  0  0  0  0  0  0  0
   40.6510   32.2620   37.5760 C   0  0  0  0  0  0  0  0  0  0  0  0
   41.4750   31.2490   37.3390 N   0  0  0  0  0  0  0  0  0  0  0  0
   41.7010   29.1240   37.3640 H   0  0  0  0  0  0  0  0  0  0  0  0
   39.4600   28.7760   38.1580 H   0  0  0  0  0  0  0  0  0  0  0  0
   40.9080   33.3160   37.4350 H   0  0  0  0  0  0  0  0  0  0  0  0
   38.5650   30.7400   40.9840 C   0  0  0  0  0  0  0  0  0  0  0  0
   39.5900   31.5880   41.4180 C   0  0  0  0  0  0  0  0  0  0  0  0
   40.5810   30.9910   42.2100 C   0  0  0  0  0  0  0  0  0  0  0  0
   40.4680   29.6470   42.4890 C   0  0  0  0  0  0  0  0  0  0  0  0
   39.4550   28.8300   42.0530 C   0  0  0  0  0  0  0  0  0  0  0  0
   38.4990   29.4090   41.2890 N   0  0  0  0  0  0  0  0  0  0  0  0
   39.5070   32.5990   41.1010 H   0  0  0  0  0  0  0  0  0  0  0  0
   41.3510   31.6460   42.5320 H   0  0  0  0  0  0  0  0  0  0  0  0
   41.2960   29.2920   43.1130 H   0  0  0  0  0  0  0  0  0  0  0  0
   39.4450   27.4100   42.4180 C   0  0  0  0  0  0  0  0  0  0  0  0
   40.1590   26.9270   43.4750 C   0  0  0  0  0  3  0  0  0  0  0  0
   40.0360   25.5690   43.6770 C   0  0  0  0  0  0  0  0  0  0  0  0
   40.5600   25.0820   44.4880 H   0  0  0  0  0  0  0  0  0  0  0  0
   39.2890   24.7420   42.9240 N   0  0  0  0  0  0  0  0  0  0  0  0
   38.5960   25.2740   41.8810 C   0  0  0  0  0  3  0  0  0  0  0  0
   38.6880   26.6090   41.6460 N   0  0  0  0  0  0  0  0  0  0  0  0
  1  7  1  6  0  0  0
  1  6  1  0  0  0  0
  2  1  1  0  0  0  0
  2  3  1  0  0  0  0
  2  8  1  0  0  0  0
  3  4  1  0  0  0  0
  4 13  1  0  0  0  0
  4  5  1  0  0  0  0
  4 12  1  0  0  0  0
  5 15  1  0  0  0  0
  6 16  1  6  0  0  0
  6  5  1  0  0  0  0
  6 26  1  0  0  0  0
  9  2  1  0  0  0  0
 10  3  1  0  0  0  0
 11  3  1  0  0  0  0
 14  5  1  0  0  0  0
 17 18  1  0  0  0  0
 18 24  1  0  0  0  0
 18 19  2  0  0  0  0
 19  1  1  0  0  0  0
 20 19  1  0  0  0  0
 21 20  2  0  0  0  0
 22 17  2  0  0  0  0
 22 21  1  0  0  0  0
 23 17  1  0  0  0  0
 25 21  1  0  0  0  0
 26 31  2  0  0  0  0
 26 27  1  0  0  0  0
 27 28  2  0  0  0  0
 28 29  1  0  0  0  0
 28 33  1  0  0  0  0
 29 34  1  0  0  0  0
 30 35  1  0  0  0  0
 30 29  2  0  0  0  0
 31 30  1  0  0  0  0
 32 27  1  0  0  0  0
 35 36  1  0  0  0  0
 36 37  2  0  0  0  0
 37 38  1  0  0  0  0
 39 37  1  0  0  0  0
 40 39  2  0  0  0  0
 41 40  1  0  0  0  0
 41 35  2  0  0  0  0
M  END
>  <minimizedAffinity>
-5.58271456

$$$$

 OpenBabel03242516513D

 41 44  0  0  1  0  0  0  0  0999 V2000
   36.4640   30.2390   38.3820 C   0  0  1  0  0  0  0  0  0  0  0  0
   36.5470   29.0930   37.4560 C   0  0  0  0  0  0  0  0  0  0  0  0
   35.1210   28.8650   36.9510 C   0  0  0  0  0  0  0  0  0  0  0  0
   34.3210   28.3380   38.1280 C   0  0  0  0  0  0  0  0  0  0  0  0
   34.3790   29.2070   39.3450 C   0  0  0  0  0  0  0  0  0  0  0  0
   35.6280   29.9310   39.6070 C   0  0  1  0  0  0  0  0  0  0  0  0
   35.8850   31.0670   37.8710 H   0  0  0  0  0  0  0  0  0  0  0  0
   36.9120   28.1780   37.9480 H   0  0  0  0  0  0  0  0  0  0  0  0
   37.2330   29.3580   36.6240 H   0  0  0  0  0  0  0  0  0  0  0  0
   34.7190   29.7830   36.5250 H   0  0  0  0  0  0  0  0  0  0  0  0
   35.1820   28.0160   36.2300 H   0  0  0  0  0  0  0  0  0  0  0  0
   34.6700   27.2980   38.3130 H   0  0  0  0  0  0  0  0  0  0  0  0
   33.2670   28.2460   37.7710 H   0  0  0  0  0  0  0  0  0  0  0  0
   33.5070   29.9060   39.2910 H   0  0  0  0  0  0  0  0  0  0  0  0
   34.1450   28.5580   40.2290 H   0  0  0  0  0  0  0  0  0  0  0  0
   35.3670   30.9500   40.0300 H   0  0  0  0  0  0  0  0  0  0  0  0
   40.1630   30.6150   39.0570 C   0  0  0  0  0  0  0  0  0  0  0  0
   38.9190   30.1070   38.6890 C   0  0  0  0  0  0  0  0  0  0  0  0
   37.7380   30.8310   38.7750 C   0  0  0  0  0  0  0  0  0  0  0  0
   37.8580   32.0830   39.2450 N   0  0  0  0  0  0  0  0  0  0  0  0
   39.0600   32.5930   39.6080 C   0  0  0  0  0  0  0  0  0  0  0  0
   40.1840   31.8940   39.5220 N   0  0  0  0  0  0  0  0  0  0  0  0
   41.0520   30.0200   38.9730 H   0  0  0  0  0  0  0  0  0  0  0  0
   38.9310   29.0940   38.3250 H   0  0  0  0  0  0  0  0  0  0  0  0
   38.9950   33.6230   39.9710 H   0  0  0  0  0  0  0  0  0  0  0  0
   36.4420   29.3120   40.6680 C   0  0  0  0  0  0  0  0  0  0  0  0
   36.9840   29.9510   41.7890 C   0  0  0  0  0  0  0  0  0  0  0  0
   37.7040   29.1310   42.6690 C   0  0  0  0  0  0  0  0  0  0  0  0
   37.8190   27.7930   42.3650 C   0  0  0  0  0  0  0  0  0  0  0  0
   37.2810   27.1830   41.2600 C   0  0  0  0  0  0  0  0  0  0  0  0
   36.5850   27.9770   40.4120 N   0  0  0  0  0  0  0  0  0  0  0  0
   36.7900   30.9940   41.8540 H   0  0  0  0  0  0  0  0  0  0  0  0
   38.1090   29.6300   43.5140 H   0  0  0  0  0  0  0  0  0  0  0  0
   38.4000   27.2540   43.1210 H   0  0  0  0  0  0  0  0  0  0  0  0
   37.4720   25.7460   41.0450 C   0  0  0  0  0  0  0  0  0  0  0  0
   36.6290   25.0110   40.2640 C   0  0  0  0  0  3  0  0  0  0  0  0
   36.9540   23.6750   40.1690 C   0  0  0  0  0  0  0  0  0  0  0  0
   36.3530   23.0010   39.5750 H   0  0  0  0  0  0  0  0  0  0  0  0
   38.0030   23.0920   40.7760 N   0  0  0  0  0  0  0  0  0  0  0  0
   38.8140   23.8690   41.5450 C   0  0  0  0  0  3  0  0  0  0  0  0
   38.5300   25.1930   41.6650 N   0  0  0  0  0  0  0  0  0  0  0  0
  1  7  1  6  0  0  0
  1 19  1  0  0  0  0
  1  6  1  0  0  0  0
  2  8  1  0  0  0  0
  2  1  1  0  0  0  0
  3  2  1  0  0  0  0
  3  4  1  0  0  0  0
  4 12  1  0  0  0  0
  4  5  1  0  0  0  0
  5  6  1  0  0  0  0
  5 15  1  0  0  0  0
  6 16  1  1  0  0  0
  6 26  1  0  0  0  0
  9  2  1  0  0  0  0
 10  3  1  0  0  0  0
 11  3  1  0  0  0  0
 13  4  1  0  0  0  0
 14  5  1  0  0  0  0
 17 22  1  0  0  0  0
 18 19  1  0  0  0  0
 18 17  2  0  0  0  0
 19 20  2  0  0  0  0
 20 21  1  0  0  0  0
 21 25  1  0  0  0  0
 22 21  2  0  0  0  0
 23 17  1  0  0  0  0
 24 18  1  0  0  0  0
 26 27  1  0  0  0  0
 27 32  1  0  0  0  0
 27 28  2  0  0  0  0
 28 33  1  0  0  0  0
 29 28  1  0  0  0  0
 29 34  1  0  0  0  0
 30 29  2  0  0  0  0
 31 26  2  0  0  0  0
 31 30  1  0  0  0  0
 35 30  1  0  0  0  0
 35 41  1  0  0  0  0
 36 35  2  0  0  0  0
 37 36  1  0  0  0  0
 37 39  2  0  0  0  0
 38 37  1  0  0  0  0
 39 40  1  0  0  0  0
 40 41  2  0  0  0  0
M  END
>  <minimizedAffinity>
-5.54558134

$$$$

 OpenBabel03242516513D

 41 44  0  0  1  0  0  0  0  0999 V2000
   37.1580   28.6730   39.3640 C   0  0  1  0  0  0  0  0  0  0  0  0
   35.6900   28.6660   39.5210 C   0  0  0  0  0  0  0  0  0  0  0  0
   35.1330   28.1750   38.1830 C   0  0  0  0  0  0  0  0  0  0  0  0
   35.3950   29.2740   37.1710 C   0  0  0  0  0  0  0  0  0  0  0  0
   36.8280   29.6980   37.0880 C   0  0  0  0  0  0  0  0  0  0  0  0
   37.6210   29.6700   38.3220 C   0  0  1  0  0  0  0  0  0  0  0  0
   37.4730   27.6760   38.9290 H   0  0  0  0  0  0  0  0  0  0  0  0
   35.2840   29.6660   39.7410 H   0  0  0  0  0  0  0  0  0  0  0  0
   35.4250   27.9750   40.3480 H   0  0  0  0  0  0  0  0  0  0  0  0
   35.5790   27.2180   37.9160 H   0  0  0  0  0  0  0  0  0  0  0  0
   34.0250   28.1420   38.3050 H   0  0  0  0  0  0  0  0  0  0  0  0
   34.7020   30.1080   37.4170 H   0  0  0  0  0  0  0  0  0  0  0  0
   35.0540   28.8760   36.1850 H   0  0  0  0  0  0  0  0  0  0  0  0
   37.3050   29.0860   36.2830 H   0  0  0  0  0  0  0  0  0  0  0  0
   36.8430   30.7400   36.6720 H   0  0  0  0  0  0  0  0  0  0  0  0
   38.6720   29.3350   38.0620 H   0  0  0  0  0  0  0  0  0  0  0  0
   37.9790   29.2800   43.0010 C   0  0  0  0  0  0  0  0  0  0  0  0
   37.2980   29.1110   41.7970 C   0  0  0  0  0  0  0  0  0  0  0  0
   37.9270   28.8320   40.5920 C   0  0  0  0  0  0  0  0  0  0  0  0
   39.2650   28.7310   40.6450 N   0  0  0  0  0  0  0  0  0  0  0  0
   39.9440   28.8940   41.8060 C   0  0  0  0  0  0  0  0  0  0  0  0
   39.3350   29.1600   42.9550 N   0  0  0  0  0  0  0  0  0  0  0  0
   37.4530   29.4940   43.9110 H   0  0  0  0  0  0  0  0  0  0  0  0
   36.2290   29.2110   41.8630 H   0  0  0  0  0  0  0  0  0  0  0  0
   41.0260   28.7820   41.6880 H   0  0  0  0  0  0  0  0  0  0  0  0
   37.8180   31.0070   38.9110 C   0  0  0  0  0  0  0  0  0  0  0  0
   36.8780   31.7510   39.6330 C   0  0  0  0  0  0  0  0  0  0  0  0
   37.3210   32.9920   40.1110 C   0  0  0  0  0  0  0  0  0  0  0  0
   38.6160   33.3700   39.8380 C   0  0  0  0  0  0  0  0  0  0  0  0
   39.5240   32.6280   39.1270 C   0  0  0  0  0  0  0  0  0  0  0  0
   39.0950   31.4290   38.6660 N   0  0  0  0  0  0  0  0  0  0  0  0
   35.9250   31.2930   39.7420 H   0  0  0  0  0  0  0  0  0  0  0  0
   36.5970   33.5440   40.6570 H   0  0  0  0  0  0  0  0  0  0  0  0
   38.8490   34.3540   40.2600 H   0  0  0  0  0  0  0  0  0  0  0  0
   40.8790   33.1390   38.9000 C   0  0  0  0  0  0  0  0  0  0  0  0
   41.6240   33.6890   39.9020 C   0  0  0  0  0  3  0  0  0  0  0  0
   42.8750   34.1200   39.5150 C   0  0  0  0  0  0  0  0  0  0  0  0
   43.5500   34.5710   40.2300 H   0  0  0  0  0  0  0  0  0  0  0  0
   43.3700   34.0300   38.2680 N   0  0  0  0  0  0  0  0  0  0  0  0
   42.5870   33.4740   37.3040 C   0  0  0  0  0  3  0  0  0  0  0  0
   41.3460   33.0350   37.6420 N   0  0  0  0  0  0  0  0  0  0  0  0
  1  7  1  6  0  0  0
  1  2  1  0  0  0  0
  1 19  1  0  0  0  0
  2  8  1  0  0  0  0
  2  9  1  0  0  0  0
  3 11  1  0  0  0  0
  3  2  1  0  0  0  0
  4 12  1  0  0  0  0
  4  3  1  0  0  0  0
  5  4  1  0  0  0  0
  5  6  1  0  0  0  0
  6 16  1  6  0  0  0
  6 26  1  0  0  0  0
  6  1  1  0  0  0  0
 10  3  1  0  0  0  0
 13  4  1  0  0  0  0
 14  5  1  0  0  0  0
 15  5  1  0  0  0  0
 17 23  1  0  0  0  0
 18 24  1  0  0  0  0
 18 17  2  0  0  0  0
 19 20  2  0  0  0  0
 19 18  1  0  0  0  0
 20 21  1  0  0  0  0
 21 22  2  0  0  0  0
 22 17  1  0  0  0  0
 25 21  1  0  0  0  0
 26 27  1  0  0  0  0
 27 32  1  0  0  0  0
 27 28  2  0  0  0  0
 28 33  1  0  0  0  0
 29 28  1  0  0  0  0
 29 34  1  0  0  0  0
 30 29  2  0  0  0  0
 31 26  2  0  0  0  0
 31 30  1  0  0  0  0
 35 30  1  0  0  0  0
 35 36  1  0  0  0  0
 37 36  2  0  0  0  0
 37 38  1  0  0  0  0
 39 37  1  0  0  0  0
 40 41  1  0  0  0  0
 40 39  2  0  0  0  0
 41 35  2  0  0  0  0
M  END
>  <minimizedAffinity>
-5.5141449

$$$$

 OpenBabel03242516513D

 41 44  0  0  1  0  0  0  0  0999 V2000
   38.8660   29.9870   37.8030 C   0  0  1  0  0  0  0  0  0  0  0  0
   40.1260   29.2930   38.1340 C   0  0  0  0  0  0  0  0  0  0  0  0
   40.4230   28.3820   36.9410 C   0  0  0  0  0  0  0  0  0  0  0  0
   39.3750   27.2850   36.9590 C   0  0  0  0  0  0  0  0  0  0  0  0
   37.9650   27.7860   36.9760 C   0  0  0  0  0  0  0  0  0  0  0  0
   37.6930   29.0340   37.6980 C   0  0  1  0  0  0  0  0  0  0  0  0
   38.9560   30.4060   36.7550 H   0  0  0  0  0  0  0  0  0  0  0  0
   40.0450   28.6840   39.0480 H   0  0  0  0  0  0  0  0  0  0  0  0
   40.9240   30.0530   38.2710 H   0  0  0  0  0  0  0  0  0  0  0  0
   40.4350   28.9600   36.0180 H   0  0  0  0  0  0  0  0  0  0  0  0
   41.3880   27.8750   37.1740 H   0  0  0  0  0  0  0  0  0  0  0  0
   39.6180   26.6240   37.8200 H   0  0  0  0  0  0  0  0  0  0  0  0
   39.5540   26.6700   36.0440 H   0  0  0  0  0  0  0  0  0  0  0  0
   37.6260   27.8490   35.9120 H   0  0  0  0  0  0  0  0  0  0  0  0
   37.3280   26.9710   37.4100 H   0  0  0  0  0  0  0  0  0  0  0  0
   36.9110   29.6160   37.1200 H   0  0  0  0  0  0  0  0  0  0  0  0
   38.8820   32.3860   40.7220 C   0  0  0  0  0  0  0  0  0  0  0  0
   39.1720   31.3280   39.8630 C   0  0  0  0  0  0  0  0  0  0  0  0
   38.5220   31.1200   38.6540 C   0  0  0  0  0  0  0  0  0  0  0  0
   37.5710   32.0150   38.3450 N   0  0  0  0  0  0  0  0  0  0  0  0
   37.2760   33.0500   39.1690 C   0  0  0  0  0  0  0  0  0  0  0  0
   37.9020   33.2430   40.3220 N   0  0  0  0  0  0  0  0  0  0  0  0
   39.4110   32.5100   41.6470 H   0  0  0  0  0  0  0  0  0  0  0  0
   39.9500   30.6670   40.2030 H   0  0  0  0  0  0  0  0  0  0  0  0
   36.4800   33.6930   38.7800 H   0  0  0  0  0  0  0  0  0  0  0  0
   37.0640   28.8150   39.0130 C   0  0  0  0  0  0  0  0  0  0  0  0
   35.8060   29.2680   39.4260 C   0  0  0  0  0  0  0  0  0  0  0  0
   35.4230   28.9040   40.7240 C   0  0  0  0  0  0  0  0  0  0  0  0
   36.2960   28.1480   41.4720 C   0  0  0  0  0  0  0  0  0  0  0  0
   37.5270   27.7120   41.0510 C   0  0  0  0  0  0  0  0  0  0  0  0
   37.8950   28.0640   39.7960 N   0  0  0  0  0  0  0  0  0  0  0  0
   35.2730   29.8420   38.7070 H   0  0  0  0  0  0  0  0  0  0  0  0
   34.4670   29.2560   41.0220 H   0  0  0  0  0  0  0  0  0  0  0  0
   35.8920   27.9250   42.4650 H   0  0  0  0  0  0  0  0  0  0  0  0
   38.3700   26.9090   41.9420 C   0  0  0  0  0  0  0  0  0  0  0  0
   39.1220   27.4720   42.9310 C   0  0  0  0  0  3  0  0  0  0  0  0
   39.8550   26.5730   43.6760 C   0  0  0  0  0  0  0  0  0  0  0  0
   40.4860   26.9110   44.4860 H   0  0  0  0  0  0  0  0  0  0  0  0
   39.8650   25.2410   43.4860 N   0  0  0  0  0  0  0  0  0  0  0  0
   39.0970   24.7290   42.4860 C   0  0  0  0  0  3  0  0  0  0  0  0
   38.3570   25.5800   41.7270 N   0  0  0  0  0  0  0  0  0  0  0  0
  1  7  1  6  0  0  0
  1  2  1  0  0  0  0
  1 19  1  0  0  0  0
  2  9  1  0  0  0  0
  2  8  1  0  0  0  0
  3  4  1  0  0  0  0
  3 11  1  0  0  0  0
  3  2  1  0  0  0  0
  4  5  1  0  0  0  0
  4 12  1  0  0  0  0
  5 15  1  0  0  0  0
  5  6  1  0  0  0  0
  6 16  1  6  0  0  0
  6  1  1  0  0  0  0
  6 26  1  0  0  0  0
 10  3  1  0  0  0  0
 13  4  1  0  0  0  0
 14  5  1  0  0  0  0
 17 23  1  0  0  0  0
 18 24  1  0  0  0  0
 18 17  2  0  0  0  0
 19 18  1  0  0  0  0
 20 19  2  0  0  0  0
 20 21  1  0  0  0  0
 21 22  2  0  0  0  0
 22 17  1  0  0  0  0
 25 21  1  0  0  0  0
 26 27  2  0  0  0  0
 26 31  1  0  0  0  0
 27 28  1  0  0  0  0
 28 33  1  0  0  0  0
 28 29  2  0  0  0  0
 29 34  1  0  0  0  0
 30 29  1  0  0  0  0
 30 35  1  0  0  0  0
 31 30  2  0  0  0  0
 32 27  1  0  0  0  0
 35 36  1  0  0  0  0
 36 37  2  0  0  0  0
 37 38  1  0  0  0  0
 39 37  1  0  0  0  0
 40 39  2  0  0  0  0
 41 35  2  0  0  0  0
 41 40  1  0  0  0  0
M  END
>  <minimizedAffinity>
-5.4487462

$$$$
