
 OpenBabel03252506183D

 21 22  0  0  0  0  0  0  0  0999 V2000
   44.8760   35.6690   43.9990 C   0  0  0  0  0  0  0  0  0  0  0  0
   44.3730   35.2490   42.7530 C   0  0  0  0  0  0  0  0  0  0  0  0
   44.4510   33.8790   42.4390 C   0  0  0  0  0  0  0  0  0  0  0  0
   45.0060   33.0450   43.3540 N   0  0  0  0  0  0  0  0  0  0  0  0
   45.4860   33.4870   44.5560 C   0  0  0  0  0  0  0  0  0  0  0  0
   45.4090   34.8030   44.8520 N   0  0  0  0  0  0  0  0  0  0  0  0
   43.9380   35.9590   42.0570 H   0  0  0  0  0  0  0  0  0  0  0  0
   44.0780   33.5140   41.4980 H   0  0  0  0  0  0  0  0  0  0  0  0
   46.0780   32.5700   45.5230 C   0  0  0  0  0  0  0  0  0  0  0  0
   46.0630   31.2100   45.2460 C   0  0  0  0  0  3  0  0  0  0  0  0
   46.6270   30.3340   46.1660 C   0  0  0  0  0  0  0  0  0  0  0  0
   46.6210   29.2700   45.9610 H   0  0  0  0  0  0  0  0  0  0  0  0
   47.1520   30.8770   47.2710 N   0  0  0  0  0  0  0  0  0  0  0  0
   47.1820   32.1720   47.5650 C   0  0  0  0  0  3  0  0  0  0  0  0
   46.6320   33.0420   46.6690 N   0  0  0  0  0  0  0  0  0  0  0  0
   44.7920   37.0860   44.3210 C   0  0  0  0  0  3  0  0  0  0  0  0
   45.4240   37.9620   43.5690 C   0  0  0  0  0  3  0  0  0  0  0  0
   45.3870   39.4180   43.8300 C   0  0  0  0  0  0  0  0  0  0  0  0
   45.1300   39.6420   44.8730 H   0  0  0  0  0  0  0  0  0  0  0  0
   44.6060   39.8620   43.2010 H   0  0  0  0  0  0  0  0  0  0  0  0
   46.3920   39.8750   43.6510 H   0  0  0  0  0  0  0  0  0  0  0  0
  1 16  1  0  0  0  0
  1  6  1  0  0  0  0
  2  1  2  0  0  0  0
  3  2  1  0  0  0  0
  3  4  2  0  0  0  0
  4  5  1  0  0  0  0
  5  6  2  0  0  0  0
  5  9  1  0  0  0  0
  7  2  1  0  0  0  0
  8  3  1  0  0  0  0
  9 15  1  0  0  0  0
 10  9  2  0  0  0  0
 10 11  1  0  0  0  0
 11 13  2  0  0  0  0
 12 11  1  0  0  0  0
 13 14  1  0  0  0  0
 15 14  2  0  0  0  0
 17 18  1  0  0  0  0
 17 16  2  0  0  0  0
 18 19  1  0  0  0  0
 20 18  1  0  0  0  0
 21 18  1  0  0  0  0
M  END
>  <minimizedAffinity>
-3.61627698

>  <minimizedRMSD>
1.29663193

$$$$
