
 OpenBabel03252509193D

 41 44  0  0  1  0  0  0  0  0999 V2000
   46.8540   30.8300   47.1070 C   0  0  1  0  0  0  0  0  0  0  0  0
   47.0740   32.0620   47.9290 C   0  0  0  0  0  0  0  0  0  0  0  0
   45.9220   32.4240   48.8270 C   0  0  0  0  0  0  0  0  0  0  0  0
   45.3390   31.2330   49.5350 C   0  0  0  0  0  0  0  0  0  0  0  0
   45.1270   30.0690   48.6170 C   0  0  0  0  0  0  0  0  0  0  0  0
   45.3470   30.4850   47.1460 C   0  0  2  0  0  0  0  0  0  0  0  0
   47.3650   29.9690   47.5410 H   0  0  0  0  0  0  0  0  0  0  0  0
   47.9780   31.9050   48.5780 H   0  0  0  0  0  0  0  0  0  0  0  0
   47.3100   32.9130   47.2730 H   0  0  0  0  0  0  0  0  0  0  0  0
   45.1330   32.9150   48.2050 H   0  0  0  0  0  0  0  0  0  0  0  0
   46.2910   33.1420   49.5570 H   0  0  0  0  0  0  0  0  0  0  0  0
   46.1330   30.9030   50.2660 H   0  0  0  0  0  0  0  0  0  0  0  0
   44.4530   31.5460   50.0930 H   0  0  0  0  0  0  0  0  0  0  0  0
   45.7340   29.1830   48.8330 H   0  0  0  0  0  0  0  0  0  0  0  0
   44.0370   29.8280   48.6650 H   0  0  0  0  0  0  0  0  0  0  0  0
   44.7250   31.3760   46.9290 H   0  0  0  0  0  0  0  0  0  0  0  0
   47.7780   31.9030   43.2610 C   0  0  0  0  0  0  0  0  0  0  0  0
   48.3530   30.6840   43.6360 C   0  0  0  0  0  0  0  0  0  0  0  0
   48.1170   30.2410   44.8740 C   0  0  0  0  0  0  0  0  0  0  0  0
   47.3090   30.9950   45.7580 C   0  0  0  0  0  0  0  0  0  0  0  0
   46.8480   32.4530   44.7580 S   0  0  0  0  0  0  0  0  0  0  0  0
   48.9650   30.1190   42.9480 H   0  0  0  0  0  0  0  0  0  0  0  0
   48.4760   29.3330   45.3290 H   0  0  0  0  0  0  0  0  0  0  0  0
   48.6860   32.7630   39.7460 C   0  0  0  0  0  0  0  0  0  0  0  0
   48.0640   34.0090   39.6240 C   0  0  0  0  0  0  0  0  0  0  0  0
   47.3580   34.4860   40.7340 C   0  0  0  0  0  0  0  0  0  0  0  0
   47.3160   33.7170   41.8710 N   0  0  0  0  0  0  0  0  0  0  0  0
   47.9310   32.5260   41.9390 C   0  0  0  0  0  0  0  0  0  0  0  0
   48.6200   32.0450   40.8700 N   0  0  0  0  0  0  0  0  0  0  0  0
   49.2480   32.3450   38.9120 H   0  0  0  0  0  0  0  0  0  0  0  0
   48.1190   34.5820   38.7250 H   0  0  0  0  0  0  0  0  0  0  0  0
   46.8620   35.4350   40.6990 H   0  0  0  0  0  0  0  0  0  0  0  0
   45.0700   29.3470   46.2830 C   0  0  0  0  0  0  0  0  0  0  0  0
   45.5170   28.2300   46.5290 O   0  0  0  0  0  0  0  0  0  0  0  0
   44.3590   29.0160   45.0880 C   0  0  0  0  0  0  0  0  0  0  0  0
   43.0700   28.4440   45.0320 C   0  0  0  0  0  3  0  0  0  0  0  0
   42.3560   28.0470   43.9260 C   0  0  0  0  0  0  0  0  0  0  0  0
   41.3790   27.6250   44.0390 H   0  0  0  0  0  0  0  0  0  0  0  0
   42.9760   28.2320   42.7580 N   0  0  0  0  0  0  0  0  0  0  0  0
   44.1920   28.7650   42.7050 C   0  0  0  0  0  3  0  0  0  0  0  0
   44.7860   29.1100   43.8280 N   0  0  0  0  0  0  0  0  0  0  0  0
  1  6  1  0  0  0  0
  1  7  1  1  0  0  0
  1  2  1  0  0  0  0
  2  8  1  0  0  0  0
  2  3  1  0  0  0  0
  3  4  1  0  0  0  0
  3 11  1  0  0  0  0
  4 13  1  0  0  0  0
  4 12  1  0  0  0  0
  5 15  1  0  0  0  0
  5 14  1  0  0  0  0
  5  4  1  0  0  0  0
  6 16  1  6  0  0  0
  6  5  1  0  0  0  0
  9  2  1  0  0  0  0
 10  3  1  0  0  0  0
 17 18  2  0  0  0  0
 17 21  1  0  0  0  0
 18 19  1  0  0  0  0
 19 23  1  0  0  0  0
 19 20  2  0  0  0  0
 20  1  1  0  0  0  0
 21 20  1  0  0  0  0
 22 18  1  0  0  0  0
 24 29  1  0  0  0  0
 25 24  2  0  0  0  0
 25 26  1  0  0  0  0
 26 27  2  0  0  0  0
 27 28  1  0  0  0  0
 28 17  1  0  0  0  0
 29 28  2  0  0  0  0
 30 24  1  0  0  0  0
 31 25  1  0  0  0  0
 32 26  1  0  0  0  0
 33 34  2  0  0  0  0
 33  6  1  0  0  0  0
 35 33  1  0  0  0  0
 36 35  1  0  0  0  0
 37 38  1  0  0  0  0
 37 36  2  0  0  0  0
 39 37  1  0  0  0  0
 40 39  2  0  0  0  0
 40 41  1  0  0  0  0
 41 35  2  0  0  0  0
M  END
>  <minimizedAffinity>
-4.87951136

>  <minimizedRMSD>
6.1768961

$$$$
