
 OpenBabel03252507593D

 27 29  0  0  1  0  0  0  0  0999 V2000
   46.6240   34.7650   43.0980 C   0  0  0  0  0  0  0  0  0  0  0  0
   45.5750   35.7160   43.2840 C   0  0  0  0  0  0  0  0  0  0  0  0
   44.7460   35.5230   44.3960 C   0  0  0  0  0  0  0  0  0  0  0  0
   44.9900   34.4650   45.2080 N   0  0  0  0  0  0  0  0  0  0  0  0
   46.0180   33.5910   44.9630 C   0  0  0  0  0  0  0  0  0  0  0  0
   46.8380   33.7130   43.9340 N   0  0  0  0  0  0  0  0  0  0  0  0
   45.4430   36.5230   42.6070 H   0  0  0  0  0  0  0  0  0  0  0  0
   43.9360   36.2000   44.6000 H   0  0  0  0  0  0  0  0  0  0  0  0
   46.2280   32.4580   45.9140 C   0  0  1  0  0  0  0  0  0  0  0  0
   46.9730   32.7090   47.2060 C   0  0  0  0  0  0  0  0  0  0  0  0
   45.4770   32.5680   47.1820 C   0  0  1  0  0  0  0  0  0  0  0  0
   46.3260   31.4620   45.4490 H   0  0  0  0  0  0  0  0  0  0  0  0
   47.4490   33.7200   47.2370 H   0  0  0  0  0  0  0  0  0  0  0  0
   47.6250   31.8650   47.5070 H   0  0  0  0  0  0  0  0  0  0  0  0
   45.1110   31.6720   47.7280 H   0  0  0  0  0  0  0  0  0  0  0  0
   44.8120   33.8370   47.5120 N   0  0  0  0  0  0  0  0  0  0  0  0
   43.8150   33.6860   47.7940 H   0  0  0  0  0  0  0  0  0  0  0  0
   45.3730   34.3170   48.2440 H   0  0  0  0  0  0  0  0  0  0  0  0
   47.4570   35.0060   41.9480 C   0  0  0  0  0  0  0  0  0  0  0  0
   48.4740   35.7820   41.9650 O   0  0  0  0  0  0  0  0  0  0  0  0
   47.1680   34.3570   40.6720 C   0  0  0  0  0  0  0  0  0  0  0  0
   48.0780   34.3960   39.6380 C   0  0  0  0  0  3  0  0  0  0  0  0
   47.7650   33.7710   38.4580 C   0  0  0  0  0  0  0  0  0  0  0  0
   48.4710   33.7960   37.6390 H   0  0  0  0  0  0  0  0  0  0  0  0
   46.5880   33.1460   38.3530 N   0  0  0  0  0  0  0  0  0  0  0  0
   45.6790   33.0870   39.3390 C   0  0  0  0  0  3  0  0  0  0  0  0
   46.0050   33.7060   40.4880 N   0  0  0  0  0  0  0  0  0  0  0  0
  1  2  2  0  0  0  0
  1  6  1  0  0  0  0
  2  3  1  0  0  0  0
  3  8  1  0  0  0  0
  3  4  2  0  0  0  0
  5  4  1  0  0  0  0
  5  9  1  0  0  0  0
  6  5  2  0  0  0  0
  7  2  1  0  0  0  0
  9 12  1  6  0  0  0
  9 11  1  0  0  0  0
  9 10  1  0  0  0  0
 10 13  1  0  0  0  0
 10 14  1  0  0  0  0
 11 10  1  0  0  0  0
 11 16  1  0  0  0  0
 11 15  1  1  0  0  0
 16 17  1  0  0  0  0
 16 18  1  0  0  0  0
 19 20  2  0  0  0  0
 19  1  1  0  0  0  0
 21 19  1  0  0  0  0
 22 21  2  0  0  0  0
 23 22  1  0  0  0  0
 24 23  1  0  0  0  0
 25 23  2  0  0  0  0
 25 26  1  0  0  0  0
 26 27  2  0  0  0  0
 27 21  1  0  0  0  0
M  END
>  <minimizedAffinity>
-5.60435343

>  <minimizedRMSD>
1.03305674

$$$$
