
 OpenBabel03252507593D

 27 29  0  0  1  0  0  0  0  0999 V2000
   46.3040   34.7660   43.2290 C   0  0  0  0  0  0  0  0  0  0  0  0
   45.3530   35.7970   43.5000 C   0  0  0  0  0  0  0  0  0  0  0  0
   44.6340   35.6850   44.6980 C   0  0  0  0  0  0  0  0  0  0  0  0
   44.8830   34.6240   45.5040 N   0  0  0  0  0  0  0  0  0  0  0  0
   45.8120   33.6710   45.1750 C   0  0  0  0  0  0  0  0  0  0  0  0
   46.5260   33.7150   44.0640 N   0  0  0  0  0  0  0  0  0  0  0  0
   45.2110   36.6000   42.8230 H   0  0  0  0  0  0  0  0  0  0  0  0
   43.9020   36.4240   44.9680 H   0  0  0  0  0  0  0  0  0  0  0  0
   46.0380   32.5410   46.1260 C   0  0  1  0  0  0  0  0  0  0  0  0
   46.8250   32.7890   47.3920 C   0  0  0  0  0  0  0  0  0  0  0  0
   45.3270   32.6670   47.4150 C   0  0  1  0  0  0  0  0  0  0  0  0
   46.1090   31.5410   45.6630 H   0  0  0  0  0  0  0  0  0  0  0  0
   47.3150   33.7940   47.4030 H   0  0  0  0  0  0  0  0  0  0  0  0
   47.4760   31.9390   47.6780 H   0  0  0  0  0  0  0  0  0  0  0  0
   44.9670   31.7790   47.9770 H   0  0  0  0  0  0  0  0  0  0  0  0
   44.6890   33.9460   47.7580 N   0  0  0  0  0  0  0  0  0  0  0  0
   43.7000   33.8100   48.0710 H   0  0  0  0  0  0  0  0  0  0  0  0
   45.2780   34.4230   48.4700 H   0  0  0  0  0  0  0  0  0  0  0  0
   47.0260   34.9260   41.9940 C   0  0  0  0  0  0  0  0  0  0  0  0
   48.0770   35.6470   41.8810 O   0  0  0  0  0  0  0  0  0  0  0  0
   46.5780   34.2510   40.7790 C   0  0  0  0  0  0  0  0  0  0  0  0
   47.4640   33.9620   39.7630 C   0  0  0  0  0  3  0  0  0  0  0  0
   46.9990   33.3270   38.6400 C   0  0  0  0  0  0  0  0  0  0  0  0
   47.6840   33.0950   37.8380 H   0  0  0  0  0  0  0  0  0  0  0  0
   45.7020   33.0090   38.5720 N   0  0  0  0  0  0  0  0  0  0  0  0
   44.8120   33.2740   39.5400 C   0  0  0  0  0  3  0  0  0  0  0  0
   45.2880   33.8980   40.6330 N   0  0  0  0  0  0  0  0  0  0  0  0
  1  2  2  0  0  0  0
  1  6  1  0  0  0  0
  2  3  1  0  0  0  0
  3  8  1  0  0  0  0
  3  4  2  0  0  0  0
  5  4  1  0  0  0  0
  5  9  1  0  0  0  0
  6  5  2  0  0  0  0
  7  2  1  0  0  0  0
  9 12  1  6  0  0  0
  9 10  1  0  0  0  0
  9 11  1  0  0  0  0
 10 13  1  0  0  0  0
 10 11  1  0  0  0  0
 10 14  1  0  0  0  0
 11 16  1  0  0  0  0
 11 15  1  1  0  0  0
 16 17  1  0  0  0  0
 16 18  1  0  0  0  0
 19  1  1  0  0  0  0
 20 19  2  0  0  0  0
 21 19  1  0  0  0  0
 22 21  2  0  0  0  0
 23 22  1  0  0  0  0
 24 23  1  0  0  0  0
 25 23  2  0  0  0  0
 25 26  1  0  0  0  0
 26 27  2  0  0  0  0
 27 21  1  0  0  0  0
M  END
>  <minimizedAffinity>
-5.58617926

>  <minimizedRMSD>
0.598440409

$$$$
