
 OpenBabel03242510243D

 36 39  0  0  1  0  0  0  0  0999 V2000
   39.3540   31.2940   39.9020 N   0  0  0  0  0  0  0  0  0  0  0  0
   39.9860   31.4200   41.1370 C   0  0  0  0  0  0  0  0  0  0  0  0
   40.8010   32.2800   41.5590 O   0  0  0  0  0  0  0  0  0  0  0  0
   39.3400   30.2850   39.5800 H   0  0  0  0  0  0  0  0  0  0  0  0
   37.3570   32.3810   38.9390 C   0  0  1  0  0  0  0  0  0  0  0  0
   37.7450   33.1800   40.0210 C   0  0  0  0  0  0  0  0  0  0  0  0
   38.8160   32.4040   39.1960 C   0  0  1  0  0  0  0  0  0  0  0  0
   36.9910   32.7930   37.9750 H   0  0  0  0  0  0  0  0  0  0  0  0
   37.7080   32.9620   41.1060 H   0  0  0  0  0  0  0  0  0  0  0  0
   37.7770   34.3030   39.8690 H   0  0  0  0  0  0  0  0  0  0  0  0
   39.5370   33.0910   38.7230 H   0  0  0  0  0  0  0  0  0  0  0  0
   36.1910   30.7080   40.5560 C   0  0  0  0  0  0  0  0  0  0  0  0
   36.6490   31.0530   39.2410 C   0  0  0  0  0  0  0  0  0  0  0  0
   36.4490   30.1300   38.2330 C   0  0  0  0  0  0  0  0  0  0  0  0
   35.8400   28.9610   38.5360 N   0  0  0  0  0  0  0  0  0  0  0  0
   35.4140   28.6460   39.7750 C   0  0  0  0  0  0  0  0  0  0  0  0
   35.6000   29.5590   40.8230 N   0  0  0  0  0  0  0  0  0  0  0  0
   36.3310   31.4390   41.3290 H   0  0  0  0  0  0  0  0  0  0  0  0
   36.7830   30.3670   37.2450 H   0  0  0  0  0  0  0  0  0  0  0  0
   34.9290   27.7030   39.9890 H   0  0  0  0  0  0  0  0  0  0  0  0
   39.6990   30.3960   42.2200 C   0  0  2  0  0  0  0  0  0  0  0  0
   40.7940   29.2810   42.4320 C   0  0  0  0  0  0  0  0  0  0  0  0
   39.4300   28.9920   41.8930 C   0  0  1  0  0  0  0  0  0  0  0  0
   39.3750   30.7810   43.2080 H   0  0  0  0  0  0  0  0  0  0  0  0
   41.5990   29.3490   41.6670 H   0  0  0  0  0  0  0  0  0  0  0  0
   41.0700   29.0330   43.4520 H   0  0  0  0  0  0  0  0  0  0  0  0
   39.2340   28.8380   40.8080 H   0  0  0  0  0  0  0  0  0  0  0  0
   38.4660   28.2480   42.7930 C   0  0  0  0  0  0  0  0  0  0  0  0
   37.8460   28.8560   43.6570 O   0  0  0  0  0  0  0  0  0  0  0  0
   38.2840   26.8060   42.6220 C   0  0  0  0  0  0  0  0  0  0  0  0
   37.0780   26.3030   42.2620 C   0  0  0  0  0  3  0  0  0  0  0  0
   36.9890   24.9280   42.1210 C   0  0  0  0  0  0  0  0  0  0  0  0
   36.0180   24.5150   41.8310 H   0  0  0  0  0  0  0  0  0  0  0  0
   38.0560   24.1380   42.3340 N   0  0  0  0  0  0  0  0  0  0  0  0
   39.2610   24.6410   42.6940 C   0  0  0  0  0  3  0  0  0  0  0  0
   39.3260   25.9780   42.8260 N   0  0  0  0  0  0  0  0  0  0  0  0
  1  2  1  0  0  0  0
  2  3  2  0  0  0  0
  2 21  1  0  0  0  0
  4  1  1  0  0  0  0
  5  8  1  6  0  0  0
  5  7  1  0  0  0  0
  5 13  1  0  0  0  0
  5  6  1  0  0  0  0
  6  9  1  0  0  0  0
  7 11  1  6  0  0  0
  7  1  1  0  0  0  0
  7  6  1  0  0  0  0
 10  6  1  0  0  0  0
 12 17  1  0  0  0  0
 12 18  1  0  0  0  0
 13 12  2  0  0  0  0
 14 15  2  0  0  0  0
 14 13  1  0  0  0  0
 15 16  1  0  0  0  0
 16 20  1  0  0  0  0
 16 17  2  0  0  0  0
 19 14  1  0  0  0  0
 21 22  1  0  0  0  0
 21 24  1  1  0  0  0
 22 26  1  0  0  0  0
 23 27  1  6  0  0  0
 23 21  1  0  0  0  0
 23 22  1  0  0  0  0
 23 28  1  0  0  0  0
 25 22  1  0  0  0  0
 28 29  2  0  0  0  0
 30 28  1  0  0  0  0
 30 36  1  0  0  0  0
 31 30  2  0  0  0  0
 32 31  1  0  0  0  0
 32 34  2  0  0  0  0
 33 32  1  0  0  0  0
 34 35  1  0  0  0  0
 35 36  2  0  0  0  0
M  END
>  <minimizedAffinity>
-5.41563797

$$$$

 OpenBabel03242510243D

 36 39  0  0  1  0  0  0  0  0999 V2000
   37.5670   29.8460   39.7950 N   0  0  0  0  0  0  0  0  0  0  0  0
   36.9240   29.8890   41.0310 C   0  0  0  0  0  0  0  0  0  0  0  0
   36.0800   30.7000   41.4890 O   0  0  0  0  0  0  0  0  0  0  0  0
   38.5910   29.5990   39.9050 H   0  0  0  0  0  0  0  0  0  0  0  0
   37.2460   31.3770   37.8840 C   0  0  1  0  0  0  0  0  0  0  0  0
   37.8770   30.2400   37.3650 C   0  0  0  0  0  0  0  0  0  0  0  0
   36.8970   30.1110   38.5700 C   0  0  1  0  0  0  0  0  0  0  0  0
   36.4370   31.9230   37.3550 H   0  0  0  0  0  0  0  0  0  0  0  0
   38.9080   29.8700   37.5280 H   0  0  0  0  0  0  0  0  0  0  0  0
   37.4740   29.8020   36.4000 H   0  0  0  0  0  0  0  0  0  0  0  0
   36.0370   29.4680   38.3230 H   0  0  0  0  0  0  0  0  0  0  0  0
   39.5300   32.3390   38.6820 C   0  0  0  0  0  0  0  0  0  0  0  0
   38.0950   32.3630   38.6990 C   0  0  0  0  0  0  0  0  0  0  0  0
   37.4820   33.3050   39.5020 C   0  0  0  0  0  0  0  0  0  0  0  0
   38.2580   34.1470   40.2220 N   0  0  0  0  0  0  0  0  0  0  0  0
   39.6050   34.1160   40.1990 C   0  0  0  0  0  0  0  0  0  0  0  0
   40.2620   33.1720   39.3960 N   0  0  0  0  0  0  0  0  0  0  0  0
   39.9970   31.6180   38.0390 H   0  0  0  0  0  0  0  0  0  0  0  0
   36.4140   33.3410   39.5300 H   0  0  0  0  0  0  0  0  0  0  0  0
   40.2020   34.8010   40.7870 H   0  0  0  0  0  0  0  0  0  0  0  0
   37.2270   28.8130   42.0580 C   0  0  2  0  0  0  0  0  0  0  0  0
   38.1540   29.2400   43.2600 C   0  0  0  0  0  0  0  0  0  0  0  0
   38.5770   28.2620   42.2110 C   0  0  1  0  0  0  0  0  0  0  0  0
   36.3690   28.2300   42.4480 H   0  0  0  0  0  0  0  0  0  0  0  0
   38.5450   30.2730   43.1270 H   0  0  0  0  0  0  0  0  0  0  0  0
   37.8660   28.9210   44.2570 H   0  0  0  0  0  0  0  0  0  0  0  0
   39.2480   28.5400   41.3680 H   0  0  0  0  0  0  0  0  0  0  0  0
   38.6840   26.8070   42.6170 C   0  0  0  0  0  0  0  0  0  0  0  0
   39.2130   26.5080   43.6800 O   0  0  0  0  0  0  0  0  0  0  0  0
   38.1530   25.7690   41.7320 C   0  0  0  0  0  0  0  0  0  0  0  0
   37.0980   25.0100   42.1170 C   0  0  0  0  0  3  0  0  0  0  0  0
   36.6550   24.0500   41.2220 C   0  0  0  0  0  0  0  0  0  0  0  0
   35.8050   23.4330   41.5270 H   0  0  0  0  0  0  0  0  0  0  0  0
   37.2530   23.8870   40.0280 N   0  0  0  0  0  0  0  0  0  0  0  0
   38.3070   24.6460   39.6440 C   0  0  0  0  0  3  0  0  0  0  0  0
   38.7200   25.5710   40.5270 N   0  0  0  0  0  0  0  0  0  0  0  0
  1  4  1  0  0  0  0
  1  2  1  0  0  0  0
  2  3  2  0  0  0  0
  2 21  1  0  0  0  0
  5  8  1  6  0  0  0
  5  7  1  0  0  0  0
  5 13  1  0  0  0  0
  6  9  1  0  0  0  0
  6  5  1  0  0  0  0
  6  7  1  0  0  0  0
  7 11  1  6  0  0  0
  7  1  1  0  0  0  0
 10  6  1  0  0  0  0
 12 13  2  0  0  0  0
 12 17  1  0  0  0  0
 13 14  1  0  0  0  0
 14 19  1  0  0  0  0
 14 15  2  0  0  0  0
 16 15  1  0  0  0  0
 16 20  1  0  0  0  0
 17 16  2  0  0  0  0
 18 12  1  0  0  0  0
 21 23  1  0  0  0  0
 21 24  1  1  0  0  0
 21 22  1  0  0  0  0
 22 26  1  0  0  0  0
 23 27  1  6  0  0  0
 23 28  1  0  0  0  0
 23 22  1  0  0  0  0
 25 22  1  0  0  0  0
 28 29  2  0  0  0  0
 30 31  1  0  0  0  0
 30 28  1  0  0  0  0
 32 33  1  0  0  0  0
 32 31  2  0  0  0  0
 34 32  1  0  0  0  0
 35 34  2  0  0  0  0
 35 36  1  0  0  0  0
 36 30  2  0  0  0  0
M  END
>  <minimizedAffinity>
-5.30217171

$$$$

 OpenBabel03242510243D

 36 39  0  0  1  0  0  0  0  0999 V2000
   37.0040   28.5610   41.2820 N   0  0  0  0  0  0  0  0  0  0  0  0
   35.9420   29.0480   40.5220 C   0  0  0  0  0  0  0  0  0  0  0  0
   34.7010   28.9190   40.6680 O   0  0  0  0  0  0  0  0  0  0  0  0
   37.7860   28.2020   40.6620 H   0  0  0  0  0  0  0  0  0  0  0  0
   37.5940   27.3790   43.3680 C   0  0  1  0  0  0  0  0  0  0  0  0
   38.4290   28.5000   43.3120 C   0  0  0  0  0  0  0  0  0  0  0  0
   36.9960   28.5600   42.7020 C   0  0  1  0  0  0  0  0  0  0  0  0
   37.1210   27.0140   44.3040 H   0  0  0  0  0  0  0  0  0  0  0  0
   39.2660   28.7220   42.6210 H   0  0  0  0  0  0  0  0  0  0  0  0
   38.5510   29.1200   44.2530 H   0  0  0  0  0  0  0  0  0  0  0  0
   36.3790   29.3270   43.1980 H   0  0  0  0  0  0  0  0  0  0  0  0
   36.9640   25.1590   42.1620 C   0  0  0  0  0  0  0  0  0  0  0  0
   37.9180   26.1920   42.4500 C   0  0  0  0  0  0  0  0  0  0  0  0
   39.1720   26.0770   41.8830 C   0  0  0  0  0  0  0  0  0  0  0  0
   39.4330   25.0100   41.0950 N   0  0  0  0  0  0  0  0  0  0  0  0
   38.5290   24.0450   40.8310 C   0  0  0  0  0  0  0  0  0  0  0  0
   37.2450   24.1280   41.3900 N   0  0  0  0  0  0  0  0  0  0  0  0
   35.9850   25.2670   42.5900 H   0  0  0  0  0  0  0  0  0  0  0  0
   39.8990   26.8350   42.0840 H   0  0  0  0  0  0  0  0  0  0  0  0
   38.7650   23.2010   40.1970 H   0  0  0  0  0  0  0  0  0  0  0  0
   36.2400   29.8910   39.2950 C   0  0  2  0  0  0  0  0  0  0  0  0
   36.6760   29.1050   37.9990 C   0  0  0  0  0  0  0  0  0  0  0  0
   37.5990   30.0050   38.7570 C   0  0  1  0  0  0  0  0  0  0  0  0
   35.4940   30.6630   39.0190 H   0  0  0  0  0  0  0  0  0  0  0  0
   36.8030   28.0190   38.2040 H   0  0  0  0  0  0  0  0  0  0  0  0
   36.2330   29.4040   37.0540 H   0  0  0  0  0  0  0  0  0  0  0  0
   38.3690   29.6190   39.4610 H   0  0  0  0  0  0  0  0  0  0  0  0
   37.9750   31.3230   38.1110 C   0  0  0  0  0  0  0  0  0  0  0  0
   37.6780   31.5350   36.9420 O   0  0  0  0  0  0  0  0  0  0  0  0
   38.6920   32.3310   38.8920 C   0  0  0  0  0  0  0  0  0  0  0  0
   38.0390   33.0800   39.8140 C   0  0  0  0  0  3  0  0  0  0  0  0
   38.7890   34.0120   40.5110 C   0  0  0  0  0  0  0  0  0  0  0  0
   38.2680   34.6200   41.2560 H   0  0  0  0  0  0  0  0  0  0  0  0
   40.1050   34.1600   40.2750 N   0  0  0  0  0  0  0  0  0  0  0  0
   40.7580   33.4120   39.3540 C   0  0  0  0  0  3  0  0  0  0  0  0
   40.0110   32.5130   38.6880 N   0  0  0  0  0  0  0  0  0  0  0  0
  1  7  1  0  0  0  0
  2  3  2  0  0  0  0
  2  1  1  0  0  0  0
  4  1  1  0  0  0  0
  5  8  1  1  0  0  0
  6  5  1  0  0  0  0
  6 10  1  0  0  0  0
  7 11  1  1  0  0  0
  7  6  1  0  0  0  0
  7  5  1  0  0  0  0
  9  6  1  0  0  0  0
 12 13  1  0  0  0  0
 12 18  1  0  0  0  0
 13  5  1  0  0  0  0
 14 19  1  0  0  0  0
 14 13  2  0  0  0  0
 15 14  1  0  0  0  0
 16 15  2  0  0  0  0
 16 17  1  0  0  0  0
 17 12  2  0  0  0  0
 20 16  1  0  0  0  0
 21 24  1  6  0  0  0
 21  2  1  0  0  0  0
 22 25  1  0  0  0  0
 22 23  1  0  0  0  0
 22 21  1  0  0  0  0
 23 21  1  0  0  0  0
 23 27  1  1  0  0  0
 26 22  1  0  0  0  0
 28 23  1  0  0  0  0
 28 30  1  0  0  0  0
 29 28  2  0  0  0  0
 30 31  1  0  0  0  0
 31 32  2  0  0  0  0
 32 33  1  0  0  0  0
 34 32  1  0  0  0  0
 35 34  2  0  0  0  0
 36 30  2  0  0  0  0
 36 35  1  0  0  0  0
M  END
>  <minimizedAffinity>
-5.17836714

$$$$

 OpenBabel03242510243D

 36 39  0  0  1  0  0  0  0  0999 V2000
   36.9040   28.6570   41.3930 N   0  0  0  0  0  0  0  0  0  0  0  0
   35.9300   29.3270   40.6550 C   0  0  0  0  0  0  0  0  0  0  0  0
   34.7250   29.0420   40.4370 O   0  0  0  0  0  0  0  0  0  0  0  0
   37.8370   28.6610   40.8900 H   0  0  0  0  0  0  0  0  0  0  0  0
   37.1970   26.7030   42.8740 C   0  0  1  0  0  0  0  0  0  0  0  0
   37.9350   27.7410   43.4560 C   0  0  0  0  0  0  0  0  0  0  0  0
   36.6370   28.0570   42.6530 C   0  0  1  0  0  0  0  0  0  0  0  0
   36.5940   25.9780   43.4590 H   0  0  0  0  0  0  0  0  0  0  0  0
   38.8630   28.2300   43.1020 H   0  0  0  0  0  0  0  0  0  0  0  0
   37.8320   27.9050   44.5730 H   0  0  0  0  0  0  0  0  0  0  0  0
   35.8790   28.5450   43.2870 H   0  0  0  0  0  0  0  0  0  0  0  0
   36.9590   25.3150   40.6850 C   0  0  0  0  0  0  0  0  0  0  0  0
   37.7800   26.0130   41.6320 C   0  0  0  0  0  0  0  0  0  0  0  0
   39.1420   26.0330   41.4040 C   0  0  0  0  0  0  0  0  0  0  0  0
   39.6250   25.4000   40.3110 N   0  0  0  0  0  0  0  0  0  0  0  0
   38.8460   24.7460   39.4280 C   0  0  0  0  0  0  0  0  0  0  0  0
   37.4580   24.7040   39.6270 N   0  0  0  0  0  0  0  0  0  0  0  0
   35.9000   25.3230   40.8580 H   0  0  0  0  0  0  0  0  0  0  0  0
   39.7720   26.5480   42.0970 H   0  0  0  0  0  0  0  0  0  0  0  0
   39.2600   24.2470   38.5610 H   0  0  0  0  0  0  0  0  0  0  0  0
   36.2930   30.6310   39.9670 C   0  0  2  0  0  0  0  0  0  0  0  0
   36.5940   30.5420   38.4220 C   0  0  0  0  0  0  0  0  0  0  0  0
   37.6400   30.8680   39.4400 C   0  0  1  0  0  0  0  0  0  0  0  0
   35.6380   31.5040   40.1620 H   0  0  0  0  0  0  0  0  0  0  0  0
   36.5940   29.4880   38.0660 H   0  0  0  0  0  0  0  0  0  0  0  0
   36.1630   31.3050   37.7800 H   0  0  0  0  0  0  0  0  0  0  0  0
   38.3770   30.1170   39.8030 H   0  0  0  0  0  0  0  0  0  0  0  0
   38.1540   32.2920   39.4810 C   0  0  0  0  0  0  0  0  0  0  0  0
   37.4800   33.1680   40.0070 O   0  0  0  0  0  0  0  0  0  0  0  0
   39.4550   32.6070   38.8900 C   0  0  0  0  0  0  0  0  0  0  0  0
   39.8940   31.9380   37.7960 C   0  0  0  0  0  3  0  0  0  0  0  0
   41.1360   32.2960   37.2980 C   0  0  0  0  0  0  0  0  0  0  0  0
   41.4970   31.7590   36.4150 H   0  0  0  0  0  0  0  0  0  0  0  0
   41.8650   33.2640   37.8810 N   0  0  0  0  0  0  0  0  0  0  0  0
   41.4260   33.9330   38.9740 C   0  0  0  0  0  3  0  0  0  0  0  0
   40.2180   33.5700   39.4420 N   0  0  0  0  0  0  0  0  0  0  0  0
  1  7  1  0  0  0  0
  2  1  1  0  0  0  0
  3  2  2  0  0  0  0
  4  1  1  0  0  0  0
  5  6  1  0  0  0  0
  5  8  1  1  0  0  0
  6 10  1  0  0  0  0
  7  5  1  0  0  0  0
  7 11  1  1  0  0  0
  7  6  1  0  0  0  0
  9  6  1  0  0  0  0
 12 18  1  0  0  0  0
 12 13  1  0  0  0  0
 13  5  1  0  0  0  0
 14 13  2  0  0  0  0
 14 19  1  0  0  0  0
 15 14  1  0  0  0  0
 16 17  1  0  0  0  0
 16 15  2  0  0  0  0
 17 12  2  0  0  0  0
 20 16  1  0  0  0  0
 21 24  1  1  0  0  0
 21  2  1  0  0  0  0
 22 23  1  0  0  0  0
 22 21  1  0  0  0  0
 23 28  1  0  0  0  0
 23 27  1  1  0  0  0
 23 21  1  0  0  0  0
 25 22  1  0  0  0  0
 26 22  1  0  0  0  0
 28 29  2  0  0  0  0
 30 36  1  0  0  0  0
 30 28  1  0  0  0  0
 31 30  2  0  0  0  0
 32 31  1  0  0  0  0
 32 34  2  0  0  0  0
 33 32  1  0  0  0  0
 34 35  1  0  0  0  0
 35 36  2  0  0  0  0
M  END
>  <minimizedAffinity>
-5.13617992

$$$$

 OpenBabel03242510243D

 36 39  0  0  1  0  0  0  0  0999 V2000
   36.5960   30.1610   39.6970 N   0  0  0  0  0  0  0  0  0  0  0  0
   35.7380   29.3100   40.3910 C   0  0  0  0  0  0  0  0  0  0  0  0
   34.5120   29.0760   40.2370 O   0  0  0  0  0  0  0  0  0  0  0  0
   37.2420   30.6770   40.3590 H   0  0  0  0  0  0  0  0  0  0  0  0
   37.4530   31.3280   37.6970 C   0  0  1  0  0  0  0  0  0  0  0  0
   37.9610   30.0260   37.6290 C   0  0  0  0  0  0  0  0  0  0  0  0
   36.5710   30.2920   38.2820 C   0  0  1  0  0  0  0  0  0  0  0  0
   37.0830   31.8880   36.8120 H   0  0  0  0  0  0  0  0  0  0  0  0
   38.7170   29.5300   38.2680 H   0  0  0  0  0  0  0  0  0  0  0  0
   37.9020   29.4830   36.6360 H   0  0  0  0  0  0  0  0  0  0  0  0
   35.7660   29.7630   37.7470 H   0  0  0  0  0  0  0  0  0  0  0  0
   39.4570   32.1730   39.1280 C   0  0  0  0  0  0  0  0  0  0  0  0
   38.0930   32.3000   38.6990 C   0  0  0  0  0  0  0  0  0  0  0  0
   37.3480   33.3300   39.2370 C   0  0  0  0  0  0  0  0  0  0  0  0
   37.9360   34.1570   40.1320 N   0  0  0  0  0  0  0  0  0  0  0  0
   39.2170   34.0290   40.5290 C   0  0  0  0  0  0  0  0  0  0  0  0
   40.0050   32.9940   40.0040 N   0  0  0  0  0  0  0  0  0  0  0  0
   40.0350   31.3830   38.6890 H   0  0  0  0  0  0  0  0  0  0  0  0
   36.3300   33.4430   38.9320 H   0  0  0  0  0  0  0  0  0  0  0  0
   39.6620   34.7050   41.2470 H   0  0  0  0  0  0  0  0  0  0  0  0
   36.2880   28.4840   41.5400 C   0  0  2  0  0  0  0  0  0  0  0  0
   37.1690   29.2580   42.5940 C   0  0  0  0  0  0  0  0  0  0  0  0
   37.7240   28.2200   41.6720 C   0  0  1  0  0  0  0  0  0  0  0  0
   35.5760   27.8230   42.0740 H   0  0  0  0  0  0  0  0  0  0  0  0
   37.3480   30.3110   42.2820 H   0  0  0  0  0  0  0  0  0  0  0  0
   36.9920   29.0530   43.6460 H   0  0  0  0  0  0  0  0  0  0  0  0
   38.2910   28.4800   40.7500 H   0  0  0  0  0  0  0  0  0  0  0  0
   38.1270   26.8920   42.2770 C   0  0  0  0  0  0  0  0  0  0  0  0
   37.2790   26.0320   42.4800 O   0  0  0  0  0  0  0  0  0  0  0  0
   39.5300   26.6480   42.6160 C   0  0  0  0  0  0  0  0  0  0  0  0
   40.3380   27.6740   42.9790 C   0  0  0  0  0  3  0  0  0  0  0  0
   41.6520   27.3600   43.2840 C   0  0  0  0  0  0  0  0  0  0  0  0
   42.3100   28.1830   43.5770 H   0  0  0  0  0  0  0  0  0  0  0  0
   42.0950   26.0910   43.2200 N   0  0  0  0  0  0  0  0  0  0  0  0
   41.2870   25.0660   42.8580 C   0  0  0  0  0  3  0  0  0  0  0  0
   40.0150   25.3930   42.5650 N   0  0  0  0  0  0  0  0  0  0  0  0
  1  4  1  0  0  0  0
  1  2  1  0  0  0  0
  2 21  1  0  0  0  0
  3  2  2  0  0  0  0
  5  8  1  6  0  0  0
  5  7  1  0  0  0  0
  5 13  1  0  0  0  0
  6  5  1  0  0  0  0
  6  9  1  0  0  0  0
  6  7  1  0  0  0  0
  7 11  1  6  0  0  0
  7  1  1  0  0  0  0
 10  6  1  0  0  0  0
 12 17  1  0  0  0  0
 13 12  2  0  0  0  0
 13 14  1  0  0  0  0
 14 15  2  0  0  0  0
 15 16  1  0  0  0  0
 16 20  1  0  0  0  0
 17 16  2  0  0  0  0
 18 12  1  0  0  0  0
 19 14  1  0  0  0  0
 21 23  1  0  0  0  0
 21 24  1  1  0  0  0
 21 22  1  0  0  0  0
 22 26  1  0  0  0  0
 23 27  1  6  0  0  0
 23 28  1  0  0  0  0
 23 22  1  0  0  0  0
 25 22  1  0  0  0  0
 28 29  2  0  0  0  0
 28 30  1  0  0  0  0
 30 31  1  0  0  0  0
 31 32  2  0  0  0  0
 32 33  1  0  0  0  0
 34 32  1  0  0  0  0
 35 34  2  0  0  0  0
 36 30  2  0  0  0  0
 36 35  1  0  0  0  0
M  END
>  <minimizedAffinity>
-5.09113359

$$$$

 OpenBabel03242510243D

 36 39  0  0  1  0  0  0  0  0999 V2000
   37.7810   25.7580   39.7240 N   0  0  0  0  0  0  0  0  0  0  0  0
   36.6530   26.1670   39.0150 C   0  0  0  0  0  0  0  0  0  0  0  0
   35.8600   25.5160   38.2880 O   0  0  0  0  0  0  0  0  0  0  0  0
   38.5680   26.4620   39.6320 H   0  0  0  0  0  0  0  0  0  0  0  0
   37.8020   24.6630   41.9370 C   0  0  1  0  0  0  0  0  0  0  0  0
   36.5700   24.3350   41.3580 C   0  0  0  0  0  0  0  0  0  0  0  0
   37.8280   24.5440   40.4610 C   0  0  1  0  0  0  0  0  0  0  0  0
   38.4100   23.9470   42.5290 H   0  0  0  0  0  0  0  0  0  0  0  0
   35.6990   24.9830   41.1410 H   0  0  0  0  0  0  0  0  0  0  0  0
   36.2250   23.2570   41.4170 H   0  0  0  0  0  0  0  0  0  0  0  0
   38.0790   23.6290   39.8990 H   0  0  0  0  0  0  0  0  0  0  0  0
   36.8690   26.9030   42.8790 C   0  0  0  0  0  0  0  0  0  0  0  0
   37.9810   26.0830   42.4930 C   0  0  0  0  0  0  0  0  0  0  0  0
   39.2460   26.6230   42.6190 C   0  0  0  0  0  0  0  0  0  0  0  0
   39.3690   27.8830   43.0940 N   0  0  0  0  0  0  0  0  0  0  0  0
   38.3180   28.6460   43.4530 C   0  0  0  0  0  0  0  0  0  0  0  0
   37.0180   28.1310   43.3390 N   0  0  0  0  0  0  0  0  0  0  0  0
   35.8920   26.4680   42.7990 H   0  0  0  0  0  0  0  0  0  0  0  0
   40.0890   26.0290   42.3370 H   0  0  0  0  0  0  0  0  0  0  0  0
   38.4460   29.6520   43.8300 H   0  0  0  0  0  0  0  0  0  0  0  0
   36.2340   27.6250   39.0740 C   0  0  2  0  0  0  0  0  0  0  0  0
   36.9080   28.5860   38.0210 C   0  0  0  0  0  0  0  0  0  0  0  0
   37.1690   28.6730   39.4900 C   0  0  1  0  0  0  0  0  0  0  0  0
   35.1460   27.8360   39.1170 H   0  0  0  0  0  0  0  0  0  0  0  0
   37.6920   28.0610   37.4320 H   0  0  0  0  0  0  0  0  0  0  0  0
   36.2700   29.3010   37.5100 H   0  0  0  0  0  0  0  0  0  0  0  0
   38.0900   28.2600   39.9610 H   0  0  0  0  0  0  0  0  0  0  0  0
   36.5890   29.8580   40.2340 C   0  0  0  0  0  0  0  0  0  0  0  0
   35.4860   29.7680   40.7580 O   0  0  0  0  0  0  0  0  0  0  0  0
   37.3530   31.1030   40.3190 C   0  0  0  0  0  0  0  0  0  0  0  0
   36.9340   32.2130   39.6630 C   0  0  0  0  0  3  0  0  0  0  0  0
   37.7140   33.3510   39.7950 C   0  0  0  0  0  0  0  0  0  0  0  0
   37.3820   34.2500   39.2680 H   0  0  0  0  0  0  0  0  0  0  0  0
   38.8330   33.3430   40.5410 N   0  0  0  0  0  0  0  0  0  0  0  0
   39.2500   32.2330   41.1960 C   0  0  0  0  0  3  0  0  0  0  0  0
   38.4800   31.1400   41.0550 N   0  0  0  0  0  0  0  0  0  0  0  0
  1  7  1  0  0  0  0
  2 21  1  0  0  0  0
  2  1  1  0  0  0  0
  3  2  2  0  0  0  0
  4  1  1  0  0  0  0
  5 13  1  0  0  0  0
  5  8  1  1  0  0  0
  6 10  1  0  0  0  0
  6  5  1  0  0  0  0
  7 11  1  6  0  0  0
  7  6  1  0  0  0  0
  7  5  1  0  0  0  0
  9  6  1  0  0  0  0
 12 17  1  0  0  0  0
 13 14  1  0  0  0  0
 13 12  2  0  0  0  0
 14 15  2  0  0  0  0
 15 16  1  0  0  0  0
 16 20  1  0  0  0  0
 17 16  2  0  0  0  0
 18 12  1  0  0  0  0
 19 14  1  0  0  0  0
 21 24  1  1  0  0  0
 21 23  1  0  0  0  0
 22 21  1  0  0  0  0
 22 23  1  0  0  0  0
 23 27  1  1  0  0  0
 23 28  1  0  0  0  0
 25 22  1  0  0  0  0
 26 22  1  0  0  0  0
 28 30  1  0  0  0  0
 28 29  2  0  0  0  0
 30 36  1  0  0  0  0
 31 32  1  0  0  0  0
 31 30  2  0  0  0  0
 32 34  2  0  0  0  0
 33 32  1  0  0  0  0
 34 35  1  0  0  0  0
 36 35  2  0  0  0  0
M  END
>  <minimizedAffinity>
-5.08108759

$$$$

 OpenBabel03242510243D

 36 39  0  0  1  0  0  0  0  0999 V2000
   37.9930   26.7480   41.1130 N   0  0  0  0  0  0  0  0  0  0  0  0
   37.0930   26.5930   40.0610 C   0  0  0  0  0  0  0  0  0  0  0  0
   36.3130   25.6480   39.7810 O   0  0  0  0  0  0  0  0  0  0  0  0
   38.9060   27.1690   40.7770 H   0  0  0  0  0  0  0  0  0  0  0  0
   38.0920   27.3240   43.5120 C   0  0  1  0  0  0  0  0  0  0  0  0
   36.7400   27.3920   43.1560 C   0  0  0  0  0  0  0  0  0  0  0  0
   37.6860   26.3750   42.4490 C   0  0  1  0  0  0  0  0  0  0  0  0
   38.4510   26.9050   44.4760 H   0  0  0  0  0  0  0  0  0  0  0  0
   36.2190   28.1170   42.5000 H   0  0  0  0  0  0  0  0  0  0  0  0
   35.9830   26.9070   43.8470 H   0  0  0  0  0  0  0  0  0  0  0  0
   37.3570   25.3360   42.6130 H   0  0  0  0  0  0  0  0  0  0  0  0
   40.4390   28.3250   42.9970 C   0  0  0  0  0  0  0  0  0  0  0  0
   39.0130   28.4690   43.0660 C   0  0  0  0  0  0  0  0  0  0  0  0
   38.4780   29.6980   42.7310 C   0  0  0  0  0  0  0  0  0  0  0  0
   39.3180   30.6910   42.3610 N   0  0  0  0  0  0  0  0  0  0  0  0
   40.6560   30.5460   42.3000 C   0  0  0  0  0  0  0  0  0  0  0  0
   41.2350   29.3120   42.6320 N   0  0  0  0  0  0  0  0  0  0  0  0
   40.8440   27.3610   43.2370 H   0  0  0  0  0  0  0  0  0  0  0  0
   37.4180   29.8270   42.7760 H   0  0  0  0  0  0  0  0  0  0  0  0
   41.3050   31.3590   42.0000 H   0  0  0  0  0  0  0  0  0  0  0  0
   36.9600   27.7030   39.0340 C   0  0  2  0  0  0  0  0  0  0  0  0
   38.1190   27.8080   37.9690 C   0  0  0  0  0  0  0  0  0  0  0  0
   37.8790   28.8450   39.0190 C   0  0  1  0  0  0  0  0  0  0  0  0
   35.9830   27.8030   38.5200 H   0  0  0  0  0  0  0  0  0  0  0  0
   38.9430   27.0940   38.1910 H   0  0  0  0  0  0  0  0  0  0  0  0
   37.8380   27.9690   36.9320 H   0  0  0  0  0  0  0  0  0  0  0  0
   38.4900   28.9110   39.9470 H   0  0  0  0  0  0  0  0  0  0  0  0
   37.3150   30.1770   38.5700 C   0  0  0  0  0  0  0  0  0  0  0  0
   36.3340   30.2070   37.8370 O   0  0  0  0  0  0  0  0  0  0  0  0
   37.9490   31.4180   39.0170 C   0  0  0  0  0  0  0  0  0  0  0  0
   37.2070   32.4080   39.5720 C   0  0  0  0  0  3  0  0  0  0  0  0
   37.8830   33.5500   39.9690 C   0  0  0  0  0  0  0  0  0  0  0  0
   37.2910   34.3530   40.4170 H   0  0  0  0  0  0  0  0  0  0  0  0
   39.2130   33.6620   39.8050 N   0  0  0  0  0  0  0  0  0  0  0  0
   39.9530   32.6720   39.2510 C   0  0  0  0  0  3  0  0  0  0  0  0
   39.2790   31.5730   38.8720 N   0  0  0  0  0  0  0  0  0  0  0  0
  1  7  1  0  0  0  0
  2  1  1  0  0  0  0
  3  2  2  0  0  0  0
  4  1  1  0  0  0  0
  5  8  1  1  0  0  0
  6  5  1  0  0  0  0
  6 10  1  0  0  0  0
  7 11  1  1  0  0  0
  7  6  1  0  0  0  0
  7  5  1  0  0  0  0
  9  6  1  0  0  0  0
 12 13  1  0  0  0  0
 12 18  1  0  0  0  0
 13  5  1  0  0  0  0
 14 19  1  0  0  0  0
 14 13  2  0  0  0  0
 15 14  1  0  0  0  0
 16 15  2  0  0  0  0
 16 17  1  0  0  0  0
 17 12  2  0  0  0  0
 20 16  1  0  0  0  0
 21 24  1  6  0  0  0
 21  2  1  0  0  0  0
 22 25  1  0  0  0  0
 22 23  1  0  0  0  0
 22 21  1  0  0  0  0
 23 21  1  0  0  0  0
 23 27  1  1  0  0  0
 26 22  1  0  0  0  0
 28 30  1  0  0  0  0
 28 23  1  0  0  0  0
 29 28  2  0  0  0  0
 30 31  1  0  0  0  0
 31 32  2  0  0  0  0
 32 33  1  0  0  0  0
 34 32  1  0  0  0  0
 35 34  2  0  0  0  0
 36 30  2  0  0  0  0
 36 35  1  0  0  0  0
M  END
>  <minimizedAffinity>
-5.01215696

$$$$

 OpenBabel03242510243D

 36 39  0  0  1  0  0  0  0  0999 V2000
   37.2060   29.0990   39.6460 N   0  0  0  0  0  0  0  0  0  0  0  0
   36.3250   28.6810   40.6420 C   0  0  0  0  0  0  0  0  0  0  0  0
   35.1250   28.9870   40.8560 O   0  0  0  0  0  0  0  0  0  0  0  0
   38.1710   29.2870   40.0430 H   0  0  0  0  0  0  0  0  0  0  0  0
   37.2790   30.4680   37.5930 C   0  0  1  0  0  0  0  0  0  0  0  0
   38.0380   29.3240   37.3190 C   0  0  0  0  0  0  0  0  0  0  0  0
   36.8190   29.2430   38.2870 C   0  0  1  0  0  0  0  0  0  0  0  0
   36.5940   30.9390   36.8560 H   0  0  0  0  0  0  0  0  0  0  0  0
   39.0160   29.0110   37.7340 H   0  0  0  0  0  0  0  0  0  0  0  0
   37.8700   28.7990   36.3290 H   0  0  0  0  0  0  0  0  0  0  0  0
   36.0510   28.5470   37.9110 H   0  0  0  0  0  0  0  0  0  0  0  0
   37.1050   32.4680   39.2500 C   0  0  0  0  0  0  0  0  0  0  0  0
   37.9010   31.5470   38.4900 C   0  0  0  0  0  0  0  0  0  0  0  0
   39.2740   31.6720   38.5740 C   0  0  0  0  0  0  0  0  0  0  0  0
   39.7910   32.6450   39.3590 N   0  0  0  0  0  0  0  0  0  0  0  0
   39.0330   33.5050   40.0670 C   0  0  0  0  0  0  0  0  0  0  0  0
   37.6350   33.4090   40.0070 N   0  0  0  0  0  0  0  0  0  0  0  0
   36.0390   32.3500   39.1960 H   0  0  0  0  0  0  0  0  0  0  0  0
   39.8870   30.9960   38.0170 H   0  0  0  0  0  0  0  0  0  0  0  0
   39.4730   34.2750   40.6870 H   0  0  0  0  0  0  0  0  0  0  0  0
   36.8060   27.6880   41.6840 C   0  0  2  0  0  0  0  0  0  0  0  0
   37.1700   28.2840   43.0970 C   0  0  0  0  0  0  0  0  0  0  0  0
   38.1890   27.7000   42.1710 C   0  0  1  0  0  0  0  0  0  0  0  0
   36.2040   26.7670   41.8200 H   0  0  0  0  0  0  0  0  0  0  0  0
   37.1150   29.3950   43.0990 H   0  0  0  0  0  0  0  0  0  0  0  0
   36.8220   27.7480   43.9760 H   0  0  0  0  0  0  0  0  0  0  0  0
   38.8560   28.3300   41.5410 H   0  0  0  0  0  0  0  0  0  0  0  0
   38.7970   26.3670   42.5520 C   0  0  0  0  0  0  0  0  0  0  0  0
   39.3100   26.2230   43.6540 O   0  0  0  0  0  0  0  0  0  0  0  0
   38.7650   25.2590   41.5960 C   0  0  0  0  0  0  0  0  0  0  0  0
   39.6710   25.1920   40.5900 C   0  0  0  0  0  3  0  0  0  0  0  0
   39.5730   24.1120   39.7280 C   0  0  0  0  0  0  0  0  0  0  0  0
   40.3010   24.0520   38.9130 H   0  0  0  0  0  0  0  0  0  0  0  0
   38.6190   23.1790   39.8910 N   0  0  0  0  0  0  0  0  0  0  0  0
   37.7140   23.2460   40.8970 C   0  0  0  0  0  3  0  0  0  0  0  0
   37.8260   24.3020   41.7220 N   0  0  0  0  0  0  0  0  0  0  0  0
  1  4  1  0  0  0  0
  1  2  1  0  0  0  0
  2  3  2  0  0  0  0
  2 21  1  0  0  0  0
  5  8  1  6  0  0  0
  5  7  1  0  0  0  0
  5 13  1  0  0  0  0
  6  5  1  0  0  0  0
  6  9  1  0  0  0  0
  6  7  1  0  0  0  0
  7 11  1  6  0  0  0
  7  1  1  0  0  0  0
 10  6  1  0  0  0  0
 12 17  1  0  0  0  0
 13 14  1  0  0  0  0
 13 12  2  0  0  0  0
 14 15  2  0  0  0  0
 15 16  1  0  0  0  0
 16 20  1  0  0  0  0
 17 16  2  0  0  0  0
 18 12  1  0  0  0  0
 19 14  1  0  0  0  0
 21 24  1  1  0  0  0
 21 23  1  0  0  0  0
 21 22  1  0  0  0  0
 22 25  1  0  0  0  0
 22 26  1  0  0  0  0
 23 27  1  6  0  0  0
 23 28  1  0  0  0  0
 23 22  1  0  0  0  0
 28 29  2  0  0  0  0
 30 36  1  0  0  0  0
 30 28  1  0  0  0  0
 31 30  2  0  0  0  0
 32 34  2  0  0  0  0
 32 31  1  0  0  0  0
 33 32  1  0  0  0  0
 34 35  1  0  0  0  0
 35 36  2  0  0  0  0
M  END
>  <minimizedAffinity>
-5.00846148

$$$$

 OpenBabel03242510243D

 36 39  0  0  1  0  0  0  0  0999 V2000
   37.9890   29.0290   41.7890 N   0  0  0  0  0  0  0  0  0  0  0  0
   38.0100   29.7410   40.5910 C   0  0  0  0  0  0  0  0  0  0  0  0
   37.6940   29.3940   39.4250 O   0  0  0  0  0  0  0  0  0  0  0  0
   38.8560   29.2250   42.3660 H   0  0  0  0  0  0  0  0  0  0  0  0
   37.3040   26.8380   42.6980 C   0  0  1  0  0  0  0  0  0  0  0  0
   36.9390   27.7860   43.6620 C   0  0  0  0  0  0  0  0  0  0  0  0
   36.9240   28.1610   42.1490 C   0  0  1  0  0  0  0  0  0  0  0  0
   36.6750   25.9630   42.4320 H   0  0  0  0  0  0  0  0  0  0  0  0
   37.5800   28.4080   44.3160 H   0  0  0  0  0  0  0  0  0  0  0  0
   35.9060   27.7060   44.1220 H   0  0  0  0  0  0  0  0  0  0  0  0
   35.9130   28.4460   41.8140 H   0  0  0  0  0  0  0  0  0  0  0  0
   39.3690   26.0100   41.3470 C   0  0  0  0  0  0  0  0  0  0  0  0
   38.7890   26.4690   42.5770 C   0  0  0  0  0  0  0  0  0  0  0  0
   39.6160   26.5540   43.6800 C   0  0  0  0  0  0  0  0  0  0  0  0
   40.9160   26.2040   43.5440 N   0  0  0  0  0  0  0  0  0  0  0  0
   41.4500   25.7730   42.3850 C   0  0  0  0  0  0  0  0  0  0  0  0
   40.6400   25.6740   41.2440 N   0  0  0  0  0  0  0  0  0  0  0  0
   38.7240   25.9680   40.4910 H   0  0  0  0  0  0  0  0  0  0  0  0
   39.2050   26.8940   44.6060 H   0  0  0  0  0  0  0  0  0  0  0  0
   42.4940   25.4980   42.3050 H   0  0  0  0  0  0  0  0  0  0  0  0
   38.4740   31.1860   40.6000 C   0  0  2  0  0  0  0  0  0  0  0  0
   37.3610   32.2760   40.3540 C   0  0  0  0  0  0  0  0  0  0  0  0
   38.4620   32.0010   39.3810 C   0  0  1  0  0  0  0  0  0  0  0  0
   39.1160   31.5060   41.4450 H   0  0  0  0  0  0  0  0  0  0  0  0
   36.3820   31.8100   40.1030 H   0  0  0  0  0  0  0  0  0  0  0  0
   37.3660   33.1550   40.9910 H   0  0  0  0  0  0  0  0  0  0  0  0
   38.3120   31.3900   38.4630 H   0  0  0  0  0  0  0  0  0  0  0  0
   39.5490   33.0470   39.2420 C   0  0  0  0  0  0  0  0  0  0  0  0
   39.4370   34.1220   39.8170 O   0  0  0  0  0  0  0  0  0  0  0  0
   40.7250   32.7620   38.4190 C   0  0  0  0  0  0  0  0  0  0  0  0
   40.8410   31.5760   37.7720 C   0  0  0  0  0  3  0  0  0  0  0  0
   41.9840   31.3840   37.0130 C   0  0  0  0  0  0  0  0  0  0  0  0
   42.0840   30.4300   36.4890 H   0  0  0  0  0  0  0  0  0  0  0  0
   42.9290   32.3380   36.9300 N   0  0  0  0  0  0  0  0  0  0  0  0
   42.8120   33.5220   37.5770 C   0  0  0  0  0  3  0  0  0  0  0  0
   41.6960   33.6880   38.3070 N   0  0  0  0  0  0  0  0  0  0  0  0
  1  7  1  0  0  0  0
  1  4  1  0  0  0  0
  2 21  1  0  0  0  0
  2  1  1  0  0  0  0
  3  2  2  0  0  0  0
  5  8  1  6  0  0  0
  5  6  1  0  0  0  0
  6 10  1  0  0  0  0
  6  9  1  0  0  0  0
  7 11  1  6  0  0  0
  7  5  1  0  0  0  0
  7  6  1  0  0  0  0
 12 13  1  0  0  0  0
 13  5  1  0  0  0  0
 13 14  2  0  0  0  0
 14 19  1  0  0  0  0
 15 14  1  0  0  0  0
 16 15  2  0  0  0  0
 17 12  2  0  0  0  0
 17 16  1  0  0  0  0
 18 12  1  0  0  0  0
 20 16  1  0  0  0  0
 21 24  1  1  0  0  0
 22 21  1  0  0  0  0
 22 26  1  0  0  0  0
 23 27  1  6  0  0  0
 23 22  1  0  0  0  0
 23 21  1  0  0  0  0
 25 22  1  0  0  0  0
 28 23  1  0  0  0  0
 28 29  2  0  0  0  0
 30 28  1  0  0  0  0
 31 30  2  0  0  0  0
 32 31  1  0  0  0  0
 33 32  1  0  0  0  0
 34 32  2  0  0  0  0
 34 35  1  0  0  0  0
 35 36  2  0  0  0  0
 36 30  1  0  0  0  0
M  END
>  <minimizedAffinity>
-4.97542191

$$$$
