
 OpenBabel03252502273D

 33 35  0  0  0  0  0  0  0  0999 V2000
   45.2450   34.3930   40.9620 C   0  0  0  0  0  0  0  0  0  0  0  0
   45.4480   35.0350   42.1790 C   0  0  0  0  0  0  0  0  0  0  0  0
   46.7570   35.3010   42.5770 C   0  0  0  0  0  0  0  0  0  0  0  0
   47.8050   34.9210   41.7580 C   0  0  0  0  0  0  0  0  0  0  0  0
   47.6200   34.2860   40.5530 C   0  0  0  0  0  0  0  0  0  0  0  0
   46.2980   34.0360   40.1840 C   0  0  0  0  0  0  0  0  0  0  0  0
   44.6240   35.3280   42.8120 H   0  0  0  0  0  0  0  0  0  0  0  0
   46.8650   35.8020   43.5300 H   0  0  0  0  0  0  0  0  0  0  0  0
   48.8030   35.1550   42.1200 H   0  0  0  0  0  0  0  0  0  0  0  0
   48.4330   33.9920   39.9180 H   0  0  0  0  0  0  0  0  0  0  0  0
   41.6010   34.7470   40.0610 C   0  0  0  0  0  0  0  0  0  0  0  0
   42.9160   35.1220   40.3920 C   0  0  0  0  0  0  0  0  0  0  0  0
   43.8490   34.1470   40.6110 C   0  0  0  0  0  0  0  0  0  0  0  0
   43.4460   32.8550   40.4930 N   0  0  0  0  0  0  0  0  0  0  0  0
   42.1830   32.4960   40.1750 C   0  0  0  0  0  0  0  0  0  0  0  0
   41.2550   33.4520   39.9580 N   0  0  0  0  0  0  0  0  0  0  0  0
   43.2100   36.1470   40.4790 H   0  0  0  0  0  0  0  0  0  0  0  0
   41.9360   31.4460   40.0990 H   0  0  0  0  0  0  0  0  0  0  0  0
   40.5760   35.7800   39.8190 C   0  0  0  0  0  0  0  0  0  0  0  0
   39.3590   35.1250   39.5670 F   0  0  0  0  0  0  0  0  0  0  0  0
   40.9000   36.3880   38.6050 F   0  0  0  0  0  0  0  0  0  0  0  0
   40.4410   36.6770   40.8330 F   0  0  0  0  0  0  0  0  0  0  0  0
   46.2680   32.1420   38.3660 C   0  0  0  0  0  0  0  0  0  0  0  0
   46.9780   31.2620   38.8860 O   0  0  0  0  0  0  0  0  0  0  0  0
   45.9670   33.4010   38.9680 N   0  0  0  0  0  0  0  0  0  0  0  0
   45.3510   34.1110   38.4590 H   0  0  0  0  0  0  0  0  0  0  0  0
   45.6710   31.9340   37.0470 C   0  0  0  0  0  0  0  0  0  0  0  0
   44.5350   31.1590   36.9500 C   0  0  0  0  0  0  0  0  0  0  0  0
   43.9360   30.9380   35.7080 C   0  0  0  0  0  0  0  0  0  0  0  0
   43.0450   30.3290   35.6410 H   0  0  0  0  0  0  0  0  0  0  0  0
   44.4500   31.4750   34.5660 N   0  0  0  0  0  0  0  0  0  0  0  0
   45.5590   32.2230   34.7060 C   0  0  0  0  0  0  0  0  0  0  0  0
   46.1440   32.4430   35.8950 N   0  0  0  0  0  0  0  0  0  0  0  0
  1  2  1  0  0  0  0
  2  3  2  0  0  0  0
  2  7  1  0  0  0  0
  3  8  1  0  0  0  0
  4  9  1  0  0  0  0
  4  3  1  0  0  0  0
  5  4  2  0  0  0  0
  6  5  1  0  0  0  0
  6  1  2  0  0  0  0
 10  5  1  0  0  0  0
 11 12  1  0  0  0  0
 12 17  1  0  0  0  0
 12 13  2  0  0  0  0
 13  1  1  0  0  0  0
 14 13  1  0  0  0  0
 15 14  2  0  0  0  0
 16 11  2  0  0  0  0
 16 15  1  0  0  0  0
 18 15  1  0  0  0  0
 19 11  1  0  0  0  0
 19 22  1  0  0  0  0
 20 19  1  0  0  0  0
 21 19  1  0  0  0  0
 23 24  2  0  0  0  0
 23 25  1  0  0  0  0
 25  6  1  0  0  0  0
 26 25  1  0  0  0  0
 27 23  1  0  0  0  0
 28 27  1  0  0  0  0
 29 28  2  0  0  0  0
 30 29  1  0  0  0  0
 31 32  2  0  0  0  0
 31 29  1  0  0  0  0
 32 33  1  0  0  0  0
 33 27  2  0  0  0  0
M  END
>  <minimizedAffinity>
-5.96073341

>  <minimizedRMSD>
0.767480612

$$$$
