
 OpenBabel03252502263D

 33 35  0  0  0  0  0  0  0  0999 V2000
   45.0910   34.4910   41.2680 C   0  0  0  0  0  0  0  0  0  0  0  0
   45.3830   35.2190   42.4170 C   0  0  0  0  0  0  0  0  0  0  0  0
   46.7180   35.5080   42.6960 C   0  0  0  0  0  0  0  0  0  0  0  0
   47.7020   35.0670   41.8300 C   0  0  0  0  0  0  0  0  0  0  0  0
   47.4290   34.3470   40.6920 C   0  0  0  0  0  0  0  0  0  0  0  0
   46.0830   34.0750   40.4420 C   0  0  0  0  0  0  0  0  0  0  0  0
   44.6090   35.5600   43.0870 H   0  0  0  0  0  0  0  0  0  0  0  0
   46.8960   36.0770   43.5990 H   0  0  0  0  0  0  0  0  0  0  0  0
   48.7240   35.3230   42.1000 H   0  0  0  0  0  0  0  0  0  0  0  0
   48.1920   34.0050   40.0210 H   0  0  0  0  0  0  0  0  0  0  0  0
   41.4220   34.7670   40.4490 C   0  0  0  0  0  0  0  0  0  0  0  0
   42.7610   35.1560   40.6280 C   0  0  0  0  0  0  0  0  0  0  0  0
   43.6730   34.2260   41.0420 C   0  0  0  0  0  0  0  0  0  0  0  0
   43.2260   32.9610   41.2570 N   0  0  0  0  0  0  0  0  0  0  0  0
   41.9390   32.5880   41.0850 C   0  0  0  0  0  0  0  0  0  0  0  0
   41.0310   33.5000   40.6770 N   0  0  0  0  0  0  0  0  0  0  0  0
   43.0900   36.1580   40.4520 H   0  0  0  0  0  0  0  0  0  0  0  0
   41.6560   31.5610   41.2760 H   0  0  0  0  0  0  0  0  0  0  0  0
   40.4170   35.7510   40.0030 C   0  0  0  0  0  0  0  0  0  0  0  0
   39.2440   35.0510   39.6780 F   0  0  0  0  0  0  0  0  0  0  0  0
   40.8690   36.2560   38.7810 F   0  0  0  0  0  0  0  0  0  0  0  0
   40.1600   36.7320   40.9090 F   0  0  0  0  0  0  0  0  0  0  0  0
   45.9740   32.0820   38.7360 C   0  0  0  0  0  0  0  0  0  0  0  0
   46.7870   31.2740   39.2190 O   0  0  0  0  0  0  0  0  0  0  0  0
   45.6640   33.3550   39.3030 N   0  0  0  0  0  0  0  0  0  0  0  0
   44.9560   34.0010   38.8300 H   0  0  0  0  0  0  0  0  0  0  0  0
   45.2530   31.7680   37.5030 C   0  0  0  0  0  0  0  0  0  0  0  0
   43.9800   31.2510   37.5950 C   0  0  0  0  0  3  0  0  0  0  0  0
   43.2600   30.9370   36.4390 C   0  0  0  0  0  0  0  0  0  0  0  0
   42.2620   30.5320   36.5200 H   0  0  0  0  0  0  0  0  0  0  0  0
   43.7900   31.1320   35.1980 N   0  0  0  0  0  0  0  0  0  0  0  0
   45.0360   31.6390   35.1550 C   0  0  0  0  0  3  0  0  0  0  0  0
   45.7380   31.9430   36.2590 N   0  0  0  0  0  0  0  0  0  0  0  0
  1  2  1  0  0  0  0
  2  3  2  0  0  0  0
  2  7  1  0  0  0  0
  3  8  1  0  0  0  0
  4  9  1  0  0  0  0
  4  3  1  0  0  0  0
  5  4  2  0  0  0  0
  6  5  1  0  0  0  0
  6  1  2  0  0  0  0
 10  5  1  0  0  0  0
 11 12  2  0  0  0  0
 11 16  1  0  0  0  0
 12 13  1  0  0  0  0
 13 14  2  0  0  0  0
 13  1  1  0  0  0  0
 15 14  1  0  0  0  0
 15 18  1  0  0  0  0
 16 15  2  0  0  0  0
 17 12  1  0  0  0  0
 19 11  1  0  0  0  0
 19 22  1  0  0  0  0
 20 19  1  0  0  0  0
 21 19  1  0  0  0  0
 23 24  2  0  0  0  0
 23 25  1  0  0  0  0
 25  6  1  0  0  0  0
 26 25  1  0  0  0  0
 27 28  1  0  0  0  0
 27 23  1  0  0  0  0
 29 30  1  0  0  0  0
 29 28  2  0  0  0  0
 31 29  1  0  0  0  0
 32 31  2  0  0  0  0
 32 33  1  0  0  0  0
 33 27  2  0  0  0  0
M  END
>  <minimizedAffinity>
-5.8012476

>  <minimizedRMSD>
0.631316423

$$$$
