
 OpenBabel03252507593D

 27 29  0  0  1  0  0  0  0  0999 V2000
   46.5790   34.8160   43.1060 C   0  0  0  0  0  0  0  0  0  0  0  0
   45.5490   35.7940   43.2550 C   0  0  0  0  0  0  0  0  0  0  0  0
   44.7010   35.6450   44.3600 C   0  0  0  0  0  0  0  0  0  0  0  0
   44.9110   34.6010   45.2000 N   0  0  0  0  0  0  0  0  0  0  0  0
   45.9230   33.7000   44.9900 C   0  0  0  0  0  0  0  0  0  0  0  0
   46.7590   33.7810   43.9700 N   0  0  0  0  0  0  0  0  0  0  0  0
   45.4440   36.5870   42.5580 H   0  0  0  0  0  0  0  0  0  0  0  0
   43.9030   36.3430   44.5370 H   0  0  0  0  0  0  0  0  0  0  0  0
   46.0960   32.5860   45.9700 C   0  0  1  0  0  0  0  0  0  0  0  0
   46.8230   32.8520   47.2680 C   0  0  0  0  0  0  0  0  0  0  0  0
   45.3250   32.7390   47.2210 C   0  0  1  0  0  0  0  0  0  0  0  0
   46.1830   31.5780   45.5290 H   0  0  0  0  0  0  0  0  0  0  0  0
   47.3180   33.8550   47.2850 H   0  0  0  0  0  0  0  0  0  0  0  0
   47.4540   32.0040   47.6000 H   0  0  0  0  0  0  0  0  0  0  0  0
   44.9330   31.8620   47.7810 H   0  0  0  0  0  0  0  0  0  0  0  0
   44.6780   34.0270   47.5110 N   0  0  0  0  0  0  0  0  0  0  0  0
   43.6740   33.9010   47.7780 H   0  0  0  0  0  0  0  0  0  0  0  0
   45.2360   34.5130   48.2410 H   0  0  0  0  0  0  0  0  0  0  0  0
   47.4330   35.0130   41.9630 C   0  0  0  0  0  0  0  0  0  0  0  0
   48.4750   35.7550   41.9810 O   0  0  0  0  0  0  0  0  0  0  0  0
   47.1370   34.3540   40.6940 C   0  0  0  0  0  0  0  0  0  0  0  0
   45.9440   33.6910   40.5030 C   0  0  0  0  0  3  0  0  0  0  0  0
   45.7080   33.0850   39.2950 C   0  0  0  0  0  0  0  0  0  0  0  0
   44.7770   32.5620   39.1350 H   0  0  0  0  0  0  0  0  0  0  0  0
   46.6460   33.1600   38.3460 N   0  0  0  0  0  0  0  0  0  0  0  0
   47.8180   33.7960   38.4950 C   0  0  0  0  0  3  0  0  0  0  0  0
   48.0300   34.3830   39.6870 N   0  0  0  0  0  0  0  0  0  0  0  0
  1  2  2  0  0  0  0
  1  6  1  0  0  0  0
  2  3  1  0  0  0  0
  3  8  1  0  0  0  0
  3  4  2  0  0  0  0
  5  4  1  0  0  0  0
  5  9  1  0  0  0  0
  6  5  2  0  0  0  0
  7  2  1  0  0  0  0
  9 12  1  6  0  0  0
  9 11  1  0  0  0  0
  9 10  1  0  0  0  0
 10 13  1  0  0  0  0
 10 14  1  0  0  0  0
 11 10  1  0  0  0  0
 11 16  1  0  0  0  0
 11 15  1  1  0  0  0
 16 17  1  0  0  0  0
 16 18  1  0  0  0  0
 19 20  2  0  0  0  0
 19  1  1  0  0  0  0
 21 19  1  0  0  0  0
 22 21  1  0  0  0  0
 23 22  2  0  0  0  0
 24 23  1  0  0  0  0
 25 26  2  0  0  0  0
 25 23  1  0  0  0  0
 26 27  1  0  0  0  0
 27 21  2  0  0  0  0
M  END
>  <minimizedAffinity>
-5.55152225

>  <minimizedRMSD>
0.812063932

$$$$
