
 OpenBabel03252507593D

 27 29  0  0  1  0  0  0  0  0999 V2000
   46.7530   34.6520   43.1200 C   0  0  0  0  0  0  0  0  0  0  0  0
   45.6780   35.5850   43.2340 C   0  0  0  0  0  0  0  0  0  0  0  0
   44.8060   35.4050   44.3160 C   0  0  0  0  0  0  0  0  0  0  0  0
   45.0360   34.3750   45.1660 N   0  0  0  0  0  0  0  0  0  0  0  0
   46.0910   33.5170   44.9900 C   0  0  0  0  0  0  0  0  0  0  0  0
   46.9510   33.6280   43.9930 N   0  0  0  0  0  0  0  0  0  0  0  0
   45.5590   36.3700   42.5310 H   0  0  0  0  0  0  0  0  0  0  0  0
   43.9740   36.0690   44.4660 H   0  0  0  0  0  0  0  0  0  0  0  0
   46.2830   32.4140   45.9800 C   0  0  1  0  0  0  0  0  0  0  0  0
   46.9950   32.7090   47.2810 C   0  0  0  0  0  0  0  0  0  0  0  0
   45.5000   32.5590   47.2250 C   0  0  1  0  0  0  0  0  0  0  0  0
   46.3970   31.4050   45.5490 H   0  0  0  0  0  0  0  0  0  0  0  0
   47.4660   33.7230   47.2930 H   0  0  0  0  0  0  0  0  0  0  0  0
   47.6430   31.8780   47.6240 H   0  0  0  0  0  0  0  0  0  0  0  0
   45.1250   31.6780   47.7900 H   0  0  0  0  0  0  0  0  0  0  0  0
   44.8220   33.8340   47.5000 N   0  0  0  0  0  0  0  0  0  0  0  0
   43.8190   33.6870   47.7620 H   0  0  0  0  0  0  0  0  0  0  0  0
   45.3620   34.3400   48.2300 H   0  0  0  0  0  0  0  0  0  0  0  0
   47.6290   34.8800   42.0000 C   0  0  0  0  0  0  0  0  0  0  0  0
   48.4490   35.8590   41.9360 O   0  0  0  0  0  0  0  0  0  0  0  0
   47.6190   33.9760   40.8530 C   0  0  0  0  0  0  0  0  0  0  0  0
   46.4760   33.7930   40.1050 C   0  0  0  0  0  3  0  0  0  0  0  0
   46.5130   32.9340   39.0380 C   0  0  0  0  0  0  0  0  0  0  0  0
   45.6230   32.7830   38.4440 H   0  0  0  0  0  0  0  0  0  0  0  0
   47.6590   32.3030   38.7600 N   0  0  0  0  0  0  0  0  0  0  0  0
   48.7900   32.4560   39.4650 C   0  0  0  0  0  3  0  0  0  0  0  0
   48.7330   33.3030   40.5090 N   0  0  0  0  0  0  0  0  0  0  0  0
  1  2  2  0  0  0  0
  1  6  1  0  0  0  0
  2  3  1  0  0  0  0
  3  8  1  0  0  0  0
  3  4  2  0  0  0  0
  5  4  1  0  0  0  0
  5  9  1  0  0  0  0
  6  5  2  0  0  0  0
  7  2  1  0  0  0  0
  9 12  1  6  0  0  0
  9 11  1  0  0  0  0
  9 10  1  0  0  0  0
 10 13  1  0  0  0  0
 10 14  1  0  0  0  0
 11 10  1  0  0  0  0
 11 16  1  0  0  0  0
 11 15  1  1  0  0  0
 16 17  1  0  0  0  0
 16 18  1  0  0  0  0
 19  1  1  0  0  0  0
 20 19  2  0  0  0  0
 21 19  1  0  0  0  0
 22 21  2  0  0  0  0
 23 22  1  0  0  0  0
 24 23  1  0  0  0  0
 25 23  2  0  0  0  0
 25 26  1  0  0  0  0
 26 27  2  0  0  0  0
 27 21  1  0  0  0  0
M  END
>  <minimizedAffinity>
-5.23097515

>  <minimizedRMSD>
1.47237277

$$$$
