
 OpenBabel03252507593D

 27 29  0  0  1  0  0  0  0  0999 V2000
   46.2790   34.7550   43.2410 C   0  0  0  0  0  0  0  0  0  0  0  0
   45.3390   35.7930   43.5230 C   0  0  0  0  0  0  0  0  0  0  0  0
   44.6360   35.6880   44.7300 C   0  0  0  0  0  0  0  0  0  0  0  0
   44.8880   34.6270   45.5350 N   0  0  0  0  0  0  0  0  0  0  0  0
   45.8070   33.6670   45.1950 C   0  0  0  0  0  0  0  0  0  0  0  0
   46.5060   33.7040   44.0740 N   0  0  0  0  0  0  0  0  0  0  0  0
   45.1930   36.5970   42.8470 H   0  0  0  0  0  0  0  0  0  0  0  0
   43.9120   36.4320   45.0100 H   0  0  0  0  0  0  0  0  0  0  0  0
   46.0370   32.5360   46.1440 C   0  0  1  0  0  0  0  0  0  0  0  0
   46.8280   32.7850   47.4080 C   0  0  0  0  0  0  0  0  0  0  0  0
   45.3300   32.6600   47.4350 C   0  0  1  0  0  0  0  0  0  0  0  0
   46.1100   31.5370   45.6800 H   0  0  0  0  0  0  0  0  0  0  0  0
   47.3150   33.7910   47.4190 H   0  0  0  0  0  0  0  0  0  0  0  0
   47.4810   31.9360   47.6920 H   0  0  0  0  0  0  0  0  0  0  0  0
   44.9740   31.7700   47.9970 H   0  0  0  0  0  0  0  0  0  0  0  0
   44.6900   33.9370   47.7810 N   0  0  0  0  0  0  0  0  0  0  0  0
   43.7010   33.7980   48.0960 H   0  0  0  0  0  0  0  0  0  0  0  0
   45.2790   34.4150   48.4910 H   0  0  0  0  0  0  0  0  0  0  0  0
   46.9860   34.9090   41.9960 C   0  0  0  0  0  0  0  0  0  0  0  0
   48.0390   35.6240   41.8670 O   0  0  0  0  0  0  0  0  0  0  0  0
   46.5170   34.2340   40.7880 C   0  0  0  0  0  0  0  0  0  0  0  0
   45.1990   33.8590   40.6540 C   0  0  0  0  0  3  0  0  0  0  0  0
   44.8020   33.2270   39.5040 C   0  0  0  0  0  0  0  0  0  0  0  0
   43.7700   32.9290   39.3870 H   0  0  0  0  0  0  0  0  0  0  0  0
   45.7120   32.9960   38.5520 N   0  0  0  0  0  0  0  0  0  0  0  0
   47.0050   33.3450   38.6470 C   0  0  0  0  0  3  0  0  0  0  0  0
   47.3730   33.9640   39.7840 N   0  0  0  0  0  0  0  0  0  0  0  0
  1  2  2  0  0  0  0
  1  6  1  0  0  0  0
  2  3  1  0  0  0  0
  3  8  1  0  0  0  0
  3  4  2  0  0  0  0
  5  4  1  0  0  0  0
  5  9  1  0  0  0  0
  6  5  2  0  0  0  0
  7  2  1  0  0  0  0
  9 12  1  6  0  0  0
  9 10  1  0  0  0  0
  9 11  1  0  0  0  0
 10 13  1  0  0  0  0
 10 11  1  0  0  0  0
 10 14  1  0  0  0  0
 11 16  1  0  0  0  0
 11 15  1  1  0  0  0
 16 17  1  0  0  0  0
 16 18  1  0  0  0  0
 19  1  1  0  0  0  0
 20 19  2  0  0  0  0
 21 19  1  0  0  0  0
 22 21  1  0  0  0  0
 23 22  2  0  0  0  0
 24 23  1  0  0  0  0
 25 26  2  0  0  0  0
 25 23  1  0  0  0  0
 26 27  1  0  0  0  0
 27 21  2  0  0  0  0
M  END
>  <minimizedAffinity>
-5.54650164

>  <minimizedRMSD>
0.499101013

$$$$
