
 OpenBabel03252507593D

 27 29  0  0  1  0  0  0  0  0999 V2000
   47.4040   34.1480   43.1850 C   0  0  0  0  0  0  0  0  0  0  0  0
   46.3870   35.1480   43.1060 C   0  0  0  0  0  0  0  0  0  0  0  0
   45.2560   34.9520   43.9090 C   0  0  0  0  0  0  0  0  0  0  0  0
   45.2020   33.8470   44.6920 N   0  0  0  0  0  0  0  0  0  0  0  0
   46.2200   32.9290   44.7130 C   0  0  0  0  0  0  0  0  0  0  0  0
   47.3150   33.0510   43.9830 N   0  0  0  0  0  0  0  0  0  0  0  0
   46.4960   35.9890   42.4700 H   0  0  0  0  0  0  0  0  0  0  0  0
   44.4490   35.6630   43.9020 H   0  0  0  0  0  0  0  0  0  0  0  0
   46.0900   31.7450   45.6150 C   0  0  1  0  0  0  0  0  0  0  0  0
   47.3410   31.0960   46.1630 C   0  0  0  0  0  0  0  0  0  0  0  0
   46.4860   31.9900   47.0170 C   0  0  1  0  0  0  0  0  0  0  0  0
   45.2170   31.0980   45.4240 H   0  0  0  0  0  0  0  0  0  0  0  0
   48.2730   31.4860   45.6850 H   0  0  0  0  0  0  0  0  0  0  0  0
   47.2680   29.9920   46.2340 H   0  0  0  0  0  0  0  0  0  0  0  0
   46.0050   31.4580   47.8660 H   0  0  0  0  0  0  0  0  0  0  0  0
   47.1850   33.2380   47.3560 N   0  0  0  0  0  0  0  0  0  0  0  0
   46.7420   33.7170   48.1740 H   0  0  0  0  0  0  0  0  0  0  0  0
   48.1890   33.0180   47.5100 H   0  0  0  0  0  0  0  0  0  0  0  0
   48.5520   34.3940   42.3510 C   0  0  0  0  0  0  0  0  0  0  0  0
   49.5730   35.0620   42.7360 O   0  0  0  0  0  0  0  0  0  0  0  0
   48.6040   33.8750   40.9870 C   0  0  0  0  0  0  0  0  0  0  0  0
   48.0880   34.6010   39.9350 C   0  0  0  0  0  3  0  0  0  0  0  0
   48.1570   34.0760   38.6700 C   0  0  0  0  0  0  0  0  0  0  0  0
   47.7560   34.6360   37.8380 H   0  0  0  0  0  0  0  0  0  0  0  0
   48.7230   32.8770   38.5030 N   0  0  0  0  0  0  0  0  0  0  0  0
   49.2340   32.1420   39.5030 C   0  0  0  0  0  3  0  0  0  0  0  0
   49.1570   32.6740   40.7350 N   0  0  0  0  0  0  0  0  0  0  0  0
  1  6  1  0  0  0  0
  2  1  2  0  0  0  0
  2  3  1  0  0  0  0
  3  4  2  0  0  0  0
  4  5  1  0  0  0  0
  5  9  1  0  0  0  0
  6  5  2  0  0  0  0
  7  2  1  0  0  0  0
  8  3  1  0  0  0  0
  9 12  1  6  0  0  0
  9 10  1  0  0  0  0
  9 11  1  0  0  0  0
 10 14  1  0  0  0  0
 10 11  1  0  0  0  0
 11 16  1  0  0  0  0
 11 15  1  1  0  0  0
 13 10  1  0  0  0  0
 16 18  1  0  0  0  0
 16 17  1  0  0  0  0
 19 20  2  0  0  0  0
 19  1  1  0  0  0  0
 21 19  1  0  0  0  0
 22 21  2  0  0  0  0
 23 22  1  0  0  0  0
 24 23  1  0  0  0  0
 25 23  2  0  0  0  0
 25 26  1  0  0  0  0
 26 27  2  0  0  0  0
 27 21  1  0  0  0  0
M  END
>  <minimizedAffinity>
-4.9666934

>  <minimizedRMSD>
2.34379625

$$$$
