
 OpenBabel03252503313D

 39 41  0  0  1  0  0  0  0  0999 V2000
   45.3980   33.8670   41.8630 C   0  0  0  0  0  0  0  0  0  0  0  0
   46.4200   34.7980   41.5250 C   0  0  0  0  0  0  0  0  0  0  0  0
   47.7400   34.4050   41.8080 C   0  0  0  0  0  0  0  0  0  0  0  0
   47.9320   33.1970   42.3690 N   0  0  0  0  0  0  0  0  0  0  0  0
   46.9260   32.3480   42.6720 C   0  0  0  0  0  0  0  0  0  0  0  0
   45.6490   32.6940   42.4130 N   0  0  0  0  0  0  0  0  0  0  0  0
   43.7200   34.0870   40.2350 C   0  0  0  0  0  0  0  0  0  0  0  0
   44.6520   33.7680   39.4210 O   0  0  0  0  0  0  0  0  0  0  0  0
   44.0260   34.1950   41.6050 N   0  0  0  0  0  0  0  0  0  0  0  0
   42.4330   34.3080   39.6910 N   0  0  0  0  0  0  0  0  0  0  0  0
   42.2750   34.4780   38.2340 C   0  0  0  0  0  0  0  0  0  0  0  0
   41.0980   35.4000   38.1490 C   0  0  0  0  0  0  0  0  0  0  0  0
   40.6090   35.5910   39.5540 C   0  0  0  0  0  0  0  0  0  0  0  0
   41.1340   34.3850   40.2950 C   0  0  1  0  0  0  0  0  0  0  0  0
   46.0790   35.7090   41.0870 H   0  0  0  0  0  0  0  0  0  0  0  0
   47.1430   31.3840   43.1240 H   0  0  0  0  0  0  0  0  0  0  0  0
   43.2690   34.4860   42.2560 H   0  0  0  0  0  0  0  0  0  0  0  0
   43.1770   34.8780   37.7560 H   0  0  0  0  0  0  0  0  0  0  0  0
   41.9910   33.4950   37.7800 H   0  0  0  0  0  0  0  0  0  0  0  0
   40.3000   35.0040   37.4630 H   0  0  0  0  0  0  0  0  0  0  0  0
   41.4170   36.3520   37.6740 H   0  0  0  0  0  0  0  0  0  0  0  0
   41.3410   36.3880   39.9350 H   0  0  0  0  0  0  0  0  0  0  0  0
   39.6870   36.0320   39.7450 H   0  0  0  0  0  0  0  0  0  0  0  0
   41.0350   34.6550   41.3400 H   0  0  0  0  0  0  0  0  0  0  0  0
   38.9880   32.9630   40.2650 C   0  0  0  0  0  0  0  0  0  0  0  0
   38.4400   34.0700   40.4490 O   0  0  0  0  0  0  0  0  0  0  0  0
   40.4070   33.1510   40.0320 N   0  0  0  0  0  0  0  0  0  0  0  0
   40.9640   32.3270   39.6400 H   0  0  0  0  0  0  0  0  0  0  0  0
   38.3560   31.6740   40.2710 C   0  0  0  0  0  0  0  0  0  0  0  0
   38.4490   30.9500   39.0980 C   0  0  0  0  0  3  0  0  0  0  0  0
   37.8520   29.6950   39.0600 C   0  0  0  0  0  0  0  0  0  0  0  0
   37.8960   29.0890   38.1630 H   0  0  0  0  0  0  0  0  0  0  0  0
   37.1960   29.1450   40.0790 N   0  0  0  0  0  0  0  0  0  0  0  0
   37.1250   29.8890   41.2210 C   0  0  0  0  0  3  0  0  0  0  0  0
   37.6950   31.1280   41.3110 N   0  0  0  0  0  0  0  0  0  0  0  0
   48.7660   35.3770   41.4520 C   0  0  0  0  0  0  0  0  0  0  0  0
   50.0010   34.9120   41.8840 F   0  0  0  0  0  0  0  0  0  0  0  0
   48.5150   36.5330   42.2140 F   0  0  0  0  0  0  0  0  0  0  0  0
   48.8370   35.6440   40.1130 F   0  0  0  0  0  0  0  0  0  0  0  0
  1  6  1  0  0  0  0
  2  3  1  0  0  0  0
  2  1  2  0  0  0  0
  3  4  2  0  0  0  0
  4  5  1  0  0  0  0
  5 16  1  0  0  0  0
  6  5  2  0  0  0  0
  7  9  1  0  0  0  0
  8  7  2  0  0  0  0
  9  1  1  0  0  0  0
  9 17  1  0  0  0  0
 10  7  1  0  0  0  0
 10 14  1  0  0  0  0
 11 10  1  0  0  0  0
 12 11  1  0  0  0  0
 12 13  1  0  0  0  0
 13 23  1  0  0  0  0
 13 22  1  0  0  0  0
 13 14  1  0  0  0  0
 14 24  1  1  0  0  0
 15  2  1  0  0  0  0
 18 11  1  0  0  0  0
 19 11  1  0  0  0  0
 20 12  1  0  0  0  0
 21 12  1  0  0  0  0
 25 29  1  0  0  0  0
 25 26  2  0  0  0  0
 27 25  1  0  0  0  0
 27 14  1  0  0  0  0
 28 27  1  0  0  0  0
 29 35  1  0  0  0  0
 30 29  2  0  0  0  0
 31 30  1  0  0  0  0
 31 33  2  0  0  0  0
 32 31  1  0  0  0  0
 33 34  1  0  0  0  0
 34 35  2  0  0  0  0
 36  3  1  0  0  0  0
 36 37  1  0  0  0  0
 36 38  1  0  0  0  0
 39 36  1  0  0  0  0
M  END
>  <minimizedAffinity>
-6.60001898

>  <minimizedRMSD>
1.29191685

$$$$
