
 OpenBabel03242512283D

 20 21  0  0  0  0  0  0  0  0999 V2000
   37.1230   32.4330   39.3860 C   0  0  0  0  0  0  0  0  0  0  0  0
   37.6780   32.1330   38.1360 C   0  0  0  0  0  0  0  0  0  0  0  0
   37.6170   30.8050   37.6860 C   0  0  0  0  0  0  0  0  0  0  0  0
   37.0220   29.9070   38.4950 N   0  0  0  0  0  0  0  0  0  0  0  0
   36.4990   30.2180   39.6860 C   0  0  0  0  0  0  0  0  0  0  0  0
   36.5500   31.4800   40.1290 N   0  0  0  0  0  0  0  0  0  0  0  0
   37.1850   33.7730   39.8410 N   0  0  0  0  0  0  0  0  0  0  0  0
   38.1550   32.8610   37.4900 H   0  0  0  0  0  0  0  0  0  0  0  0
   38.0430   30.5830   36.7290 H   0  0  0  0  0  0  0  0  0  0  0  0
   37.3870   34.5590   39.1600 H   0  0  0  0  0  0  0  0  0  0  0  0
   37.0370   34.0250   40.8390 H   0  0  0  0  0  0  0  0  0  0  0  0
   35.8630   29.2290   40.5410 C   0  0  0  0  0  0  0  0  0  0  0  0
   34.6440   28.9490   40.4930 O   0  0  0  0  0  0  0  0  0  0  0  0
   36.6870   28.5090   41.5210 C   0  0  0  0  0  0  0  0  0  0  0  0
   36.9260   27.1680   41.4480 C   0  0  0  0  0  3  0  0  0  0  0  0
   37.7020   26.5000   42.3750 C   0  0  0  0  0  0  0  0  0  0  0  0
   37.8910   25.4360   42.3170 H   0  0  0  0  0  0  0  0  0  0  0  0
   38.2530   27.1740   43.3990 N   0  0  0  0  0  0  0  0  0  0  0  0
   38.0130   28.5170   43.4730 C   0  0  0  0  0  3  0  0  0  0  0  0
   37.2550   29.1650   42.5650 N   0  0  0  0  0  0  0  0  0  0  0  0
  1  7  1  0  0  0  0
  1  6  1  0  0  0  0
  2  1  2  0  0  0  0
  3  2  1  0  0  0  0
  3  4  2  0  0  0  0
  4  5  1  0  0  0  0
  5  6  2  0  0  0  0
  5 12  1  0  0  0  0
  7 11  1  0  0  0  0
  8  2  1  0  0  0  0
  9  3  1  0  0  0  0
 10  7  1  0  0  0  0
 12 14  1  0  0  0  0
 13 12  2  0  0  0  0
 14 20  1  0  0  0  0
 15 14  2  0  0  0  0
 15 16  1  0  0  0  0
 16 18  2  0  0  0  0
 17 16  1  0  0  0  0
 18 19  1  0  0  0  0
 20 19  2  0  0  0  0
M  END
>  <minimizedAffinity>
-4.68423748

$$$$

 OpenBabel03242512283D

 20 21  0  0  0  0  0  0  0  0999 V2000
   41.6920   33.1000   37.5230 C   0  0  0  0  0  0  0  0  0  0  0  0
   41.8050   31.8080   36.9960 C   0  0  0  0  0  0  0  0  0  0  0  0
   41.0940   30.7720   37.6220 C   0  0  0  0  0  0  0  0  0  0  0  0
   40.3470   31.0990   38.6950 N   0  0  0  0  0  0  0  0  0  0  0  0
   40.2550   32.3420   39.1800 C   0  0  0  0  0  0  0  0  0  0  0  0
   40.9270   33.3390   38.5930 N   0  0  0  0  0  0  0  0  0  0  0  0
   42.4100   34.1450   36.8900 N   0  0  0  0  0  0  0  0  0  0  0  0
   42.4080   31.5520   36.1320 H   0  0  0  0  0  0  0  0  0  0  0  0
   41.1850   29.7870   37.2130 H   0  0  0  0  0  0  0  0  0  0  0  0
   42.7880   34.0150   35.9100 H   0  0  0  0  0  0  0  0  0  0  0  0
   42.5850   35.0560   37.3590 H   0  0  0  0  0  0  0  0  0  0  0  0
   39.4420   32.6680   40.3400 C   0  0  0  0  0  0  0  0  0  0  0  0
   39.2340   33.8370   40.7370 O   0  0  0  0  0  0  0  0  0  0  0  0
   38.8210   31.5740   41.0970 C   0  0  0  0  0  0  0  0  0  0  0  0
   39.4770   30.8770   42.0690 C   0  0  0  0  0  3  0  0  0  0  0  0
   38.8850   29.8490   42.7760 C   0  0  0  0  0  0  0  0  0  0  0  0
   39.4060   29.2960   43.5460 H   0  0  0  0  0  0  0  0  0  0  0  0
   37.6130   29.5010   42.5140 N   0  0  0  0  0  0  0  0  0  0  0  0
   36.9550   30.1980   41.5400 C   0  0  0  0  0  3  0  0  0  0  0  0
   37.5380   31.2020   40.8530 N   0  0  0  0  0  0  0  0  0  0  0  0
  1  6  1  0  0  0  0
  2  1  2  0  0  0  0
  2  3  1  0  0  0  0
  3  4  2  0  0  0  0
  4  5  1  0  0  0  0
  5 12  1  0  0  0  0
  6  5  2  0  0  0  0
  7 11  1  0  0  0  0
  7  1  1  0  0  0  0
  8  2  1  0  0  0  0
  9  3  1  0  0  0  0
 10  7  1  0  0  0  0
 12 13  2  0  0  0  0
 12 14  1  0  0  0  0
 14 15  1  0  0  0  0
 15 16  2  0  0  0  0
 16 17  1  0  0  0  0
 18 16  1  0  0  0  0
 19 18  2  0  0  0  0
 20 14  2  0  0  0  0
 20 19  1  0  0  0  0
M  END
>  <minimizedAffinity>
-4.48244858

$$$$

 OpenBabel03242512283D

 20 21  0  0  0  0  0  0  0  0999 V2000
   36.5380   30.4380   40.5940 C   0  0  0  0  0  0  0  0  0  0  0  0
   36.2860   29.8670   39.3410 C   0  0  0  0  0  0  0  0  0  0  0  0
   36.2520   28.4660   39.2450 C   0  0  0  0  0  0  0  0  0  0  0  0
   36.4670   27.7670   40.3760 N   0  0  0  0  0  0  0  0  0  0  0  0
   36.7060   28.3350   41.5630 C   0  0  0  0  0  0  0  0  0  0  0  0
   36.7400   29.6690   41.6700 N   0  0  0  0  0  0  0  0  0  0  0  0
   36.5710   31.8510   40.6910 N   0  0  0  0  0  0  0  0  0  0  0  0
   36.1140   30.4360   38.4350 H   0  0  0  0  0  0  0  0  0  0  0  0
   36.0590   28.0370   38.2830 H   0  0  0  0  0  0  0  0  0  0  0  0
   36.1540   32.4480   39.9220 H   0  0  0  0  0  0  0  0  0  0  0  0
   36.9990   32.3380   41.5030 H   0  0  0  0  0  0  0  0  0  0  0  0
   36.9350   27.5570   42.7690 C   0  0  0  0  0  0  0  0  0  0  0  0
   36.0860   27.4150   43.6770 O   0  0  0  0  0  0  0  0  0  0  0  0
   38.2330   26.8910   42.9440 C   0  0  0  0  0  0  0  0  0  0  0  0
   39.3450   27.5390   43.3920 C   0  0  0  0  0  3  0  0  0  0  0  0
   40.5620   26.9050   43.5530 C   0  0  0  0  0  0  0  0  0  0  0  0
   41.4450   27.4190   43.9090 H   0  0  0  0  0  0  0  0  0  0  0  0
   40.6790   25.5970   43.2620 N   0  0  0  0  0  0  0  0  0  0  0  0
   39.5660   24.9480   42.8120 C   0  0  0  0  0  3  0  0  0  0  0  0
   38.3800   25.5720   42.6570 N   0  0  0  0  0  0  0  0  0  0  0  0
  1  7  1  0  0  0  0
  1  6  1  0  0  0  0
  2  1  2  0  0  0  0
  3  2  1  0  0  0  0
  3  4  2  0  0  0  0
  4  5  1  0  0  0  0
  5  6  2  0  0  0  0
  5 12  1  0  0  0  0
  7 11  1  0  0  0  0
  8  2  1  0  0  0  0
  9  3  1  0  0  0  0
 10  7  1  0  0  0  0
 12 14  1  0  0  0  0
 12 13  2  0  0  0  0
 14 15  1  0  0  0  0
 15 16  2  0  0  0  0
 16 17  1  0  0  0  0
 18 16  1  0  0  0  0
 19 18  2  0  0  0  0
 20 19  1  0  0  0  0
 20 14  2  0  0  0  0
M  END
>  <minimizedAffinity>
-4.46234322

$$$$

 OpenBabel03242512283D

 20 21  0  0  0  0  0  0  0  0999 V2000
   37.4860   32.7900   39.4570 C   0  0  0  0  0  0  0  0  0  0  0  0
   37.3720   31.9190   38.3660 C   0  0  0  0  0  0  0  0  0  0  0  0
   37.9040   30.6260   38.4930 C   0  0  0  0  0  0  0  0  0  0  0  0
   38.4890   30.3130   39.6650 N   0  0  0  0  0  0  0  0  0  0  0  0
   38.5870   31.1630   40.6930 C   0  0  0  0  0  0  0  0  0  0  0  0
   38.0840   32.3990   40.5870 N   0  0  0  0  0  0  0  0  0  0  0  0
   36.9500   34.0950   39.3290 N   0  0  0  0  0  0  0  0  0  0  0  0
   36.8990   32.1780   37.4260 H   0  0  0  0  0  0  0  0  0  0  0  0
   37.8130   29.9650   37.6550 H   0  0  0  0  0  0  0  0  0  0  0  0
   36.2550   34.3130   38.5600 H   0  0  0  0  0  0  0  0  0  0  0  0
   37.2150   34.8670   39.9720 H   0  0  0  0  0  0  0  0  0  0  0  0
   39.2240   30.8000   41.9480 C   0  0  0  0  0  0  0  0  0  0  0  0
   40.0270   31.5410   42.5600 O   0  0  0  0  0  0  0  0  0  0  0  0
   38.9180   29.4930   42.5440 C   0  0  0  0  0  0  0  0  0  0  0  0
   39.8370   28.4910   42.6470 C   0  0  0  0  0  3  0  0  0  0  0  0
   39.5390   27.2640   43.2090 C   0  0  0  0  0  0  0  0  0  0  0  0
   40.2680   26.4690   43.2910 H   0  0  0  0  0  0  0  0  0  0  0  0
   38.3020   27.0250   43.6790 N   0  0  0  0  0  0  0  0  0  0  0  0
   37.3820   28.0280   43.5750 C   0  0  0  0  0  3  0  0  0  0  0  0
   37.6780   29.2250   43.0260 N   0  0  0  0  0  0  0  0  0  0  0  0
  1  6  1  0  0  0  0
  2  3  1  0  0  0  0
  2  1  2  0  0  0  0
  3  4  2  0  0  0  0
  4  5  1  0  0  0  0
  5 12  1  0  0  0  0
  6  5  2  0  0  0  0
  7  1  1  0  0  0  0
  7 11  1  0  0  0  0
  8  2  1  0  0  0  0
  9  3  1  0  0  0  0
 10  7  1  0  0  0  0
 12 14  1  0  0  0  0
 12 13  2  0  0  0  0
 14 15  2  0  0  0  0
 14 20  1  0  0  0  0
 15 16  1  0  0  0  0
 16 17  1  0  0  0  0
 16 18  2  0  0  0  0
 19 18  1  0  0  0  0
 20 19  2  0  0  0  0
M  END
>  <minimizedAffinity>
-4.45774889

$$$$

 OpenBabel03242512283D

 20 21  0  0  0  0  0  0  0  0999 V2000
   36.9230   31.3290   40.2650 C   0  0  0  0  0  0  0  0  0  0  0  0
   36.6640   30.7820   39.0020 C   0  0  0  0  0  0  0  0  0  0  0  0
   36.7020   29.3860   38.8640 C   0  0  0  0  0  0  0  0  0  0  0  0
   36.9860   28.6650   39.9660 N   0  0  0  0  0  0  0  0  0  0  0  0
   37.2300   29.2110   41.1630 C   0  0  0  0  0  0  0  0  0  0  0  0
   37.1970   30.5410   41.3100 N   0  0  0  0  0  0  0  0  0  0  0  0
   36.8850   32.7380   40.4040 N   0  0  0  0  0  0  0  0  0  0  0  0
   36.4360   31.3680   38.1190 H   0  0  0  0  0  0  0  0  0  0  0  0
   36.5030   28.9750   37.8950 H   0  0  0  0  0  0  0  0  0  0  0  0
   36.4140   33.3350   39.6670 H   0  0  0  0  0  0  0  0  0  0  0  0
   37.3090   33.2240   41.2190 H   0  0  0  0  0  0  0  0  0  0  0  0
   37.5340   28.4110   42.3380 C   0  0  0  0  0  0  0  0  0  0  0  0
   37.4760   28.8460   43.5100 O   0  0  0  0  0  0  0  0  0  0  0  0
   37.9340   27.0090   42.1530 C   0  0  0  0  0  0  0  0  0  0  0  0
   37.0710   25.9650   42.3090 C   0  0  0  0  0  3  0  0  0  0  0  0
   37.4560   24.6500   42.1330 C   0  0  0  0  0  0  0  0  0  0  0  0
   36.7710   23.8210   42.2570 H   0  0  0  0  0  0  0  0  0  0  0  0
   38.7250   24.3630   41.7970 N   0  0  0  0  0  0  0  0  0  0  0  0
   39.5900   25.4080   41.6420 C   0  0  0  0  0  3  0  0  0  0  0  0
   39.2090   26.6910   41.8140 N   0  0  0  0  0  0  0  0  0  0  0  0
  1  7  1  0  0  0  0
  1  6  1  0  0  0  0
  2  1  2  0  0  0  0
  3  2  1  0  0  0  0
  3  4  2  0  0  0  0
  4  5  1  0  0  0  0
  5  6  2  0  0  0  0
  5 12  1  0  0  0  0
  7 11  1  0  0  0  0
  8  2  1  0  0  0  0
  9  3  1  0  0  0  0
 10  7  1  0  0  0  0
 12 13  2  0  0  0  0
 14 15  1  0  0  0  0
 14 12  1  0  0  0  0
 16 17  1  0  0  0  0
 16 15  2  0  0  0  0
 18 16  1  0  0  0  0
 19 18  2  0  0  0  0
 19 20  1  0  0  0  0
 20 14  2  0  0  0  0
M  END
>  <minimizedAffinity>
-4.43893099

$$$$

 OpenBabel03242512283D

 20 21  0  0  0  0  0  0  0  0999 V2000
   39.4960   32.2730   38.3700 C   0  0  0  0  0  0  0  0  0  0  0  0
   40.4380   33.0190   39.0890 C   0  0  0  0  0  0  0  0  0  0  0  0
   40.3640   33.0050   40.4910 C   0  0  0  0  0  0  0  0  0  0  0  0
   39.3850   32.2670   41.0490 N   0  0  0  0  0  0  0  0  0  0  0  0
   38.4950   31.5620   40.3410 C   0  0  0  0  0  0  0  0  0  0  0  0
   38.5530   31.5660   39.0030 N   0  0  0  0  0  0  0  0  0  0  0  0
   39.5690   32.2870   36.9550 N   0  0  0  0  0  0  0  0  0  0  0  0
   41.2240   33.6100   38.6330 H   0  0  0  0  0  0  0  0  0  0  0  0
   41.0880   33.5770   41.0330 H   0  0  0  0  0  0  0  0  0  0  0  0
   40.4530   32.6140   36.4710 H   0  0  0  0  0  0  0  0  0  0  0  0
   38.7750   31.9840   36.3580 H   0  0  0  0  0  0  0  0  0  0  0  0
   37.4470   30.7750   40.9670 C   0  0  0  0  0  0  0  0  0  0  0  0
   36.2480   31.1310   41.0230 O   0  0  0  0  0  0  0  0  0  0  0  0
   37.8000   29.4840   41.5730 C   0  0  0  0  0  0  0  0  0  0  0  0
   37.7280   29.2490   42.9150 C   0  0  0  0  0  3  0  0  0  0  0  0
   38.0630   28.0320   43.4750 C   0  0  0  0  0  0  0  0  0  0  0  0
   38.0060   27.8460   44.5400 H   0  0  0  0  0  0  0  0  0  0  0  0
   38.4790   27.0240   42.6890 N   0  0  0  0  0  0  0  0  0  0  0  0
   38.5520   27.2590   41.3460 C   0  0  0  0  0  3  0  0  0  0  0  0
   38.2240   28.4500   40.8030 N   0  0  0  0  0  0  0  0  0  0  0  0
  1  6  2  0  0  0  0
  1  2  1  0  0  0  0
  2  3  2  0  0  0  0
  3  9  1  0  0  0  0
  3  4  1  0  0  0  0
  5 12  1  0  0  0  0
  5  4  2  0  0  0  0
  6  5  1  0  0  0  0
  7  1  1  0  0  0  0
  8  2  1  0  0  0  0
 10  7  1  0  0  0  0
 11  7  1  0  0  0  0
 12 13  2  0  0  0  0
 12 14  1  0  0  0  0
 14 15  1  0  0  0  0
 15 16  2  0  0  0  0
 16 17  1  0  0  0  0
 18 16  1  0  0  0  0
 19 18  2  0  0  0  0
 20 19  1  0  0  0  0
 20 14  2  0  0  0  0
M  END
>  <minimizedAffinity>
-4.39228392

$$$$

 OpenBabel03242512283D

 20 21  0  0  0  0  0  0  0  0999 V2000
   38.9720   31.6930   37.8590 C   0  0  0  0  0  0  0  0  0  0  0  0
   37.6900   31.3430   37.4170 C   0  0  0  0  0  0  0  0  0  0  0  0
   36.8090   30.7540   38.3370 C   0  0  0  0  0  0  0  0  0  0  0  0
   37.2630   30.5670   39.5920 N   0  0  0  0  0  0  0  0  0  0  0  0
   38.4930   30.9100   39.9910 C   0  0  0  0  0  0  0  0  0  0  0  0
   39.3440   31.4720   39.1250 N   0  0  0  0  0  0  0  0  0  0  0  0
   39.8610   32.2860   36.9300 N   0  0  0  0  0  0  0  0  0  0  0  0
   37.3310   31.4960   36.4050 H   0  0  0  0  0  0  0  0  0  0  0  0
   35.8310   30.4890   37.9920 H   0  0  0  0  0  0  0  0  0  0  0  0
   39.4920   32.7010   36.0280 H   0  0  0  0  0  0  0  0  0  0  0  0
   40.8860   32.3340   37.0990 H   0  0  0  0  0  0  0  0  0  0  0  0
   38.9600   30.6970   41.3510 C   0  0  0  0  0  0  0  0  0  0  0  0
   39.6080   31.5450   42.0050 O   0  0  0  0  0  0  0  0  0  0  0  0
   38.6580   29.4180   42.0090 C   0  0  0  0  0  0  0  0  0  0  0  0
   37.7000   29.2860   42.9710 C   0  0  0  0  0  3  0  0  0  0  0  0
   37.4240   28.0790   43.5840 C   0  0  0  0  0  0  0  0  0  0  0  0
   36.6640   27.9750   44.3470 H   0  0  0  0  0  0  0  0  0  0  0  0
   38.1130   26.9780   43.2370 N   0  0  0  0  0  0  0  0  0  0  0  0
   39.0730   27.1100   42.2750 C   0  0  0  0  0  3  0  0  0  0  0  0
   39.3390   28.2910   41.6780 N   0  0  0  0  0  0  0  0  0  0  0  0
  1  6  1  0  0  0  0
  2  1  2  0  0  0  0
  2  3  1  0  0  0  0
  3  4  2  0  0  0  0
  4  5  1  0  0  0  0
  5 12  1  0  0  0  0
  6  5  2  0  0  0  0
  7 11  1  0  0  0  0
  7  1  1  0  0  0  0
  8  2  1  0  0  0  0
  9  3  1  0  0  0  0
 10  7  1  0  0  0  0
 12 13  2  0  0  0  0
 12 14  1  0  0  0  0
 14 15  1  0  0  0  0
 15 16  2  0  0  0  0
 16 17  1  0  0  0  0
 18 16  1  0  0  0  0
 19 18  2  0  0  0  0
 20 14  2  0  0  0  0
 20 19  1  0  0  0  0
M  END
>  <minimizedAffinity>
-4.38805819

$$$$

 OpenBabel03242512283D

 20 21  0  0  0  0  0  0  0  0999 V2000
   37.5380   26.6920   42.2870 C   0  0  0  0  0  0  0  0  0  0  0  0
   38.1120   27.3910   43.3560 C   0  0  0  0  0  0  0  0  0  0  0  0
   37.8870   28.7740   43.4410 C   0  0  0  0  0  0  0  0  0  0  0  0
   37.1280   29.3340   42.4800 N   0  0  0  0  0  0  0  0  0  0  0  0
   36.5900   28.6450   41.4670 C   0  0  0  0  0  0  0  0  0  0  0  0
   36.7960   27.3260   41.3730 N   0  0  0  0  0  0  0  0  0  0  0  0
   37.7660   25.2960   42.2020 N   0  0  0  0  0  0  0  0  0  0  0  0
   38.7220   26.9330   44.1270 H   0  0  0  0  0  0  0  0  0  0  0  0
   38.3290   29.3010   44.2610 H   0  0  0  0  0  0  0  0  0  0  0  0
   38.1140   24.7600   43.0460 H   0  0  0  0  0  0  0  0  0  0  0  0
   37.6020   24.7630   41.3250 H   0  0  0  0  0  0  0  0  0  0  0  0
   35.7750   29.2740   40.4410 C   0  0  0  0  0  0  0  0  0  0  0  0
   34.5400   29.1020   40.3320 O   0  0  0  0  0  0  0  0  0  0  0  0
   36.4240   30.1670   39.4720 C   0  0  0  0  0  0  0  0  0  0  0  0
   36.8110   29.7580   38.2300 C   0  0  0  0  0  3  0  0  0  0  0  0
   37.4220   30.6050   37.3250 C   0  0  0  0  0  0  0  0  0  0  0  0
   37.7290   30.2810   36.3400 H   0  0  0  0  0  0  0  0  0  0  0  0
   37.6550   31.8870   37.6590 N   0  0  0  0  0  0  0  0  0  0  0  0
   37.2680   32.2960   38.9030 C   0  0  0  0  0  3  0  0  0  0  0  0
   36.6720   31.4650   39.7830 N   0  0  0  0  0  0  0  0  0  0  0  0
  1  2  1  0  0  0  0
  2  3  2  0  0  0  0
  2  8  1  0  0  0  0
  3  9  1  0  0  0  0
  4  3  1  0  0  0  0
  5  4  2  0  0  0  0
  6  5  1  0  0  0  0
  6  1  2  0  0  0  0
  7  1  1  0  0  0  0
  7 10  1  0  0  0  0
 11  7  1  0  0  0  0
 12  5  1  0  0  0  0
 13 12  2  0  0  0  0
 14 20  1  0  0  0  0
 14 12  1  0  0  0  0
 15 14  2  0  0  0  0
 16 18  2  0  0  0  0
 16 15  1  0  0  0  0
 17 16  1  0  0  0  0
 18 19  1  0  0  0  0
 19 20  2  0  0  0  0
M  END
>  <minimizedAffinity>
-4.32858276

$$$$

 OpenBabel03242512283D

 20 21  0  0  0  0  0  0  0  0999 V2000
   37.5390   31.3840   38.0960 C   0  0  0  0  0  0  0  0  0  0  0  0
   37.8340   32.5470   38.8190 C   0  0  0  0  0  0  0  0  0  0  0  0
   37.4320   32.6130   40.1620 C   0  0  0  0  0  0  0  0  0  0  0  0
   36.7850   31.5430   40.6640 N   0  0  0  0  0  0  0  0  0  0  0  0
   36.5130   30.4430   39.9540 C   0  0  0  0  0  0  0  0  0  0  0  0
   36.8910   30.3650   38.6720 N   0  0  0  0  0  0  0  0  0  0  0  0
   37.9440   31.3180   36.7410 N   0  0  0  0  0  0  0  0  0  0  0  0
   38.3550   33.4040   38.4070 H   0  0  0  0  0  0  0  0  0  0  0  0
   37.6610   33.5050   40.7070 H   0  0  0  0  0  0  0  0  0  0  0  0
   38.6750   31.9880   36.3690 H   0  0  0  0  0  0  0  0  0  0  0  0
   37.5470   30.6220   36.0790 H   0  0  0  0  0  0  0  0  0  0  0  0
   35.8130   29.3020   40.5200 C   0  0  0  0  0  0  0  0  0  0  0  0
   34.5860   29.0980   40.3790 O   0  0  0  0  0  0  0  0  0  0  0  0
   36.5780   28.3220   41.3040 C   0  0  0  0  0  0  0  0  0  0  0  0
   37.1680   28.6240   42.4950 C   0  0  0  0  0  3  0  0  0  0  0  0
   37.8860   27.6960   43.2250 C   0  0  0  0  0  0  0  0  0  0  0  0
   38.3550   27.9350   44.1710 H   0  0  0  0  0  0  0  0  0  0  0  0
   38.0220   26.4410   42.7640 N   0  0  0  0  0  0  0  0  0  0  0  0
   37.4310   26.1390   41.5700 C   0  0  0  0  0  3  0  0  0  0  0  0
   36.7310   27.0480   40.8610 N   0  0  0  0  0  0  0  0  0  0  0  0
  1  6  2  0  0  0  0
  1  2  1  0  0  0  0
  2  3  2  0  0  0  0
  3  4  1  0  0  0  0
  3  9  1  0  0  0  0
  5 12  1  0  0  0  0
  5  4  2  0  0  0  0
  6  5  1  0  0  0  0
  7  1  1  0  0  0  0
  8  2  1  0  0  0  0
 10  7  1  0  0  0  0
 11  7  1  0  0  0  0
 12 14  1  0  0  0  0
 13 12  2  0  0  0  0
 14 15  1  0  0  0  0
 15 16  2  0  0  0  0
 16 17  1  0  0  0  0
 18 16  1  0  0  0  0
 19 18  2  0  0  0  0
 20 14  2  0  0  0  0
 20 19  1  0  0  0  0
M  END
>  <minimizedAffinity>
-4.31314611

$$$$
