
 OpenBabel03252503263D

 23 24  0  0  0  0  0  0  0  0999 V2000
   45.2600   34.8740   42.6230 C   0  0  0  0  0  0  0  0  0  0  0  0
   46.3520   35.2700   41.8210 C   0  0  0  0  0  0  0  0  0  0  0  0
   47.6280   34.8800   42.2640 C   0  0  0  0  0  0  0  0  0  0  0  0
   47.7140   34.1630   43.4120 N   0  0  0  0  0  0  0  0  0  0  0  0
   46.6230   33.8090   44.1430 C   0  0  0  0  0  0  0  0  0  0  0  0
   45.4030   34.1680   43.7440 N   0  0  0  0  0  0  0  0  0  0  0  0
   43.4600   34.4250   41.1640 C   0  0  0  0  0  0  0  0  0  0  0  0
   44.2650   33.5570   40.6820 O   0  0  0  0  0  0  0  0  0  0  0  0
   43.9310   35.2290   42.2420 N   0  0  0  0  0  0  0  0  0  0  0  0
   46.2120   35.8410   40.9180 H   0  0  0  0  0  0  0  0  0  0  0  0
   46.7280   33.2370   45.0550 H   0  0  0  0  0  0  0  0  0  0  0  0
   43.3390   35.9710   42.6630 H   0  0  0  0  0  0  0  0  0  0  0  0
   42.0980   34.6120   40.6500 C   0  0  0  0  0  0  0  0  0  0  0  0
   41.9430   35.2350   39.4260 C   0  0  0  0  0  3  0  0  0  0  0  0
   40.6190   35.3820   38.9940 C   0  0  0  0  0  0  0  0  0  0  0  0
   40.4680   35.8640   38.0460 H   0  0  0  0  0  0  0  0  0  0  0  0
   39.5870   34.9390   39.7350 N   0  0  0  0  0  0  0  0  0  0  0  0
   39.7750   34.3360   40.9210 C   0  0  0  0  0  3  0  0  0  0  0  0
   41.0510   34.1760   41.3750 N   0  0  0  0  0  0  0  0  0  0  0  0
   48.7420   35.2960   41.4280 C   0  0  0  0  0  0  0  0  0  0  0  0
   49.8380   34.4700   41.6750 F   0  0  0  0  0  0  0  0  0  0  0  0
   49.1260   36.5550   41.8650 F   0  0  0  0  0  0  0  0  0  0  0  0
   48.4760   35.2370   40.0860 F   0  0  0  0  0  0  0  0  0  0  0  0
  1  6  1  0  0  0  0
  2  3  1  0  0  0  0
  2  1  2  0  0  0  0
  3  4  2  0  0  0  0
  4  5  1  0  0  0  0
  5 11  1  0  0  0  0
  6  5  2  0  0  0  0
  7  9  1  0  0  0  0
  8  7  2  0  0  0  0
  9  1  1  0  0  0  0
  9 12  1  0  0  0  0
 10  2  1  0  0  0  0
 13  7  1  0  0  0  0
 13 19  1  0  0  0  0
 14 13  2  0  0  0  0
 15 14  1  0  0  0  0
 15 17  2  0  0  0  0
 16 15  1  0  0  0  0
 17 18  1  0  0  0  0
 18 19  2  0  0  0  0
 20 21  1  0  0  0  0
 20 22  1  0  0  0  0
 20  3  1  0  0  0  0
 23 20  1  0  0  0  0
M  END
>  <minimizedAffinity>
-5.82954073

>  <minimizedRMSD>
1.21345174

$$$$
