
 OpenBabel03252503313D

 39 41  0  0  1  0  0  0  0  0999 V2000
   45.4460   34.4930   42.2340 C   0  0  0  0  0  0  0  0  0  0  0  0
   46.5420   35.2340   41.7070 C   0  0  0  0  0  0  0  0  0  0  0  0
   47.8200   34.8560   42.1520 C   0  0  0  0  0  0  0  0  0  0  0  0
   47.9090   33.8390   43.0280 N   0  0  0  0  0  0  0  0  0  0  0  0
   46.8370   33.1660   43.5000 C   0  0  0  0  0  0  0  0  0  0  0  0
   45.5970   33.5030   43.0930 N   0  0  0  0  0  0  0  0  0  0  0  0
   43.8410   34.3570   40.5260 C   0  0  0  0  0  0  0  0  0  0  0  0
   44.7730   33.7730   39.8760 O   0  0  0  0  0  0  0  0  0  0  0  0
   44.1100   34.8180   41.8280 N   0  0  0  0  0  0  0  0  0  0  0  0
   42.5900   34.4960   39.8780 N   0  0  0  0  0  0  0  0  0  0  0  0
   42.4910   34.2700   38.4240 C   0  0  0  0  0  0  0  0  0  0  0  0
   41.3860   35.2010   38.0330 C   0  0  0  0  0  0  0  0  0  0  0  0
   40.8670   35.7980   39.3070 C   0  0  0  0  0  0  0  0  0  0  0  0
   41.2820   34.8130   40.3730 C   0  0  1  0  0  0  0  0  0  0  0  0
   46.2800   36.0090   41.0220 H   0  0  0  0  0  0  0  0  0  0  0  0
   46.9710   32.3510   44.2070 H   0  0  0  0  0  0  0  0  0  0  0  0
   43.3550   35.3210   42.3370 H   0  0  0  0  0  0  0  0  0  0  0  0
   43.4340   34.4690   37.9010 H   0  0  0  0  0  0  0  0  0  0  0  0
   42.1540   33.2190   38.2400 H   0  0  0  0  0  0  0  0  0  0  0  0
   40.5840   34.6800   37.4420 H   0  0  0  0  0  0  0  0  0  0  0  0
   41.7860   35.9660   37.3340 H   0  0  0  0  0  0  0  0  0  0  0  0
   41.6410   36.6250   39.4940 H   0  0  0  0  0  0  0  0  0  0  0  0
   39.9720   36.3280   39.3260 H   0  0  0  0  0  0  0  0  0  0  0  0
   41.1680   35.3640   41.2990 H   0  0  0  0  0  0  0  0  0  0  0  0
   39.8470   33.0710   41.6140 C   0  0  0  0  0  0  0  0  0  0  0  0
   39.8560   33.9370   42.5140 O   0  0  0  0  0  0  0  0  0  0  0  0
   40.4780   33.5980   40.4190 N   0  0  0  0  0  0  0  0  0  0  0  0
   40.3470   33.0620   39.5040 H   0  0  0  0  0  0  0  0  0  0  0  0
   39.3080   31.7420   41.6960 C   0  0  0  0  0  0  0  0  0  0  0  0
   38.0860   31.5470   41.0820 C   0  0  0  0  0  3  0  0  0  0  0  0
   37.5280   30.2760   41.1370 C   0  0  0  0  0  0  0  0  0  0  0  0
   36.5700   30.0700   40.6710 H   0  0  0  0  0  0  0  0  0  0  0  0
   38.0920   29.2340   41.7440 N   0  0  0  0  0  0  0  0  0  0  0  0
   39.2990   29.4640   42.3400 C   0  0  0  0  0  3  0  0  0  0  0  0
   39.8910   30.6940   42.3140 N   0  0  0  0  0  0  0  0  0  0  0  0
   48.9230   35.6310   41.5980 C   0  0  0  0  0  0  0  0  0  0  0  0
   50.1250   35.0440   41.9730 F   0  0  0  0  0  0  0  0  0  0  0  0
   48.9040   36.8840   42.2380 F   0  0  0  0  0  0  0  0  0  0  0  0
   48.8920   35.7440   40.2350 F   0  0  0  0  0  0  0  0  0  0  0  0
  1  6  1  0  0  0  0
  2  3  1  0  0  0  0
  2  1  2  0  0  0  0
  3  4  2  0  0  0  0
  4  5  1  0  0  0  0
  5 16  1  0  0  0  0
  6  5  2  0  0  0  0
  7  9  1  0  0  0  0
  8  7  2  0  0  0  0
  9  1  1  0  0  0  0
  9 17  1  0  0  0  0
 10 14  1  0  0  0  0
 10  7  1  0  0  0  0
 11 10  1  0  0  0  0
 12 11  1  0  0  0  0
 12 13  1  0  0  0  0
 13 23  1  0  0  0  0
 13 22  1  0  0  0  0
 13 14  1  0  0  0  0
 14 27  1  0  0  0  0
 14 24  1  1  0  0  0
 15  2  1  0  0  0  0
 18 11  1  0  0  0  0
 19 11  1  0  0  0  0
 20 12  1  0  0  0  0
 21 12  1  0  0  0  0
 25 29  1  0  0  0  0
 25 26  2  0  0  0  0
 27 25  1  0  0  0  0
 28 27  1  0  0  0  0
 29 35  1  0  0  0  0
 30 31  1  0  0  0  0
 30 29  2  0  0  0  0
 31 33  2  0  0  0  0
 32 31  1  0  0  0  0
 33 34  1  0  0  0  0
 35 34  2  0  0  0  0
 36 37  1  0  0  0  0
 36  3  1  0  0  0  0
 36 38  1  0  0  0  0
 39 36  1  0  0  0  0
M  END
>  <minimizedAffinity>
-6.9204278

>  <minimizedRMSD>
1.14599085

$$$$
