
 OpenBabel03252503333D

 39 41  0  0  1  0  0  0  0  0999 V2000
   40.0480   28.2790   42.0880 C   0  0  0  0  0  0  0  0  0  0  0  0
   38.7910   27.6700   41.8190 C   0  0  0  0  0  0  0  0  0  0  0  0
   38.4340   26.5880   42.6420 C   0  0  0  0  0  0  0  0  0  0  0  0
   39.2960   26.2160   43.6060 N   0  0  0  0  0  0  0  0  0  0  0  0
   40.4810   26.8280   43.8220 C   0  0  0  0  0  0  0  0  0  0  0  0
   40.8530   27.8700   43.0510 N   0  0  0  0  0  0  0  0  0  0  0  0
   39.7980   30.5700   41.6370 C   0  0  0  0  0  0  0  0  0  0  0  0
   38.8930   30.5140   42.5370 O   0  0  0  0  0  0  0  0  0  0  0  0
   40.4830   29.3900   41.2920 N   0  0  0  0  0  0  0  0  0  0  0  0
   40.0480   31.8330   41.0480 N   0  0  0  0  0  0  0  0  0  0  0  0
   39.0840   32.9320   41.2410 C   0  0  0  0  0  0  0  0  0  0  0  0
   39.2310   33.7080   39.9700 C   0  0  0  0  0  0  0  0  0  0  0  0
   40.3440   33.0570   39.2040 C   0  0  0  0  0  0  0  0  0  0  0  0
   41.1390   32.3250   40.2580 C   0  0  1  0  0  0  0  0  0  0  0  0
   38.2400   28.0990   41.0120 H   0  0  0  0  0  0  0  0  0  0  0  0
   41.1370   26.4840   44.6170 H   0  0  0  0  0  0  0  0  0  0  0  0
   41.1960   29.4380   40.5360 H   0  0  0  0  0  0  0  0  0  0  0  0
   38.0640   32.5730   41.4170 H   0  0  0  0  0  0  0  0  0  0  0  0
   39.4280   33.5730   42.0920 H   0  0  0  0  0  0  0  0  0  0  0  0
   39.4190   34.8010   40.1600 H   0  0  0  0  0  0  0  0  0  0  0  0
   38.2660   33.6900   39.4200 H   0  0  0  0  0  0  0  0  0  0  0  0
   39.7930   32.1720   38.7250 H   0  0  0  0  0  0  0  0  0  0  0  0
   40.7700   33.5230   38.3770 H   0  0  0  0  0  0  0  0  0  0  0  0
   41.7550   31.6370   39.6920 H   0  0  0  0  0  0  0  0  0  0  0  0
   43.2950   32.8140   41.5790 C   0  0  0  0  0  0  0  0  0  0  0  0
   43.7050   31.7990   40.9780 O   0  0  0  0  0  0  0  0  0  0  0  0
   41.9820   33.1810   41.0820 N   0  0  0  0  0  0  0  0  0  0  0  0
   41.6010   34.1470   41.3350 H   0  0  0  0  0  0  0  0  0  0  0  0
   43.9770   33.5450   42.6100 C   0  0  0  0  0  0  0  0  0  0  0  0
   43.7900   34.9130   42.6030 C   0  0  0  0  0  3  0  0  0  0  0  0
   44.4330   35.6610   43.5840 C   0  0  0  0  0  0  0  0  0  0  0  0
   44.3180   36.7390   43.6220 H   0  0  0  0  0  0  0  0  0  0  0  0
   45.2150   35.1450   44.5280 N   0  0  0  0  0  0  0  0  0  0  0  0
   45.3760   33.7900   44.5020 C   0  0  0  0  0  3  0  0  0  0  0  0
   44.7680   33.0100   43.5620 N   0  0  0  0  0  0  0  0  0  0  0  0
   37.1420   25.9820   42.3450 C   0  0  0  0  0  0  0  0  0  0  0  0
   36.1990   26.4580   43.2460 F   0  0  0  0  0  0  0  0  0  0  0  0
   37.2610   24.6080   42.6210 F   0  0  0  0  0  0  0  0  0  0  0  0
   36.6980   26.2190   41.0730 F   0  0  0  0  0  0  0  0  0  0  0  0
  1  6  1  0  0  0  0
  2  1  2  0  0  0  0
  2  3  1  0  0  0  0
  3  4  2  0  0  0  0
  4  5  1  0  0  0  0
  5 16  1  0  0  0  0
  6  5  2  0  0  0  0
  7  8  2  0  0  0  0
  9  7  1  0  0  0  0
  9  1  1  0  0  0  0
 10 11  1  0  0  0  0
 10  7  1  0  0  0  0
 11 18  1  0  0  0  0
 11 19  1  0  0  0  0
 12 20  1  0  0  0  0
 12 11  1  0  0  0  0
 13 12  1  0  0  0  0
 13 14  1  0  0  0  0
 14 24  1  6  0  0  0
 14 10  1  0  0  0  0
 14 27  1  0  0  0  0
 15  2  1  0  0  0  0
 17  9  1  0  0  0  0
 21 12  1  0  0  0  0
 22 13  1  0  0  0  0
 23 13  1  0  0  0  0
 25 29  1  0  0  0  0
 26 25  2  0  0  0  0
 27 28  1  0  0  0  0
 27 25  1  0  0  0  0
 29 35  1  0  0  0  0
 30 29  2  0  0  0  0
 30 31  1  0  0  0  0
 31 32  1  0  0  0  0
 31 33  2  0  0  0  0
 34 33  1  0  0  0  0
 35 34  2  0  0  0  0
 36 38  1  0  0  0  0
 36  3  1  0  0  0  0
 36 37  1  0  0  0  0
 39 36  1  0  0  0  0
M  END
>  <minimizedAffinity>
-6.1567502

$$$$

 OpenBabel03252503333D

 39 41  0  0  1  0  0  0  0  0999 V2000
   39.9200   31.0710   40.6900 C   0  0  0  0  0  0  0  0  0  0  0  0
   39.2960   32.3350   40.8880 C   0  0  0  0  0  0  0  0  0  0  0  0
   39.5570   33.3170   39.9170 C   0  0  0  0  0  0  0  0  0  0  0  0
   40.3650   32.9920   38.8910 N   0  0  0  0  0  0  0  0  0  0  0  0
   40.9350   31.7750   38.7490 C   0  0  0  0  0  0  0  0  0  0  0  0
   40.7050   30.8110   39.6620 N   0  0  0  0  0  0  0  0  0  0  0  0
   38.4240   29.4470   41.4900 C   0  0  0  0  0  0  0  0  0  0  0  0
   37.6350   29.9310   40.6100 O   0  0  0  0  0  0  0  0  0  0  0  0
   39.7030   30.0170   41.6390 N   0  0  0  0  0  0  0  0  0  0  0  0
   37.9470   28.3590   42.2590 N   0  0  0  0  0  0  0  0  0  0  0  0
   36.5080   28.0360   42.2540 C   0  0  0  0  0  0  0  0  0  0  0  0
   36.3050   27.4730   43.6260 C   0  0  0  0  0  0  0  0  0  0  0  0
   37.6620   27.4130   44.2620 C   0  0  0  0  0  0  0  0  0  0  0  0
   38.6180   27.4050   43.0940 C   0  0  1  0  0  0  0  0  0  0  0  0
   38.6870   32.4100   41.7610 H   0  0  0  0  0  0  0  0  0  0  0  0
   41.5800   31.5710   37.8980 H   0  0  0  0  0  0  0  0  0  0  0  0
   40.3270   29.6380   42.3790 H   0  0  0  0  0  0  0  0  0  0  0  0
   35.8800   28.9100   42.0450 H   0  0  0  0  0  0  0  0  0  0  0  0
   36.3180   27.2270   41.5040 H   0  0  0  0  0  0  0  0  0  0  0  0
   35.7950   26.4700   43.6000 H   0  0  0  0  0  0  0  0  0  0  0  0
   35.5990   28.1230   44.1840 H   0  0  0  0  0  0  0  0  0  0  0  0
   37.7890   28.4990   44.6120 H   0  0  0  0  0  0  0  0  0  0  0  0
   37.8180   26.8810   45.1420 H   0  0  0  0  0  0  0  0  0  0  0  0
   39.5760   27.6490   43.5370 H   0  0  0  0  0  0  0  0  0  0  0  0
   39.6380   25.8420   41.3200 C   0  0  0  0  0  0  0  0  0  0  0  0
   40.5200   26.7250   41.2770 O   0  0  0  0  0  0  0  0  0  0  0  0
   38.7070   26.1310   42.3940 N   0  0  0  0  0  0  0  0  0  0  0  0
   38.0350   25.3570   42.6980 H   0  0  0  0  0  0  0  0  0  0  0  0
   39.5180   24.6960   40.4630 C   0  0  0  0  0  0  0  0  0  0  0  0
   38.6110   23.7350   40.8650 C   0  0  0  0  0  3  0  0  0  0  0  0
   38.4620   22.6070   40.0650 C   0  0  0  0  0  0  0  0  0  0  0  0
   37.7630   21.8240   40.3370 H   0  0  0  0  0  0  0  0  0  0  0  0
   39.1360   22.3930   38.9380 N   0  0  0  0  0  0  0  0  0  0  0  0
   40.0240   23.3640   38.5740 C   0  0  0  0  0  3  0  0  0  0  0  0
   40.2070   24.4900   39.3230 N   0  0  0  0  0  0  0  0  0  0  0  0
   38.9050   34.6010   40.1430 C   0  0  0  0  0  0  0  0  0  0  0  0
   38.7980   34.8210   41.5110 F   0  0  0  0  0  0  0  0  0  0  0  0
   37.5820   34.4750   39.6810 F   0  0  0  0  0  0  0  0  0  0  0  0
   39.5550   35.6610   39.5740 F   0  0  0  0  0  0  0  0  0  0  0  0
  1  2  1  0  0  0  0
  1  9  1  0  0  0  0
  2 15  1  0  0  0  0
  3 36  1  0  0  0  0
  3  2  2  0  0  0  0
  4  3  1  0  0  0  0
  5  4  2  0  0  0  0
  5  6  1  0  0  0  0
  6  1  2  0  0  0  0
  7  9  1  0  0  0  0
  7 10  1  0  0  0  0
  8  7  2  0  0  0  0
  9 17  1  0  0  0  0
 10 14  1  0  0  0  0
 11 10  1  0  0  0  0
 11 12  1  0  0  0  0
 12 21  1  0  0  0  0
 12 13  1  0  0  0  0
 13 22  1  0  0  0  0
 13 23  1  0  0  0  0
 14 24  1  1  0  0  0
 14 13  1  0  0  0  0
 16  5  1  0  0  0  0
 18 11  1  0  0  0  0
 19 11  1  0  0  0  0
 20 12  1  0  0  0  0
 25 27  1  0  0  0  0
 26 25  2  0  0  0  0
 27 28  1  0  0  0  0
 27 14  1  0  0  0  0
 29 30  1  0  0  0  0
 29 25  1  0  0  0  0
 31 32  1  0  0  0  0
 31 30  2  0  0  0  0
 33 31  1  0  0  0  0
 34 33  2  0  0  0  0
 34 35  1  0  0  0  0
 35 29  2  0  0  0  0
 36 37  1  0  0  0  0
 38 36  1  0  0  0  0
 39 36  1  0  0  0  0
M  END
>  <minimizedAffinity>
-6.13225126

$$$$

 OpenBabel03252503333D

 39 41  0  0  1  0  0  0  0  0999 V2000
   40.3110   30.6770   39.6790 C   0  0  0  0  0  0  0  0  0  0  0  0
   40.4150   32.0130   40.1580 C   0  0  0  0  0  0  0  0  0  0  0  0
   40.5960   33.0110   39.1850 C   0  0  0  0  0  0  0  0  0  0  0  0
   40.6570   32.6330   37.8960 N   0  0  0  0  0  0  0  0  0  0  0  0
   40.5540   31.3480   37.4910 C   0  0  0  0  0  0  0  0  0  0  0  0
   40.3790   30.3670   38.3990 N   0  0  0  0  0  0  0  0  0  0  0  0
   38.8050   29.5670   41.0980 C   0  0  0  0  0  0  0  0  0  0  0  0
   37.9830   30.4650   40.7110 O   0  0  0  0  0  0  0  0  0  0  0  0
   40.1250   29.6020   40.6110 N   0  0  0  0  0  0  0  0  0  0  0  0
   38.3190   28.5890   41.9980 N   0  0  0  0  0  0  0  0  0  0  0  0
   37.0340   28.8070   42.6890 C   0  0  0  0  0  0  0  0  0  0  0  0
   37.2470   28.0900   43.9860 C   0  0  0  0  0  0  0  0  0  0  0  0
   38.5880   27.4260   43.8860 C   0  0  0  0  0  0  0  0  0  0  0  0
   38.8340   27.3120   42.4010 C   0  0  1  0  0  0  0  0  0  0  0  0
   40.3440   32.1240   41.2170 H   0  0  0  0  0  0  0  0  0  0  0  0
   40.6110   31.1020   36.4340 H   0  0  0  0  0  0  0  0  0  0  0  0
   40.7960   28.8860   40.9550 H   0  0  0  0  0  0  0  0  0  0  0  0
   36.7970   29.8700   42.8130 H   0  0  0  0  0  0  0  0  0  0  0  0
   36.2220   28.2860   42.1230 H   0  0  0  0  0  0  0  0  0  0  0  0
   36.4190   27.3610   44.2070 H   0  0  0  0  0  0  0  0  0  0  0  0
   37.1940   28.8220   44.8190 H   0  0  0  0  0  0  0  0  0  0  0  0
   39.2860   28.3010   44.1330 H   0  0  0  0  0  0  0  0  0  0  0  0
   38.8840   26.7080   44.5780 H   0  0  0  0  0  0  0  0  0  0  0  0
   39.8950   27.1050   42.3250 H   0  0  0  0  0  0  0  0  0  0  0  0
   38.4100   24.8470   41.7900 C   0  0  0  0  0  0  0  0  0  0  0  0
   39.2530   24.6430   42.6890 O   0  0  0  0  0  0  0  0  0  0  0  0
   38.0760   26.2570   41.7410 N   0  0  0  0  0  0  0  0  0  0  0  0
   37.2140   26.5500   41.1820 H   0  0  0  0  0  0  0  0  0  0  0  0
   37.8280   23.8710   40.9130 C   0  0  0  0  0  0  0  0  0  0  0  0
   36.5550   24.1530   40.4570 C   0  0  0  0  0  3  0  0  0  0  0  0
   35.9520   23.2330   39.6050 C   0  0  0  0  0  0  0  0  0  0  0  0
   34.9540   23.4080   39.2190 H   0  0  0  0  0  0  0  0  0  0  0  0
   36.5210   22.1010   39.1990 N   0  0  0  0  0  0  0  0  0  0  0  0
   37.7790   21.8560   39.6710 C   0  0  0  0  0  3  0  0  0  0  0  0
   38.4150   22.7260   40.5090 N   0  0  0  0  0  0  0  0  0  0  0  0
   40.6990   34.3700   39.7030 C   0  0  0  0  0  0  0  0  0  0  0  0
   41.4610   35.1330   38.8280 F   0  0  0  0  0  0  0  0  0  0  0  0
   41.4530   34.2990   40.8890 F   0  0  0  0  0  0  0  0  0  0  0  0
   39.4930   34.9850   39.8920 F   0  0  0  0  0  0  0  0  0  0  0  0
  1  2  1  0  0  0  0
  1  9  1  0  0  0  0
  2 15  1  0  0  0  0
  3 36  1  0  0  0  0
  3  2  2  0  0  0  0
  4  3  1  0  0  0  0
  5  4  2  0  0  0  0
  5  6  1  0  0  0  0
  6  1  2  0  0  0  0
  7 10  1  0  0  0  0
  8  7  2  0  0  0  0
  9 17  1  0  0  0  0
  9  7  1  0  0  0  0
 10 14  1  0  0  0  0
 10 11  1  0  0  0  0
 11 18  1  0  0  0  0
 11 12  1  0  0  0  0
 12 20  1  0  0  0  0
 12 21  1  0  0  0  0
 13 12  1  0  0  0  0
 13 22  1  0  0  0  0
 13 23  1  0  0  0  0
 14 24  1  6  0  0  0
 14 13  1  0  0  0  0
 16  5  1  0  0  0  0
 19 11  1  0  0  0  0
 25 26  2  0  0  0  0
 27 25  1  0  0  0  0
 27 14  1  0  0  0  0
 28 27  1  0  0  0  0
 29 25  1  0  0  0  0
 30 29  2  0  0  0  0
 31 30  1  0  0  0  0
 32 31  1  0  0  0  0
 33 31  2  0  0  0  0
 33 34  1  0  0  0  0
 34 35  2  0  0  0  0
 35 29  1  0  0  0  0
 36 39  1  0  0  0  0
 36 38  1  0  0  0  0
 37 36  1  0  0  0  0
M  END
>  <minimizedAffinity>
-6.1061821

$$$$

 OpenBabel03252503333D

 39 41  0  0  1  0  0  0  0  0999 V2000
   38.6100   27.1560   39.4850 C   0  0  0  0  0  0  0  0  0  0  0  0
   37.7270   26.5810   40.4420 C   0  0  0  0  0  0  0  0  0  0  0  0
   38.0850   25.3170   40.9400 C   0  0  0  0  0  0  0  0  0  0  0  0
   39.2180   24.7550   40.4820 N   0  0  0  0  0  0  0  0  0  0  0  0
   40.0250   25.3420   39.5700 C   0  0  0  0  0  0  0  0  0  0  0  0
   39.7100   26.5550   39.0730 N   0  0  0  0  0  0  0  0  0  0  0  0
   38.5820   29.4750   39.8490 C   0  0  0  0  0  0  0  0  0  0  0  0
   38.9960   29.1640   41.0170 O   0  0  0  0  0  0  0  0  0  0  0  0
   38.3130   28.4440   38.9290 N   0  0  0  0  0  0  0  0  0  0  0  0
   38.4260   30.8530   39.5630 N   0  0  0  0  0  0  0  0  0  0  0  0
   38.4280   31.8320   40.6660 C   0  0  0  0  0  0  0  0  0  0  0  0
   37.5220   32.9020   40.1410 C   0  0  0  0  0  0  0  0  0  0  0  0
   37.1660   32.5030   38.7400 C   0  0  0  0  0  0  0  0  0  0  0  0
   38.2760   31.5670   38.3290 C   0  0  1  0  0  0  0  0  0  0  0  0
   36.8730   27.1730   40.6860 H   0  0  0  0  0  0  0  0  0  0  0  0
   40.9290   24.8400   39.2380 H   0  0  0  0  0  0  0  0  0  0  0  0
   37.9460   28.7050   37.9920 H   0  0  0  0  0  0  0  0  0  0  0  0
   38.0890   31.4000   41.6150 H   0  0  0  0  0  0  0  0  0  0  0  0
   39.4580   32.2580   40.7730 H   0  0  0  0  0  0  0  0  0  0  0  0
   37.9950   33.9210   40.1940 H   0  0  0  0  0  0  0  0  0  0  0  0
   36.6330   32.9800   40.8020 H   0  0  0  0  0  0  0  0  0  0  0  0
   36.3300   31.7410   38.9340 H   0  0  0  0  0  0  0  0  0  0  0  0
   36.7050   33.1740   38.0930 H   0  0  0  0  0  0  0  0  0  0  0  0
   37.8850   31.0640   37.4530 H   0  0  0  0  0  0  0  0  0  0  0  0
   40.7410   31.5420   37.5850 C   0  0  0  0  0  0  0  0  0  0  0  0
   40.4740   30.3590   37.2840 O   0  0  0  0  0  0  0  0  0  0  0  0
   39.5320   32.2270   38.0000 N   0  0  0  0  0  0  0  0  0  0  0  0
   39.5590   33.2930   38.0710 H   0  0  0  0  0  0  0  0  0  0  0  0
   42.0290   32.1750   37.5430 C   0  0  0  0  0  0  0  0  0  0  0  0
   42.0350   33.5430   37.7390 C   0  0  0  0  0  3  0  0  0  0  0  0
   43.2610   34.1990   37.7060 C   0  0  0  0  0  0  0  0  0  0  0  0
   43.3190   35.2710   37.8540 H   0  0  0  0  0  0  0  0  0  0  0  0
   44.4290   33.5950   37.5000 N   0  0  0  0  0  0  0  0  0  0  0  0
   44.3830   32.2440   37.3100 C   0  0  0  0  0  3  0  0  0  0  0  0
   43.2060   31.5530   37.3330 N   0  0  0  0  0  0  0  0  0  0  0  0
   37.1630   24.7520   41.9180 C   0  0  0  0  0  0  0  0  0  0  0  0
   36.6560   25.7750   42.7080 F   0  0  0  0  0  0  0  0  0  0  0  0
   37.9280   23.9530   42.7880 F   0  0  0  0  0  0  0  0  0  0  0  0
   36.1200   24.0630   41.3630 F   0  0  0  0  0  0  0  0  0  0  0  0
  1  2  1  0  0  0  0
  2 15  1  0  0  0  0
  2  3  2  0  0  0  0
  3 36  1  0  0  0  0
  4  3  1  0  0  0  0
  5  4  2  0  0  0  0
  6  1  2  0  0  0  0
  6  5  1  0  0  0  0
  7  8  2  0  0  0  0
  9  1  1  0  0  0  0
  9  7  1  0  0  0  0
 10  7  1  0  0  0  0
 10 11  1  0  0  0  0
 11 19  1  0  0  0  0
 11 18  1  0  0  0  0
 12 20  1  0  0  0  0
 12 11  1  0  0  0  0
 12 21  1  0  0  0  0
 13 22  1  0  0  0  0
 13 12  1  0  0  0  0
 14 24  1  6  0  0  0
 14 13  1  0  0  0  0
 14 10  1  0  0  0  0
 16  5  1  0  0  0  0
 17  9  1  0  0  0  0
 23 13  1  0  0  0  0
 25 27  1  0  0  0  0
 26 25  2  0  0  0  0
 27 28  1  0  0  0  0
 27 14  1  0  0  0  0
 29 25  1  0  0  0  0
 29 30  1  0  0  0  0
 31 30  2  0  0  0  0
 31 32  1  0  0  0  0
 33 31  1  0  0  0  0
 34 35  1  0  0  0  0
 34 33  2  0  0  0  0
 35 29  2  0  0  0  0
 36 37  1  0  0  0  0
 36 38  1  0  0  0  0
 39 36  1  0  0  0  0
M  END
>  <minimizedAffinity>
-5.96105051

$$$$

 OpenBabel03252503333D

 39 41  0  0  1  0  0  0  0  0999 V2000
   39.4810   31.6950   41.1040 C   0  0  0  0  0  0  0  0  0  0  0  0
   39.5730   32.9620   40.4620 C   0  0  0  0  0  0  0  0  0  0  0  0
   40.8280   33.5930   40.5070 C   0  0  0  0  0  0  0  0  0  0  0  0
   41.8300   32.9620   41.1450 N   0  0  0  0  0  0  0  0  0  0  0  0
   41.6910   31.7570   41.7410 C   0  0  0  0  0  0  0  0  0  0  0  0
   40.5020   31.1240   41.7150 N   0  0  0  0  0  0  0  0  0  0  0  0
   37.9730   30.4090   39.8440 C   0  0  0  0  0  0  0  0  0  0  0  0
   38.8070   30.6020   38.8950 O   0  0  0  0  0  0  0  0  0  0  0  0
   38.2330   30.9880   41.1000 N   0  0  0  0  0  0  0  0  0  0  0  0
   36.8370   29.6150   39.5560 N   0  0  0  0  0  0  0  0  0  0  0  0
   36.4900   29.3170   38.1540 C   0  0  0  0  0  0  0  0  0  0  0  0
   34.9990   29.2070   38.2140 C   0  0  0  0  0  0  0  0  0  0  0  0
   34.6230   29.3380   39.6600 C   0  0  0  0  0  0  0  0  0  0  0  0
   35.8820   28.9620   40.4040 C   0  0  1  0  0  0  0  0  0  0  0  0
   38.6720   33.3080   40.0060 H   0  0  0  0  0  0  0  0  0  0  0  0
   42.5390   31.2950   42.2410 H   0  0  0  0  0  0  0  0  0  0  0  0
   37.5340   30.8520   41.8580 H   0  0  0  0  0  0  0  0  0  0  0  0
   36.8430   30.0880   37.4590 H   0  0  0  0  0  0  0  0  0  0  0  0
   36.9110   28.3170   37.8790 H   0  0  0  0  0  0  0  0  0  0  0  0
   34.6270   28.2490   37.7550 H   0  0  0  0  0  0  0  0  0  0  0  0
   34.5510   30.0030   37.5820 H   0  0  0  0  0  0  0  0  0  0  0  0
   34.6510   30.4770   39.7920 H   0  0  0  0  0  0  0  0  0  0  0  0
   33.6650   29.1030   39.9880 H   0  0  0  0  0  0  0  0  0  0  0  0
   35.7100   29.3250   41.4100 H   0  0  0  0  0  0  0  0  0  0  0  0
   37.0580   26.8870   41.3750 C   0  0  0  0  0  0  0  0  0  0  0  0
   37.3240   27.6710   42.3100 O   0  0  0  0  0  0  0  0  0  0  0  0
   36.1630   27.5330   40.4340 N   0  0  0  0  0  0  0  0  0  0  0  0
   35.6720   26.9220   39.7080 H   0  0  0  0  0  0  0  0  0  0  0  0
   37.5360   25.5440   41.2090 C   0  0  0  0  0  0  0  0  0  0  0  0
   36.7300   24.7050   40.4650 C   0  0  0  0  0  3  0  0  0  0  0  0
   37.1540   23.3930   40.2790 C   0  0  0  0  0  0  0  0  0  0  0  0
   36.5570   22.6950   39.7030 H   0  0  0  0  0  0  0  0  0  0  0  0
   38.2850   22.8940   40.7710 N   0  0  0  0  0  0  0  0  0  0  0  0
   39.0550   23.7530   41.5010 C   0  0  0  0  0  3  0  0  0  0  0  0
   38.6850   25.0490   41.7130 N   0  0  0  0  0  0  0  0  0  0  0  0
   40.8940   34.8890   39.8430 C   0  0  0  0  0  0  0  0  0  0  0  0
   41.4280   34.7210   38.5720 F   0  0  0  0  0  0  0  0  0  0  0  0
   41.8380   35.6610   40.5450 F   0  0  0  0  0  0  0  0  0  0  0  0
   39.6860   35.5200   39.7350 F   0  0  0  0  0  0  0  0  0  0  0  0
  1  6  1  0  0  0  0
  2  3  1  0  0  0  0
  2  1  2  0  0  0  0
  3  4  2  0  0  0  0
  4  5  1  0  0  0  0
  5 16  1  0  0  0  0
  6  5  2  0  0  0  0
  7  9  1  0  0  0  0
  8  7  2  0  0  0  0
  9  1  1  0  0  0  0
  9 17  1  0  0  0  0
 10  7  1  0  0  0  0
 10 14  1  0  0  0  0
 11 12  1  0  0  0  0
 11 10  1  0  0  0  0
 12 13  1  0  0  0  0
 13 22  1  0  0  0  0
 13 23  1  0  0  0  0
 13 14  1  0  0  0  0
 14 27  1  0  0  0  0
 14 24  1  1  0  0  0
 15  2  1  0  0  0  0
 18 11  1  0  0  0  0
 19 11  1  0  0  0  0
 20 12  1  0  0  0  0
 21 12  1  0  0  0  0
 25 26  2  0  0  0  0
 27 25  1  0  0  0  0
 28 27  1  0  0  0  0
 29 25  1  0  0  0  0
 29 35  1  0  0  0  0
 30 29  2  0  0  0  0
 31 30  1  0  0  0  0
 31 33  2  0  0  0  0
 32 31  1  0  0  0  0
 33 34  1  0  0  0  0
 34 35  2  0  0  0  0
 36  3  1  0  0  0  0
 36 38  1  0  0  0  0
 37 36  1  0  0  0  0
 39 36  1  0  0  0  0
M  END
>  <minimizedAffinity>
-5.94159508

$$$$

 OpenBabel03252503333D

 39 41  0  0  1  0  0  0  0  0999 V2000
   39.4440   27.4370   40.6600 C   0  0  0  0  0  0  0  0  0  0  0  0
   38.2880   26.6110   40.7550 C   0  0  0  0  0  0  0  0  0  0  0  0
   38.4050   25.4690   41.5660 C   0  0  0  0  0  0  0  0  0  0  0  0
   39.5810   25.2470   42.1800 N   0  0  0  0  0  0  0  0  0  0  0  0
   40.6510   26.0640   42.0560 C   0  0  0  0  0  0  0  0  0  0  0  0
   40.5720   27.1670   41.2870 N   0  0  0  0  0  0  0  0  0  0  0  0
   38.6770   29.6500   40.4800 C   0  0  0  0  0  0  0  0  0  0  0  0
   38.1340   29.4140   41.6120 O   0  0  0  0  0  0  0  0  0  0  0  0
   39.4030   28.6210   39.8510 N   0  0  0  0  0  0  0  0  0  0  0  0
   38.5070   30.9460   39.9380 N   0  0  0  0  0  0  0  0  0  0  0  0
   37.4860   31.8460   40.5050 C   0  0  0  0  0  0  0  0  0  0  0  0
   37.0810   32.6560   39.3130 C   0  0  0  0  0  0  0  0  0  0  0  0
   37.9810   32.2330   38.1900 C   0  0  0  0  0  0  0  0  0  0  0  0
   39.1850   31.6430   38.8840 C   0  0  1  0  0  0  0  0  0  0  0  0
   37.4420   26.9450   40.1960 H   0  0  0  0  0  0  0  0  0  0  0  0
   41.5760   25.8330   42.5780 H   0  0  0  0  0  0  0  0  0  0  0  0
   39.8150   28.8120   38.9150 H   0  0  0  0  0  0  0  0  0  0  0  0
   36.6530   31.3030   40.9660 H   0  0  0  0  0  0  0  0  0  0  0  0
   37.9720   32.5260   41.2500 H   0  0  0  0  0  0  0  0  0  0  0  0
   37.1330   33.7620   39.5150 H   0  0  0  0  0  0  0  0  0  0  0  0
   36.0080   32.4700   39.0950 H   0  0  0  0  0  0  0  0  0  0  0  0
   37.4630   31.2690   37.8440 H   0  0  0  0  0  0  0  0  0  0  0  0
   38.0320   32.7820   37.3080 H   0  0  0  0  0  0  0  0  0  0  0  0
   39.6920   31.0890   38.1030 H   0  0  0  0  0  0  0  0  0  0  0  0
   41.3710   32.3130   40.0680 C   0  0  0  0  0  0  0  0  0  0  0  0
   41.7030   31.1440   39.7750 O   0  0  0  0  0  0  0  0  0  0  0  0
   40.0910   32.6260   39.4620 N   0  0  0  0  0  0  0  0  0  0  0  0
   39.7860   33.6500   39.4340 H   0  0  0  0  0  0  0  0  0  0  0  0
   42.1070   33.2440   40.8750 C   0  0  0  0  0  0  0  0  0  0  0  0
   41.7550   34.5720   40.7360 C   0  0  0  0  0  3  0  0  0  0  0  0
   42.4420   35.5100   41.5000 C   0  0  0  0  0  0  0  0  0  0  0  0
   42.2040   36.5650   41.4270 H   0  0  0  0  0  0  0  0  0  0  0  0
   43.4170   35.2120   42.3550 N   0  0  0  0  0  0  0  0  0  0  0  0
   43.7380   33.8890   42.4650 C   0  0  0  0  0  3  0  0  0  0  0  0
   43.0940   32.9290   41.7390 N   0  0  0  0  0  0  0  0  0  0  0  0
   37.2080   24.6410   41.6460 C   0  0  0  0  0  0  0  0  0  0  0  0
   36.3770   24.9390   40.5730 F   0  0  0  0  0  0  0  0  0  0  0  0
   36.5010   25.0540   42.7900 F   0  0  0  0  0  0  0  0  0  0  0  0
   37.4610   23.2980   41.6490 F   0  0  0  0  0  0  0  0  0  0  0  0
  1  2  2  0  0  0  0
  1  6  1  0  0  0  0
  2  3  1  0  0  0  0
  3 36  1  0  0  0  0
  3  4  2  0  0  0  0
  5  4  1  0  0  0  0
  5 16  1  0  0  0  0
  6  5  2  0  0  0  0
  7  8  2  0  0  0  0
  9  7  1  0  0  0  0
  9  1  1  0  0  0  0
 10  7  1  0  0  0  0
 10 11  1  0  0  0  0
 11 18  1  0  0  0  0
 11 19  1  0  0  0  0
 12 20  1  0  0  0  0
 12 11  1  0  0  0  0
 13 14  1  0  0  0  0
 13 12  1  0  0  0  0
 14 24  1  6  0  0  0
 14 27  1  0  0  0  0
 14 10  1  0  0  0  0
 15  2  1  0  0  0  0
 17  9  1  0  0  0  0
 21 12  1  0  0  0  0
 22 13  1  0  0  0  0
 23 13  1  0  0  0  0
 25 29  1  0  0  0  0
 26 25  2  0  0  0  0
 27 25  1  0  0  0  0
 28 27  1  0  0  0  0
 29 35  1  0  0  0  0
 30 29  2  0  0  0  0
 30 31  1  0  0  0  0
 31 33  2  0  0  0  0
 32 31  1  0  0  0  0
 33 34  1  0  0  0  0
 35 34  2  0  0  0  0
 36 39  1  0  0  0  0
 36 38  1  0  0  0  0
 37 36  1  0  0  0  0
M  END
>  <minimizedAffinity>
-5.82912636

$$$$

 OpenBabel03252503333D

 39 41  0  0  1  0  0  0  0  0999 V2000
   37.4880   31.1530   40.3850 C   0  0  0  0  0  0  0  0  0  0  0  0
   37.5780   32.5360   40.0600 C   0  0  0  0  0  0  0  0  0  0  0  0
   38.6690   33.2340   40.6050 C   0  0  0  0  0  0  0  0  0  0  0  0
   39.5320   32.5520   41.3790 N   0  0  0  0  0  0  0  0  0  0  0  0
   39.4020   31.2370   41.6600 C   0  0  0  0  0  0  0  0  0  0  0  0
   38.3670   30.5380   41.1520 N   0  0  0  0  0  0  0  0  0  0  0  0
   36.5860   30.0760   38.5030 C   0  0  0  0  0  0  0  0  0  0  0  0
   37.6150   30.5420   37.9070 O   0  0  0  0  0  0  0  0  0  0  0  0
   36.4020   30.3730   39.8670 N   0  0  0  0  0  0  0  0  0  0  0  0
   35.6970   29.2850   37.7370 N   0  0  0  0  0  0  0  0  0  0  0  0
   35.8000   29.2870   36.2660 C   0  0  0  0  0  0  0  0  0  0  0  0
   34.3820   29.0530   35.8490 C   0  0  0  0  0  0  0  0  0  0  0  0
   33.6040   28.8240   37.1100 C   0  0  0  0  0  0  0  0  0  0  0  0
   34.6450   28.3860   38.1120 C   0  0  1  0  0  0  0  0  0  0  0  0
   36.8000   32.9080   39.4300 H   0  0  0  0  0  0  0  0  0  0  0  0
   40.1320   30.7390   42.2920 H   0  0  0  0  0  0  0  0  0  0  0  0
   35.5450   30.0160   40.3360 H   0  0  0  0  0  0  0  0  0  0  0  0
   36.2220   30.2200   35.8730 H   0  0  0  0  0  0  0  0  0  0  0  0
   36.4160   28.4100   35.9420 H   0  0  0  0  0  0  0  0  0  0  0  0
   34.2900   28.1990   35.1220 H   0  0  0  0  0  0  0  0  0  0  0  0
   34.0210   29.9350   35.2780 H   0  0  0  0  0  0  0  0  0  0  0  0
   33.4340   29.9020   37.4630 H   0  0  0  0  0  0  0  0  0  0  0  0
   32.6340   28.4480   37.0810 H   0  0  0  0  0  0  0  0  0  0  0  0
   34.1500   28.4960   39.0700 H   0  0  0  0  0  0  0  0  0  0  0  0
   36.0650   26.3540   38.8090 C   0  0  0  0  0  0  0  0  0  0  0  0
   36.2250   27.0230   39.8520 O   0  0  0  0  0  0  0  0  0  0  0  0
   35.1020   27.0130   37.9470 N   0  0  0  0  0  0  0  0  0  0  0  0
   34.6960   26.4560   37.1300 H   0  0  0  0  0  0  0  0  0  0  0  0
   36.7090   25.1180   38.4670 C   0  0  0  0  0  0  0  0  0  0  0  0
   35.9990   23.9680   38.7560 C   0  0  0  0  0  3  0  0  0  0  0  0
   36.5860   22.7470   38.4420 C   0  0  0  0  0  0  0  0  0  0  0  0
   36.0700   21.8160   38.6490 H   0  0  0  0  0  0  0  0  0  0  0  0
   37.7850   22.6120   37.8810 N   0  0  0  0  0  0  0  0  0  0  0  0
   38.4560   23.7700   37.6110 C   0  0  0  0  0  3  0  0  0  0  0  0
   37.9250   24.9940   37.8990 N   0  0  0  0  0  0  0  0  0  0  0  0
   38.7370   34.6480   40.2560 C   0  0  0  0  0  0  0  0  0  0  0  0
   39.8780   34.8750   39.4970 F   0  0  0  0  0  0  0  0  0  0  0  0
   38.9400   35.3550   41.4560 F   0  0  0  0  0  0  0  0  0  0  0  0
   37.6480   35.1020   39.5650 F   0  0  0  0  0  0  0  0  0  0  0  0
  1  6  1  0  0  0  0
  2  1  2  0  0  0  0
  2  3  1  0  0  0  0
  3  4  2  0  0  0  0
  4  5  1  0  0  0  0
  5 16  1  0  0  0  0
  6  5  2  0  0  0  0
  7  9  1  0  0  0  0
  8  7  2  0  0  0  0
  9 17  1  0  0  0  0
  9  1  1  0  0  0  0
 10 14  1  0  0  0  0
 10  7  1  0  0  0  0
 11 10  1  0  0  0  0
 12 11  1  0  0  0  0
 12 13  1  0  0  0  0
 13 22  1  0  0  0  0
 13 14  1  0  0  0  0
 14 24  1  1  0  0  0
 15  2  1  0  0  0  0
 18 11  1  0  0  0  0
 19 11  1  0  0  0  0
 20 12  1  0  0  0  0
 21 12  1  0  0  0  0
 23 13  1  0  0  0  0
 25 26  2  0  0  0  0
 27 14  1  0  0  0  0
 27 25  1  0  0  0  0
 28 27  1  0  0  0  0
 29 30  1  0  0  0  0
 29 25  1  0  0  0  0
 31 32  1  0  0  0  0
 31 30  2  0  0  0  0
 33 31  1  0  0  0  0
 34 33  2  0  0  0  0
 34 35  1  0  0  0  0
 35 29  2  0  0  0  0
 36  3  1  0  0  0  0
 36 38  1  0  0  0  0
 37 36  1  0  0  0  0
 39 36  1  0  0  0  0
M  END
>  <minimizedAffinity>
-5.63966513

$$$$

 OpenBabel03252503333D

 39 41  0  0  1  0  0  0  0  0999 V2000
   35.6090   28.4970   38.3980 C   0  0  0  0  0  0  0  0  0  0  0  0
   35.3350   27.1050   38.2780 C   0  0  0  0  0  0  0  0  0  0  0  0
   34.8180   26.6770   37.0430 C   0  0  0  0  0  0  0  0  0  0  0  0
   34.6250   27.6000   36.0840 N   0  0  0  0  0  0  0  0  0  0  0  0
   34.9010   28.9130   36.2480 C   0  0  0  0  0  0  0  0  0  0  0  0
   35.3980   29.3570   37.4200 N   0  0  0  0  0  0  0  0  0  0  0  0
   37.5020   28.6950   39.7730 C   0  0  0  0  0  0  0  0  0  0  0  0
   38.0690   27.9930   38.8690 O   0  0  0  0  0  0  0  0  0  0  0  0
   36.1380   29.0120   39.6270 N   0  0  0  0  0  0  0  0  0  0  0  0
   38.2990   29.1090   40.8670 N   0  0  0  0  0  0  0  0  0  0  0  0
   39.6130   28.4790   41.0930 C   0  0  0  0  0  0  0  0  0  0  0  0
   39.7470   28.5510   42.5820 C   0  0  0  0  0  0  0  0  0  0  0  0
   38.5550   29.3160   43.0760 C   0  0  0  0  0  0  0  0  0  0  0  0
   38.1020   30.1100   41.8750 C   0  0  1  0  0  0  0  0  0  0  0  0
   35.5510   26.5230   39.1450 H   0  0  0  0  0  0  0  0  0  0  0  0
   34.7240   29.6130   35.4360 H   0  0  0  0  0  0  0  0  0  0  0  0
   35.6760   29.5570   40.3840 H   0  0  0  0  0  0  0  0  0  0  0  0
   39.6640   27.4570   40.6990 H   0  0  0  0  0  0  0  0  0  0  0  0
   40.4090   29.1180   40.6320 H   0  0  0  0  0  0  0  0  0  0  0  0
   40.7210   29.0170   42.8970 H   0  0  0  0  0  0  0  0  0  0  0  0
   39.7930   27.5200   42.9920 H   0  0  0  0  0  0  0  0  0  0  0  0
   37.7530   28.4950   43.0810 H   0  0  0  0  0  0  0  0  0  0  0  0
   38.5120   29.6690   44.0530 H   0  0  0  0  0  0  0  0  0  0  0  0
   37.1000   30.4310   42.1350 H   0  0  0  0  0  0  0  0  0  0  0  0
   38.5150   32.3830   40.7380 C   0  0  0  0  0  0  0  0  0  0  0  0
   37.2800   32.3400   40.5580 O   0  0  0  0  0  0  0  0  0  0  0  0
   38.9290   31.2700   41.5710 N   0  0  0  0  0  0  0  0  0  0  0  0
   39.9100   31.2970   41.9940 H   0  0  0  0  0  0  0  0  0  0  0  0
   39.4310   33.3620   40.2240 C   0  0  0  0  0  0  0  0  0  0  0  0
   39.1480   34.6770   40.5390 C   0  0  0  0  0  3  0  0  0  0  0  0
   40.0090   35.6590   40.0600 C   0  0  0  0  0  0  0  0  0  0  0  0
   39.8300   36.7060   40.2800 H   0  0  0  0  0  0  0  0  0  0  0  0
   41.0860   35.4160   39.3190 N   0  0  0  0  0  0  0  0  0  0  0  0
   41.3330   34.1050   39.0280 C   0  0  0  0  0  3  0  0  0  0  0  0
   40.5200   33.1030   39.4730 N   0  0  0  0  0  0  0  0  0  0  0  0
   34.5460   25.2480   36.9480 C   0  0  0  0  0  0  0  0  0  0  0  0
   33.2380   25.0070   37.3470 F   0  0  0  0  0  0  0  0  0  0  0  0
   35.3530   24.6130   37.9100 F   0  0  0  0  0  0  0  0  0  0  0  0
   34.7290   24.7300   35.6950 F   0  0  0  0  0  0  0  0  0  0  0  0
  1  9  1  0  0  0  0
  2  1  1  0  0  0  0
  2 15  1  0  0  0  0
  3  2  2  0  0  0  0
  4  5  2  0  0  0  0
  4  3  1  0  0  0  0
  5  6  1  0  0  0  0
  6  1  2  0  0  0  0
  7 10  1  0  0  0  0
  8  7  2  0  0  0  0
  9  7  1  0  0  0  0
  9 17  1  0  0  0  0
 10 11  1  0  0  0  0
 10 14  1  0  0  0  0
 11 12  1  0  0  0  0
 12 20  1  0  0  0  0
 12 21  1  0  0  0  0
 12 13  1  0  0  0  0
 13 22  1  0  0  0  0
 13 23  1  0  0  0  0
 14 24  1  1  0  0  0
 14 13  1  0  0  0  0
 16  5  1  0  0  0  0
 18 11  1  0  0  0  0
 19 11  1  0  0  0  0
 25 27  1  0  0  0  0
 26 25  2  0  0  0  0
 27 14  1  0  0  0  0
 27 28  1  0  0  0  0
 29 30  1  0  0  0  0
 29 25  1  0  0  0  0
 31 32  1  0  0  0  0
 31 30  2  0  0  0  0
 33 31  1  0  0  0  0
 34 33  2  0  0  0  0
 34 35  1  0  0  0  0
 35 29  2  0  0  0  0
 36  3  1  0  0  0  0
 36 37  1  0  0  0  0
 36 38  1  0  0  0  0
 39 36  1  0  0  0  0
M  END
>  <minimizedAffinity>
-5.57401085

$$$$

 OpenBabel03252503333D

 39 41  0  0  1  0  0  0  0  0999 V2000
   37.0880   29.1930   38.6960 C   0  0  0  0  0  0  0  0  0  0  0  0
   36.4330   28.8590   37.4770 C   0  0  0  0  0  0  0  0  0  0  0  0
   36.5840   29.7720   36.4190 C   0  0  0  0  0  0  0  0  0  0  0  0
   37.3240   30.8740   36.6360 N   0  0  0  0  0  0  0  0  0  0  0  0
   37.9260   31.1460   37.8150 C   0  0  0  0  0  0  0  0  0  0  0  0
   37.8020   30.2910   38.8490 N   0  0  0  0  0  0  0  0  0  0  0  0
   37.7890   27.1690   39.6600 C   0  0  0  0  0  0  0  0  0  0  0  0
   38.4530   27.0350   38.5770 O   0  0  0  0  0  0  0  0  0  0  0  0
   36.9820   28.3110   39.8220 N   0  0  0  0  0  0  0  0  0  0  0  0
   37.9200   26.1470   40.6290 N   0  0  0  0  0  0  0  0  0  0  0  0
   38.5280   24.8570   40.2530 C   0  0  0  0  0  0  0  0  0  0  0  0
   37.8180   23.8970   41.1560 C   0  0  0  0  0  0  0  0  0  0  0  0
   36.9470   24.7250   42.0520 C   0  0  0  0  0  0  0  0  0  0  0  0
   37.5820   26.0950   42.0230 C   0  0  1  0  0  0  0  0  0  0  0  0
   35.8890   27.9410   37.4890 H   0  0  0  0  0  0  0  0  0  0  0  0
   38.5130   32.0540   37.9300 H   0  0  0  0  0  0  0  0  0  0  0  0
   36.4210   28.3960   40.6940 H   0  0  0  0  0  0  0  0  0  0  0  0
   38.4050   24.6260   39.1890 H   0  0  0  0  0  0  0  0  0  0  0  0
   39.6130   24.8710   40.5300 H   0  0  0  0  0  0  0  0  0  0  0  0
   38.5360   23.2480   41.7310 H   0  0  0  0  0  0  0  0  0  0  0  0
   37.2380   23.1790   40.5390 H   0  0  0  0  0  0  0  0  0  0  0  0
   36.0450   24.9140   41.3680 H   0  0  0  0  0  0  0  0  0  0  0  0
   36.4990   24.3140   42.8950 H   0  0  0  0  0  0  0  0  0  0  0  0
   36.8160   26.7480   42.4220 H   0  0  0  0  0  0  0  0  0  0  0  0
   39.5070   27.4550   43.0590 C   0  0  0  0  0  0  0  0  0  0  0  0
   38.7880   28.4230   42.7340 O   0  0  0  0  0  0  0  0  0  0  0  0
   38.7980   26.2140   42.8170 N   0  0  0  0  0  0  0  0  0  0  0  0
   39.1900   25.3190   43.2500 H   0  0  0  0  0  0  0  0  0  0  0  0
   40.8380   27.5080   43.5950 C   0  0  0  0  0  0  0  0  0  0  0  0
   41.6410   28.5260   43.1170 C   0  0  0  0  0  3  0  0  0  0  0  0
   42.9390   28.6140   43.6080 C   0  0  0  0  0  0  0  0  0  0  0  0
   43.6090   29.3940   43.2650 H   0  0  0  0  0  0  0  0  0  0  0  0
   43.4580   27.7840   44.5090 N   0  0  0  0  0  0  0  0  0  0  0  0
   42.6350   26.7910   44.9570 C   0  0  0  0  0  3  0  0  0  0  0  0
   41.3530   26.6600   44.5080 N   0  0  0  0  0  0  0  0  0  0  0  0
   35.9030   29.4060   35.1830 C   0  0  0  0  0  0  0  0  0  0  0  0
   35.9870   30.4640   34.2870 F   0  0  0  0  0  0  0  0  0  0  0  0
   34.5350   29.2860   35.4910 F   0  0  0  0  0  0  0  0  0  0  0  0
   36.4010   28.2800   34.5870 F   0  0  0  0  0  0  0  0  0  0  0  0
  1  6  1  0  0  0  0
  1  9  1  0  0  0  0
  2 15  1  0  0  0  0
  2  1  2  0  0  0  0
  3  4  2  0  0  0  0
  3  2  1  0  0  0  0
  4  5  1  0  0  0  0
  5 16  1  0  0  0  0
  5  6  2  0  0  0  0
  7  9  1  0  0  0  0
  7 10  1  0  0  0  0
  8  7  2  0  0  0  0
  9 17  1  0  0  0  0
 10 14  1  0  0  0  0
 11 19  1  0  0  0  0
 11 10  1  0  0  0  0
 11 12  1  0  0  0  0
 12 20  1  0  0  0  0
 12 13  1  0  0  0  0
 13 23  1  0  0  0  0
 14 13  1  0  0  0  0
 14 24  1  1  0  0  0
 14 27  1  0  0  0  0
 18 11  1  0  0  0  0
 21 12  1  0  0  0  0
 22 13  1  0  0  0  0
 25 29  1  0  0  0  0
 26 25  2  0  0  0  0
 27 25  1  0  0  0  0
 27 28  1  0  0  0  0
 29 35  1  0  0  0  0
 30 29  2  0  0  0  0
 30 31  1  0  0  0  0
 31 33  2  0  0  0  0
 32 31  1  0  0  0  0
 33 34  1  0  0  0  0
 35 34  2  0  0  0  0
 36 38  1  0  0  0  0
 36  3  1  0  0  0  0
 37 36  1  0  0  0  0
 39 36  1  0  0  0  0
M  END
>  <minimizedAffinity>
-5.53687382

$$$$
