
 OpenBabel03252501323D

 22 23  0  0  0  0  0  0  0  0999 V2000
   45.3390   34.6150   43.6030 C   0  0  0  0  0  0  0  0  0  0  0  0
   45.2470   34.4970   44.9770 C   0  0  0  0  0  0  0  0  0  0  0  0
   46.1730   33.6870   45.6070 C   0  0  0  0  0  0  0  0  0  0  0  0
   47.0890   33.0780   44.8390 N   0  0  0  0  0  0  0  0  0  0  0  0
   47.1630   33.2070   43.4950 C   0  0  0  0  0  0  0  0  0  0  0  0
   46.2730   33.9890   42.8660 N   0  0  0  0  0  0  0  0  0  0  0  0
   46.0910   33.6040   46.6650 H   0  0  0  0  0  0  0  0  0  0  0  0
   47.9340   32.6810   42.9470 H   0  0  0  0  0  0  0  0  0  0  0  0
   43.5590   34.5410   42.0900 C   0  0  0  0  0  0  0  0  0  0  0  0
   43.7510   33.3210   42.3890 O   0  0  0  0  0  0  0  0  0  0  0  0
   44.4580   35.4190   42.7720 N   0  0  0  0  0  0  0  0  0  0  0  0
   44.4160   36.4320   42.6380 H   0  0  0  0  0  0  0  0  0  0  0  0
   42.5460   35.0390   41.1610 C   0  0  0  0  0  0  0  0  0  0  0  0
   42.8440   34.8760   39.8160 C   0  0  0  0  0  0  0  0  0  0  0  0
   41.9960   35.2910   38.7960 C   0  0  0  0  0  0  0  0  0  0  0  0
   42.2450   35.1550   37.7560 H   0  0  0  0  0  0  0  0  0  0  0  0
   40.8330   35.8750   39.1940 N   0  0  0  0  0  0  0  0  0  0  0  0
   40.5370   36.0360   40.5020 C   0  0  0  0  0  0  0  0  0  0  0  0
   41.3870   35.6200   41.4630 N   0  0  0  0  0  0  0  0  0  0  0  0
   44.1970   35.2280   45.6160 N   0  0  0  0  0  0  0  0  0  0  0  0
   43.1790   35.1380   45.3440 H   0  0  0  0  0  0  0  0  0  0  0  0
   44.6270   35.8150   46.3440 H   0  0  0  0  0  0  0  0  0  0  0  0
  1  2  1  0  0  0  0
  2  3  2  0  0  0  0
  2 20  1  0  0  0  0
  3  7  1  0  0  0  0
  4  3  1  0  0  0  0
  5  4  2  0  0  0  0
  6  5  1  0  0  0  0
  6  1  2  0  0  0  0
  8  5  1  0  0  0  0
  9 10  2  0  0  0  0
  9 11  1  0  0  0  0
 11  1  1  0  0  0  0
 12 11  1  0  0  0  0
 13 19  1  0  0  0  0
 13  9  1  0  0  0  0
 14 13  2  0  0  0  0
 15 17  2  0  0  0  0
 15 14  1  0  0  0  0
 16 15  1  0  0  0  0
 17 18  1  0  0  0  0
 18 19  2  0  0  0  0
 20 22  1  0  0  0  0
 21 20  1  0  0  0  0
M  END
>  <minimizedAffinity>
-4.83693933

>  <minimizedRMSD>
1.8610692

$$$$
