
 OpenBabel03242520013D

 28 30  0  0  1  0  0  0  0  0999 V2000
   39.0760   30.2320   42.5450 Br  0  0  0  0  0  0  0  0  0  0  0  0
   37.7470   29.8120   41.2520 C   0  0  0  0  0  0  0  0  0  0  0  0
   37.4990   30.6050   40.1390 C   0  0  0  0  0  0  0  0  0  0  0  0
   36.4900   30.2220   39.2750 C   0  0  0  0  0  0  0  0  0  0  0  0
   35.7240   29.0920   39.4710 C   0  0  0  0  0  0  0  0  0  0  0  0
   35.9720   28.2910   40.5910 C   0  0  0  0  0  0  0  0  0  0  0  0
   36.9890   28.6890   41.4490 C   0  0  0  0  0  0  0  0  0  0  0  0
   36.3810   30.9060   38.4450 H   0  0  0  0  0  0  0  0  0  0  0  0
   34.9610   28.8840   38.7370 H   0  0  0  0  0  0  0  0  0  0  0  0
   35.3650   27.4050   40.7370 H   0  0  0  0  0  0  0  0  0  0  0  0
   38.7830   34.1600   40.1500 C   0  0  0  0  0  0  0  0  0  0  0  0
   37.9480   33.0440   40.3330 C   0  0  0  0  0  0  0  0  0  0  0  0
   38.3350   31.7770   39.9640 C   0  0  0  0  0  0  0  0  0  0  0  0
   39.5750   31.7320   39.4230 N   0  0  0  0  0  0  0  0  0  0  0  0
   40.3820   32.7730   39.2400 C   0  0  0  0  0  0  0  0  0  0  0  0
   39.9830   33.9770   39.6040 N   0  0  0  0  0  0  0  0  0  0  0  0
   38.3780   35.1120   40.4770 H   0  0  0  0  0  0  0  0  0  0  0  0
   36.9670   33.1840   40.7780 H   0  0  0  0  0  0  0  0  0  0  0  0
   41.3640   32.6410   38.7950 H   0  0  0  0  0  0  0  0  0  0  0  0
   37.2200   27.8050   42.5520 C   0  0  1  0  0  3  0  0  0  0  0  0
   36.5890   27.9850   43.6790 O   0  0  0  0  0  1  0  0  0  0  0  0
   38.1070   26.6420   42.6290 C   0  0  0  0  0  0  0  0  0  0  0  0
   39.1630   26.6570   43.5130 C   0  0  0  0  0  3  0  0  0  0  0  0
   40.0440   25.5780   43.6670 C   0  0  0  0  0  0  0  0  0  0  0  0
   40.8670   25.5870   44.3550 H   0  0  0  0  0  0  0  0  0  0  0  0
   39.8730   24.4670   42.9310 N   0  0  0  0  0  0  0  0  0  0  0  0
   38.8450   24.4450   42.0650 C   0  0  0  0  0  3  0  0  0  0  0  0
   38.0280   25.4930   41.9480 N   0  0  0  0  0  0  0  0  0  0  0  0
  2  7  1  0  0  0  0
  2  1  1  0  0  0  0
  3  2  2  0  0  0  0
  4  5  2  0  0  0  0
  4  3  1  0  0  0  0
  5  6  1  0  0  0  0
  6 10  1  0  0  0  0
  6  7  2  0  0  0  0
  7 20  1  0  0  0  0
  8  4  1  0  0  0  0
  9  5  1  0  0  0  0
 11 12  1  0  0  0  0
 11 17  1  0  0  0  0
 12 18  1  0  0  0  0
 13  3  1  0  0  0  0
 13 12  2  0  0  0  0
 14 13  1  0  0  0  0
 15 14  2  0  0  0  0
 15 16  1  0  0  0  0
 16 11  2  0  0  0  0
 19 15  1  0  0  0  0
 20 22  1  0  0  0  0
 20 21  1  6  0  0  0
 22 23  1  0  0  0  0
 23 24  2  0  0  0  0
 24 25  1  0  0  0  0
 26 24  1  0  0  0  0
 27 26  2  0  0  0  0
 28 27  1  0  0  0  0
 28 22  2  0  0  0  0
M  END
>  <minimizedAffinity>
-5.58697176

$$$$

 OpenBabel03242520013D

 28 30  0  0  1  0  0  0  0  0999 V2000
   36.3750   26.7360   38.6550 Br  0  0  0  0  0  0  0  0  0  0  0  0
   36.7650   26.8890   40.5100 C   0  0  0  0  0  0  0  0  0  0  0  0
   37.3680   25.8730   41.2410 C   0  0  0  0  0  0  0  0  0  0  0  0
   37.5820   26.0780   42.5910 C   0  0  0  0  0  0  0  0  0  0  0  0
   37.2240   27.2420   43.2390 C   0  0  0  0  0  0  0  0  0  0  0  0
   36.6180   28.2670   42.5040 C   0  0  0  0  0  0  0  0  0  0  0  0
   36.4110   28.0460   41.1490 C   0  0  0  0  0  0  0  0  0  0  0  0
   38.0560   25.2290   43.0640 H   0  0  0  0  0  0  0  0  0  0  0  0
   37.4360   27.3000   44.2950 H   0  0  0  0  0  0  0  0  0  0  0  0
   36.3400   29.1780   43.0220 H   0  0  0  0  0  0  0  0  0  0  0  0
   37.3330   22.4020   39.7460 C   0  0  0  0  0  0  0  0  0  0  0  0
   36.9440   23.5520   40.4560 C   0  0  0  0  0  0  0  0  0  0  0  0
   37.7400   24.6710   40.5190 C   0  0  0  0  0  0  0  0  0  0  0  0
   38.9030   24.5420   39.8400 N   0  0  0  0  0  0  0  0  0  0  0  0
   39.2920   23.4650   39.1630 C   0  0  0  0  0  0  0  0  0  0  0  0
   38.5080   22.4050   39.1200 N   0  0  0  0  0  0  0  0  0  0  0  0
   36.6300   21.5760   39.7610 H   0  0  0  0  0  0  0  0  0  0  0  0
   35.9880   23.5580   40.9690 H   0  0  0  0  0  0  0  0  0  0  0  0
   40.2480   23.4510   38.6460 H   0  0  0  0  0  0  0  0  0  0  0  0
   35.8240   29.1490   40.4480 C   0  0  1  0  0  3  0  0  0  0  0  0
   34.5500   29.1470   40.1710 O   0  0  0  0  0  1  0  0  0  0  0  0
   36.4640   30.3710   39.9570 C   0  0  0  0  0  0  0  0  0  0  0  0
   36.7390   30.4960   38.6130 C   0  0  0  0  0  3  0  0  0  0  0  0
   37.3260   31.6410   38.0580 C   0  0  0  0  0  0  0  0  0  0  0  0
   37.5410   31.7400   37.0120 H   0  0  0  0  0  0  0  0  0  0  0  0
   37.6450   32.6780   38.8510 N   0  0  0  0  0  0  0  0  0  0  0  0
   37.3800   32.5640   40.1630 C   0  0  0  0  0  3  0  0  0  0  0  0
   36.8200   31.4570   40.6540 N   0  0  0  0  0  0  0  0  0  0  0  0
  1  2  1  0  0  0  0
  2  7  2  0  0  0  0
  2  3  1  0  0  0  0
  3  4  2  0  0  0  0
  4  8  1  0  0  0  0
  4  5  1  0  0  0  0
  5  9  1  0  0  0  0
  6 10  1  0  0  0  0
  6  5  2  0  0  0  0
  7  6  1  0  0  0  0
 11 17  1  0  0  0  0
 11 12  1  0  0  0  0
 12 13  2  0  0  0  0
 12 18  1  0  0  0  0
 13  3  1  0  0  0  0
 14 13  1  0  0  0  0
 15 14  2  0  0  0  0
 16 15  1  0  0  0  0
 16 11  2  0  0  0  0
 19 15  1  0  0  0  0
 20 21  1  1  0  0  0
 20  7  1  0  0  0  0
 22 20  1  0  0  0  0
 22 28  1  0  0  0  0
 23 22  2  0  0  0  0
 24 23  1  0  0  0  0
 24 26  2  0  0  0  0
 25 24  1  0  0  0  0
 26 27  1  0  0  0  0
 27 28  2  0  0  0  0
M  END
>  <minimizedAffinity>
-5.33759403

$$$$

 OpenBabel03242520013D

 28 30  0  0  1  0  0  0  0  0999 V2000
   39.3510   27.9620   39.6720 Br  0  0  0  0  0  0  0  0  0  0  0  0
   38.3670   27.7990   41.2910 C   0  0  0  0  0  0  0  0  0  0  0  0
   37.6430   26.6610   41.6230 C   0  0  0  0  0  0  0  0  0  0  0  0
   36.9400   26.6580   42.8130 C   0  0  0  0  0  0  0  0  0  0  0  0
   36.9270   27.7310   43.6800 C   0  0  0  0  0  0  0  0  0  0  0  0
   37.6560   28.8780   43.3470 C   0  0  0  0  0  0  0  0  0  0  0  0
   38.3580   28.8650   42.1500 C   0  0  0  0  0  0  0  0  0  0  0  0
   36.4130   25.7270   42.9750 H   0  0  0  0  0  0  0  0  0  0  0  0
   36.3450   27.6260   44.5820 H   0  0  0  0  0  0  0  0  0  0  0  0
   37.6400   29.7170   44.0340 H   0  0  0  0  0  0  0  0  0  0  0  0
   36.8270   24.2550   38.8250 C   0  0  0  0  0  0  0  0  0  0  0  0
   36.7490   25.3420   39.7140 C   0  0  0  0  0  0  0  0  0  0  0  0
   37.6930   25.5510   40.6910 C   0  0  0  0  0  0  0  0  0  0  0  0
   38.6750   24.6190   40.6970 N   0  0  0  0  0  0  0  0  0  0  0  0
   38.7690   23.5840   39.8660 C   0  0  0  0  0  0  0  0  0  0  0  0
   37.8480   23.4090   38.9380 N   0  0  0  0  0  0  0  0  0  0  0  0
   36.0300   24.1850   38.0930 H   0  0  0  0  0  0  0  0  0  0  0  0
   35.9200   26.0370   39.6280 H   0  0  0  0  0  0  0  0  0  0  0  0
   39.5960   22.8840   39.9460 H   0  0  0  0  0  0  0  0  0  0  0  0
   39.1160   30.0520   41.8890 C   0  0  1  0  0  3  0  0  0  0  0  0
   40.3550   30.1400   42.2850 O   0  0  0  0  0  1  0  0  0  0  0  0
   38.7010   31.2740   41.1950 C   0  0  0  0  0  0  0  0  0  0  0  0
   37.4930   31.2970   40.5350 C   0  0  0  0  0  3  0  0  0  0  0  0
   37.0110   32.4320   39.8670 C   0  0  0  0  0  0  0  0  0  0  0  0
   36.0710   32.4530   39.3520 H   0  0  0  0  0  0  0  0  0  0  0  0
   37.7410   33.5600   39.8560 N   0  0  0  0  0  0  0  0  0  0  0  0
   38.9210   33.5450   40.4980 C   0  0  0  0  0  3  0  0  0  0  0  0
   39.3460   32.4440   41.1220 N   0  0  0  0  0  0  0  0  0  0  0  0
  1  2  1  0  0  0  0
  2  3  2  0  0  0  0
  2  7  1  0  0  0  0
  3  4  1  0  0  0  0
  4  8  1  0  0  0  0
  4  5  2  0  0  0  0
  5  9  1  0  0  0  0
  6  5  1  0  0  0  0
  6 10  1  0  0  0  0
  7  6  2  0  0  0  0
 11 16  2  0  0  0  0
 11 12  1  0  0  0  0
 12 13  2  0  0  0  0
 13 14  1  0  0  0  0
 13  3  1  0  0  0  0
 15 19  1  0  0  0  0
 15 14  2  0  0  0  0
 16 15  1  0  0  0  0
 17 11  1  0  0  0  0
 18 12  1  0  0  0  0
 20  7  1  0  0  0  0
 20 21  1  6  0  0  0
 22 20  1  0  0  0  0
 23 22  2  0  0  0  0
 24 23  1  0  0  0  0
 25 24  1  0  0  0  0
 26 24  2  0  0  0  0
 26 27  1  0  0  0  0
 27 28  2  0  0  0  0
 28 22  1  0  0  0  0
M  END
>  <minimizedAffinity>
-5.12728405

$$$$

 OpenBabel03242520013D

 28 30  0  0  1  0  0  0  0  0999 V2000
   38.5240   28.2900   39.2580 Br  0  0  0  0  0  0  0  0  0  0  0  0
   37.9130   28.0810   41.0470 C   0  0  0  0  0  0  0  0  0  0  0  0
   37.7520   29.1490   41.9200 C   0  0  0  0  0  0  0  0  0  0  0  0
   37.3280   28.8820   43.2080 C   0  0  0  0  0  0  0  0  0  0  0  0
   37.0600   27.6070   43.6610 C   0  0  0  0  0  0  0  0  0  0  0  0
   37.2210   26.5290   42.7820 C   0  0  0  0  0  0  0  0  0  0  0  0
   37.6460   26.8140   41.4920 C   0  0  0  0  0  0  0  0  0  0  0  0
   37.2360   29.7800   43.8030 H   0  0  0  0  0  0  0  0  0  0  0  0
   36.7350   27.5080   44.6840 H   0  0  0  0  0  0  0  0  0  0  0  0
   37.0070   25.5310   43.1470 H   0  0  0  0  0  0  0  0  0  0  0  0
   37.4110   32.5140   40.2340 C   0  0  0  0  0  0  0  0  0  0  0  0
   37.1070   31.2320   40.7250 C   0  0  0  0  0  0  0  0  0  0  0  0
   38.0330   30.4740   41.4010 C   0  0  0  0  0  0  0  0  0  0  0  0
   39.2330   31.0850   41.5340 N   0  0  0  0  0  0  0  0  0  0  0  0
   39.5440   32.2960   41.0790 C   0  0  0  0  0  0  0  0  0  0  0  0
   38.6340   33.0010   40.4340 N   0  0  0  0  0  0  0  0  0  0  0  0
   36.6070   33.0250   39.7160 H   0  0  0  0  0  0  0  0  0  0  0  0
   36.1120   30.8270   40.5660 H   0  0  0  0  0  0  0  0  0  0  0  0
   40.5370   32.7070   41.2330 H   0  0  0  0  0  0  0  0  0  0  0  0
   37.7500   25.6720   40.6320 C   0  0  1  0  0  3  0  0  0  0  0  0
   38.8860   25.0410   40.5150 O   0  0  0  0  0  1  0  0  0  0  0  0
   36.7170   25.0460   39.8060 C   0  0  0  0  0  0  0  0  0  0  0  0
   36.1300   23.8750   40.2310 C   0  0  0  0  0  3  0  0  0  0  0  0
   35.1170   23.2240   39.5140 C   0  0  0  0  0  0  0  0  0  0  0  0
   34.6590   22.3120   39.8420 H   0  0  0  0  0  0  0  0  0  0  0  0
   34.6810   23.7460   38.3540 N   0  0  0  0  0  0  0  0  0  0  0  0
   35.2480   24.8890   37.9320 C   0  0  0  0  0  3  0  0  0  0  0  0
   36.2100   25.4780   38.6440 N   0  0  0  0  0  0  0  0  0  0  0  0
  1  2  1  0  0  0  0
  2  7  2  0  0  0  0
  2  3  1  0  0  0  0
  3  4  2  0  0  0  0
  4  5  1  0  0  0  0
  4  8  1  0  0  0  0
  5  9  1  0  0  0  0
  6 10  1  0  0  0  0
  6  5  2  0  0  0  0
  7  6  1  0  0  0  0
 11 16  2  0  0  0  0
 11 12  1  0  0  0  0
 12 13  2  0  0  0  0
 13 14  1  0  0  0  0
 13  3  1  0  0  0  0
 15 19  1  0  0  0  0
 15 14  2  0  0  0  0
 16 15  1  0  0  0  0
 17 11  1  0  0  0  0
 18 12  1  0  0  0  0
 20 21  1  1  0  0  0
 20  7  1  0  0  0  0
 22 23  1  0  0  0  0
 22 20  1  0  0  0  0
 24 25  1  0  0  0  0
 24 23  2  0  0  0  0
 26 24  1  0  0  0  0
 27 26  2  0  0  0  0
 27 28  1  0  0  0  0
 28 22  2  0  0  0  0
M  END
>  <minimizedAffinity>
-5.08112574

$$$$

 OpenBabel03242520013D

 28 30  0  0  1  0  0  0  0  0999 V2000
   39.6630   30.8460   42.1680 Br  0  0  0  0  0  0  0  0  0  0  0  0
   38.5110   30.9200   40.6580 C   0  0  0  0  0  0  0  0  0  0  0  0
   37.6910   29.8650   40.2810 C   0  0  0  0  0  0  0  0  0  0  0  0
   36.9120   30.0140   39.1490 C   0  0  0  0  0  0  0  0  0  0  0  0
   36.9140   31.1610   38.3820 C   0  0  0  0  0  0  0  0  0  0  0  0
   37.7390   32.2260   38.7610 C   0  0  0  0  0  0  0  0  0  0  0  0
   38.5140   32.0610   39.9000 C   0  0  0  0  0  0  0  0  0  0  0  0
   36.3130   29.1370   38.9460 H   0  0  0  0  0  0  0  0  0  0  0  0
   36.2690   31.1750   37.5180 H   0  0  0  0  0  0  0  0  0  0  0  0
   37.7350   33.1230   38.1520 H   0  0  0  0  0  0  0  0  0  0  0  0
   36.8440   27.2990   42.9240 C   0  0  0  0  0  0  0  0  0  0  0  0
   36.7990   28.4570   42.1270 C   0  0  0  0  0  0  0  0  0  0  0  0
   37.7090   28.6830   41.1210 C   0  0  0  0  0  0  0  0  0  0  0  0
   38.6230   27.6930   40.9910 N   0  0  0  0  0  0  0  0  0  0  0  0
   38.6840   26.5900   41.7330 C   0  0  0  0  0  0  0  0  0  0  0  0
   37.7980   26.4000   42.6910 N   0  0  0  0  0  0  0  0  0  0  0  0
   36.0790   27.2220   43.6880 H   0  0  0  0  0  0  0  0  0  0  0  0
   36.0250   29.1950   42.3100 H   0  0  0  0  0  0  0  0  0  0  0  0
   39.4570   25.8470   41.5560 H   0  0  0  0  0  0  0  0  0  0  0  0
   39.3040   33.2020   40.2560 C   0  0  1  0  0  3  0  0  0  0  0  0
   38.7900   34.1560   40.9820 O   0  0  0  0  0  1  0  0  0  0  0  0
   40.6980   33.4970   39.9190 C   0  0  0  0  0  0  0  0  0  0  0  0
   41.0930   33.4700   38.5990 C   0  0  0  0  0  3  0  0  0  0  0  0
   42.4010   33.7630   38.1880 C   0  0  0  0  0  0  0  0  0  0  0  0
   42.7110   33.7430   37.1630 H   0  0  0  0  0  0  0  0  0  0  0  0
   43.3300   34.0870   39.1040 N   0  0  0  0  0  0  0  0  0  0  0  0
   42.9530   34.1150   40.3930 C   0  0  0  0  0  3  0  0  0  0  0  0
   41.6980   33.8300   40.7440 N   0  0  0  0  0  0  0  0  0  0  0  0
  2  1  1  0  0  0  0
  3  2  1  0  0  0  0
  3 13  1  0  0  0  0
  4  3  2  0  0  0  0
  5  6  2  0  0  0  0
  5  4  1  0  0  0  0
  6  7  1  0  0  0  0
  7 20  1  0  0  0  0
  7  2  2  0  0  0  0
  8  4  1  0  0  0  0
  9  5  1  0  0  0  0
 10  6  1  0  0  0  0
 11 17  1  0  0  0  0
 12 18  1  0  0  0  0
 12 11  2  0  0  0  0
 13 12  1  0  0  0  0
 14 13  2  0  0  0  0
 14 15  1  0  0  0  0
 15 16  2  0  0  0  0
 16 11  1  0  0  0  0
 19 15  1  0  0  0  0
 20 21  1  1  0  0  0
 22 20  1  0  0  0  0
 22 28  1  0  0  0  0
 23 22  2  0  0  0  0
 24 23  1  0  0  0  0
 24 26  2  0  0  0  0
 25 24  1  0  0  0  0
 26 27  1  0  0  0  0
 27 28  2  0  0  0  0
M  END
>  <minimizedAffinity>
-5.05600119

$$$$

 OpenBabel03242520013D

 28 30  0  0  1  0  0  0  0  0999 V2000
   36.9090   27.6810   39.0850 Br  0  0  0  0  0  0  0  0  0  0  0  0
   37.3670   27.7290   40.9300 C   0  0  0  0  0  0  0  0  0  0  0  0
   37.7050   26.5930   41.6530 C   0  0  0  0  0  0  0  0  0  0  0  0
   37.9950   26.7360   42.9970 C   0  0  0  0  0  0  0  0  0  0  0  0
   37.9630   27.9520   43.6460 C   0  0  0  0  0  0  0  0  0  0  0  0
   37.6240   29.0990   42.9190 C   0  0  0  0  0  0  0  0  0  0  0  0
   37.3360   28.9390   41.5700 C   0  0  0  0  0  0  0  0  0  0  0  0
   38.2450   25.7930   43.4650 H   0  0  0  0  0  0  0  0  0  0  0  0
   38.2060   27.9540   44.6970 H   0  0  0  0  0  0  0  0  0  0  0  0
   37.6010   30.0510   43.4370 H   0  0  0  0  0  0  0  0  0  0  0  0
   36.7350   23.2610   40.1550 C   0  0  0  0  0  0  0  0  0  0  0  0
   36.6700   24.4730   40.8650 C   0  0  0  0  0  0  0  0  0  0  0  0
   37.7380   25.3360   40.9300 C   0  0  0  0  0  0  0  0  0  0  0  0
   38.8250   24.8970   40.2530 N   0  0  0  0  0  0  0  0  0  0  0  0
   38.9090   23.7550   39.5750 C   0  0  0  0  0  0  0  0  0  0  0  0
   37.8670   22.9470   39.5300 N   0  0  0  0  0  0  0  0  0  0  0  0
   35.8350   22.6570   40.1690 H   0  0  0  0  0  0  0  0  0  0  0  0
   35.7500   24.7370   41.3780 H   0  0  0  0  0  0  0  0  0  0  0  0
   39.8260   23.4840   39.0600 H   0  0  0  0  0  0  0  0  0  0  0  0
   37.0370   30.1550   40.8750 C   0  0  1  0  0  3  0  0  0  0  0  0
   35.8020   30.5530   40.7510 O   0  0  0  0  0  1  0  0  0  0  0  0
   37.9570   31.0990   40.2370 C   0  0  0  0  0  0  0  0  0  0  0  0
   37.9420   32.4210   40.6240 C   0  0  0  0  0  3  0  0  0  0  0  0
   38.8050   33.3850   40.0830 C   0  0  0  0  0  0  0  0  0  0  0  0
   38.7950   34.4140   40.3820 H   0  0  0  0  0  0  0  0  0  0  0  0
   39.6960   33.0270   39.1420 N   0  0  0  0  0  0  0  0  0  0  0  0
   39.7170   31.7400   38.7590 C   0  0  0  0  0  3  0  0  0  0  0  0
   38.8790   30.8530   39.2990 N   0  0  0  0  0  0  0  0  0  0  0  0
  1  2  1  0  0  0  0
  2  7  2  0  0  0  0
  2  3  1  0  0  0  0
  3  4  2  0  0  0  0
  4  8  1  0  0  0  0
  4  5  1  0  0  0  0
  5  9  1  0  0  0  0
  6 10  1  0  0  0  0
  6  5  2  0  0  0  0
  7  6  1  0  0  0  0
 11 17  1  0  0  0  0
 11 12  1  0  0  0  0
 12 13  2  0  0  0  0
 12 18  1  0  0  0  0
 13  3  1  0  0  0  0
 14 13  1  0  0  0  0
 15 14  2  0  0  0  0
 16 15  1  0  0  0  0
 16 11  2  0  0  0  0
 19 15  1  0  0  0  0
 20 21  1  1  0  0  0
 20  7  1  0  0  0  0
 22 23  1  0  0  0  0
 22 20  1  0  0  0  0
 24 25  1  0  0  0  0
 24 23  2  0  0  0  0
 26 24  1  0  0  0  0
 27 26  2  0  0  0  0
 27 28  1  0  0  0  0
 28 22  2  0  0  0  0
M  END
>  <minimizedAffinity>
-5.05162239

$$$$

 OpenBabel03242520013D

 28 30  0  0  1  0  0  0  0  0999 V2000
   40.1710   28.7950   39.5560 Br  0  0  0  0  0  0  0  0  0  0  0  0
   38.5930   29.6130   40.2330 C   0  0  0  0  0  0  0  0  0  0  0  0
   37.9110   29.1330   41.3420 C   0  0  0  0  0  0  0  0  0  0  0  0
   36.7580   29.7870   41.7340 C   0  0  0  0  0  0  0  0  0  0  0  0
   36.2590   30.8900   41.0730 C   0  0  0  0  0  0  0  0  0  0  0  0
   36.9460   31.3760   39.9550 C   0  0  0  0  0  0  0  0  0  0  0  0
   38.1030   30.7090   39.5750 C   0  0  0  0  0  0  0  0  0  0  0  0
   36.3060   29.3340   42.6060 H   0  0  0  0  0  0  0  0  0  0  0  0
   35.3520   31.3260   41.4610 H   0  0  0  0  0  0  0  0  0  0  0  0
   36.5470   32.2440   39.4410 H   0  0  0  0  0  0  0  0  0  0  0  0
   39.9120   26.9340   43.6760 C   0  0  0  0  0  0  0  0  0  0  0  0
   39.3840   28.0730   43.0430 C   0  0  0  0  0  0  0  0  0  0  0  0
   38.4750   27.9780   42.0160 C   0  0  0  0  0  0  0  0  0  0  0  0
   38.1580   26.7020   41.6950 N   0  0  0  0  0  0  0  0  0  0  0  0
   38.6440   25.6100   42.2790 C   0  0  0  0  0  0  0  0  0  0  0  0
   39.5150   25.7320   43.2630 N   0  0  0  0  0  0  0  0  0  0  0  0
   40.6210   27.1220   44.4740 H   0  0  0  0  0  0  0  0  0  0  0  0
   39.7020   29.0570   43.3740 H   0  0  0  0  0  0  0  0  0  0  0  0
   38.3310   24.6230   41.9540 H   0  0  0  0  0  0  0  0  0  0  0  0
   38.7790   31.2810   38.4490 C   0  0  1  0  0  3  0  0  0  0  0  0
   38.4310   30.9510   37.2370 O   0  0  0  0  0  1  0  0  0  0  0  0
   39.8760   32.2520   38.4320 C   0  0  0  0  0  0  0  0  0  0  0  0
   40.8340   32.1690   37.4460 C   0  0  0  0  0  3  0  0  0  0  0  0
   41.9020   33.0710   37.3420 C   0  0  0  0  0  0  0  0  0  0  0  0
   42.6500   33.0080   36.5770 H   0  0  0  0  0  0  0  0  0  0  0  0
   42.0180   34.0720   38.2320 N   0  0  0  0  0  0  0  0  0  0  0  0
   41.0870   34.1600   39.1970 C   0  0  0  0  0  3  0  0  0  0  0  0
   40.0850   33.2800   39.2620 N   0  0  0  0  0  0  0  0  0  0  0  0
  1  2  1  0  0  0  0
  2  3  1  0  0  0  0
  3  4  2  0  0  0  0
  3 13  1  0  0  0  0
  4  8  1  0  0  0  0
  5  9  1  0  0  0  0
  5  4  1  0  0  0  0
  6  5  2  0  0  0  0
  7  6  1  0  0  0  0
  7  2  2  0  0  0  0
 10  6  1  0  0  0  0
 11 17  1  0  0  0  0
 12 18  1  0  0  0  0
 12 11  2  0  0  0  0
 13 12  1  0  0  0  0
 14 13  2  0  0  0  0
 14 15  1  0  0  0  0
 15 16  2  0  0  0  0
 16 11  1  0  0  0  0
 19 15  1  0  0  0  0
 20 21  1  6  0  0  0
 20  7  1  0  0  0  0
 22 20  1  0  0  0  0
 22 28  1  0  0  0  0
 23 22  2  0  0  0  0
 24 23  1  0  0  0  0
 24 26  2  0  0  0  0
 25 24  1  0  0  0  0
 26 27  1  0  0  0  0
 27 28  2  0  0  0  0
M  END
>  <minimizedAffinity>
-4.97694016

$$$$

 OpenBabel03242520013D

 28 30  0  0  1  0  0  0  0  0999 V2000
   40.8680   30.3910   39.2880 Br  0  0  0  0  0  0  0  0  0  0  0  0
   39.5890   31.7770   39.5330 C   0  0  0  0  0  0  0  0  0  0  0  0
   39.9160   33.1250   39.4730 C   0  0  0  0  0  0  0  0  0  0  0  0
   38.9140   34.0510   39.6930 C   0  0  0  0  0  0  0  0  0  0  0  0
   37.6100   33.6950   39.9680 C   0  0  0  0  0  0  0  0  0  0  0  0
   37.2780   32.3370   40.0280 C   0  0  0  0  0  0  0  0  0  0  0  0
   38.2950   31.4190   39.8030 C   0  0  0  0  0  0  0  0  0  0  0  0
   39.2740   35.0690   39.6230 H   0  0  0  0  0  0  0  0  0  0  0  0
   36.9050   34.4960   40.1240 H   0  0  0  0  0  0  0  0  0  0  0  0
   36.2500   32.0660   40.2440 H   0  0  0  0  0  0  0  0  0  0  0  0
   43.0970   34.0090   37.6330 C   0  0  0  0  0  0  0  0  0  0  0  0
   41.7530   33.6890   37.8940 C   0  0  0  0  0  0  0  0  0  0  0  0
   41.2950   33.4570   39.1690 C   0  0  0  0  0  0  0  0  0  0  0  0
   42.2570   33.5700   40.1140 N   0  0  0  0  0  0  0  0  0  0  0  0
   43.5340   33.8710   39.8910 C   0  0  0  0  0  0  0  0  0  0  0  0
   43.9440   34.0880   38.6560 N   0  0  0  0  0  0  0  0  0  0  0  0
   43.3500   34.1720   36.5920 H   0  0  0  0  0  0  0  0  0  0  0  0
   41.0550   33.6220   37.0650 H   0  0  0  0  0  0  0  0  0  0  0  0
   44.2380   33.9400   40.7150 H   0  0  0  0  0  0  0  0  0  0  0  0
   37.8810   30.0480   39.8380 C   0  0  1  0  0  3  0  0  0  0  0  0
   37.5270   29.4420   38.7390 O   0  0  0  0  0  1  0  0  0  0  0  0
   37.7870   29.1450   40.9870 C   0  0  0  0  0  0  0  0  0  0  0  0
   38.0070   29.6390   42.2530 C   0  0  0  0  0  3  0  0  0  0  0  0
   37.9140   28.8500   43.4080 C   0  0  0  0  0  0  0  0  0  0  0  0
   38.0840   29.2320   44.3940 H   0  0  0  0  0  0  0  0  0  0  0  0
   37.5950   27.5480   43.3010 N   0  0  0  0  0  0  0  0  0  0  0  0
   37.3790   27.0580   42.0690 C   0  0  0  0  0  3  0  0  0  0  0  0
   37.4790   27.8430   40.9940 N   0  0  0  0  0  0  0  0  0  0  0  0
  1  2  1  0  0  0  0
  2  7  1  0  0  0  0
  3  2  2  0  0  0  0
  3  4  1  0  0  0  0
  4  5  2  0  0  0  0
  5  6  1  0  0  0  0
  5  9  1  0  0  0  0
  6 10  1  0  0  0  0
  7 20  1  0  0  0  0
  7  6  2  0  0  0  0
  8  4  1  0  0  0  0
 11 12  2  0  0  0  0
 11 16  1  0  0  0  0
 12 13  1  0  0  0  0
 13  3  1  0  0  0  0
 13 14  2  0  0  0  0
 15 14  1  0  0  0  0
 15 19  1  0  0  0  0
 16 15  2  0  0  0  0
 17 11  1  0  0  0  0
 18 12  1  0  0  0  0
 20 21  1  6  0  0  0
 20 22  1  0  0  0  0
 22 28  2  0  0  0  0
 22 23  1  0  0  0  0
 23 24  2  0  0  0  0
 24 25  1  0  0  0  0
 26 24  1  0  0  0  0
 27 26  2  0  0  0  0
 28 27  1  0  0  0  0
M  END
>  <minimizedAffinity>
-4.94412708

$$$$

 OpenBabel03242520013D

 28 30  0  0  1  0  0  0  0  0999 V2000
   37.7180   31.6010   36.9840 Br  0  0  0  0  0  0  0  0  0  0  0  0
   36.8740   30.8440   38.5110 C   0  0  0  0  0  0  0  0  0  0  0  0
   36.1680   29.6490   38.4680 C   0  0  0  0  0  0  0  0  0  0  0  0
   35.5690   29.2020   39.6310 C   0  0  0  0  0  0  0  0  0  0  0  0
   35.6420   29.8890   40.8250 C   0  0  0  0  0  0  0  0  0  0  0  0
   36.3540   31.0930   40.8700 C   0  0  0  0  0  0  0  0  0  0  0  0
   36.9500   31.5280   39.6950 C   0  0  0  0  0  0  0  0  0  0  0  0
   35.0480   28.2650   39.4890 H   0  0  0  0  0  0  0  0  0  0  0  0
   35.1390   29.4530   41.6730 H   0  0  0  0  0  0  0  0  0  0  0  0
   36.4060   31.6260   41.8130 H   0  0  0  0  0  0  0  0  0  0  0  0
   35.1010   28.4200   35.0570 C   0  0  0  0  0  0  0  0  0  0  0  0
   35.1120   29.1110   36.2820 C   0  0  0  0  0  0  0  0  0  0  0  0
   36.1260   28.9520   37.1970 C   0  0  0  0  0  0  0  0  0  0  0  0
   37.0820   28.0820   36.7940 N   0  0  0  0  0  0  0  0  0  0  0  0
   37.0920   27.4170   35.6420 C   0  0  0  0  0  0  0  0  0  0  0  0
   36.1050   27.5900   34.7830 N   0  0  0  0  0  0  0  0  0  0  0  0
   34.2550   28.6190   34.4090 H   0  0  0  0  0  0  0  0  0  0  0  0
   34.2980   29.7890   36.5130 H   0  0  0  0  0  0  0  0  0  0  0  0
   37.9040   26.7370   35.4030 H   0  0  0  0  0  0  0  0  0  0  0  0
   37.6970   32.7440   39.8180 C   0  0  1  0  0  3  0  0  0  0  0  0
   37.1230   33.8930   39.5890 O   0  0  0  0  0  1  0  0  0  0  0  0
   39.1000   32.9270   40.1930 C   0  0  0  0  0  0  0  0  0  0  0  0
   39.8180   31.8520   40.6660 C   0  0  0  0  0  3  0  0  0  0  0  0
   41.1710   31.9340   41.0240 C   0  0  0  0  0  0  0  0  0  0  0  0
   41.7320   31.0990   41.3930 H   0  0  0  0  0  0  0  0  0  0  0  0
   41.8200   33.1060   40.9080 N   0  0  0  0  0  0  0  0  0  0  0  0
   41.1270   34.1600   40.4470 C   0  0  0  0  0  3  0  0  0  0  0  0
   39.8400   34.0410   40.1180 N   0  0  0  0  0  0  0  0  0  0  0  0
  1  2  1  0  0  0  0
  2  7  1  0  0  0  0
  3  2  2  0  0  0  0
  3  4  1  0  0  0  0
  4  5  2  0  0  0  0
  5  6  1  0  0  0  0
  5  9  1  0  0  0  0
  6 10  1  0  0  0  0
  7 20  1  0  0  0  0
  7  6  2  0  0  0  0
  8  4  1  0  0  0  0
 11 12  1  0  0  0  0
 12 18  1  0  0  0  0
 12 13  2  0  0  0  0
 13  3  1  0  0  0  0
 14 13  1  0  0  0  0
 15 14  2  0  0  0  0
 16 11  2  0  0  0  0
 16 15  1  0  0  0  0
 17 11  1  0  0  0  0
 19 15  1  0  0  0  0
 20 21  1  1  0  0  0
 20 22  1  0  0  0  0
 22 23  1  0  0  0  0
 23 24  2  0  0  0  0
 24 25  1  0  0  0  0
 26 24  1  0  0  0  0
 27 26  2  0  0  0  0
 28 22  2  0  0  0  0
 28 27  1  0  0  0  0
M  END
>  <minimizedAffinity>
-4.93999434

$$$$
