
 OpenBabel03252503273D

 23 24  0  0  0  0  0  0  0  0999 V2000
   45.2300   34.7130   42.9120 C   0  0  0  0  0  0  0  0  0  0  0  0
   46.2560   35.1550   42.0480 C   0  0  0  0  0  0  0  0  0  0  0  0
   47.5650   34.7690   42.3820 C   0  0  0  0  0  0  0  0  0  0  0  0
   47.7450   34.0130   43.4930 N   0  0  0  0  0  0  0  0  0  0  0  0
   46.7150   33.6150   44.2880 C   0  0  0  0  0  0  0  0  0  0  0  0
   45.4640   33.9690   43.9920 N   0  0  0  0  0  0  0  0  0  0  0  0
   43.3340   34.2890   41.5730 C   0  0  0  0  0  0  0  0  0  0  0  0
   44.1120   33.4510   41.0010 O   0  0  0  0  0  0  0  0  0  0  0  0
   43.8720   35.0610   42.6430 N   0  0  0  0  0  0  0  0  0  0  0  0
   46.0410   35.7560   41.1800 H   0  0  0  0  0  0  0  0  0  0  0  0
   46.8950   33.0120   45.1680 H   0  0  0  0  0  0  0  0  0  0  0  0
   43.3030   35.7770   43.1340 H   0  0  0  0  0  0  0  0  0  0  0  0
   41.9350   34.4730   41.1670 C   0  0  0  0  0  0  0  0  0  0  0  0
   41.4830   35.7610   40.9500 C   0  0  0  0  0  3  0  0  0  0  0  0
   40.1400   35.8660   40.5660 C   0  0  0  0  0  0  0  0  0  0  0  0
   39.7610   36.8560   40.3910 H   0  0  0  0  0  0  0  0  0  0  0  0
   39.3660   34.7760   40.4220 N   0  0  0  0  0  0  0  0  0  0  0  0
   39.8380   33.5380   40.6400 C   0  0  0  0  0  3  0  0  0  0  0  0
   41.1420   33.3960   41.0170 N   0  0  0  0  0  0  0  0  0  0  0  0
   48.6090   35.2330   41.4820 C   0  0  0  0  0  0  0  0  0  0  0  0
   49.7560   34.4620   41.6700 F   0  0  0  0  0  0  0  0  0  0  0  0
   48.9560   36.5120   41.8920 F   0  0  0  0  0  0  0  0  0  0  0  0
   48.2710   35.1520   40.1580 F   0  0  0  0  0  0  0  0  0  0  0  0
  1  6  1  0  0  0  0
  2  3  1  0  0  0  0
  2  1  2  0  0  0  0
  3  4  2  0  0  0  0
  4  5  1  0  0  0  0
  5 11  1  0  0  0  0
  6  5  2  0  0  0  0
  7  9  1  0  0  0  0
  8  7  2  0  0  0  0
  9  1  1  0  0  0  0
  9 12  1  0  0  0  0
 10  2  1  0  0  0  0
 13  7  1  0  0  0  0
 14 13  2  0  0  0  0
 15 14  1  0  0  0  0
 16 15  1  0  0  0  0
 17 15  2  0  0  0  0
 17 18  1  0  0  0  0
 18 19  2  0  0  0  0
 19 13  1  0  0  0  0
 20 21  1  0  0  0  0
 20 22  1  0  0  0  0
 20  3  1  0  0  0  0
 23 20  1  0  0  0  0
M  END
>  <minimizedAffinity>
-5.96455336

>  <minimizedRMSD>
1.20889091

$$$$
