
 OpenBabel03252508023D

 40 43  0  0  1  0  0  0  0  0999 V2000
   44.2420   34.3880   41.5580 C   0  0  0  0  0  0  0  0  0  0  0  0
   45.1230   34.3160   40.6330 O   0  0  0  0  0  0  0  0  0  0  0  0
   42.0680   33.2640   41.1640 C   0  0  0  0  0  0  0  0  0  0  0  0
   42.8020   34.4020   41.3290 C   0  0  0  0  0  0  0  0  0  0  0  0
   42.1240   35.6340   41.2650 C   0  0  0  0  0  0  0  0  0  0  0  0
   40.7760   35.7430   41.0470 C   0  0  0  0  0  0  0  0  0  0  0  0
   40.0440   34.5940   40.8820 C   0  0  0  0  0  0  0  0  0  0  0  0
   40.6920   33.3970   40.9420 C   0  0  0  0  0  0  0  0  0  0  0  0
   42.6230   36.5870   41.3760 H   0  0  0  0  0  0  0  0  0  0  0  0
   40.2650   36.6860   40.9980 H   0  0  0  0  0  0  0  0  0  0  0  0
   38.9960   34.5940   40.7070 H   0  0  0  0  0  0  0  0  0  0  0  0
   40.1030   32.4730   40.8090 H   0  0  0  0  0  0  0  0  0  0  0  0
   42.7490   31.7220   41.2670 S   0  0  0  0  0  0  0  0  0  0  0  0
   41.7280   30.8690   40.4780 O   0  0  0  0  0  0  0  0  0  0  0  0
   42.7660   31.2040   42.6680 O   0  0  0  0  0  0  0  0  0  0  0  0
   43.9860   31.0240   40.3670 C   0  0  0  0  0  0  0  0  0  0  0  0
   45.1820   30.7660   41.0820 C   0  0  0  0  0  3  0  0  0  0  0  0
   46.2750   30.1350   40.5490 C   0  0  0  0  0  0  0  0  0  0  0  0
   47.1680   29.9470   41.0980 H   0  0  0  0  0  0  0  0  0  0  0  0
   46.1700   29.7550   39.2770 N   0  0  0  0  0  0  0  0  0  0  0  0
   45.0980   29.9540   38.5390 C   0  0  0  0  0  3  0  0  0  0  0  0
   44.0690   30.5680   39.1020 N   0  0  0  0  0  0  0  0  0  0  0  0
   44.5890   34.4670   42.9470 C   0  0  0  0  0  0  0  0  0  0  0  0
   44.3060   35.7180   43.5890 C   0  0  0  0  0  0  0  0  0  0  0  0
   44.6270   35.8090   44.9320 C   0  0  0  0  0  0  0  0  0  0  0  0
   45.1780   34.7320   45.5480 N   0  0  0  0  0  0  0  0  0  0  0  0
   45.4290   33.5550   44.8910 C   0  0  0  0  0  0  0  0  0  0  0  0
   45.1320   33.4700   43.6420 N   0  0  0  0  0  0  0  0  0  0  0  0
   43.8840   36.6010   43.1870 H   0  0  0  0  0  0  0  0  0  0  0  0
   44.4570   36.7150   45.5250 H   0  0  0  0  0  0  0  0  0  0  0  0
   46.0190   32.4370   45.6460 C   0  0  1  0  0  0  0  0  0  0  0  0
   46.9680   32.7410   46.7870 C   0  0  0  0  0  0  0  0  0  0  0  0
   45.5540   32.3130   47.0540 C   0  0  1  0  0  0  0  0  0  0  0  0
   46.1510   31.4910   45.1030 H   0  0  0  0  0  0  0  0  0  0  0  0
   47.2910   33.7900   46.9120 H   0  0  0  0  0  0  0  0  0  0  0  0
   47.7130   31.9420   46.9700 H   0  0  0  0  0  0  0  0  0  0  0  0
   45.3700   31.3260   47.5240 H   0  0  0  0  0  0  0  0  0  0  0  0
   44.7750   33.3860   47.6530 N   0  0  0  0  0  0  0  0  0  0  0  0
   43.9080   33.0460   48.0930 H   0  0  0  0  0  0  0  0  0  0  0  0
   45.3290   34.0060   48.2640 H   0  0  0  0  0  0  0  0  0  0  0  0
  1 23  1  0  0  0  0
  2  1  2  0  0  0  0
  3 13  1  0  0  0  0
  3  4  1  0  0  0  0
  4  1  1  0  0  0  0
  5  4  2  0  0  0  0
  5  9  1  0  0  0  0
  6  5  1  0  0  0  0
  7  8  1  0  0  0  0
  7  6  2  0  0  0  0
  8  3  2  0  0  0  0
 10  6  1  0  0  0  0
 11  7  1  0  0  0  0
 12  8  1  0  0  0  0
 13 15  2  0  0  0  0
 14 13  2  0  0  0  0
 16 17  1  0  0  0  0
 16 13  1  0  0  0  0
 18 17  2  0  0  0  0
 18 19  1  0  0  0  0
 20 18  1  0  0  0  0
 21 22  1  0  0  0  0
 21 20  2  0  0  0  0
 22 16  2  0  0  0  0
 23 24  2  0  0  0  0
 23 28  1  0  0  0  0
 24 25  1  0  0  0  0
 25 30  1  0  0  0  0
 25 26  2  0  0  0  0
 27 26  1  0  0  0  0
 27 31  1  0  0  0  0
 28 27  2  0  0  0  0
 29 24  1  0  0  0  0
 31 34  1  6  0  0  0
 31 32  1  0  0  0  0
 31 33  1  0  0  0  0
 32 35  1  0  0  0  0
 32 36  1  0  0  0  0
 32 33  1  0  0  0  0
 33 37  1  1  0  0  0
 33 38  1  0  0  0  0
 38 39  1  0  0  0  0
 38 40  1  0  0  0  0
M  END
>  <minimizedAffinity>
-5.68283606

>  <minimizedRMSD>
1.19281876

$$$$
