
 OpenBabel03252508033D

 40 43  0  0  1  0  0  0  0  0999 V2000
   44.2160   34.3580   41.5350 C   0  0  0  0  0  0  0  0  0  0  0  0
   45.0890   34.2360   40.6070 O   0  0  0  0  0  0  0  0  0  0  0  0
   42.0080   33.3120   41.1150 C   0  0  0  0  0  0  0  0  0  0  0  0
   42.7770   34.4220   41.3130 C   0  0  0  0  0  0  0  0  0  0  0  0
   42.1350   35.6750   41.2910 C   0  0  0  0  0  0  0  0  0  0  0  0
   40.7900   35.8310   41.0820 C   0  0  0  0  0  0  0  0  0  0  0  0
   40.0250   34.7100   40.8840 C   0  0  0  0  0  0  0  0  0  0  0  0
   40.6360   33.4920   40.9040 C   0  0  0  0  0  0  0  0  0  0  0  0
   42.6630   36.6090   41.4300 H   0  0  0  0  0  0  0  0  0  0  0  0
   40.3080   36.7890   41.0660 H   0  0  0  0  0  0  0  0  0  0  0  0
   38.9760   34.7460   40.7150 H   0  0  0  0  0  0  0  0  0  0  0  0
   40.0200   32.5910   40.7440 H   0  0  0  0  0  0  0  0  0  0  0  0
   42.6440   31.7480   41.1670 S   0  0  0  0  0  0  0  0  0  0  0  0
   41.4980   30.9180   40.5410 O   0  0  0  0  0  0  0  0  0  0  0  0
   42.8290   31.2580   42.5650 O   0  0  0  0  0  0  0  0  0  0  0  0
   43.7250   30.9850   40.1280 C   0  0  0  0  0  0  0  0  0  0  0  0
   44.1000   29.6710   40.5070 C   0  0  0  0  0  3  0  0  0  0  0  0
   44.9080   28.8570   39.7570 C   0  0  0  0  0  0  0  0  0  0  0  0
   45.1810   27.8710   40.0520 H   0  0  0  0  0  0  0  0  0  0  0  0
   45.3520   29.3680   38.6100 N   0  0  0  0  0  0  0  0  0  0  0  0
   45.0550   30.5770   38.1820 C   0  0  0  0  0  3  0  0  0  0  0  0
   44.2690   31.3230   38.9440 N   0  0  0  0  0  0  0  0  0  0  0  0
   44.5740   34.4490   42.9210 C   0  0  0  0  0  0  0  0  0  0  0  0
   44.3010   35.7080   43.5520 C   0  0  0  0  0  0  0  0  0  0  0  0
   44.6320   35.8120   44.8920 C   0  0  0  0  0  0  0  0  0  0  0  0
   45.1830   34.7390   45.5140 N   0  0  0  0  0  0  0  0  0  0  0  0
   45.4250   33.5540   44.8680 C   0  0  0  0  0  0  0  0  0  0  0  0
   45.1190   33.4570   43.6220 N   0  0  0  0  0  0  0  0  0  0  0  0
   43.8800   36.5880   43.1450 H   0  0  0  0  0  0  0  0  0  0  0  0
   44.4700   36.7230   45.4770 H   0  0  0  0  0  0  0  0  0  0  0  0
   46.0160   32.4410   45.6300 C   0  0  1  0  0  0  0  0  0  0  0  0
   46.9640   32.7530   46.7690 C   0  0  0  0  0  0  0  0  0  0  0  0
   45.5500   32.3250   47.0380 C   0  0  1  0  0  0  0  0  0  0  0  0
   46.1490   31.4920   45.0920 H   0  0  0  0  0  0  0  0  0  0  0  0
   47.2860   33.8030   46.8880 H   0  0  0  0  0  0  0  0  0  0  0  0
   47.7100   31.9560   46.9570 H   0  0  0  0  0  0  0  0  0  0  0  0
   45.3670   31.3400   47.5130 H   0  0  0  0  0  0  0  0  0  0  0  0
   44.7700   33.4000   47.6300 N   0  0  0  0  0  0  0  0  0  0  0  0
   43.9030   33.0610   48.0720 H   0  0  0  0  0  0  0  0  0  0  0  0
   45.3220   34.0240   48.2380 H   0  0  0  0  0  0  0  0  0  0  0  0
  1 23  1  0  0  0  0
  2  1  2  0  0  0  0
  3 13  1  0  0  0  0
  3  4  1  0  0  0  0
  4  1  1  0  0  0  0
  5  4  2  0  0  0  0
  5  9  1  0  0  0  0
  6  5  1  0  0  0  0
  7  8  1  0  0  0  0
  7  6  2  0  0  0  0
  8  3  2  0  0  0  0
 10  6  1  0  0  0  0
 11  7  1  0  0  0  0
 12  8  1  0  0  0  0
 13 15  2  0  0  0  0
 14 13  2  0  0  0  0
 16 17  1  0  0  0  0
 16 13  1  0  0  0  0
 18 19  1  0  0  0  0
 18 17  2  0  0  0  0
 20 18  1  0  0  0  0
 21 20  2  0  0  0  0
 21 22  1  0  0  0  0
 22 16  2  0  0  0  0
 23 24  2  0  0  0  0
 23 28  1  0  0  0  0
 24 25  1  0  0  0  0
 25 30  1  0  0  0  0
 25 26  2  0  0  0  0
 27 26  1  0  0  0  0
 27 31  1  0  0  0  0
 28 27  2  0  0  0  0
 29 24  1  0  0  0  0
 31 34  1  6  0  0  0
 31 32  1  0  0  0  0
 31 33  1  0  0  0  0
 32 35  1  0  0  0  0
 32 36  1  0  0  0  0
 32 33  1  0  0  0  0
 33 37  1  1  0  0  0
 33 38  1  0  0  0  0
 38 39  1  0  0  0  0
 38 40  1  0  0  0  0
M  END
>  <minimizedAffinity>
-5.71189547

>  <minimizedRMSD>
1.32529795

$$$$
