
 OpenBabel03252508033D

 40 43  0  0  1  0  0  0  0  0999 V2000
   44.2570   34.4180   41.5790 C   0  0  0  0  0  0  0  0  0  0  0  0
   45.1440   34.3790   40.6580 O   0  0  0  0  0  0  0  0  0  0  0  0
   42.1090   33.2470   41.1780 C   0  0  0  0  0  0  0  0  0  0  0  0
   42.8180   34.4010   41.3430 C   0  0  0  0  0  0  0  0  0  0  0  0
   42.1150   35.6180   41.2720 C   0  0  0  0  0  0  0  0  0  0  0  0
   40.7660   35.6980   41.0460 C   0  0  0  0  0  0  0  0  0  0  0  0
   40.0600   34.5340   40.8820 C   0  0  0  0  0  0  0  0  0  0  0  0
   40.7310   33.3500   40.9500 C   0  0  0  0  0  0  0  0  0  0  0  0
   42.5940   36.5820   41.3820 H   0  0  0  0  0  0  0  0  0  0  0  0
   40.2360   36.6300   40.9920 H   0  0  0  0  0  0  0  0  0  0  0  0
   39.0120   34.5110   40.7030 H   0  0  0  0  0  0  0  0  0  0  0  0
   40.1620   32.4140   40.8170 H   0  0  0  0  0  0  0  0  0  0  0  0
   42.8210   31.7200   41.2910 S   0  0  0  0  0  0  0  0  0  0  0  0
   41.9380   30.8850   40.3340 O   0  0  0  0  0  0  0  0  0  0  0  0
   42.6760   31.1270   42.6540 O   0  0  0  0  0  0  0  0  0  0  0  0
   44.1850   31.1040   40.5240 C   0  0  0  0  0  0  0  0  0  0  0  0
   44.1230   31.0810   39.1080 C   0  0  0  0  0  3  0  0  0  0  0  0
   45.1570   30.6880   38.2990 C   0  0  0  0  0  0  0  0  0  0  0  0
   45.0970   30.6760   37.2360 H   0  0  0  0  0  0  0  0  0  0  0  0
   46.2730   30.3090   38.9200 N   0  0  0  0  0  0  0  0  0  0  0  0
   46.4180   30.2980   40.2290 C   0  0  0  0  0  3  0  0  0  0  0  0
   45.3890   30.6880   40.9620 N   0  0  0  0  0  0  0  0  0  0  0  0
   44.5960   34.4860   42.9710 C   0  0  0  0  0  0  0  0  0  0  0  0
   44.3070   35.7310   43.6210 C   0  0  0  0  0  0  0  0  0  0  0  0
   44.6190   35.8130   44.9670 C   0  0  0  0  0  0  0  0  0  0  0  0
   45.1680   34.7320   45.5770 N   0  0  0  0  0  0  0  0  0  0  0  0
   45.4260   33.5600   44.9130 C   0  0  0  0  0  0  0  0  0  0  0  0
   45.1370   33.4850   43.6610 N   0  0  0  0  0  0  0  0  0  0  0  0
   43.8850   36.6160   43.2240 H   0  0  0  0  0  0  0  0  0  0  0  0
   44.4430   36.7130   45.5660 H   0  0  0  0  0  0  0  0  0  0  0  0
   46.0140   32.4380   45.6620 C   0  0  1  0  0  0  0  0  0  0  0  0
   46.9670   32.7340   46.8020 C   0  0  0  0  0  0  0  0  0  0  0  0
   45.5520   32.3110   47.0710 C   0  0  1  0  0  0  0  0  0  0  0  0
   46.1410   31.4940   45.1160 H   0  0  0  0  0  0  0  0  0  0  0  0
   47.2950   33.7810   46.9290 H   0  0  0  0  0  0  0  0  0  0  0  0
   47.7100   31.9320   46.9800 H   0  0  0  0  0  0  0  0  0  0  0  0
   45.3650   31.3230   47.5380 H   0  0  0  0  0  0  0  0  0  0  0  0
   44.7790   33.3850   47.6760 N   0  0  0  0  0  0  0  0  0  0  0  0
   43.9120   33.0470   48.1170 H   0  0  0  0  0  0  0  0  0  0  0  0
   45.3360   34.0000   48.2870 H   0  0  0  0  0  0  0  0  0  0  0  0
  1 23  1  0  0  0  0
  2  1  2  0  0  0  0
  3 13  1  0  0  0  0
  3  4  1  0  0  0  0
  4  1  1  0  0  0  0
  5  4  2  0  0  0  0
  5  9  1  0  0  0  0
  6  5  1  0  0  0  0
  7  8  1  0  0  0  0
  7  6  2  0  0  0  0
  8  3  2  0  0  0  0
 10  6  1  0  0  0  0
 11  7  1  0  0  0  0
 12  8  1  0  0  0  0
 13 15  2  0  0  0  0
 14 13  2  0  0  0  0
 16 22  1  0  0  0  0
 16 13  1  0  0  0  0
 17 16  2  0  0  0  0
 18 20  2  0  0  0  0
 18 17  1  0  0  0  0
 19 18  1  0  0  0  0
 20 21  1  0  0  0  0
 21 22  2  0  0  0  0
 23 24  2  0  0  0  0
 23 28  1  0  0  0  0
 24 25  1  0  0  0  0
 25 30  1  0  0  0  0
 25 26  2  0  0  0  0
 27 26  1  0  0  0  0
 27 31  1  0  0  0  0
 28 27  2  0  0  0  0
 29 24  1  0  0  0  0
 31 34  1  6  0  0  0
 31 32  1  0  0  0  0
 31 33  1  0  0  0  0
 32 35  1  0  0  0  0
 32 36  1  0  0  0  0
 32 33  1  0  0  0  0
 33 37  1  1  0  0  0
 33 38  1  0  0  0  0
 38 39  1  0  0  0  0
 38 40  1  0  0  0  0
M  END
>  <minimizedAffinity>
-5.73487329

>  <minimizedRMSD>
1.02746081

$$$$
