
 OpenBabel03252508023D

 40 43  0  0  1  0  0  0  0  0999 V2000
   44.2390   34.3870   41.5550 C   0  0  0  0  0  0  0  0  0  0  0  0
   45.1200   34.3130   40.6300 O   0  0  0  0  0  0  0  0  0  0  0  0
   42.0670   33.2650   41.1450 C   0  0  0  0  0  0  0  0  0  0  0  0
   42.7990   34.4020   41.3270 C   0  0  0  0  0  0  0  0  0  0  0  0
   42.1190   35.6330   41.2810 C   0  0  0  0  0  0  0  0  0  0  0  0
   40.7700   35.7430   41.0650 C   0  0  0  0  0  0  0  0  0  0  0  0
   40.0410   34.5950   40.8830 C   0  0  0  0  0  0  0  0  0  0  0  0
   40.6900   33.3980   40.9260 C   0  0  0  0  0  0  0  0  0  0  0  0
   42.6160   36.5850   41.4060 H   0  0  0  0  0  0  0  0  0  0  0  0
   40.2580   36.6850   41.0300 H   0  0  0  0  0  0  0  0  0  0  0  0
   38.9920   34.5950   40.7090 H   0  0  0  0  0  0  0  0  0  0  0  0
   40.1030   32.4750   40.7790 H   0  0  0  0  0  0  0  0  0  0  0  0
   42.7510   31.7230   41.2260 S   0  0  0  0  0  0  0  0  0  0  0  0
   41.7330   30.8800   40.4220 O   0  0  0  0  0  0  0  0  0  0  0  0
   42.7660   31.1830   42.6180 O   0  0  0  0  0  0  0  0  0  0  0  0
   43.9910   31.0410   40.3170 C   0  0  0  0  0  0  0  0  0  0  0  0
   43.9070   31.2620   38.9200 C   0  0  0  0  0  3  0  0  0  0  0  0
   44.8570   30.8530   38.0190 C   0  0  0  0  0  0  0  0  0  0  0  0
   44.7830   31.0270   36.9720 H   0  0  0  0  0  0  0  0  0  0  0  0
   45.9070   30.2110   38.5270 N   0  0  0  0  0  0  0  0  0  0  0  0
   46.0660   29.9620   39.8110 C   0  0  0  0  0  3  0  0  0  0  0  0
   45.1200   30.3790   40.6380 N   0  0  0  0  0  0  0  0  0  0  0  0
   44.5870   34.4670   42.9440 C   0  0  0  0  0  0  0  0  0  0  0  0
   44.3080   35.7200   43.5840 C   0  0  0  0  0  0  0  0  0  0  0  0
   44.6300   35.8130   44.9270 C   0  0  0  0  0  0  0  0  0  0  0  0
   45.1770   34.7350   45.5440 N   0  0  0  0  0  0  0  0  0  0  0  0
   45.4250   33.5560   44.8900 C   0  0  0  0  0  0  0  0  0  0  0  0
   45.1270   33.4700   43.6410 N   0  0  0  0  0  0  0  0  0  0  0  0
   43.8880   36.6030   43.1810 H   0  0  0  0  0  0  0  0  0  0  0  0
   44.4620   36.7200   45.5180 H   0  0  0  0  0  0  0  0  0  0  0  0
   46.0120   32.4380   45.6460 C   0  0  1  0  0  0  0  0  0  0  0  0
   46.9640   32.7410   46.7850 C   0  0  0  0  0  0  0  0  0  0  0  0
   45.5490   32.3190   47.0550 C   0  0  1  0  0  0  0  0  0  0  0  0
   46.1390   31.4900   45.1060 H   0  0  0  0  0  0  0  0  0  0  0  0
   47.2910   33.7890   46.9060 H   0  0  0  0  0  0  0  0  0  0  0  0
   47.7070   31.9400   46.9690 H   0  0  0  0  0  0  0  0  0  0  0  0
   45.3610   31.3340   47.5280 H   0  0  0  0  0  0  0  0  0  0  0  0
   44.7750   33.3960   47.6530 N   0  0  0  0  0  0  0  0  0  0  0  0
   43.9070   33.0610   48.0950 H   0  0  0  0  0  0  0  0  0  0  0  0
   45.3320   34.0150   48.2610 H   0  0  0  0  0  0  0  0  0  0  0  0
  1 23  1  0  0  0  0
  2  1  2  0  0  0  0
  3 13  1  0  0  0  0
  3  4  1  0  0  0  0
  4  1  1  0  0  0  0
  5  4  2  0  0  0  0
  5  9  1  0  0  0  0
  6  5  1  0  0  0  0
  7  8  1  0  0  0  0
  7  6  2  0  0  0  0
  8  3  2  0  0  0  0
 10  6  1  0  0  0  0
 11  7  1  0  0  0  0
 12  8  1  0  0  0  0
 13 15  2  0  0  0  0
 14 13  2  0  0  0  0
 16 22  1  0  0  0  0
 16 13  1  0  0  0  0
 17 16  2  0  0  0  0
 18 20  2  0  0  0  0
 18 17  1  0  0  0  0
 19 18  1  0  0  0  0
 20 21  1  0  0  0  0
 21 22  2  0  0  0  0
 23 24  2  0  0  0  0
 23 28  1  0  0  0  0
 24 25  1  0  0  0  0
 25 30  1  0  0  0  0
 25 26  2  0  0  0  0
 27 26  1  0  0  0  0
 27 31  1  0  0  0  0
 28 27  2  0  0  0  0
 29 24  1  0  0  0  0
 31 34  1  6  0  0  0
 31 32  1  0  0  0  0
 31 33  1  0  0  0  0
 32 35  1  0  0  0  0
 32 36  1  0  0  0  0
 32 33  1  0  0  0  0
 33 37  1  1  0  0  0
 33 38  1  0  0  0  0
 38 39  1  0  0  0  0
 38 40  1  0  0  0  0
M  END
>  <minimizedAffinity>
-5.74326468

>  <minimizedRMSD>
1.26607418

$$$$
