
 OpenBabel03252503163D

 34 37  0  0  0  0  0  0  0  0999 V2000
   46.1170   34.7280   41.9090 C   0  0  0  0  0  0  0  0  0  0  0  0
   47.3300   35.0450   41.7420 O   0  0  0  0  0  0  0  0  0  0  0  0
   45.1980   34.2850   40.8110 C   0  0  0  0  0  0  0  0  0  0  0  0
   43.8830   34.7000   40.6270 C   0  0  0  0  0  0  0  0  0  0  0  0
   43.4490   34.0510   39.5260 N   0  0  0  0  0  0  0  0  0  0  0  0
   44.4520   33.2770   39.0610 C   0  0  0  0  0  0  0  0  0  0  0  0
   45.5400   33.4190   39.8550 N   0  0  0  0  0  0  0  0  0  0  0  0
   44.5090   32.4010   37.9300 N   0  0  0  0  0  0  0  0  0  0  0  0
   43.3360   35.3870   41.2320 H   0  0  0  0  0  0  0  0  0  0  0  0
   44.5170   31.3630   37.9980 H   0  0  0  0  0  0  0  0  0  0  0  0
   44.5430   32.9130   37.0080 H   0  0  0  0  0  0  0  0  0  0  0  0
   42.1670   34.1280   38.9130 C   0  0  0  0  0  0  0  0  0  0  0  0
   41.2710   33.0830   38.9870 C   0  0  0  0  0  3  0  0  0  0  0  0
   40.0640   33.3210   38.3350 C   0  0  0  0  0  0  0  0  0  0  0  0
   39.2940   32.5490   38.3410 H   0  0  0  0  0  0  0  0  0  0  0  0
   39.7550   34.4550   37.6780 N   0  0  0  0  0  0  0  0  0  0  0  0
   40.6560   35.4280   37.6390 C   0  0  0  0  0  3  0  0  0  0  0  0
   41.8340   35.2460   38.2530 N   0  0  0  0  0  0  0  0  0  0  0  0
   44.9910   35.9820   43.6930 C   0  0  0  0  0  0  0  0  0  0  0  0
   45.6380   34.8130   43.2460 C   0  0  0  0  0  0  0  0  0  0  0  0
   45.7470   33.8230   44.1950 C   0  0  0  0  0  0  0  0  0  0  0  0
   45.2750   33.9610   45.4410 N   0  0  0  0  0  0  0  0  0  0  0  0
   44.6580   35.1100   45.8270 C   0  0  0  0  0  0  0  0  0  0  0  0
   44.5220   36.1080   44.9460 N   0  0  0  0  0  0  0  0  0  0  0  0
   44.8780   36.7940   42.9870 H   0  0  0  0  0  0  0  0  0  0  0  0
   44.2960   35.1670   46.8450 H   0  0  0  0  0  0  0  0  0  0  0  0
   46.3860   32.6120   43.8330 C   0  0  0  0  0  0  0  0  0  0  0  0
   47.6700   32.1570   43.8520 C   0  0  0  0  0  0  0  0  0  0  0  0
   47.9720   30.9420   43.4410 C   0  0  0  0  0  0  0  0  0  0  0  0
   46.9760   30.1460   42.9950 C   0  0  0  0  0  0  0  0  0  0  0  0
   45.5120   31.2080   43.1770 S   0  0  0  0  0  0  0  0  0  0  0  0
   48.4060   32.8910   44.2380 H   0  0  0  0  0  0  0  0  0  0  0  0
   48.9630   30.5080   43.4240 H   0  0  0  0  0  0  0  0  0  0  0  0
   46.9300   29.1350   42.6080 H   0  0  0  0  0  0  0  0  0  0  0  0
  1 20  1  0  0  0  0
  2  1  2  0  0  0  0
  3  1  1  0  0  0  0
  4  3  2  0  0  0  0
  4  9  1  0  0  0  0
  5  4  1  0  0  0  0
  6  5  1  0  0  0  0
  6  7  2  0  0  0  0
  7  3  1  0  0  0  0
  8 10  1  0  0  0  0
  8  6  1  0  0  0  0
 11  8  1  0  0  0  0
 12 13  1  0  0  0  0
 12  5  1  0  0  0  0
 14 15  1  0  0  0  0
 14 13  2  0  0  0  0
 16 14  1  0  0  0  0
 17 16  2  0  0  0  0
 17 18  1  0  0  0  0
 18 12  2  0  0  0  0
 19 24  1  0  0  0  0
 20 19  2  0  0  0  0
 20 21  1  0  0  0  0
 21 22  2  0  0  0  0
 22 23  1  0  0  0  0
 23 26  1  0  0  0  0
 24 23  2  0  0  0  0
 25 19  1  0  0  0  0
 27 28  2  0  0  0  0
 27 21  1  0  0  0  0
 28 32  1  0  0  0  0
 29 28  1  0  0  0  0
 30 31  1  0  0  0  0
 30 29  2  0  0  0  0
 31 27  1  0  0  0  0
 33 29  1  0  0  0  0
 34 30  1  0  0  0  0
M  END
>  <minimizedAffinity>
-5.53633022

>  <minimizedRMSD>
1.01716101

$$$$
