
 OpenBabel03252501223D

 31 32  0  0  0  0  0  0  0  0999 V2000
   36.3700   29.1050   41.9000 N   0  0  0  0  0  0  0  0  0  0  0  0
   37.3220   29.4160   41.5850 H   0  0  0  0  0  0  0  0  0  0  0  0
   36.4530   27.7760   42.5020 C   0  0  0  0  0  0  0  0  0  0  0  0
   36.0790   27.9410   43.5590 H   0  0  0  0  0  0  0  0  0  0  0  0
   35.7320   27.1340   42.0390 H   0  0  0  0  0  0  0  0  0  0  0  0
   38.7650   28.2930   43.0480 C   0  0  0  0  0  0  0  0  0  0  0  0
   37.8340   27.3580   42.6150 C   0  0  0  0  0  0  0  0  0  0  0  0
   38.3100   26.1050   42.3270 C   0  0  0  0  0  0  0  0  0  0  0  0
   39.6410   25.8250   42.4710 N   0  0  0  0  0  0  0  0  0  0  0  0
   40.5200   26.7410   42.8910 C   0  0  0  0  0  0  0  0  0  0  0  0
   40.0720   28.0090   43.1880 N   0  0  0  0  0  0  0  0  0  0  0  0
   38.5400   29.3180   43.3120 H   0  0  0  0  0  0  0  0  0  0  0  0
   41.5450   26.4040   42.9660 H   0  0  0  0  0  0  0  0  0  0  0  0
   37.2980   25.1400   41.8740 C   0  0  0  0  0  0  0  0  0  0  0  0
   37.9030   23.9030   41.6920 F   0  0  0  0  0  0  0  0  0  0  0  0
   36.8730   25.5680   40.6540 F   0  0  0  0  0  0  0  0  0  0  0  0
   36.3430   24.9430   42.8160 F   0  0  0  0  0  0  0  0  0  0  0  0
   35.5160   28.9840   40.7710 C   0  0  0  0  0  0  0  0  0  0  0  0
   34.7210   28.2100   40.9110 H   0  0  0  0  0  0  0  0  0  0  0  0
   34.9250   29.9320   40.5960 H   0  0  0  0  0  0  0  0  0  0  0  0
   36.2190   28.6360   39.4970 C   0  0  0  0  0  0  0  0  0  0  0  0
   37.1480   28.0820   39.6970 H   0  0  0  0  0  0  0  0  0  0  0  0
   35.4870   27.9910   38.9220 H   0  0  0  0  0  0  0  0  0  0  0  0
   36.5010   30.1100   38.5140 S   0  0  0  0  0  0  0  0  0  0  0  0
   37.3380   31.4230   39.3220 C   0  0  0  0  0  0  0  0  0  0  0  0
   37.2110   32.7820   39.3030 C   0  0  0  0  0  3  0  0  0  0  0  0
   37.9580   33.6370   40.0450 C   0  0  0  0  0  0  0  0  0  0  0  0
   37.7330   34.7030   39.9170 H   0  0  0  0  0  0  0  0  0  0  0  0
   38.9130   33.1260   40.8770 N   0  0  0  0  0  0  0  0  0  0  0  0
   39.0460   31.7650   40.9000 C   0  0  0  0  0  3  0  0  0  0  0  0
   38.2960   30.9140   40.1560 N   0  0  0  0  0  0  0  0  0  0  0  0
  1  3  1  0  0  0  0
  2  1  1  0  0  0  0
  3  7  1  0  0  0  0
  3  4  1  0  0  0  0
  5  3  1  0  0  0  0
  6 11  1  0  0  0  0
  6 12  1  0  0  0  0
  7  6  2  0  0  0  0
  8  9  2  0  0  0  0
  8  7  1  0  0  0  0
  9 10  1  0  0  0  0
 10 13  1  0  0  0  0
 10 11  2  0  0  0  0
 14  8  1  0  0  0  0
 14 17  1  0  0  0  0
 15 14  1  0  0  0  0
 16 14  1  0  0  0  0
 18 19  1  0  0  0  0
 18  1  1  0  0  0  0
 20 18  1  0  0  0  0
 21 22  1  0  0  0  0
 21 18  1  0  0  0  0
 23 21  1  0  0  0  0
 24 25  1  0  0  0  0
 24 21  1  0  0  0  0
 25 31  1  0  0  0  0
 26 25  2  0  0  0  0
 26 27  1  0  0  0  0
 27 29  2  0  0  0  0
 28 27  1  0  0  0  0
 29 30  1  0  0  0  0
 31 30  2  0  0  0  0
M  END
>  <minimizedAffinity>
-4.78216171

$$$$

 OpenBabel03252501223D

 31 32  0  0  0  0  0  0  0  0999 V2000
   37.7930   30.2550   41.0220 N   0  0  0  0  0  0  0  0  0  0  0  0
   37.8580   29.5090   40.2850 H   0  0  0  0  0  0  0  0  0  0  0  0
   37.5440   29.6480   42.3270 C   0  0  0  0  0  0  0  0  0  0  0  0
   37.7530   30.4910   43.0550 H   0  0  0  0  0  0  0  0  0  0  0  0
   36.4990   29.4360   42.4240 H   0  0  0  0  0  0  0  0  0  0  0  0
   39.8530   28.9980   42.7250 C   0  0  0  0  0  0  0  0  0  0  0  0
   38.5240   28.6180   42.5990 C   0  0  0  0  0  0  0  0  0  0  0  0
   38.2510   27.2820   42.7440 C   0  0  0  0  0  0  0  0  0  0  0  0
   39.2620   26.3970   43.0000 N   0  0  0  0  0  0  0  0  0  0  0  0
   40.5360   26.7860   43.1190 C   0  0  0  0  0  0  0  0  0  0  0  0
   40.8420   28.1220   42.9770 N   0  0  0  0  0  0  0  0  0  0  0  0
   40.2200   30.0130   42.6370 H   0  0  0  0  0  0  0  0  0  0  0  0
   41.2480   25.9980   43.3210 H   0  0  0  0  0  0  0  0  0  0  0  0
   36.8350   26.9140   42.6080 C   0  0  0  0  0  0  0  0  0  0  0  0
   36.7150   25.5330   42.7090 F   0  0  0  0  0  0  0  0  0  0  0  0
   36.4630   27.2630   41.3460 F   0  0  0  0  0  0  0  0  0  0  0  0
   36.0900   27.4190   43.6220 F   0  0  0  0  0  0  0  0  0  0  0  0
   36.6790   31.0930   40.7480 C   0  0  0  0  0  0  0  0  0  0  0  0
   35.9170   30.6000   40.0970 H   0  0  0  0  0  0  0  0  0  0  0  0
   36.0990   31.3320   41.6880 H   0  0  0  0  0  0  0  0  0  0  0  0
   37.0270   32.3860   40.0790 C   0  0  0  0  0  0  0  0  0  0  0  0
   36.9460   32.2990   38.9850 H   0  0  0  0  0  0  0  0  0  0  0  0
   36.2740   33.1350   40.4740 H   0  0  0  0  0  0  0  0  0  0  0  0
   38.6470   32.9470   40.6030 S   0  0  0  0  0  0  0  0  0  0  0  0
   39.8840   32.9890   39.3590 C   0  0  0  0  0  0  0  0  0  0  0  0
   40.9180   33.8350   39.0790 C   0  0  0  0  0  3  0  0  0  0  0  0
   41.8000   33.6650   38.0620 C   0  0  0  0  0  0  0  0  0  0  0  0
   42.5760   34.4340   37.9690 H   0  0  0  0  0  0  0  0  0  0  0  0
   41.6630   32.5790   37.2450 N   0  0  0  0  0  0  0  0  0  0  0  0
   40.6270   31.7280   37.5200 C   0  0  0  0  0  3  0  0  0  0  0  0
   39.7490   31.9030   38.5390 N   0  0  0  0  0  0  0  0  0  0  0  0
  1  3  1  0  0  0  0
  2  1  1  0  0  0  0
  3  5  1  0  0  0  0
  3  7  1  0  0  0  0
  3  4  1  0  0  0  0
  6 11  1  0  0  0  0
  7  6  2  0  0  0  0
  7  8  1  0  0  0  0
  8  9  2  0  0  0  0
  9 10  1  0  0  0  0
 10 13  1  0  0  0  0
 11 10  2  0  0  0  0
 12  6  1  0  0  0  0
 14 15  1  0  0  0  0
 14  8  1  0  0  0  0
 14 17  1  0  0  0  0
 16 14  1  0  0  0  0
 18  1  1  0  0  0  0
 18 20  1  0  0  0  0
 19 18  1  0  0  0  0
 21 23  1  0  0  0  0
 21 24  1  0  0  0  0
 21 18  1  0  0  0  0
 22 21  1  0  0  0  0
 25 24  1  0  0  0  0
 26 25  1  0  0  0  0
 27 26  2  0  0  0  0
 28 27  1  0  0  0  0
 29 30  2  0  0  0  0
 29 27  1  0  0  0  0
 30 31  1  0  0  0  0
 31 25  2  0  0  0  0
M  END
>  <minimizedAffinity>
-4.75698471

$$$$

 OpenBabel03252501223D

 31 32  0  0  0  0  0  0  0  0999 V2000
   36.6760   29.7530   42.0490 N   0  0  0  0  0  0  0  0  0  0  0  0
   36.4860   28.8020   41.6460 H   0  0  0  0  0  0  0  0  0  0  0  0
   36.3120   30.7860   41.0820 C   0  0  0  0  0  0  0  0  0  0  0  0
   35.3780   31.2490   41.5290 H   0  0  0  0  0  0  0  0  0  0  0  0
   37.0520   31.5600   41.0980 H   0  0  0  0  0  0  0  0  0  0  0  0
   34.9120   29.2220   39.8540 C   0  0  0  0  0  0  0  0  0  0  0  0
   35.9120   30.1850   39.8280 C   0  0  0  0  0  0  0  0  0  0  0  0
   36.4420   30.4870   38.5990 C   0  0  0  0  0  0  0  0  0  0  0  0
   35.9840   29.8510   37.4780 N   0  0  0  0  0  0  0  0  0  0  0  0
   35.0190   28.9270   37.5270 C   0  0  0  0  0  0  0  0  0  0  0  0
   34.4670   28.6020   38.7470 N   0  0  0  0  0  0  0  0  0  0  0  0
   34.4010   28.8810   40.7450 H   0  0  0  0  0  0  0  0  0  0  0  0
   34.7400   28.4930   36.5770 H   0  0  0  0  0  0  0  0  0  0  0  0
   37.4950   31.5120   38.6070 C   0  0  0  0  0  0  0  0  0  0  0  0
   37.8630   31.7900   37.2960 F   0  0  0  0  0  0  0  0  0  0  0  0
   38.5740   30.9550   39.2230 F   0  0  0  0  0  0  0  0  0  0  0  0
   37.0430   32.6850   39.1150 F   0  0  0  0  0  0  0  0  0  0  0  0
   38.0690   29.8950   42.2860 C   0  0  0  0  0  0  0  0  0  0  0  0
   38.6330   30.2120   41.3750 H   0  0  0  0  0  0  0  0  0  0  0  0
   38.2810   30.7260   43.0230 H   0  0  0  0  0  0  0  0  0  0  0  0
   38.7420   28.6550   42.7840 C   0  0  0  0  0  0  0  0  0  0  0  0
   39.4570   28.2690   42.0420 H   0  0  0  0  0  0  0  0  0  0  0  0
   39.2810   28.9700   43.7290 H   0  0  0  0  0  0  0  0  0  0  0  0
   37.5240   27.4290   43.2620 S   0  0  0  0  0  0  0  0  0  0  0  0
   37.1800   26.1850   42.0730 C   0  0  0  0  0  0  0  0  0  0  0  0
   36.9660   24.8390   42.1460 C   0  0  0  0  0  3  0  0  0  0  0  0
   36.6780   24.0450   41.0840 C   0  0  0  0  0  0  0  0  0  0  0  0
   36.5320   22.9820   41.3080 H   0  0  0  0  0  0  0  0  0  0  0  0
   36.5920   24.6100   39.8430 N   0  0  0  0  0  0  0  0  0  0  0  0
   36.8070   25.9590   39.7640 C   0  0  0  0  0  3  0  0  0  0  0  0
   37.0940   26.7470   40.8300 N   0  0  0  0  0  0  0  0  0  0  0  0
  1 18  1  0  0  0  0
  2  1  1  0  0  0  0
  3  5  1  0  0  0  0
  3  4  1  0  0  0  0
  3  1  1  0  0  0  0
  6 12  1  0  0  0  0
  7  6  1  0  0  0  0
  7  3  1  0  0  0  0
  8 14  1  0  0  0  0
  8  7  2  0  0  0  0
  9 10  2  0  0  0  0
  9  8  1  0  0  0  0
 10 11  1  0  0  0  0
 11  6  2  0  0  0  0
 13 10  1  0  0  0  0
 14 17  1  0  0  0  0
 14 16  1  0  0  0  0
 15 14  1  0  0  0  0
 18 21  1  0  0  0  0
 18 20  1  0  0  0  0
 19 18  1  0  0  0  0
 21 24  1  0  0  0  0
 21 23  1  0  0  0  0
 22 21  1  0  0  0  0
 25 26  1  0  0  0  0
 25 24  1  0  0  0  0
 27 28  1  0  0  0  0
 27 26  2  0  0  0  0
 29 27  1  0  0  0  0
 30 29  2  0  0  0  0
 30 31  1  0  0  0  0
 31 25  2  0  0  0  0
M  END
>  <minimizedAffinity>
-4.73094988

$$$$

 OpenBabel03252501223D

 31 32  0  0  0  0  0  0  0  0999 V2000
   37.0420   29.3170   42.7550 N   0  0  0  0  0  0  0  0  0  0  0  0
   36.4260   29.8740   43.3990 H   0  0  0  0  0  0  0  0  0  0  0  0
   36.5760   27.9340   42.6910 C   0  0  0  0  0  0  0  0  0  0  0  0
   37.3930   27.3550   43.2210 H   0  0  0  0  0  0  0  0  0  0  0  0
   35.7040   27.8270   43.3030 H   0  0  0  0  0  0  0  0  0  0  0  0
   36.0870   28.3270   40.3420 C   0  0  0  0  0  0  0  0  0  0  0  0
   36.5660   27.4670   41.3210 C   0  0  0  0  0  0  0  0  0  0  0  0
   36.9920   26.2340   40.9000 C   0  0  0  0  0  0  0  0  0  0  0  0
   36.9340   25.9020   39.5740 N   0  0  0  0  0  0  0  0  0  0  0  0
   36.4700   26.7470   38.6480 C   0  0  0  0  0  0  0  0  0  0  0  0
   36.0340   27.9940   39.0400 N   0  0  0  0  0  0  0  0  0  0  0  0
   35.7180   29.3290   40.5210 H   0  0  0  0  0  0  0  0  0  0  0  0
   36.4720   26.3750   37.6330 H   0  0  0  0  0  0  0  0  0  0  0  0
   37.4950   25.3500   41.9600 C   0  0  0  0  0  0  0  0  0  0  0  0
   38.0830   24.2340   41.3770 F   0  0  0  0  0  0  0  0  0  0  0  0
   36.4060   24.9200   42.6550 F   0  0  0  0  0  0  0  0  0  0  0  0
   38.4780   25.9450   42.6790 F   0  0  0  0  0  0  0  0  0  0  0  0
   38.3600   29.2750   43.2820 C   0  0  0  0  0  0  0  0  0  0  0  0
   38.5510   30.0790   44.0340 H   0  0  0  0  0  0  0  0  0  0  0  0
   38.5420   28.3250   43.8670 H   0  0  0  0  0  0  0  0  0  0  0  0
   39.4420   29.3980   42.2550 C   0  0  0  0  0  0  0  0  0  0  0  0
   40.2750   28.7150   42.4750 H   0  0  0  0  0  0  0  0  0  0  0  0
   38.9490   29.1210   41.2730 H   0  0  0  0  0  0  0  0  0  0  0  0
   39.9750   31.1040   42.1080 S   0  0  0  0  0  0  0  0  0  0  0  0
   38.9680   32.1410   41.1130 C   0  0  0  0  0  0  0  0  0  0  0  0
   38.9660   33.4770   40.8360 C   0  0  0  0  0  3  0  0  0  0  0  0
   38.0960   34.0890   39.9940 C   0  0  0  0  0  0  0  0  0  0  0  0
   38.2260   35.1720   39.8770 H   0  0  0  0  0  0  0  0  0  0  0  0
   37.1440   33.3360   39.3680 N   0  0  0  0  0  0  0  0  0  0  0  0
   37.1400   31.9960   39.6430 C   0  0  0  0  0  3  0  0  0  0  0  0
   38.0130   31.3890   40.4850 N   0  0  0  0  0  0  0  0  0  0  0  0
  1 18  1  0  0  0  0
  1  2  1  0  0  0  0
  3  1  1  0  0  0  0
  3  4  1  0  0  0  0
  3  5  1  0  0  0  0
  6 12  1  0  0  0  0
  6  7  1  0  0  0  0
  7  3  1  0  0  0  0
  8  7  2  0  0  0  0
  8 14  1  0  0  0  0
  9  8  1  0  0  0  0
 10 11  1  0  0  0  0
 10  9  2  0  0  0  0
 11  6  2  0  0  0  0
 13 10  1  0  0  0  0
 14 16  1  0  0  0  0
 14 17  1  0  0  0  0
 15 14  1  0  0  0  0
 18 20  1  0  0  0  0
 18 19  1  0  0  0  0
 21 22  1  0  0  0  0
 21 18  1  0  0  0  0
 23 21  1  0  0  0  0
 24 21  1  0  0  0  0
 25 24  1  0  0  0  0
 26 25  1  0  0  0  0
 27 26  2  0  0  0  0
 28 27  1  0  0  0  0
 29 30  2  0  0  0  0
 29 27  1  0  0  0  0
 30 31  1  0  0  0  0
 31 25  2  0  0  0  0
M  END
>  <minimizedAffinity>
-4.71064186

$$$$

 OpenBabel03252501223D

 31 32  0  0  0  0  0  0  0  0999 V2000
   36.9870   29.4360   42.7550 N   0  0  0  0  0  0  0  0  0  0  0  0
   35.9830   29.1270   42.7300 H   0  0  0  0  0  0  0  0  0  0  0  0
   37.5900   29.2730   41.4340 C   0  0  0  0  0  0  0  0  0  0  0  0
   38.6770   29.0470   41.6660 H   0  0  0  0  0  0  0  0  0  0  0  0
   37.2040   28.3850   40.9770 H   0  0  0  0  0  0  0  0  0  0  0  0
   38.3960   31.5520   41.1700 C   0  0  0  0  0  0  0  0  0  0  0  0
   37.5760   30.5280   40.7140 C   0  0  0  0  0  0  0  0  0  0  0  0
   36.8130   30.8000   39.6080 C   0  0  0  0  0  0  0  0  0  0  0  0
   36.8820   32.0280   39.0100 N   0  0  0  0  0  0  0  0  0  0  0  0
   37.6800   32.9980   39.4650 C   0  0  0  0  0  0  0  0  0  0  0  0
   38.4590   32.7570   40.5760 N   0  0  0  0  0  0  0  0  0  0  0  0
   39.0530   31.4860   42.0280 H   0  0  0  0  0  0  0  0  0  0  0  0
   37.6500   33.9270   38.9110 H   0  0  0  0  0  0  0  0  0  0  0  0
   35.9590   29.6950   39.1500 C   0  0  0  0  0  0  0  0  0  0  0  0
   35.4860   29.9870   37.8770 F   0  0  0  0  0  0  0  0  0  0  0  0
   34.8850   29.6630   39.9860 F   0  0  0  0  0  0  0  0  0  0  0  0
   36.6630   28.5430   39.0210 F   0  0  0  0  0  0  0  0  0  0  0  0
   37.7170   28.5970   43.6380 C   0  0  0  0  0  0  0  0  0  0  0  0
   37.8740   29.0600   44.6430 H   0  0  0  0  0  0  0  0  0  0  0  0
   37.1470   27.6500   43.8770 H   0  0  0  0  0  0  0  0  0  0  0  0
   39.0730   28.2050   43.1410 C   0  0  0  0  0  0  0  0  0  0  0  0
   39.2020   28.4840   42.0850 H   0  0  0  0  0  0  0  0  0  0  0  0
   39.8030   28.7740   43.7940 H   0  0  0  0  0  0  0  0  0  0  0  0
   39.3660   26.4590   43.4290 S   0  0  0  0  0  0  0  0  0  0  0  0
   38.4460   25.3510   42.4270 C   0  0  0  0  0  0  0  0  0  0  0  0
   37.1180   25.2110   42.1430 C   0  0  0  0  0  3  0  0  0  0  0  0
   36.6040   24.2840   41.2960 C   0  0  0  0  0  0  0  0  0  0  0  0
   35.5150   24.3000   41.1730 H   0  0  0  0  0  0  0  0  0  0  0  0
   37.4560   23.4170   40.6720 N   0  0  0  0  0  0  0  0  0  0  0  0
   38.7880   23.5520   40.9540 C   0  0  0  0  0  3  0  0  0  0  0  0
   39.2960   24.4810   41.8010 N   0  0  0  0  0  0  0  0  0  0  0  0
  1 18  1  0  0  0  0
  2  1  1  0  0  0  0
  3  4  1  0  0  0  0
  3  1  1  0  0  0  0
  5  3  1  0  0  0  0
  6 12  1  0  0  0  0
  7  6  1  0  0  0  0
  7  3  1  0  0  0  0
  8  7  2  0  0  0  0
  9 10  2  0  0  0  0
  9  8  1  0  0  0  0
 10 11  1  0  0  0  0
 11  6  2  0  0  0  0
 13 10  1  0  0  0  0
 14  8  1  0  0  0  0
 14 16  1  0  0  0  0
 15 14  1  0  0  0  0
 17 14  1  0  0  0  0
 18 20  1  0  0  0  0
 18 19  1  0  0  0  0
 21 24  1  0  0  0  0
 21 18  1  0  0  0  0
 21 23  1  0  0  0  0
 22 21  1  0  0  0  0
 25 24  1  0  0  0  0
 26 25  1  0  0  0  0
 27 26  2  0  0  0  0
 28 27  1  0  0  0  0
 29 30  2  0  0  0  0
 29 27  1  0  0  0  0
 30 31  1  0  0  0  0
 31 25  2  0  0  0  0
M  END
>  <minimizedAffinity>
-4.63819551

$$$$

 OpenBabel03252501223D

 31 32  0  0  0  0  0  0  0  0999 V2000
   38.7660   29.3390   41.4420 N   0  0  0  0  0  0  0  0  0  0  0  0
   39.6920   29.6480   41.8310 H   0  0  0  0  0  0  0  0  0  0  0  0
   38.4580   30.0910   40.2280 C   0  0  0  0  0  0  0  0  0  0  0  0
   38.9330   29.4710   39.4060 H   0  0  0  0  0  0  0  0  0  0  0  0
   37.4040   30.0500   40.0460 H   0  0  0  0  0  0  0  0  0  0  0  0
   40.4750   31.3850   40.6430 C   0  0  0  0  0  0  0  0  0  0  0  0
   39.1490   31.3630   40.2340 C   0  0  0  0  0  0  0  0  0  0  0  0
   38.6000   32.5650   39.8670 C   0  0  0  0  0  0  0  0  0  0  0  0
   39.3510   33.7070   39.9140 N   0  0  0  0  0  0  0  0  0  0  0  0
   40.6280   33.7040   40.3110 C   0  0  0  0  0  0  0  0  0  0  0  0
   41.2080   32.5120   40.6870 N   0  0  0  0  0  0  0  0  0  0  0  0
   41.0420   30.5180   40.9610 H   0  0  0  0  0  0  0  0  0  0  0  0
   41.1210   34.6660   40.3070 H   0  0  0  0  0  0  0  0  0  0  0  0
   37.1960   32.5070   39.4360 C   0  0  0  0  0  0  0  0  0  0  0  0
   37.1120   31.7580   38.2690 F   0  0  0  0  0  0  0  0  0  0  0  0
   36.8320   33.7820   39.1290 F   0  0  0  0  0  0  0  0  0  0  0  0
   36.4250   31.8550   40.3420 F   0  0  0  0  0  0  0  0  0  0  0  0
   37.7380   29.6410   42.3750 C   0  0  0  0  0  0  0  0  0  0  0  0
   37.9450   30.5690   42.9620 H   0  0  0  0  0  0  0  0  0  0  0  0
   36.7630   29.8770   41.8540 H   0  0  0  0  0  0  0  0  0  0  0  0
   37.4760   28.5620   43.3780 C   0  0  0  0  0  0  0  0  0  0  0  0
   37.6500   28.9240   44.4020 H   0  0  0  0  0  0  0  0  0  0  0  0
   36.3870   28.2840   43.2350 H   0  0  0  0  0  0  0  0  0  0  0  0
   38.4430   27.1010   42.9950 S   0  0  0  0  0  0  0  0  0  0  0  0
   37.7030   25.9590   41.8870 C   0  0  0  0  0  0  0  0  0  0  0  0
   36.9620   24.8250   42.0500 C   0  0  0  0  0  3  0  0  0  0  0  0
   36.4470   24.0870   41.0360 C   0  0  0  0  0  0  0  0  0  0  0  0
   35.8730   23.2010   41.3320 H   0  0  0  0  0  0  0  0  0  0  0  0
   36.6720   24.4870   39.7490 N   0  0  0  0  0  0  0  0  0  0  0  0
   37.4150   25.6230   39.5790 C   0  0  0  0  0  3  0  0  0  0  0  0
   37.9270   26.3570   40.5980 N   0  0  0  0  0  0  0  0  0  0  0  0
  1  2  1  0  0  0  0
  1 18  1  0  0  0  0
  3  7  1  0  0  0  0
  3  1  1  0  0  0  0
  4  3  1  0  0  0  0
  5  3  1  0  0  0  0
  6 11  1  0  0  0  0
  6 12  1  0  0  0  0
  7  6  2  0  0  0  0
  8  9  2  0  0  0  0
  8  7  1  0  0  0  0
  9 10  1  0  0  0  0
 10 11  2  0  0  0  0
 13 10  1  0  0  0  0
 14  8  1  0  0  0  0
 14 17  1  0  0  0  0
 15 14  1  0  0  0  0
 16 14  1  0  0  0  0
 18 19  1  0  0  0  0
 18 21  1  0  0  0  0
 20 18  1  0  0  0  0
 21 22  1  0  0  0  0
 23 21  1  0  0  0  0
 24 21  1  0  0  0  0
 25 26  1  0  0  0  0
 25 24  1  0  0  0  0
 27 28  1  0  0  0  0
 27 26  2  0  0  0  0
 29 27  1  0  0  0  0
 30 29  2  0  0  0  0
 30 31  1  0  0  0  0
 31 25  2  0  0  0  0
M  END
>  <minimizedAffinity>
-4.40408993

$$$$

 OpenBabel03252501223D

 31 32  0  0  0  0  0  0  0  0999 V2000
   38.4970   30.1930   37.3260 N   0  0  0  0  0  0  0  0  0  0  0  0
   39.2890   29.5880   37.6570 H   0  0  0  0  0  0  0  0  0  0  0  0
   38.2310   31.2450   38.3040 C   0  0  0  0  0  0  0  0  0  0  0  0
   37.3950   31.8440   37.8270 H   0  0  0  0  0  0  0  0  0  0  0  0
   37.8050   30.8090   39.1840 H   0  0  0  0  0  0  0  0  0  0  0  0
   40.3700   32.0300   37.4540 C   0  0  0  0  0  0  0  0  0  0  0  0
   39.3670   32.1360   38.4080 C   0  0  0  0  0  0  0  0  0  0  0  0
   39.5420   33.0870   39.3810 C   0  0  0  0  0  0  0  0  0  0  0  0
   40.6610   33.8740   39.3780 N   0  0  0  0  0  0  0  0  0  0  0  0
   41.6140   33.7550   38.4480 C   0  0  0  0  0  0  0  0  0  0  0  0
   41.4670   32.8080   37.4590 N   0  0  0  0  0  0  0  0  0  0  0  0
   40.3710   31.3290   36.6290 H   0  0  0  0  0  0  0  0  0  0  0  0
   42.4520   34.4310   38.5490 H   0  0  0  0  0  0  0  0  0  0  0  0
   38.4620   33.1750   40.3730 C   0  0  0  0  0  0  0  0  0  0  0  0
   38.7790   34.1610   41.2990 F   0  0  0  0  0  0  0  0  0  0  0  0
   38.4460   31.9850   41.0340 F   0  0  0  0  0  0  0  0  0  0  0  0
   37.2970   33.5710   39.8040 F   0  0  0  0  0  0  0  0  0  0  0  0
   37.3120   29.4140   37.2390 C   0  0  0  0  0  0  0  0  0  0  0  0
   36.7080   29.6440   36.3270 H   0  0  0  0  0  0  0  0  0  0  0  0
   37.5460   28.3150   37.1220 H   0  0  0  0  0  0  0  0  0  0  0  0
   36.3840   29.5670   38.4030 C   0  0  0  0  0  0  0  0  0  0  0  0
   36.6520   30.4450   39.0100 H   0  0  0  0  0  0  0  0  0  0  0  0
   35.3560   29.6990   37.9470 H   0  0  0  0  0  0  0  0  0  0  0  0
   36.3360   28.0570   39.3690 S   0  0  0  0  0  0  0  0  0  0  0  0
   37.0070   28.1590   40.9880 C   0  0  0  0  0  0  0  0  0  0  0  0
   36.5560   27.7990   42.2240 C   0  0  0  0  0  3  0  0  0  0  0  0
   37.2610   27.9400   43.3740 C   0  0  0  0  0  0  0  0  0  0  0  0
   36.7590   27.6020   44.2880 H   0  0  0  0  0  0  0  0  0  0  0  0
   38.5150   28.4800   43.3160 N   0  0  0  0  0  0  0  0  0  0  0  0
   38.9720   28.8440   42.0790 C   0  0  0  0  0  3  0  0  0  0  0  0
   38.2620   28.7000   40.9320 N   0  0  0  0  0  0  0  0  0  0  0  0
  1  2  1  0  0  0  0
  1  3  1  0  0  0  0
  3  7  1  0  0  0  0
  3  5  1  0  0  0  0
  4  3  1  0  0  0  0
  6 11  2  0  0  0  0
  6  7  1  0  0  0  0
  7  8  2  0  0  0  0
  8 14  1  0  0  0  0
  9  8  1  0  0  0  0
 10 13  1  0  0  0  0
 10  9  2  0  0  0  0
 11 10  1  0  0  0  0
 12  6  1  0  0  0  0
 14 16  1  0  0  0  0
 14 15  1  0  0  0  0
 17 14  1  0  0  0  0
 18  1  1  0  0  0  0
 18 21  1  0  0  0  0
 19 18  1  0  0  0  0
 20 18  1  0  0  0  0
 21 22  1  0  0  0  0
 21 24  1  0  0  0  0
 23 21  1  0  0  0  0
 24 25  1  0  0  0  0
 25 26  1  0  0  0  0
 26 27  2  0  0  0  0
 27 28  1  0  0  0  0
 29 27  1  0  0  0  0
 30 29  2  0  0  0  0
 31 25  2  0  0  0  0
 31 30  1  0  0  0  0
M  END
>  <minimizedAffinity>
-4.38847494

$$$$

 OpenBabel03252501223D

 31 32  0  0  0  0  0  0  0  0999 V2000
   36.9310   29.4370   42.6400 N   0  0  0  0  0  0  0  0  0  0  0  0
   37.9050   29.7080   42.9260 H   0  0  0  0  0  0  0  0  0  0  0  0
   36.8960   28.0250   42.2660 C   0  0  0  0  0  0  0  0  0  0  0  0
   36.0810   27.5970   42.9260 H   0  0  0  0  0  0  0  0  0  0  0  0
   36.5310   27.9350   41.2630 H   0  0  0  0  0  0  0  0  0  0  0  0
   39.1720   28.1600   43.1120 C   0  0  0  0  0  0  0  0  0  0  0  0
   38.1260   27.3690   42.6550 C   0  0  0  0  0  0  0  0  0  0  0  0
   38.3530   26.0170   42.6110 C   0  0  0  0  0  0  0  0  0  0  0  0
   39.5600   25.5090   43.0050 N   0  0  0  0  0  0  0  0  0  0  0  0
   40.5530   26.2900   43.4430 C   0  0  0  0  0  0  0  0  0  0  0  0
   40.3560   27.6530   43.4980 N   0  0  0  0  0  0  0  0  0  0  0  0
   39.1420   29.2380   43.2030 H   0  0  0  0  0  0  0  0  0  0  0  0
   41.4610   25.7760   43.7270 H   0  0  0  0  0  0  0  0  0  0  0  0
   37.2250   25.2090   42.1260 C   0  0  0  0  0  0  0  0  0  0  0  0
   36.1600   25.3440   43.0070 F   0  0  0  0  0  0  0  0  0  0  0  0
   37.6300   23.9100   42.1740 F   0  0  0  0  0  0  0  0  0  0  0  0
   36.7690   25.6600   40.9320 F   0  0  0  0  0  0  0  0  0  0  0  0
   36.5580   30.1700   41.4820 C   0  0  0  0  0  0  0  0  0  0  0  0
   36.0100   31.1130   41.7250 H   0  0  0  0  0  0  0  0  0  0  0  0
   37.4650   30.5380   40.9150 H   0  0  0  0  0  0  0  0  0  0  0  0
   35.6890   29.4170   40.5250 C   0  0  0  0  0  0  0  0  0  0  0  0
   35.7050   28.3380   40.7420 H   0  0  0  0  0  0  0  0  0  0  0  0
   34.6490   29.8370   40.6770 H   0  0  0  0  0  0  0  0  0  0  0  0
   36.1580   29.7800   38.8330 S   0  0  0  0  0  0  0  0  0  0  0  0
   36.7680   28.4260   37.8970 C   0  0  0  0  0  0  0  0  0  0  0  0
   36.6030   27.0740   37.9710 C   0  0  0  0  0  3  0  0  0  0  0  0
   37.1520   26.1820   37.1090 C   0  0  0  0  0  0  0  0  0  0  0  0
   36.9250   25.1270   37.3030 H   0  0  0  0  0  0  0  0  0  0  0  0
   37.9300   26.6460   36.0870 N   0  0  0  0  0  0  0  0  0  0  0  0
   38.1000   28.0020   36.0080 C   0  0  0  0  0  3  0  0  0  0  0  0
   37.5480   28.8890   36.8730 N   0  0  0  0  0  0  0  0  0  0  0  0
  1  2  1  0  0  0  0
  3  1  1  0  0  0  0
  3  7  1  0  0  0  0
  3  4  1  0  0  0  0
  5  3  1  0  0  0  0
  6 12  1  0  0  0  0
  6 11  1  0  0  0  0
  7  6  2  0  0  0  0
  8  7  1  0  0  0  0
  8  9  2  0  0  0  0
  9 10  1  0  0  0  0
 10 11  2  0  0  0  0
 10 13  1  0  0  0  0
 14 16  1  0  0  0  0
 14  8  1  0  0  0  0
 14 15  1  0  0  0  0
 17 14  1  0  0  0  0
 18 19  1  0  0  0  0
 18  1  1  0  0  0  0
 20 18  1  0  0  0  0
 21 23  1  0  0  0  0
 21 22  1  0  0  0  0
 21 18  1  0  0  0  0
 24 21  1  0  0  0  0
 25 26  1  0  0  0  0
 25 24  1  0  0  0  0
 27 28  1  0  0  0  0
 27 26  2  0  0  0  0
 29 27  1  0  0  0  0
 30 29  2  0  0  0  0
 30 31  1  0  0  0  0
 31 25  2  0  0  0  0
M  END
>  <minimizedAffinity>
-4.35726166

$$$$

 OpenBabel03252501223D

 31 32  0  0  0  0  0  0  0  0999 V2000
   36.2730   29.3800   42.0280 N   0  0  0  0  0  0  0  0  0  0  0  0
   35.8300   28.5350   41.5900 H   0  0  0  0  0  0  0  0  0  0  0  0
   36.4720   30.4180   41.0190 C   0  0  0  0  0  0  0  0  0  0  0  0
   35.7530   31.2350   41.3340 H   0  0  0  0  0  0  0  0  0  0  0  0
   37.4510   30.8370   41.1320 H   0  0  0  0  0  0  0  0  0  0  0  0
   35.0900   28.9280   39.6840 C   0  0  0  0  0  0  0  0  0  0  0  0
   36.0230   29.9550   39.7230 C   0  0  0  0  0  0  0  0  0  0  0  0
   36.4460   30.4470   38.5150 C   0  0  0  0  0  0  0  0  0  0  0  0
   35.9510   29.9270   37.3500 N   0  0  0  0  0  0  0  0  0  0  0  0
   35.0500   28.9390   37.3360 C   0  0  0  0  0  0  0  0  0  0  0  0
   34.6070   28.4230   38.5340 N   0  0  0  0  0  0  0  0  0  0  0  0
   34.6640   28.4410   40.5530 H   0  0  0  0  0  0  0  0  0  0  0  0
   34.7320   28.6100   36.3570 H   0  0  0  0  0  0  0  0  0  0  0  0
   37.4310   31.5340   38.5910 C   0  0  0  0  0  0  0  0  0  0  0  0
   36.9540   32.5170   39.4490 F   0  0  0  0  0  0  0  0  0  0  0  0
   37.5040   32.0800   37.3470 F   0  0  0  0  0  0  0  0  0  0  0  0
   38.5980   31.1090   39.1380 F   0  0  0  0  0  0  0  0  0  0  0  0
   37.5620   29.0390   42.5150 C   0  0  0  0  0  0  0  0  0  0  0  0
   37.5720   28.8480   43.6160 H   0  0  0  0  0  0  0  0  0  0  0  0
   37.9230   28.0590   42.0810 H   0  0  0  0  0  0  0  0  0  0  0  0
   38.6150   30.0710   42.2600 C   0  0  0  0  0  0  0  0  0  0  0  0
   38.4710   30.5470   41.2780 H   0  0  0  0  0  0  0  0  0  0  0  0
   38.4910   30.8310   43.0910 H   0  0  0  0  0  0  0  0  0  0  0  0
   40.2500   29.3590   42.4420 S   0  0  0  0  0  0  0  0  0  0  0  0
   40.3110   27.6170   42.6450 C   0  0  0  0  0  0  0  0  0  0  0  0
   40.0270   26.7740   43.6790 C   0  0  0  0  0  3  0  0  0  0  0  0
   40.1130   25.4210   43.6180 C   0  0  0  0  0  0  0  0  0  0  0  0
   39.8510   24.8830   44.5370 H   0  0  0  0  0  0  0  0  0  0  0  0
   40.5100   24.8390   42.4480 N   0  0  0  0  0  0  0  0  0  0  0  0
   40.7960   25.6790   41.4070 C   0  0  0  0  0  3  0  0  0  0  0  0
   40.7080   27.0310   41.4750 N   0  0  0  0  0  0  0  0  0  0  0  0
  1 18  1  0  0  0  0
  2  1  1  0  0  0  0
  3  5  1  0  0  0  0
  3  4  1  0  0  0  0
  3  1  1  0  0  0  0
  6  7  1  0  0  0  0
  6 12  1  0  0  0  0
  7  3  1  0  0  0  0
  8 14  1  0  0  0  0
  8  7  2  0  0  0  0
  9  8  1  0  0  0  0
 10  9  2  0  0  0  0
 10 11  1  0  0  0  0
 11  6  2  0  0  0  0
 13 10  1  0  0  0  0
 14 17  1  0  0  0  0
 14 15  1  0  0  0  0
 16 14  1  0  0  0  0
 18 19  1  0  0  0  0
 20 18  1  0  0  0  0
 21 24  1  0  0  0  0
 21 18  1  0  0  0  0
 21 23  1  0  0  0  0
 22 21  1  0  0  0  0
 24 25  1  0  0  0  0
 25 26  1  0  0  0  0
 27 26  2  0  0  0  0
 27 28  1  0  0  0  0
 29 27  1  0  0  0  0
 30 31  1  0  0  0  0
 30 29  2  0  0  0  0
 31 25  2  0  0  0  0
M  END
>  <minimizedAffinity>
-4.29232597

$$$$
