
 OpenBabel03242523303D

 20 21  0  0  0  0  0  0  0  0999 V2000
   47.4830   32.5390   44.0390 C   0  0  0  0  0  0  0  0  0  0  0  0
   46.9540   31.7210   43.4860 H   0  0  0  0  0  0  0  0  0  0  0  0
   48.3540   32.1670   44.5900 H   0  0  0  0  0  0  0  0  0  0  0  0
   49.3730   35.1210   42.1700 C   0  0  0  0  0  0  0  0  0  0  0  0
   48.5260   35.3230   41.0760 C   0  0  0  0  0  0  0  0  0  0  0  0
   47.3410   34.5900   40.9880 C   0  0  0  0  0  0  0  0  0  0  0  0
   47.0340   33.6890   41.9780 N   0  0  0  0  0  0  0  0  0  0  0  0
   47.8870   33.5280   43.0200 C   0  0  0  0  0  0  0  0  0  0  0  0
   49.0340   34.2290   43.1170 N   0  0  0  0  0  0  0  0  0  0  0  0
   50.2640   35.7330   42.1510 H   0  0  0  0  0  0  0  0  0  0  0  0
   48.6450   35.9870   40.2430 H   0  0  0  0  0  0  0  0  0  0  0  0
   46.6140   34.6630   40.1900 H   0  0  0  0  0  0  0  0  0  0  0  0
   46.2800   33.3510   45.1420 S   0  0  0  0  0  0  0  0  0  0  0  0
   46.3030   32.5600   46.7430 C   0  0  0  0  0  0  0  0  0  0  0  0
   45.3560   32.6960   47.7610 C   0  0  0  0  0  0  0  0  0  0  0  0
   45.5760   31.9900   48.9250 C   0  0  0  0  0  0  0  0  0  0  0  0
   44.8080   32.1340   49.6820 H   0  0  0  0  0  0  0  0  0  0  0  0
   46.6600   31.2000   49.0750 N   0  0  0  0  0  0  0  0  0  0  0  0
   47.5720   31.0840   48.0630 C   0  0  0  0  0  0  0  0  0  0  0  0
   47.3650   31.7700   46.9250 N   0  0  0  0  0  0  0  0  0  0  0  0
  1  3  1  0  0  0  0
  1 13  1  0  0  0  0
  2  1  1  0  0  0  0
  4  9  1  0  0  0  0
  5  4  2  0  0  0  0
  6  5  1  0  0  0  0
  6  7  2  0  0  0  0
  7  8  1  0  0  0  0
  8  9  2  0  0  0  0
  8  1  1  0  0  0  0
 10  4  1  0  0  0  0
 11  5  1  0  0  0  0
 12  6  1  0  0  0  0
 13 14  1  0  0  0  0
 14 20  2  0  0  0  0
 14 15  1  0  0  0  0
 15 16  2  0  0  0  0
 16 18  1  0  0  0  0
 16 17  1  0  0  0  0
 19 18  2  0  0  0  0
 20 19  1  0  0  0  0
M  END
>  <minimizedAffinity>
-4.07913876

>  <minimizedRMSD>
4.39126396

$$$$
