
 OpenBabel03242523303D

 20 21  0  0  0  0  0  0  0  0999 V2000
   45.8230   33.1650   46.4450 C   0  0  0  0  0  0  0  0  0  0  0  0
   46.5800   33.6370   47.1230 H   0  0  0  0  0  0  0  0  0  0  0  0
   44.8940   32.9220   46.9710 H   0  0  0  0  0  0  0  0  0  0  0  0
   44.5070   36.0310   44.4980 C   0  0  0  0  0  0  0  0  0  0  0  0
   45.2130   35.8780   43.3010 C   0  0  0  0  0  0  0  0  0  0  0  0
   46.1140   34.8180   43.1720 C   0  0  0  0  0  0  0  0  0  0  0  0
   46.2850   33.9510   44.2230 N   0  0  0  0  0  0  0  0  0  0  0  0
   45.5780   34.1400   45.3640 C   0  0  0  0  0  0  0  0  0  0  0  0
   44.7060   35.1590   45.5020 N   0  0  0  0  0  0  0  0  0  0  0  0
   43.8350   36.8770   44.5030 H   0  0  0  0  0  0  0  0  0  0  0  0
   45.1740   36.4770   42.4130 H   0  0  0  0  0  0  0  0  0  0  0  0
   46.7110   34.6050   42.2960 H   0  0  0  0  0  0  0  0  0  0  0  0
   46.5770   31.6890   45.6870 S   0  0  0  0  0  0  0  0  0  0  0  0
   45.7720   30.2190   46.3030 C   0  0  0  0  0  0  0  0  0  0  0  0
   45.7820   29.7440   47.6170 C   0  0  0  0  0  3  0  0  0  0  0  0
   45.0900   28.5780   47.8700 C   0  0  0  0  0  0  0  0  0  0  0  0
   45.1320   28.2540   48.9090 H   0  0  0  0  0  0  0  0  0  0  0  0
   44.4310   27.9230   46.8910 N   0  0  0  0  0  0  0  0  0  0  0  0
   44.4360   28.4100   45.6140 C   0  0  0  0  0  3  0  0  0  0  0  0
   45.1090   29.5460   45.3590 N   0  0  0  0  0  0  0  0  0  0  0  0
  1  3  1  0  0  0  0
  1  2  1  0  0  0  0
  4 10  1  0  0  0  0
  4  9  1  0  0  0  0
  5  4  2  0  0  0  0
  6  5  1  0  0  0  0
  6  7  2  0  0  0  0
  7  8  1  0  0  0  0
  8  9  2  0  0  0  0
  8  1  1  0  0  0  0
 11  5  1  0  0  0  0
 12  6  1  0  0  0  0
 13 14  1  0  0  0  0
 13  1  1  0  0  0  0
 14 15  1  0  0  0  0
 15 16  2  0  0  0  0
 16 17  1  0  0  0  0
 18 16  1  0  0  0  0
 19 18  2  0  0  0  0
 20 19  1  0  0  0  0
 20 14  2  0  0  0  0
M  END
>  <minimizedAffinity>
-3.79146194

>  <minimizedRMSD>
2.34731936

$$$$
