
 OpenBabel03252503163D

 34 37  0  0  0  0  0  0  0  0999 V2000
   45.7030   34.6490   41.7650 C   0  0  0  0  0  0  0  0  0  0  0  0
   46.9130   34.8550   41.4600 O   0  0  0  0  0  0  0  0  0  0  0  0
   44.6240   34.3200   40.7790 C   0  0  0  0  0  0  0  0  0  0  0  0
   43.2780   34.6530   40.8960 C   0  0  0  0  0  0  0  0  0  0  0  0
   42.6850   34.1620   39.7880 N   0  0  0  0  0  0  0  0  0  0  0  0
   43.6260   33.5580   39.0300 C   0  0  0  0  0  0  0  0  0  0  0  0
   44.8310   33.6550   39.6410 N   0  0  0  0  0  0  0  0  0  0  0  0
   43.5210   32.8880   37.7690 N   0  0  0  0  0  0  0  0  0  0  0  0
   42.8160   35.1840   41.6970 H   0  0  0  0  0  0  0  0  0  0  0  0
   43.5940   31.8570   37.6510 H   0  0  0  0  0  0  0  0  0  0  0  0
   43.3610   33.5460   36.9600 H   0  0  0  0  0  0  0  0  0  0  0  0
   41.3120   34.2350   39.4240 C   0  0  0  0  0  0  0  0  0  0  0  0
   40.3130   34.1620   40.3740 C   0  0  0  0  0  3  0  0  0  0  0  0
   39.0260   34.2490   39.8500 C   0  0  0  0  0  0  0  0  0  0  0  0
   38.1710   34.2000   40.5260 H   0  0  0  0  0  0  0  0  0  0  0  0
   38.7330   34.3920   38.5440 N   0  0  0  0  0  0  0  0  0  0  0  0
   39.7360   34.4560   37.6760 C   0  0  0  0  0  3  0  0  0  0  0  0
   40.9930   34.3770   38.1310 N   0  0  0  0  0  0  0  0  0  0  0  0
   44.8090   35.9200   43.6650 C   0  0  0  0  0  0  0  0  0  0  0  0
   45.3940   34.7460   43.1510 C   0  0  0  0  0  0  0  0  0  0  0  0
   45.6180   33.7630   44.0880 C   0  0  0  0  0  0  0  0  0  0  0  0
   45.3040   33.9130   45.3810 N   0  0  0  0  0  0  0  0  0  0  0  0
   44.7410   35.0660   45.8310 C   0  0  0  0  0  0  0  0  0  0  0  0
   44.5000   36.0570   44.9650 N   0  0  0  0  0  0  0  0  0  0  0  0
   44.6110   36.7270   42.9720 H   0  0  0  0  0  0  0  0  0  0  0  0
   44.5090   35.1320   46.8860 H   0  0  0  0  0  0  0  0  0  0  0  0
   46.2050   32.5470   43.6590 C   0  0  0  0  0  0  0  0  0  0  0  0
   47.4770   32.0640   43.5890 C   0  0  0  0  0  0  0  0  0  0  0  0
   47.7250   30.8530   43.1310 C   0  0  0  0  0  0  0  0  0  0  0  0
   46.6860   30.0900   42.7300 C   0  0  0  0  0  0  0  0  0  0  0  0
   45.2600   31.1800   43.0260 S   0  0  0  0  0  0  0  0  0  0  0  0
   48.2520   32.7730   43.9450 H   0  0  0  0  0  0  0  0  0  0  0  0
   48.7030   30.3990   43.0440 H   0  0  0  0  0  0  0  0  0  0  0  0
   46.5930   29.0900   42.3230 H   0  0  0  0  0  0  0  0  0  0  0  0
  1 20  1  0  0  0  0
  2  1  2  0  0  0  0
  3  4  2  0  0  0  0
  3  1  1  0  0  0  0
  4  9  1  0  0  0  0
  5  4  1  0  0  0  0
  6  7  2  0  0  0  0
  6  5  1  0  0  0  0
  7  3  1  0  0  0  0
  8  6  1  0  0  0  0
 10  8  1  0  0  0  0
 11  8  1  0  0  0  0
 12  5  1  0  0  0  0
 12 13  1  0  0  0  0
 14 13  2  0  0  0  0
 14 15  1  0  0  0  0
 16 14  1  0  0  0  0
 17 18  1  0  0  0  0
 17 16  2  0  0  0  0
 18 12  2  0  0  0  0
 19 24  1  0  0  0  0
 20 19  2  0  0  0  0
 20 21  1  0  0  0  0
 21 22  2  0  0  0  0
 22 23  1  0  0  0  0
 23 26  1  0  0  0  0
 24 23  2  0  0  0  0
 25 19  1  0  0  0  0
 27 21  1  0  0  0  0
 28 27  2  0  0  0  0
 28 32  1  0  0  0  0
 29 28  1  0  0  0  0
 30 31  1  0  0  0  0
 30 29  2  0  0  0  0
 31 27  1  0  0  0  0
 33 29  1  0  0  0  0
 34 30  1  0  0  0  0
M  END
>  <minimizedAffinity>
-5.64811563

>  <minimizedRMSD>
1.5012573

$$$$
