
 OpenBabel03252509073D

 39 42  0  0  0  0  0  0  0  0999 V2000
   47.5140   31.7610   39.1860 C   0  0  0  0  0  0  0  0  0  0  0  0
   47.0510   33.0370   39.0490 C   0  0  0  0  0  0  0  0  0  0  0  0
   47.6630   33.9010   38.1560 C   0  0  0  0  0  0  0  0  0  0  0  0
   48.7350   33.4770   37.4060 C   0  0  0  0  0  0  0  0  0  0  0  0
   49.2390   32.1830   37.5150 C   0  0  0  0  0  0  0  0  0  0  0  0
   48.6030   31.3290   38.4260 C   0  0  0  0  0  0  0  0  0  0  0  0
   47.3300   34.9160   38.0160 H   0  0  0  0  0  0  0  0  0  0  0  0
   49.2860   34.0580   36.6860 H   0  0  0  0  0  0  0  0  0  0  0  0
   50.0590   31.7810   36.9750 H   0  0  0  0  0  0  0  0  0  0  0  0
   48.9690   30.3050   38.5410 H   0  0  0  0  0  0  0  0  0  0  0  0
   45.2470   35.5500   43.1820 Cl  0  0  0  0  0  0  0  0  0  0  0  0
   45.0780   34.7230   41.6530 C   0  0  0  0  0  0  0  0  0  0  0  0
   46.1600   34.2420   40.9910 C   0  0  0  0  0  0  0  0  0  0  0  0
   45.9180   33.5860   39.7920 C   0  0  0  0  0  0  0  0  0  0  0  0
   44.6490   33.4300   39.2890 C   0  0  0  0  0  0  0  0  0  0  0  0
   43.5800   33.9190   39.9660 C   0  0  0  0  0  0  0  0  0  0  0  0
   43.8050   34.5680   41.1560 C   0  0  0  0  0  0  0  0  0  0  0  0
   44.4980   32.9110   38.3450 H   0  0  0  0  0  0  0  0  0  0  0  0
   42.5970   33.7760   39.5400 H   0  0  0  0  0  0  0  0  0  0  0  0
   42.9160   34.9450   41.6670 H   0  0  0  0  0  0  0  0  0  0  0  0
   49.5300   35.6890   41.8790 C   0  0  0  0  0  0  0  0  0  0  0  0
   48.2560   35.5290   41.3180 C   0  0  0  0  0  0  0  0  0  0  0  0
   47.4790   34.4200   41.5660 C   0  0  0  0  0  0  0  0  0  0  0  0
   48.0470   33.5040   42.3960 N   0  0  0  0  0  0  0  0  0  0  0  0
   49.2580   33.6490   42.9360 C   0  0  0  0  0  0  0  0  0  0  0  0
   49.9890   34.7340   42.6760 N   0  0  0  0  0  0  0  0  0  0  0  0
   50.0310   36.6000   41.6050 H   0  0  0  0  0  0  0  0  0  0  0  0
   47.8400   36.2800   40.6630 H   0  0  0  0  0  0  0  0  0  0  0  0
   49.6450   32.8770   43.5860 H   0  0  0  0  0  0  0  0  0  0  0  0
   46.7710   30.6700   40.2290 S   0  0  0  0  0  0  0  0  0  0  0  0
   47.1550   29.2400   39.9040 O   0  0  0  0  0  0  0  0  0  0  0  0
   47.4820   30.9110   41.6070 O   0  0  0  0  0  0  0  0  0  0  0  0
   45.0940   30.5930   40.5750 C   0  0  0  0  0  0  0  0  0  0  0  0
   44.6710   30.9390   41.8900 C   0  0  0  0  0  3  0  0  0  0  0  0
   43.3920   30.9750   42.4600 C   0  0  0  0  0  0  0  0  0  0  0  0
   43.2490   31.2650   43.4840 H   0  0  0  0  0  0  0  0  0  0  0  0
   42.4510   30.6140   41.5750 N   0  0  0  0  0  0  0  0  0  0  0  0
   42.7450   30.2690   40.3150 C   0  0  0  0  0  3  0  0  0  0  0  0
   43.9950   30.2700   39.8770 N   0  0  0  0  0  0  0  0  0  0  0  0
  1 30  1  0  0  0  0
  2  1  1  0  0  0  0
  2 14  1  0  0  0  0
  3  2  2  0  0  0  0
  4  5  2  0  0  0  0
  4  3  1  0  0  0  0
  5  6  1  0  0  0  0
  6 10  1  0  0  0  0
  6  1  2  0  0  0  0
  7  3  1  0  0  0  0
  8  4  1  0  0  0  0
  9  5  1  0  0  0  0
 12 11  1  0  0  0  0
 13 23  1  0  0  0  0
 13 12  2  0  0  0  0
 14 13  1  0  0  0  0
 15 14  2  0  0  0  0
 15 16  1  0  0  0  0
 16 17  2  0  0  0  0
 17 12  1  0  0  0  0
 17 20  1  0  0  0  0
 18 15  1  0  0  0  0
 19 16  1  0  0  0  0
 21 26  1  0  0  0  0
 22 23  1  0  0  0  0
 22 21  2  0  0  0  0
 23 24  2  0  0  0  0
 24 25  1  0  0  0  0
 25 29  1  0  0  0  0
 26 25  2  0  0  0  0
 27 21  1  0  0  0  0
 28 22  1  0  0  0  0
 30 33  1  0  0  0  0
 30 32  2  0  0  0  0
 31 30  2  0  0  0  0
 33 34  1  0  0  0  0
 34 35  2  0  0  0  0
 35 36  1  0  0  0  0
 37 35  1  0  0  0  0
 38 37  2  0  0  0  0
 39 38  1  0  0  0  0
 39 33  2  0  0  0  0
M  END
>  <minimizedAffinity>
-4.66940355

>  <minimizedRMSD>
0.957629204

$$$$
