
 OpenBabel03242512193D

 31 33  0  0  0  0  0  0  0  0999 V2000
   36.6920   28.7830   41.7710 C   0  0  0  0  0  0  0  0  0  0  0  0
   36.8030   27.4330   41.5520 C   0  0  0  0  0  0  0  0  0  0  0  0
   36.7060   26.9370   40.2680 C   0  0  0  0  0  0  0  0  0  0  0  0
   36.4960   27.8240   39.2200 C   0  0  0  0  0  0  0  0  0  0  0  0
   36.3870   29.1700   39.4610 C   0  0  0  0  0  0  0  0  0  0  0  0
   36.4850   29.6780   40.7600 C   0  0  0  0  0  0  0  0  0  0  0  0
   36.8030   25.8800   40.1720 H   0  0  0  0  0  0  0  0  0  0  0  0
   36.4250   27.3970   38.2260 H   0  0  0  0  0  0  0  0  0  0  0  0
   36.2240   29.8320   38.6240 H   0  0  0  0  0  0  0  0  0  0  0  0
   37.0270   26.6130   42.7670 C   0  0  0  0  0  0  0  0  0  0  0  0
   36.4330   25.7180   42.8050 H   0  0  0  0  0  0  0  0  0  0  0  0
   36.6740   27.2520   43.6290 H   0  0  0  0  0  0  0  0  0  0  0  0
   38.5050   26.3960   42.9700 C   0  0  0  0  0  0  0  0  0  0  0  0
   39.0320   25.1610   42.5620 C   0  0  0  0  0  0  0  0  0  0  0  0
   40.3920   24.9570   42.7400 C   0  0  0  0  0  0  0  0  0  0  0  0
   41.1240   25.9450   43.2900 N   0  0  0  0  0  0  0  0  0  0  0  0
   40.5840   27.1390   43.6800 C   0  0  0  0  0  0  0  0  0  0  0  0
   39.2760   27.3510   43.5150 N   0  0  0  0  0  0  0  0  0  0  0  0
   38.4440   24.3710   42.1210 H   0  0  0  0  0  0  0  0  0  0  0  0
   40.8850   24.0360   42.4540 H   0  0  0  0  0  0  0  0  0  0  0  0
   41.1810   27.9260   44.1210 H   0  0  0  0  0  0  0  0  0  0  0  0
   36.7720   29.3960   43.0220 O   0  0  0  0  0  0  0  0  0  0  0  0
   37.5500   29.2160   43.6450 H   0  0  0  0  0  0  0  0  0  0  0  0
   36.3610   31.0660   40.8810 O   0  0  0  0  0  0  0  0  0  0  0  0
   37.5520   31.7690   40.7520 C   0  0  0  0  0  0  0  0  0  0  0  0
   37.5410   32.9430   40.0220 C   0  0  0  0  0  3  0  0  0  0  0  0
   38.6900   33.7150   39.8400 C   0  0  0  0  0  0  0  0  0  0  0  0
   38.6550   34.6280   39.2650 H   0  0  0  0  0  0  0  0  0  0  0  0
   39.8370   33.3010   40.3900 N   0  0  0  0  0  0  0  0  0  0  0  0
   39.8460   32.1590   41.1000 C   0  0  0  0  0  3  0  0  0  0  0  0
   38.7390   31.4150   41.2760 N   0  0  0  0  0  0  0  0  0  0  0  0
  1 22  1  0  0  0  0
  2  1  1  0  0  0  0
  2 10  1  0  0  0  0
  3  2  2  0  0  0  0
  4  5  2  0  0  0  0
  4  3  1  0  0  0  0
  5  6  1  0  0  0  0
  6 24  1  0  0  0  0
  6  1  2  0  0  0  0
  7  3  1  0  0  0  0
  8  4  1  0  0  0  0
  9  5  1  0  0  0  0
 10 11  1  0  0  0  0
 10 13  1  0  0  0  0
 10 12  1  0  0  0  0
 13 18  1  0  0  0  0
 14 15  1  0  0  0  0
 14 13  2  0  0  0  0
 15 16  2  0  0  0  0
 16 17  1  0  0  0  0
 17 21  1  0  0  0  0
 18 17  2  0  0  0  0
 19 14  1  0  0  0  0
 20 15  1  0  0  0  0
 22 23  1  0  0  0  0
 25 24  1  0  0  0  0
 25 31  1  0  0  0  0
 26 25  2  0  0  0  0
 27 26  1  0  0  0  0
 27 29  2  0  0  0  0
 28 27  1  0  0  0  0
 29 30  1  0  0  0  0
 30 31  2  0  0  0  0
M  END
>  <minimizedAffinity>
-5.69259357

$$$$

 OpenBabel03242512193D

 31 33  0  0  0  0  0  0  0  0999 V2000
   36.4590   31.0250   39.8900 C   0  0  0  0  0  0  0  0  0  0  0  0
   36.0900   29.9600   39.1070 C   0  0  0  0  0  0  0  0  0  0  0  0
   36.5380   29.8790   37.8040 C   0  0  0  0  0  0  0  0  0  0  0  0
   37.3590   30.8850   37.3130 C   0  0  0  0  0  0  0  0  0  0  0  0
   37.7170   31.9410   38.1130 C   0  0  0  0  0  0  0  0  0  0  0  0
   37.2660   32.0290   39.4340 C   0  0  0  0  0  0  0  0  0  0  0  0
   36.2120   29.0250   37.2550 H   0  0  0  0  0  0  0  0  0  0  0  0
   37.6910   30.7870   36.2860 H   0  0  0  0  0  0  0  0  0  0  0  0
   38.3570   32.7060   37.7000 H   0  0  0  0  0  0  0  0  0  0  0  0
   35.2110   28.9650   39.7680 C   0  0  0  0  0  0  0  0  0  0  0  0
   34.5030   28.5000   39.1070 H   0  0  0  0  0  0  0  0  0  0  0  0
   34.5970   29.5540   40.5100 H   0  0  0  0  0  0  0  0  0  0  0  0
   36.0470   28.0020   40.5710 C   0  0  0  0  0  0  0  0  0  0  0  0
   36.5870   26.8990   39.8900 C   0  0  0  0  0  0  0  0  0  0  0  0
   37.3610   26.0140   40.6210 C   0  0  0  0  0  0  0  0  0  0  0  0
   37.5520   26.2560   41.9330 N   0  0  0  0  0  0  0  0  0  0  0  0
   37.0140   27.3380   42.5720 C   0  0  0  0  0  0  0  0  0  0  0  0
   36.2650   28.2020   41.8820 N   0  0  0  0  0  0  0  0  0  0  0  0
   36.4330   26.7070   38.8400 H   0  0  0  0  0  0  0  0  0  0  0  0
   37.8170   25.1360   40.1800 H   0  0  0  0  0  0  0  0  0  0  0  0
   37.1730   27.5230   43.6260 H   0  0  0  0  0  0  0  0  0  0  0  0
   36.0670   31.2110   41.2150 O   0  0  0  0  0  0  0  0  0  0  0  0
   36.1880   30.4810   41.9060 H   0  0  0  0  0  0  0  0  0  0  0  0
   37.6990   33.1480   40.1510 O   0  0  0  0  0  0  0  0  0  0  0  0
   39.0670   33.1930   40.3870 C   0  0  0  0  0  0  0  0  0  0  0  0
   39.6390   32.1610   41.1070 C   0  0  0  0  0  3  0  0  0  0  0  0
   41.0050   32.1240   41.3930 C   0  0  0  0  0  0  0  0  0  0  0  0
   41.4280   31.3070   41.9570 H   0  0  0  0  0  0  0  0  0  0  0  0
   41.7820   33.1220   40.9540 N   0  0  0  0  0  0  0  0  0  0  0  0
   41.2230   34.1250   40.2540 C   0  0  0  0  0  3  0  0  0  0  0  0
   39.9070   34.1610   39.9790 N   0  0  0  0  0  0  0  0  0  0  0  0
  1 22  1  0  0  0  0
  2 10  1  0  0  0  0
  2  1  2  0  0  0  0
  3  2  1  0  0  0  0
  4  3  2  0  0  0  0
  4  5  1  0  0  0  0
  5  6  2  0  0  0  0
  6  1  1  0  0  0  0
  6 24  1  0  0  0  0
  7  3  1  0  0  0  0
  8  4  1  0  0  0  0
  9  5  1  0  0  0  0
 10 12  1  0  0  0  0
 10 13  1  0  0  0  0
 11 10  1  0  0  0  0
 13 18  1  0  0  0  0
 14 13  2  0  0  0  0
 14 15  1  0  0  0  0
 15 16  2  0  0  0  0
 16 17  1  0  0  0  0
 17 21  1  0  0  0  0
 18 17  2  0  0  0  0
 19 14  1  0  0  0  0
 20 15  1  0  0  0  0
 22 23  1  0  0  0  0
 24 25  1  0  0  0  0
 25 26  1  0  0  0  0
 26 27  2  0  0  0  0
 27 28  1  0  0  0  0
 29 27  1  0  0  0  0
 30 29  2  0  0  0  0
 31 30  1  0  0  0  0
 31 25  2  0  0  0  0
M  END
>  <minimizedAffinity>
-5.55730057

$$$$

 OpenBabel03242512193D

 31 33  0  0  0  0  0  0  0  0999 V2000
   36.7660   28.4590   41.8930 C   0  0  0  0  0  0  0  0  0  0  0  0
   36.1520   28.6680   40.6840 C   0  0  0  0  0  0  0  0  0  0  0  0
   36.1030   27.6470   39.7550 C   0  0  0  0  0  0  0  0  0  0  0  0
   36.6800   26.4240   40.0710 C   0  0  0  0  0  0  0  0  0  0  0  0
   37.2880   26.2370   41.2860 C   0  0  0  0  0  0  0  0  0  0  0  0
   37.3420   27.2670   42.2300 C   0  0  0  0  0  0  0  0  0  0  0  0
   35.6100   27.8790   38.8390 H   0  0  0  0  0  0  0  0  0  0  0  0
   36.6210   25.6480   39.3170 H   0  0  0  0  0  0  0  0  0  0  0  0
   37.7270   25.2740   41.4990 H   0  0  0  0  0  0  0  0  0  0  0  0
   35.5810   30.0230   40.4910 C   0  0  0  0  0  0  0  0  0  0  0  0
   35.0450   30.3960   41.3440 H   0  0  0  0  0  0  0  0  0  0  0  0
   34.8140   29.9110   39.6700 H   0  0  0  0  0  0  0  0  0  0  0  0
   36.6440   30.9520   39.9620 C   0  0  0  0  0  0  0  0  0  0  0  0
   36.8530   30.9620   38.5740 C   0  0  0  0  0  0  0  0  0  0  0  0
   37.8250   31.8180   38.0810 C   0  0  0  0  0  0  0  0  0  0  0  0
   38.5100   32.5850   38.9530 N   0  0  0  0  0  0  0  0  0  0  0  0
   38.2860   32.5540   40.3010 C   0  0  0  0  0  0  0  0  0  0  0  0
   37.3530   31.7350   40.7920 N   0  0  0  0  0  0  0  0  0  0  0  0
   36.3040   30.3480   37.8780 H   0  0  0  0  0  0  0  0  0  0  0  0
   38.0540   31.8940   37.0250 H   0  0  0  0  0  0  0  0  0  0  0  0
   38.8420   33.1740   40.9920 H   0  0  0  0  0  0  0  0  0  0  0  0
   36.8770   29.4140   42.9040 O   0  0  0  0  0  0  0  0  0  0  0  0
   36.0650   29.9160   43.2430 H   0  0  0  0  0  0  0  0  0  0  0  0
   37.9850   26.9570   43.4320 O   0  0  0  0  0  0  0  0  0  0  0  0
   39.3670   27.0880   43.4030 C   0  0  0  0  0  0  0  0  0  0  0  0
   40.1350   25.9720   43.6790 C   0  0  0  0  0  3  0  0  0  0  0  0
   41.5300   26.0110   43.6730 C   0  0  0  0  0  0  0  0  0  0  0  0
   42.1070   25.1250   43.8920 H   0  0  0  0  0  0  0  0  0  0  0  0
   42.1410   27.1680   43.3910 N   0  0  0  0  0  0  0  0  0  0  0  0
   41.3920   28.2520   43.1220 C   0  0  0  0  0  3  0  0  0  0  0  0
   40.0480   28.2150   43.1280 N   0  0  0  0  0  0  0  0  0  0  0  0
  1  6  1  0  0  0  0
  1 22  1  0  0  0  0
  2  1  2  0  0  0  0
  3  4  2  0  0  0  0
  3  2  1  0  0  0  0
  4  5  1  0  0  0  0
  5  9  1  0  0  0  0
  5  6  2  0  0  0  0
  6 24  1  0  0  0  0
  7  3  1  0  0  0  0
  8  4  1  0  0  0  0
 10  2  1  0  0  0  0
 10 11  1  0  0  0  0
 12 10  1  0  0  0  0
 13 10  1  0  0  0  0
 13 18  1  0  0  0  0
 14 13  2  0  0  0  0
 15 14  1  0  0  0  0
 15 16  2  0  0  0  0
 16 17  1  0  0  0  0
 17 18  2  0  0  0  0
 17 21  1  0  0  0  0
 19 14  1  0  0  0  0
 20 15  1  0  0  0  0
 22 23  1  0  0  0  0
 25 24  1  0  0  0  0
 25 26  1  0  0  0  0
 27 26  2  0  0  0  0
 27 28  1  0  0  0  0
 29 27  1  0  0  0  0
 30 31  1  0  0  0  0
 30 29  2  0  0  0  0
 31 25  2  0  0  0  0
M  END
>  <minimizedAffinity>
-5.5499053

$$$$

 OpenBabel03242512193D

 31 33  0  0  0  0  0  0  0  0999 V2000
   36.3800   30.6250   39.9200 C   0  0  0  0  0  0  0  0  0  0  0  0
   36.8300   31.2660   38.7930 C   0  0  0  0  0  0  0  0  0  0  0  0
   37.0710   30.5420   37.6420 C   0  0  0  0  0  0  0  0  0  0  0  0
   36.8490   29.1710   37.6540 C   0  0  0  0  0  0  0  0  0  0  0  0
   36.3980   28.5500   38.7910 C   0  0  0  0  0  0  0  0  0  0  0  0
   36.1530   29.2790   39.9600 C   0  0  0  0  0  0  0  0  0  0  0  0
   37.4180   31.1040   36.8070 H   0  0  0  0  0  0  0  0  0  0  0  0
   37.0490   28.6370   36.7320 H   0  0  0  0  0  0  0  0  0  0  0  0
   36.2360   27.4830   38.7660 H   0  0  0  0  0  0  0  0  0  0  0  0
   37.0190   32.7300   38.9330 C   0  0  0  0  0  0  0  0  0  0  0  0
   36.2430   33.2190   39.4930 H   0  0  0  0  0  0  0  0  0  0  0  0
   36.9480   33.1430   37.8840 H   0  0  0  0  0  0  0  0  0  0  0  0
   38.4180   33.0190   39.4140 C   0  0  0  0  0  0  0  0  0  0  0  0
   39.4650   32.3130   38.8000 C   0  0  0  0  0  0  0  0  0  0  0  0
   40.7540   32.5780   39.2340 C   0  0  0  0  0  0  0  0  0  0  0  0
   40.9300   33.4890   40.2120 N   0  0  0  0  0  0  0  0  0  0  0  0
   39.8920   34.1610   40.7930 C   0  0  0  0  0  0  0  0  0  0  0  0
   38.6430   33.9180   40.3860 N   0  0  0  0  0  0  0  0  0  0  0  0
   39.3230   31.5840   38.0180 H   0  0  0  0  0  0  0  0  0  0  0  0
   41.6230   32.0820   38.8190 H   0  0  0  0  0  0  0  0  0  0  0  0
   40.0440   34.8910   41.5770 H   0  0  0  0  0  0  0  0  0  0  0  0
   36.1050   31.2520   41.1350 O   0  0  0  0  0  0  0  0  0  0  0  0
   35.4990   32.0620   41.1820 H   0  0  0  0  0  0  0  0  0  0  0  0
   35.6940   28.5380   41.0520 O   0  0  0  0  0  0  0  0  0  0  0  0
   36.6910   28.0680   41.8970 C   0  0  0  0  0  0  0  0  0  0  0  0
   37.0080   26.7230   41.8490 C   0  0  0  0  0  3  0  0  0  0  0  0
   37.9960   26.1640   42.6620 C   0  0  0  0  0  0  0  0  0  0  0  0
   38.2250   25.1100   42.6050 H   0  0  0  0  0  0  0  0  0  0  0  0
   38.6550   26.9580   43.5130 N   0  0  0  0  0  0  0  0  0  0  0  0
   38.3460   28.2660   43.5580 C   0  0  0  0  0  3  0  0  0  0  0  0
   37.3940   28.8050   42.7760 N   0  0  0  0  0  0  0  0  0  0  0  0
  1  6  1  0  0  0  0
  1 22  1  0  0  0  0
  2 10  1  0  0  0  0
  2  1  2  0  0  0  0
  3  4  2  0  0  0  0
  3  2  1  0  0  0  0
  4  5  1  0  0  0  0
  5  6  2  0  0  0  0
  6 24  1  0  0  0  0
  7  3  1  0  0  0  0
  8  4  1  0  0  0  0
  9  5  1  0  0  0  0
 10 13  1  0  0  0  0
 10 11  1  0  0  0  0
 12 10  1  0  0  0  0
 13 18  1  0  0  0  0
 14 15  1  0  0  0  0
 14 13  2  0  0  0  0
 15 16  2  0  0  0  0
 16 17  1  0  0  0  0
 17 21  1  0  0  0  0
 18 17  2  0  0  0  0
 19 14  1  0  0  0  0
 20 15  1  0  0  0  0
 22 23  1  0  0  0  0
 24 25  1  0  0  0  0
 25 31  1  0  0  0  0
 26 25  2  0  0  0  0
 26 27  1  0  0  0  0
 27 29  2  0  0  0  0
 28 27  1  0  0  0  0
 29 30  1  0  0  0  0
 31 30  2  0  0  0  0
M  END
>  <minimizedAffinity>
-5.34620333

$$$$

 OpenBabel03242512193D

 31 33  0  0  0  0  0  0  0  0999 V2000
   36.8580   28.9480   41.8020 C   0  0  0  0  0  0  0  0  0  0  0  0
   37.4540   30.1550   41.5390 C   0  0  0  0  0  0  0  0  0  0  0  0
   38.7480   30.3880   41.9610 C   0  0  0  0  0  0  0  0  0  0  0  0
   39.4200   29.3850   42.6470 C   0  0  0  0  0  0  0  0  0  0  0  0
   38.8060   28.1840   42.8990 C   0  0  0  0  0  0  0  0  0  0  0  0
   37.4960   27.9430   42.4740 C   0  0  0  0  0  0  0  0  0  0  0  0
   39.1460   31.3470   41.7220 H   0  0  0  0  0  0  0  0  0  0  0  0
   40.4340   29.6050   42.9620 H   0  0  0  0  0  0  0  0  0  0  0  0
   39.3580   27.4270   43.4350 H   0  0  0  0  0  0  0  0  0  0  0  0
   36.6130   31.1260   40.7980 C   0  0  0  0  0  0  0  0  0  0  0  0
   36.7170   32.1410   41.1360 H   0  0  0  0  0  0  0  0  0  0  0  0
   35.5460   30.8340   41.0270 H   0  0  0  0  0  0  0  0  0  0  0  0
   36.8020   30.9350   39.3150 C   0  0  0  0  0  0  0  0  0  0  0  0
   37.6600   31.8310   38.6580 C   0  0  0  0  0  0  0  0  0  0  0  0
   37.8420   31.6570   37.2960 C   0  0  0  0  0  0  0  0  0  0  0  0
   37.1930   30.6480   36.6820 N   0  0  0  0  0  0  0  0  0  0  0  0
   36.3620   29.7910   37.3470 C   0  0  0  0  0  0  0  0  0  0  0  0
   36.1750   29.9440   38.6600 N   0  0  0  0  0  0  0  0  0  0  0  0
   38.1790   32.6380   39.1510 H   0  0  0  0  0  0  0  0  0  0  0  0
   38.4850   32.3000   36.7070 H   0  0  0  0  0  0  0  0  0  0  0  0
   35.8450   28.9840   36.8450 H   0  0  0  0  0  0  0  0  0  0  0  0
   35.5600   28.6020   41.4270 O   0  0  0  0  0  0  0  0  0  0  0  0
   35.2450   28.7090   40.4700 H   0  0  0  0  0  0  0  0  0  0  0  0
   36.9780   26.6830   42.7870 O   0  0  0  0  0  0  0  0  0  0  0  0
   37.1860   25.7120   41.8160 C   0  0  0  0  0  0  0  0  0  0  0  0
   37.8660   24.5630   42.1760 C   0  0  0  0  0  3  0  0  0  0  0  0
   38.1210   23.5350   41.2670 C   0  0  0  0  0  0  0  0  0  0  0  0
   38.6550   22.6480   41.5730 H   0  0  0  0  0  0  0  0  0  0  0  0
   37.6920   23.6700   40.0060 N   0  0  0  0  0  0  0  0  0  0  0  0
   37.0310   24.7880   39.6580 C   0  0  0  0  0  3  0  0  0  0  0  0
   36.7850   25.7780   40.5340 N   0  0  0  0  0  0  0  0  0  0  0  0
  1  6  1  0  0  0  0
  2  1  2  0  0  0  0
  2  3  1  0  0  0  0
  3  4  2  0  0  0  0
  4  5  1  0  0  0  0
  4  8  1  0  0  0  0
  5  9  1  0  0  0  0
  6 24  1  0  0  0  0
  6  5  2  0  0  0  0
  7  3  1  0  0  0  0
 10 12  1  0  0  0  0
 10 11  1  0  0  0  0
 10  2  1  0  0  0  0
 13 10  1  0  0  0  0
 14 19  1  0  0  0  0
 14 13  2  0  0  0  0
 15 14  1  0  0  0  0
 16 15  2  0  0  0  0
 16 17  1  0  0  0  0
 17 18  2  0  0  0  0
 18 13  1  0  0  0  0
 20 15  1  0  0  0  0
 21 17  1  0  0  0  0
 22  1  1  0  0  0  0
 23 22  1  0  0  0  0
 25 26  1  0  0  0  0
 25 24  1  0  0  0  0
 27 28  1  0  0  0  0
 27 26  2  0  0  0  0
 29 27  1  0  0  0  0
 30 29  2  0  0  0  0
 30 31  1  0  0  0  0
 31 25  2  0  0  0  0
M  END
>  <minimizedAffinity>
-5.30379295

$$$$

 OpenBabel03242512193D

 31 33  0  0  0  0  0  0  0  0999 V2000
   36.8250   28.8990   41.8450 C   0  0  0  0  0  0  0  0  0  0  0  0
   37.5660   28.0440   42.6200 C   0  0  0  0  0  0  0  0  0  0  0  0
   38.8310   28.4140   43.0330 C   0  0  0  0  0  0  0  0  0  0  0  0
   39.3250   29.6530   42.6500 C   0  0  0  0  0  0  0  0  0  0  0  0
   38.5670   30.4940   41.8740 C   0  0  0  0  0  0  0  0  0  0  0  0
   37.2850   30.1240   41.4530 C   0  0  0  0  0  0  0  0  0  0  0  0
   39.3480   27.7010   43.6330 H   0  0  0  0  0  0  0  0  0  0  0  0
   40.3210   29.9090   42.9930 H   0  0  0  0  0  0  0  0  0  0  0  0
   38.9820   31.4500   41.5940 H   0  0  0  0  0  0  0  0  0  0  0  0
   36.9060   26.7570   42.9500 C   0  0  0  0  0  0  0  0  0  0  0  0
   35.8510   26.8440   43.1370 H   0  0  0  0  0  0  0  0  0  0  0  0
   37.3660   26.4260   43.9260 H   0  0  0  0  0  0  0  0  0  0  0  0
   37.2780   25.7170   41.9240 C   0  0  0  0  0  0  0  0  0  0  0  0
   38.1590   24.7030   42.3300 C   0  0  0  0  0  0  0  0  0  0  0  0
   38.5000   23.7410   41.3930 C   0  0  0  0  0  0  0  0  0  0  0  0
   37.9740   23.8310   40.1560 N   0  0  0  0  0  0  0  0  0  0  0  0
   37.1180   24.8310   39.7870 C   0  0  0  0  0  0  0  0  0  0  0  0
   36.7790   25.7660   40.6780 N   0  0  0  0  0  0  0  0  0  0  0  0
   38.5790   24.6320   43.3210 H   0  0  0  0  0  0  0  0  0  0  0  0
   39.1730   22.9220   41.6170 H   0  0  0  0  0  0  0  0  0  0  0  0
   36.7010   24.8950   38.7900 H   0  0  0  0  0  0  0  0  0  0  0  0
   35.5400   28.6320   41.3700 O   0  0  0  0  0  0  0  0  0  0  0  0
   34.8020   28.3330   41.9950 H   0  0  0  0  0  0  0  0  0  0  0  0
   36.6090   31.0630   40.6700 O   0  0  0  0  0  0  0  0  0  0  0  0
   36.7600   30.8950   39.2990 C   0  0  0  0  0  0  0  0  0  0  0  0
   37.5780   31.7780   38.6200 C   0  0  0  0  0  3  0  0  0  0  0  0
   37.7880   31.6860   37.2430 C   0  0  0  0  0  0  0  0  0  0  0  0
   38.4320   32.3880   36.7360 H   0  0  0  0  0  0  0  0  0  0  0  0
   37.1760   30.7100   36.5620 N   0  0  0  0  0  0  0  0  0  0  0  0
   36.3800   29.8520   37.2250 C   0  0  0  0  0  3  0  0  0  0  0  0
   36.1770   29.9410   38.5520 N   0  0  0  0  0  0  0  0  0  0  0  0
  1  2  1  0  0  0  0
  2 10  1  0  0  0  0
  2  3  2  0  0  0  0
  3  7  1  0  0  0  0
  4  8  1  0  0  0  0
  4  3  1  0  0  0  0
  5  4  2  0  0  0  0
  6  1  2  0  0  0  0
  6  5  1  0  0  0  0
  9  5  1  0  0  0  0
 10 11  1  0  0  0  0
 10 12  1  0  0  0  0
 13 14  1  0  0  0  0
 13 10  1  0  0  0  0
 14 19  1  0  0  0  0
 15 20  1  0  0  0  0
 15 14  2  0  0  0  0
 16 15  1  0  0  0  0
 17 16  2  0  0  0  0
 17 18  1  0  0  0  0
 18 13  2  0  0  0  0
 21 17  1  0  0  0  0
 22  1  1  0  0  0  0
 22 23  1  0  0  0  0
 24  6  1  0  0  0  0
 25 24  1  0  0  0  0
 26 25  1  0  0  0  0
 27 26  2  0  0  0  0
 28 27  1  0  0  0  0
 29 30  2  0  0  0  0
 29 27  1  0  0  0  0
 30 31  1  0  0  0  0
 31 25  2  0  0  0  0
M  END
>  <minimizedAffinity>
-5.2968235

$$$$

 OpenBabel03242512193D

 31 33  0  0  0  0  0  0  0  0999 V2000
   38.2710   29.3930   42.5950 C   0  0  0  0  0  0  0  0  0  0  0  0
   38.5470   28.1160   43.0130 C   0  0  0  0  0  0  0  0  0  0  0  0
   39.8590   27.7110   43.1610 C   0  0  0  0  0  0  0  0  0  0  0  0
   40.8750   28.6150   42.8800 C   0  0  0  0  0  0  0  0  0  0  0  0
   40.5770   29.8880   42.4630 C   0  0  0  0  0  0  0  0  0  0  0  0
   39.2500   30.3030   42.3110 C   0  0  0  0  0  0  0  0  0  0  0  0
   39.9990   26.7080   43.4900 H   0  0  0  0  0  0  0  0  0  0  0  0
   41.8920   28.2610   43.0070 H   0  0  0  0  0  0  0  0  0  0  0  0
   41.3910   30.5640   42.2520 H   0  0  0  0  0  0  0  0  0  0  0  0
   37.3600   27.2670   43.2750 C   0  0  0  0  0  0  0  0  0  0  0  0
   36.5120   27.8080   43.6570 H   0  0  0  0  0  0  0  0  0  0  0  0
   37.6720   26.5620   44.1000 H   0  0  0  0  0  0  0  0  0  0  0  0
   37.0680   26.4140   42.0680 C   0  0  0  0  0  0  0  0  0  0  0  0
   37.0160   25.0240   42.2620 C   0  0  0  0  0  0  0  0  0  0  0  0
   36.7430   24.2350   41.1570 C   0  0  0  0  0  0  0  0  0  0  0  0
   36.5440   24.8380   39.9680 N   0  0  0  0  0  0  0  0  0  0  0  0
   36.6010   26.1940   39.8070 C   0  0  0  0  0  0  0  0  0  0  0  0
   36.8630   26.9690   40.8620 N   0  0  0  0  0  0  0  0  0  0  0  0
   37.1760   24.5440   43.2140 H   0  0  0  0  0  0  0  0  0  0  0  0
   36.6830   23.1550   41.2120 H   0  0  0  0  0  0  0  0  0  0  0  0
   36.4400   26.6680   38.8480 H   0  0  0  0  0  0  0  0  0  0  0  0
   36.9890   29.9100   42.4100 O   0  0  0  0  0  0  0  0  0  0  0  0
   36.2870   29.8460   43.1380 H   0  0  0  0  0  0  0  0  0  0  0  0
   39.0710   31.6220   41.8830 O   0  0  0  0  0  0  0  0  0  0  0  0
   39.4720   31.8690   40.5770 C   0  0  0  0  0  0  0  0  0  0  0  0
   38.7790   31.2500   39.5530 C   0  0  0  0  0  3  0  0  0  0  0  0
   39.1120   31.4390   38.2110 C   0  0  0  0  0  0  0  0  0  0  0  0
   38.5550   30.9440   37.4300 H   0  0  0  0  0  0  0  0  0  0  0  0
   40.1360   32.2460   37.9090 N   0  0  0  0  0  0  0  0  0  0  0  0
   40.8090   32.8470   38.9060 C   0  0  0  0  0  3  0  0  0  0  0  0
   40.4890   32.6650   40.2000 N   0  0  0  0  0  0  0  0  0  0  0  0
  1  2  1  0  0  0  0
  2  3  2  0  0  0  0
  2 10  1  0  0  0  0
  3  7  1  0  0  0  0
  4  8  1  0  0  0  0
  4  3  1  0  0  0  0
  5  4  2  0  0  0  0
  6  5  1  0  0  0  0
  6  1  2  0  0  0  0
  9  5  1  0  0  0  0
 10 11  1  0  0  0  0
 10 12  1  0  0  0  0
 13 14  1  0  0  0  0
 13 10  1  0  0  0  0
 14 19  1  0  0  0  0
 15 20  1  0  0  0  0
 15 14  2  0  0  0  0
 16 15  1  0  0  0  0
 17 16  2  0  0  0  0
 17 18  1  0  0  0  0
 18 13  2  0  0  0  0
 21 17  1  0  0  0  0
 22  1  1  0  0  0  0
 22 23  1  0  0  0  0
 24  6  1  0  0  0  0
 25 24  1  0  0  0  0
 26 25  2  0  0  0  0
 27 26  1  0  0  0  0
 28 27  1  0  0  0  0
 29 27  2  0  0  0  0
 29 30  1  0  0  0  0
 30 31  2  0  0  0  0
 31 25  1  0  0  0  0
M  END
>  <minimizedAffinity>
-5.29355001

$$$$

 OpenBabel03242512193D

 31 33  0  0  0  0  0  0  0  0999 V2000
   37.0630   29.6150   41.7110 C   0  0  0  0  0  0  0  0  0  0  0  0
   38.0350   29.3750   42.6490 C   0  0  0  0  0  0  0  0  0  0  0  0
   39.2300   30.0640   42.5900 C   0  0  0  0  0  0  0  0  0  0  0  0
   39.4200   30.9920   41.5740 C   0  0  0  0  0  0  0  0  0  0  0  0
   38.4340   31.2170   40.6470 C   0  0  0  0  0  0  0  0  0  0  0  0
   37.2220   30.5220   40.7020 C   0  0  0  0  0  0  0  0  0  0  0  0
   39.9380   29.8270   43.3500 H   0  0  0  0  0  0  0  0  0  0  0  0
   40.3700   31.5130   41.5600 H   0  0  0  0  0  0  0  0  0  0  0  0
   38.6150   31.9460   39.8700 H   0  0  0  0  0  0  0  0  0  0  0  0
   37.6890   28.3580   43.6710 C   0  0  0  0  0  0  0  0  0  0  0  0
   36.6590   28.3830   43.9800 H   0  0  0  0  0  0  0  0  0  0  0  0
   38.2900   28.6360   44.5860 H   0  0  0  0  0  0  0  0  0  0  0  0
   38.1790   27.0040   43.2290 C   0  0  0  0  0  0  0  0  0  0  0  0
   39.4510   26.6070   43.6710 C   0  0  0  0  0  0  0  0  0  0  0  0
   39.9050   25.3600   43.2720 C   0  0  0  0  0  0  0  0  0  0  0  0
   39.1100   24.6050   42.4890 N   0  0  0  0  0  0  0  0  0  0  0  0
   37.8760   25.0170   42.0710 C   0  0  0  0  0  0  0  0  0  0  0  0
   37.4220   26.2160   42.4470 N   0  0  0  0  0  0  0  0  0  0  0  0
   40.0860   27.2130   44.2980 H   0  0  0  0  0  0  0  0  0  0  0  0
   40.8730   24.9710   43.5650 H   0  0  0  0  0  0  0  0  0  0  0  0
   37.2450   24.4030   41.4420 H   0  0  0  0  0  0  0  0  0  0  0  0
   35.8220   28.9800   41.6710 O   0  0  0  0  0  0  0  0  0  0  0  0
   35.2240   28.9450   42.4880 H   0  0  0  0  0  0  0  0  0  0  0  0
   36.2940   30.8390   39.7050 O   0  0  0  0  0  0  0  0  0  0  0  0
   36.3180   29.9970   38.6000 C   0  0  0  0  0  0  0  0  0  0  0  0
   37.0110   30.4130   37.4780 C   0  0  0  0  0  3  0  0  0  0  0  0
   37.0870   29.6330   36.3230 C   0  0  0  0  0  0  0  0  0  0  0  0
   37.6350   29.9800   35.4590 H   0  0  0  0  0  0  0  0  0  0  0  0
   36.4680   28.4470   36.3040 N   0  0  0  0  0  0  0  0  0  0  0  0
   35.7950   28.0450   37.3960 C   0  0  0  0  0  3  0  0  0  0  0  0
   35.7200   28.7950   38.5100 N   0  0  0  0  0  0  0  0  0  0  0  0
  1  2  1  0  0  0  0
  2 10  1  0  0  0  0
  3  2  2  0  0  0  0
  3  7  1  0  0  0  0
  4  3  1  0  0  0  0
  5  6  1  0  0  0  0
  5  4  2  0  0  0  0
  6  1  2  0  0  0  0
  8  4  1  0  0  0  0
  9  5  1  0  0  0  0
 10 11  1  0  0  0  0
 10 12  1  0  0  0  0
 13 14  1  0  0  0  0
 13 10  1  0  0  0  0
 14 19  1  0  0  0  0
 15 20  1  0  0  0  0
 15 14  2  0  0  0  0
 16 15  1  0  0  0  0
 17 18  1  0  0  0  0
 17 16  2  0  0  0  0
 18 13  2  0  0  0  0
 21 17  1  0  0  0  0
 22  1  1  0  0  0  0
 22 23  1  0  0  0  0
 24  6  1  0  0  0  0
 25 24  1  0  0  0  0
 26 25  2  0  0  0  0
 27 26  1  0  0  0  0
 28 27  1  0  0  0  0
 29 27  2  0  0  0  0
 29 30  1  0  0  0  0
 30 31  2  0  0  0  0
 31 25  1  0  0  0  0
M  END
>  <minimizedAffinity>
-5.24412298

$$$$

 OpenBabel03242512193D

 31 33  0  0  0  0  0  0  0  0999 V2000
   37.4580   29.6000   42.0650 C   0  0  0  0  0  0  0  0  0  0  0  0
   36.5840   28.5530   41.9160 C   0  0  0  0  0  0  0  0  0  0  0  0
   35.7540   28.5030   40.8140 C   0  0  0  0  0  0  0  0  0  0  0  0
   35.8260   29.5230   39.8740 C   0  0  0  0  0  0  0  0  0  0  0  0
   36.7070   30.5610   40.0420 C   0  0  0  0  0  0  0  0  0  0  0  0
   37.5500   30.6170   41.1570 C   0  0  0  0  0  0  0  0  0  0  0  0
   35.1030   27.6620   40.7630 H   0  0  0  0  0  0  0  0  0  0  0  0
   35.1590   29.4500   39.0230 H   0  0  0  0  0  0  0  0  0  0  0  0
   36.7370   31.3380   39.2920 H   0  0  0  0  0  0  0  0  0  0  0  0
   36.6220   27.5410   42.9990 C   0  0  0  0  0  0  0  0  0  0  0  0
   35.6510   27.2310   43.3420 H   0  0  0  0  0  0  0  0  0  0  0  0
   37.1070   28.0590   43.8770 H   0  0  0  0  0  0  0  0  0  0  0  0
   37.5390   26.4100   42.6070 C   0  0  0  0  0  0  0  0  0  0  0  0
   36.9370   25.2170   42.1780 C   0  0  0  0  0  0  0  0  0  0  0  0
   37.7750   24.1760   41.8100 C   0  0  0  0  0  0  0  0  0  0  0  0
   39.1080   24.3640   41.8850 N   0  0  0  0  0  0  0  0  0  0  0  0
   39.6660   25.5380   42.3080 C   0  0  0  0  0  0  0  0  0  0  0  0
   38.8730   26.5510   42.6650 N   0  0  0  0  0  0  0  0  0  0  0  0
   35.8710   25.0680   42.1190 H   0  0  0  0  0  0  0  0  0  0  0  0
   37.4000   23.2200   41.4670 H   0  0  0  0  0  0  0  0  0  0  0  0
   40.7380   25.6790   42.3640 H   0  0  0  0  0  0  0  0  0  0  0  0
   38.3390   29.7550   43.1350 O   0  0  0  0  0  0  0  0  0  0  0  0
   38.9660   29.0090   43.4100 H   0  0  0  0  0  0  0  0  0  0  0  0
   38.4060   31.7200   41.2170 O   0  0  0  0  0  0  0  0  0  0  0  0
   39.4620   31.6860   40.3160 C   0  0  0  0  0  0  0  0  0  0  0  0
   39.6460   32.7750   39.4840 C   0  0  0  0  0  3  0  0  0  0  0  0
   40.6800   32.8270   38.5480 C   0  0  0  0  0  0  0  0  0  0  0  0
   40.8020   33.6890   37.9090 H   0  0  0  0  0  0  0  0  0  0  0  0
   41.5190   31.7880   38.4550 N   0  0  0  0  0  0  0  0  0  0  0  0
   41.3380   30.7310   39.2660 C   0  0  0  0  0  3  0  0  0  0  0  0
   40.3420   30.6790   40.1680 N   0  0  0  0  0  0  0  0  0  0  0  0
  1 22  1  0  0  0  0
  2  1  1  0  0  0  0
  2 10  1  0  0  0  0
  3  2  2  0  0  0  0
  4  5  2  0  0  0  0
  4  3  1  0  0  0  0
  5  6  1  0  0  0  0
  6 24  1  0  0  0  0
  6  1  2  0  0  0  0
  7  3  1  0  0  0  0
  8  4  1  0  0  0  0
  9  5  1  0  0  0  0
 10 11  1  0  0  0  0
 10 12  1  0  0  0  0
 13 18  1  0  0  0  0
 13 10  1  0  0  0  0
 14 13  2  0  0  0  0
 15 16  2  0  0  0  0
 15 14  1  0  0  0  0
 16 17  1  0  0  0  0
 17 21  1  0  0  0  0
 17 18  2  0  0  0  0
 19 14  1  0  0  0  0
 20 15  1  0  0  0  0
 22 23  1  0  0  0  0
 25 24  1  0  0  0  0
 26 25  2  0  0  0  0
 27 26  1  0  0  0  0
 28 27  1  0  0  0  0
 29 27  2  0  0  0  0
 29 30  1  0  0  0  0
 30 31  2  0  0  0  0
 31 25  1  0  0  0  0
M  END
>  <minimizedAffinity>
-5.20005894

$$$$
