
 OpenBabel03252506163D

 37 39  0  0  0  0  0  0  0  0999 V2000
   39.5860   27.8410   40.3350 F   0  0  0  0  0  0  0  0  0  0  0  0
   38.6530   27.7900   41.2710 C   0  0  0  0  0  0  0  0  0  0  0  0
   39.0570   27.6200   42.5790 C   0  0  0  0  0  0  0  0  0  0  0  0
   38.1510   27.5570   43.6600 C   0  0  0  0  0  0  0  0  0  0  0  0
   36.7840   27.6730   43.3860 C   0  0  0  0  0  0  0  0  0  0  0  0
   36.4370   27.8410   42.0670 C   0  0  0  0  0  0  0  0  0  0  0  0
   37.2920   27.9030   41.0260 C   0  0  0  0  0  0  0  0  0  0  0  0
   38.5500   27.4200   44.6650 H   0  0  0  0  0  0  0  0  0  0  0  0
   36.1320   27.6180   44.2460 H   0  0  0  0  0  0  0  0  0  0  0  0
   35.3440   27.9240   42.0140 H   0  0  0  0  0  0  0  0  0  0  0  0
   42.2950   26.0760   43.3350 C   0  0  0  0  0  0  0  0  0  0  0  0
   43.1240   27.2280   43.5350 C   0  0  0  0  0  0  0  0  0  0  0  0
   42.5480   28.5260   43.4060 C   0  0  0  0  0  0  0  0  0  0  0  0
   41.2180   28.5840   43.0920 N   0  0  0  0  0  0  0  0  0  0  0  0
   40.4860   27.4960   42.9150 C   0  0  0  0  0  0  0  0  0  0  0  0
   41.0090   26.2520   43.0330 N   0  0  0  0  0  0  0  0  0  0  0  0
   44.1790   27.1820   43.7830 H   0  0  0  0  0  0  0  0  0  0  0  0
   43.1470   29.3910   43.5500 H   0  0  0  0  0  0  0  0  0  0  0  0
   42.9010   24.8310   43.4700 N   0  0  0  0  0  0  0  0  0  0  0  0
   42.5940   24.0420   42.8270 H   0  0  0  0  0  0  0  0  0  0  0  0
   43.6390   24.7110   44.1990 H   0  0  0  0  0  0  0  0  0  0  0  0
   36.8260   28.0710   39.7550 O   0  0  0  0  0  0  0  0  0  0  0  0
   37.8980   29.8160   38.0780 O   0  0  0  0  0  0  0  0  0  0  0  0
   36.6780   29.5240   38.9200 P   0  0  2  0  0  0  0  0  0  0  0  0
   36.4760   30.7910   40.0620 O   0  0  0  0  0  0  0  0  0  0  0  0
   37.4840   31.7010   40.3310 C   0  0  0  0  0  0  0  0  0  0  0  0
   37.3010   32.9700   39.8020 C   0  0  0  0  0  3  0  0  0  0  0  0
   38.2430   33.9330   40.0150 C   0  0  0  0  0  0  0  0  0  0  0  0
   38.1300   34.9370   39.6140 H   0  0  0  0  0  0  0  0  0  0  0  0
   39.3560   33.6870   40.7300 N   0  0  0  0  0  0  0  0  0  0  0  0
   39.5040   32.4330   41.2340 C   0  0  0  0  0  3  0  0  0  0  0  0
   38.6010   31.4240   41.0580 N   0  0  0  0  0  0  0  0  0  0  0  0
   35.3060   29.5930   37.9530 O   0  0  0  0  0  0  0  0  0  0  0  0
   34.2500   28.8550   38.5320 C   0  0  0  0  0  0  0  0  0  0  0  0
   34.6140   27.5130   38.3350 F   0  0  0  0  0  0  0  0  0  0  0  0
   34.2060   29.0700   39.8930 F   0  0  0  0  0  0  0  0  0  0  0  0
   33.0320   29.1430   38.0110 F   0  0  0  0  0  0  0  0  0  0  0  0
  1  2  1  0  0  0  0
  2  3  1  0  0  0  0
  3 15  1  0  0  0  0
  3  4  2  0  0  0  0
  4  8  1  0  0  0  0
  5  4  1  0  0  0  0
  5  9  1  0  0  0  0
  6  5  2  0  0  0  0
  7  2  2  0  0  0  0
  7  6  1  0  0  0  0
 10  6  1  0  0  0  0
 11 19  1  0  0  0  0
 11 12  1  0  0  0  0
 12 17  1  0  0  0  0
 13 12  2  0  0  0  0
 13 18  1  0  0  0  0
 14 13  1  0  0  0  0
 15 16  1  0  0  0  0
 15 14  2  0  0  0  0
 16 11  2  0  0  0  0
 19 21  1  0  0  0  0
 20 19  1  0  0  0  0
 22  7  1  0  0  0  0
 24 23  2  6  0  0  0
 24 22  1  0  0  0  0
 24 25  1  0  0  0  0
 25 26  1  0  0  0  0
 26 32  1  0  0  0  0
 27 28  1  0  0  0  0
 27 26  2  0  0  0  0
 28 30  2  0  0  0  0
 29 28  1  0  0  0  0
 30 31  1  0  0  0  0
 32 31  2  0  0  0  0
 33 34  1  0  0  0  0
 33 24  1  0  0  0  0
 34 36  1  0  0  0  0
 35 34  1  0  0  0  0
 37 34  1  0  0  0  0
M  END
>  <minimizedAffinity>
-6.2486105

$$$$

 OpenBabel03252506163D

 37 39  0  0  0  0  0  0  0  0999 V2000
   40.1150   29.9960   38.9240 F   0  0  0  0  0  0  0  0  0  0  0  0
   39.0850   30.7170   39.3350 C   0  0  0  0  0  0  0  0  0  0  0  0
   39.2950   32.0560   39.5920 C   0  0  0  0  0  0  0  0  0  0  0  0
   38.2710   32.9240   40.0300 C   0  0  0  0  0  0  0  0  0  0  0  0
   36.9890   32.3960   40.2110 C   0  0  0  0  0  0  0  0  0  0  0  0
   36.8350   31.0570   39.9410 C   0  0  0  0  0  0  0  0  0  0  0  0
   37.8040   30.2190   39.5220 C   0  0  0  0  0  0  0  0  0  0  0  0
   38.5190   33.9700   40.2120 H   0  0  0  0  0  0  0  0  0  0  0  0
   36.2400   33.0990   40.5470 H   0  0  0  0  0  0  0  0  0  0  0  0
   35.7830   30.7960   40.1180 H   0  0  0  0  0  0  0  0  0  0  0  0
   42.1570   33.6680   37.9610 C   0  0  0  0  0  0  0  0  0  0  0  0
   43.0850   33.7730   39.0480 C   0  0  0  0  0  0  0  0  0  0  0  0
   42.7070   33.2830   40.3320 C   0  0  0  0  0  0  0  0  0  0  0  0
   41.4580   32.7360   40.4420 N   0  0  0  0  0  0  0  0  0  0  0  0
   40.6290   32.6570   39.4140 C   0  0  0  0  0  0  0  0  0  0  0  0
   40.9650   33.1140   38.1840 N   0  0  0  0  0  0  0  0  0  0  0  0
   44.0760   34.2070   38.9610 H   0  0  0  0  0  0  0  0  0  0  0  0
   43.3820   33.3540   41.1490 H   0  0  0  0  0  0  0  0  0  0  0  0
   42.5700   34.1610   36.7270 N   0  0  0  0  0  0  0  0  0  0  0  0
   41.8530   34.6390   36.1040 H   0  0  0  0  0  0  0  0  0  0  0  0
   43.5710   34.0450   36.4530 H   0  0  0  0  0  0  0  0  0  0  0  0
   37.5290   28.9030   39.2880 O   0  0  0  0  0  0  0  0  0  0  0  0
   39.2320   26.9260   39.7340 O   0  0  0  0  0  0  0  0  0  0  0  0
   37.9780   27.5940   40.2450 P   0  0  2  0  0  0  0  0  0  0  0  0
   36.6970   26.4490   40.2380 O   0  0  0  0  0  0  0  0  0  0  0  0
   36.9080   25.1190   39.9210 C   0  0  0  0  0  0  0  0  0  0  0  0
   37.3110   24.3090   40.9730 C   0  0  0  0  0  3  0  0  0  0  0  0
   37.5420   22.9830   40.7550 C   0  0  0  0  0  0  0  0  0  0  0  0
   37.8590   22.3220   41.5570 H   0  0  0  0  0  0  0  0  0  0  0  0
   37.3910   22.4300   39.5380 N   0  0  0  0  0  0  0  0  0  0  0  0
   36.9950   23.2510   38.5290 C   0  0  0  0  0  3  0  0  0  0  0  0
   36.7470   24.5850   38.6790 N   0  0  0  0  0  0  0  0  0  0  0  0
   38.1850   27.9990   41.8620 O   0  0  0  0  0  0  0  0  0  0  0  0
   36.9410   28.0320   42.5310 C   0  0  0  0  0  0  0  0  0  0  0  0
   37.1030   29.0180   43.5190 F   0  0  0  0  0  0  0  0  0  0  0  0
   35.9500   28.4700   41.6780 F   0  0  0  0  0  0  0  0  0  0  0  0
   36.5660   26.8370   43.0490 F   0  0  0  0  0  0  0  0  0  0  0  0
  1  2  1  0  0  0  0
  2  7  2  0  0  0  0
  2  3  1  0  0  0  0
  3  4  2  0  0  0  0
  4  5  1  0  0  0  0
  4  8  1  0  0  0  0
  5  9  1  0  0  0  0
  6 10  1  0  0  0  0
  6  5  2  0  0  0  0
  7  6  1  0  0  0  0
 11 16  2  0  0  0  0
 11 12  1  0  0  0  0
 12 13  2  0  0  0  0
 13 14  1  0  0  0  0
 13 18  1  0  0  0  0
 15  3  1  0  0  0  0
 15 14  2  0  0  0  0
 16 15  1  0  0  0  0
 17 12  1  0  0  0  0
 19 11  1  0  0  0  0
 20 19  1  0  0  0  0
 21 19  1  0  0  0  0
 22  7  1  0  0  0  0
 22 24  1  0  0  0  0
 24 23  2  6  0  0  0
 24 33  1  0  0  0  0
 25 24  1  0  0  0  0
 26 25  1  0  0  0  0
 26 27  1  0  0  0  0
 28 27  2  0  0  0  0
 28 29  1  0  0  0  0
 30 28  1  0  0  0  0
 31 32  1  0  0  0  0
 31 30  2  0  0  0  0
 32 26  2  0  0  0  0
 33 34  1  0  0  0  0
 34 37  1  0  0  0  0
 34 35  1  0  0  0  0
 36 34  1  0  0  0  0
M  END
>  <minimizedAffinity>
-5.86799908

$$$$

 OpenBabel03252506163D

 37 39  0  0  0  0  0  0  0  0999 V2000
   38.7480   27.9760   39.6050 F   0  0  0  0  0  0  0  0  0  0  0  0
   38.4290   28.1930   40.8690 C   0  0  0  0  0  0  0  0  0  0  0  0
   37.7490   27.2010   41.5440 C   0  0  0  0  0  0  0  0  0  0  0  0
   37.3610   27.3200   42.8970 C   0  0  0  0  0  0  0  0  0  0  0  0
   37.6840   28.4980   43.5780 C   0  0  0  0  0  0  0  0  0  0  0  0
   38.3630   29.4530   42.8590 C   0  0  0  0  0  0  0  0  0  0  0  0
   38.7390   29.3520   41.5670 C   0  0  0  0  0  0  0  0  0  0  0  0
   36.8240   26.4900   43.3580 H   0  0  0  0  0  0  0  0  0  0  0  0
   37.3660   28.5410   44.6090 H   0  0  0  0  0  0  0  0  0  0  0  0
   38.5510   30.3060   43.5240 H   0  0  0  0  0  0  0  0  0  0  0  0
   37.6880   23.6280   40.7240 C   0  0  0  0  0  0  0  0  0  0  0  0
   36.7450   23.5970   39.6440 C   0  0  0  0  0  0  0  0  0  0  0  0
   36.1440   24.8160   39.2140 C   0  0  0  0  0  0  0  0  0  0  0  0
   36.5140   25.9550   39.8770 N   0  0  0  0  0  0  0  0  0  0  0  0
   37.3880   25.9420   40.8690 C   0  0  0  0  0  0  0  0  0  0  0  0
   37.9740   24.7980   41.2950 N   0  0  0  0  0  0  0  0  0  0  0  0
   36.4520   22.6930   39.1200 H   0  0  0  0  0  0  0  0  0  0  0  0
   35.4430   24.8110   38.4170 H   0  0  0  0  0  0  0  0  0  0  0  0
   38.2470   22.4140   41.1090 N   0  0  0  0  0  0  0  0  0  0  0  0
   38.4420   22.2470   42.1410 H   0  0  0  0  0  0  0  0  0  0  0  0
   38.4580   21.7050   40.3720 H   0  0  0  0  0  0  0  0  0  0  0  0
   39.4090   30.3720   40.9580 O   0  0  0  0  0  0  0  0  0  0  0  0
   39.1890   32.9860   41.3100 O   0  0  0  0  0  0  0  0  0  0  0  0
   38.7600   31.8330   40.4340 P   0  0  2  0  0  0  0  0  0  0  0  0
   37.0470   31.7140   40.4740 O   0  0  0  0  0  0  0  0  0  0  0  0
   36.3640   30.7610   39.7390 C   0  0  0  0  0  0  0  0  0  0  0  0
   35.4250   30.0220   40.4440 C   0  0  0  0  0  3  0  0  0  0  0  0
   34.7030   29.0590   39.8030 C   0  0  0  0  0  0  0  0  0  0  0  0
   33.9610   28.4620   40.3260 H   0  0  0  0  0  0  0  0  0  0  0  0
   34.8740   28.8020   38.4930 N   0  0  0  0  0  0  0  0  0  0  0  0
   35.8010   29.5460   37.8320 C   0  0  0  0  0  3  0  0  0  0  0  0
   36.5570   30.5230   38.4130 N   0  0  0  0  0  0  0  0  0  0  0  0
   39.1310   32.1840   38.8340 O   0  0  0  0  0  0  0  0  0  0  0  0
   40.4410   32.7030   38.7270 C   0  0  0  0  0  0  0  0  0  0  0  0
   40.7410   32.6100   37.3570 F   0  0  0  0  0  0  0  0  0  0  0  0
   40.4540   34.0410   39.0570 F   0  0  0  0  0  0  0  0  0  0  0  0
   41.3490   32.0600   39.5010 F   0  0  0  0  0  0  0  0  0  0  0  0
  1  2  1  0  0  0  0
  2  3  2  0  0  0  0
  2  7  1  0  0  0  0
  3  4  1  0  0  0  0
  4  8  1  0  0  0  0
  4  5  2  0  0  0  0
  5  9  1  0  0  0  0
  6 10  1  0  0  0  0
  6  5  1  0  0  0  0
  7  6  2  0  0  0  0
 11 19  1  0  0  0  0
 11 16  1  0  0  0  0
 12 11  2  0  0  0  0
 13 12  1  0  0  0  0
 13 14  2  0  0  0  0
 14 15  1  0  0  0  0
 15 16  2  0  0  0  0
 15  3  1  0  0  0  0
 17 12  1  0  0  0  0
 18 13  1  0  0  0  0
 19 20  1  0  0  0  0
 21 19  1  0  0  0  0
 22  7  1  0  0  0  0
 24 25  1  0  0  0  0
 24 22  1  0  0  0  0
 24 23  2  1  0  0  0
 26 27  1  0  0  0  0
 26 25  1  0  0  0  0
 28 29  1  0  0  0  0
 28 27  2  0  0  0  0
 30 28  1  0  0  0  0
 31 32  1  0  0  0  0
 31 30  2  0  0  0  0
 32 26  2  0  0  0  0
 33 24  1  0  0  0  0
 34 33  1  0  0  0  0
 34 36  1  0  0  0  0
 34 37  1  0  0  0  0
 35 34  1  0  0  0  0
M  END
>  <minimizedAffinity>
-5.76079178

$$$$

 OpenBabel03252506163D

 37 39  0  0  0  0  0  0  0  0999 V2000
   40.2600   30.3680   38.8250 F   0  0  0  0  0  0  0  0  0  0  0  0
   39.2470   31.1420   39.1760 C   0  0  0  0  0  0  0  0  0  0  0  0
   39.5120   32.4640   39.4650 C   0  0  0  0  0  0  0  0  0  0  0  0
   38.5090   33.3830   39.8450 C   0  0  0  0  0  0  0  0  0  0  0  0
   37.1900   32.9270   39.9290 C   0  0  0  0  0  0  0  0  0  0  0  0
   36.9820   31.6010   39.6290 C   0  0  0  0  0  0  0  0  0  0  0  0
   37.9300   30.7140   39.2660 C   0  0  0  0  0  0  0  0  0  0  0  0
   38.8010   34.4120   40.0590 H   0  0  0  0  0  0  0  0  0  0  0  0
   36.4600   33.6670   40.2230 H   0  0  0  0  0  0  0  0  0  0  0  0
   35.9070   31.3970   39.7300 H   0  0  0  0  0  0  0  0  0  0  0  0
   42.6140   33.7990   38.0360 C   0  0  0  0  0  0  0  0  0  0  0  0
   43.4210   33.9670   39.2080 C   0  0  0  0  0  0  0  0  0  0  0  0
   42.8800   33.6140   40.4790 C   0  0  0  0  0  0  0  0  0  0  0  0
   41.6000   33.1320   40.4930 N   0  0  0  0  0  0  0  0  0  0  0  0
   40.8860   32.9900   39.3880 C   0  0  0  0  0  0  0  0  0  0  0  0
   41.3780   33.3170   38.1690 N   0  0  0  0  0  0  0  0  0  0  0  0
   44.4360   34.3500   39.1970 H   0  0  0  0  0  0  0  0  0  0  0  0
   43.4630   33.7340   41.3580 H   0  0  0  0  0  0  0  0  0  0  0  0
   43.1840   34.1570   36.8190 N   0  0  0  0  0  0  0  0  0  0  0  0
   42.5660   34.6040   36.0780 H   0  0  0  0  0  0  0  0  0  0  0  0
   44.2020   33.9760   36.6720 H   0  0  0  0  0  0  0  0  0  0  0  0
   37.6000   29.4190   38.9940 O   0  0  0  0  0  0  0  0  0  0  0  0
   38.8690   27.5540   40.3800 O   0  0  0  0  0  0  0  0  0  0  0  0
   37.5110   28.1490   40.0950 P   0  0  2  0  0  0  0  0  0  0  0  0
   36.4970   26.9270   39.4380 O   0  0  0  0  0  0  0  0  0  0  0  0
   35.5380   27.2110   38.4810 C   0  0  0  0  0  0  0  0  0  0  0  0
   34.7720   28.3430   38.7180 C   0  0  0  0  0  3  0  0  0  0  0  0
   33.8030   28.7010   37.8290 C   0  0  0  0  0  0  0  0  0  0  0  0
   33.1850   29.5820   37.9860 H   0  0  0  0  0  0  0  0  0  0  0  0
   33.5630   27.9830   36.7170 N   0  0  0  0  0  0  0  0  0  0  0  0
   34.3320   26.8790   36.5150 C   0  0  0  0  0  3  0  0  0  0  0  0
   35.3170   26.4650   37.3640 N   0  0  0  0  0  0  0  0  0  0  0  0
   36.7790   28.5820   41.5440 O   0  0  0  0  0  0  0  0  0  0  0  0
   37.0190   27.6060   42.5360 C   0  0  0  0  0  0  0  0  0  0  0  0
   38.2600   27.9660   43.0870 F   0  0  0  0  0  0  0  0  0  0  0  0
   36.0820   27.7060   43.5430 F   0  0  0  0  0  0  0  0  0  0  0  0
   37.0100   26.3340   42.0660 F   0  0  0  0  0  0  0  0  0  0  0  0
  1  2  1  0  0  0  0
  2  7  2  0  0  0  0
  2  3  1  0  0  0  0
  3  4  2  0  0  0  0
  4  5  1  0  0  0  0
  4  8  1  0  0  0  0
  5  9  1  0  0  0  0
  6 10  1  0  0  0  0
  6  5  2  0  0  0  0
  7  6  1  0  0  0  0
 11 16  2  0  0  0  0
 11 12  1  0  0  0  0
 12 13  2  0  0  0  0
 13 14  1  0  0  0  0
 13 18  1  0  0  0  0
 15  3  1  0  0  0  0
 15 14  2  0  0  0  0
 16 15  1  0  0  0  0
 17 12  1  0  0  0  0
 19 11  1  0  0  0  0
 20 19  1  0  0  0  0
 21 19  1  0  0  0  0
 22  7  1  0  0  0  0
 22 24  1  0  0  0  0
 24 23  2  1  0  0  0
 24 33  1  0  0  0  0
 25 24  1  0  0  0  0
 26 27  1  0  0  0  0
 26 25  1  0  0  0  0
 28 29  1  0  0  0  0
 28 27  2  0  0  0  0
 30 28  1  0  0  0  0
 31 30  2  0  0  0  0
 31 32  1  0  0  0  0
 32 26  2  0  0  0  0
 33 34  1  0  0  0  0
 34 35  1  0  0  0  0
 34 36  1  0  0  0  0
 37 34  1  0  0  0  0
M  END
>  <minimizedAffinity>
-5.71989346

$$$$

 OpenBabel03252506163D

 37 39  0  0  0  0  0  0  0  0999 V2000
   37.3870   28.9580   39.3600 F   0  0  0  0  0  0  0  0  0  0  0  0
   37.3770   28.5800   40.6270 C   0  0  0  0  0  0  0  0  0  0  0  0
   37.8300   29.4760   41.5730 C   0  0  0  0  0  0  0  0  0  0  0  0
   37.8610   29.1850   42.9540 C   0  0  0  0  0  0  0  0  0  0  0  0
   37.4100   27.9300   43.3760 C   0  0  0  0  0  0  0  0  0  0  0  0
   36.9690   27.0770   42.3930 C   0  0  0  0  0  0  0  0  0  0  0  0
   36.9350   27.3420   41.0720 C   0  0  0  0  0  0  0  0  0  0  0  0
   38.2350   29.9470   43.6380 H   0  0  0  0  0  0  0  0  0  0  0  0
   37.4530   27.7550   44.4410 H   0  0  0  0  0  0  0  0  0  0  0  0
   36.6420   26.1460   42.8750 H   0  0  0  0  0  0  0  0  0  0  0  0
   37.8000   32.8990   40.2560 C   0  0  0  0  0  0  0  0  0  0  0  0
   39.1700   33.2850   40.4300 C   0  0  0  0  0  0  0  0  0  0  0  0
   40.0860   32.3530   41.0000 C   0  0  0  0  0  0  0  0  0  0  0  0
   39.5840   31.1300   41.3520 N   0  0  0  0  0  0  0  0  0  0  0  0
   38.3130   30.8100   41.1750 C   0  0  0  0  0  0  0  0  0  0  0  0
   37.4230   31.6770   40.6340 N   0  0  0  0  0  0  0  0  0  0  0  0
   39.5670   34.2560   40.1510 H   0  0  0  0  0  0  0  0  0  0  0  0
   41.1030   32.6230   41.1370 H   0  0  0  0  0  0  0  0  0  0  0  0
   36.9430   33.8410   39.6970 N   0  0  0  0  0  0  0  0  0  0  0  0
   35.9410   33.8900   40.0480 H   0  0  0  0  0  0  0  0  0  0  0  0
   37.3120   34.4700   38.9490 H   0  0  0  0  0  0  0  0  0  0  0  0
   36.4750   26.4100   40.1880 O   0  0  0  0  0  0  0  0  0  0  0  0
   38.8300   25.9780   39.0570 O   0  0  0  0  0  0  0  0  0  0  0  0
   37.3950   25.5090   39.1040 P   0  0  2  0  0  0  0  0  0  0  0  0
   36.7060   25.6710   37.5390 O   0  0  0  0  0  0  0  0  0  0  0  0
   36.4750   26.9100   36.9670 C   0  0  0  0  0  0  0  0  0  0  0  0
   37.4460   27.3520   36.0810 C   0  0  0  0  0  3  0  0  0  0  0  0
   37.3030   28.5610   35.4690 C   0  0  0  0  0  0  0  0  0  0  0  0
   38.0460   28.9370   34.7710 H   0  0  0  0  0  0  0  0  0  0  0  0
   36.2360   29.3490   35.7000 N   0  0  0  0  0  0  0  0  0  0  0  0
   35.3020   28.8860   36.5730 C   0  0  0  0  0  3  0  0  0  0  0  0
   35.3850   27.6860   37.2200 N   0  0  0  0  0  0  0  0  0  0  0  0
   37.3600   23.8600   39.4220 O   0  0  0  0  0  0  0  0  0  0  0  0
   37.4130   23.6180   40.8130 C   0  0  0  0  0  0  0  0  0  0  0  0
   37.7270   22.2520   40.9170 F   0  0  0  0  0  0  0  0  0  0  0  0
   38.4550   24.3200   41.3820 F   0  0  0  0  0  0  0  0  0  0  0  0
   36.2700   23.9390   41.4670 F   0  0  0  0  0  0  0  0  0  0  0  0
  1  2  1  0  0  0  0
  2  7  2  0  0  0  0
  2  3  1  0  0  0  0
  3  4  2  0  0  0  0
  4  5  1  0  0  0  0
  4  8  1  0  0  0  0
  5  9  1  0  0  0  0
  6 10  1  0  0  0  0
  6  5  2  0  0  0  0
  7  6  1  0  0  0  0
 11 12  2  0  0  0  0
 11 16  1  0  0  0  0
 12 13  1  0  0  0  0
 13 18  1  0  0  0  0
 13 14  2  0  0  0  0
 15 14  1  0  0  0  0
 15  3  1  0  0  0  0
 16 15  2  0  0  0  0
 17 12  1  0  0  0  0
 19 20  1  0  0  0  0
 19 11  1  0  0  0  0
 21 19  1  0  0  0  0
 22  7  1  0  0  0  0
 24 23  2  6  0  0  0
 24 33  1  0  0  0  0
 24 22  1  0  0  0  0
 25 24  1  0  0  0  0
 26 32  1  0  0  0  0
 26 25  1  0  0  0  0
 27 26  2  0  0  0  0
 28 30  2  0  0  0  0
 28 27  1  0  0  0  0
 29 28  1  0  0  0  0
 30 31  1  0  0  0  0
 31 32  2  0  0  0  0
 33 34  1  0  0  0  0
 34 35  1  0  0  0  0
 34 36  1  0  0  0  0
 34 37  1  0  0  0  0
M  END
>  <minimizedAffinity>
-5.66877842

$$$$

 OpenBabel03252506163D

 37 39  0  0  0  0  0  0  0  0999 V2000
   39.3170   29.7780   39.1500 F   0  0  0  0  0  0  0  0  0  0  0  0
   38.8660   30.9990   39.3860 C   0  0  0  0  0  0  0  0  0  0  0  0
   37.6710   31.3700   38.8060 C   0  0  0  0  0  0  0  0  0  0  0  0
   37.0900   32.6440   38.9910 C   0  0  0  0  0  0  0  0  0  0  0  0
   37.7620   33.5660   39.8010 C   0  0  0  0  0  0  0  0  0  0  0  0
   38.9470   33.1450   40.3540 C   0  0  0  0  0  0  0  0  0  0  0  0
   39.5120   31.9320   40.1850 C   0  0  0  0  0  0  0  0  0  0  0  0
   36.1430   32.8600   38.4960 H   0  0  0  0  0  0  0  0  0  0  0  0
   37.2780   34.5260   39.9110 H   0  0  0  0  0  0  0  0  0  0  0  0
   39.3460   33.9660   40.9640 H   0  0  0  0  0  0  0  0  0  0  0  0
   36.7680   29.3600   35.8750 C   0  0  0  0  0  0  0  0  0  0  0  0
   35.5790   28.7020   36.3330 C   0  0  0  0  0  0  0  0  0  0  0  0
   35.1060   28.9650   37.6520 C   0  0  0  0  0  0  0  0  0  0  0  0
   35.8350   29.8440   38.4060 N   0  0  0  0  0  0  0  0  0  0  0  0
   36.9270   30.4320   37.9470 C   0  0  0  0  0  0  0  0  0  0  0  0
   37.3960   30.2000   36.6980 N   0  0  0  0  0  0  0  0  0  0  0  0
   35.0020   28.0050   35.7350 H   0  0  0  0  0  0  0  0  0  0  0  0
   34.2280   28.4860   38.0080 H   0  0  0  0  0  0  0  0  0  0  0  0
   37.1920   29.0720   34.5820 N   0  0  0  0  0  0  0  0  0  0  0  0
   38.2360   29.0160   34.3890 H   0  0  0  0  0  0  0  0  0  0  0  0
   36.4700   28.9190   33.8420 H   0  0  0  0  0  0  0  0  0  0  0  0
   40.6980   31.6290   40.7870 O   0  0  0  0  0  0  0  0  0  0  0  0
   41.4300   29.2860   41.7800 O   0  0  0  0  0  0  0  0  0  0  0  0
   40.9200   30.6600   42.1450 P   0  0  2  0  0  0  0  0  0  0  0  0
   39.4110   30.4950   42.9500 O   0  0  0  0  0  0  0  0  0  0  0  0
   38.6420   29.3510   42.8340 C   0  0  0  0  0  0  0  0  0  0  0  0
   37.4570   29.4950   42.1270 C   0  0  0  0  0  3  0  0  0  0  0  0
   36.6340   28.4200   41.9610 C   0  0  0  0  0  0  0  0  0  0  0  0
   35.6990   28.5000   41.4140 H   0  0  0  0  0  0  0  0  0  0  0  0
   36.9400   27.2110   42.4670 N   0  0  0  0  0  0  0  0  0  0  0  0
   38.1090   27.1040   43.1530 C   0  0  0  0  0  3  0  0  0  0  0  0
   38.9760   28.1390   43.3560 N   0  0  0  0  0  0  0  0  0  0  0  0
   41.9440   31.3480   43.2860 O   0  0  0  0  0  0  0  0  0  0  0  0
   43.0650   31.9370   42.6600 C   0  0  0  0  0  0  0  0  0  0  0  0
   42.6010   33.1880   42.2200 F   0  0  0  0  0  0  0  0  0  0  0  0
   44.0600   32.1730   43.5840 F   0  0  0  0  0  0  0  0  0  0  0  0
   43.5820   31.1920   41.6520 F   0  0  0  0  0  0  0  0  0  0  0  0
  1  2  1  0  0  0  0
  2  7  1  0  0  0  0
  3  4  1  0  0  0  0
  3  2  2  0  0  0  0
  4  5  2  0  0  0  0
  5  9  1  0  0  0  0
  5  6  1  0  0  0  0
  6 10  1  0  0  0  0
  7  6  2  0  0  0  0
  7 22  1  0  0  0  0
  8  4  1  0  0  0  0
 11 12  2  0  0  0  0
 11 16  1  0  0  0  0
 12 13  1  0  0  0  0
 13 18  1  0  0  0  0
 13 14  2  0  0  0  0
 15 14  1  0  0  0  0
 15  3  1  0  0  0  0
 16 15  2  0  0  0  0
 17 12  1  0  0  0  0
 19 11  1  0  0  0  0
 20 19  1  0  0  0  0
 21 19  1  0  0  0  0
 22 24  1  0  0  0  0
 24 23  2  6  0  0  0
 24 25  1  0  0  0  0
 24 33  1  0  0  0  0
 26 25  1  0  0  0  0
 26 32  1  0  0  0  0
 27 26  2  0  0  0  0
 28 27  1  0  0  0  0
 28 30  2  0  0  0  0
 29 28  1  0  0  0  0
 30 31  1  0  0  0  0
 31 32  2  0  0  0  0
 34 33  1  0  0  0  0
 34 36  1  0  0  0  0
 35 34  1  0  0  0  0
 37 34  1  0  0  0  0
M  END
>  <minimizedAffinity>
-5.65761185

$$$$

 OpenBabel03252506163D

 37 39  0  0  0  0  0  0  0  0999 V2000
   38.8080   31.0380   41.4870 F   0  0  0  0  0  0  0  0  0  0  0  0
   39.8630   30.3100   41.8120 C   0  0  0  0  0  0  0  0  0  0  0  0
   41.0810   30.6570   41.2670 C   0  0  0  0  0  0  0  0  0  0  0  0
   42.2750   29.9570   41.5460 C   0  0  0  0  0  0  0  0  0  0  0  0
   42.2130   28.8630   42.4160 C   0  0  0  0  0  0  0  0  0  0  0  0
   40.9750   28.5610   42.9310 C   0  0  0  0  0  0  0  0  0  0  0  0
   39.8280   29.2220   42.6720 C   0  0  0  0  0  0  0  0  0  0  0  0
   43.1980   30.2940   41.0740 H   0  0  0  0  0  0  0  0  0  0  0  0
   43.1520   28.3600   42.5980 H   0  0  0  0  0  0  0  0  0  0  0  0
   41.0880   27.6940   43.5950 H   0  0  0  0  0  0  0  0  0  0  0  0
   40.8570   32.6400   38.1900 C   0  0  0  0  0  0  0  0  0  0  0  0
   41.3910   33.8990   38.6210 C   0  0  0  0  0  0  0  0  0  0  0  0
   41.8230   34.0430   39.9720 C   0  0  0  0  0  0  0  0  0  0  0  0
   41.6940   32.9490   40.7820 N   0  0  0  0  0  0  0  0  0  0  0  0
   41.1960   31.8030   40.3470 C   0  0  0  0  0  0  0  0  0  0  0  0
   40.7800   31.6400   39.0690 N   0  0  0  0  0  0  0  0  0  0  0  0
   41.4930   34.7670   37.9780 H   0  0  0  0  0  0  0  0  0  0  0  0
   42.2200   34.9690   40.3070 H   0  0  0  0  0  0  0  0  0  0  0  0
   40.4470   32.5480   36.8650 N   0  0  0  0  0  0  0  0  0  0  0  0
   39.5890   31.9630   36.6360 H   0  0  0  0  0  0  0  0  0  0  0  0
   40.9960   33.0550   36.1360 H   0  0  0  0  0  0  0  0  0  0  0  0
   38.6550   28.8250   43.2440 O   0  0  0  0  0  0  0  0  0  0  0  0
   36.3530   27.5470   43.5150 O   0  0  0  0  0  0  0  0  0  0  0  0
   37.5890   27.6630   42.6560 P   0  0  2  0  0  0  0  0  0  0  0  0
   38.3950   26.1460   42.6340 O   0  0  0  0  0  0  0  0  0  0  0  0
   38.0160   25.1300   41.7730 C   0  0  0  0  0  0  0  0  0  0  0  0
   39.0480   24.5220   41.0740 C   0  0  0  0  0  3  0  0  0  0  0  0
   38.7700   23.5110   40.2030 C   0  0  0  0  0  0  0  0  0  0  0  0
   39.5560   23.0140   39.6390 H   0  0  0  0  0  0  0  0  0  0  0  0
   37.5120   23.0790   39.9990 N   0  0  0  0  0  0  0  0  0  0  0  0
   36.5240   23.6970   40.7000 C   0  0  0  0  0  3  0  0  0  0  0  0
   36.7340   24.7140   41.5860 N   0  0  0  0  0  0  0  0  0  0  0  0
   37.1340   27.9330   41.0610 O   0  0  0  0  0  0  0  0  0  0  0  0
   36.2820   29.0570   40.9690 C   0  0  0  0  0  0  0  0  0  0  0  0
   36.5870   29.6220   39.7190 F   0  0  0  0  0  0  0  0  0  0  0  0
   34.9640   28.6560   40.9240 F   0  0  0  0  0  0  0  0  0  0  0  0
   36.4290   29.9400   41.9860 F   0  0  0  0  0  0  0  0  0  0  0  0
  1  2  1  0  0  0  0
  2  7  1  0  0  0  0
  3  4  1  0  0  0  0
  3  2  2  0  0  0  0
  4  5  2  0  0  0  0
  5  9  1  0  0  0  0
  5  6  1  0  0  0  0
  6 10  1  0  0  0  0
  7  6  2  0  0  0  0
  7 22  1  0  0  0  0
  8  4  1  0  0  0  0
 11 12  2  0  0  0  0
 11 16  1  0  0  0  0
 12 13  1  0  0  0  0
 13 18  1  0  0  0  0
 13 14  2  0  0  0  0
 15 14  1  0  0  0  0
 15  3  1  0  0  0  0
 16 15  2  0  0  0  0
 17 12  1  0  0  0  0
 19 11  1  0  0  0  0
 20 19  1  0  0  0  0
 21 19  1  0  0  0  0
 24 22  1  0  0  0  0
 24 23  2  1  0  0  0
 25 24  1  0  0  0  0
 26 25  1  0  0  0  0
 27 26  2  0  0  0  0
 28 27  1  0  0  0  0
 29 28  1  0  0  0  0
 30 28  2  0  0  0  0
 30 31  1  0  0  0  0
 31 32  2  0  0  0  0
 32 26  1  0  0  0  0
 33 24  1  0  0  0  0
 34 33  1  0  0  0  0
 34 37  1  0  0  0  0
 35 34  1  0  0  0  0
 36 34  1  0  0  0  0
M  END
>  <minimizedAffinity>
-5.59081793

$$$$

 OpenBabel03252506163D

 37 39  0  0  0  0  0  0  0  0999 V2000
   39.7150   31.0160   37.8090 F   0  0  0  0  0  0  0  0  0  0  0  0
   39.1510   31.9750   38.5240 C   0  0  0  0  0  0  0  0  0  0  0  0
   39.9780   32.8670   39.1750 C   0  0  0  0  0  0  0  0  0  0  0  0
   39.4890   33.9330   39.9610 C   0  0  0  0  0  0  0  0  0  0  0  0
   38.1040   34.0860   40.0830 C   0  0  0  0  0  0  0  0  0  0  0  0
   37.3270   33.1710   39.4140 C   0  0  0  0  0  0  0  0  0  0  0  0
   37.7810   32.1490   38.6600 C   0  0  0  0  0  0  0  0  0  0  0  0
   40.2090   34.5950   40.4440 H   0  0  0  0  0  0  0  0  0  0  0  0
   37.7800   34.9160   40.6940 H   0  0  0  0  0  0  0  0  0  0  0  0
   36.2740   33.4240   39.5950 H   0  0  0  0  0  0  0  0  0  0  0  0
   43.3990   33.3690   37.9550 C   0  0  0  0  0  0  0  0  0  0  0  0
   44.1500   32.5490   38.8600 C   0  0  0  0  0  0  0  0  0  0  0  0
   43.4590   31.8310   39.8810 C   0  0  0  0  0  0  0  0  0  0  0  0
   42.1000   31.9800   39.9290 N   0  0  0  0  0  0  0  0  0  0  0  0
   41.4430   32.7470   39.0750 C   0  0  0  0  0  0  0  0  0  0  0  0
   42.0750   33.4370   38.0960 N   0  0  0  0  0  0  0  0  0  0  0  0
   45.2280   32.4320   38.8220 H   0  0  0  0  0  0  0  0  0  0  0  0
   43.9990   31.2200   40.5600 H   0  0  0  0  0  0  0  0  0  0  0  0
   44.1160   34.0510   36.9780 N   0  0  0  0  0  0  0  0  0  0  0  0
   43.7970   35.0260   36.6980 H   0  0  0  0  0  0  0  0  0  0  0  0
   44.9460   33.5830   36.5490 H   0  0  0  0  0  0  0  0  0  0  0  0
   36.9090   31.3000   38.0440 O   0  0  0  0  0  0  0  0  0  0  0  0
   35.1670   29.3160   37.8510 O   0  0  0  0  0  0  0  0  0  0  0  0
   36.3610   29.8200   38.6270 P   0  0  2  0  0  0  0  0  0  0  0  0
   35.9110   30.0150   40.2730 O   0  0  0  0  0  0  0  0  0  0  0  0
   36.6020   29.3940   41.2980 C   0  0  0  0  0  0  0  0  0  0  0  0
   37.6900   30.0950   41.7970 C   0  0  0  0  0  3  0  0  0  0  0  0
   38.4320   29.5610   42.8090 C   0  0  0  0  0  0  0  0  0  0  0  0
   39.2910   30.0840   43.2210 H   0  0  0  0  0  0  0  0  0  0  0  0
   38.1370   28.3620   43.3450 N   0  0  0  0  0  0  0  0  0  0  0  0
   37.0640   27.7020   42.8330 C   0  0  0  0  0  3  0  0  0  0  0  0
   36.2810   28.1790   41.8210 N   0  0  0  0  0  0  0  0  0  0  0  0
   37.5520   28.6360   38.6430 O   0  0  0  0  0  0  0  0  0  0  0  0
   37.8670   28.2250   37.3290 C   0  0  0  0  0  0  0  0  0  0  0  0
   39.1610   27.6890   37.4310 F   0  0  0  0  0  0  0  0  0  0  0  0
   37.0320   27.2010   36.9350 F   0  0  0  0  0  0  0  0  0  0  0  0
   37.7890   29.2200   36.4120 F   0  0  0  0  0  0  0  0  0  0  0  0
  1  2  1  0  0  0  0
  2  7  2  0  0  0  0
  2  3  1  0  0  0  0
  3  4  2  0  0  0  0
  4  5  1  0  0  0  0
  4  8  1  0  0  0  0
  5  9  1  0  0  0  0
  6 10  1  0  0  0  0
  6  5  2  0  0  0  0
  7  6  1  0  0  0  0
 11 16  2  0  0  0  0
 11 12  1  0  0  0  0
 12 13  2  0  0  0  0
 13 14  1  0  0  0  0
 13 18  1  0  0  0  0
 15  3  1  0  0  0  0
 15 14  2  0  0  0  0
 16 15  1  0  0  0  0
 17 12  1  0  0  0  0
 19 11  1  0  0  0  0
 20 19  1  0  0  0  0
 21 19  1  0  0  0  0
 22 24  1  0  0  0  0
 22  7  1  0  0  0  0
 24 23  2  6  0  0  0
 24 33  1  0  0  0  0
 24 25  1  0  0  0  0
 25 26  1  0  0  0  0
 26 27  2  0  0  0  0
 26 32  1  0  0  0  0
 27 28  1  0  0  0  0
 28 29  1  0  0  0  0
 28 30  2  0  0  0  0
 31 30  1  0  0  0  0
 32 31  2  0  0  0  0
 34 35  1  0  0  0  0
 34 33  1  0  0  0  0
 36 34  1  0  0  0  0
 37 34  1  0  0  0  0
M  END
>  <minimizedAffinity>
-5.50223351

$$$$

 OpenBabel03252506163D

 37 39  0  0  0  0  0  0  0  0999 V2000
   37.8630   28.4540   39.6460 F   0  0  0  0  0  0  0  0  0  0  0  0
   37.6130   28.2030   40.9200 C   0  0  0  0  0  0  0  0  0  0  0  0
   37.8370   29.2110   41.8340 C   0  0  0  0  0  0  0  0  0  0  0  0
   37.6020   29.0590   43.2180 C   0  0  0  0  0  0  0  0  0  0  0  0
   37.1200   27.8290   43.6770 C   0  0  0  0  0  0  0  0  0  0  0  0
   36.9140   26.8600   42.7240 C   0  0  0  0  0  0  0  0  0  0  0  0
   37.1350   26.9920   41.4010 C   0  0  0  0  0  0  0  0  0  0  0  0
   37.8050   29.9050   43.8760 H   0  0  0  0  0  0  0  0  0  0  0  0
   36.9560   27.7620   44.7420 H   0  0  0  0  0  0  0  0  0  0  0  0
   36.5310   25.9640   43.2310 H   0  0  0  0  0  0  0  0  0  0  0  0
   37.8600   32.6020   40.4390 C   0  0  0  0  0  0  0  0  0  0  0  0
   39.2400   32.9610   40.5790 C   0  0  0  0  0  0  0  0  0  0  0  0
   40.1460   32.0220   41.1550 C   0  0  0  0  0  0  0  0  0  0  0  0
   39.6240   30.8190   41.5440 N   0  0  0  0  0  0  0  0  0  0  0  0
   38.3420   30.5240   41.3970 C   0  0  0  0  0  0  0  0  0  0  0  0
   37.4630   31.3980   40.8520 N   0  0  0  0  0  0  0  0  0  0  0  0
   39.6540   33.9160   40.2710 H   0  0  0  0  0  0  0  0  0  0  0  0
   41.1710   32.2720   41.2670 H   0  0  0  0  0  0  0  0  0  0  0  0
   37.0140   33.5510   39.8730 N   0  0  0  0  0  0  0  0  0  0  0  0
   36.0200   33.6310   40.2410 H   0  0  0  0  0  0  0  0  0  0  0  0
   37.3840   34.1540   39.1050 H   0  0  0  0  0  0  0  0  0  0  0  0
   36.8940   25.9530   40.5500 O   0  0  0  0  0  0  0  0  0  0  0  0
   38.5150   24.0410   41.4000 O   0  0  0  0  0  0  0  0  0  0  0  0
   37.9490   24.7000   40.1650 P   0  0  2  0  0  0  0  0  0  0  0  0
   39.2440   25.3430   39.2370 O   0  0  0  0  0  0  0  0  0  0  0  0
   40.4950   25.5670   39.7840 C   0  0  0  0  0  0  0  0  0  0  0  0
   41.5070   24.7380   39.3220 C   0  0  0  0  0  3  0  0  0  0  0  0
   42.7730   24.8850   39.8050 C   0  0  0  0  0  0  0  0  0  0  0  0
   43.5880   24.2510   39.4650 H   0  0  0  0  0  0  0  0  0  0  0  0
   43.0760   25.8190   40.7250 N   0  0  0  0  0  0  0  0  0  0  0  0
   42.0600   26.6150   41.1560 C   0  0  0  0  0  3  0  0  0  0  0  0
   40.7720   26.5200   40.7150 N   0  0  0  0  0  0  0  0  0  0  0  0
   37.2530   23.5300   39.1810 O   0  0  0  0  0  0  0  0  0  0  0  0
   35.8540   23.4810   39.3760 C   0  0  0  0  0  0  0  0  0  0  0  0
   35.6900   23.6410   40.7620 F   0  0  0  0  0  0  0  0  0  0  0  0
   35.2480   24.5600   38.7670 F   0  0  0  0  0  0  0  0  0  0  0  0
   35.2770   22.3460   38.9130 F   0  0  0  0  0  0  0  0  0  0  0  0
  1  2  1  0  0  0  0
  2  7  2  0  0  0  0
  2  3  1  0  0  0  0
  3  4  2  0  0  0  0
  4  5  1  0  0  0  0
  4  8  1  0  0  0  0
  5  9  1  0  0  0  0
  6 10  1  0  0  0  0
  6  5  2  0  0  0  0
  7  6  1  0  0  0  0
 11 12  2  0  0  0  0
 11 16  1  0  0  0  0
 12 13  1  0  0  0  0
 13 18  1  0  0  0  0
 13 14  2  0  0  0  0
 15 14  1  0  0  0  0
 15  3  1  0  0  0  0
 16 15  2  0  0  0  0
 17 12  1  0  0  0  0
 19 20  1  0  0  0  0
 19 11  1  0  0  0  0
 21 19  1  0  0  0  0
 22  7  1  0  0  0  0
 24 22  1  0  0  0  0
 24 23  2  1  0  0  0
 25 26  1  0  0  0  0
 25 24  1  0  0  0  0
 26 32  1  0  0  0  0
 27 26  2  0  0  0  0
 27 28  1  0  0  0  0
 28 30  2  0  0  0  0
 29 28  1  0  0  0  0
 30 31  1  0  0  0  0
 32 31  2  0  0  0  0
 33 34  1  0  0  0  0
 33 24  1  0  0  0  0
 34 35  1  0  0  0  0
 36 34  1  0  0  0  0
 37 34  1  0  0  0  0
M  END
>  <minimizedAffinity>
-5.47597504

$$$$
