
 OpenBabel03252509073D

 39 42  0  0  0  0  0  0  0  0999 V2000
   47.6070   31.7940   38.9120 C   0  0  0  0  0  0  0  0  0  0  0  0
   47.1760   33.0890   38.9380 C   0  0  0  0  0  0  0  0  0  0  0  0
   47.8230   34.0470   38.1750 C   0  0  0  0  0  0  0  0  0  0  0  0
   48.8980   33.6990   37.3920 C   0  0  0  0  0  0  0  0  0  0  0  0
   49.3700   32.3890   37.3350 C   0  0  0  0  0  0  0  0  0  0  0  0
   48.6990   31.4390   38.1160 C   0  0  0  0  0  0  0  0  0  0  0  0
   47.5160   35.0800   38.1670 H   0  0  0  0  0  0  0  0  0  0  0  0
   49.4750   34.3560   36.7620 H   0  0  0  0  0  0  0  0  0  0  0  0
   50.1900   32.0420   36.7580 H   0  0  0  0  0  0  0  0  0  0  0  0
   49.0390   30.4000   38.1000 H   0  0  0  0  0  0  0  0  0  0  0  0
   45.3900   35.3580   43.2170 Cl  0  0  0  0  0  0  0  0  0  0  0  0
   45.2110   34.5900   41.6590 C   0  0  0  0  0  0  0  0  0  0  0  0
   46.2930   34.1770   40.9510 C   0  0  0  0  0  0  0  0  0  0  0  0
   46.0440   33.5640   39.7300 C   0  0  0  0  0  0  0  0  0  0  0  0
   44.7690   33.3810   39.2530 C   0  0  0  0  0  0  0  0  0  0  0  0
   43.7010   33.8010   39.9760 C   0  0  0  0  0  0  0  0  0  0  0  0
   43.9330   34.4080   41.1860 C   0  0  0  0  0  0  0  0  0  0  0  0
   44.6120   32.8970   38.2910 H   0  0  0  0  0  0  0  0  0  0  0  0
   42.7120   33.6400   39.5680 H   0  0  0  0  0  0  0  0  0  0  0  0
   43.0440   34.7300   41.7350 H   0  0  0  0  0  0  0  0  0  0  0  0
   49.5830   35.7550   41.9150 C   0  0  0  0  0  0  0  0  0  0  0  0
   48.3010   35.5710   41.3790 C   0  0  0  0  0  0  0  0  0  0  0  0
   47.6190   34.3800   41.5010 C   0  0  0  0  0  0  0  0  0  0  0  0
   48.2890   33.4100   42.1780 N   0  0  0  0  0  0  0  0  0  0  0  0
   49.5080   33.5770   42.6920 C   0  0  0  0  0  0  0  0  0  0  0  0
   50.1450   34.7410   42.5580 N   0  0  0  0  0  0  0  0  0  0  0  0
   50.0030   36.7310   41.7500 H   0  0  0  0  0  0  0  0  0  0  0  0
   47.8030   36.3670   40.8470 H   0  0  0  0  0  0  0  0  0  0  0  0
   49.9780   32.7590   43.2190 H   0  0  0  0  0  0  0  0  0  0  0  0
   46.8210   30.5950   39.7900 S   0  0  0  0  0  0  0  0  0  0  0  0
   45.4380   30.3150   39.2370 O   0  0  0  0  0  0  0  0  0  0  0  0
   47.6040   29.2820   39.4340 O   0  0  0  0  0  0  0  0  0  0  0  0
   46.6130   30.5680   41.4910 C   0  0  0  0  0  0  0  0  0  0  0  0
   45.3250   30.8860   42.0060 C   0  0  0  0  0  3  0  0  0  0  0  0
   44.8550   30.9450   43.3250 C   0  0  0  0  0  0  0  0  0  0  0  0
   43.8360   31.2060   43.5410 H   0  0  0  0  0  0  0  0  0  0  0  0
   45.8220   30.6420   44.2030 N   0  0  0  0  0  0  0  0  0  0  0  0
   47.0650   30.3290   43.8200 C   0  0  0  0  0  3  0  0  0  0  0  0
   47.4050   30.3040   42.5420 N   0  0  0  0  0  0  0  0  0  0  0  0
  1  2  1  0  0  0  0
  1 30  1  0  0  0  0
  2 14  1  0  0  0  0
  3  2  2  0  0  0  0
  4  3  1  0  0  0  0
  5  4  2  0  0  0  0
  5  6  1  0  0  0  0
  6  1  2  0  0  0  0
  7  3  1  0  0  0  0
  8  4  1  0  0  0  0
  9  5  1  0  0  0  0
 10  6  1  0  0  0  0
 12 11  1  0  0  0  0
 13 23  1  0  0  0  0
 13 12  2  0  0  0  0
 14 13  1  0  0  0  0
 15 14  2  0  0  0  0
 15 16  1  0  0  0  0
 16 17  2  0  0  0  0
 17 12  1  0  0  0  0
 17 20  1  0  0  0  0
 18 15  1  0  0  0  0
 19 16  1  0  0  0  0
 21 26  1  0  0  0  0
 22 23  1  0  0  0  0
 22 21  2  0  0  0  0
 23 24  2  0  0  0  0
 24 25  1  0  0  0  0
 25 29  1  0  0  0  0
 26 25  2  0  0  0  0
 27 21  1  0  0  0  0
 28 22  1  0  0  0  0
 30 33  1  0  0  0  0
 31 30  2  0  0  0  0
 32 30  2  0  0  0  0
 33 34  2  0  0  0  0
 33 39  1  0  0  0  0
 34 35  1  0  0  0  0
 35 36  1  0  0  0  0
 35 37  2  0  0  0  0
 38 37  1  0  0  0  0
 39 38  2  0  0  0  0
M  END
>  <minimizedAffinity>
-4.74553871

>  <minimizedRMSD>
1.16661584

$$$$
