
 OpenBabel03252509083D

 39 42  0  0  0  0  0  0  0  0999 V2000
   46.9820   31.6520   39.4340 C   0  0  0  0  0  0  0  0  0  0  0  0
   46.6470   32.9580   39.2260 C   0  0  0  0  0  0  0  0  0  0  0  0
   47.3210   33.6990   38.2690 C   0  0  0  0  0  0  0  0  0  0  0  0
   48.3250   33.1230   37.5270 C   0  0  0  0  0  0  0  0  0  0  0  0
   48.6980   31.7920   37.7080 C   0  0  0  0  0  0  0  0  0  0  0  0
   48.0010   31.0650   38.6820 C   0  0  0  0  0  0  0  0  0  0  0  0
   47.0890   34.7330   38.0720 H   0  0  0  0  0  0  0  0  0  0  0  0
   48.9140   33.5990   36.7610 H   0  0  0  0  0  0  0  0  0  0  0  0
   49.4590   31.2760   37.1780 H   0  0  0  0  0  0  0  0  0  0  0  0
   48.2640   30.0180   38.8540 H   0  0  0  0  0  0  0  0  0  0  0  0
   45.2030   35.8470   43.2530 Cl  0  0  0  0  0  0  0  0  0  0  0  0
   44.9180   34.9750   41.7680 C   0  0  0  0  0  0  0  0  0  0  0  0
   45.9290   34.3450   41.1180 C   0  0  0  0  0  0  0  0  0  0  0  0
   45.5950   33.6650   39.9540 C   0  0  0  0  0  0  0  0  0  0  0  0
   44.3090   33.6290   39.4740 C   0  0  0  0  0  0  0  0  0  0  0  0
   43.3120   34.2650   40.1390 C   0  0  0  0  0  0  0  0  0  0  0  0
   43.6270   34.9400   41.2930 C   0  0  0  0  0  0  0  0  0  0  0  0
   44.0850   33.0870   38.5570 H   0  0  0  0  0  0  0  0  0  0  0  0
   42.3120   34.2140   39.7300 H   0  0  0  0  0  0  0  0  0  0  0  0
   42.7950   35.4380   41.7950 H   0  0  0  0  0  0  0  0  0  0  0  0
   49.4600   35.4340   41.8820 C   0  0  0  0  0  0  0  0  0  0  0  0
   48.1670   35.3920   41.3430 C   0  0  0  0  0  0  0  0  0  0  0  0
   47.2680   34.4000   41.6690 C   0  0  0  0  0  0  0  0  0  0  0  0
   47.7380   33.4770   42.5490 N   0  0  0  0  0  0  0  0  0  0  0  0
   48.9670   33.5100   43.0680 C   0  0  0  0  0  0  0  0  0  0  0  0
   49.8160   34.4830   42.7340 N   0  0  0  0  0  0  0  0  0  0  0  0
   50.0600   36.2610   41.5450 H   0  0  0  0  0  0  0  0  0  0  0  0
   47.8320   36.1440   40.6450 H   0  0  0  0  0  0  0  0  0  0  0  0
   49.2700   32.7400   43.7630 H   0  0  0  0  0  0  0  0  0  0  0  0
   46.1580   30.7080   40.5570 S   0  0  0  0  0  0  0  0  0  0  0  0
   46.3310   29.2290   40.2750 O   0  0  0  0  0  0  0  0  0  0  0  0
   46.9680   30.9000   41.8870 O   0  0  0  0  0  0  0  0  0  0  0  0
   44.5070   30.8690   40.9870 C   0  0  0  0  0  0  0  0  0  0  0  0
   43.5310   30.4600   40.0340 C   0  0  0  0  0  3  0  0  0  0  0  0
   42.1320   30.4680   40.0960 C   0  0  0  0  0  0  0  0  0  0  0  0
   41.5370   30.1180   39.2740 H   0  0  0  0  0  0  0  0  0  0  0  0
   41.6960   30.9500   41.2700 N   0  0  0  0  0  0  0  0  0  0  0  0
   42.5320   31.3600   42.2310 C   0  0  0  0  0  3  0  0  0  0  0  0
   43.8460   31.3100   42.0670 N   0  0  0  0  0  0  0  0  0  0  0  0
  1 30  1  0  0  0  0
  2  1  1  0  0  0  0
  2 14  1  0  0  0  0
  3  2  2  0  0  0  0
  4  5  2  0  0  0  0
  4  3  1  0  0  0  0
  5  6  1  0  0  0  0
  6 10  1  0  0  0  0
  6  1  2  0  0  0  0
  7  3  1  0  0  0  0
  8  4  1  0  0  0  0
  9  5  1  0  0  0  0
 12 11  1  0  0  0  0
 13 23  1  0  0  0  0
 13 12  2  0  0  0  0
 14 13  1  0  0  0  0
 15 14  2  0  0  0  0
 15 16  1  0  0  0  0
 16 17  2  0  0  0  0
 17 12  1  0  0  0  0
 17 20  1  0  0  0  0
 18 15  1  0  0  0  0
 19 16  1  0  0  0  0
 21 26  1  0  0  0  0
 22 23  1  0  0  0  0
 22 21  2  0  0  0  0
 23 24  2  0  0  0  0
 24 25  1  0  0  0  0
 25 29  1  0  0  0  0
 26 25  2  0  0  0  0
 27 21  1  0  0  0  0
 28 22  1  0  0  0  0
 30 33  1  0  0  0  0
 30 32  2  0  0  0  0
 31 30  2  0  0  0  0
 33 39  1  0  0  0  0
 34 35  1  0  0  0  0
 34 33  2  0  0  0  0
 35 37  2  0  0  0  0
 36 35  1  0  0  0  0
 37 38  1  0  0  0  0
 39 38  2  0  0  0  0
M  END
>  <minimizedAffinity>
-4.74499989

>  <minimizedRMSD>
1.11722541

$$$$
