
 OpenBabel03252509193D

 36 38  0  0  1  0  0  0  0  0999 V2000
   47.6760   29.3980   47.7830 C   0  0  1  0  0  0  0  0  0  0  0  0
   47.6540   28.4020   46.6630 C   0  0  0  0  0  0  0  0  0  0  0  0
   48.9490   27.6860   46.4290 C   0  0  0  0  0  0  0  0  0  0  0  0
   49.6170   27.2530   47.7200 C   0  0  0  0  0  0  0  0  0  0  0  0
   49.6150   28.3410   48.7740 C   0  0  0  0  0  0  0  0  0  0  0  0
   49.1540   29.6520   48.1290 C   0  0  2  0  0  0  0  0  0  0  0  0
   47.2270   28.9470   48.6690 H   0  0  0  0  0  0  0  0  0  0  0  0
   47.3850   28.9300   45.7150 H   0  0  0  0  0  0  0  0  0  0  0  0
   46.8600   27.6580   46.8490 H   0  0  0  0  0  0  0  0  0  0  0  0
   48.7640   26.7840   45.8310 H   0  0  0  0  0  0  0  0  0  0  0  0
   49.6330   28.3370   45.8310 H   0  0  0  0  0  0  0  0  0  0  0  0
   50.6620   27.0250   47.4790 H   0  0  0  0  0  0  0  0  0  0  0  0
   49.1460   26.3400   48.1060 H   0  0  0  0  0  0  0  0  0  0  0  0
   50.6100   28.4980   49.2290 H   0  0  0  0  0  0  0  0  0  0  0  0
   48.8980   28.1110   49.5790 H   0  0  0  0  0  0  0  0  0  0  0  0
   49.7470   29.9110   47.2430 H   0  0  0  0  0  0  0  0  0  0  0  0
   46.0180   32.8120   46.2290 C   0  0  0  0  0  0  0  0  0  0  0  0
   45.5620   32.5250   47.5120 C   0  0  0  0  0  0  0  0  0  0  0  0
   46.0370   31.4330   48.1170 C   0  0  0  0  0  0  0  0  0  0  0  0
   46.9640   30.6070   47.4760 C   0  0  0  0  0  0  0  0  0  0  0  0
   47.1800   31.4450   45.8880 S   0  0  0  0  0  0  0  0  0  0  0  0
   44.8460   33.1770   47.9940 H   0  0  0  0  0  0  0  0  0  0  0  0
   45.7910   31.0690   49.1010 H   0  0  0  0  0  0  0  0  0  0  0  0
   44.4670   35.9300   44.9130 C   0  0  0  0  0  0  0  0  0  0  0  0
   45.0510   35.9800   43.6280 C   0  0  0  0  0  0  0  0  0  0  0  0
   45.9510   34.9400   43.2730 C   0  0  0  0  0  0  0  0  0  0  0  0
   46.1860   33.9710   44.1950 N   0  0  0  0  0  0  0  0  0  0  0  0
   45.6040   33.9690   45.4040 C   0  0  0  0  0  0  0  0  0  0  0  0
   44.7390   34.9500   45.7730 N   0  0  0  0  0  0  0  0  0  0  0  0
   43.7870   36.7110   45.1870 H   0  0  0  0  0  0  0  0  0  0  0  0
   44.8530   36.7600   42.9050 H   0  0  0  0  0  0  0  0  0  0  0  0
   46.4440   34.8970   42.3140 H   0  0  0  0  0  0  0  0  0  0  0  0
   49.1920   30.7040   49.1930 C   0  0  0  0  0  0  0  0  0  0  0  0
   49.1140   30.4670   50.4090 O   0  0  0  0  0  0  0  0  0  0  0  0
   49.3210   32.0600   48.9090 O   0  0  0  0  0  0  0  0  0  0  0  0
   48.5850   32.5600   48.3860 H   0  0  0  0  0  0  0  0  0  0  0  0
  1  6  1  0  0  0  0
  1  7  1  1  0  0  0
  2  9  1  0  0  0  0
  2  1  1  0  0  0  0
  3  2  1  0  0  0  0
  3  4  1  0  0  0  0
  4 13  1  0  0  0  0
  4  5  1  0  0  0  0
  5 14  1  0  0  0  0
  5 15  1  0  0  0  0
  6 16  1  6  0  0  0
  6  5  1  0  0  0  0
  6 33  1  0  0  0  0
  8  2  1  0  0  0  0
 10  3  1  0  0  0  0
 11  3  1  0  0  0  0
 12  4  1  0  0  0  0
 17 18  2  0  0  0  0
 18 22  1  0  0  0  0
 18 19  1  0  0  0  0
 19 23  1  0  0  0  0
 20  1  1  0  0  0  0
 20 19  2  0  0  0  0
 21 17  1  0  0  0  0
 21 20  1  0  0  0  0
 24 30  1  0  0  0  0
 24 29  1  0  0  0  0
 25 24  2  0  0  0  0
 26 25  1  0  0  0  0
 26 27  2  0  0  0  0
 27 28  1  0  0  0  0
 28 29  2  0  0  0  0
 28 17  1  0  0  0  0
 31 25  1  0  0  0  0
 32 26  1  0  0  0  0
 33 34  2  0  0  0  0
 35 33  1  0  0  0  0
 36 35  1  0  0  0  0
M  END
>  <minimizedAffinity>
-4.77988815

>  <minimizedRMSD>
0.690016985

$$$$
