
 OpenBabel03252509193D

 36 38  0  0  1  0  0  0  0  0999 V2000
   37.1210   31.4620   38.6800 C   0  0  1  0  0  0  0  0  0  0  0  0
   37.3420   31.1550   37.2300 C   0  0  0  0  0  0  0  0  0  0  0  0
   36.9860   29.7590   36.8200 C   0  0  0  0  0  0  0  0  0  0  0  0
   35.6810   29.2850   37.4310 C   0  0  0  0  0  0  0  0  0  0  0  0
   35.5720   29.6160   38.9060 C   0  0  0  0  0  0  0  0  0  0  0  0
   36.9320   30.1150   39.4020 C   0  0  2  0  0  0  0  0  0  0  0  0
   36.1800   32.0030   38.7910 H   0  0  0  0  0  0  0  0  0  0  0  0
   38.4210   31.3120   36.9870 H   0  0  0  0  0  0  0  0  0  0  0  0
   36.7680   31.8690   36.6130 H   0  0  0  0  0  0  0  0  0  0  0  0
   36.8770   29.7160   35.7280 H   0  0  0  0  0  0  0  0  0  0  0  0
   37.8210   29.0650   37.0880 H   0  0  0  0  0  0  0  0  0  0  0  0
   35.6580   28.1940   37.3320 H   0  0  0  0  0  0  0  0  0  0  0  0
   34.8280   29.6990   36.8780 H   0  0  0  0  0  0  0  0  0  0  0  0
   35.2660   28.7480   39.5170 H   0  0  0  0  0  0  0  0  0  0  0  0
   34.8510   30.4320   39.0760 H   0  0  0  0  0  0  0  0  0  0  0  0
   37.7420   29.4100   39.1770 H   0  0  0  0  0  0  0  0  0  0  0  0
   40.5920   33.1780   40.0310 C   0  0  0  0  0  0  0  0  0  0  0  0
   39.4590   33.9110   40.3720 C   0  0  0  0  0  0  0  0  0  0  0  0
   38.2700   33.4430   39.9820 C   0  0  0  0  0  0  0  0  0  0  0  0
   38.1720   32.2540   39.2550 C   0  0  0  0  0  0  0  0  0  0  0  0
   39.9060   31.7580   39.1120 S   0  0  0  0  0  0  0  0  0  0  0  0
   39.5530   34.8280   40.9360 H   0  0  0  0  0  0  0  0  0  0  0  0
   37.3020   33.8830   40.1600 H   0  0  0  0  0  0  0  0  0  0  0  0
   43.7470   34.1580   41.7470 C   0  0  0  0  0  0  0  0  0  0  0  0
   44.6400   34.1600   40.6520 C   0  0  0  0  0  0  0  0  0  0  0  0
   44.1170   33.8250   39.3760 C   0  0  0  0  0  0  0  0  0  0  0  0
   42.7940   33.5260   39.2980 N   0  0  0  0  0  0  0  0  0  0  0  0
   41.9880   33.5390   40.3700 C   0  0  0  0  0  0  0  0  0  0  0  0
   42.4590   33.8550   41.6040 N   0  0  0  0  0  0  0  0  0  0  0  0
   44.1350   34.4100   42.7130 H   0  0  0  0  0  0  0  0  0  0  0  0
   45.6930   34.4010   40.7320 H   0  0  0  0  0  0  0  0  0  0  0  0
   44.7250   33.8010   38.4840 H   0  0  0  0  0  0  0  0  0  0  0  0
   36.7900   30.4040   40.8640 C   0  0  0  0  0  0  0  0  0  0  0  0
   37.5960   30.0270   41.7280 O   0  0  0  0  0  0  0  0  0  0  0  0
   35.7270   31.1310   41.3880 O   0  0  0  0  0  0  0  0  0  0  0  0
   35.8960   31.9130   42.0410 H   0  0  0  0  0  0  0  0  0  0  0  0
  1  7  1  1  0  0  0
  1 20  1  0  0  0  0
  1  6  1  0  0  0  0
  2  1  1  0  0  0  0
  3 11  1  0  0  0  0
  3  2  1  0  0  0  0
  3  4  1  0  0  0  0
  4  5  1  0  0  0  0
  5 15  1  0  0  0  0
  5  6  1  0  0  0  0
  5 14  1  0  0  0  0
  6 16  1  6  0  0  0
  6 33  1  0  0  0  0
  8  2  1  0  0  0  0
  9  2  1  0  0  0  0
 10  3  1  0  0  0  0
 12  4  1  0  0  0  0
 13  4  1  0  0  0  0
 17 28  1  0  0  0  0
 17 18  2  0  0  0  0
 18 22  1  0  0  0  0
 19 23  1  0  0  0  0
 19 18  1  0  0  0  0
 20 19  2  0  0  0  0
 21 20  1  0  0  0  0
 21 17  1  0  0  0  0
 24 30  1  0  0  0  0
 25 31  1  0  0  0  0
 25 24  2  0  0  0  0
 26 25  1  0  0  0  0
 27 26  2  0  0  0  0
 27 28  1  0  0  0  0
 28 29  2  0  0  0  0
 29 24  1  0  0  0  0
 32 26  1  0  0  0  0
 33 35  1  0  0  0  0
 33 34  2  0  0  0  0
 35 36  1  0  0  0  0
M  END
>  <minimizedAffinity>
-5.44059181

$$$$

 OpenBabel03252509193D

 36 38  0  0  1  0  0  0  0  0999 V2000
   36.6060   27.0790   40.7420 C   0  0  1  0  0  0  0  0  0  0  0  0
   36.8040   26.3070   39.4720 C   0  0  0  0  0  0  0  0  0  0  0  0
   37.4420   24.9640   39.6440 C   0  0  0  0  0  0  0  0  0  0  0  0
   36.8860   24.2010   40.8310 C   0  0  0  0  0  0  0  0  0  0  0  0
   36.7560   25.0630   42.0710 C   0  0  0  0  0  0  0  0  0  0  0  0
   37.4650   26.3970   41.8220 C   0  0  2  0  0  0  0  0  0  0  0  0
   35.5680   26.9740   41.0640 H   0  0  0  0  0  0  0  0  0  0  0  0
   37.4530   26.9030   38.7840 H   0  0  0  0  0  0  0  0  0  0  0  0
   35.8320   26.1820   38.9640 H   0  0  0  0  0  0  0  0  0  0  0  0
   37.2640   24.3580   38.7460 H   0  0  0  0  0  0  0  0  0  0  0  0
   38.5500   25.0840   39.7370 H   0  0  0  0  0  0  0  0  0  0  0  0
   37.5980   23.3980   41.0570 H   0  0  0  0  0  0  0  0  0  0  0  0
   35.9220   23.7450   40.5750 H   0  0  0  0  0  0  0  0  0  0  0  0
   37.1930   24.5890   42.9690 H   0  0  0  0  0  0  0  0  0  0  0  0
   35.7000   25.2960   42.2810 H   0  0  0  0  0  0  0  0  0  0  0  0
   38.5040   26.2630   41.4970 H   0  0  0  0  0  0  0  0  0  0  0  0
   38.1700   30.8310   40.1990 C   0  0  0  0  0  0  0  0  0  0  0  0
   36.8100   30.8500   40.4940 C   0  0  0  0  0  0  0  0  0  0  0  0
   36.1950   29.6810   40.6910 C   0  0  0  0  0  0  0  0  0  0  0  0
   36.9000   28.4780   40.6030 C   0  0  0  0  0  0  0  0  0  0  0  0
   38.5700   29.0500   40.2090 S   0  0  0  0  0  0  0  0  0  0  0  0
   36.2810   31.7910   40.5590 H   0  0  0  0  0  0  0  0  0  0  0  0
   35.1560   29.5190   40.9250 H   0  0  0  0  0  0  0  0  0  0  0  0
   39.8370   34.1580   40.3060 C   0  0  0  0  0  0  0  0  0  0  0  0
   40.7170   34.0360   39.2080 C   0  0  0  0  0  0  0  0  0  0  0  0
   40.6970   32.8160   38.4820 C   0  0  0  0  0  0  0  0  0  0  0  0
   39.8330   31.8530   38.8950 N   0  0  0  0  0  0  0  0  0  0  0  0
   39.0150   32.0200   39.9460 C   0  0  0  0  0  0  0  0  0  0  0  0
   39.0110   33.1760   40.6600 N   0  0  0  0  0  0  0  0  0  0  0  0
   39.8460   35.0760   40.8590 H   0  0  0  0  0  0  0  0  0  0  0  0
   41.4000   34.8140   38.8920 H   0  0  0  0  0  0  0  0  0  0  0  0
   41.3350   32.6340   37.6300 H   0  0  0  0  0  0  0  0  0  0  0  0
   37.3380   27.2060   43.0750 C   0  0  0  0  0  0  0  0  0  0  0  0
   38.2980   27.7070   43.6800 O   0  0  0  0  0  0  0  0  0  0  0  0
   36.1140   27.4710   43.6790 O   0  0  0  0  0  0  0  0  0  0  0  0
   35.8600   28.4330   43.9550 H   0  0  0  0  0  0  0  0  0  0  0  0
  1  7  1  1  0  0  0
  1  6  1  0  0  0  0
  2  3  1  0  0  0  0
  2  1  1  0  0  0  0
  3 11  1  0  0  0  0
  3  4  1  0  0  0  0
  4 12  1  0  0  0  0
  4  5  1  0  0  0  0
  5 15  1  0  0  0  0
  5 14  1  0  0  0  0
  6 16  1  6  0  0  0
  6  5  1  0  0  0  0
  6 33  1  0  0  0  0
  8  2  1  0  0  0  0
  9  2  1  0  0  0  0
 10  3  1  0  0  0  0
 13  4  1  0  0  0  0
 17 21  1  0  0  0  0
 17 18  2  0  0  0  0
 18 22  1  0  0  0  0
 18 19  1  0  0  0  0
 19 23  1  0  0  0  0
 20 19  2  0  0  0  0
 20  1  1  0  0  0  0
 21 20  1  0  0  0  0
 24 29  1  0  0  0  0
 24 30  1  0  0  0  0
 25 24  2  0  0  0  0
 26 27  2  0  0  0  0
 26 25  1  0  0  0  0
 27 28  1  0  0  0  0
 28 17  1  0  0  0  0
 28 29  2  0  0  0  0
 31 25  1  0  0  0  0
 32 26  1  0  0  0  0
 33 35  1  0  0  0  0
 33 34  2  0  0  0  0
 35 36  1  0  0  0  0
M  END
>  <minimizedAffinity>
-5.36112928

$$$$

 OpenBabel03252509193D

 36 38  0  0  1  0  0  0  0  0999 V2000
   39.0370   31.8100   41.1180 C   0  0  1  0  0  0  0  0  0  0  0  0
   40.4570   31.5710   41.5350 C   0  0  0  0  0  0  0  0  0  0  0  0
   41.4850   32.2770   40.7050 C   0  0  0  0  0  0  0  0  0  0  0  0
   41.0950   33.7080   40.3850 C   0  0  0  0  0  0  0  0  0  0  0  0
   39.6510   33.8350   39.9430 C   0  0  0  0  0  0  0  0  0  0  0  0
   39.0800   32.4330   39.7100 C   0  0  2  0  0  0  0  0  0  0  0  0
   38.5950   32.5630   41.7720 H   0  0  0  0  0  0  0  0  0  0  0  0
   40.6720   30.4760   41.4770 H   0  0  0  0  0  0  0  0  0  0  0  0
   40.5830   31.8650   42.5920 H   0  0  0  0  0  0  0  0  0  0  0  0
   42.4370   32.3060   41.2520 H   0  0  0  0  0  0  0  0  0  0  0  0
   41.6700   31.6990   39.7660 H   0  0  0  0  0  0  0  0  0  0  0  0
   41.7290   34.0330   39.5510 H   0  0  0  0  0  0  0  0  0  0  0  0
   41.2950   34.3600   41.2440 H   0  0  0  0  0  0  0  0  0  0  0  0
   39.5390   34.4240   39.0140 H   0  0  0  0  0  0  0  0  0  0  0  0
   39.0370   34.3040   40.7280 H   0  0  0  0  0  0  0  0  0  0  0  0
   39.6930   31.8430   39.0170 H   0  0  0  0  0  0  0  0  0  0  0  0
   37.3430   28.0790   40.9670 C   0  0  0  0  0  0  0  0  0  0  0  0
   36.4880   29.0390   41.5000 C   0  0  0  0  0  0  0  0  0  0  0  0
   36.9370   30.2930   41.5960 C   0  0  0  0  0  0  0  0  0  0  0  0
   38.2270   30.6260   41.1740 C   0  0  0  0  0  0  0  0  0  0  0  0
   38.8540   29.0320   40.5930 S   0  0  0  0  0  0  0  0  0  0  0  0
   35.4920   28.7640   41.8200 H   0  0  0  0  0  0  0  0  0  0  0  0
   36.4100   31.1510   41.9810 H   0  0  0  0  0  0  0  0  0  0  0  0
   36.3340   24.7480   39.6460 C   0  0  0  0  0  0  0  0  0  0  0  0
   36.5320   23.9490   40.7940 C   0  0  0  0  0  0  0  0  0  0  0  0
   37.0030   24.5920   41.9690 C   0  0  0  0  0  0  0  0  0  0  0  0
   37.2300   25.9300   41.9060 N   0  0  0  0  0  0  0  0  0  0  0  0
   37.0240   26.6430   40.7880 C   0  0  0  0  0  0  0  0  0  0  0  0
   36.5740   26.0570   39.6480 N   0  0  0  0  0  0  0  0  0  0  0  0
   35.9780   24.2690   38.7560 H   0  0  0  0  0  0  0  0  0  0  0  0
   36.3470   22.8830   40.8280 H   0  0  0  0  0  0  0  0  0  0  0  0
   37.1840   24.0620   42.8920 H   0  0  0  0  0  0  0  0  0  0  0  0
   37.6670   32.6030   39.2500 C   0  0  0  0  0  0  0  0  0  0  0  0
   37.1720   31.9980   38.2860 O   0  0  0  0  0  0  0  0  0  0  0  0
   36.7700   33.4650   39.8720 O   0  0  0  0  0  0  0  0  0  0  0  0
   35.8260   33.1400   40.1390 H   0  0  0  0  0  0  0  0  0  0  0  0
  1 20  1  0  0  0  0
  1  2  1  0  0  0  0
  1  7  1  1  0  0  0
  2  9  1  0  0  0  0
  3 10  1  0  0  0  0
  3  2  1  0  0  0  0
  4  3  1  0  0  0  0
  4 13  1  0  0  0  0
  5  4  1  0  0  0  0
  5 15  1  0  0  0  0
  6 16  1  6  0  0  0
  6  5  1  0  0  0  0
  6  1  1  0  0  0  0
  8  2  1  0  0  0  0
 11  3  1  0  0  0  0
 12  4  1  0  0  0  0
 14  5  1  0  0  0  0
 17 18  2  0  0  0  0
 18 19  1  0  0  0  0
 18 22  1  0  0  0  0
 19 23  1  0  0  0  0
 20 19  2  0  0  0  0
 21 17  1  0  0  0  0
 21 20  1  0  0  0  0
 24 29  2  0  0  0  0
 24 25  1  0  0  0  0
 25 31  1  0  0  0  0
 25 26  2  0  0  0  0
 26 32  1  0  0  0  0
 27 26  1  0  0  0  0
 28 17  1  0  0  0  0
 28 27  2  0  0  0  0
 29 28  1  0  0  0  0
 30 24  1  0  0  0  0
 33  6  1  0  0  0  0
 33 35  1  0  0  0  0
 34 33  2  0  0  0  0
 35 36  1  0  0  0  0
M  END
>  <minimizedAffinity>
-5.1986866

$$$$

 OpenBabel03252509193D

 36 38  0  0  1  0  0  0  0  0999 V2000
   36.3450   30.1300   38.5630 C   0  0  1  0  0  0  0  0  0  0  0  0
   36.1070   29.5070   37.2210 C   0  0  0  0  0  0  0  0  0  0  0  0
   35.1240   28.3760   37.2170 C   0  0  0  0  0  0  0  0  0  0  0  0
   33.9020   28.6610   38.0680 C   0  0  0  0  0  0  0  0  0  0  0  0
   34.2540   29.2600   39.4150 C   0  0  0  0  0  0  0  0  0  0  0  0
   35.7700   29.1660   39.6160 C   0  0  2  0  0  0  0  0  0  0  0  0
   35.7610   31.0490   38.6370 H   0  0  0  0  0  0  0  0  0  0  0  0
   37.0760   29.1120   36.8280 H   0  0  0  0  0  0  0  0  0  0  0  0
   35.7670   30.2820   36.5120 H   0  0  0  0  0  0  0  0  0  0  0  0
   34.7800   28.1960   36.1900 H   0  0  0  0  0  0  0  0  0  0  0  0
   35.6310   27.4390   37.5570 H   0  0  0  0  0  0  0  0  0  0  0  0
   33.4070   27.7000   38.2500 H   0  0  0  0  0  0  0  0  0  0  0  0
   33.2040   29.3120   37.5280 H   0  0  0  0  0  0  0  0  0  0  0  0
   33.7510   28.7470   40.2550 H   0  0  0  0  0  0  0  0  0  0  0  0
   33.9920   30.3290   39.4540 H   0  0  0  0  0  0  0  0  0  0  0  0
   36.1450   28.1440   39.4870 H   0  0  0  0  0  0  0  0  0  0  0  0
   40.0330   31.7680   39.2960 C   0  0  0  0  0  0  0  0  0  0  0  0
   40.0790   30.3870   39.1290 C   0  0  0  0  0  0  0  0  0  0  0  0
   38.9320   29.7470   38.8850 C   0  0  0  0  0  0  0  0  0  0  0  0
   37.7260   30.4480   38.7990 C   0  0  0  0  0  0  0  0  0  0  0  0
   38.2600   32.1510   39.0900 S   0  0  0  0  0  0  0  0  0  0  0  0
   41.0210   29.8610   39.1970 H   0  0  0  0  0  0  0  0  0  0  0  0
   38.7910   28.6900   38.7320 H   0  0  0  0  0  0  0  0  0  0  0  0
   42.8850   34.1510   39.0870 C   0  0  0  0  0  0  0  0  0  0  0  0
   43.3130   34.1520   40.4330 C   0  0  0  0  0  0  0  0  0  0  0  0
   42.6020   33.3340   41.3500 C   0  0  0  0  0  0  0  0  0  0  0  0
   41.5610   32.6080   40.8680 N   0  0  0  0  0  0  0  0  0  0  0  0
   41.1950   32.6420   39.5770 C   0  0  0  0  0  0  0  0  0  0  0  0
   41.8550   33.4150   38.6760 N   0  0  0  0  0  0  0  0  0  0  0  0
   43.4170   34.7660   38.3900 H   0  0  0  0  0  0  0  0  0  0  0  0
   44.1460   34.7370   40.8020 H   0  0  0  0  0  0  0  0  0  0  0  0
   42.8580   33.2720   42.3970 H   0  0  0  0  0  0  0  0  0  0  0  0
   36.0730   29.7400   40.9650 C   0  0  0  0  0  0  0  0  0  0  0  0
   36.7800   29.1800   41.8160 O   0  0  0  0  0  0  0  0  0  0  0  0
   35.5820   30.9710   41.3870 O   0  0  0  0  0  0  0  0  0  0  0  0
   36.2130   31.6750   41.8030 H   0  0  0  0  0  0  0  0  0  0  0  0
  1  7  1  1  0  0  0
  1 20  1  0  0  0  0
  1  6  1  0  0  0  0
  2  1  1  0  0  0  0
  3  2  1  0  0  0  0
  3 11  1  0  0  0  0
  3  4  1  0  0  0  0
  4 12  1  0  0  0  0
  4  5  1  0  0  0  0
  5 15  1  0  0  0  0
  5  6  1  0  0  0  0
  5 14  1  0  0  0  0
  6 16  1  6  0  0  0
  6 33  1  0  0  0  0
  8  2  1  0  0  0  0
  9  2  1  0  0  0  0
 10  3  1  0  0  0  0
 13  4  1  0  0  0  0
 17 28  1  0  0  0  0
 18 22  1  0  0  0  0
 18 17  2  0  0  0  0
 19 18  1  0  0  0  0
 20 19  2  0  0  0  0
 20 21  1  0  0  0  0
 21 17  1  0  0  0  0
 23 19  1  0  0  0  0
 24 25  1  0  0  0  0
 25 31  1  0  0  0  0
 25 26  2  0  0  0  0
 26 32  1  0  0  0  0
 27 26  1  0  0  0  0
 28 27  2  0  0  0  0
 29 24  2  0  0  0  0
 29 28  1  0  0  0  0
 30 24  1  0  0  0  0
 33 35  1  0  0  0  0
 33 34  2  0  0  0  0
 35 36  1  0  0  0  0
M  END
>  <minimizedAffinity>
-5.19387722

$$$$

 OpenBabel03252509193D

 36 38  0  0  1  0  0  0  0  0999 V2000
   38.4460   30.3150   41.6880 C   0  0  1  0  0  0  0  0  0  0  0  0
   39.9300   30.5260   41.7040 C   0  0  0  0  0  0  0  0  0  0  0  0
   40.4270   31.5730   40.7550 C   0  0  0  0  0  0  0  0  0  0  0  0
   39.5570   32.8160   40.7470 C   0  0  0  0  0  0  0  0  0  0  0  0
   38.0770   32.4920   40.6990 C   0  0  0  0  0  0  0  0  0  0  0  0
   37.9070   30.9960   40.4170 C   0  0  2  0  0  0  0  0  0  0  0  0
   38.0020   30.8460   42.5320 H   0  0  0  0  0  0  0  0  0  0  0  0
   40.4350   29.5650   41.4390 H   0  0  0  0  0  0  0  0  0  0  0  0
   40.2520   30.7850   42.7270 H   0  0  0  0  0  0  0  0  0  0  0  0
   41.4400   31.8790   41.0480 H   0  0  0  0  0  0  0  0  0  0  0  0
   40.5050   31.1400   39.7270 H   0  0  0  0  0  0  0  0  0  0  0  0
   39.8060   33.3750   39.8380 H   0  0  0  0  0  0  0  0  0  0  0  0
   39.7850   33.4470   41.6140 H   0  0  0  0  0  0  0  0  0  0  0  0
   37.5400   33.0650   39.9200 H   0  0  0  0  0  0  0  0  0  0  0  0
   37.5960   32.6920   41.6700 H   0  0  0  0  0  0  0  0  0  0  0  0
   38.4480   30.6770   39.5180 H   0  0  0  0  0  0  0  0  0  0  0  0
   37.7290   26.3020   41.2410 C   0  0  0  0  0  0  0  0  0  0  0  0
   37.2280   26.8100   42.4350 C   0  0  0  0  0  0  0  0  0  0  0  0
   37.4050   28.1100   42.6860 C   0  0  0  0  0  0  0  0  0  0  0  0
   38.0730   28.9300   41.7740 C   0  0  0  0  0  0  0  0  0  0  0  0
   38.4850   27.7650   40.4530 S   0  0  0  0  0  0  0  0  0  0  0  0
   36.7120   26.1610   43.1290 H   0  0  0  0  0  0  0  0  0  0  0  0
   37.0830   28.6590   43.5560 H   0  0  0  0  0  0  0  0  0  0  0  0
   38.3520   22.7110   40.4820 C   0  0  0  0  0  0  0  0  0  0  0  0
   37.1330   22.3700   39.8540 C   0  0  0  0  0  0  0  0  0  0  0  0
   36.1550   23.3890   39.7200 C   0  0  0  0  0  0  0  0  0  0  0  0
   36.4590   24.6200   40.2060 N   0  0  0  0  0  0  0  0  0  0  0  0
   37.6340   24.8930   40.7940 C   0  0  0  0  0  0  0  0  0  0  0  0
   38.5900   23.9390   40.9370 N   0  0  0  0  0  0  0  0  0  0  0  0
   39.0960   21.9470   40.5860 H   0  0  0  0  0  0  0  0  0  0  0  0
   36.9070   21.3830   39.4730 H   0  0  0  0  0  0  0  0  0  0  0  0
   35.1960   23.2190   39.2550 H   0  0  0  0  0  0  0  0  0  0  0  0
   36.4370   30.7240   40.3500 C   0  0  0  0  0  0  0  0  0  0  0  0
   35.8730   30.1900   39.3820 O   0  0  0  0  0  0  0  0  0  0  0  0
   35.5620   31.0490   41.3800 O   0  0  0  0  0  0  0  0  0  0  0  0
   34.8880   30.3530   41.7380 H   0  0  0  0  0  0  0  0  0  0  0  0
  1  2  1  0  0  0  0
  1 20  1  0  0  0  0
  1  7  1  1  0  0  0
  2  9  1  0  0  0  0
  3 10  1  0  0  0  0
  3  2  1  0  0  0  0
  4  3  1  0  0  0  0
  4 13  1  0  0  0  0
  5  4  1  0  0  0  0
  5 15  1  0  0  0  0
  6 16  1  6  0  0  0
  6  5  1  0  0  0  0
  6  1  1  0  0  0  0
  8  2  1  0  0  0  0
 11  3  1  0  0  0  0
 12  4  1  0  0  0  0
 14  5  1  0  0  0  0
 17 18  2  0  0  0  0
 18 19  1  0  0  0  0
 18 22  1  0  0  0  0
 19 23  1  0  0  0  0
 20 19  2  0  0  0  0
 21 17  1  0  0  0  0
 21 20  1  0  0  0  0
 24 30  1  0  0  0  0
 24 29  1  0  0  0  0
 25 24  2  0  0  0  0
 26 25  1  0  0  0  0
 26 27  2  0  0  0  0
 27 28  1  0  0  0  0
 28 29  2  0  0  0  0
 28 17  1  0  0  0  0
 31 25  1  0  0  0  0
 32 26  1  0  0  0  0
 33  6  1  0  0  0  0
 33 35  1  0  0  0  0
 34 33  2  0  0  0  0
 35 36  1  0  0  0  0
M  END
>  <minimizedAffinity>
-5.14886999

$$$$

 OpenBabel03252509193D

 36 38  0  0  1  0  0  0  0  0999 V2000
   37.4340   27.0440   42.2020 C   0  0  1  0  0  0  0  0  0  0  0  0
   37.4440   25.5530   42.0440 C   0  0  0  0  0  0  0  0  0  0  0  0
   38.7810   24.9070   42.2450 C   0  0  0  0  0  0  0  0  0  0  0  0
   39.5330   25.4780   43.4320 C   0  0  0  0  0  0  0  0  0  0  0  0
   39.4880   26.9920   43.4810 C   0  0  0  0  0  0  0  0  0  0  0  0
   38.9010   27.5110   42.1650 C   0  0  2  0  0  0  0  0  0  0  0  0
   37.0580   27.2950   43.1950 H   0  0  0  0  0  0  0  0  0  0  0  0
   37.0980   25.2960   41.0130 H   0  0  0  0  0  0  0  0  0  0  0  0
   36.7190   25.1060   42.7460 H   0  0  0  0  0  0  0  0  0  0  0  0
   38.6430   23.8330   42.4230 H   0  0  0  0  0  0  0  0  0  0  0  0
   39.3880   25.0050   41.3110 H   0  0  0  0  0  0  0  0  0  0  0  0
   40.5820   25.1790   43.3210 H   0  0  0  0  0  0  0  0  0  0  0  0
   39.1500   25.0500   44.3670 H   0  0  0  0  0  0  0  0  0  0  0  0
   40.4850   27.4440   43.6300 H   0  0  0  0  0  0  0  0  0  0  0  0
   38.8240   27.3420   44.2880 H   0  0  0  0  0  0  0  0  0  0  0  0
   39.4350   27.1230   41.2890 H   0  0  0  0  0  0  0  0  0  0  0  0
   35.4110   28.4290   38.9140 C   0  0  0  0  0  0  0  0  0  0  0  0
   35.1050   29.1350   40.0740 C   0  0  0  0  0  0  0  0  0  0  0  0
   35.7080   28.7690   41.2080 C   0  0  0  0  0  0  0  0  0  0  0  0
   36.6180   27.7080   41.2240 C   0  0  0  0  0  0  0  0  0  0  0  0
   36.6180   27.1870   39.4920 S   0  0  0  0  0  0  0  0  0  0  0  0
   34.4000   29.9540   40.0420 H   0  0  0  0  0  0  0  0  0  0  0  0
   35.5860   29.2050   42.1860 H   0  0  0  0  0  0  0  0  0  0  0  0
   34.8660   28.9420   35.2680 C   0  0  0  0  0  0  0  0  0  0  0  0
   33.4760   29.1940   35.2530 C   0  0  0  0  0  0  0  0  0  0  0  0
   32.7910   29.1760   36.4960 C   0  0  0  0  0  0  0  0  0  0  0  0
   33.5200   28.9180   37.6120 N   0  0  0  0  0  0  0  0  0  0  0  0
   34.8410   28.6850   37.5720 C   0  0  0  0  0  0  0  0  0  0  0  0
   35.5250   28.6960   36.3980 N   0  0  0  0  0  0  0  0  0  0  0  0
   35.3900   28.9540   34.3330 H   0  0  0  0  0  0  0  0  0  0  0  0
   32.9090   29.3980   34.3530 H   0  0  0  0  0  0  0  0  0  0  0  0
   31.7300   29.3570   36.5800 H   0  0  0  0  0  0  0  0  0  0  0  0
   38.8990   29.0050   42.2420 C   0  0  0  0  0  0  0  0  0  0  0  0
   39.3340   29.7480   41.3470 O   0  0  0  0  0  0  0  0  0  0  0  0
   38.4030   29.7030   43.3370 O   0  0  0  0  0  0  0  0  0  0  0  0
   37.7370   30.4830   43.2080 H   0  0  0  0  0  0  0  0  0  0  0  0
  1  7  1  1  0  0  0
  2  1  1  0  0  0  0
  2  3  1  0  0  0  0
  2  9  1  0  0  0  0
  3 10  1  0  0  0  0
  3  4  1  0  0  0  0
  4  5  1  0  0  0  0
  4 13  1  0  0  0  0
  5 14  1  0  0  0  0
  5 15  1  0  0  0  0
  6 16  1  6  0  0  0
  6  1  1  0  0  0  0
  6 33  1  0  0  0  0
  6  5  1  0  0  0  0
  8  2  1  0  0  0  0
 11  3  1  0  0  0  0
 12  4  1  0  0  0  0
 17 21  1  0  0  0  0
 17 18  2  0  0  0  0
 18 19  1  0  0  0  0
 19 20  2  0  0  0  0
 19 23  1  0  0  0  0
 20  1  1  0  0  0  0
 21 20  1  0  0  0  0
 22 18  1  0  0  0  0
 24 29  1  0  0  0  0
 25 24  2  0  0  0  0
 25 26  1  0  0  0  0
 26 32  1  0  0  0  0
 26 27  2  0  0  0  0
 28 27  1  0  0  0  0
 28 17  1  0  0  0  0
 29 28  2  0  0  0  0
 30 24  1  0  0  0  0
 31 25  1  0  0  0  0
 33 35  1  0  0  0  0
 34 33  2  0  0  0  0
 36 35  1  0  0  0  0
M  END
>  <minimizedAffinity>
-5.10597944

$$$$

 OpenBabel03252509193D

 36 38  0  0  1  0  0  0  0  0999 V2000
   37.0970   24.7340   40.9950 C   0  0  1  0  0  0  0  0  0  0  0  0
   36.2210   24.5420   39.7940 C   0  0  0  0  0  0  0  0  0  0  0  0
   36.7070   23.5150   38.8170 C   0  0  0  0  0  0  0  0  0  0  0  0
   37.2250   22.2620   39.4960 C   0  0  0  0  0  0  0  0  0  0  0  0
   38.1260   22.5670   40.6770 C   0  0  0  0  0  0  0  0  0  0  0  0
   38.4470   24.0640   40.6790 C   0  0  2  0  0  0  0  0  0  0  0  0
   36.6730   24.1850   41.8370 H   0  0  0  0  0  0  0  0  0  0  0  0
   36.1380   25.5130   39.2480 H   0  0  0  0  0  0  0  0  0  0  0  0
   35.2020   24.2720   40.1230 H   0  0  0  0  0  0  0  0  0  0  0  0
   35.8790   23.2190   38.1590 H   0  0  0  0  0  0  0  0  0  0  0  0
   37.4950   23.9640   38.1630 H   0  0  0  0  0  0  0  0  0  0  0  0
   37.8220   21.7190   38.7540 H   0  0  0  0  0  0  0  0  0  0  0  0
   36.3900   21.6210   39.8030 H   0  0  0  0  0  0  0  0  0  0  0  0
   39.0740   21.9990   40.6480 H   0  0  0  0  0  0  0  0  0  0  0  0
   37.6170   22.3470   41.6290 H   0  0  0  0  0  0  0  0  0  0  0  0
   38.8610   24.4030   39.7220 H   0  0  0  0  0  0  0  0  0  0  0  0
   37.7510   28.7670   41.3480 C   0  0  0  0  0  0  0  0  0  0  0  0
   37.2700   28.1930   42.5210 C   0  0  0  0  0  0  0  0  0  0  0  0
   37.0220   26.8810   42.5200 C   0  0  0  0  0  0  0  0  0  0  0  0
   37.2390   26.1120   41.3740 C   0  0  0  0  0  0  0  0  0  0  0  0
   37.8450   27.3500   40.2020 S   0  0  0  0  0  0  0  0  0  0  0  0
   37.1090   28.8030   43.3990 H   0  0  0  0  0  0  0  0  0  0  0  0
   36.6500   26.2830   43.3370 H   0  0  0  0  0  0  0  0  0  0  0  0
   39.3580   32.1250   41.3170 C   0  0  0  0  0  0  0  0  0  0  0  0
   38.3670   32.8740   40.6430 C   0  0  0  0  0  0  0  0  0  0  0  0
   37.1930   32.1900   40.2310 C   0  0  0  0  0  0  0  0  0  0  0  0
   37.1060   30.8650   40.5140 N   0  0  0  0  0  0  0  0  0  0  0  0
   38.0760   30.1990   41.1580 C   0  0  0  0  0  0  0  0  0  0  0  0
   39.2110   30.8250   41.5660 N   0  0  0  0  0  0  0  0  0  0  0  0
   40.2460   32.6350   41.6320 H   0  0  0  0  0  0  0  0  0  0  0  0
   38.4530   33.9300   40.4260 H   0  0  0  0  0  0  0  0  0  0  0  0
   36.3850   32.6810   39.7110 H   0  0  0  0  0  0  0  0  0  0  0  0
   39.3580   24.3180   41.8390 C   0  0  0  0  0  0  0  0  0  0  0  0
   40.3640   25.0420   41.7880 O   0  0  0  0  0  0  0  0  0  0  0  0
   39.1520   23.7580   43.0960 O   0  0  0  0  0  0  0  0  0  0  0  0
   39.1760   24.3460   43.9440 H   0  0  0  0  0  0  0  0  0  0  0  0
  1 20  1  0  0  0  0
  1  7  1  1  0  0  0
  2  9  1  0  0  0  0
  2  1  1  0  0  0  0
  3  4  1  0  0  0  0
  3  2  1  0  0  0  0
  4 13  1  0  0  0  0
  4  5  1  0  0  0  0
  5  6  1  0  0  0  0
  5 15  1  0  0  0  0
  6 16  1  6  0  0  0
  6  1  1  0  0  0  0
  6 33  1  0  0  0  0
  8  2  1  0  0  0  0
 10  3  1  0  0  0  0
 11  3  1  0  0  0  0
 12  4  1  0  0  0  0
 14  5  1  0  0  0  0
 17 18  2  0  0  0  0
 18 22  1  0  0  0  0
 19 18  1  0  0  0  0
 19 23  1  0  0  0  0
 20 19  2  0  0  0  0
 21 17  1  0  0  0  0
 21 20  1  0  0  0  0
 24 29  1  0  0  0  0
 24 30  1  0  0  0  0
 25 24  2  0  0  0  0
 26 27  2  0  0  0  0
 26 25  1  0  0  0  0
 27 28  1  0  0  0  0
 28 17  1  0  0  0  0
 28 29  2  0  0  0  0
 31 25  1  0  0  0  0
 32 26  1  0  0  0  0
 33 35  1  0  0  0  0
 34 33  2  0  0  0  0
 35 36  1  0  0  0  0
M  END
>  <minimizedAffinity>
-5.03410912

$$$$

 OpenBabel03252509193D

 36 38  0  0  1  0  0  0  0  0999 V2000
   36.3280   30.3590   38.4620 C   0  0  1  0  0  0  0  0  0  0  0  0
   36.0710   29.6450   37.1700 C   0  0  0  0  0  0  0  0  0  0  0  0
   35.3230   28.3540   37.3010 C   0  0  0  0  0  0  0  0  0  0  0  0
   34.1650   28.4460   38.2770 C   0  0  0  0  0  0  0  0  0  0  0  0
   34.5390   29.1570   39.5620 C   0  0  0  0  0  0  0  0  0  0  0  0
   36.0580   29.3520   39.5950 C   0  0  2  0  0  0  0  0  0  0  0  0
   35.5930   31.1580   38.5800 H   0  0  0  0  0  0  0  0  0  0  0  0
   37.0500   29.4190   36.6810 H   0  0  0  0  0  0  0  0  0  0  0  0
   35.5190   30.3130   36.4850 H   0  0  0  0  0  0  0  0  0  0  0  0
   34.9130   28.0690   36.3230 H   0  0  0  0  0  0  0  0  0  0  0  0
   36.0300   27.5410   37.6040 H   0  0  0  0  0  0  0  0  0  0  0  0
   33.8810   27.4190   38.5350 H   0  0  0  0  0  0  0  0  0  0  0  0
   33.3050   28.9330   37.8030 H   0  0  0  0  0  0  0  0  0  0  0  0
   34.2320   28.5970   40.4640 H   0  0  0  0  0  0  0  0  0  0  0  0
   34.0860   30.1600   39.6050 H   0  0  0  0  0  0  0  0  0  0  0  0
   36.6020   28.4120   39.4490 H   0  0  0  0  0  0  0  0  0  0  0  0
   40.3180   31.3080   38.4220 C   0  0  0  0  0  0  0  0  0  0  0  0
   39.5150   32.3650   38.8410 C   0  0  0  0  0  0  0  0  0  0  0  0
   38.1950   32.1680   38.8920 C   0  0  0  0  0  0  0  0  0  0  0  0
   37.6420   30.9350   38.5360 C   0  0  0  0  0  0  0  0  0  0  0  0
   39.1110   29.9790   38.0910 S   0  0  0  0  0  0  0  0  0  0  0  0
   39.9610   33.3120   39.1140 H   0  0  0  0  0  0  0  0  0  0  0  0
   37.4380   32.8740   39.1910 H   0  0  0  0  0  0  0  0  0  0  0  0
   43.9860   31.4550   39.0410 C   0  0  0  0  0  0  0  0  0  0  0  0
   44.4690   31.3720   37.7170 C   0  0  0  0  0  0  0  0  0  0  0  0
   43.5130   31.2700   36.6720 C   0  0  0  0  0  0  0  0  0  0  0  0
   42.2010   31.2590   37.0210 N   0  0  0  0  0  0  0  0  0  0  0  0
   41.7930   31.3410   38.2970 C   0  0  0  0  0  0  0  0  0  0  0  0
   42.6830   31.4390   39.3180 N   0  0  0  0  0  0  0  0  0  0  0  0
   44.7020   31.5320   39.8340 H   0  0  0  0  0  0  0  0  0  0  0  0
   45.5200   31.3820   37.4560 H   0  0  0  0  0  0  0  0  0  0  0  0
   43.7910   31.2020   35.6310 H   0  0  0  0  0  0  0  0  0  0  0  0
   36.3880   30.0300   40.8880 C   0  0  0  0  0  0  0  0  0  0  0  0
   37.3410   29.7130   41.6160 O   0  0  0  0  0  0  0  0  0  0  0  0
   35.6450   31.0920   41.3930 O   0  0  0  0  0  0  0  0  0  0  0  0
   36.1110   31.9550   41.7160 H   0  0  0  0  0  0  0  0  0  0  0  0
  1 20  1  0  0  0  0
  1  7  1  1  0  0  0
  1  6  1  0  0  0  0
  2  3  1  0  0  0  0
  2  1  1  0  0  0  0
  3 11  1  0  0  0  0
  3  4  1  0  0  0  0
  4 12  1  0  0  0  0
  4  5  1  0  0  0  0
  5  6  1  0  0  0  0
  5 15  1  0  0  0  0
  5 14  1  0  0  0  0
  6 16  1  6  0  0  0
  6 33  1  0  0  0  0
  8  2  1  0  0  0  0
  9  2  1  0  0  0  0
 10  3  1  0  0  0  0
 13  4  1  0  0  0  0
 17 18  2  0  0  0  0
 18 19  1  0  0  0  0
 18 22  1  0  0  0  0
 19 23  1  0  0  0  0
 20 19  2  0  0  0  0
 21 17  1  0  0  0  0
 21 20  1  0  0  0  0
 24 29  1  0  0  0  0
 24 30  1  0  0  0  0
 25 24  2  0  0  0  0
 26 27  2  0  0  0  0
 26 25  1  0  0  0  0
 27 28  1  0  0  0  0
 28 17  1  0  0  0  0
 28 29  2  0  0  0  0
 31 25  1  0  0  0  0
 32 26  1  0  0  0  0
 33 35  1  0  0  0  0
 33 34  2  0  0  0  0
 35 36  1  0  0  0  0
M  END
>  <minimizedAffinity>
-5.02288342

$$$$

 OpenBabel03252509193D

 36 38  0  0  1  0  0  0  0  0999 V2000
   38.8020   26.8230   41.6260 C   0  0  1  0  0  0  0  0  0  0  0  0
   39.6300   25.5760   41.7180 C   0  0  0  0  0  0  0  0  0  0  0  0
   39.0000   24.4580   42.4900 C   0  0  0  0  0  0  0  0  0  0  0  0
   37.5280   24.2820   42.1680 C   0  0  0  0  0  0  0  0  0  0  0  0
   36.7770   25.5970   42.1300 C   0  0  0  0  0  0  0  0  0  0  0  0
   37.6850   26.7010   42.6790 C   0  0  2  0  0  0  0  0  0  0  0  0
   38.3050   26.8490   40.6540 H   0  0  0  0  0  0  0  0  0  0  0  0
   40.6000   25.8230   42.2150 H   0  0  0  0  0  0  0  0  0  0  0  0
   39.8720   25.2210   40.7020 H   0  0  0  0  0  0  0  0  0  0  0  0
   39.5090   23.5160   42.2460 H   0  0  0  0  0  0  0  0  0  0  0  0
   39.1460   24.6300   43.5850 H   0  0  0  0  0  0  0  0  0  0  0  0
   37.0950   23.6740   42.9710 H   0  0  0  0  0  0  0  0  0  0  0  0
   37.4070   23.7400   41.2220 H   0  0  0  0  0  0  0  0  0  0  0  0
   35.8450   25.5740   42.7230 H   0  0  0  0  0  0  0  0  0  0  0  0
   36.5220   25.8770   41.0950 H   0  0  0  0  0  0  0  0  0  0  0  0
   38.0810   26.4590   43.6730 H   0  0  0  0  0  0  0  0  0  0  0  0
   40.7220   30.4360   41.3520 C   0  0  0  0  0  0  0  0  0  0  0  0
   40.9950   29.7680   42.5420 C   0  0  0  0  0  0  0  0  0  0  0  0
   40.4220   28.5780   42.7380 C   0  0  0  0  0  0  0  0  0  0  0  0
   39.5740   28.0250   41.7750 C   0  0  0  0  0  0  0  0  0  0  0  0
   39.5910   29.2940   40.4860 S   0  0  0  0  0  0  0  0  0  0  0  0
   41.6550   30.2110   43.2750 H   0  0  0  0  0  0  0  0  0  0  0  0
   40.5250   27.9340   43.5960 H   0  0  0  0  0  0  0  0  0  0  0  0
   41.3730   33.7320   39.7490 C   0  0  0  0  0  0  0  0  0  0  0  0
   42.4920   34.1610   40.4970 C   0  0  0  0  0  0  0  0  0  0  0  0
   42.9710   33.2980   41.5170 C   0  0  0  0  0  0  0  0  0  0  0  0
   42.3190   32.1200   41.7010 N   0  0  0  0  0  0  0  0  0  0  0  0
   41.2590   31.7600   40.9620 C   0  0  0  0  0  0  0  0  0  0  0  0
   40.7770   32.5640   39.9790 N   0  0  0  0  0  0  0  0  0  0  0  0
   41.0060   34.3790   38.9780 H   0  0  0  0  0  0  0  0  0  0  0  0
   43.0000   35.1030   40.3370 H   0  0  0  0  0  0  0  0  0  0  0  0
   43.8200   33.5430   42.1370 H   0  0  0  0  0  0  0  0  0  0  0  0
   36.9000   27.9740   42.6500 C   0  0  0  0  0  0  0  0  0  0  0  0
   36.1490   28.3080   41.7190 O   0  0  0  0  0  0  0  0  0  0  0  0
   36.9410   28.9090   43.6790 O   0  0  0  0  0  0  0  0  0  0  0  0
   36.0680   29.2880   44.0820 H   0  0  0  0  0  0  0  0  0  0  0  0
  1  7  1  6  0  0  0
  1  2  1  0  0  0  0
  1 20  1  0  0  0  0
  1  6  1  0  0  0  0
  2  8  1  0  0  0  0
  2  3  1  0  0  0  0
  3 11  1  0  0  0  0
  4  3  1  0  0  0  0
  4 12  1  0  0  0  0
  5  4  1  0  0  0  0
  5  6  1  0  0  0  0
  5 14  1  0  0  0  0
  6 16  1  1  0  0  0
  9  2  1  0  0  0  0
 10  3  1  0  0  0  0
 13  4  1  0  0  0  0
 15  5  1  0  0  0  0
 17 18  2  0  0  0  0
 18 19  1  0  0  0  0
 18 22  1  0  0  0  0
 19 23  1  0  0  0  0
 20 19  2  0  0  0  0
 21 17  1  0  0  0  0
 21 20  1  0  0  0  0
 24 29  2  0  0  0  0
 24 25  1  0  0  0  0
 25 26  2  0  0  0  0
 26 27  1  0  0  0  0
 26 32  1  0  0  0  0
 28 17  1  0  0  0  0
 28 27  2  0  0  0  0
 29 28  1  0  0  0  0
 30 24  1  0  0  0  0
 31 25  1  0  0  0  0
 33  6  1  0  0  0  0
 33 35  1  0  0  0  0
 34 33  2  0  0  0  0
 35 36  1  0  0  0  0
M  END
>  <minimizedAffinity>
-5.01455259

$$$$
