
 OpenBabel03242513513D

 27 28  0  0  1  0  0  0  0  0999 V2000
   37.9910   32.0710   40.8650 C   0  0  2  0  0  0  0  0  0  0  0  0
   37.2890   33.0660   39.9530 C   0  0  0  0  0  0  0  0  0  0  0  0
   38.3400   34.1600   39.9460 C   0  0  0  0  0  0  0  0  0  0  0  0
   39.6310   33.4430   39.9540 C   0  0  0  0  0  0  0  0  0  0  0  0
   39.3060   31.8880   40.1840 C   0  0  2  0  0  0  0  0  0  0  0  0
   38.1860   32.4650   41.8630 H   0  0  0  0  0  0  0  0  0  0  0  0
   37.2630   32.5990   38.9630 H   0  0  0  0  0  0  0  0  0  0  0  0
   36.3130   33.3950   40.3180 H   0  0  0  0  0  0  0  0  0  0  0  0
   38.1760   34.7890   39.0310 H   0  0  0  0  0  0  0  0  0  0  0  0
   38.1910   34.8270   40.8330 H   0  0  0  0  0  0  0  0  0  0  0  0
   40.1400   33.5000   38.9930 H   0  0  0  0  0  0  0  0  0  0  0  0
   40.2660   33.7760   40.7970 H   0  0  0  0  0  0  0  0  0  0  0  0
   40.2420   31.6830   40.6150 H   0  0  0  0  0  0  0  0  0  0  0  0
   35.4750   29.2850   40.6110 C   0  0  0  0  0  0  0  0  0  0  0  0
   36.0660   30.5390   40.3810 C   0  0  0  0  0  0  0  0  0  0  0  0
   37.2570   30.7920   41.0050 C   0  0  0  0  0  0  0  0  0  0  0  0
   37.7910   29.8000   41.8140 N   0  0  0  0  0  0  0  0  0  0  0  0
   37.2080   28.6220   42.0130 C   0  0  0  0  0  0  0  0  0  0  0  0
   36.0560   28.3570   41.4190 N   0  0  0  0  0  0  0  0  0  0  0  0
   34.5360   29.0460   40.1380 H   0  0  0  0  0  0  0  0  0  0  0  0
   35.6120   31.2820   39.7400 H   0  0  0  0  0  0  0  0  0  0  0  0
   37.7750   27.9780   42.6760 H   0  0  0  0  0  0  0  0  0  0  0  0
   39.1670   31.3420   38.8950 O   0  0  0  0  0  0  0  0  0  0  0  0
   39.8200   31.7650   37.7740 C   0  0  0  0  0  0  0  0  0  0  0  0
   40.8100   30.9760   37.6020 O   0  0  0  0  0  0  0  0  0  0  0  0
   40.2020   32.4540   36.6470 O   0  0  0  0  0  0  0  0  0  0  0  0
   40.6400   33.3600   36.6480 H   0  0  0  0  0  0  0  0  0  0  0  0
  1 16  1  0  0  0  0
  1  6  1  1  0  0  0
  2  8  1  0  0  0  0
  2  1  1  0  0  0  0
  3  2  1  0  0  0  0
  3  4  1  0  0  0  0
  3 10  1  0  0  0  0
  4  5  1  0  0  0  0
  4 12  1  0  0  0  0
  5 13  1  1  0  0  0
  5  1  1  0  0  0  0
  7  2  1  0  0  0  0
  9  3  1  0  0  0  0
 11  4  1  0  0  0  0
 14 19  1  0  0  0  0
 15 14  2  0  0  0  0
 15 16  1  0  0  0  0
 16 17  2  0  0  0  0
 17 18  1  0  0  0  0
 18 22  1  0  0  0  0
 19 18  2  0  0  0  0
 20 14  1  0  0  0  0
 21 15  1  0  0  0  0
 23  5  1  0  0  0  0
 24 23  1  0  0  0  0
 25 24  2  0  0  0  0
 26 27  1  0  0  0  0
 26 24  1  0  0  0  0
M  END
>  <minimizedAffinity>
-4.48317337

$$$$

 OpenBabel03242513513D

 27 28  0  0  1  0  0  0  0  0999 V2000
   37.8370   25.6560   41.1070 C   0  0  2  0  0  0  0  0  0  0  0  0
   36.9060   24.6130   41.7090 C   0  0  0  0  0  0  0  0  0  0  0  0
   37.1230   23.4980   40.7040 C   0  0  0  0  0  0  0  0  0  0  0  0
   38.5560   23.5770   40.3540 C   0  0  0  0  0  0  0  0  0  0  0  0
   39.1320   24.9170   41.0250 C   0  0  2  0  0  0  0  0  0  0  0  0
   37.5580   25.9490   40.0940 H   0  0  0  0  0  0  0  0  0  0  0  0
   37.3600   24.3200   42.6610 H   0  0  0  0  0  0  0  0  0  0  0  0
   35.8660   24.9380   41.7900 H   0  0  0  0  0  0  0  0  0  0  0  0
   36.8290   22.5320   41.1950 H   0  0  0  0  0  0  0  0  0  0  0  0
   36.4380   23.6440   39.8300 H   0  0  0  0  0  0  0  0  0  0  0  0
   39.1310   22.7600   40.7850 H   0  0  0  0  0  0  0  0  0  0  0  0
   38.6940   23.6700   39.2600 H   0  0  0  0  0  0  0  0  0  0  0  0
   39.9010   25.0250   40.3180 H   0  0  0  0  0  0  0  0  0  0  0  0
   37.3400   28.3560   43.6800 C   0  0  0  0  0  0  0  0  0  0  0  0
   37.1260   27.1500   42.9910 C   0  0  0  0  0  0  0  0  0  0  0  0
   37.9500   26.8810   41.9320 C   0  0  0  0  0  0  0  0  0  0  0  0
   38.9290   27.8100   41.6170 N   0  0  0  0  0  0  0  0  0  0  0  0
   39.1090   28.9440   42.2890 C   0  0  0  0  0  0  0  0  0  0  0  0
   38.3220   29.2240   43.3150 N   0  0  0  0  0  0  0  0  0  0  0  0
   36.7130   28.6060   44.5200 H   0  0  0  0  0  0  0  0  0  0  0  0
   36.3490   26.4540   43.2740 H   0  0  0  0  0  0  0  0  0  0  0  0
   39.9230   29.5430   41.8950 H   0  0  0  0  0  0  0  0  0  0  0  0
   39.6030   24.5270   42.2910 O   0  0  0  0  0  0  0  0  0  0  0  0
   40.8510   24.7660   42.7870 C   0  0  0  0  0  0  0  0  0  0  0  0
   40.7280   25.6730   43.6800 O   0  0  0  0  0  0  0  0  0  0  0  0
   42.2030   24.7390   43.0340 O   0  0  0  0  0  0  0  0  0  0  0  0
   42.9070   25.1230   42.4250 H   0  0  0  0  0  0  0  0  0  0  0  0
  1  6  1  6  0  0  0
  1  2  1  0  0  0  0
  1 16  1  0  0  0  0
  2  8  1  0  0  0  0
  2  7  1  0  0  0  0
  3  9  1  0  0  0  0
  3  2  1  0  0  0  0
  4  3  1  0  0  0  0
  4 11  1  0  0  0  0
  4  5  1  0  0  0  0
  5 13  1  6  0  0  0
  5  1  1  0  0  0  0
  5 23  1  0  0  0  0
 10  3  1  0  0  0  0
 12  4  1  0  0  0  0
 14 20  1  0  0  0  0
 15 21  1  0  0  0  0
 15 14  2  0  0  0  0
 16 15  1  0  0  0  0
 17 16  2  0  0  0  0
 17 18  1  0  0  0  0
 18 19  2  0  0  0  0
 19 14  1  0  0  0  0
 22 18  1  0  0  0  0
 23 24  1  0  0  0  0
 24 26  1  0  0  0  0
 24 25  2  0  0  0  0
 27 26  1  0  0  0  0
M  END
>  <minimizedAffinity>
-4.37837601

$$$$

 OpenBabel03242513513D

 27 28  0  0  1  0  0  0  0  0999 V2000
   36.2060   27.6680   40.1320 C   0  0  2  0  0  0  0  0  0  0  0  0
   36.9260   27.3820   38.8210 C   0  0  0  0  0  0  0  0  0  0  0  0
   35.7570   27.5540   37.8700 C   0  0  0  0  0  0  0  0  0  0  0  0
   34.9690   28.6670   38.4360 C   0  0  0  0  0  0  0  0  0  0  0  0
   35.5970   29.0060   39.8750 C   0  0  2  0  0  0  0  0  0  0  0  0
   35.3960   26.9680   40.3390 H   0  0  0  0  0  0  0  0  0  0  0  0
   37.6230   28.2140   38.6740 H   0  0  0  0  0  0  0  0  0  0  0  0
   37.3910   26.3950   38.7740 H   0  0  0  0  0  0  0  0  0  0  0  0
   36.1740   27.7660   36.8490 H   0  0  0  0  0  0  0  0  0  0  0  0
   35.1890   26.5910   37.7980 H   0  0  0  0  0  0  0  0  0  0  0  0
   35.0640   29.5800   37.8500 H   0  0  0  0  0  0  0  0  0  0  0  0
   33.9160   28.3680   38.5970 H   0  0  0  0  0  0  0  0  0  0  0  0
   34.6990   29.3970   40.2530 H   0  0  0  0  0  0  0  0  0  0  0  0
   37.6490   27.8300   43.6030 C   0  0  0  0  0  0  0  0  0  0  0  0
   36.6740   27.8150   42.5900 C   0  0  0  0  0  0  0  0  0  0  0  0
   37.1140   27.6880   41.3020 C   0  0  0  0  0  0  0  0  0  0  0  0
   38.4800   27.5830   41.0890 N   0  0  0  0  0  0  0  0  0  0  0  0
   39.3800   27.6000   42.0680 C   0  0  0  0  0  0  0  0  0  0  0  0
   38.9750   27.7230   43.3220 N   0  0  0  0  0  0  0  0  0  0  0  0
   37.3430   27.9280   44.6320 H   0  0  0  0  0  0  0  0  0  0  0  0
   35.6180   27.9000   42.8050 H   0  0  0  0  0  0  0  0  0  0  0  0
   40.3990   27.5060   41.7070 H   0  0  0  0  0  0  0  0  0  0  0  0
   36.5670   29.9960   39.6340 O   0  0  0  0  0  0  0  0  0  0  0  0
   36.6060   31.2320   40.2100 C   0  0  0  0  0  0  0  0  0  0  0  0
   36.1540   31.1020   41.3980 O   0  0  0  0  0  0  0  0  0  0  0  0
   36.7870   32.5740   40.4490 O   0  0  0  0  0  0  0  0  0  0  0  0
   36.2100   33.3080   40.0730 H   0  0  0  0  0  0  0  0  0  0  0  0
  1  6  1  1  0  0  0
  1 16  1  0  0  0  0
  2  1  1  0  0  0  0
  3  4  1  0  0  0  0
  3  2  1  0  0  0  0
  4 12  1  0  0  0  0
  4  5  1  0  0  0  0
  5  1  1  0  0  0  0
  5 13  1  1  0  0  0
  7  2  1  0  0  0  0
  8  2  1  0  0  0  0
  9  3  1  0  0  0  0
 10  3  1  0  0  0  0
 11  4  1  0  0  0  0
 14 20  1  0  0  0  0
 15 21  1  0  0  0  0
 15 14  2  0  0  0  0
 16 15  1  0  0  0  0
 17 16  2  0  0  0  0
 17 18  1  0  0  0  0
 18 19  2  0  0  0  0
 19 14  1  0  0  0  0
 22 18  1  0  0  0  0
 23  5  1  0  0  0  0
 23 24  1  0  0  0  0
 24 26  1  0  0  0  0
 24 25  2  0  0  0  0
 27 26  1  0  0  0  0
M  END
>  <minimizedAffinity>
-4.2741313

$$$$

 OpenBabel03242513513D

 27 28  0  0  1  0  0  0  0  0999 V2000
   38.4440   27.1250   42.2530 C   0  0  2  0  0  0  0  0  0  0  0  0
   37.0020   26.6590   42.3940 C   0  0  0  0  0  0  0  0  0  0  0  0
   36.6470   27.3820   43.6790 C   0  0  0  0  0  0  0  0  0  0  0  0
   37.3470   28.6790   43.5890 C   0  0  0  0  0  0  0  0  0  0  0  0
   38.3050   28.6100   42.3030 C   0  0  2  0  0  0  0  0  0  0  0  0
   39.0780   26.8230   43.0890 H   0  0  0  0  0  0  0  0  0  0  0  0
   36.4550   27.1240   41.5670 H   0  0  0  0  0  0  0  0  0  0  0  0
   36.8880   25.5740   42.4520 H   0  0  0  0  0  0  0  0  0  0  0  0
   35.5290   27.4730   43.7240 H   0  0  0  0  0  0  0  0  0  0  0  0
   36.9610   26.7610   44.5570 H   0  0  0  0  0  0  0  0  0  0  0  0
   36.6630   29.5050   43.4050 H   0  0  0  0  0  0  0  0  0  0  0  0
   37.9930   28.8450   44.4740 H   0  0  0  0  0  0  0  0  0  0  0  0
   38.9840   29.3170   42.6820 H   0  0  0  0  0  0  0  0  0  0  0  0
   40.8390   26.5030   39.4180 C   0  0  0  0  0  0  0  0  0  0  0  0
   40.3640   26.9960   40.6460 C   0  0  0  0  0  0  0  0  0  0  0  0
   39.0830   26.6700   40.9970 C   0  0  0  0  0  0  0  0  0  0  0  0
   38.3510   25.8810   40.1230 N   0  0  0  0  0  0  0  0  0  0  0  0
   38.8270   25.4280   38.9670 C   0  0  0  0  0  0  0  0  0  0  0  0
   40.0630   25.7330   38.6090 N   0  0  0  0  0  0  0  0  0  0  0  0
   41.8430   26.7380   39.1050 H   0  0  0  0  0  0  0  0  0  0  0  0
   40.9740   27.6090   41.2960 H   0  0  0  0  0  0  0  0  0  0  0  0
   38.1070   24.8270   38.4210 H   0  0  0  0  0  0  0  0  0  0  0  0
   37.5340   29.1080   41.2370 O   0  0  0  0  0  0  0  0  0  0  0  0
   36.7130   30.1970   41.2870 C   0  0  0  0  0  0  0  0  0  0  0  0
   37.4330   31.2170   41.0170 O   0  0  0  0  0  0  0  0  0  0  0  0
   35.6260   31.0280   41.4220 O   0  0  0  0  0  0  0  0  0  0  0  0
   35.2030   31.2830   42.2990 H   0  0  0  0  0  0  0  0  0  0  0  0
  1  5  1  0  0  0  0
  1  2  1  0  0  0  0
  1  6  1  1  0  0  0
  2  8  1  0  0  0  0
  2  3  1  0  0  0  0
  3  9  1  0  0  0  0
  3 10  1  0  0  0  0
  4  3  1  0  0  0  0
  4 12  1  0  0  0  0
  5 13  1  1  0  0  0
  5  4  1  0  0  0  0
  7  2  1  0  0  0  0
 11  4  1  0  0  0  0
 14 15  1  0  0  0  0
 15 16  2  0  0  0  0
 15 21  1  0  0  0  0
 16  1  1  0  0  0  0
 17 16  1  0  0  0  0
 18 17  2  0  0  0  0
 19 18  1  0  0  0  0
 19 14  2  0  0  0  0
 20 14  1  0  0  0  0
 22 18  1  0  0  0  0
 23 24  1  0  0  0  0
 23  5  1  0  0  0  0
 24 26  1  0  0  0  0
 25 24  2  0  0  0  0
 26 27  1  0  0  0  0
M  END
>  <minimizedAffinity>
-4.25814247

$$$$

 OpenBabel03242513513D

 27 28  0  0  1  0  0  0  0  0999 V2000
   39.5680   28.8440   42.7090 C   0  0  2  0  0  0  0  0  0  0  0  0
   39.5590   27.4580   42.0800 C   0  0  0  0  0  0  0  0  0  0  0  0
   38.7930   26.7170   43.1600 C   0  0  0  0  0  0  0  0  0  0  0  0
   37.7810   27.6810   43.6350 C   0  0  0  0  0  0  0  0  0  0  0  0
   38.1150   29.0930   42.9490 C   0  0  2  0  0  0  0  0  0  0  0  0
   40.0740   28.8760   43.6750 H   0  0  0  0  0  0  0  0  0  0  0  0
   38.9250   27.5360   41.1910 H   0  0  0  0  0  0  0  0  0  0  0  0
   40.5540   27.0500   41.8870 H   0  0  0  0  0  0  0  0  0  0  0  0
   38.3560   25.7920   42.6960 H   0  0  0  0  0  0  0  0  0  0  0  0
   39.5030   26.3800   43.9580 H   0  0  0  0  0  0  0  0  0  0  0  0
   36.7770   27.4220   43.3030 H   0  0  0  0  0  0  0  0  0  0  0  0
   37.8480   27.8210   44.7310 H   0  0  0  0  0  0  0  0  0  0  0  0
   37.6680   29.6530   43.7170 H   0  0  0  0  0  0  0  0  0  0  0  0
   40.8490   32.0680   41.2500 C   0  0  0  0  0  0  0  0  0  0  0  0
   40.2640   31.1950   42.1850 C   0  0  0  0  0  0  0  0  0  0  0  0
   40.1690   29.8770   41.8330 C   0  0  0  0  0  0  0  0  0  0  0  0
   40.6550   29.4980   40.5910 N   0  0  0  0  0  0  0  0  0  0  0  0
   41.2050   30.3470   39.7270 C   0  0  0  0  0  0  0  0  0  0  0  0
   41.3050   31.6270   40.0470 N   0  0  0  0  0  0  0  0  0  0  0  0
   40.9430   33.1150   41.4890 H   0  0  0  0  0  0  0  0  0  0  0  0
   39.8990   31.5370   43.1430 H   0  0  0  0  0  0  0  0  0  0  0  0
   41.5250   29.8650   38.8090 H   0  0  0  0  0  0  0  0  0  0  0  0
   37.3740   29.1120   41.7540 O   0  0  0  0  0  0  0  0  0  0  0  0
   36.5280   30.1060   41.3560 C   0  0  0  0  0  0  0  0  0  0  0  0
   36.6760   30.2350   40.0930 O   0  0  0  0  0  0  0  0  0  0  0  0
   35.5910   31.1120   41.3260 O   0  0  0  0  0  0  0  0  0  0  0  0
   35.7430   32.0490   41.6620 H   0  0  0  0  0  0  0  0  0  0  0  0
  1  5  1  0  0  0  0
  1  6  1  1  0  0  0
  2  1  1  0  0  0  0
  2  3  1  0  0  0  0
  3  4  1  0  0  0  0
  3 10  1  0  0  0  0
  4 12  1  0  0  0  0
  5  4  1  0  0  0  0
  5 13  1  1  0  0  0
  7  2  1  0  0  0  0
  8  2  1  0  0  0  0
  9  3  1  0  0  0  0
 11  4  1  0  0  0  0
 14 20  1  0  0  0  0
 14 15  1  0  0  0  0
 15 21  1  0  0  0  0
 16 15  2  0  0  0  0
 16  1  1  0  0  0  0
 17 16  1  0  0  0  0
 18 19  1  0  0  0  0
 18 17  2  0  0  0  0
 19 14  2  0  0  0  0
 22 18  1  0  0  0  0
 23  5  1  0  0  0  0
 24 23  1  0  0  0  0
 25 24  2  0  0  0  0
 26 24  1  0  0  0  0
 26 27  1  0  0  0  0
M  END
>  <minimizedAffinity>
-4.21597815

$$$$

 OpenBabel03242513513D

 27 28  0  0  1  0  0  0  0  0999 V2000
   38.1060   31.7290   41.0050 C   0  0  2  0  0  0  0  0  0  0  0  0
   37.0210   31.9190   39.9540 C   0  0  0  0  0  0  0  0  0  0  0  0
   37.2670   33.3790   39.6240 C   0  0  0  0  0  0  0  0  0  0  0  0
   38.7340   33.5390   39.6870 C   0  0  0  0  0  0  0  0  0  0  0  0
   39.3330   32.1710   40.2790 C   0  0  2  0  0  0  0  0  0  0  0  0
   37.9820   32.3780   41.8730 H   0  0  0  0  0  0  0  0  0  0  0  0
   37.3250   31.3100   39.0960 H   0  0  0  0  0  0  0  0  0  0  0  0
   36.0110   31.7130   40.3140 H   0  0  0  0  0  0  0  0  0  0  0  0
   36.8330   33.5790   38.6090 H   0  0  0  0  0  0  0  0  0  0  0  0
   36.7120   34.0250   40.3520 H   0  0  0  0  0  0  0  0  0  0  0  0
   39.1800   33.6540   38.7010 H   0  0  0  0  0  0  0  0  0  0  0  0
   39.0160   34.3520   40.3840 H   0  0  0  0  0  0  0  0  0  0  0  0
   40.1910   32.6330   40.6700 H   0  0  0  0  0  0  0  0  0  0  0  0
   39.0710   28.5820   42.8280 C   0  0  0  0  0  0  0  0  0  0  0  0
   39.0610   29.9460   42.4860 C   0  0  0  0  0  0  0  0  0  0  0  0
   38.2170   30.3310   41.4800 C   0  0  0  0  0  0  0  0  0  0  0  0
   37.4380   29.3560   40.8760 N   0  0  0  0  0  0  0  0  0  0  0  0
   37.4680   28.0720   41.2220 C   0  0  0  0  0  0  0  0  0  0  0  0
   38.2780   27.6790   42.1910 N   0  0  0  0  0  0  0  0  0  0  0  0
   39.7220   28.2380   43.6150 H   0  0  0  0  0  0  0  0  0  0  0  0
   39.6870   30.6710   42.9860 H   0  0  0  0  0  0  0  0  0  0  0  0
   36.7890   27.4620   40.6370 H   0  0  0  0  0  0  0  0  0  0  0  0
   39.6060   31.3690   39.1570 O   0  0  0  0  0  0  0  0  0  0  0  0
   40.0420   31.8140   37.9440 C   0  0  0  0  0  0  0  0  0  0  0  0
   41.2540   31.4270   37.8200 O   0  0  0  0  0  0  0  0  0  0  0  0
   40.1270   32.4040   36.7040 O   0  0  0  0  0  0  0  0  0  0  0  0
   40.1960   33.3950   36.5420 H   0  0  0  0  0  0  0  0  0  0  0  0
  1 16  1  0  0  0  0
  1  6  1  1  0  0  0
  2  8  1  0  0  0  0
  2  1  1  0  0  0  0
  3  4  1  0  0  0  0
  3  2  1  0  0  0  0
  3 10  1  0  0  0  0
  4  5  1  0  0  0  0
  4 12  1  0  0  0  0
  5 13  1  1  0  0  0
  5  1  1  0  0  0  0
  7  2  1  0  0  0  0
  9  3  1  0  0  0  0
 11  4  1  0  0  0  0
 14 20  1  0  0  0  0
 15 14  1  0  0  0  0
 15 21  1  0  0  0  0
 16 15  2  0  0  0  0
 17 18  2  0  0  0  0
 17 16  1  0  0  0  0
 18 19  1  0  0  0  0
 19 14  2  0  0  0  0
 22 18  1  0  0  0  0
 23  5  1  0  0  0  0
 24 23  1  0  0  0  0
 25 24  2  0  0  0  0
 26 24  1  0  0  0  0
 27 26  1  0  0  0  0
M  END
>  <minimizedAffinity>
-4.20958376

$$$$

 OpenBabel03242513513D

 27 28  0  0  1  0  0  0  0  0999 V2000
   37.8270   28.4810   42.1680 C   0  0  2  0  0  0  0  0  0  0  0  0
   37.4910   28.4720   43.6530 C   0  0  0  0  0  0  0  0  0  0  0  0
   36.4370   27.3810   43.6480 C   0  0  0  0  0  0  0  0  0  0  0  0
   36.9150   26.3980   42.6540 C   0  0  0  0  0  0  0  0  0  0  0  0
   38.1800   27.0530   41.9140 C   0  0  2  0  0  0  0  0  0  0  0  0
   36.9740   28.7290   41.5350 H   0  0  0  0  0  0  0  0  0  0  0  0
   38.3840   28.0930   44.1600 H   0  0  0  0  0  0  0  0  0  0  0  0
   37.1310   29.4300   44.0340 H   0  0  0  0  0  0  0  0  0  0  0  0
   36.3620   26.9710   44.6900 H   0  0  0  0  0  0  0  0  0  0  0  0
   35.4400   27.8250   43.3970 H   0  0  0  0  0  0  0  0  0  0  0  0
   37.2840   25.4860   43.1200 H   0  0  0  0  0  0  0  0  0  0  0  0
   36.1440   26.2050   41.8830 H   0  0  0  0  0  0  0  0  0  0  0  0
   38.0450   26.4940   41.0350 H   0  0  0  0  0  0  0  0  0  0  0  0
   40.5500   31.0760   42.2690 C   0  0  0  0  0  0  0  0  0  0  0  0
   39.5050   30.2570   42.7310 C   0  0  0  0  0  0  0  0  0  0  0  0
   38.9420   29.3960   41.8300 C   0  0  0  0  0  0  0  0  0  0  0  0
   39.4390   29.3920   40.5360 N   0  0  0  0  0  0  0  0  0  0  0  0
   40.4300   30.1790   40.1270 C   0  0  0  0  0  0  0  0  0  0  0  0
   40.9880   31.0200   40.9830 N   0  0  0  0  0  0  0  0  0  0  0  0
   41.0200   31.7690   42.9480 H   0  0  0  0  0  0  0  0  0  0  0  0
   39.1500   30.2950   43.7520 H   0  0  0  0  0  0  0  0  0  0  0  0
   40.6810   30.0340   39.0820 H   0  0  0  0  0  0  0  0  0  0  0  0
   39.3010   26.6410   42.6570 O   0  0  0  0  0  0  0  0  0  0  0  0
   39.5810   25.3600   43.0360 C   0  0  0  0  0  0  0  0  0  0  0  0
   40.7490   25.3730   43.5530 O   0  0  0  0  0  0  0  0  0  0  0  0
   39.5140   24.0080   43.2740 O   0  0  0  0  0  0  0  0  0  0  0  0
   39.5940   23.2950   42.5680 H   0  0  0  0  0  0  0  0  0  0  0  0
  1  6  1  6  0  0  0
  1  2  1  0  0  0  0
  2  8  1  0  0  0  0
  2  7  1  0  0  0  0
  3  2  1  0  0  0  0
  3  9  1  0  0  0  0
  4 11  1  0  0  0  0
  4  3  1  0  0  0  0
  5 13  1  6  0  0  0
  5  1  1  0  0  0  0
  5  4  1  0  0  0  0
  5 23  1  0  0  0  0
 10  3  1  0  0  0  0
 12  4  1  0  0  0  0
 14 15  1  0  0  0  0
 14 20  1  0  0  0  0
 15 21  1  0  0  0  0
 16  1  1  0  0  0  0
 16 15  2  0  0  0  0
 17 16  1  0  0  0  0
 18 17  2  0  0  0  0
 18 19  1  0  0  0  0
 19 14  2  0  0  0  0
 22 18  1  0  0  0  0
 23 24  1  0  0  0  0
 24 26  1  0  0  0  0
 24 25  2  0  0  0  0
 27 26  1  0  0  0  0
M  END
>  <minimizedAffinity>
-4.15328217

$$$$

 OpenBabel03242513513D

 27 28  0  0  1  0  0  0  0  0999 V2000
   37.3590   29.3850   42.2840 C   0  0  2  0  0  0  0  0  0  0  0  0
   38.6030   28.6260   42.7220 C   0  0  0  0  0  0  0  0  0  0  0  0
   37.9520   27.6390   43.6720 C   0  0  0  0  0  0  0  0  0  0  0  0
   36.6600   27.3010   43.0410 C   0  0  0  0  0  0  0  0  0  0  0  0
   36.4750   28.2890   41.7890 C   0  0  2  0  0  0  0  0  0  0  0  0
   36.8430   29.8800   43.1080 H   0  0  0  0  0  0  0  0  0  0  0  0
   38.9500   28.0830   41.8370 H   0  0  0  0  0  0  0  0  0  0  0  0
   39.3650   29.2520   43.1910 H   0  0  0  0  0  0  0  0  0  0  0  0
   38.6450   26.7630   43.7840 H   0  0  0  0  0  0  0  0  0  0  0  0
   37.8490   28.1070   44.6850 H   0  0  0  0  0  0  0  0  0  0  0  0
   36.6540   26.2950   42.6260 H   0  0  0  0  0  0  0  0  0  0  0  0
   35.8180   27.4850   43.7350 H   0  0  0  0  0  0  0  0  0  0  0  0
   35.4260   28.2360   41.8120 H   0  0  0  0  0  0  0  0  0  0  0  0
   37.0640   32.1020   39.6970 C   0  0  0  0  0  0  0  0  0  0  0  0
   36.6640   31.1960   40.6940 C   0  0  0  0  0  0  0  0  0  0  0  0
   37.6320   30.3930   41.2340 C   0  0  0  0  0  0  0  0  0  0  0  0
   38.9280   30.5310   40.7610 N   0  0  0  0  0  0  0  0  0  0  0  0
   39.2780   31.3990   39.8160 C   0  0  0  0  0  0  0  0  0  0  0  0
   38.3560   32.1830   39.2810 N   0  0  0  0  0  0  0  0  0  0  0  0
   36.3320   32.7520   39.2460 H   0  0  0  0  0  0  0  0  0  0  0  0
   35.6390   31.1240   41.0310 H   0  0  0  0  0  0  0  0  0  0  0  0
   40.3360   31.3610   39.5790 H   0  0  0  0  0  0  0  0  0  0  0  0
   37.0330   27.6090   40.6920 O   0  0  0  0  0  0  0  0  0  0  0  0
   36.3680   27.2390   39.5590 C   0  0  0  0  0  0  0  0  0  0  0  0
   35.5080   28.1530   39.3190 O   0  0  0  0  0  0  0  0  0  0  0  0
   35.9340   26.5670   38.4410 O   0  0  0  0  0  0  0  0  0  0  0  0
   35.3710   25.7330   38.4540 H   0  0  0  0  0  0  0  0  0  0  0  0
  1  2  1  0  0  0  0
  1  6  1  1  0  0  0
  2  8  1  0  0  0  0
  2  3  1  0  0  0  0
  3  9  1  0  0  0  0
  3 10  1  0  0  0  0
  4  3  1  0  0  0  0
  4 12  1  0  0  0  0
  5 13  1  6  0  0  0
  5  1  1  0  0  0  0
  5  4  1  0  0  0  0
  7  2  1  0  0  0  0
 11  4  1  0  0  0  0
 14 15  1  0  0  0  0
 15 21  1  0  0  0  0
 15 16  2  0  0  0  0
 16  1  1  0  0  0  0
 17 16  1  0  0  0  0
 18 17  2  0  0  0  0
 19 14  2  0  0  0  0
 19 18  1  0  0  0  0
 20 14  1  0  0  0  0
 22 18  1  0  0  0  0
 23  5  1  0  0  0  0
 24 23  1  0  0  0  0
 25 24  2  0  0  0  0
 26 27  1  0  0  0  0
 26 24  1  0  0  0  0
M  END
>  <minimizedAffinity>
-4.12011862

$$$$

 OpenBabel03242513513D

 27 28  0  0  1  0  0  0  0  0999 V2000
   37.0740   29.6720   39.8470 C   0  0  2  0  0  0  0  0  0  0  0  0
   38.1890   29.7330   38.8130 C   0  0  0  0  0  0  0  0  0  0  0  0
   37.6560   30.8690   37.9610 C   0  0  0  0  0  0  0  0  0  0  0  0
   37.0370   31.8040   38.9220 C   0  0  0  0  0  0  0  0  0  0  0  0
   37.0320   31.0760   40.3520 C   0  0  2  0  0  0  0  0  0  0  0  0
   36.0980   29.4450   39.4150 H   0  0  0  0  0  0  0  0  0  0  0  0
   39.0770   30.0840   39.3500 H   0  0  0  0  0  0  0  0  0  0  0  0
   38.3380   28.8010   38.2620 H   0  0  0  0  0  0  0  0  0  0  0  0
   38.5210   31.3070   37.3940 H   0  0  0  0  0  0  0  0  0  0  0  0
   36.9390   30.4630   37.2020 H   0  0  0  0  0  0  0  0  0  0  0  0
   37.6260   32.7100   39.0540 H   0  0  0  0  0  0  0  0  0  0  0  0
   35.9840   32.0120   38.6520 H   0  0  0  0  0  0  0  0  0  0  0  0
   36.2040   31.6170   40.7050 H   0  0  0  0  0  0  0  0  0  0  0  0
   36.8020   27.4250   42.8530 C   0  0  0  0  0  0  0  0  0  0  0  0
   36.4090   28.3540   41.8730 C   0  0  0  0  0  0  0  0  0  0  0  0
   37.3400   28.7000   40.9330 C   0  0  0  0  0  0  0  0  0  0  0  0
   38.5940   28.1140   41.0130 N   0  0  0  0  0  0  0  0  0  0  0  0
   38.9370   27.2380   41.9520 C   0  0  0  0  0  0  0  0  0  0  0  0
   38.0520   26.8900   42.8720 N   0  0  0  0  0  0  0  0  0  0  0  0
   36.0970   27.1260   43.6130 H   0  0  0  0  0  0  0  0  0  0  0  0
   35.4170   28.7840   41.8510 H   0  0  0  0  0  0  0  0  0  0  0  0
   39.9600   26.8900   41.8510 H   0  0  0  0  0  0  0  0  0  0  0  0
   38.2370   31.4560   40.9690 O   0  0  0  0  0  0  0  0  0  0  0  0
   38.6880   32.7350   41.1190 C   0  0  0  0  0  0  0  0  0  0  0  0
   39.9060   32.7470   40.7330 O   0  0  0  0  0  0  0  0  0  0  0  0
   38.7860   34.0780   41.3980 O   0  0  0  0  0  0  0  0  0  0  0  0
   38.8440   34.4710   42.3220 H   0  0  0  0  0  0  0  0  0  0  0  0
  1  6  1  6  0  0  0
  1  5  1  0  0  0  0
  1 16  1  0  0  0  0
  2  7  1  0  0  0  0
  2  1  1  0  0  0  0
  3  2  1  0  0  0  0
  3  4  1  0  0  0  0
  4 11  1  0  0  0  0
  4  5  1  0  0  0  0
  5 13  1  1  0  0  0
  5 23  1  0  0  0  0
  8  2  1  0  0  0  0
  9  3  1  0  0  0  0
 10  3  1  0  0  0  0
 12  4  1  0  0  0  0
 14 19  1  0  0  0  0
 14 20  1  0  0  0  0
 15 14  2  0  0  0  0
 16 17  2  0  0  0  0
 16 15  1  0  0  0  0
 17 18  1  0  0  0  0
 18 19  2  0  0  0  0
 21 15  1  0  0  0  0
 22 18  1  0  0  0  0
 23 24  1  0  0  0  0
 24 26  1  0  0  0  0
 25 24  2  0  0  0  0
 26 27  1  0  0  0  0
M  END
>  <minimizedAffinity>
-4.07659292

$$$$
