
 OpenBabel03242520543D

 24 24  0  0  0  0  0  0  0  0999 V2000
   36.5030   31.0750   40.8090 C   0  0  0  0  0  0  0  0  0  0  0  0
   36.5570   30.0050   41.7080 C   0  0  0  0  0  0  0  0  0  0  0  0
   37.7540   29.7120   42.3280 C   0  0  0  0  0  0  0  0  0  0  0  0
   38.7970   30.4870   42.0180 N   0  0  0  0  0  0  0  0  0  0  0  0
   38.7490   31.5050   41.1640 C   0  0  0  0  0  0  0  0  0  0  0  0
   37.5990   31.8110   40.5480 N   0  0  0  0  0  0  0  0  0  0  0  0
   35.5750   31.3170   40.3180 H   0  0  0  0  0  0  0  0  0  0  0  0
   35.6950   29.3990   41.9370 H   0  0  0  0  0  0  0  0  0  0  0  0
   39.9380   32.3140   40.8720 C   0  0  0  0  0  3  0  0  0  0  0  0
   39.9050   33.3720   40.0990 C   0  0  0  0  0  3  0  0  0  0  0  0
   41.1120   34.1700   39.8210 C   0  0  0  0  0  0  0  0  0  0  0  0
   40.9540   35.1630   40.3370 H   0  0  0  0  0  0  0  0  0  0  0  0
   42.0260   33.7720   40.2730 H   0  0  0  0  0  0  0  0  0  0  0  0
   42.5530   34.3730   37.9520 C   0  0  0  0  0  0  0  0  0  0  0  0
   43.6370   34.1340   38.5700 O   0  0  0  0  0  0  0  0  0  0  0  0
   41.2350   34.5050   38.4280 N   0  0  0  0  0  0  0  0  0  0  0  0
   40.5160   34.8110   37.7820 H   0  0  0  0  0  0  0  0  0  0  0  0
   42.8460   34.5070   36.5740 O   0  0  0  0  0  0  0  0  0  0  0  0
   43.6000   35.0650   36.1920 H   0  0  0  0  0  0  0  0  0  0  0  0
   37.9280   28.6880   43.2260 O   0  0  0  0  0  0  0  0  0  0  0  0
   38.1750   27.3900   42.6900 C   0  0  0  0  0  0  0  0  0  0  0  0
   39.1270   26.7510   43.4830 F   0  0  0  0  0  0  0  0  0  0  0  0
   36.9690   26.6710   42.7580 F   0  0  0  0  0  0  0  0  0  0  0  0
   38.5790   27.4380   41.3540 F   0  0  0  0  0  0  0  0  0  0  0  0
  1  2  1  0  0  0  0
  2  8  1  0  0  0  0
  2  3  2  0  0  0  0
  3 20  1  0  0  0  0
  4  3  1  0  0  0  0
  5  4  2  0  0  0  0
  6  1  2  0  0  0  0
  6  5  1  0  0  0  0
  7  1  1  0  0  0  0
  9  5  1  0  0  0  0
 10  9  2  0  0  0  0
 11 10  1  0  0  0  0
 11 13  1  0  0  0  0
 11 12  1  0  0  0  0
 14 16  1  0  0  0  0
 14 15  2  0  0  0  0
 16 11  1  0  0  0  0
 17 16  1  0  0  0  0
 18 14  1  0  0  0  0
 19 18  1  0  0  0  0
 21 23  1  0  0  0  0
 21 20  1  0  0  0  0
 21 22  1  0  0  0  0
 24 21  1  0  0  0  0
M  END
>  <minimizedAffinity>
-4.98896694

$$$$

 OpenBabel03242520543D

 24 24  0  0  0  0  0  0  0  0999 V2000
   39.9860   26.7110   43.4920 C   0  0  0  0  0  0  0  0  0  0  0  0
   39.6060   25.3860   43.2520 C   0  0  0  0  0  0  0  0  0  0  0  0
   38.4860   25.1390   42.4850 C   0  0  0  0  0  0  0  0  0  0  0  0
   37.8310   26.2050   42.0180 N   0  0  0  0  0  0  0  0  0  0  0  0
   38.1890   27.4660   42.2430 C   0  0  0  0  0  0  0  0  0  0  0  0
   39.2730   27.7330   42.9850 N   0  0  0  0  0  0  0  0  0  0  0  0
   40.8580   26.9190   44.0880 H   0  0  0  0  0  0  0  0  0  0  0  0
   40.1580   24.5470   43.6440 H   0  0  0  0  0  0  0  0  0  0  0  0
   37.4190   28.5880   41.6960 C   0  0  0  0  0  3  0  0  0  0  0  0
   36.2090   28.4490   41.2100 C   0  0  0  0  0  3  0  0  0  0  0  0
   35.4540   29.5920   40.6660 C   0  0  0  0  0  0  0  0  0  0  0  0
   35.7130   29.6400   39.5680 H   0  0  0  0  0  0  0  0  0  0  0  0
   34.3670   29.4590   40.6840 H   0  0  0  0  0  0  0  0  0  0  0  0
   36.6250   31.6090   40.2550 C   0  0  0  0  0  0  0  0  0  0  0  0
   37.0290   31.3130   39.0860 O   0  0  0  0  0  0  0  0  0  0  0  0
   35.9080   30.8480   41.1970 N   0  0  0  0  0  0  0  0  0  0  0  0
   35.7780   31.2300   42.1280 H   0  0  0  0  0  0  0  0  0  0  0  0
   37.0200   32.9370   40.5390 O   0  0  0  0  0  0  0  0  0  0  0  0
   37.9460   33.3150   40.3800 H   0  0  0  0  0  0  0  0  0  0  0  0
   38.0180   23.8830   42.1840 O   0  0  0  0  0  0  0  0  0  0  0  0
   38.0680   23.4840   40.8160 C   0  0  0  0  0  0  0  0  0  0  0  0
   39.2650   23.9360   40.2600 F   0  0  0  0  0  0  0  0  0  0  0  0
   38.0550   22.0790   40.7880 F   0  0  0  0  0  0  0  0  0  0  0  0
   36.9680   23.9450   40.0900 F   0  0  0  0  0  0  0  0  0  0  0  0
  1  7  1  0  0  0  0
  2  1  1  0  0  0  0
  2  8  1  0  0  0  0
  3  2  2  0  0  0  0
  4  5  2  0  0  0  0
  4  3  1  0  0  0  0
  5  6  1  0  0  0  0
  6  1  2  0  0  0  0
  9  5  1  0  0  0  0
 10  9  2  0  0  0  0
 11 13  1  0  0  0  0
 11 16  1  0  0  0  0
 11 10  1  0  0  0  0
 12 11  1  0  0  0  0
 14 18  1  0  0  0  0
 14 16  1  0  0  0  0
 15 14  2  0  0  0  0
 16 17  1  0  0  0  0
 19 18  1  0  0  0  0
 20  3  1  0  0  0  0
 21 20  1  0  0  0  0
 22 21  1  0  0  0  0
 23 21  1  0  0  0  0
 24 21  1  0  0  0  0
M  END
>  <minimizedAffinity>
-4.97902584

$$$$

 OpenBabel03242520543D

 24 24  0  0  0  0  0  0  0  0999 V2000
   34.8770   28.0560   35.7370 C   0  0  0  0  0  0  0  0  0  0  0  0
   35.3110   28.4360   34.4630 C   0  0  0  0  0  0  0  0  0  0  0  0
   36.2310   29.4580   34.3470 C   0  0  0  0  0  0  0  0  0  0  0  0
   36.6490   30.0210   35.4830 N   0  0  0  0  0  0  0  0  0  0  0  0
   36.2390   29.6620   36.6960 C   0  0  0  0  0  0  0  0  0  0  0  0
   35.3470   28.6730   36.8370 N   0  0  0  0  0  0  0  0  0  0  0  0
   34.1600   27.2590   35.8440 H   0  0  0  0  0  0  0  0  0  0  0  0
   34.9530   27.9590   33.5650 H   0  0  0  0  0  0  0  0  0  0  0  0
   36.7440   30.3290   37.9010 C   0  0  0  0  0  3  0  0  0  0  0  0
   36.2060   30.1590   39.0850 C   0  0  0  0  0  3  0  0  0  0  0  0
   36.7310   30.8390   40.2830 C   0  0  0  0  0  0  0  0  0  0  0  0
   37.8410   30.6320   40.2950 H   0  0  0  0  0  0  0  0  0  0  0  0
   36.6580   31.9310   40.2460 H   0  0  0  0  0  0  0  0  0  0  0  0
   37.2580   29.6160   42.2410 C   0  0  0  0  0  0  0  0  0  0  0  0
   38.4720   29.3800   41.9500 O   0  0  0  0  0  0  0  0  0  0  0  0
   36.2430   30.2510   41.5010 N   0  0  0  0  0  0  0  0  0  0  0  0
   35.2980   30.2420   41.8690 H   0  0  0  0  0  0  0  0  0  0  0  0
   37.0060   29.1140   43.5400 O   0  0  0  0  0  0  0  0  0  0  0  0
   37.2750   28.1950   43.8710 H   0  0  0  0  0  0  0  0  0  0  0  0
   36.7280   29.9170   33.1520 O   0  0  0  0  0  0  0  0  0  0  0  0
   36.3830   31.2470   32.7740 C   0  0  0  0  0  0  0  0  0  0  0  0
   35.2010   31.6050   33.4230 F   0  0  0  0  0  0  0  0  0  0  0  0
   37.4170   32.0900   33.2150 F   0  0  0  0  0  0  0  0  0  0  0  0
   36.2630   31.3900   31.3900 F   0  0  0  0  0  0  0  0  0  0  0  0
  1  7  1  0  0  0  0
  1  6  1  0  0  0  0
  2  1  2  0  0  0  0
  3  2  1  0  0  0  0
  3  4  2  0  0  0  0
  4  5  1  0  0  0  0
  5  6  2  0  0  0  0
  5  9  1  0  0  0  0
  8  2  1  0  0  0  0
  9 10  2  0  0  0  0
 10 11  1  0  0  0  0
 11 12  1  0  0  0  0
 11 16  1  0  0  0  0
 13 11  1  0  0  0  0
 14 18  1  0  0  0  0
 15 14  2  0  0  0  0
 16 17  1  0  0  0  0
 16 14  1  0  0  0  0
 18 19  1  0  0  0  0
 20  3  1  0  0  0  0
 21 20  1  0  0  0  0
 21 23  1  0  0  0  0
 21 22  1  0  0  0  0
 24 21  1  0  0  0  0
M  END
>  <minimizedAffinity>
-4.94689512

$$$$

 OpenBabel03242520543D

 24 24  0  0  0  0  0  0  0  0999 V2000
   35.9940   28.9840   37.7530 C   0  0  0  0  0  0  0  0  0  0  0  0
   35.6500   28.3440   38.9470 C   0  0  0  0  0  0  0  0  0  0  0  0
   35.8670   28.9970   40.1430 C   0  0  0  0  0  0  0  0  0  0  0  0
   36.4010   30.2180   40.0720 N   0  0  0  0  0  0  0  0  0  0  0  0
   36.7300   30.8300   38.9380 C   0  0  0  0  0  0  0  0  0  0  0  0
   36.5300   30.2180   37.7630 N   0  0  0  0  0  0  0  0  0  0  0  0
   35.8300   28.4870   36.8110 H   0  0  0  0  0  0  0  0  0  0  0  0
   35.2190   27.3560   38.9690 H   0  0  0  0  0  0  0  0  0  0  0  0
   37.3150   32.1760   38.9380 C   0  0  0  0  0  3  0  0  0  0  0  0
   37.4450   32.8940   40.0270 C   0  0  0  0  0  3  0  0  0  0  0  0
   38.0360   34.2440   40.0030 C   0  0  0  0  0  0  0  0  0  0  0  0
   38.6010   34.3170   39.0280 H   0  0  0  0  0  0  0  0  0  0  0  0
   37.3010   35.0540   39.9540 H   0  0  0  0  0  0  0  0  0  0  0  0
   40.3490   34.2500   40.5160 C   0  0  0  0  0  0  0  0  0  0  0  0
   40.7570   33.8610   39.3770 O   0  0  0  0  0  0  0  0  0  0  0  0
   39.0430   34.4150   41.0160 N   0  0  0  0  0  0  0  0  0  0  0  0
   38.9260   34.6310   41.9990 H   0  0  0  0  0  0  0  0  0  0  0  0
   41.4770   34.5310   41.3220 O   0  0  0  0  0  0  0  0  0  0  0  0
   42.2840   33.9260   41.4230 H   0  0  0  0  0  0  0  0  0  0  0  0
   35.5690   28.4690   41.3760 O   0  0  0  0  0  0  0  0  0  0  0  0
   36.6690   28.1140   42.2110 C   0  0  0  0  0  0  0  0  0  0  0  0
   36.2360   27.1750   43.1470 F   0  0  0  0  0  0  0  0  0  0  0  0
   37.6450   27.5220   41.3910 F   0  0  0  0  0  0  0  0  0  0  0  0
   37.2390   29.2250   42.8360 F   0  0  0  0  0  0  0  0  0  0  0  0
  1  6  2  0  0  0  0
  1  2  1  0  0  0  0
  2  8  1  0  0  0  0
  2  3  2  0  0  0  0
  3 20  1  0  0  0  0
  4  3  1  0  0  0  0
  5  9  1  0  0  0  0
  5  4  2  0  0  0  0
  6  5  1  0  0  0  0
  7  1  1  0  0  0  0
  9 10  2  0  0  0  0
 11 10  1  0  0  0  0
 11 16  1  0  0  0  0
 12 11  1  0  0  0  0
 13 11  1  0  0  0  0
 14 16  1  0  0  0  0
 14 18  1  0  0  0  0
 15 14  2  0  0  0  0
 16 17  1  0  0  0  0
 18 19  1  0  0  0  0
 20 21  1  0  0  0  0
 21 24  1  0  0  0  0
 21 22  1  0  0  0  0
 23 21  1  0  0  0  0
M  END
>  <minimizedAffinity>
-4.84093809

$$$$

 OpenBabel03242520543D

 24 24  0  0  0  0  0  0  0  0999 V2000
   36.1050   27.5370   36.2940 C   0  0  0  0  0  0  0  0  0  0  0  0
   36.1970   27.9800   34.9700 C   0  0  0  0  0  0  0  0  0  0  0  0
   36.5370   29.2950   34.7270 C   0  0  0  0  0  0  0  0  0  0  0  0
   36.7580   30.0660   35.7940 N   0  0  0  0  0  0  0  0  0  0  0  0
   36.6720   29.6480   37.0540 C   0  0  0  0  0  0  0  0  0  0  0  0
   36.3440   28.3760   37.3180 N   0  0  0  0  0  0  0  0  0  0  0  0
   35.8410   26.5140   36.5000 H   0  0  0  0  0  0  0  0  0  0  0  0
   36.0120   27.3300   34.1300 H   0  0  0  0  0  0  0  0  0  0  0  0
   36.9290   30.5550   38.1780 C   0  0  0  0  0  3  0  0  0  0  0  0
   36.4570   30.3440   39.3830 C   0  0  0  0  0  3  0  0  0  0  0  0
   36.7300   31.2690   40.4980 C   0  0  0  0  0  0  0  0  0  0  0  0
   35.8380   31.1960   41.1870 H   0  0  0  0  0  0  0  0  0  0  0  0
   37.5810   30.9780   41.1230 H   0  0  0  0  0  0  0  0  0  0  0  0
   38.0120   33.2400   40.2110 C   0  0  0  0  0  0  0  0  0  0  0  0
   39.0780   32.8060   40.7500 O   0  0  0  0  0  0  0  0  0  0  0  0
   36.7440   32.6430   40.0750 N   0  0  0  0  0  0  0  0  0  0  0  0
   35.9840   33.2040   39.7070 H   0  0  0  0  0  0  0  0  0  0  0  0
   38.2650   34.5360   39.7050 O   0  0  0  0  0  0  0  0  0  0  0  0
   38.7310   35.2780   40.2140 H   0  0  0  0  0  0  0  0  0  0  0  0
   36.6570   29.8410   33.4720 O   0  0  0  0  0  0  0  0  0  0  0  0
   36.2010   31.1810   33.3030 C   0  0  0  0  0  0  0  0  0  0  0  0
   37.0360   32.0340   34.0240 F   0  0  0  0  0  0  0  0  0  0  0  0
   36.3050   31.4910   31.9360 F   0  0  0  0  0  0  0  0  0  0  0  0
   34.8670   31.3390   33.6850 F   0  0  0  0  0  0  0  0  0  0  0  0
  1  7  1  0  0  0  0
  1  6  1  0  0  0  0
  2  1  2  0  0  0  0
  3  2  1  0  0  0  0
  3  4  2  0  0  0  0
  4  5  1  0  0  0  0
  5  6  2  0  0  0  0
  5  9  1  0  0  0  0
  8  2  1  0  0  0  0
  9 10  2  0  0  0  0
 10 11  1  0  0  0  0
 11 13  1  0  0  0  0
 11 12  1  0  0  0  0
 14 15  2  0  0  0  0
 16 14  1  0  0  0  0
 16 11  1  0  0  0  0
 17 16  1  0  0  0  0
 18 14  1  0  0  0  0
 18 19  1  0  0  0  0
 20  3  1  0  0  0  0
 21 20  1  0  0  0  0
 21 24  1  0  0  0  0
 21 22  1  0  0  0  0
 23 21  1  0  0  0  0
M  END
>  <minimizedAffinity>
-4.82618809

$$$$

 OpenBabel03242520543D

 24 24  0  0  0  0  0  0  0  0999 V2000
   36.6350   26.6580   38.6630 C   0  0  0  0  0  0  0  0  0  0  0  0
   36.9010   26.0220   39.8810 C   0  0  0  0  0  0  0  0  0  0  0  0
   36.9860   26.7830   41.0280 C   0  0  0  0  0  0  0  0  0  0  0  0
   36.8030   28.0990   40.8910 N   0  0  0  0  0  0  0  0  0  0  0  0
   36.5500   28.7060   39.7360 C   0  0  0  0  0  0  0  0  0  0  0  0
   36.4630   27.9910   38.6070 N   0  0  0  0  0  0  0  0  0  0  0  0
   36.5660   26.0770   37.7590 H   0  0  0  0  0  0  0  0  0  0  0  0
   37.0430   24.9560   39.9560 H   0  0  0  0  0  0  0  0  0  0  0  0
   36.3610   30.1590   39.6630 C   0  0  0  0  0  3  0  0  0  0  0  0
   37.2640   30.9690   39.1660 C   0  0  0  0  0  3  0  0  0  0  0  0
   37.0520   32.4260   39.1020 C   0  0  0  0  0  0  0  0  0  0  0  0
   37.8950   32.8350   38.4720 H   0  0  0  0  0  0  0  0  0  0  0  0
   36.1440   32.7230   38.5670 H   0  0  0  0  0  0  0  0  0  0  0  0
   38.4580   33.7210   40.5010 C   0  0  0  0  0  0  0  0  0  0  0  0
   39.4660   33.7390   39.7260 O   0  0  0  0  0  0  0  0  0  0  0  0
   37.2220   33.0580   40.3820 N   0  0  0  0  0  0  0  0  0  0  0  0
   36.5840   33.0810   41.1700 H   0  0  0  0  0  0  0  0  0  0  0  0
   38.7460   34.5310   41.6250 O   0  0  0  0  0  0  0  0  0  0  0  0
   39.6040   34.4960   42.1610 H   0  0  0  0  0  0  0  0  0  0  0  0
   37.2420   26.2710   42.2770 O   0  0  0  0  0  0  0  0  0  0  0  0
   38.6060   26.0200   42.6070 C   0  0  0  0  0  0  0  0  0  0  0  0
   38.8690   26.5560   43.8670 F   0  0  0  0  0  0  0  0  0  0  0  0
   38.7740   24.6250   42.6610 F   0  0  0  0  0  0  0  0  0  0  0  0
   39.4840   26.5280   41.6480 F   0  0  0  0  0  0  0  0  0  0  0  0
  1  2  1  0  0  0  0
  2  8  1  0  0  0  0
  2  3  2  0  0  0  0
  3 20  1  0  0  0  0
  4  3  1  0  0  0  0
  5  4  2  0  0  0  0
  6  1  2  0  0  0  0
  6  5  1  0  0  0  0
  7  1  1  0  0  0  0
  9  5  1  0  0  0  0
 10  9  2  0  0  0  0
 11 10  1  0  0  0  0
 11 16  1  0  0  0  0
 12 11  1  0  0  0  0
 13 11  1  0  0  0  0
 14 18  1  0  0  0  0
 15 14  2  0  0  0  0
 16 14  1  0  0  0  0
 16 17  1  0  0  0  0
 18 19  1  0  0  0  0
 20 21  1  0  0  0  0
 21 23  1  0  0  0  0
 21 22  1  0  0  0  0
 24 21  1  0  0  0  0
M  END
>  <minimizedAffinity>
-4.7689271

$$$$

 OpenBabel03242520543D

 24 24  0  0  0  0  0  0  0  0999 V2000
   37.6700   24.1330   41.9610 C   0  0  0  0  0  0  0  0  0  0  0  0
   38.7670   24.4190   42.7800 C   0  0  0  0  0  0  0  0  0  0  0  0
   39.1920   25.7260   42.8980 C   0  0  0  0  0  0  0  0  0  0  0  0
   38.5100   26.6430   42.2070 N   0  0  0  0  0  0  0  0  0  0  0  0
   37.4670   26.3750   41.4280 C   0  0  0  0  0  0  0  0  0  0  0  0
   37.0340   25.1140   41.2960 N   0  0  0  0  0  0  0  0  0  0  0  0
   37.3270   23.1170   41.8600 H   0  0  0  0  0  0  0  0  0  0  0  0
   39.2960   23.6530   43.3260 H   0  0  0  0  0  0  0  0  0  0  0  0
   36.7660   27.4370   40.6980 C   0  0  0  0  0  3  0  0  0  0  0  0
   36.1460   28.4230   41.3000 C   0  0  0  0  0  3  0  0  0  0  0  0
   35.4490   29.4800   40.5450 C   0  0  0  0  0  0  0  0  0  0  0  0
   35.9170   29.4880   39.5180 H   0  0  0  0  0  0  0  0  0  0  0  0
   34.3900   29.2750   40.3600 H   0  0  0  0  0  0  0  0  0  0  0  0
   36.6830   31.4900   40.3220 C   0  0  0  0  0  0  0  0  0  0  0  0
   37.4210   31.1080   39.3610 O   0  0  0  0  0  0  0  0  0  0  0  0
   35.7170   30.7920   41.0710 N   0  0  0  0  0  0  0  0  0  0  0  0
   35.3100   31.2480   41.8800 H   0  0  0  0  0  0  0  0  0  0  0  0
   36.9670   32.8500   40.5880 O   0  0  0  0  0  0  0  0  0  0  0  0
   37.8970   33.2420   40.6800 H   0  0  0  0  0  0  0  0  0  0  0  0
   40.2550   26.1260   43.6700 O   0  0  0  0  0  0  0  0  0  0  0  0
   41.5160   26.2580   43.0190 C   0  0  0  0  0  0  0  0  0  0  0  0
   42.5120   25.7750   43.8670 F   0  0  0  0  0  0  0  0  0  0  0  0
   41.4770   25.4590   41.8630 F   0  0  0  0  0  0  0  0  0  0  0  0
   41.7760   27.5740   42.6310 F   0  0  0  0  0  0  0  0  0  0  0  0
  1  2  1  0  0  0  0
  2  3  2  0  0  0  0
  2  8  1  0  0  0  0
  3 20  1  0  0  0  0
  4  3  1  0  0  0  0
  5  4  2  0  0  0  0
  6  5  1  0  0  0  0
  6  1  2  0  0  0  0
  7  1  1  0  0  0  0
  9 10  2  0  0  0  0
  9  5  1  0  0  0  0
 11 16  1  0  0  0  0
 11 10  1  0  0  0  0
 12 11  1  0  0  0  0
 13 11  1  0  0  0  0
 14 18  1  0  0  0  0
 14 16  1  0  0  0  0
 15 14  2  0  0  0  0
 16 17  1  0  0  0  0
 18 19  1  0  0  0  0
 21 20  1  0  0  0  0
 21 22  1  0  0  0  0
 23 21  1  0  0  0  0
 24 21  1  0  0  0  0
M  END
>  <minimizedAffinity>
-4.71823978

$$$$

 OpenBabel03242520543D

 24 24  0  0  0  0  0  0  0  0999 V2000
   35.7100   29.3090   38.5890 C   0  0  0  0  0  0  0  0  0  0  0  0
   35.5520   28.6420   39.8090 C   0  0  0  0  0  0  0  0  0  0  0  0
   36.2710   29.0720   40.9040 C   0  0  0  0  0  0  0  0  0  0  0  0
   37.0830   30.1150   40.7180 N   0  0  0  0  0  0  0  0  0  0  0  0
   37.2360   30.7520   39.5610 C   0  0  0  0  0  0  0  0  0  0  0  0
   36.5490   30.3540   38.4810 N   0  0  0  0  0  0  0  0  0  0  0  0
   35.1550   28.9850   37.7250 H   0  0  0  0  0  0  0  0  0  0  0  0
   34.8860   27.8020   39.9250 H   0  0  0  0  0  0  0  0  0  0  0  0
   38.1490   31.8930   39.4310 C   0  0  0  0  0  3  0  0  0  0  0  0
   39.4070   31.8410   39.7960 C   0  0  0  0  0  3  0  0  0  0  0  0
   40.3060   33.0000   39.6560 C   0  0  0  0  0  0  0  0  0  0  0  0
   39.7440   33.8820   40.0830 H   0  0  0  0  0  0  0  0  0  0  0  0
   41.2160   32.9380   40.2620 H   0  0  0  0  0  0  0  0  0  0  0  0
   41.8260   33.8580   38.0540 C   0  0  0  0  0  0  0  0  0  0  0  0
   42.7500   34.1630   38.8710 O   0  0  0  0  0  0  0  0  0  0  0  0
   40.5320   33.3510   38.2800 N   0  0  0  0  0  0  0  0  0  0  0  0
   39.8980   33.2780   37.4920 H   0  0  0  0  0  0  0  0  0  0  0  0
   42.2900   34.1120   36.7420 O   0  0  0  0  0  0  0  0  0  0  0  0
   42.7570   34.9610   36.4450 H   0  0  0  0  0  0  0  0  0  0  0  0
   36.1990   28.4970   42.1500 O   0  0  0  0  0  0  0  0  0  0  0  0
   37.2560   27.6140   42.5190 C   0  0  0  0  0  0  0  0  0  0  0  0
   38.0680   28.2540   43.4540 F   0  0  0  0  0  0  0  0  0  0  0  0
   36.6710   26.4860   43.1190 F   0  0  0  0  0  0  0  0  0  0  0  0
   37.9970   27.1860   41.4150 F   0  0  0  0  0  0  0  0  0  0  0  0
  1  2  1  0  0  0  0
  2  8  1  0  0  0  0
  2  3  2  0  0  0  0
  3 20  1  0  0  0  0
  4  3  1  0  0  0  0
  5  4  2  0  0  0  0
  6  1  2  0  0  0  0
  6  5  1  0  0  0  0
  7  1  1  0  0  0  0
  9  5  1  0  0  0  0
  9 10  2  0  0  0  0
 11 10  1  0  0  0  0
 11 12  1  0  0  0  0
 11 13  1  0  0  0  0
 14 16  1  0  0  0  0
 14 15  2  0  0  0  0
 16 11  1  0  0  0  0
 17 16  1  0  0  0  0
 18 14  1  0  0  0  0
 19 18  1  0  0  0  0
 20 21  1  0  0  0  0
 21 23  1  0  0  0  0
 21 22  1  0  0  0  0
 24 21  1  0  0  0  0
M  END
>  <minimizedAffinity>
-4.64576101

$$$$

 OpenBabel03242520543D

 24 24  0  0  0  0  0  0  0  0999 V2000
   41.4230   28.0730   43.1540 C   0  0  0  0  0  0  0  0  0  0  0  0
   40.2580   27.3810   43.5010 C   0  0  0  0  0  0  0  0  0  0  0  0
   39.0370   28.0010   43.3320 C   0  0  0  0  0  0  0  0  0  0  0  0
   39.0570   29.2420   42.8400 N   0  0  0  0  0  0  0  0  0  0  0  0
   40.1630   29.9020   42.5090 C   0  0  0  0  0  0  0  0  0  0  0  0
   41.3610   29.3230   42.6630 N   0  0  0  0  0  0  0  0  0  0  0  0
   42.3830   27.6010   43.2800 H   0  0  0  0  0  0  0  0  0  0  0  0
   40.2770   26.3780   43.8960 H   0  0  0  0  0  0  0  0  0  0  0  0
   40.1060   31.2670   41.9720 C   0  0  0  0  0  3  0  0  0  0  0  0
   39.2290   31.6400   41.0720 C   0  0  0  0  0  3  0  0  0  0  0  0
   39.1900   33.0180   40.5490 C   0  0  0  0  0  0  0  0  0  0  0  0
   38.1790   33.4300   40.8350 H   0  0  0  0  0  0  0  0  0  0  0  0
   39.9060   33.6970   41.0220 H   0  0  0  0  0  0  0  0  0  0  0  0
   40.5000   33.0460   38.5750 C   0  0  0  0  0  0  0  0  0  0  0  0
   41.6310   33.1370   39.1460 O   0  0  0  0  0  0  0  0  0  0  0  0
   39.1980   33.0540   39.1110 N   0  0  0  0  0  0  0  0  0  0  0  0
   38.4120   33.0830   38.4710 H   0  0  0  0  0  0  0  0  0  0  0  0
   40.7120   32.9210   37.1820 O   0  0  0  0  0  0  0  0  0  0  0  0
   41.3380   33.5020   36.6350 H   0  0  0  0  0  0  0  0  0  0  0  0
   37.8290   27.4230   43.6370 O   0  0  0  0  0  0  0  0  0  0  0  0
   37.0410   26.9540   42.5450 C   0  0  0  0  0  0  0  0  0  0  0  0
   36.0910   27.9250   42.2280 F   0  0  0  0  0  0  0  0  0  0  0  0
   37.9030   26.7860   41.4480 F   0  0  0  0  0  0  0  0  0  0  0  0
   36.4360   25.7260   42.8180 F   0  0  0  0  0  0  0  0  0  0  0  0
  1  7  1  0  0  0  0
  1  2  1  0  0  0  0
  2  8  1  0  0  0  0
  3  2  2  0  0  0  0
  3 20  1  0  0  0  0
  4  3  1  0  0  0  0
  5  6  1  0  0  0  0
  5  4  2  0  0  0  0
  6  1  2  0  0  0  0
  9  5  1  0  0  0  0
 10  9  2  0  0  0  0
 11 12  1  0  0  0  0
 11 13  1  0  0  0  0
 11 10  1  0  0  0  0
 14 16  1  0  0  0  0
 14 15  2  0  0  0  0
 16 11  1  0  0  0  0
 17 16  1  0  0  0  0
 18 14  1  0  0  0  0
 19 18  1  0  0  0  0
 21 24  1  0  0  0  0
 21 20  1  0  0  0  0
 22 21  1  0  0  0  0
 23 21  1  0  0  0  0
M  END
>  <minimizedAffinity>
-4.54367447

$$$$
