
 OpenBabel03252508513D

 21 22  0  0  0  0  0  0  0  0999 V2000
   46.0830   34.1670   41.0180 C   0  0  0  0  0  0  0  0  0  0  0  0
   46.6220   34.8280   42.1190 C   0  0  0  0  0  0  0  0  0  0  0  0
   47.9440   35.2670   42.0110 C   0  0  0  0  0  0  0  0  0  0  0  0
   48.6150   35.0250   40.8550 N   0  0  0  0  0  0  0  0  0  0  0  0
   48.0570   34.3860   39.8280 C   0  0  0  0  0  0  0  0  0  0  0  0
   46.7800   33.9490   39.8980 N   0  0  0  0  0  0  0  0  0  0  0  0
   48.3910   35.7900   42.8630 H   0  0  0  0  0  0  0  0  0  0  0  0
   48.5800   34.1860   38.9020 H   0  0  0  0  0  0  0  0  0  0  0  0
   45.8140   35.0370   43.3140 C   0  0  0  0  0  0  0  0  0  0  0  0
   45.0660   36.1850   43.5220 C   0  0  0  0  0  0  0  0  0  0  0  0
   44.4700   35.9780   44.7450 C   0  0  0  0  0  0  0  0  0  0  0  0
   44.8370   34.7700   45.2500 N   0  0  0  0  0  0  0  0  0  0  0  0
   45.6420   34.2320   44.3700 N   0  0  0  0  0  0  0  0  0  0  0  0
   44.9720   37.0440   42.8740 H   0  0  0  0  0  0  0  0  0  0  0  0
   43.8050   36.7390   45.1760 H   0  0  0  0  0  0  0  0  0  0  0  0
   44.4620   34.4740   46.1770 H   0  0  0  0  0  0  0  0  0  0  0  0
   44.7680   33.7300   41.1240 O   0  0  0  0  0  0  0  0  0  0  0  0
   43.6960   34.2950   40.4680 C   0  0  0  0  0  0  0  0  0  0  0  0
   43.2730   35.4920   40.5440 O   0  0  0  0  0  0  0  0  0  0  0  0
   42.6790   33.9680   39.5520 O   0  0  0  0  0  0  0  0  0  0  0  0
   41.7080   34.2370   39.6870 H   0  0  0  0  0  0  0  0  0  0  0  0
  1 17  1  0  0  0  0
  1  2  1  0  0  0  0
  2  9  1  0  0  0  0
  3  2  2  0  0  0  0
  3  7  1  0  0  0  0
  4  3  1  0  0  0  0
  5  6  1  0  0  0  0
  5  4  2  0  0  0  0
  6  1  2  0  0  0  0
  8  5  1  0  0  0  0
  9 10  1  0  0  0  0
  9 13  2  0  0  0  0
 10 11  2  0  0  0  0
 11 15  1  0  0  0  0
 11 12  1  0  0  0  0
 12 16  1  0  0  0  0
 13 12  1  0  0  0  0
 14 10  1  0  0  0  0
 18 19  2  0  0  0  0
 18 17  1  0  0  0  0
 20 21  1  0  0  0  0
 20 18  1  0  0  0  0
M  END
>  <minimizedAffinity>
-4.50683594

>  <minimizedRMSD>
0.0710875988

$$$$
