
 OpenBabel03242516113D

 32 34  0  0  0  0  0  0  0  0999 V2000
   48.0870   34.6000   41.7560 C   0  0  0  0  0  0  0  0  0  0  0  0
   48.9330   35.8360   41.4820 C   0  0  0  0  0  0  0  0  0  0  0  0
   49.5070   34.6670   42.1420 C   0  0  0  0  0  0  0  0  0  0  0  0
   49.1880   36.1290   40.4660 H   0  0  0  0  0  0  0  0  0  0  0  0
   48.6530   36.7290   42.1020 H   0  0  0  0  0  0  0  0  0  0  0  0
   49.7520   34.7630   43.2280 H   0  0  0  0  0  0  0  0  0  0  0  0
   50.2060   33.9930   41.6000 H   0  0  0  0  0  0  0  0  0  0  0  0
   47.7280   33.8190   40.5230 C   0  0  0  0  0  0  0  0  0  0  0  0
   48.1870   34.4330   39.2200 C   0  0  0  0  0  0  0  0  0  0  0  0
   47.8400   33.3820   38.1540 C   0  0  0  0  0  0  0  0  0  0  0  0
   46.4700   33.4580   37.9720 O   0  0  0  0  0  0  0  0  0  0  0  0
   45.9420   32.8370   39.1320 C   0  0  0  0  0  0  0  0  0  0  0  0
   46.2140   33.7220   40.3350 C   0  0  0  0  0  0  0  0  0  0  0  0
   48.1140   32.7770   40.5380 H   0  0  0  0  0  0  0  0  0  0  0  0
   47.7050   35.3930   38.9910 H   0  0  0  0  0  0  0  0  0  0  0  0
   49.3110   34.4860   39.1670 H   0  0  0  0  0  0  0  0  0  0  0  0
   48.4100   33.6610   37.2390 H   0  0  0  0  0  0  0  0  0  0  0  0
   48.1610   32.4130   38.5840 H   0  0  0  0  0  0  0  0  0  0  0  0
   46.4790   31.8830   39.2820 H   0  0  0  0  0  0  0  0  0  0  0  0
   44.8740   32.7300   38.9630 H   0  0  0  0  0  0  0  0  0  0  0  0
   45.8440   34.7390   40.0860 H   0  0  0  0  0  0  0  0  0  0  0  0
   45.7160   33.2970   41.2110 H   0  0  0  0  0  0  0  0  0  0  0  0
   46.1030   35.7540   42.7150 C   0  0  0  0  0  0  0  0  0  0  0  0
   47.0280   34.7270   42.8050 C   0  0  0  0  0  0  0  0  0  0  0  0
   46.9500   33.8150   43.8960 C   0  0  0  0  0  0  0  0  0  0  0  0
   45.9480   34.0120   44.8020 N   0  0  0  0  0  0  0  0  0  0  0  0
   45.0820   35.0150   44.6730 C   0  0  0  0  0  0  0  0  0  0  0  0
   45.1360   35.8790   43.6620 N   0  0  0  0  0  0  0  0  0  0  0  0
   46.1830   36.4350   41.8780 H   0  0  0  0  0  0  0  0  0  0  0  0
   47.6600   33.0260   43.9650 H   0  0  0  0  0  0  0  0  0  0  0  0
   44.0390   35.2640   45.5710 O   0  0  0  0  0  0  0  0  0  0  0  0
   43.9170   34.5750   46.2870 H   0  0  0  0  0  0  0  0  0  0  0  0
  1  3  1  0  0  0  0
  1 24  1  0  0  0  0
  2  1  1  0  0  0  0
  2  5  1  0  0  0  0
  2  3  1  0  0  0  0
  3  6  1  0  0  0  0
  4  2  1  0  0  0  0
  7  3  1  0  0  0  0
  8 14  1  0  0  0  0
  8  1  1  0  0  0  0
  9  8  1  0  0  0  0
 10 18  1  0  0  0  0
 10  9  1  0  0  0  0
 11 10  1  0  0  0  0
 11 12  1  0  0  0  0
 12 19  1  0  0  0  0
 12 13  1  0  0  0  0
 13  8  1  0  0  0  0
 13 22  1  0  0  0  0
 15  9  1  0  0  0  0
 16  9  1  0  0  0  0
 17 10  1  0  0  0  0
 20 12  1  0  0  0  0
 21 13  1  0  0  0  0
 23 24  2  0  0  0  0
 23 28  1  0  0  0  0
 24 25  1  0  0  0  0
 25 30  1  0  0  0  0
 25 26  2  0  0  0  0
 27 26  1  0  0  0  0
 27 31  1  0  0  0  0
 28 27  2  0  0  0  0
 29 23  1  0  0  0  0
 31 32  1  0  0  0  0
M  END
>  <minimizedAffinity>
-5.48681974

>  <minimizedRMSD>
0.262461603

$$$$
