
 OpenBabel03242522143D

 19 20  0  0  0  0  0  0  0  0999 V2000
   36.6920   28.4520   42.0570 C   0  0  0  0  0  0  0  0  0  0  0  0
   36.9170   29.7670   41.6180 C   0  0  0  0  0  0  0  0  0  0  0  0
   38.2210   30.1630   41.4020 C   0  0  0  0  0  0  0  0  0  0  0  0
   39.2120   29.2370   41.6310 N   0  0  0  0  0  0  0  0  0  0  0  0
   38.9520   27.9920   42.0500 C   0  0  0  0  0  0  0  0  0  0  0  0
   37.6930   27.6000   42.2620 N   0  0  0  0  0  0  0  0  0  0  0  0
   35.6860   28.0970   42.2400 H   0  0  0  0  0  0  0  0  0  0  0  0
   39.8540   27.4020   42.1770 H   0  0  0  0  0  0  0  0  0  0  0  0
   38.5430   31.5340   40.9410 C   0  0  0  0  0  0  0  0  0  0  0  0
   39.7570   32.1250   41.1550 C   0  0  0  0  0  0  0  0  0  0  0  0
   39.5630   33.7760   40.3740 S   0  0  0  0  0  0  0  0  0  0  0  0
   37.7940   33.3500   39.8760 C   0  0  0  0  0  0  0  0  0  0  0  0
   37.6930   32.2850   40.2930 N   0  0  0  0  0  0  0  0  0  0  0  0
   40.6000   31.6690   41.6730 H   0  0  0  0  0  0  0  0  0  0  0  0
   36.8280   34.1600   39.1590 O   0  0  0  0  0  0  0  0  0  0  0  0
   37.1460   34.6890   38.3740 H   0  0  0  0  0  0  0  0  0  0  0  0
   35.7760   30.5780   41.4360 N   0  0  0  0  0  0  0  0  0  0  0  0
   35.7470   31.6160   41.5600 H   0  0  0  0  0  0  0  0  0  0  0  0
   34.8630   30.1500   41.1560 H   0  0  0  0  0  0  0  0  0  0  0  0
  1  7  1  0  0  0  0
  1  6  1  0  0  0  0
  2  1  2  0  0  0  0
  3  2  1  0  0  0  0
  3  4  2  0  0  0  0
  4  5  1  0  0  0  0
  5  8  1  0  0  0  0
  5  6  2  0  0  0  0
  9 10  2  0  0  0  0
  9  3  1  0  0  0  0
 10 14  1  0  0  0  0
 11 10  1  0  0  0  0
 12 13  2  0  0  0  0
 12 11  1  0  0  0  0
 13  9  1  0  0  0  0
 15 12  1  0  0  0  0
 16 15  1  0  0  0  0
 17 18  1  0  0  0  0
 17  2  1  0  0  0  0
 19 17  1  0  0  0  0
M  END
>  <minimizedAffinity>
-4.57447338

$$$$

 OpenBabel03242522143D

 19 20  0  0  0  0  0  0  0  0999 V2000
   37.4430   33.0340   40.0280 C   0  0  0  0  0  0  0  0  0  0  0  0
   37.3720   31.7940   40.6840 C   0  0  0  0  0  0  0  0  0  0  0  0
   38.5350   31.2710   41.2110 C   0  0  0  0  0  0  0  0  0  0  0  0
   39.6880   32.0070   41.0570 N   0  0  0  0  0  0  0  0  0  0  0  0
   39.7100   33.1860   40.4230 C   0  0  0  0  0  0  0  0  0  0  0  0
   38.5890   33.6990   39.9100 N   0  0  0  0  0  0  0  0  0  0  0  0
   36.5570   33.4820   39.5990 H   0  0  0  0  0  0  0  0  0  0  0  0
   40.7040   33.6210   40.3980 H   0  0  0  0  0  0  0  0  0  0  0  0
   38.5440   29.9690   41.9170 C   0  0  0  0  0  0  0  0  0  0  0  0
   39.6640   29.1940   42.0330 C   0  0  0  0  0  0  0  0  0  0  0  0
   39.0700   27.7400   42.9850 S   0  0  0  0  0  0  0  0  0  0  0  0
   37.3350   28.4750   43.0580 C   0  0  0  0  0  0  0  0  0  0  0  0
   37.4820   29.4590   42.4830 N   0  0  0  0  0  0  0  0  0  0  0  0
   40.6470   29.4390   41.6330 H   0  0  0  0  0  0  0  0  0  0  0  0
   36.1390   27.9350   43.6770 O   0  0  0  0  0  0  0  0  0  0  0  0
   36.2250   27.5100   44.5760 H   0  0  0  0  0  0  0  0  0  0  0  0
   36.1000   31.1830   40.7460 N   0  0  0  0  0  0  0  0  0  0  0  0
   35.9260   30.1530   40.7670 H   0  0  0  0  0  0  0  0  0  0  0  0
   35.2340   31.7690   40.7740 H   0  0  0  0  0  0  0  0  0  0  0  0
  1  2  1  0  0  0  0
  2 17  1  0  0  0  0
  2  3  2  0  0  0  0
  3  9  1  0  0  0  0
  4  3  1  0  0  0  0
  5  4  2  0  0  0  0
  6  1  2  0  0  0  0
  6  5  1  0  0  0  0
  7  1  1  0  0  0  0
  8  5  1  0  0  0  0
  9 10  2  0  0  0  0
  9 13  1  0  0  0  0
 10 11  1  0  0  0  0
 11 12  1  0  0  0  0
 12 15  1  0  0  0  0
 13 12  2  0  0  0  0
 14 10  1  0  0  0  0
 15 16  1  0  0  0  0
 17 18  1  0  0  0  0
 17 19  1  0  0  0  0
M  END
>  <minimizedAffinity>
-4.38388443

$$$$

 OpenBabel03242522143D

 19 20  0  0  0  0  0  0  0  0999 V2000
   40.4900   34.1110   39.6570 C   0  0  0  0  0  0  0  0  0  0  0  0
   39.4100   33.3630   40.1530 C   0  0  0  0  0  0  0  0  0  0  0  0
   39.0720   32.1980   39.4950 C   0  0  0  0  0  0  0  0  0  0  0  0
   39.8220   31.8490   38.3960 N   0  0  0  0  0  0  0  0  0  0  0  0
   40.8450   32.5930   37.9570 C   0  0  0  0  0  0  0  0  0  0  0  0
   41.1790   33.7220   38.5870 N   0  0  0  0  0  0  0  0  0  0  0  0
   40.7910   35.0310   40.1390 H   0  0  0  0  0  0  0  0  0  0  0  0
   41.3200   32.1650   37.0800 H   0  0  0  0  0  0  0  0  0  0  0  0
   37.9440   31.3540   39.9540 C   0  0  0  0  0  0  0  0  0  0  0  0
   36.8570   31.0770   39.1750 C   0  0  0  0  0  0  0  0  0  0  0  0
   35.8250   30.0110   40.2580 S   0  0  0  0  0  0  0  0  0  0  0  0
   37.1090   30.1380   41.6330 C   0  0  0  0  0  0  0  0  0  0  0  0
   37.9020   30.8070   41.1410 N   0  0  0  0  0  0  0  0  0  0  0  0
   36.7000   31.4340   38.1570 H   0  0  0  0  0  0  0  0  0  0  0  0
   37.0910   29.5450   42.9570 O   0  0  0  0  0  0  0  0  0  0  0  0
   36.7800   28.6000   43.0460 H   0  0  0  0  0  0  0  0  0  0  0  0
   38.7560   33.8770   41.2940 N   0  0  0  0  0  0  0  0  0  0  0  0
   37.7440   33.7450   41.5200 H   0  0  0  0  0  0  0  0  0  0  0  0
   39.2860   34.4410   41.9970 H   0  0  0  0  0  0  0  0  0  0  0  0
  1  7  1  0  0  0  0
  1  2  1  0  0  0  0
  2 17  1  0  0  0  0
  3  9  1  0  0  0  0
  3  2  2  0  0  0  0
  4  3  1  0  0  0  0
  5  4  2  0  0  0  0
  5  6  1  0  0  0  0
  6  1  2  0  0  0  0
  8  5  1  0  0  0  0
  9 13  1  0  0  0  0
 10  9  2  0  0  0  0
 10 11  1  0  0  0  0
 11 12  1  0  0  0  0
 12 15  1  0  0  0  0
 13 12  2  0  0  0  0
 14 10  1  0  0  0  0
 15 16  1  0  0  0  0
 17 18  1  0  0  0  0
 17 19  1  0  0  0  0
M  END
>  <minimizedAffinity>
-4.29742241

$$$$

 OpenBabel03242522143D

 19 20  0  0  0  0  0  0  0  0999 V2000
   37.2320   26.9010   42.8870 C   0  0  0  0  0  0  0  0  0  0  0  0
   37.5440   28.2440   42.6220 C   0  0  0  0  0  0  0  0  0  0  0  0
   38.2380   28.5330   41.4650 C   0  0  0  0  0  0  0  0  0  0  0  0
   38.5770   27.4780   40.6490 N   0  0  0  0  0  0  0  0  0  0  0  0
   38.2590   26.2110   40.9410 C   0  0  0  0  0  0  0  0  0  0  0  0
   37.5880   25.9230   42.0580 N   0  0  0  0  0  0  0  0  0  0  0  0
   36.6890   26.6270   43.7820 H   0  0  0  0  0  0  0  0  0  0  0  0
   38.6070   25.5140   40.1840 H   0  0  0  0  0  0  0  0  0  0  0  0
   38.6060   29.9240   41.1140 C   0  0  0  0  0  0  0  0  0  0  0  0
   39.9010   30.3430   40.9920 C   0  0  0  0  0  0  0  0  0  0  0  0
   39.7280   32.1180   40.5520 S   0  0  0  0  0  0  0  0  0  0  0  0
   37.8490   31.9670   40.6150 C   0  0  0  0  0  0  0  0  0  0  0  0
   37.7200   30.8600   40.8930 N   0  0  0  0  0  0  0  0  0  0  0  0
   40.7830   29.7200   41.1350 H   0  0  0  0  0  0  0  0  0  0  0  0
   36.8420   32.9840   40.3750 O   0  0  0  0  0  0  0  0  0  0  0  0
   36.9780   33.6090   39.6090 H   0  0  0  0  0  0  0  0  0  0  0  0
   37.1130   29.1930   43.5750 N   0  0  0  0  0  0  0  0  0  0  0  0
   37.5990   30.0940   43.7910 H   0  0  0  0  0  0  0  0  0  0  0  0
   36.2470   29.0240   44.1350 H   0  0  0  0  0  0  0  0  0  0  0  0
  1  7  1  0  0  0  0
  2  1  1  0  0  0  0
  2 17  1  0  0  0  0
  3  2  2  0  0  0  0
  4  5  2  0  0  0  0
  4  3  1  0  0  0  0
  5  6  1  0  0  0  0
  6  1  2  0  0  0  0
  8  5  1  0  0  0  0
  9  3  1  0  0  0  0
 10  9  2  0  0  0  0
 10 14  1  0  0  0  0
 11 12  1  0  0  0  0
 11 10  1  0  0  0  0
 12 13  2  0  0  0  0
 13  9  1  0  0  0  0
 15 12  1  0  0  0  0
 16 15  1  0  0  0  0
 17 18  1  0  0  0  0
 17 19  1  0  0  0  0
M  END
>  <minimizedAffinity>
-4.23267555

$$$$

 OpenBabel03242522143D

 19 20  0  0  0  0  0  0  0  0999 V2000
   42.2400   33.6590   37.2480 C   0  0  0  0  0  0  0  0  0  0  0  0
   41.1800   32.9350   37.8180 C   0  0  0  0  0  0  0  0  0  0  0  0
   41.1930   32.7340   39.1830 C   0  0  0  0  0  0  0  0  0  0  0  0
   42.2480   33.2600   39.8920 N   0  0  0  0  0  0  0  0  0  0  0  0
   43.2390   33.9450   39.3060 C   0  0  0  0  0  0  0  0  0  0  0  0
   43.2340   34.1440   37.9860 N   0  0  0  0  0  0  0  0  0  0  0  0
   42.2720   33.8410   36.1820 H   0  0  0  0  0  0  0  0  0  0  0  0
   43.9830   34.2840   40.0200 H   0  0  0  0  0  0  0  0  0  0  0  0
   40.1130   31.9790   39.8610 C   0  0  0  0  0  0  0  0  0  0  0  0
   40.3100   30.7570   40.4400 C   0  0  0  0  0  0  0  0  0  0  0  0
   38.6500   30.3350   41.1030 S   0  0  0  0  0  0  0  0  0  0  0  0
   37.9570   31.9620   40.4470 C   0  0  0  0  0  0  0  0  0  0  0  0
   38.8880   32.4240   39.9590 N   0  0  0  0  0  0  0  0  0  0  0  0
   41.2550   30.2150   40.4680 H   0  0  0  0  0  0  0  0  0  0  0  0
   36.6060   32.4820   40.5400 O   0  0  0  0  0  0  0  0  0  0  0  0
   36.1200   32.3800   41.4060 H   0  0  0  0  0  0  0  0  0  0  0  0
   40.1820   32.4700   36.9330 N   0  0  0  0  0  0  0  0  0  0  0  0
   39.6170   31.6010   37.0650 H   0  0  0  0  0  0  0  0  0  0  0  0
   39.9580   33.0040   36.0630 H   0  0  0  0  0  0  0  0  0  0  0  0
  1  2  2  0  0  0  0
  1  6  1  0  0  0  0
  2  3  1  0  0  0  0
  3  9  1  0  0  0  0
  3  4  2  0  0  0  0
  5  4  1  0  0  0  0
  5  8  1  0  0  0  0
  6  5  2  0  0  0  0
  7  1  1  0  0  0  0
  9 13  1  0  0  0  0
  9 10  2  0  0  0  0
 10 14  1  0  0  0  0
 10 11  1  0  0  0  0
 12 15  1  0  0  0  0
 12 11  1  0  0  0  0
 13 12  2  0  0  0  0
 15 16  1  0  0  0  0
 17 18  1  0  0  0  0
 17  2  1  0  0  0  0
 19 17  1  0  0  0  0
M  END
>  <minimizedAffinity>
-4.20493937

$$$$

 OpenBabel03242522143D

 19 20  0  0  0  0  0  0  0  0999 V2000
   36.7320   29.9810   41.7960 C   0  0  0  0  0  0  0  0  0  0  0  0
   37.4220   30.8940   40.9810 C   0  0  0  0  0  0  0  0  0  0  0  0
   38.8000   30.8970   41.0340 C   0  0  0  0  0  0  0  0  0  0  0  0
   39.4050   30.0000   41.8860 N   0  0  0  0  0  0  0  0  0  0  0  0
   38.7070   29.1470   42.6450 C   0  0  0  0  0  0  0  0  0  0  0  0
   37.3730   29.1370   42.6000 N   0  0  0  0  0  0  0  0  0  0  0  0
   35.6510   29.9420   41.7870 H   0  0  0  0  0  0  0  0  0  0  0  0
   39.3490   28.5160   43.2530 H   0  0  0  0  0  0  0  0  0  0  0  0
   39.6010   31.8290   40.2080 C   0  0  0  0  0  0  0  0  0  0  0  0
   40.4300   32.7750   40.7440 C   0  0  0  0  0  0  0  0  0  0  0  0
   41.1340   33.6030   39.2630 S   0  0  0  0  0  0  0  0  0  0  0  0
   40.1350   32.4700   38.1340 C   0  0  0  0  0  0  0  0  0  0  0  0
   39.5790   31.8200   38.9010 N   0  0  0  0  0  0  0  0  0  0  0  0
   40.5910   32.9440   41.8080 H   0  0  0  0  0  0  0  0  0  0  0  0
   40.0880   32.4360   36.6850 O   0  0  0  0  0  0  0  0  0  0  0  0
   40.9460   32.5300   36.1830 H   0  0  0  0  0  0  0  0  0  0  0  0
   36.6330   31.7380   40.1690 N   0  0  0  0  0  0  0  0  0  0  0  0
   36.8940   32.7070   39.8750 H   0  0  0  0  0  0  0  0  0  0  0  0
   35.7060   31.4130   39.8120 H   0  0  0  0  0  0  0  0  0  0  0  0
  1  6  1  0  0  0  0
  2  3  1  0  0  0  0
  2  1  2  0  0  0  0
  3  4  2  0  0  0  0
  4  5  1  0  0  0  0
  5  8  1  0  0  0  0
  6  5  2  0  0  0  0
  7  1  1  0  0  0  0
  9 10  2  0  0  0  0
  9  3  1  0  0  0  0
 10 14  1  0  0  0  0
 11 10  1  0  0  0  0
 12 13  2  0  0  0  0
 12 11  1  0  0  0  0
 13  9  1  0  0  0  0
 15 12  1  0  0  0  0
 16 15  1  0  0  0  0
 17  2  1  0  0  0  0
 18 17  1  0  0  0  0
 19 17  1  0  0  0  0
M  END
>  <minimizedAffinity>
-4.11360979

$$$$

 OpenBabel03242522143D

 19 20  0  0  0  0  0  0  0  0999 V2000
   36.3790   24.7200   39.8720 C   0  0  0  0  0  0  0  0  0  0  0  0
   36.6290   26.0980   39.9770 C   0  0  0  0  0  0  0  0  0  0  0  0
   37.2180   26.5640   41.1340 C   0  0  0  0  0  0  0  0  0  0  0  0
   37.5220   25.6400   42.1080 N   0  0  0  0  0  0  0  0  0  0  0  0
   37.2650   24.3340   41.9660 C   0  0  0  0  0  0  0  0  0  0  0  0
   36.6950   23.8740   40.8490 N   0  0  0  0  0  0  0  0  0  0  0  0
   35.9180   24.3100   38.9830 H   0  0  0  0  0  0  0  0  0  0  0  0
   37.5710   23.7570   42.8330 H   0  0  0  0  0  0  0  0  0  0  0  0
   37.5140   28.0030   41.3230 C   0  0  0  0  0  0  0  0  0  0  0  0
   38.7740   28.4800   41.5490 C   0  0  0  0  0  0  0  0  0  0  0  0
   38.5160   30.2930   41.6970 S   0  0  0  0  0  0  0  0  0  0  0  0
   36.6640   30.0680   41.4150 C   0  0  0  0  0  0  0  0  0  0  0  0
   36.5920   28.9290   41.2880 N   0  0  0  0  0  0  0  0  0  0  0  0
   39.6780   27.8750   41.6130 H   0  0  0  0  0  0  0  0  0  0  0  0
   35.6190   31.0730   41.3710 O   0  0  0  0  0  0  0  0  0  0  0  0
   35.8040   31.9250   40.8840 H   0  0  0  0  0  0  0  0  0  0  0  0
   36.2490   26.8950   38.8740 N   0  0  0  0  0  0  0  0  0  0  0  0
   35.9420   27.8930   38.9300 H   0  0  0  0  0  0  0  0  0  0  0  0
   36.2590   26.4980   37.9070 H   0  0  0  0  0  0  0  0  0  0  0  0
  1  2  2  0  0  0  0
  1  6  1  0  0  0  0
  2  3  1  0  0  0  0
  3  9  1  0  0  0  0
  3  4  2  0  0  0  0
  5  4  1  0  0  0  0
  5  8  1  0  0  0  0
  6  5  2  0  0  0  0
  7  1  1  0  0  0  0
  9 10  2  0  0  0  0
 10 14  1  0  0  0  0
 10 11  1  0  0  0  0
 12 11  1  0  0  0  0
 13  9  1  0  0  0  0
 13 12  2  0  0  0  0
 15 12  1  0  0  0  0
 16 15  1  0  0  0  0
 17 18  1  0  0  0  0
 17  2  1  0  0  0  0
 19 17  1  0  0  0  0
M  END
>  <minimizedAffinity>
-4.07897377

$$$$

 OpenBabel03242522143D

 19 20  0  0  0  0  0  0  0  0999 V2000
   39.1010   25.6060   42.5900 C   0  0  0  0  0  0  0  0  0  0  0  0
   38.4750   26.7040   41.9770 C   0  0  0  0  0  0  0  0  0  0  0  0
   37.3270   26.4700   41.2470 C   0  0  0  0  0  0  0  0  0  0  0  0
   36.8760   25.1720   41.1720 N   0  0  0  0  0  0  0  0  0  0  0  0
   37.5060   24.1550   41.7730 C   0  0  0  0  0  0  0  0  0  0  0  0
   38.6170   24.3720   42.4810 N   0  0  0  0  0  0  0  0  0  0  0  0
   40.0030   25.7410   43.1710 H   0  0  0  0  0  0  0  0  0  0  0  0
   37.0080   23.2050   41.6060 H   0  0  0  0  0  0  0  0  0  0  0  0
   36.6070   27.5730   40.5690 C   0  0  0  0  0  0  0  0  0  0  0  0
   36.1490   27.4840   39.2850 C   0  0  0  0  0  0  0  0  0  0  0  0
   35.3610   29.1190   39.0060 S   0  0  0  0  0  0  0  0  0  0  0  0
   35.8140   29.6540   40.7570 C   0  0  0  0  0  0  0  0  0  0  0  0
   36.3540   28.7180   41.1460 N   0  0  0  0  0  0  0  0  0  0  0  0
   36.2570   26.6170   38.6330 H   0  0  0  0  0  0  0  0  0  0  0  0
   35.5480   30.9140   41.4240 O   0  0  0  0  0  0  0  0  0  0  0  0
   34.6480   31.3300   41.3030 H   0  0  0  0  0  0  0  0  0  0  0  0
   39.0820   27.9650   42.1630 N   0  0  0  0  0  0  0  0  0  0  0  0
   39.0540   28.7550   41.4790 H   0  0  0  0  0  0  0  0  0  0  0  0
   39.6150   28.1700   43.0390 H   0  0  0  0  0  0  0  0  0  0  0  0
  1  7  1  0  0  0  0
  2 17  1  0  0  0  0
  2  1  2  0  0  0  0
  3  2  1  0  0  0  0
  4  3  2  0  0  0  0
  4  5  1  0  0  0  0
  5  6  2  0  0  0  0
  6  1  1  0  0  0  0
  8  5  1  0  0  0  0
  9 13  1  0  0  0  0
  9  3  1  0  0  0  0
 10  9  2  0  0  0  0
 11 10  1  0  0  0  0
 11 12  1  0  0  0  0
 12 13  2  0  0  0  0
 12 15  1  0  0  0  0
 14 10  1  0  0  0  0
 16 15  1  0  0  0  0
 17 19  1  0  0  0  0
 18 17  1  0  0  0  0
M  END
>  <minimizedAffinity>
-4.0727334

$$$$

 OpenBabel03242522143D

 19 20  0  0  0  0  0  0  0  0999 V2000
   38.3690   25.0410   42.1140 C   0  0  0  0  0  0  0  0  0  0  0  0
   38.0610   26.3250   41.6360 C   0  0  0  0  0  0  0  0  0  0  0  0
   38.7310   27.3990   42.1850 C   0  0  0  0  0  0  0  0  0  0  0  0
   39.6590   27.1340   43.1660 N   0  0  0  0  0  0  0  0  0  0  0  0
   39.9210   25.8920   43.5920 C   0  0  0  0  0  0  0  0  0  0  0  0
   39.2770   24.8470   43.0670 N   0  0  0  0  0  0  0  0  0  0  0  0
   37.8690   24.1690   41.7130 H   0  0  0  0  0  0  0  0  0  0  0  0
   40.6790   25.8740   44.3690 H   0  0  0  0  0  0  0  0  0  0  0  0
   38.4630   28.7850   41.7370 C   0  0  0  0  0  0  0  0  0  0  0  0
   39.4460   29.6290   41.3000 C   0  0  0  0  0  0  0  0  0  0  0  0
   38.5270   31.1660   40.8910 S   0  0  0  0  0  0  0  0  0  0  0  0
   36.9050   30.3540   41.4090 C   0  0  0  0  0  0  0  0  0  0  0  0
   37.2660   29.3100   41.7240 N   0  0  0  0  0  0  0  0  0  0  0  0
   40.5050   29.3850   41.2330 H   0  0  0  0  0  0  0  0  0  0  0  0
   35.5650   30.9090   41.4060 O   0  0  0  0  0  0  0  0  0  0  0  0
   35.2840   31.4580   40.6210 H   0  0  0  0  0  0  0  0  0  0  0  0
   37.0800   26.4050   40.6230 N   0  0  0  0  0  0  0  0  0  0  0  0
   36.4290   27.2100   40.4760 H   0  0  0  0  0  0  0  0  0  0  0  0
   36.9580   25.6200   39.9430 H   0  0  0  0  0  0  0  0  0  0  0  0
  1  6  1  0  0  0  0
  2  1  2  0  0  0  0
  2  3  1  0  0  0  0
  3  4  2  0  0  0  0
  4  5  1  0  0  0  0
  5  8  1  0  0  0  0
  6  5  2  0  0  0  0
  7  1  1  0  0  0  0
  9  3  1  0  0  0  0
 10  9  2  0  0  0  0
 11 10  1  0  0  0  0
 11 12  1  0  0  0  0
 12 13  2  0  0  0  0
 13  9  1  0  0  0  0
 14 10  1  0  0  0  0
 15 12  1  0  0  0  0
 16 15  1  0  0  0  0
 17  2  1  0  0  0  0
 18 17  1  0  0  0  0
 19 17  1  0  0  0  0
M  END
>  <minimizedAffinity>
-4.03525972

$$$$
