
 OpenBabel03252504293D

 20 20  0  0  0  0  0  0  0  0999 V2000
   36.9300   27.9380   43.0430 C   0  0  0  0  0  0  0  0  0  0  0  0
   36.2750   27.8870   42.1040 H   0  0  0  0  0  0  0  0  0  0  0  0
   36.2380   27.8450   43.8950 H   0  0  0  0  0  0  0  0  0  0  0  0
   38.9890   26.8510   43.6350 C   0  0  0  0  0  0  0  0  0  0  0  0
   37.7810   26.7350   42.9320 C   0  0  0  0  0  0  0  0  0  0  0  0
   37.5650   25.5750   42.2440 C   0  0  0  0  0  0  0  0  0  0  0  0
   38.5280   24.6400   42.2970 N   0  0  0  0  0  0  0  0  0  0  0  0
   39.6720   24.7490   42.9610 C   0  0  0  0  0  0  0  0  0  0  0  0
   39.9490   25.9020   43.6790 N   0  0  0  0  0  0  0  0  0  0  0  0
   39.2680   27.7380   44.2220 H   0  0  0  0  0  0  0  0  0  0  0  0
   36.6310   25.5400   41.7290 H   0  0  0  0  0  0  0  0  0  0  0  0
   40.4070   23.9560   42.9620 H   0  0  0  0  0  0  0  0  0  0  0  0
   37.6020   29.1320   42.9620 O   0  0  0  0  0  0  0  0  0  0  0  0
   37.7890   29.9420   41.8610 C   0  0  0  0  0  3  0  0  0  0  0  0
   36.7220   30.4120   41.2110 C   0  0  0  0  0  3  0  0  0  0  0  0
   36.6930   31.3290   40.0110 C   0  0  0  0  0  0  0  0  0  0  0  0
   37.5960   31.0670   39.4340 H   0  0  0  0  0  0  0  0  0  0  0  0
   35.7600   31.2050   39.4230 H   0  0  0  0  0  0  0  0  0  0  0  0
   36.7770   32.6360   40.5250 O   0  0  0  0  0  0  0  0  0  0  0  0
   36.9070   33.2980   39.8000 H   0  0  0  0  0  0  0  0  0  0  0  0
  1  3  1  0  0  0  0
  2  1  1  0  0  0  0
  4  9  1  0  0  0  0
  4 10  1  0  0  0  0
  5  1  1  0  0  0  0
  5  4  2  0  0  0  0
  6  7  2  0  0  0  0
  6  5  1  0  0  0  0
  7  8  1  0  0  0  0
  8 12  1  0  0  0  0
  8  9  2  0  0  0  0
 11  6  1  0  0  0  0
 13  1  1  0  0  0  0
 14 13  1  0  0  0  0
 15 14  2  0  0  0  0
 16 19  1  0  0  0  0
 16 15  1  0  0  0  0
 17 16  1  0  0  0  0
 18 16  1  0  0  0  0
 20 19  1  0  0  0  0
M  END
>  <minimizedAffinity>
-3.74940038

$$$$

 OpenBabel03252504293D

 20 20  0  0  0  0  0  0  0  0999 V2000
   36.6990   27.6450   42.7840 C   0  0  0  0  0  0  0  0  0  0  0  0
   36.1940   27.2330   41.8420 H   0  0  0  0  0  0  0  0  0  0  0  0
   35.9770   27.4910   43.6020 H   0  0  0  0  0  0  0  0  0  0  0  0
   37.7450   25.5420   42.2780 C   0  0  0  0  0  0  0  0  0  0  0  0
   37.8720   26.7630   42.9560 C   0  0  0  0  0  0  0  0  0  0  0  0
   39.0150   26.9610   43.6780 C   0  0  0  0  0  0  0  0  0  0  0  0
   39.9220   25.9720   43.6790 N   0  0  0  0  0  0  0  0  0  0  0  0
   39.8020   24.8150   43.0390 C   0  0  0  0  0  0  0  0  0  0  0  0
   38.6660   24.5540   42.2890 N   0  0  0  0  0  0  0  0  0  0  0  0
   36.8700   25.2740   41.6680 H   0  0  0  0  0  0  0  0  0  0  0  0
   39.0600   27.9070   44.1720 H   0  0  0  0  0  0  0  0  0  0  0  0
   40.5720   24.0580   43.0820 H   0  0  0  0  0  0  0  0  0  0  0  0
   36.9960   28.9550   42.5050 O   0  0  0  0  0  0  0  0  0  0  0  0
   37.1680   29.5540   41.2740 C   0  0  0  0  0  3  0  0  0  0  0  0
   36.7920   30.8250   41.1110 C   0  0  0  0  0  3  0  0  0  0  0  0
   36.9130   31.6800   39.8720 C   0  0  0  0  0  0  0  0  0  0  0  0
   37.9210   31.4640   39.4770 H   0  0  0  0  0  0  0  0  0  0  0  0
   36.1100   31.4560   39.1390 H   0  0  0  0  0  0  0  0  0  0  0  0
   36.8130   33.0120   40.3140 O   0  0  0  0  0  0  0  0  0  0  0  0
   37.0230   33.6480   39.5840 H   0  0  0  0  0  0  0  0  0  0  0  0
  1  5  1  0  0  0  0
  1  3  1  0  0  0  0
  2  1  1  0  0  0  0
  4  9  2  0  0  0  0
  4  5  1  0  0  0  0
  5  6  2  0  0  0  0
  6  7  1  0  0  0  0
  6 11  1  0  0  0  0
  8 12  1  0  0  0  0
  8  7  2  0  0  0  0
  9  8  1  0  0  0  0
 10  4  1  0  0  0  0
 13  1  1  0  0  0  0
 14 13  1  0  0  0  0
 15 14  2  0  0  0  0
 16 19  1  0  0  0  0
 16 15  1  0  0  0  0
 17 16  1  0  0  0  0
 18 16  1  0  0  0  0
 20 19  1  0  0  0  0
M  END
>  <minimizedAffinity>
-3.7203145

$$$$

 OpenBabel03252504293D

 20 20  0  0  0  0  0  0  0  0999 V2000
   36.3890   30.4990   41.2290 C   0  0  0  0  0  0  0  0  0  0  0  0
   35.9310   29.8850   40.3770 H   0  0  0  0  0  0  0  0  0  0  0  0
   35.5400   30.8270   41.8510 H   0  0  0  0  0  0  0  0  0  0  0  0
   36.6050   28.2520   42.0510 C   0  0  0  0  0  0  0  0  0  0  0  0
   37.2130   29.5120   41.9570 C   0  0  0  0  0  0  0  0  0  0  0  0
   38.4350   29.6630   42.5490 C   0  0  0  0  0  0  0  0  0  0  0  0
   38.9540   28.5920   43.1720 N   0  0  0  0  0  0  0  0  0  0  0  0
   38.3790   27.3990   43.2620 C   0  0  0  0  0  0  0  0  0  0  0  0
   37.1390   27.1830   42.6810 N   0  0  0  0  0  0  0  0  0  0  0  0
   35.6240   28.0160   41.6140 H   0  0  0  0  0  0  0  0  0  0  0  0
   38.8510   30.6410   42.4460 H   0  0  0  0  0  0  0  0  0  0  0  0
   38.8520   26.5770   43.7800 H   0  0  0  0  0  0  0  0  0  0  0  0
   37.0940   31.5080   40.6230 O   0  0  0  0  0  0  0  0  0  0  0  0
   36.9920   31.9700   39.3270 C   0  0  0  0  0  3  0  0  0  0  0  0
   37.7780   31.4440   38.3850 C   0  0  0  0  0  3  0  0  0  0  0  0
   37.8140   31.7740   36.9120 C   0  0  0  0  0  0  0  0  0  0  0  0
   37.6650   30.8080   36.4010 H   0  0  0  0  0  0  0  0  0  0  0  0
   37.0420   32.5250   36.6410 H   0  0  0  0  0  0  0  0  0  0  0  0
   39.1010   32.2880   36.6660 O   0  0  0  0  0  0  0  0  0  0  0  0
   39.2620   32.4010   35.6950 H   0  0  0  0  0  0  0  0  0  0  0  0
  1  3  1  0  0  0  0
  1  5  1  0  0  0  0
  2  1  1  0  0  0  0
  4  9  1  0  0  0  0
  5  4  2  0  0  0  0
  5  6  1  0  0  0  0
  6  7  2  0  0  0  0
  7  8  1  0  0  0  0
  8 12  1  0  0  0  0
  9  8  2  0  0  0  0
 10  4  1  0  0  0  0
 11  6  1  0  0  0  0
 13  1  1  0  0  0  0
 14 13  1  0  0  0  0
 15 14  2  0  0  0  0
 16 15  1  0  0  0  0
 17 16  1  0  0  0  0
 18 16  1  0  0  0  0
 19 16  1  0  0  0  0
 20 19  1  0  0  0  0
M  END
>  <minimizedAffinity>
-3.69319248

$$$$

 OpenBabel03252504293D

 20 20  0  0  0  0  0  0  0  0999 V2000
   35.9980   30.3050   40.6630 C   0  0  0  0  0  0  0  0  0  0  0  0
   34.9650   29.9300   40.3390 H   0  0  0  0  0  0  0  0  0  0  0  0
   35.8100   31.0970   41.4040 H   0  0  0  0  0  0  0  0  0  0  0  0
   37.3610   29.4460   42.4460 C   0  0  0  0  0  0  0  0  0  0  0  0
   36.6030   29.1230   41.3110 C   0  0  0  0  0  0  0  0  0  0  0  0
   36.5420   27.8050   40.9530 C   0  0  0  0  0  0  0  0  0  0  0  0
   37.2130   26.9280   41.7180 N   0  0  0  0  0  0  0  0  0  0  0  0
   37.9320   27.2340   42.7920 C   0  0  0  0  0  0  0  0  0  0  0  0
   38.0310   28.5530   43.2050 N   0  0  0  0  0  0  0  0  0  0  0  0
   37.4800   30.4710   42.8250 H   0  0  0  0  0  0  0  0  0  0  0  0
   35.9520   27.6160   40.0840 H   0  0  0  0  0  0  0  0  0  0  0  0
   38.4490   26.4780   43.3640 H   0  0  0  0  0  0  0  0  0  0  0  0
   36.6220   30.7170   39.5120 O   0  0  0  0  0  0  0  0  0  0  0  0
   37.5530   31.7210   39.3500 C   0  0  0  0  0  3  0  0  0  0  0  0
   37.4700   32.8140   40.1120 C   0  0  0  0  0  3  0  0  0  0  0  0
   38.3900   34.0110   40.1250 C   0  0  0  0  0  0  0  0  0  0  0  0
   39.2330   33.7280   39.4730 H   0  0  0  0  0  0  0  0  0  0  0  0
   37.8720   34.9310   39.7780 H   0  0  0  0  0  0  0  0  0  0  0  0
   38.8060   34.1600   41.4610 O   0  0  0  0  0  0  0  0  0  0  0  0
   39.5240   34.8380   41.5380 H   0  0  0  0  0  0  0  0  0  0  0  0
  1  5  1  0  0  0  0
  1  3  1  0  0  0  0
  2  1  1  0  0  0  0
  4 10  1  0  0  0  0
  4  9  1  0  0  0  0
  5  4  2  0  0  0  0
  6  5  1  0  0  0  0
  6  7  2  0  0  0  0
  7  8  1  0  0  0  0
  8  9  2  0  0  0  0
  8 12  1  0  0  0  0
 11  6  1  0  0  0  0
 13  1  1  0  0  0  0
 14 13  1  0  0  0  0
 14 15  2  0  0  0  0
 15 16  1  0  0  0  0
 16 19  1  0  0  0  0
 17 16  1  0  0  0  0
 18 16  1  0  0  0  0
 19 20  1  0  0  0  0
M  END
>  <minimizedAffinity>
-3.59519076

$$$$

 OpenBabel03252504293D

 20 20  0  0  0  0  0  0  0  0999 V2000
   37.2610   28.1690   43.6320 C   0  0  0  0  0  0  0  0  0  0  0  0
   38.2680   27.8720   44.0920 H   0  0  0  0  0  0  0  0  0  0  0  0
   36.6600   28.5720   44.4630 H   0  0  0  0  0  0  0  0  0  0  0  0
   38.9200   29.7370   42.8820 C   0  0  0  0  0  0  0  0  0  0  0  0
   37.6210   29.2440   42.6850 C   0  0  0  0  0  0  0  0  0  0  0  0
   36.8790   29.8170   41.6920 C   0  0  0  0  0  0  0  0  0  0  0  0
   37.4520   30.8040   40.9850 N   0  0  0  0  0  0  0  0  0  0  0  0
   38.6810   31.2720   41.1720 C   0  0  0  0  0  0  0  0  0  0  0  0
   39.4840   30.7320   42.1640 N   0  0  0  0  0  0  0  0  0  0  0  0
   39.6050   29.3520   43.6510 H   0  0  0  0  0  0  0  0  0  0  0  0
   35.9000   29.4020   41.5850 H   0  0  0  0  0  0  0  0  0  0  0  0
   39.0830   32.0720   40.5660 H   0  0  0  0  0  0  0  0  0  0  0  0
   36.7670   27.0270   43.0520 O   0  0  0  0  0  0  0  0  0  0  0  0
   37.4300   26.1040   42.2690 C   0  0  0  0  0  3  0  0  0  0  0  0
   36.9000   24.8890   42.1080 C   0  0  0  0  0  3  0  0  0  0  0  0
   37.4330   23.7450   41.2790 C   0  0  0  0  0  0  0  0  0  0  0  0
   36.6680   22.9540   41.3630 H   0  0  0  0  0  0  0  0  0  0  0  0
   37.6170   24.0500   40.2270 H   0  0  0  0  0  0  0  0  0  0  0  0
   38.6380   23.3560   41.8930 O   0  0  0  0  0  0  0  0  0  0  0  0
   38.9870   22.5180   41.4970 H   0  0  0  0  0  0  0  0  0  0  0  0
  1  2  1  0  0  0  0
  1  3  1  0  0  0  0
  4 10  1  0  0  0  0
  5  4  1  0  0  0  0
  5  1  1  0  0  0  0
  6  5  2  0  0  0  0
  7  8  2  0  0  0  0
  7  6  1  0  0  0  0
  8  9  1  0  0  0  0
  9  4  2  0  0  0  0
 11  6  1  0  0  0  0
 12  8  1  0  0  0  0
 13  1  1  0  0  0  0
 14 13  1  0  0  0  0
 15 14  2  0  0  0  0
 16 17  1  0  0  0  0
 16 19  1  0  0  0  0
 16 15  1  0  0  0  0
 18 16  1  0  0  0  0
 20 19  1  0  0  0  0
M  END
>  <minimizedAffinity>
-3.53545022

$$$$

 OpenBabel03252504293D

 20 20  0  0  0  0  0  0  0  0999 V2000
   36.5550   31.1020   40.5760 C   0  0  0  0  0  0  0  0  0  0  0  0
   36.1820   30.7150   39.5640 H   0  0  0  0  0  0  0  0  0  0  0  0
   35.7070   31.6490   41.0180 H   0  0  0  0  0  0  0  0  0  0  0  0
   37.9730   29.9540   42.1390 C   0  0  0  0  0  0  0  0  0  0  0  0
   36.8260   29.8650   41.3360 C   0  0  0  0  0  0  0  0  0  0  0  0
   36.1460   28.6800   41.3460 C   0  0  0  0  0  0  0  0  0  0  0  0
   36.6310   27.6980   42.1240 N   0  0  0  0  0  0  0  0  0  0  0  0
   37.7170   27.7810   42.8830 C   0  0  0  0  0  0  0  0  0  0  0  0
   38.4500   28.9570   42.9150 N   0  0  0  0  0  0  0  0  0  0  0  0
   38.5970   30.8560   42.2080 H   0  0  0  0  0  0  0  0  0  0  0  0
   35.2810   28.6680   40.7200 H   0  0  0  0  0  0  0  0  0  0  0  0
   38.0540   26.9510   43.4860 H   0  0  0  0  0  0  0  0  0  0  0  0
   37.6610   31.8650   40.2970 O   0  0  0  0  0  0  0  0  0  0  0  0
   38.2250   32.1460   39.0700 C   0  0  0  0  0  3  0  0  0  0  0  0
   39.5170   31.8720   38.8700 C   0  0  0  0  0  3  0  0  0  0  0  0
   40.3250   32.0680   37.6090 C   0  0  0  0  0  0  0  0  0  0  0  0
   40.9710   32.9370   37.8190 H   0  0  0  0  0  0  0  0  0  0  0  0
   40.9040   31.1570   37.3480 H   0  0  0  0  0  0  0  0  0  0  0  0
   39.3920   32.3590   36.5970 O   0  0  0  0  0  0  0  0  0  0  0  0
   39.8450   32.6410   35.7630 H   0  0  0  0  0  0  0  0  0  0  0  0
  1  3  1  0  0  0  0
  1  5  1  0  0  0  0
  2  1  1  0  0  0  0
  4 10  1  0  0  0  0
  4  9  1  0  0  0  0
  5  6  1  0  0  0  0
  5  4  2  0  0  0  0
  6  7  2  0  0  0  0
  7  8  1  0  0  0  0
  8  9  2  0  0  0  0
  8 12  1  0  0  0  0
 11  6  1  0  0  0  0
 13  1  1  0  0  0  0
 14 13  1  0  0  0  0
 15 14  2  0  0  0  0
 16 17  1  0  0  0  0
 16 15  1  0  0  0  0
 18 16  1  0  0  0  0
 19 16  1  0  0  0  0
 20 19  1  0  0  0  0
M  END
>  <minimizedAffinity>
-3.52868462

$$$$

 OpenBabel03252504293D

 20 20  0  0  0  0  0  0  0  0999 V2000
   35.9830   30.1830   40.7840 C   0  0  0  0  0  0  0  0  0  0  0  0
   34.8400   30.1090   40.7580 H   0  0  0  0  0  0  0  0  0  0  0  0
   36.2200   30.8540   41.6260 H   0  0  0  0  0  0  0  0  0  0  0  0
   36.4750   27.9840   39.9500 C   0  0  0  0  0  0  0  0  0  0  0  0
   36.4080   28.8010   41.0880 C   0  0  0  0  0  0  0  0  0  0  0  0
   36.7120   28.2260   42.2890 C   0  0  0  0  0  0  0  0  0  0  0  0
   37.0520   26.9270   42.2820 N   0  0  0  0  0  0  0  0  0  0  0  0
   37.1150   26.1530   41.2050 C   0  0  0  0  0  0  0  0  0  0  0  0
   36.8180   26.6780   39.9570 N   0  0  0  0  0  0  0  0  0  0  0  0
   36.2520   28.3400   38.9330 H   0  0  0  0  0  0  0  0  0  0  0  0
   36.6460   28.8920   43.1210 H   0  0  0  0  0  0  0  0  0  0  0  0
   37.3950   25.1110   41.2680 H   0  0  0  0  0  0  0  0  0  0  0  0
   36.3540   30.6440   39.5460 O   0  0  0  0  0  0  0  0  0  0  0  0
   37.0720   31.7790   39.2300 C   0  0  0  0  0  3  0  0  0  0  0  0
   37.4250   32.6180   40.2070 C   0  0  0  0  0  3  0  0  0  0  0  0
   38.2290   33.8900   40.0950 C   0  0  0  0  0  0  0  0  0  0  0  0
   39.0370   33.6530   39.3820 H   0  0  0  0  0  0  0  0  0  0  0  0
   37.6030   34.7440   39.7610 H   0  0  0  0  0  0  0  0  0  0  0  0
   38.7410   34.1360   41.3830 O   0  0  0  0  0  0  0  0  0  0  0  0
   39.3990   34.8770   41.3710 H   0  0  0  0  0  0  0  0  0  0  0  0
  1  5  1  0  0  0  0
  1  3  1  0  0  0  0
  2  1  1  0  0  0  0
  4  9  2  0  0  0  0
  4  5  1  0  0  0  0
  5  6  2  0  0  0  0
  6 11  1  0  0  0  0
  7  6  1  0  0  0  0
  8 12  1  0  0  0  0
  8  7  2  0  0  0  0
  9  8  1  0  0  0  0
 10  4  1  0  0  0  0
 13  1  1  0  0  0  0
 14 13  1  0  0  0  0
 14 15  2  0  0  0  0
 16 15  1  0  0  0  0
 16 19  1  0  0  0  0
 17 16  1  0  0  0  0
 18 16  1  0  0  0  0
 20 19  1  0  0  0  0
M  END
>  <minimizedAffinity>
-3.52519488

$$$$

 OpenBabel03252504293D

 20 20  0  0  0  0  0  0  0  0999 V2000
   39.3420   30.1930   42.7470 C   0  0  0  0  0  0  0  0  0  0  0  0
   38.6020   30.7850   43.3910 H   0  0  0  0  0  0  0  0  0  0  0  0
   40.2540   30.0900   43.3580 H   0  0  0  0  0  0  0  0  0  0  0  0
   37.5360   28.7410   43.3790 C   0  0  0  0  0  0  0  0  0  0  0  0
   38.6800   28.8840   42.5800 C   0  0  0  0  0  0  0  0  0  0  0  0
   39.0310   27.8210   41.7960 C   0  0  0  0  0  0  0  0  0  0  0  0
   38.2530   26.7290   41.8540 N   0  0  0  0  0  0  0  0  0  0  0  0
   37.1700   26.5930   42.6100 C   0  0  0  0  0  0  0  0  0  0  0  0
   36.7620   27.6360   43.4270 N   0  0  0  0  0  0  0  0  0  0  0  0
   37.1600   29.5290   44.0480 H   0  0  0  0  0  0  0  0  0  0  0  0
   39.9080   27.9850   41.2090 H   0  0  0  0  0  0  0  0  0  0  0  0
   36.5870   25.6840   42.6100 H   0  0  0  0  0  0  0  0  0  0  0  0
   39.4910   30.9190   41.5910 O   0  0  0  0  0  0  0  0  0  0  0  0
   38.6040   31.7990   41.0080 C   0  0  0  0  0  3  0  0  0  0  0  0
   39.0030   33.0450   40.7420 C   0  0  0  0  0  3  0  0  0  0  0  0
   38.2160   34.1540   40.0870 C   0  0  0  0  0  0  0  0  0  0  0  0
   38.2210   34.9770   40.8220 H   0  0  0  0  0  0  0  0  0  0  0  0
   38.6580   34.4500   39.1120 H   0  0  0  0  0  0  0  0  0  0  0  0
   36.9180   33.6440   39.8990 O   0  0  0  0  0  0  0  0  0  0  0  0
   36.2940   34.3550   39.6020 H   0  0  0  0  0  0  0  0  0  0  0  0
  1  3  1  0  0  0  0
  1  2  1  0  0  0  0
  4  9  1  0  0  0  0
  4 10  1  0  0  0  0
  5  1  1  0  0  0  0
  5  4  2  0  0  0  0
  6  7  2  0  0  0  0
  6  5  1  0  0  0  0
  7  8  1  0  0  0  0
  8  9  2  0  0  0  0
 11  6  1  0  0  0  0
 12  8  1  0  0  0  0
 13  1  1  0  0  0  0
 14 13  1  0  0  0  0
 15 14  2  0  0  0  0
 16 15  1  0  0  0  0
 16 17  1  0  0  0  0
 18 16  1  0  0  0  0
 19 16  1  0  0  0  0
 20 19  1  0  0  0  0
M  END
>  <minimizedAffinity>
-3.52011251

$$$$

 OpenBabel03252504293D

 20 20  0  0  0  0  0  0  0  0999 V2000
   37.7760   28.3880   43.3660 C   0  0  0  0  0  0  0  0  0  0  0  0
   37.5310   29.0800   44.2460 H   0  0  0  0  0  0  0  0  0  0  0  0
   37.2260   27.4530   43.5600 H   0  0  0  0  0  0  0  0  0  0  0  0
   36.1660   28.3820   41.5830 C   0  0  0  0  0  0  0  0  0  0  0  0
   37.2000   29.0960   42.2040 C   0  0  0  0  0  0  0  0  0  0  0  0
   37.5430   30.3010   41.6600 C   0  0  0  0  0  0  0  0  0  0  0  0
   36.8610   30.7030   40.5750 N   0  0  0  0  0  0  0  0  0  0  0  0
   35.8820   30.0270   39.9860 C   0  0  0  0  0  0  0  0  0  0  0  0
   35.4880   28.7980   40.4920 N   0  0  0  0  0  0  0  0  0  0  0  0
   35.8070   27.4030   41.9340 H   0  0  0  0  0  0  0  0  0  0  0  0
   38.3350   30.8020   42.1720 H   0  0  0  0  0  0  0  0  0  0  0  0
   35.3730   30.4080   39.1120 H   0  0  0  0  0  0  0  0  0  0  0  0
   39.1430   28.2710   43.3550 O   0  0  0  0  0  0  0  0  0  0  0  0
   39.9150   27.2530   42.8350 C   0  0  0  0  0  3  0  0  0  0  0  0
   39.8350   26.0350   43.3760 C   0  0  0  0  0  3  0  0  0  0  0  0
   40.5600   24.7800   42.9520 C   0  0  0  0  0  0  0  0  0  0  0  0
   40.6990   24.8870   41.8630 H   0  0  0  0  0  0  0  0  0  0  0  0
   41.5200   24.6570   43.4960 H   0  0  0  0  0  0  0  0  0  0  0  0
   39.6900   23.7150   43.2530 O   0  0  0  0  0  0  0  0  0  0  0  0
   40.0260   22.8620   42.8780 H   0  0  0  0  0  0  0  0  0  0  0  0
  1  3  1  0  0  0  0
  1  2  1  0  0  0  0
  4 10  1  0  0  0  0
  4  5  1  0  0  0  0
  5  1  1  0  0  0  0
  6 11  1  0  0  0  0
  6  5  2  0  0  0  0
  7  6  1  0  0  0  0
  8  9  1  0  0  0  0
  8  7  2  0  0  0  0
  9  4  2  0  0  0  0
 12  8  1  0  0  0  0
 13  1  1  0  0  0  0
 14 13  1  0  0  0  0
 14 15  2  0  0  0  0
 16 19  1  0  0  0  0
 16 15  1  0  0  0  0
 16 18  1  0  0  0  0
 17 16  1  0  0  0  0
 20 19  1  0  0  0  0
M  END
>  <minimizedAffinity>
-3.37501121

$$$$
