
 OpenBabel03252503253D

 14 14  0  0  0  0  0  0  0  0999 V2000
   44.8820   35.1560   44.1120 C   0  0  0  0  0  0  0  0  0  0  0  0
   45.6970   35.3440   42.9630 C   0  0  0  0  0  0  0  0  0  0  0  0
   46.8710   34.5930   42.9000 C   0  0  0  0  0  0  0  0  0  0  0  0
   47.1610   33.7450   43.9210 N   0  0  0  0  0  0  0  0  0  0  0  0
   46.3540   33.6030   44.9930 C   0  0  0  0  0  0  0  0  0  0  0  0
   45.2230   34.3050   45.0850 N   0  0  0  0  0  0  0  0  0  0  0  0
   45.3130   36.0490   42.2630 H   0  0  0  0  0  0  0  0  0  0  0  0
   46.6040   32.9210   45.7960 H   0  0  0  0  0  0  0  0  0  0  0  0
   47.6870   34.8100   41.7040 C   0  0  0  0  0  0  0  0  0  0  0  0
   48.7150   33.8880   41.6740 F   0  0  0  0  0  0  0  0  0  0  0  0
   48.3080   36.0370   41.8650 F   0  0  0  0  0  0  0  0  0  0  0  0
   46.9990   34.7220   40.5360 F   0  0  0  0  0  0  0  0  0  0  0  0
   43.6900   35.8730   44.2440 O   0  0  0  0  0  0  0  0  0  0  0  0
   43.5300   36.7650   43.8030 H   0  0  0  0  0  0  0  0  0  0  0  0
  1 13  1  0  0  0  0
  1  6  1  0  0  0  0
  2  1  2  0  0  0  0
  3  2  1  0  0  0  0
  3  4  2  0  0  0  0
  4  5  1  0  0  0  0
  5  6  2  0  0  0  0
  5  8  1  0  0  0  0
  7  2  1  0  0  0  0
  9 11  1  0  0  0  0
  9  3  1  0  0  0  0
 10  9  1  0  0  0  0
 12  9  1  0  0  0  0
 14 13  1  0  0  0  0
M  END
>  <minimizedAffinity>
-4.38820553

>  <minimizedRMSD>
0.85562706

$$$$
