
 OpenBabel03252504283D

 20 20  0  0  0  0  0  0  0  0999 V2000
   44.1020   35.5700   41.8090 C   0  0  0  0  0  0  0  0  0  0  0  0
   44.4420   36.6590   41.9090 H   0  0  0  0  0  0  0  0  0  0  0  0
   44.6600   35.1600   40.9520 H   0  0  0  0  0  0  0  0  0  0  0  0
   44.3240   35.7570   44.1930 C   0  0  0  0  0  0  0  0  0  0  0  0
   44.5580   34.9510   43.0700 C   0  0  0  0  0  0  0  0  0  0  0  0
   45.1760   33.7500   43.2790 C   0  0  0  0  0  0  0  0  0  0  0  0
   45.5070   33.4400   44.5420 N   0  0  0  0  0  0  0  0  0  0  0  0
   45.2870   34.2030   45.6070 C   0  0  0  0  0  0  0  0  0  0  0  0
   44.6640   35.4330   45.4590 N   0  0  0  0  0  0  0  0  0  0  0  0
   43.8360   36.7410   44.1440 H   0  0  0  0  0  0  0  0  0  0  0  0
   45.3280   33.1780   42.3910 H   0  0  0  0  0  0  0  0  0  0  0  0
   45.5810   33.8930   46.5990 H   0  0  0  0  0  0  0  0  0  0  0  0
   42.7390   35.6210   41.6480 O   0  0  0  0  0  0  0  0  0  0  0  0
   41.8940   34.6450   41.1620 C   0  0  0  0  0  0  0  0  0  0  0  0
   40.5750   34.8520   41.1960 C   0  0  0  0  0  0  0  0  0  0  0  0
   39.4780   33.9430   40.6970 C   0  0  0  0  0  0  0  0  0  0  0  0
   40.0050   33.0920   40.2310 H   0  0  0  0  0  0  0  0  0  0  0  0
   38.8000   33.6280   41.5180 H   0  0  0  0  0  0  0  0  0  0  0  0
   38.7680   34.6890   39.7380 O   0  0  0  0  0  0  0  0  0  0  0  0
   38.1150   34.1220   39.2540 H   0  0  0  0  0  0  0  0  0  0  0  0
  1  2  1  0  0  0  0
  1  5  1  0  0  0  0
  3  1  1  0  0  0  0
  4  9  1  0  0  0  0
  5  6  1  0  0  0  0
  5  4  2  0  0  0  0
  6  7  2  0  0  0  0
  7  8  1  0  0  0  0
  8 12  1  0  0  0  0
  9  8  2  0  0  0  0
 10  4  1  0  0  0  0
 11  6  1  0  0  0  0
 13  1  1  0  0  0  0
 14 15  2  0  0  0  0
 14 13  1  0  0  0  0
 16 15  1  0  0  0  0
 16 18  1  0  0  0  0
 17 16  1  0  0  0  0
 19 16  1  0  0  0  0
 20 19  1  0  0  0  0
M  END
>  <minimizedAffinity>
-3.55164766

>  <minimizedRMSD>
0.659006536

$$$$
