
 OpenBabel03242522153D

 25 26  0  0  0  0  0  0  0  0999 V2000
   38.1120   29.2740   41.7730 C   0  0  0  0  0  0  0  0  0  0  0  0
   38.5950   29.2600   43.0460 C   0  0  0  0  0  0  0  0  0  0  0  0
   38.3340   27.4900   43.5420 S   0  0  0  0  0  0  0  0  0  0  0  0
   37.5970   27.1130   41.8620 C   0  0  0  0  0  0  0  0  0  0  0  0
   37.6580   28.1270   41.3480 N   0  0  0  0  0  0  0  0  0  0  0  0
   39.0260   30.1450   43.5840 H   0  0  0  0  0  0  0  0  0  0  0  0
   37.0570   32.3660   39.9120 C   0  0  0  0  0  0  0  0  0  0  0  0
   36.9650   31.2250   40.7210 C   0  0  0  0  0  0  0  0  0  0  0  0
   38.1060   30.4910   40.9320 C   0  0  0  0  0  0  0  0  0  0  0  0
   39.2740   30.9400   40.3180 N   0  0  0  0  0  0  0  0  0  0  0  0
   39.3080   32.0320   39.5560 C   0  0  0  0  0  0  0  0  0  0  0  0
   38.2130   32.7490   39.3470 N   0  0  0  0  0  0  0  0  0  0  0  0
   36.1770   32.9910   39.7080 H   0  0  0  0  0  0  0  0  0  0  0  0
   40.3390   32.1540   39.2050 H   0  0  0  0  0  0  0  0  0  0  0  0
   35.7090   30.9160   41.2590 N   0  0  0  0  0  0  0  0  0  0  0  0
   35.2830   31.7180   41.7890 H   0  0  0  0  0  0  0  0  0  0  0  0
   35.2020   30.0130   41.1800 H   0  0  0  0  0  0  0  0  0  0  0  0
   37.1160   25.7360   41.4910 C   0  0  0  0  0  0  0  0  0  0  0  0
   36.4360   25.4630   42.3490 H   0  0  0  0  0  0  0  0  0  0  0  0
   36.5550   25.7280   40.5500 H   0  0  0  0  0  0  0  0  0  0  0  0
   38.2650   24.7560   41.4840 C   0  0  0  0  0  0  0  0  0  0  0  0
   39.2230   25.2690   41.6620 H   0  0  0  0  0  0  0  0  0  0  0  0
   38.2640   24.2150   40.5090 H   0  0  0  0  0  0  0  0  0  0  0  0
   38.1040   23.8210   42.4870 O   0  0  0  0  0  0  0  0  0  0  0  0
   38.8520   23.1940   42.5190 H   0  0  0  0  0  0  0  0  0  0  0  0
  1  2  2  0  0  0  0
  2  3  1  0  0  0  0
  2  6  1  0  0  0  0
  4  3  1  0  0  0  0
  5  1  1  0  0  0  0
  5  4  2  0  0  0  0
  7  8  1  0  0  0  0
  8  9  2  0  0  0  0
  8 15  1  0  0  0  0
  9  1  1  0  0  0  0
 10  9  1  0  0  0  0
 11 10  2  0  0  0  0
 12 11  1  0  0  0  0
 12  7  2  0  0  0  0
 13  7  1  0  0  0  0
 14 11  1  0  0  0  0
 15 16  1  0  0  0  0
 17 15  1  0  0  0  0
 18  4  1  0  0  0  0
 18 19  1  0  0  0  0
 20 18  1  0  0  0  0
 21 18  1  0  0  0  0
 21 22  1  0  0  0  0
 21 24  1  0  0  0  0
 23 21  1  0  0  0  0
 24 25  1  0  0  0  0
M  END
>  <minimizedAffinity>
-4.58830452

$$$$

 OpenBabel03242522153D

 25 26  0  0  0  0  0  0  0  0999 V2000
   39.2310   30.7690   41.7290 C   0  0  0  0  0  0  0  0  0  0  0  0
   39.6930   30.1410   42.8460 C   0  0  0  0  0  0  0  0  0  0  0  0
   38.4850   28.7440   43.0350 S   0  0  0  0  0  0  0  0  0  0  0  0
   37.5650   29.3130   41.5080 C   0  0  0  0  0  0  0  0  0  0  0  0
   38.1710   30.2260   41.1960 N   0  0  0  0  0  0  0  0  0  0  0  0
   40.5890   30.4590   43.4410 H   0  0  0  0  0  0  0  0  0  0  0  0
   39.8550   34.1270   40.1590 C   0  0  0  0  0  0  0  0  0  0  0  0
   39.1520   33.0310   40.6790 C   0  0  0  0  0  0  0  0  0  0  0  0
   39.8790   31.9690   41.1580 C   0  0  0  0  0  0  0  0  0  0  0  0
   41.2680   32.0640   41.0860 N   0  0  0  0  0  0  0  0  0  0  0  0
   41.8880   33.1300   40.5810 C   0  0  0  0  0  0  0  0  0  0  0  0
   41.1970   34.1610   40.1170 N   0  0  0  0  0  0  0  0  0  0  0  0
   39.3270   35.0050   39.7620 H   0  0  0  0  0  0  0  0  0  0  0  0
   42.9650   32.9430   40.6470 H   0  0  0  0  0  0  0  0  0  0  0  0
   37.7540   33.1000   40.6720 N   0  0  0  0  0  0  0  0  0  0  0  0
   37.3860   33.9660   41.1400 H   0  0  0  0  0  0  0  0  0  0  0  0
   37.0970   32.4050   40.2660 H   0  0  0  0  0  0  0  0  0  0  0  0
   36.3530   28.5870   40.9880 C   0  0  0  0  0  0  0  0  0  0  0  0
   36.7620   28.0000   40.1160 H   0  0  0  0  0  0  0  0  0  0  0  0
   35.9210   27.9080   41.7300 H   0  0  0  0  0  0  0  0  0  0  0  0
   35.3390   29.5680   40.4470 C   0  0  0  0  0  0  0  0  0  0  0  0
   34.3130   29.1960   40.5880 H   0  0  0  0  0  0  0  0  0  0  0  0
   35.5640   29.7520   39.3700 H   0  0  0  0  0  0  0  0  0  0  0  0
   35.4370   30.7740   41.1120 O   0  0  0  0  0  0  0  0  0  0  0  0
   34.7710   31.4150   40.7960 H   0  0  0  0  0  0  0  0  0  0  0  0
  1  2  2  0  0  0  0
  2  3  1  0  0  0  0
  2  6  1  0  0  0  0
  4  3  1  0  0  0  0
  5  4  2  0  0  0  0
  5  1  1  0  0  0  0
  7  8  1  0  0  0  0
  8  9  2  0  0  0  0
  9  1  1  0  0  0  0
 10  9  1  0  0  0  0
 11 14  1  0  0  0  0
 11 10  2  0  0  0  0
 12  7  2  0  0  0  0
 12 11  1  0  0  0  0
 13  7  1  0  0  0  0
 15  8  1  0  0  0  0
 15 16  1  0  0  0  0
 17 15  1  0  0  0  0
 18  4  1  0  0  0  0
 18 20  1  0  0  0  0
 19 18  1  0  0  0  0
 21 22  1  0  0  0  0
 21 18  1  0  0  0  0
 21 24  1  0  0  0  0
 23 21  1  0  0  0  0
 25 24  1  0  0  0  0
M  END
>  <minimizedAffinity>
-4.41549206

$$$$

 OpenBabel03242522153D

 25 26  0  0  0  0  0  0  0  0999 V2000
   39.4790   31.2730   40.8730 C   0  0  0  0  0  0  0  0  0  0  0  0
   40.3720   31.2550   41.9010 C   0  0  0  0  0  0  0  0  0  0  0  0
   41.7420   32.3230   41.2450 S   0  0  0  0  0  0  0  0  0  0  0  0
   40.7930   32.5880   39.6530 C   0  0  0  0  0  0  0  0  0  0  0  0
   39.8480   31.9810   39.8410 N   0  0  0  0  0  0  0  0  0  0  0  0
   40.2320   30.7050   42.8680 H   0  0  0  0  0  0  0  0  0  0  0  0
   35.8190   30.4220   40.7560 C   0  0  0  0  0  0  0  0  0  0  0  0
   36.9910   31.1880   40.6940 C   0  0  0  0  0  0  0  0  0  0  0  0
   38.1880   30.5530   40.9200 C   0  0  0  0  0  0  0  0  0  0  0  0
   38.1420   29.1890   41.2000 N   0  0  0  0  0  0  0  0  0  0  0  0
   36.9980   28.5060   41.2490 C   0  0  0  0  0  0  0  0  0  0  0  0
   35.8390   29.1070   41.0300 N   0  0  0  0  0  0  0  0  0  0  0  0
   34.8330   30.8750   40.5840 H   0  0  0  0  0  0  0  0  0  0  0  0
   37.2500   27.4650   41.4840 H   0  0  0  0  0  0  0  0  0  0  0  0
   36.8550   32.5500   40.4010 N   0  0  0  0  0  0  0  0  0  0  0  0
   36.3120   32.7270   39.5200 H   0  0  0  0  0  0  0  0  0  0  0  0
   37.2290   33.3470   40.9550 H   0  0  0  0  0  0  0  0  0  0  0  0
   41.3290   33.4410   38.5350 C   0  0  0  0  0  0  0  0  0  0  0  0
   40.5330   34.2310   38.4130 H   0  0  0  0  0  0  0  0  0  0  0  0
   42.2870   33.9080   38.7870 H   0  0  0  0  0  0  0  0  0  0  0  0
   41.3940   32.6510   37.2490 C   0  0  0  0  0  0  0  0  0  0  0  0
   41.8610   31.6670   37.4120 H   0  0  0  0  0  0  0  0  0  0  0  0
   41.9530   33.2500   36.4920 H   0  0  0  0  0  0  0  0  0  0  0  0
   40.1230   32.4280   36.7580 O   0  0  0  0  0  0  0  0  0  0  0  0
   40.1400   31.8940   35.9410 H   0  0  0  0  0  0  0  0  0  0  0  0
  1  9  1  0  0  0  0
  1  2  2  0  0  0  0
  2  6  1  0  0  0  0
  3  2  1  0  0  0  0
  4  5  2  0  0  0  0
  4  3  1  0  0  0  0
  5  1  1  0  0  0  0
  7 12  1  0  0  0  0
  8  7  2  0  0  0  0
  8  9  1  0  0  0  0
  9 10  2  0  0  0  0
 10 11  1  0  0  0  0
 11 14  1  0  0  0  0
 12 11  2  0  0  0  0
 13  7  1  0  0  0  0
 15  8  1  0  0  0  0
 15 17  1  0  0  0  0
 16 15  1  0  0  0  0
 18 20  1  0  0  0  0
 18  4  1  0  0  0  0
 19 18  1  0  0  0  0
 21 22  1  0  0  0  0
 21 18  1  0  0  0  0
 23 21  1  0  0  0  0
 24 21  1  0  0  0  0
 25 24  1  0  0  0  0
M  END
>  <minimizedAffinity>
-4.39658403

$$$$

 OpenBabel03242522153D

 25 26  0  0  0  0  0  0  0  0999 V2000
   38.2930   29.9300   39.8160 C   0  0  0  0  0  0  0  0  0  0  0  0
   38.2860   29.1860   38.6750 C   0  0  0  0  0  0  0  0  0  0  0  0
   37.6190   27.5610   39.2740 S   0  0  0  0  0  0  0  0  0  0  0  0
   37.4780   28.2420   41.0110 C   0  0  0  0  0  0  0  0  0  0  0  0
   37.8610   29.3060   40.8770 N   0  0  0  0  0  0  0  0  0  0  0  0
   38.6200   29.5480   37.6670 H   0  0  0  0  0  0  0  0  0  0  0  0
   38.4320   33.6650   40.2200 C   0  0  0  0  0  0  0  0  0  0  0  0
   37.9100   32.3640   40.2110 C   0  0  0  0  0  0  0  0  0  0  0  0
   38.7480   31.3370   39.8530 C   0  0  0  0  0  0  0  0  0  0  0  0
   40.0600   31.6710   39.5230 N   0  0  0  0  0  0  0  0  0  0  0  0
   40.5070   32.9270   39.5460 C   0  0  0  0  0  0  0  0  0  0  0  0
   39.7080   33.9250   39.8920 N   0  0  0  0  0  0  0  0  0  0  0  0
   37.8080   34.5260   40.4980 H   0  0  0  0  0  0  0  0  0  0  0  0
   41.5610   32.9040   39.2470 H   0  0  0  0  0  0  0  0  0  0  0  0
   36.5660   32.2070   40.5700 N   0  0  0  0  0  0  0  0  0  0  0  0
   36.3390   32.6340   41.5020 H   0  0  0  0  0  0  0  0  0  0  0  0
   35.8250   31.7290   40.0190 H   0  0  0  0  0  0  0  0  0  0  0  0
   36.9500   27.4160   42.1540 C   0  0  0  0  0  0  0  0  0  0  0  0
   35.8400   27.6160   42.1220 H   0  0  0  0  0  0  0  0  0  0  0  0
   37.1440   26.3460   42.0220 H   0  0  0  0  0  0  0  0  0  0  0  0
   37.4740   27.9370   43.4710 C   0  0  0  0  0  0  0  0  0  0  0  0
   38.5750   27.9500   43.4830 H   0  0  0  0  0  0  0  0  0  0  0  0
   37.0620   27.3040   44.2920 H   0  0  0  0  0  0  0  0  0  0  0  0
   37.0440   29.2330   43.6800 O   0  0  0  0  0  0  0  0  0  0  0  0
   37.3940   29.6000   44.5140 H   0  0  0  0  0  0  0  0  0  0  0  0
  1  9  1  0  0  0  0
  1  5  1  0  0  0  0
  2  3  1  0  0  0  0
  2  1  2  0  0  0  0
  3  4  1  0  0  0  0
  4 18  1  0  0  0  0
  5  4  2  0  0  0  0
  6  2  1  0  0  0  0
  7 13  1  0  0  0  0
  8  7  1  0  0  0  0
  8 15  1  0  0  0  0
  9  8  2  0  0  0  0
 10 11  2  0  0  0  0
 10  9  1  0  0  0  0
 11 12  1  0  0  0  0
 12  7  2  0  0  0  0
 14 11  1  0  0  0  0
 15 16  1  0  0  0  0
 17 15  1  0  0  0  0
 18 21  1  0  0  0  0
 19 18  1  0  0  0  0
 20 18  1  0  0  0  0
 21 22  1  0  0  0  0
 21 24  1  0  0  0  0
 21 23  1  0  0  0  0
 24 25  1  0  0  0  0
M  END
>  <minimizedAffinity>
-4.35610676

$$$$

 OpenBabel03242522153D

 25 26  0  0  0  0  0  0  0  0999 V2000
   37.2580   28.7480   39.8050 C   0  0  0  0  0  0  0  0  0  0  0  0
   36.8360   28.0100   38.7400 C   0  0  0  0  0  0  0  0  0  0  0  0
   36.5930   26.3340   39.5000 S   0  0  0  0  0  0  0  0  0  0  0  0
   37.1320   26.9950   41.1660 C   0  0  0  0  0  0  0  0  0  0  0  0
   37.3480   28.0870   40.9260 N   0  0  0  0  0  0  0  0  0  0  0  0
   36.6970   28.4010   37.6980 H   0  0  0  0  0  0  0  0  0  0  0  0
   37.2620   32.4830   40.2310 C   0  0  0  0  0  0  0  0  0  0  0  0
   36.8770   31.1440   40.3870 C   0  0  0  0  0  0  0  0  0  0  0  0
   37.5850   30.1870   39.7030 C   0  0  0  0  0  0  0  0  0  0  0  0
   38.6370   30.6250   38.9000 N   0  0  0  0  0  0  0  0  0  0  0  0
   38.9620   31.9120   38.7860 C   0  0  0  0  0  0  0  0  0  0  0  0
   38.2870   32.8440   39.4420 N   0  0  0  0  0  0  0  0  0  0  0  0
   36.7330   33.2920   40.7530 H   0  0  0  0  0  0  0  0  0  0  0  0
   39.8150   31.9730   38.1010 H   0  0  0  0  0  0  0  0  0  0  0  0
   35.7940   30.8800   41.2340 N   0  0  0  0  0  0  0  0  0  0  0  0
   35.9150   31.2900   42.1930 H   0  0  0  0  0  0  0  0  0  0  0  0
   34.9350   30.3440   40.9990 H   0  0  0  0  0  0  0  0  0  0  0  0
   37.1840   26.1250   42.3930 C   0  0  0  0  0  0  0  0  0  0  0  0
   37.3650   26.8660   43.2240 H   0  0  0  0  0  0  0  0  0  0  0  0
   36.2450   25.5880   42.5660 H   0  0  0  0  0  0  0  0  0  0  0  0
   38.3750   25.1980   42.3360 C   0  0  0  0  0  0  0  0  0  0  0  0
   39.0560   25.3750   43.1830 H   0  0  0  0  0  0  0  0  0  0  0  0
   38.8910   25.3440   41.3580 H   0  0  0  0  0  0  0  0  0  0  0  0
   37.9630   23.8820   42.4050 O   0  0  0  0  0  0  0  0  0  0  0  0
   38.7200   23.2650   42.3980 H   0  0  0  0  0  0  0  0  0  0  0  0
  1  5  1  0  0  0  0
  2  3  1  0  0  0  0
  2  1  2  0  0  0  0
  3  4  1  0  0  0  0
  4 18  1  0  0  0  0
  5  4  2  0  0  0  0
  6  2  1  0  0  0  0
  7  8  1  0  0  0  0
  7 13  1  0  0  0  0
  8 15  1  0  0  0  0
  9  1  1  0  0  0  0
  9  8  2  0  0  0  0
 10  9  1  0  0  0  0
 11 10  2  0  0  0  0
 11 12  1  0  0  0  0
 12  7  2  0  0  0  0
 14 11  1  0  0  0  0
 15 16  1  0  0  0  0
 17 15  1  0  0  0  0
 18 20  1  0  0  0  0
 18 19  1  0  0  0  0
 21 18  1  0  0  0  0
 21 24  1  0  0  0  0
 21 22  1  0  0  0  0
 23 21  1  0  0  0  0
 25 24  1  0  0  0  0
M  END
>  <minimizedAffinity>
-4.23221684

$$$$

 OpenBabel03242522153D

 25 26  0  0  0  0  0  0  0  0999 V2000
   37.6750   31.9410   39.7510 C   0  0  0  0  0  0  0  0  0  0  0  0
   37.3850   33.2670   39.6450 C   0  0  0  0  0  0  0  0  0  0  0  0
   38.9560   34.0590   40.2350 S   0  0  0  0  0  0  0  0  0  0  0  0
   39.7170   32.3720   40.5170 C   0  0  0  0  0  0  0  0  0  0  0  0
   38.8720   31.6790   40.1990 N   0  0  0  0  0  0  0  0  0  0  0  0
   36.4100   33.6880   39.2800 H   0  0  0  0  0  0  0  0  0  0  0  0
   35.0330   29.2700   39.8730 C   0  0  0  0  0  0  0  0  0  0  0  0
   35.9160   30.2640   40.3170 C   0  0  0  0  0  0  0  0  0  0  0  0
   36.7150   30.8780   39.3840 C   0  0  0  0  0  0  0  0  0  0  0  0
   36.5850   30.4600   38.0600 N   0  0  0  0  0  0  0  0  0  0  0  0
   35.7300   29.5070   37.6910 C   0  0  0  0  0  0  0  0  0  0  0  0
   34.9530   28.9090   38.5820 N   0  0  0  0  0  0  0  0  0  0  0  0
   34.3700   28.7440   40.5750 H   0  0  0  0  0  0  0  0  0  0  0  0
   35.8320   29.3790   36.6080 H   0  0  0  0  0  0  0  0  0  0  0  0
   35.9180   30.5610   41.6850 N   0  0  0  0  0  0  0  0  0  0  0  0
   34.9630   30.7950   42.0540 H   0  0  0  0  0  0  0  0  0  0  0  0
   36.7400   30.5660   42.3210 H   0  0  0  0  0  0  0  0  0  0  0  0
   41.1210   32.2040   41.0330 C   0  0  0  0  0  0  0  0  0  0  0  0
   41.6420   31.6720   40.1850 H   0  0  0  0  0  0  0  0  0  0  0  0
   41.6120   33.1630   41.2320 H   0  0  0  0  0  0  0  0  0  0  0  0
   41.1390   31.2880   42.2330 C   0  0  0  0  0  0  0  0  0  0  0  0
   42.0160   31.4850   42.8690 H   0  0  0  0  0  0  0  0  0  0  0  0
   41.1230   30.2320   41.8730 H   0  0  0  0  0  0  0  0  0  0  0  0
   40.0140   31.4890   43.0080 O   0  0  0  0  0  0  0  0  0  0  0  0
   40.0190   30.9250   43.8050 H   0  0  0  0  0  0  0  0  0  0  0  0
  1  5  1  0  0  0  0
  2  1  2  0  0  0  0
  2  3  1  0  0  0  0
  3  4  1  0  0  0  0
  4 18  1  0  0  0  0
  5  4  2  0  0  0  0
  6  2  1  0  0  0  0
  7  8  1  0  0  0  0
  7 13  1  0  0  0  0
  8 15  1  0  0  0  0
  9  1  1  0  0  0  0
  9  8  2  0  0  0  0
 10  9  1  0  0  0  0
 11 10  2  0  0  0  0
 11 12  1  0  0  0  0
 12  7  2  0  0  0  0
 14 11  1  0  0  0  0
 15 16  1  0  0  0  0
 15 17  1  0  0  0  0
 18 20  1  0  0  0  0
 18 21  1  0  0  0  0
 19 18  1  0  0  0  0
 21 22  1  0  0  0  0
 21 24  1  0  0  0  0
 23 21  1  0  0  0  0
 24 25  1  0  0  0  0
M  END
>  <minimizedAffinity>
-4.2207365

$$$$

 OpenBabel03242522153D

 25 26  0  0  0  0  0  0  0  0999 V2000
   39.5250   30.3080   41.5010 C   0  0  0  0  0  0  0  0  0  0  0  0
   40.7160   30.1270   40.8650 C   0  0  0  0  0  0  0  0  0  0  0  0
   41.0300   31.8060   40.1380 S   0  0  0  0  0  0  0  0  0  0  0  0
   39.4270   32.4380   40.8700 C   0  0  0  0  0  0  0  0  0  0  0  0
   39.0310   31.5110   41.4000 N   0  0  0  0  0  0  0  0  0  0  0  0
   41.2940   29.1660   40.8380 H   0  0  0  0  0  0  0  0  0  0  0  0
   36.9230   28.0870   43.0580 C   0  0  0  0  0  0  0  0  0  0  0  0
   37.4770   29.1460   42.3250 C   0  0  0  0  0  0  0  0  0  0  0  0
   38.8460   29.2310   42.2520 C   0  0  0  0  0  0  0  0  0  0  0  0
   39.5810   28.2520   42.9190 N   0  0  0  0  0  0  0  0  0  0  0  0
   39.0040   27.2650   43.6040 C   0  0  0  0  0  0  0  0  0  0  0  0
   37.6850   27.1730   43.6800 N   0  0  0  0  0  0  0  0  0  0  0  0
   35.8340   27.9680   43.1510 H   0  0  0  0  0  0  0  0  0  0  0  0
   39.8060   26.6460   44.0210 H   0  0  0  0  0  0  0  0  0  0  0  0
   36.5900   30.0430   41.7180 N   0  0  0  0  0  0  0  0  0  0  0  0
   35.8830   29.5660   41.1040 H   0  0  0  0  0  0  0  0  0  0  0  0
   36.5800   31.0770   41.8220 H   0  0  0  0  0  0  0  0  0  0  0  0
   38.9700   33.8610   40.6880 C   0  0  0  0  0  0  0  0  0  0  0  0
   38.7450   34.1930   41.7420 H   0  0  0  0  0  0  0  0  0  0  0  0
   39.7470   34.4970   40.2510 H   0  0  0  0  0  0  0  0  0  0  0  0
   37.6790   33.9080   39.9050 C   0  0  0  0  0  0  0  0  0  0  0  0
   37.8620   33.7570   38.8300 H   0  0  0  0  0  0  0  0  0  0  0  0
   37.1800   34.8850   40.1030 H   0  0  0  0  0  0  0  0  0  0  0  0
   36.8280   32.9040   40.3230 O   0  0  0  0  0  0  0  0  0  0  0  0
   35.9970   32.8990   39.8110 H   0  0  0  0  0  0  0  0  0  0  0  0
  1  9  1  0  0  0  0
  2  1  2  0  0  0  0
  3  2  1  0  0  0  0
  3  4  1  0  0  0  0
  4  5  2  0  0  0  0
  5  1  1  0  0  0  0
  6  2  1  0  0  0  0
  7 13  1  0  0  0  0
  7 12  1  0  0  0  0
  8  7  2  0  0  0  0
  9  8  1  0  0  0  0
  9 10  2  0  0  0  0
 10 11  1  0  0  0  0
 11 12  2  0  0  0  0
 11 14  1  0  0  0  0
 15 17  1  0  0  0  0
 15  8  1  0  0  0  0
 16 15  1  0  0  0  0
 18  4  1  0  0  0  0
 18 19  1  0  0  0  0
 20 18  1  0  0  0  0
 21 23  1  0  0  0  0
 21 24  1  0  0  0  0
 21 18  1  0  0  0  0
 22 21  1  0  0  0  0
 25 24  1  0  0  0  0
M  END
>  <minimizedAffinity>
-4.21683931

$$$$

 OpenBabel03242522153D

 25 26  0  0  0  0  0  0  0  0999 V2000
   37.2570   28.5630   39.9830 C   0  0  0  0  0  0  0  0  0  0  0  0
   36.5470   27.9070   39.0250 C   0  0  0  0  0  0  0  0  0  0  0  0
   36.2210   29.2540   37.7900 S   0  0  0  0  0  0  0  0  0  0  0  0
   37.1480   30.4790   38.8600 C   0  0  0  0  0  0  0  0  0  0  0  0
   37.4630   29.8290   39.7400 N   0  0  0  0  0  0  0  0  0  0  0  0
   36.2720   26.8190   39.0560 H   0  0  0  0  0  0  0  0  0  0  0  0
   38.1090   27.7370   43.5510 C   0  0  0  0  0  0  0  0  0  0  0  0
   37.5990   28.4430   42.4520 C   0  0  0  0  0  0  0  0  0  0  0  0
   37.7630   27.8980   41.2030 C   0  0  0  0  0  0  0  0  0  0  0  0
   38.4320   26.6770   41.1250 N   0  0  0  0  0  0  0  0  0  0  0  0
   38.9000   26.0470   42.2020 C   0  0  0  0  0  0  0  0  0  0  0  0
   38.7460   26.5630   43.4110 N   0  0  0  0  0  0  0  0  0  0  0  0
   38.0070   28.1250   44.5740 H   0  0  0  0  0  0  0  0  0  0  0  0
   39.3760   25.1210   41.8570 H   0  0  0  0  0  0  0  0  0  0  0  0
   36.9530   29.6590   42.7110 N   0  0  0  0  0  0  0  0  0  0  0  0
   36.1820   29.5700   43.4190 H   0  0  0  0  0  0  0  0  0  0  0  0
   37.1670   30.5810   42.2830 H   0  0  0  0  0  0  0  0  0  0  0  0
   37.3230   31.9190   38.4580 C   0  0  0  0  0  0  0  0  0  0  0  0
   38.3450   31.9270   37.9800 H   0  0  0  0  0  0  0  0  0  0  0  0
   36.5680   32.2480   37.7370 H   0  0  0  0  0  0  0  0  0  0  0  0
   37.3800   32.8070   39.6790 C   0  0  0  0  0  0  0  0  0  0  0  0
   37.0180   33.8210   39.4480 H   0  0  0  0  0  0  0  0  0  0  0  0
   38.4290   32.8220   40.0590 H   0  0  0  0  0  0  0  0  0  0  0  0
   36.5740   32.2990   40.6790 O   0  0  0  0  0  0  0  0  0  0  0  0
   36.5740   32.8730   41.4690 H   0  0  0  0  0  0  0  0  0  0  0  0
  1  9  1  0  0  0  0
  2  6  1  0  0  0  0
  2  1  2  0  0  0  0
  3  4  1  0  0  0  0
  3  2  1  0  0  0  0
  4  5  2  0  0  0  0
  5  1  1  0  0  0  0
  7 13  1  0  0  0  0
  8 15  1  0  0  0  0
  8  7  2  0  0  0  0
  9  8  1  0  0  0  0
 10  9  2  0  0  0  0
 10 11  1  0  0  0  0
 11 12  2  0  0  0  0
 12  7  1  0  0  0  0
 14 11  1  0  0  0  0
 15 16  1  0  0  0  0
 17 15  1  0  0  0  0
 18  4  1  0  0  0  0
 18 21  1  0  0  0  0
 19 18  1  0  0  0  0
 20 18  1  0  0  0  0
 21 23  1  0  0  0  0
 21 24  1  0  0  0  0
 22 21  1  0  0  0  0
 24 25  1  0  0  0  0
M  END
>  <minimizedAffinity>
-4.20354748

$$$$

 OpenBabel03242522153D

 25 26  0  0  0  0  0  0  0  0999 V2000
   39.4770   29.9600   41.7030 C   0  0  0  0  0  0  0  0  0  0  0  0
   40.5330   30.3750   42.4560 C   0  0  0  0  0  0  0  0  0  0  0  0
   41.1750   31.8100   41.4690 S   0  0  0  0  0  0  0  0  0  0  0  0
   39.8350   31.5480   40.1890 C   0  0  0  0  0  0  0  0  0  0  0  0
   39.2760   30.6530   40.6160 N   0  0  0  0  0  0  0  0  0  0  0  0
   40.8610   29.9070   43.4220 H   0  0  0  0  0  0  0  0  0  0  0  0
   36.5210   27.7790   42.5010 C   0  0  0  0  0  0  0  0  0  0  0  0
   37.2510   28.9170   42.1300 C   0  0  0  0  0  0  0  0  0  0  0  0
   38.6200   28.8170   42.0850 C   0  0  0  0  0  0  0  0  0  0  0  0
   39.1800   27.5840   42.4160 N   0  0  0  0  0  0  0  0  0  0  0  0
   38.4400   26.5320   42.7630 C   0  0  0  0  0  0  0  0  0  0  0  0
   37.1190   26.6160   42.8090 N   0  0  0  0  0  0  0  0  0  0  0  0
   35.4240   27.7990   42.5540 H   0  0  0  0  0  0  0  0  0  0  0  0
   39.1270   25.7030   42.9680 H   0  0  0  0  0  0  0  0  0  0  0  0
   36.5270   30.0770   41.8310 N   0  0  0  0  0  0  0  0  0  0  0  0
   35.7880   29.9210   41.1010 H   0  0  0  0  0  0  0  0  0  0  0  0
   36.6580   31.0190   42.2500 H   0  0  0  0  0  0  0  0  0  0  0  0
   39.7050   32.4300   38.9760 C   0  0  0  0  0  0  0  0  0  0  0  0
   38.6310   32.7710   39.0220 H   0  0  0  0  0  0  0  0  0  0  0  0
   40.3760   33.2950   39.0120 H   0  0  0  0  0  0  0  0  0  0  0  0
   39.8770   31.6210   37.7120 C   0  0  0  0  0  0  0  0  0  0  0  0
   39.1090   30.8350   37.6370 H   0  0  0  0  0  0  0  0  0  0  0  0
   40.9060   31.1910   37.7030 H   0  0  0  0  0  0  0  0  0  0  0  0
   39.7470   32.4320   36.6020 O   0  0  0  0  0  0  0  0  0  0  0  0
   39.8260   31.9230   35.7720 H   0  0  0  0  0  0  0  0  0  0  0  0
  1  9  1  0  0  0  0
  1  2  2  0  0  0  0
  2  6  1  0  0  0  0
  3  2  1  0  0  0  0
  4  5  2  0  0  0  0
  4  3  1  0  0  0  0
  5  1  1  0  0  0  0
  7 13  1  0  0  0  0
  7 12  1  0  0  0  0
  8  7  2  0  0  0  0
  9  8  1  0  0  0  0
  9 10  2  0  0  0  0
 10 11  1  0  0  0  0
 11 12  2  0  0  0  0
 11 14  1  0  0  0  0
 15  8  1  0  0  0  0
 15 17  1  0  0  0  0
 16 15  1  0  0  0  0
 18 20  1  0  0  0  0
 18 19  1  0  0  0  0
 18  4  1  0  0  0  0
 21 18  1  0  0  0  0
 22 21  1  0  0  0  0
 23 21  1  0  0  0  0
 24 21  1  0  0  0  0
 25 24  1  0  0  0  0
M  END
>  <minimizedAffinity>
-4.13051271

$$$$
