
 OpenBabel03252506273D

 40 43  0  0  0  0  0  0  0  0999 V2000
   45.6580   30.1080   48.6340 C   0  0  0  0  0  0  0  0  0  0  0  0
   45.6660   29.7830   49.7010 H   0  0  0  0  0  0  0  0  0  0  0  0
   45.0390   31.0380   48.6330 H   0  0  0  0  0  0  0  0  0  0  0  0
   45.0120   27.6880   48.0830 C   0  0  0  0  0  0  0  0  0  0  0  0
   45.0050   29.0480   47.8720 C   0  0  0  0  0  0  0  0  0  0  0  0
   44.2710   29.5010   46.7720 C   0  0  0  0  0  0  0  0  0  0  0  0
   43.5970   28.6340   45.9510 C   0  0  0  0  0  0  0  0  0  0  0  0
   42.8370   28.7730   44.8600 N   0  0  0  0  0  0  0  0  0  0  0  0
   42.3950   27.5910   44.4140 C   0  0  0  0  0  0  0  0  0  0  0  0
   42.8840   26.6010   45.2470 C   0  0  0  0  0  0  0  0  0  0  0  0
   43.6170   27.2870   46.1780 C   0  0  0  0  0  0  0  0  0  0  0  0
   44.3320   26.8290   47.2530 C   0  0  0  0  0  0  0  0  0  0  0  0
   45.5970   27.3810   48.9520 H   0  0  0  0  0  0  0  0  0  0  0  0
   44.1840   30.5460   46.4940 H   0  0  0  0  0  0  0  0  0  0  0  0
   42.5870   29.6650   44.3770 H   0  0  0  0  0  0  0  0  0  0  0  0
   41.7550   27.3920   43.5410 H   0  0  0  0  0  0  0  0  0  0  0  0
   42.6860   25.5630   45.1230 H   0  0  0  0  0  0  0  0  0  0  0  0
   44.3920   25.4020   47.5480 C   0  0  0  0  0  0  0  0  0  0  0  0
   44.9350   24.9540   48.5760 O   0  0  0  0  0  0  0  0  0  0  0  0
   43.9590   24.6790   46.8710 H   0  0  0  0  0  0  0  0  0  0  0  0
   47.0440   30.4650   48.2370 C   0  0  0  0  0  0  0  0  0  0  0  0
   47.6860   29.5860   48.2570 H   0  0  0  0  0  0  0  0  0  0  0  0
   47.4070   31.2340   48.9380 H   0  0  0  0  0  0  0  0  0  0  0  0
   46.6610   32.5430   45.3480 C   0  0  0  0  0  0  0  0  0  0  0  0
   47.4180   31.4670   44.8370 C   0  0  0  0  0  0  0  0  0  0  0  0
   47.6420   30.5900   45.8320 C   0  0  0  0  0  0  0  0  0  0  0  0
   47.0560   31.0850   46.9190 N   0  0  0  0  0  0  0  0  0  0  0  0
   46.4630   32.2530   46.6530 N   0  0  0  0  0  0  0  0  0  0  0  0
   47.7300   31.4290   43.7940 H   0  0  0  0  0  0  0  0  0  0  0  0
   48.1900   29.6590   45.7800 H   0  0  0  0  0  0  0  0  0  0  0  0
   44.7900   35.5120   44.3480 C   0  0  0  0  0  0  0  0  0  0  0  0
   45.3700   35.8690   43.1280 C   0  0  0  0  0  0  0  0  0  0  0  0
   46.4210   35.0640   42.6580 C   0  0  0  0  0  0  0  0  0  0  0  0
   46.7830   34.0120   43.4240 N   0  0  0  0  0  0  0  0  0  0  0  0
   46.2180   33.6940   44.5750 C   0  0  0  0  0  0  0  0  0  0  0  0
   45.2090   34.4470   45.0480 N   0  0  0  0  0  0  0  0  0  0  0  0
   43.9740   36.1660   44.6770 H   0  0  0  0  0  0  0  0  0  0  0  0
   45.0830   36.7080   42.5150 H   0  0  0  0  0  0  0  0  0  0  0  0
   47.1040   35.2680   41.4820 O   0  0  0  0  0  0  0  0  0  0  0  0
   46.9780   36.1530   41.0180 H   0  0  0  0  0  0  0  0  0  0  0  0
  1  2  1  0  0  0  0
  3  1  1  0  0  0  0
  4 13  1  0  0  0  0
  5  4  1  0  0  0  0
  5  1  1  0  0  0  0
  6  5  2  0  0  0  0
  7 11  2  0  0  0  0
  7  6  1  0  0  0  0
  8  7  1  0  0  0  0
  9  8  1  0  0  0  0
  9 10  2  0  0  0  0
 10 11  1  0  0  0  0
 11 12  1  0  0  0  0
 12 18  1  0  0  0  0
 12  4  2  0  0  0  0
 14  6  1  0  0  0  0
 15  8  1  0  0  0  0
 16  9  1  0  0  0  0
 17 10  1  0  0  0  0
 18 19  2  0  0  0  0
 20 18  1  0  0  0  0
 21 22  1  0  0  0  0
 21  1  1  0  0  0  0
 21 23  1  0  0  0  0
 24 28  2  0  0  0  0
 25 24  1  0  0  0  0
 25 26  2  0  0  0  0
 26 27  1  0  0  0  0
 27 21  1  0  0  0  0
 28 27  1  0  0  0  0
 29 25  1  0  0  0  0
 30 26  1  0  0  0  0
 31 37  1  0  0  0  0
 31 36  1  0  0  0  0
 32 31  2  0  0  0  0
 33 32  1  0  0  0  0
 33 34  2  0  0  0  0
 34 35  1  0  0  0  0
 35 36  2  0  0  0  0
 35 24  1  0  0  0  0
 38 32  1  0  0  0  0
 39 33  1  0  0  0  0
 40 39  1  0  0  0  0
M  END
>  <minimizedAffinity>
-5.14300346

>  <minimizedRMSD>
0.334228009

$$$$
