
 OpenBabel03252509133D

 38 41  0  0  1  0  0  0  0  0999 V2000
   47.5740   32.6730   44.2810 C   0  0  0  0  0  0  0  0  0  0  0  0
   46.8650   33.6350   43.5760 C   0  0  0  0  0  0  0  0  0  0  0  0
   45.8020   34.3470   44.1080 C   0  0  0  0  0  0  0  0  0  0  0  0
   45.4210   34.0840   45.4250 C   0  0  0  0  0  0  0  0  0  0  0  0
   44.4660   34.5630   46.2520 N   0  0  0  0  0  0  0  0  0  0  0  0
   44.5460   33.9410   47.4480 C   0  0  0  0  0  0  0  0  0  0  0  0
   45.5620   33.0770   47.3360 N   0  0  0  0  0  0  0  0  0  0  0  0
   46.1240   33.1380   46.1070 C   0  0  0  0  0  0  0  0  0  0  0  0
   47.1920   32.4070   45.6060 C   0  0  0  0  0  0  0  0  0  0  0  0
   48.3980   32.1480   43.8120 H   0  0  0  0  0  0  0  0  0  0  0  0
   43.7890   35.3070   45.9570 H   0  0  0  0  0  0  0  0  0  0  0  0
   43.9200   34.1080   48.3110 H   0  0  0  0  0  0  0  0  0  0  0  0
   47.7220   31.6640   46.1870 H   0  0  0  0  0  0  0  0  0  0  0  0
   47.1100   33.4250   39.9190 C   0  0  0  0  0  0  0  0  0  0  0  0
   48.0050   34.4420   39.6060 C   0  0  0  0  0  0  0  0  0  0  0  0
   48.5200   35.1980   40.6580 C   0  0  0  0  0  0  0  0  0  0  0  0
   48.1380   34.9210   41.9470 N   0  0  0  0  0  0  0  0  0  0  0  0
   47.2620   33.9150   42.1910 C   0  0  0  0  0  0  0  0  0  0  0  0
   46.7280   33.1490   41.2030 N   0  0  0  0  0  0  0  0  0  0  0  0
   46.7220   32.8500   39.0790 H   0  0  0  0  0  0  0  0  0  0  0  0
   48.3170   34.6780   38.6190 H   0  0  0  0  0  0  0  0  0  0  0  0
   49.2210   36.0030   40.4690 H   0  0  0  0  0  0  0  0  0  0  0  0
   44.9210   35.5700   43.1710 S   0  0  0  0  0  0  0  0  0  0  0  0
   42.3650   35.3790   42.6100 N   0  0  0  0  0  0  0  0  0  0  0  0
   43.6180   34.8760   42.1200 C   0  0  1  0  0  0  0  0  0  0  0  0
   43.9160   35.3880   40.7090 C   0  0  0  0  0  0  0  0  0  0  0  0
   42.8190   35.3410   39.8710 O   0  0  0  0  0  0  0  0  0  0  0  0
   41.7330   34.6670   40.3480 C   0  0  0  0  0  0  0  0  0  0  0  0
   41.3000   35.3150   41.6510 C   0  0  1  0  0  0  0  0  0  0  0  0
   42.0800   34.7310   43.4040 H   0  0  0  0  0  0  0  0  0  0  0  0
   43.7030   33.7890   42.1250 H   0  0  0  0  0  0  0  0  0  0  0  0
   44.6650   34.7770   40.2180 H   0  0  0  0  0  0  0  0  0  0  0  0
   44.2150   36.4530   40.8380 H   0  0  0  0  0  0  0  0  0  0  0  0
   41.9170   33.5790   40.5580 H   0  0  0  0  0  0  0  0  0  0  0  0
   40.9220   34.7500   39.6280 H   0  0  0  0  0  0  0  0  0  0  0  0
   41.0170   36.3580   41.3930 H   0  0  0  0  0  0  0  0  0  0  0  0
   40.1310   34.7260   42.1530 O   0  0  0  0  0  0  0  0  0  0  0  0
   40.2660   33.7480   42.0410 H   0  0  0  0  0  0  0  0  0  0  0  0
  1  9  1  0  0  0  0
  2  3  1  0  0  0  0
  2  1  2  0  0  0  0
  3  4  2  0  0  0  0
  4  8  1  0  0  0  0
  4  5  1  0  0  0  0
  5  6  1  0  0  0  0
  6 12  1  0  0  0  0
  7  6  2  0  0  0  0
  8  7  1  0  0  0  0
  9  8  2  0  0  0  0
  9 13  1  0  0  0  0
 10  1  1  0  0  0  0
 11  5  1  0  0  0  0
 14 19  1  0  0  0  0
 15 14  2  0  0  0  0
 15 16  1  0  0  0  0
 16 17  2  0  0  0  0
 17 18  1  0  0  0  0
 18  2  1  0  0  0  0
 19 18  2  0  0  0  0
 20 14  1  0  0  0  0
 21 15  1  0  0  0  0
 22 16  1  0  0  0  0
 23  3  1  0  0  0  0
 24 30  1  0  0  0  0
 25 31  1  1  0  0  0
 25 24  1  0  0  0  0
 25 23  1  0  0  0  0
 26 33  1  0  0  0  0
 26 25  1  0  0  0  0
 27 28  1  0  0  0  0
 27 26  1  0  0  0  0
 28 34  1  0  0  0  0
 28 29  1  0  0  0  0
 29 36  1  6  0  0  0
 29 37  1  0  0  0  0
 29 24  1  0  0  0  0
 32 26  1  0  0  0  0
 35 28  1  0  0  0  0
 38 37  1  0  0  0  0
M  END
>  <minimizedAffinity>
-6.00420284

>  <minimizedRMSD>
0.149339408

$$$$
