
 OpenBabel03242510223D

 37 40  0  0  1  0  0  0  0  0999 V2000
   48.0290   33.2320   43.1160 N   0  0  0  0  0  0  0  0  0  0  0  0
   49.2240   33.3160   42.4040 C   0  0  0  0  0  0  0  0  0  0  0  0
   50.3860   32.9480   42.7080 O   0  0  0  0  0  0  0  0  0  0  0  0
   47.4640   34.1110   43.0280 H   0  0  0  0  0  0  0  0  0  0  0  0
   46.2900   32.0920   44.4450 C   0  0  1  0  0  0  0  0  0  0  0  0
   46.4090   31.3600   43.2550 C   0  0  0  0  0  0  0  0  0  0  0  0
   47.6490   32.0870   43.8630 C   0  0  1  0  0  0  0  0  0  0  0  0
   46.1560   31.6310   45.4370 H   0  0  0  0  0  0  0  0  0  0  0  0
   46.4870   30.2320   43.3290 H   0  0  0  0  0  0  0  0  0  0  0  0
   46.1460   31.6380   42.2160 H   0  0  0  0  0  0  0  0  0  0  0  0
   48.4220   31.3780   44.2070 H   0  0  0  0  0  0  0  0  0  0  0  0
   45.0440   33.9870   43.1560 C   0  0  0  0  0  0  0  0  0  0  0  0
   45.5430   33.4370   44.3840 C   0  0  0  0  0  0  0  0  0  0  0  0
   45.3540   34.1730   45.5350 C   0  0  0  0  0  0  0  0  0  0  0  0
   44.7180   35.3600   45.4590 N   0  0  0  0  0  0  0  0  0  0  0  0
   44.2520   35.8710   44.2880 C   0  0  0  0  0  0  0  0  0  0  0  0
   44.4260   35.1500   43.1050 N   0  0  0  0  0  0  0  0  0  0  0  0
   45.1840   33.3940   42.2810 H   0  0  0  0  0  0  0  0  0  0  0  0
   45.7150   33.7910   46.4820 H   0  0  0  0  0  0  0  0  0  0  0  0
   43.7570   36.8330   44.3430 H   0  0  0  0  0  0  0  0  0  0  0  0
   49.2160   33.9380   41.0200 C   0  0  2  0  0  0  0  0  0  0  0  0
   48.6110   35.3880   40.9080 C   0  0  0  0  0  0  0  0  0  0  0  0
   47.9640   34.1900   40.3000 C   0  0  1  0  0  0  0  0  0  0  0  0
   50.1610   33.8980   40.4410 H   0  0  0  0  0  0  0  0  0  0  0  0
   49.1490   36.1180   40.3100 H   0  0  0  0  0  0  0  0  0  0  0  0
   48.1920   35.7260   41.8940 H   0  0  0  0  0  0  0  0  0  0  0  0
   47.0310   33.7690   40.7140 H   0  0  0  0  0  0  0  0  0  0  0  0
   47.9860   34.0700   38.7940 C   0  0  0  0  0  0  0  0  0  0  0  0
   48.5800   34.9080   38.1250 O   0  0  0  0  0  0  0  0  0  0  0  0
   47.3090   32.9740   38.1260 N   0  0  0  0  0  0  0  0  0  0  0  0
   48.1640   31.9240   37.5960 C   0  0  0  0  0  3  0  0  0  0  0  0
   48.5930   31.2680   38.3550 H   0  0  0  0  0  0  0  0  0  0  0  0
   47.3850   31.1960   36.5330 C   0  0  0  0  0  3  0  0  0  0  0  0
   47.8150   30.1890   36.3290 H   0  0  0  0  0  0  0  0  0  0  0  0
   46.0520   30.9760   36.8700 O   0  0  0  0  0  0  0  0  0  0  0  0
   45.3540   32.1870   36.9320 C   0  0  0  0  0  2  0  0  0  0  0  0
   45.8610   33.0300   38.0540 C   0  0  0  0  0  2  0  0  0  0  0  0
  1  7  1  0  0  0  0
  2  3  2  0  0  0  0
  2  1  1  0  0  0  0
  4  1  1  0  0  0  0
  5  8  1  1  0  0  0
  6  9  1  0  0  0  0
  6  7  1  0  0  0  0
  6  5  1  0  0  0  0
  7 11  1  1  0  0  0
  7  5  1  0  0  0  0
 10  6  1  0  0  0  0
 12 13  1  0  0  0  0
 13  5  1  0  0  0  0
 13 14  2  0  0  0  0
 14 19  1  0  0  0  0
 15 14  1  0  0  0  0
 16 20  1  0  0  0  0
 16 15  2  0  0  0  0
 17 12  2  0  0  0  0
 17 16  1  0  0  0  0
 18 12  1  0  0  0  0
 21 24  1  6  0  0  0
 21  2  1  0  0  0  0
 22 21  1  0  0  0  0
 22 26  1  0  0  0  0
 23 27  1  1  0  0  0
 23 22  1  0  0  0  0
 23 21  1  0  0  0  0
 25 22  1  0  0  0  0
 28 23  1  0  0  0  0
 29 28  2  0  0  0  0
 30 28  1  0  0  0  0
 31 30  1  0  0  0  0
 31 32  1  0  0  0  0
 33 35  1  0  0  0  0
 33 31  1  0  0  0  0
 34 33  1  0  0  0  0
 35 36  1  0  0  0  0
 36 37  1  0  0  0  0
 37 30  1  0  0  0  0
M  END
>  <minimizedAffinity>
-4.97581482

>  <minimizedRMSD>
0.562039495

$$$$
