
 OpenBabel03242516533D

 44 47  0  0  1  0  0  0  0  0999 V2000
   47.8590   32.9160   41.7900 C   0  0  1  0  0  0  0  0  0  0  0  0
   47.5270   32.1840   40.5670 C   0  0  0  0  0  0  0  0  0  0  0  0
   48.5390   32.6270   39.5130 C   0  0  0  0  0  0  0  0  0  0  0  0
   48.2030   34.0530   39.1700 C   0  0  0  0  0  0  0  0  0  0  0  0
   48.1510   34.9760   40.3540 C   0  0  0  0  0  0  0  0  0  0  0  0
   47.6570   34.4280   41.6310 C   0  0  1  0  0  0  0  0  0  0  0  0
   48.9780   32.8450   41.9580 H   0  0  0  0  0  0  0  0  0  0  0  0
   46.5370   32.4320   40.1240 H   0  0  0  0  0  0  0  0  0  0  0  0
   47.5940   31.1070   40.7330 H   0  0  0  0  0  0  0  0  0  0  0  0
   49.5820   32.5170   39.8550 H   0  0  0  0  0  0  0  0  0  0  0  0
   48.3130   32.0100   38.6200 H   0  0  0  0  0  0  0  0  0  0  0  0
   47.2250   34.0390   38.6390 H   0  0  0  0  0  0  0  0  0  0  0  0
   48.9330   34.4370   38.4430 H   0  0  0  0  0  0  0  0  0  0  0  0
   47.4940   35.8300   40.0560 H   0  0  0  0  0  0  0  0  0  0  0  0
   49.1610   35.4360   40.4550 H   0  0  0  0  0  0  0  0  0  0  0  0
   48.2550   34.8790   42.4670 H   0  0  0  0  0  0  0  0  0  0  0  0
   45.5150   31.0780   44.1150 C   0  0  0  0  0  0  0  0  0  0  0  0
   46.1830   31.5450   42.9760 C   0  0  0  0  0  0  0  0  0  0  0  0
   47.2220   32.4770   43.0140 C   0  0  0  0  0  0  0  0  0  0  0  0
   47.5590   32.9150   44.2280 N   0  0  0  0  0  0  0  0  0  0  0  0
   46.9180   32.4690   45.3430 C   0  0  0  0  0  0  0  0  0  0  0  0
   45.9220   31.5740   45.2990 N   0  0  0  0  0  0  0  0  0  0  0  0
   44.7210   30.3570   44.0100 H   0  0  0  0  0  0  0  0  0  0  0  0
   45.8970   31.1810   41.9930 H   0  0  0  0  0  0  0  0  0  0  0  0
   47.2060   32.8370   46.3190 H   0  0  0  0  0  0  0  0  0  0  0  0
   46.2760   34.8200   41.9120 C   0  0  0  0  0  0  0  0  0  0  0  0
   45.8470   35.5540   43.0240 C   0  0  0  0  0  0  0  0  0  0  0  0
   44.4840   35.8330   43.0880 C   0  0  0  0  0  0  0  0  0  0  0  0
   43.6780   35.3690   42.0620 C   0  0  0  0  0  0  0  0  0  0  0  0
   44.1250   34.6480   40.9780 C   0  0  0  0  0  0  0  0  0  0  0  0
   45.4620   34.3820   40.9300 N   0  0  0  0  0  0  0  0  0  0  0  0
   46.5780   35.8410   43.7280 H   0  0  0  0  0  0  0  0  0  0  0  0
   44.1250   36.3990   43.9350 H   0  0  0  0  0  0  0  0  0  0  0  0
   42.6190   35.5820   42.1030 H   0  0  0  0  0  0  0  0  0  0  0  0
   43.1860   34.2050   39.9500 C   0  0  0  0  0  0  0  0  0  0  0  0
   42.6210   35.0760   39.2370 O   0  0  0  0  0  0  0  0  0  0  0  0
   42.7220   32.9320   39.5280 N   0  0  0  0  0  0  0  0  0  0  0  0
   41.7630   33.0540   38.4240 C   0  0  0  0  0  3  0  0  0  0  0  0
   40.7170   33.0930   38.8170 H   0  0  0  0  0  0  0  0  0  0  0  0
   41.8810   31.7510   37.6260 C   0  0  0  0  0  3  0  0  0  0  0  0
   41.2280   30.9650   38.0210 H   0  0  0  0  0  0  0  0  0  0  0  0
   43.2100   31.3710   37.5330 O   0  0  0  0  0  0  0  0  0  0  0  0
   43.7040   30.9000   38.7550 C   0  0  0  0  0  2  0  0  0  0  0  0
   42.9300   31.5220   39.8960 C   0  0  0  0  0  2  0  0  0  0  0  0
  1  7  1  1  0  0  0
  1 19  1  0  0  0  0
  2  9  1  0  0  0  0
  2  1  1  0  0  0  0
  3 10  1  0  0  0  0
  3  2  1  0  0  0  0
  4  3  1  0  0  0  0
  4  5  1  0  0  0  0
  5 15  1  0  0  0  0
  5  6  1  0  0  0  0
  6  1  1  0  0  0  0
  6 26  1  0  0  0  0
  6 16  1  1  0  0  0
  8  2  1  0  0  0  0
 11  3  1  0  0  0  0
 12  4  1  0  0  0  0
 13  4  1  0  0  0  0
 14  5  1  0  0  0  0
 17 22  1  0  0  0  0
 18 19  1  0  0  0  0
 18 17  2  0  0  0  0
 19 20  2  0  0  0  0
 20 21  1  0  0  0  0
 21 25  1  0  0  0  0
 22 21  2  0  0  0  0
 23 17  1  0  0  0  0
 24 18  1  0  0  0  0
 26 27  1  0  0  0  0
 27 28  2  0  0  0  0
 27 32  1  0  0  0  0
 28 33  1  0  0  0  0
 29 34  1  0  0  0  0
 29 28  1  0  0  0  0
 30 29  2  0  0  0  0
 31 30  1  0  0  0  0
 31 26  2  0  0  0  0
 35 30  1  0  0  0  0
 36 35  2  0  0  0  0
 37 44  1  0  0  0  0
 37 35  1  0  0  0  0
 38 39  1  0  0  0  0
 38 37  1  0  0  0  0
 40 41  1  0  0  0  0
 40 38  1  0  0  0  0
 42 40  1  0  0  0  0
 42 43  1  0  0  0  0
 43 44  1  0  0  0  0
M  END
>  <minimizedAffinity>
-5.60232067

>  <minimizedRMSD>
0.522112191

$$$$
