
 OpenBabel03252507163D

 28 30  0  0  0  0  0  0  0  0999 V2000
   45.2780   36.1690   43.1720 C   0  0  0  0  0  0  0  0  0  0  0  0
   45.8850   34.9120   42.9290 C   0  0  0  0  0  0  0  0  0  0  0  0
   45.8230   33.9700   43.9530 C   0  0  0  0  0  0  0  0  0  0  0  0
   45.2070   34.2740   45.1120 N   0  0  0  0  0  0  0  0  0  0  0  0
   44.6310   35.5000   45.3130 C   0  0  0  0  0  0  0  0  0  0  0  0
   44.6850   36.4030   44.3430 N   0  0  0  0  0  0  0  0  0  0  0  0
   45.3180   36.9170   42.3800 H   0  0  0  0  0  0  0  0  0  0  0  0
   44.1370   35.7510   46.2340 H   0  0  0  0  0  0  0  0  0  0  0  0
   46.4420   32.6720   43.7210 C   0  0  0  0  0  0  0  0  0  0  0  0
   45.6640   31.5580   43.5310 C   0  0  0  0  0  0  0  0  0  0  0  0
   46.3010   30.3530   43.3130 C   0  0  0  0  0  0  0  0  0  0  0  0
   47.6790   30.2060   43.2780 C   0  0  0  0  0  0  0  0  0  0  0  0
   48.4010   31.3570   43.4760 C   0  0  0  0  0  0  0  0  0  0  0  0
   47.7780   32.5350   43.6880 N   0  0  0  0  0  0  0  0  0  0  0  0
   44.5880   31.6550   43.5540 H   0  0  0  0  0  0  0  0  0  0  0  0
   45.6170   29.5140   43.1710 H   0  0  0  0  0  0  0  0  0  0  0  0
   48.0880   29.2260   43.1030 H   0  0  0  0  0  0  0  0  0  0  0  0
   49.4860   31.2770   43.4540 H   0  0  0  0  0  0  0  0  0  0  0  0
   46.5190   34.6580   41.6860 C   0  0  0  0  0  0  0  0  0  0  0  0
   47.7300   34.9590   41.5700 O   0  0  0  0  0  0  0  0  0  0  0  0
   45.8700   34.0810   40.5570 N   0  0  0  0  0  0  0  0  0  0  0  0
   44.4200   34.0030   40.4890 C   0  0  0  0  0  3  0  0  0  0  0  0
   44.0070   34.5120   41.3670 H   0  0  0  0  0  0  0  0  0  0  0  0
   44.0960   32.5140   40.5440 C   0  0  0  0  0  3  0  0  0  0  0  0
   44.0070   32.2740   41.6450 H   0  0  0  0  0  0  0  0  0  0  0  0
   45.1280   31.7470   40.0700 O   0  0  0  0  0  0  0  0  0  0  0  0
   45.8480   32.2710   39.0270 C   0  0  0  0  0  2  0  0  0  0  0  0
   46.5930   33.5450   39.4190 C   0  0  0  0  0  2  0  0  0  0  0  0
  1  6  1  0  0  0  0
  2  1  2  0  0  0  0
  2  3  1  0  0  0  0
  3  4  2  0  0  0  0
  4  5  1  0  0  0  0
  5  8  1  0  0  0  0
  6  5  2  0  0  0  0
  7  1  1  0  0  0  0
  9  3  1  0  0  0  0
 10 15  1  0  0  0  0
 10  9  2  0  0  0  0
 11 10  1  0  0  0  0
 12 11  2  0  0  0  0
 12 13  1  0  0  0  0
 13 14  2  0  0  0  0
 14  9  1  0  0  0  0
 16 11  1  0  0  0  0
 17 12  1  0  0  0  0
 18 13  1  0  0  0  0
 19  2  1  0  0  0  0
 20 19  2  0  0  0  0
 21 19  1  0  0  0  0
 22 24  1  0  0  0  0
 22 21  1  0  0  0  0
 22 23  1  0  0  0  0
 24 25  1  0  0  0  0
 26 24  1  0  0  0  0
 27 28  1  0  0  0  0
 27 26  1  0  0  0  0
 28 21  1  0  0  0  0
M  END
>  <minimizedAffinity>
-4.46126413

>  <minimizedRMSD>
0.185922757

$$$$
