
 OpenBabel03242516523D

 44 47  0  0  1  0  0  0  0  0999 V2000
   47.8670   32.9150   41.8560 C   0  0  1  0  0  0  0  0  0  0  0  0
   47.5550   32.3010   40.5650 C   0  0  0  0  0  0  0  0  0  0  0  0
   48.5830   32.8430   39.5730 C   0  0  0  0  0  0  0  0  0  0  0  0
   48.2490   34.2950   39.3610 C   0  0  0  0  0  0  0  0  0  0  0  0
   48.1770   35.1010   40.6270 C   0  0  0  0  0  0  0  0  0  0  0  0
   47.6650   34.4340   41.8380 C   0  0  1  0  0  0  0  0  0  0  0  0
   48.9840   32.8280   42.0340 H   0  0  0  0  0  0  0  0  0  0  0  0
   46.5720   32.5900   40.1330 H   0  0  0  0  0  0  0  0  0  0  0  0
   47.6220   31.2130   40.6290 H   0  0  0  0  0  0  0  0  0  0  0  0
   49.6210   32.7010   39.9190 H   0  0  0  0  0  0  0  0  0  0  0  0
   48.3710   32.3130   38.6220 H   0  0  0  0  0  0  0  0  0  0  0  0
   47.2790   34.3300   38.8170 H   0  0  0  0  0  0  0  0  0  0  0  0
   48.9890   34.7460   38.6850 H   0  0  0  0  0  0  0  0  0  0  0  0
   47.5230   35.9800   40.4010 H   0  0  0  0  0  0  0  0  0  0  0  0
   49.1850   35.5500   40.7860 H   0  0  0  0  0  0  0  0  0  0  0  0
   48.2500   34.8050   42.7220 H   0  0  0  0  0  0  0  0  0  0  0  0
   45.4540   30.9090   43.9610 C   0  0  0  0  0  0  0  0  0  0  0  0
   46.1400   31.4790   42.8820 C   0  0  0  0  0  0  0  0  0  0  0  0
   47.2130   32.3610   43.0240 C   0  0  0  0  0  0  0  0  0  0  0  0
   47.5650   32.6440   44.2790 N   0  0  0  0  0  0  0  0  0  0  0  0
   46.9060   32.0960   45.3370 C   0  0  0  0  0  0  0  0  0  0  0  0
   45.8770   31.2500   45.1940 N   0  0  0  0  0  0  0  0  0  0  0  0
   44.6330   30.2350   43.7760 H   0  0  0  0  0  0  0  0  0  0  0  0
   45.8420   31.2420   41.8640 H   0  0  0  0  0  0  0  0  0  0  0  0
   47.2070   32.3380   46.3480 H   0  0  0  0  0  0  0  0  0  0  0  0
   46.2800   34.7970   42.1340 C   0  0  0  0  0  0  0  0  0  0  0  0
   45.8320   35.4160   43.3070 C   0  0  0  0  0  0  0  0  0  0  0  0
   44.4670   35.6890   43.3760 C   0  0  0  0  0  0  0  0  0  0  0  0
   43.6790   35.3310   42.2950 C   0  0  0  0  0  0  0  0  0  0  0  0
   44.1450   34.7230   41.1510 C   0  0  0  0  0  0  0  0  0  0  0  0
   45.4820   34.4620   41.0990 N   0  0  0  0  0  0  0  0  0  0  0  0
   46.5500   35.6290   44.0490 H   0  0  0  0  0  0  0  0  0  0  0  0
   44.0940   36.1660   44.2700 H   0  0  0  0  0  0  0  0  0  0  0  0
   42.6190   35.5400   42.3400 H   0  0  0  0  0  0  0  0  0  0  0  0
   43.2240   34.3870   40.0680 C   0  0  0  0  0  0  0  0  0  0  0  0
   42.6160   35.3230   39.4840 O   0  0  0  0  0  0  0  0  0  0  0  0
   42.8170   33.1660   39.4700 N   0  0  0  0  0  0  0  0  0  0  0  0
   43.4440   32.9810   38.1560 C   0  0  0  0  0  3  0  0  0  0  0  0
   42.7810   33.3760   37.3480 H   0  0  0  0  0  0  0  0  0  0  0  0
   43.5300   31.4660   37.9480 C   0  0  0  0  0  3  0  0  0  0  0  0
   42.6180   31.0590   37.4970 H   0  0  0  0  0  0  0  0  0  0  0  0
   43.8870   30.8430   39.1330 O   0  0  0  0  0  0  0  0  0  0  0  0
   42.8420   30.8550   40.0620 C   0  0  0  0  0  2  0  0  0  0  0  0
   41.9330   32.0360   39.8000 C   0  0  0  0  0  2  0  0  0  0  0  0
  1  7  1  1  0  0  0
  1 19  1  0  0  0  0
  2  9  1  0  0  0  0
  2  1  1  0  0  0  0
  3 10  1  0  0  0  0
  3  2  1  0  0  0  0
  4  3  1  0  0  0  0
  4  5  1  0  0  0  0
  5 15  1  0  0  0  0
  5  6  1  0  0  0  0
  6  1  1  0  0  0  0
  6 26  1  0  0  0  0
  6 16  1  1  0  0  0
  8  2  1  0  0  0  0
 11  3  1  0  0  0  0
 12  4  1  0  0  0  0
 13  4  1  0  0  0  0
 14  5  1  0  0  0  0
 17 22  1  0  0  0  0
 18 19  1  0  0  0  0
 18 17  2  0  0  0  0
 19 20  2  0  0  0  0
 20 21  1  0  0  0  0
 21 25  1  0  0  0  0
 22 21  2  0  0  0  0
 23 17  1  0  0  0  0
 24 18  1  0  0  0  0
 26 27  1  0  0  0  0
 27 28  2  0  0  0  0
 27 32  1  0  0  0  0
 28 33  1  0  0  0  0
 29 34  1  0  0  0  0
 29 28  1  0  0  0  0
 30 29  2  0  0  0  0
 31 30  1  0  0  0  0
 31 26  2  0  0  0  0
 35 30  1  0  0  0  0
 36 35  2  0  0  0  0
 37 44  1  0  0  0  0
 37 35  1  0  0  0  0
 38 37  1  0  0  0  0
 39 38  1  0  0  0  0
 40 38  1  0  0  0  0
 40 42  1  0  0  0  0
 41 40  1  0  0  0  0
 42 43  1  0  0  0  0
 44 43  1  0  0  0  0
M  END
>  <minimizedAffinity>
-5.3944459

>  <minimizedRMSD>
0.471931845

$$$$
