
 OpenBabel03242510223D

 37 40  0  0  1  0  0  0  0  0999 V2000
   48.0590   33.2590   43.1970 N   0  0  0  0  0  0  0  0  0  0  0  0
   49.2300   33.3140   42.4440 C   0  0  0  0  0  0  0  0  0  0  0  0
   50.3960   32.9310   42.7130 O   0  0  0  0  0  0  0  0  0  0  0  0
   47.5060   34.1460   43.1160 H   0  0  0  0  0  0  0  0  0  0  0  0
   46.3210   32.1320   44.5380 C   0  0  1  0  0  0  0  0  0  0  0  0
   46.4650   31.3680   43.3710 C   0  0  0  0  0  0  0  0  0  0  0  0
   47.6870   32.1310   43.9720 C   0  0  1  0  0  0  0  0  0  0  0  0
   46.1810   31.6980   45.5410 H   0  0  0  0  0  0  0  0  0  0  0  0
   46.5590   30.2440   43.4790 H   0  0  0  0  0  0  0  0  0  0  0  0
   46.2110   31.6110   42.3220 H   0  0  0  0  0  0  0  0  0  0  0  0
   48.4660   31.4430   44.3460 H   0  0  0  0  0  0  0  0  0  0  0  0
   45.0690   33.9740   43.1780 C   0  0  0  0  0  0  0  0  0  0  0  0
   45.5550   33.4640   44.4280 C   0  0  0  0  0  0  0  0  0  0  0  0
   45.3360   34.2270   45.5560 C   0  0  0  0  0  0  0  0  0  0  0  0
   44.6830   35.4010   45.4380 N   0  0  0  0  0  0  0  0  0  0  0  0
   44.2300   35.8740   44.2460 C   0  0  0  0  0  0  0  0  0  0  0  0
   44.4360   35.1260   43.0850 N   0  0  0  0  0  0  0  0  0  0  0  0
   45.2330   33.3600   42.3220 H   0  0  0  0  0  0  0  0  0  0  0  0
   45.6850   33.8750   46.5190 H   0  0  0  0  0  0  0  0  0  0  0  0
   43.7200   36.8290   44.2670 H   0  0  0  0  0  0  0  0  0  0  0  0
   49.1850   33.9170   41.0520 C   0  0  2  0  0  0  0  0  0  0  0  0
   48.6760   35.4030   40.9500 C   0  0  0  0  0  0  0  0  0  0  0  0
   47.9140   34.2460   40.4000 C   0  0  1  0  0  0  0  0  0  0  0  0
   50.0900   33.8040   40.4210 H   0  0  0  0  0  0  0  0  0  0  0  0
   49.2270   36.0870   40.3090 H   0  0  0  0  0  0  0  0  0  0  0  0
   48.3390   35.7820   41.9520 H   0  0  0  0  0  0  0  0  0  0  0  0
   46.9790   33.8960   40.8730 H   0  0  0  0  0  0  0  0  0  0  0  0
   47.8410   34.1050   38.8970 C   0  0  0  0  0  0  0  0  0  0  0  0
   48.5290   34.8270   38.1840 O   0  0  0  0  0  0  0  0  0  0  0  0
   46.9620   33.1260   38.2850 N   0  0  0  0  0  0  0  0  0  0  0  0
   45.6170   33.0430   38.8310 C   0  0  0  0  0  3  0  0  0  0  0  0
   44.9680   33.8740   38.5580 H   0  0  0  0  0  0  0  0  0  0  0  0
   45.0600   31.6920   38.4670 C   0  0  0  0  0  3  0  0  0  0  0  0
   43.9500   31.6760   38.5330 H   0  0  0  0  0  0  0  0  0  0  0  0
   45.3660   31.2940   37.1680 O   0  0  0  0  0  0  0  0  0  0  0  0
   46.7390   31.0640   37.0330 C   0  0  0  0  0  2  0  0  0  0  0  0
   47.5050   32.3350   37.1960 C   0  0  0  0  0  2  0  0  0  0  0  0
  1  7  1  0  0  0  0
  2  3  2  0  0  0  0
  2  1  1  0  0  0  0
  4  1  1  0  0  0  0
  5  8  1  1  0  0  0
  6  9  1  0  0  0  0
  6  7  1  0  0  0  0
  6  5  1  0  0  0  0
  7 11  1  1  0  0  0
  7  5  1  0  0  0  0
 10  6  1  0  0  0  0
 12 13  1  0  0  0  0
 13  5  1  0  0  0  0
 13 14  2  0  0  0  0
 14 19  1  0  0  0  0
 15 14  1  0  0  0  0
 16 20  1  0  0  0  0
 16 15  2  0  0  0  0
 17 12  2  0  0  0  0
 17 16  1  0  0  0  0
 18 12  1  0  0  0  0
 21 24  1  6  0  0  0
 21  2  1  0  0  0  0
 22 21  1  0  0  0  0
 22 26  1  0  0  0  0
 23 27  1  1  0  0  0
 23 22  1  0  0  0  0
 23 21  1  0  0  0  0
 25 22  1  0  0  0  0
 28 23  1  0  0  0  0
 29 28  2  0  0  0  0
 30 31  1  0  0  0  0
 30 28  1  0  0  0  0
 32 31  1  0  0  0  0
 33 34  1  0  0  0  0
 33 31  1  0  0  0  0
 35 33  1  0  0  0  0
 36 35  1  0  0  0  0
 36 37  1  0  0  0  0
 37 30  1  0  0  0  0
M  END
>  <minimizedAffinity>
-4.97546196

>  <minimizedRMSD>
0.236178413

$$$$
