
 OpenBabel03242510223D

 37 40  0  0  1  0  0  0  0  0999 V2000
   48.0580   33.2730   43.2500 N   0  0  0  0  0  0  0  0  0  0  0  0
   49.2340   33.3270   42.5050 C   0  0  0  0  0  0  0  0  0  0  0  0
   50.3960   32.9370   42.7790 O   0  0  0  0  0  0  0  0  0  0  0  0
   47.5090   34.1620   43.1710 H   0  0  0  0  0  0  0  0  0  0  0  0
   46.3030   32.1400   44.5630 C   0  0  1  0  0  0  0  0  0  0  0  0
   46.4630   31.3800   43.3960 C   0  0  0  0  0  0  0  0  0  0  0  0
   47.6760   32.1420   44.0160 C   0  0  1  0  0  0  0  0  0  0  0  0
   46.1500   31.7020   45.5630 H   0  0  0  0  0  0  0  0  0  0  0  0
   46.5560   30.2560   43.5000 H   0  0  0  0  0  0  0  0  0  0  0  0
   46.2230   31.6270   42.3440 H   0  0  0  0  0  0  0  0  0  0  0  0
   48.4500   31.4530   44.3980 H   0  0  0  0  0  0  0  0  0  0  0  0
   45.0480   33.9750   43.1970 C   0  0  0  0  0  0  0  0  0  0  0  0
   45.5380   33.4720   44.4480 C   0  0  0  0  0  0  0  0  0  0  0  0
   45.3230   34.2410   45.5730 C   0  0  0  0  0  0  0  0  0  0  0  0
   44.6710   35.4150   45.4500 N   0  0  0  0  0  0  0  0  0  0  0  0
   44.2140   35.8820   44.2570 C   0  0  0  0  0  0  0  0  0  0  0  0
   44.4150   35.1260   43.1000 N   0  0  0  0  0  0  0  0  0  0  0  0
   45.2080   33.3550   42.3440 H   0  0  0  0  0  0  0  0  0  0  0  0
   45.6760   33.8950   46.5360 H   0  0  0  0  0  0  0  0  0  0  0  0
   43.7050   36.8380   44.2740 H   0  0  0  0  0  0  0  0  0  0  0  0
   49.2000   33.9390   41.1160 C   0  0  2  0  0  0  0  0  0  0  0  0
   48.7670   35.4500   41.0290 C   0  0  0  0  0  0  0  0  0  0  0  0
   47.9380   34.3370   40.4850 C   0  0  1  0  0  0  0  0  0  0  0  0
   50.0880   33.7820   40.4710 H   0  0  0  0  0  0  0  0  0  0  0  0
   49.3440   36.1080   40.3830 H   0  0  0  0  0  0  0  0  0  0  0  0
   48.4660   35.8420   42.0370 H   0  0  0  0  0  0  0  0  0  0  0  0
   46.9940   34.0340   40.9700 H   0  0  0  0  0  0  0  0  0  0  0  0
   47.8350   34.2090   38.9830 C   0  0  0  0  0  0  0  0  0  0  0  0
   48.6180   34.8210   38.2640 O   0  0  0  0  0  0  0  0  0  0  0  0
   46.8180   33.3690   38.3770 N   0  0  0  0  0  0  0  0  0  0  0  0
   46.8090   33.3270   36.9240 C   0  0  0  0  0  3  0  0  0  0  0  0
   47.6230   32.7500   36.4840 H   0  0  0  0  0  0  0  0  0  0  0  0
   45.4390   32.8710   36.4910 C   0  0  0  0  0  3  0  0  0  0  0  0
   45.4490   32.4820   35.4490 H   0  0  0  0  0  0  0  0  0  0  0  0
   44.9200   31.8430   37.2730 O   0  0  0  0  0  0  0  0  0  0  0  0
   44.6560   32.2970   38.5690 C   0  0  0  0  0  2  0  0  0  0  0  0
   45.9230   32.6590   39.2700 C   0  0  0  0  0  2  0  0  0  0  0  0
  1  7  1  0  0  0  0
  2  3  2  0  0  0  0
  2  1  1  0  0  0  0
  4  1  1  0  0  0  0
  5  8  1  1  0  0  0
  6  9  1  0  0  0  0
  6  7  1  0  0  0  0
  6  5  1  0  0  0  0
  7 11  1  1  0  0  0
  7  5  1  0  0  0  0
 10  6  1  0  0  0  0
 12 13  1  0  0  0  0
 13  5  1  0  0  0  0
 13 14  2  0  0  0  0
 14 19  1  0  0  0  0
 15 14  1  0  0  0  0
 16 20  1  0  0  0  0
 16 15  2  0  0  0  0
 17 12  2  0  0  0  0
 17 16  1  0  0  0  0
 18 12  1  0  0  0  0
 21 24  1  6  0  0  0
 21  2  1  0  0  0  0
 22 21  1  0  0  0  0
 22 26  1  0  0  0  0
 23 27  1  1  0  0  0
 23 22  1  0  0  0  0
 23 21  1  0  0  0  0
 25 22  1  0  0  0  0
 28 23  1  0  0  0  0
 29 28  2  0  0  0  0
 30 28  1  0  0  0  0
 30 37  1  0  0  0  0
 31 30  1  0  0  0  0
 32 31  1  0  0  0  0
 33 31  1  0  0  0  0
 33 35  1  0  0  0  0
 34 33  1  0  0  0  0
 35 36  1  0  0  0  0
 36 37  1  0  0  0  0
M  END
>  <minimizedAffinity>
-5.10377645

>  <minimizedRMSD>
0.16397582

$$$$
