
 OpenBabel03242510223D

 37 40  0  0  1  0  0  0  0  0999 V2000
   48.0390   33.1360   43.3190 N   0  0  0  0  0  0  0  0  0  0  0  0
   49.1580   33.0960   42.4890 C   0  0  0  0  0  0  0  0  0  0  0  0
   50.2930   32.5860   42.6670 O   0  0  0  0  0  0  0  0  0  0  0  0
   47.5780   34.0770   43.3010 H   0  0  0  0  0  0  0  0  0  0  0  0
   46.2160   32.0730   44.5970 C   0  0  1  0  0  0  0  0  0  0  0  0
   46.3810   31.2960   43.4410 C   0  0  0  0  0  0  0  0  0  0  0  0
   47.6020   32.0250   44.0850 C   0  0  1  0  0  0  0  0  0  0  0  0
   46.0230   31.6500   45.5970 H   0  0  0  0  0  0  0  0  0  0  0  0
   46.4350   30.1710   43.5590 H   0  0  0  0  0  0  0  0  0  0  0  0
   46.1760   31.5400   42.3810 H   0  0  0  0  0  0  0  0  0  0  0  0
   48.3440   31.3160   44.4930 H   0  0  0  0  0  0  0  0  0  0  0  0
   45.0250   33.9170   43.1860 C   0  0  0  0  0  0  0  0  0  0  0  0
   45.4970   33.4270   44.4500 C   0  0  0  0  0  0  0  0  0  0  0  0
   45.3090   34.2300   45.5560 C   0  0  0  0  0  0  0  0  0  0  0  0
   44.6970   35.4230   45.4040 N   0  0  0  0  0  0  0  0  0  0  0  0
   44.2570   35.8760   44.2000 C   0  0  0  0  0  0  0  0  0  0  0  0
   44.4320   35.0870   43.0620 N   0  0  0  0  0  0  0  0  0  0  0  0
   45.1650   33.2720   42.3480 H   0  0  0  0  0  0  0  0  0  0  0  0
   45.6490   33.8950   46.5270 H   0  0  0  0  0  0  0  0  0  0  0  0
   43.7810   36.8490   44.1940 H   0  0  0  0  0  0  0  0  0  0  0  0
   49.0870   33.7490   41.1220 C   0  0  2  0  0  0  0  0  0  0  0  0
   48.6710   35.2680   41.0920 C   0  0  0  0  0  0  0  0  0  0  0  0
   47.8100   34.1810   40.5450 C   0  0  1  0  0  0  0  0  0  0  0  0
   49.9510   33.6010   40.4420 H   0  0  0  0  0  0  0  0  0  0  0  0
   49.2350   35.9370   40.4470 H   0  0  0  0  0  0  0  0  0  0  0  0
   48.4080   35.6320   42.1220 H   0  0  0  0  0  0  0  0  0  0  0  0
   46.8780   33.8750   41.0520 H   0  0  0  0  0  0  0  0  0  0  0  0
   47.6560   34.0980   39.0430 C   0  0  0  0  0  0  0  0  0  0  0  0
   48.4710   34.6550   38.3160 O   0  0  0  0  0  0  0  0  0  0  0  0
   46.5510   33.3690   38.4490 N   0  0  0  0  0  0  0  0  0  0  0  0
   45.6320   32.7330   39.3790 C   0  0  0  0  0  3  0  0  0  0  0  0
   44.9660   33.4250   39.8970 H   0  0  0  0  0  0  0  0  0  0  0  0
   44.9120   31.6410   38.6330 C   0  0  0  0  0  3  0  0  0  0  0  0
   43.9690   31.3470   39.1460 H   0  0  0  0  0  0  0  0  0  0  0  0
   44.5390   32.0010   37.3400 O   0  0  0  0  0  0  0  0  0  0  0  0
   45.6680   32.1790   36.5340 C   0  0  0  0  0  2  0  0  0  0  0  0
   46.4710   33.3470   37.0010 C   0  0  0  0  0  2  0  0  0  0  0  0
  1  7  1  0  0  0  0
  2  3  2  0  0  0  0
  2  1  1  0  0  0  0
  4  1  1  0  0  0  0
  5  8  1  1  0  0  0
  6  9  1  0  0  0  0
  6  7  1  0  0  0  0
  6  5  1  0  0  0  0
  7 11  1  1  0  0  0
  7  5  1  0  0  0  0
 10  6  1  0  0  0  0
 12 13  1  0  0  0  0
 13  5  1  0  0  0  0
 13 14  2  0  0  0  0
 14 19  1  0  0  0  0
 15 14  1  0  0  0  0
 16 15  2  0  0  0  0
 17 12  2  0  0  0  0
 17 16  1  0  0  0  0
 18 12  1  0  0  0  0
 20 16  1  0  0  0  0
 21 24  1  6  0  0  0
 21  2  1  0  0  0  0
 22 21  1  0  0  0  0
 22 26  1  0  0  0  0
 23 27  1  1  0  0  0
 23 22  1  0  0  0  0
 23 21  1  0  0  0  0
 25 22  1  0  0  0  0
 28 23  1  0  0  0  0
 29 28  2  0  0  0  0
 30 28  1  0  0  0  0
 30 31  1  0  0  0  0
 31 32  1  0  0  0  0
 33 34  1  0  0  0  0
 33 31  1  0  0  0  0
 35 33  1  0  0  0  0
 36 37  1  0  0  0  0
 36 35  1  0  0  0  0
 37 30  1  0  0  0  0
M  END
>  <minimizedAffinity>
-5.02419662

>  <minimizedRMSD>
0.265869081

$$$$
