
 OpenBabel03242510223D

 37 40  0  0  1  0  0  0  0  0999 V2000
   48.0610   33.2440   43.1950 N   0  0  0  0  0  0  0  0  0  0  0  0
   49.2230   33.2880   42.4270 C   0  0  0  0  0  0  0  0  0  0  0  0
   50.3870   32.8880   42.6780 O   0  0  0  0  0  0  0  0  0  0  0  0
   47.5190   34.1390   43.1270 H   0  0  0  0  0  0  0  0  0  0  0  0
   46.3180   32.1210   44.5320 C   0  0  1  0  0  0  0  0  0  0  0  0
   46.4620   31.3580   43.3650 C   0  0  0  0  0  0  0  0  0  0  0  0
   47.6850   32.1160   43.9690 C   0  0  1  0  0  0  0  0  0  0  0  0
   46.1750   31.6860   45.5350 H   0  0  0  0  0  0  0  0  0  0  0  0
   46.5520   30.2330   43.4710 H   0  0  0  0  0  0  0  0  0  0  0  0
   46.2100   31.6030   42.3150 H   0  0  0  0  0  0  0  0  0  0  0  0
   48.4610   31.4250   44.3430 H   0  0  0  0  0  0  0  0  0  0  0  0
   45.0730   33.9680   43.1740 C   0  0  0  0  0  0  0  0  0  0  0  0
   45.5570   33.4550   44.4230 C   0  0  0  0  0  0  0  0  0  0  0  0
   45.3390   34.2170   45.5520 C   0  0  0  0  0  0  0  0  0  0  0  0
   44.6900   35.3940   45.4350 N   0  0  0  0  0  0  0  0  0  0  0  0
   44.2390   35.8690   44.2430 C   0  0  0  0  0  0  0  0  0  0  0  0
   44.4430   35.1210   43.0820 N   0  0  0  0  0  0  0  0  0  0  0  0
   45.2360   33.3540   42.3170 H   0  0  0  0  0  0  0  0  0  0  0  0
   45.6870   33.8640   46.5150 H   0  0  0  0  0  0  0  0  0  0  0  0
   43.7320   36.8260   44.2640 H   0  0  0  0  0  0  0  0  0  0  0  0
   49.1670   33.9010   41.0400 C   0  0  2  0  0  0  0  0  0  0  0  0
   48.6650   35.3900   40.9530 C   0  0  0  0  0  0  0  0  0  0  0  0
   47.8910   34.2410   40.4030 C   0  0  1  0  0  0  0  0  0  0  0  0
   50.0650   33.7870   40.3980 H   0  0  0  0  0  0  0  0  0  0  0  0
   49.2140   36.0750   40.3110 H   0  0  0  0  0  0  0  0  0  0  0  0
   48.3410   35.7650   41.9610 H   0  0  0  0  0  0  0  0  0  0  0  0
   46.9600   33.8930   40.8830 H   0  0  0  0  0  0  0  0  0  0  0  0
   47.8020   34.1110   38.9000 C   0  0  0  0  0  0  0  0  0  0  0  0
   48.5160   34.8050   38.1850 O   0  0  0  0  0  0  0  0  0  0  0  0
   46.8770   33.1740   38.2890 N   0  0  0  0  0  0  0  0  0  0  0  0
   47.4070   32.3750   37.1960 C   0  0  0  0  0  3  0  0  0  0  0  0
   48.0900   31.5840   37.5060 H   0  0  0  0  0  0  0  0  0  0  0  0
   46.2390   31.8860   36.3810 C   0  0  0  0  0  3  0  0  0  0  0  0
   46.5160   31.0080   35.7560 H   0  0  0  0  0  0  0  0  0  0  0  0
   45.1560   31.4730   37.1520 O   0  0  0  0  0  0  0  0  0  0  0  0
   44.5830   32.5620   37.8170 C   0  0  0  0  0  2  0  0  0  0  0  0
   45.5300   33.1230   38.8250 C   0  0  0  0  0  2  0  0  0  0  0  0
  1  7  1  0  0  0  0
  2  3  2  0  0  0  0
  2  1  1  0  0  0  0
  4  1  1  0  0  0  0
  5  8  1  1  0  0  0
  6  9  1  0  0  0  0
  6  7  1  0  0  0  0
  6  5  1  0  0  0  0
  7 11  1  1  0  0  0
  7  5  1  0  0  0  0
 10  6  1  0  0  0  0
 12 13  1  0  0  0  0
 13  5  1  0  0  0  0
 13 14  2  0  0  0  0
 14 19  1  0  0  0  0
 15 14  1  0  0  0  0
 16 20  1  0  0  0  0
 16 15  2  0  0  0  0
 17 12  2  0  0  0  0
 17 16  1  0  0  0  0
 18 12  1  0  0  0  0
 21 24  1  6  0  0  0
 21  2  1  0  0  0  0
 22 21  1  0  0  0  0
 22 26  1  0  0  0  0
 23 27  1  1  0  0  0
 23 22  1  0  0  0  0
 23 21  1  0  0  0  0
 25 22  1  0  0  0  0
 28 23  1  0  0  0  0
 29 28  2  0  0  0  0
 30 37  1  0  0  0  0
 30 28  1  0  0  0  0
 31 32  1  0  0  0  0
 31 30  1  0  0  0  0
 33 35  1  0  0  0  0
 33 31  1  0  0  0  0
 34 33  1  0  0  0  0
 35 36  1  0  0  0  0
 36 37  1  0  0  0  0
M  END
>  <minimizedAffinity>
-5.06226158

>  <minimizedRMSD>
0.1447341

$$$$
