
 OpenBabel03242515013D

 36 38  0  0  0  0  0  0  0  0999 V2000
   43.8160   34.7030   40.8020 S   0  0  0  0  0  0  0  0  0  0  0  0
   45.0800   34.4680   42.0510 C   0  0  0  0  0  0  0  0  0  0  0  0
   46.4120   34.5820   41.6220 C   0  0  0  0  0  0  0  0  0  0  0  0
   47.4320   34.4070   42.5570 C   0  0  0  0  0  0  0  0  0  0  0  0
   47.0740   34.1360   43.8300 N   0  0  0  0  0  0  0  0  0  0  0  0
   45.8010   34.0280   44.2410 C   0  0  0  0  0  0  0  0  0  0  0  0
   44.8220   34.1970   43.3340 N   0  0  0  0  0  0  0  0  0  0  0  0
   46.7210   34.7980   40.6080 H   0  0  0  0  0  0  0  0  0  0  0  0
   48.4660   34.4890   42.2520 H   0  0  0  0  0  0  0  0  0  0  0  0
   45.5230   33.7350   45.6280 C   0  0  0  0  0  0  0  0  0  0  0  0
   44.8310   34.5450   46.2900 O   0  0  0  0  0  0  0  0  0  0  0  0
   45.9630   32.5880   46.3470 N   0  0  0  0  0  0  0  0  0  0  0  0
   45.8650   32.6390   47.7940 C   0  0  0  0  0  3  0  0  0  0  0  0
   45.3250   33.5150   48.1470 H   0  0  0  0  0  0  0  0  0  0  0  0
   45.0570   31.4060   48.2020 C   0  0  0  0  0  3  0  0  0  0  0  0
   45.1960   31.3010   49.2990 H   0  0  0  0  0  0  0  0  0  0  0  0
   45.5330   30.2510   47.6330 O   0  0  0  0  0  0  0  0  0  0  0  0
   45.5720   30.2520   46.2620 C   0  0  0  0  0  2  0  0  0  0  0  0
   46.5000   31.3710   45.7700 C   0  0  0  0  0  2  0  0  0  0  0  0
   42.1780   34.8800   41.5050 C   0  0  0  0  0  0  0  0  0  0  0  0
   41.6510   33.8820   41.4830 H   0  0  0  0  0  0  0  0  0  0  0  0
   42.2090   35.1600   42.5950 H   0  0  0  0  0  0  0  0  0  0  0  0
   41.3130   35.8640   40.7920 C   0  0  0  0  0  0  0  0  0  0  0  0
   40.6980   36.4450   41.5370 H   0  0  0  0  0  0  0  0  0  0  0  0
   41.9030   36.6140   40.2270 H   0  0  0  0  0  0  0  0  0  0  0  0
   42.0580   36.0900   37.8480 Cl  0  0  0  0  0  0  0  0  0  0  0  0
   40.6670   35.2470   38.4450 C   0  0  0  0  0  0  0  0  0  0  0  0
   40.4170   35.2050   39.8230 C   0  0  0  0  0  0  0  0  0  0  0  0
   39.2900   34.5140   40.2150 C   0  0  0  0  0  0  0  0  0  0  0  0
   38.3850   33.8610   39.3920 C   0  0  0  0  0  0  0  0  0  0  0  0
   38.6590   33.9210   38.0320 C   0  0  0  0  0  0  0  0  0  0  0  0
   37.5610   33.1190   36.9150 Cl  0  0  0  0  0  0  0  0  0  0  0  0
   39.7720   34.5980   37.5870 C   0  0  0  0  0  0  0  0  0  0  0  0
   39.0880   34.4760   41.2840 H   0  0  0  0  0  0  0  0  0  0  0  0
   37.5330   33.3510   39.8190 H   0  0  0  0  0  0  0  0  0  0  0  0
   39.9600   34.6270   36.5150 H   0  0  0  0  0  0  0  0  0  0  0  0
  1 20  1  0  0  0  0
  1  2  1  0  0  0  0
  2  7  1  0  0  0  0
  3  2  2  0  0  0  0
  3  4  1  0  0  0  0
  4  5  2  0  0  0  0
  5  6  1  0  0  0  0
  6 10  1  0  0  0  0
  7  6  2  0  0  0  0
  8  3  1  0  0  0  0
  9  4  1  0  0  0  0
 10 11  2  0  0  0  0
 10 12  1  0  0  0  0
 12 13  1  0  0  0  0
 13 14  1  0  0  0  0
 13 15  1  0  0  0  0
 15 16  1  0  0  0  0
 17 15  1  0  0  0  0
 18 17  1  0  0  0  0
 19 18  1  0  0  0  0
 19 12  1  0  0  0  0
 20 22  1  0  0  0  0
 21 20  1  0  0  0  0
 23 20  1  0  0  0  0
 23 24  1  0  0  0  0
 25 23  1  0  0  0  0
 26 27  1  0  0  0  0
 27 28  1  0  0  0  0
 28 29  2  0  0  0  0
 28 23  1  0  0  0  0
 29 34  1  0  0  0  0
 30 35  1  0  0  0  0
 30 29  1  0  0  0  0
 31 30  2  0  0  0  0
 32 31  1  0  0  0  0
 33 31  1  0  0  0  0
 33 27  2  0  0  0  0
 36 33  1  0  0  0  0
M  END
>  <minimizedAffinity>
-6.8871007

>  <minimizedRMSD>
0.55498749

$$$$
