
 OpenBabel03242515013D

 36 38  0  0  0  0  0  0  0  0999 V2000
   43.9380   34.6560   40.8320 S   0  0  0  0  0  0  0  0  0  0  0  0
   45.1830   34.3920   42.0950 C   0  0  0  0  0  0  0  0  0  0  0  0
   46.5220   34.5160   41.6890 C   0  0  0  0  0  0  0  0  0  0  0  0
   47.5270   34.3200   42.6360 C   0  0  0  0  0  0  0  0  0  0  0  0
   47.1490   34.0210   43.8970 N   0  0  0  0  0  0  0  0  0  0  0  0
   45.8700   33.9030   44.2850 C   0  0  0  0  0  0  0  0  0  0  0  0
   44.9050   34.0930   43.3680 N   0  0  0  0  0  0  0  0  0  0  0  0
   46.8460   34.7540   40.6850 H   0  0  0  0  0  0  0  0  0  0  0  0
   48.5660   34.4090   42.3490 H   0  0  0  0  0  0  0  0  0  0  0  0
   45.5710   33.5800   45.6610 C   0  0  0  0  0  0  0  0  0  0  0  0
   44.8710   34.3770   46.3310 O   0  0  0  0  0  0  0  0  0  0  0  0
   45.9970   32.4160   46.3600 N   0  0  0  0  0  0  0  0  0  0  0  0
   46.1980   32.5420   47.7910 C   0  0  0  0  0  3  0  0  0  0  0  0
   45.8530   33.4990   48.1800 H   0  0  0  0  0  0  0  0  0  0  0  0
   45.3390   31.4500   48.4320 C   0  0  0  0  0  3  0  0  0  0  0  0
   45.6800   31.3760   49.4860 H   0  0  0  0  0  0  0  0  0  0  0  0
   45.5420   30.2170   47.8630 O   0  0  0  0  0  0  0  0  0  0  0  0
   45.3050   30.1540   46.5130 C   0  0  0  0  0  2  0  0  0  0  0  0
   46.2510   31.1120   45.7760 C   0  0  0  0  0  2  0  0  0  0  0  0
   42.2830   34.7570   41.5080 C   0  0  0  0  0  0  0  0  0  0  0  0
   41.7750   33.7530   41.4080 H   0  0  0  0  0  0  0  0  0  0  0  0
   42.2850   34.9640   42.6150 H   0  0  0  0  0  0  0  0  0  0  0  0
   41.4160   35.7720   40.8440 C   0  0  0  0  0  0  0  0  0  0  0  0
   40.8220   36.3360   41.6170 H   0  0  0  0  0  0  0  0  0  0  0  0
   42.0020   36.5320   40.2890 H   0  0  0  0  0  0  0  0  0  0  0  0
   42.1200   36.0540   37.8940 Cl  0  0  0  0  0  0  0  0  0  0  0  0
   40.7220   35.2220   38.4920 C   0  0  0  0  0  0  0  0  0  0  0  0
   40.4920   35.1530   39.8720 C   0  0  0  0  0  0  0  0  0  0  0  0
   39.3590   34.4740   40.2660 C   0  0  0  0  0  0  0  0  0  0  0  0
   38.4290   33.8580   39.4420 C   0  0  0  0  0  0  0  0  0  0  0  0
   38.6830   33.9440   38.0800 C   0  0  0  0  0  0  0  0  0  0  0  0
   37.5540   33.1900   36.9610 Cl  0  0  0  0  0  0  0  0  0  0  0  0
   39.8020   34.6110   37.6340 C   0  0  0  0  0  0  0  0  0  0  0  0
   39.1720   34.4140   41.3370 H   0  0  0  0  0  0  0  0  0  0  0  0
   37.5740   33.3530   39.8710 H   0  0  0  0  0  0  0  0  0  0  0  0
   39.9750   34.6620   36.5600 H   0  0  0  0  0  0  0  0  0  0  0  0
  1 20  1  0  0  0  0
  1  2  1  0  0  0  0
  2  7  1  0  0  0  0
  3  2  2  0  0  0  0
  3  4  1  0  0  0  0
  4  5  2  0  0  0  0
  5  6  1  0  0  0  0
  6 10  1  0  0  0  0
  7  6  2  0  0  0  0
  8  3  1  0  0  0  0
  9  4  1  0  0  0  0
 10 11  2  0  0  0  0
 10 12  1  0  0  0  0
 12 13  1  0  0  0  0
 13 14  1  0  0  0  0
 13 15  1  0  0  0  0
 15 16  1  0  0  0  0
 17 15  1  0  0  0  0
 18 17  1  0  0  0  0
 19 12  1  0  0  0  0
 19 18  1  0  0  0  0
 20 22  1  0  0  0  0
 21 20  1  0  0  0  0
 23 20  1  0  0  0  0
 23 24  1  0  0  0  0
 25 23  1  0  0  0  0
 26 27  1  0  0  0  0
 27 28  1  0  0  0  0
 28 29  2  0  0  0  0
 28 23  1  0  0  0  0
 29 34  1  0  0  0  0
 30 35  1  0  0  0  0
 30 29  1  0  0  0  0
 31 30  2  0  0  0  0
 32 31  1  0  0  0  0
 33 31  1  0  0  0  0
 33 27  2  0  0  0  0
 36 33  1  0  0  0  0
M  END
>  <minimizedAffinity>
-6.74775839

>  <minimizedRMSD>
0.691376388

$$$$
