
 OpenBabel03242510223D

 37 40  0  0  1  0  0  0  0  0999 V2000
   48.0420   33.2720   43.2140 N   0  0  0  0  0  0  0  0  0  0  0  0
   49.2220   33.3330   42.4760 C   0  0  0  0  0  0  0  0  0  0  0  0
   50.3890   32.9710   42.7670 O   0  0  0  0  0  0  0  0  0  0  0  0
   47.4770   34.1490   43.1120 H   0  0  0  0  0  0  0  0  0  0  0  0
   46.3120   32.1530   44.5720 C   0  0  1  0  0  0  0  0  0  0  0  0
   46.4540   31.3780   43.4120 C   0  0  0  0  0  0  0  0  0  0  0  0
   47.6760   32.1500   44.0010 C   0  0  1  0  0  0  0  0  0  0  0  0
   46.1770   31.7280   45.5810 H   0  0  0  0  0  0  0  0  0  0  0  0
   46.5510   30.2550   43.5300 H   0  0  0  0  0  0  0  0  0  0  0  0
   46.1950   31.6110   42.3620 H   0  0  0  0  0  0  0  0  0  0  0  0
   48.4580   31.4680   44.3790 H   0  0  0  0  0  0  0  0  0  0  0  0
   45.0520   33.9790   43.2000 C   0  0  0  0  0  0  0  0  0  0  0  0
   45.5420   33.4810   44.4530 C   0  0  0  0  0  0  0  0  0  0  0  0
   45.3230   34.2530   45.5760 C   0  0  0  0  0  0  0  0  0  0  0  0
   44.6670   35.4240   45.4490 N   0  0  0  0  0  0  0  0  0  0  0  0
   44.2090   35.8860   44.2540 C   0  0  0  0  0  0  0  0  0  0  0  0
   44.4140   35.1280   43.1000 N   0  0  0  0  0  0  0  0  0  0  0  0
   45.2150   33.3590   42.3490 H   0  0  0  0  0  0  0  0  0  0  0  0
   45.6760   33.9100   46.5400 H   0  0  0  0  0  0  0  0  0  0  0  0
   43.6970   36.8400   44.2690 H   0  0  0  0  0  0  0  0  0  0  0  0
   49.1870   33.9140   41.0750 C   0  0  2  0  0  0  0  0  0  0  0  0
   48.6820   35.4000   40.9470 C   0  0  0  0  0  0  0  0  0  0  0  0
   47.9200   34.2360   40.4110 C   0  0  1  0  0  0  0  0  0  0  0  0
   50.0950   33.7890   40.4510 H   0  0  0  0  0  0  0  0  0  0  0  0
   49.2390   36.0730   40.3000 H   0  0  0  0  0  0  0  0  0  0  0  0
   48.3400   35.7960   41.9410 H   0  0  0  0  0  0  0  0  0  0  0  0
   46.9820   33.8960   40.8830 H   0  0  0  0  0  0  0  0  0  0  0  0
   47.8560   34.0730   38.9090 C   0  0  0  0  0  0  0  0  0  0  0  0
   48.5180   34.8100   38.1880 O   0  0  0  0  0  0  0  0  0  0  0  0
   47.0150   33.0540   38.3090 N   0  0  0  0  0  0  0  0  0  0  0  0
   46.4780   33.3620   36.9940 C   0  0  0  0  0  3  0  0  0  0  0  0
   47.2080   33.3140   36.1860 H   0  0  0  0  0  0  0  0  0  0  0  0
   45.2720   32.4860   36.7770 C   0  0  0  0  0  3  0  0  0  0  0  0
   45.0170   32.4020   35.6980 H   0  0  0  0  0  0  0  0  0  0  0  0
   45.4450   31.1790   37.2270 O   0  0  0  0  0  0  0  0  0  0  0  0
   45.5530   31.1490   38.6210 C   0  0  0  0  0  2  0  0  0  0  0  0
   46.8000   31.8370   39.0680 C   0  0  0  0  0  2  0  0  0  0  0  0
  1  7  1  0  0  0  0
  2  3  2  0  0  0  0
  2  1  1  0  0  0  0
  4  1  1  0  0  0  0
  5  8  1  1  0  0  0
  6  9  1  0  0  0  0
  6  7  1  0  0  0  0
  6  5  1  0  0  0  0
  7 11  1  1  0  0  0
  7  5  1  0  0  0  0
 10  6  1  0  0  0  0
 12 13  1  0  0  0  0
 13  5  1  0  0  0  0
 13 14  2  0  0  0  0
 14 19  1  0  0  0  0
 15 14  1  0  0  0  0
 16 20  1  0  0  0  0
 16 15  2  0  0  0  0
 17 12  2  0  0  0  0
 17 16  1  0  0  0  0
 18 12  1  0  0  0  0
 21 24  1  6  0  0  0
 21  2  1  0  0  0  0
 22 21  1  0  0  0  0
 22 26  1  0  0  0  0
 23 27  1  1  0  0  0
 23 22  1  0  0  0  0
 23 21  1  0  0  0  0
 25 22  1  0  0  0  0
 28 23  1  0  0  0  0
 29 28  2  0  0  0  0
 30 28  1  0  0  0  0
 30 37  1  0  0  0  0
 31 30  1  0  0  0  0
 32 31  1  0  0  0  0
 33 31  1  0  0  0  0
 33 35  1  0  0  0  0
 34 33  1  0  0  0  0
 35 36  1  0  0  0  0
 36 37  1  0  0  0  0
M  END
>  <minimizedAffinity>
-5.01400805

>  <minimizedRMSD>
0.296331197

$$$$
