
 OpenBabel03242516553D

 44 47  0  0  1  0  0  0  0  0999 V2000
   38.9710   24.8540   40.9580 C   0  0  1  0  0  0  0  0  0  0  0  0
   38.3080   23.7600   41.6690 C   0  0  0  0  0  0  0  0  0  0  0  0
   37.3660   23.1030   40.6620 C   0  0  0  0  0  0  0  0  0  0  0  0
   36.2530   24.0850   40.4130 C   0  0  0  0  0  0  0  0  0  0  0  0
   36.7180   25.4450   39.9760 C   0  0  0  0  0  0  0  0  0  0  0  0
   37.9860   25.9500   40.5360 C   0  0  1  0  0  0  0  0  0  0  0  0
   39.3320   24.4640   39.9570 H   0  0  0  0  0  0  0  0  0  0  0  0
   37.6450   24.0760   42.5050 H   0  0  0  0  0  0  0  0  0  0  0  0
   39.0400   23.0380   42.0350 H   0  0  0  0  0  0  0  0  0  0  0  0
   37.8780   22.8110   39.7300 H   0  0  0  0  0  0  0  0  0  0  0  0
   36.9280   22.2370   41.2010 H   0  0  0  0  0  0  0  0  0  0  0  0
   35.6630   24.1550   41.3540 H   0  0  0  0  0  0  0  0  0  0  0  0
   35.5660   23.6770   39.6580 H   0  0  0  0  0  0  0  0  0  0  0  0
   35.9000   26.1570   40.2490 H   0  0  0  0  0  0  0  0  0  0  0  0
   36.7180   25.4480   38.8620 H   0  0  0  0  0  0  0  0  0  0  0  0
   38.5270   26.5180   39.7320 H   0  0  0  0  0  0  0  0  0  0  0  0
   41.3840   25.8770   43.6790 C   0  0  0  0  0  0  0  0  0  0  0  0
   40.3100   25.3130   42.9810 C   0  0  0  0  0  0  0  0  0  0  0  0
   40.1120   25.4640   41.6070 C   0  0  0  0  0  0  0  0  0  0  0  0
   41.0280   26.1970   40.9710 N   0  0  0  0  0  0  0  0  0  0  0  0
   42.0770   26.7510   41.6370 C   0  0  0  0  0  0  0  0  0  0  0  0
   42.2610   26.6020   42.9560 N   0  0  0  0  0  0  0  0  0  0  0  0
   41.4740   25.7180   44.7420 H   0  0  0  0  0  0  0  0  0  0  0  0
   39.5710   24.7190   43.5120 H   0  0  0  0  0  0  0  0  0  0  0  0
   42.8090   27.3420   41.1030 H   0  0  0  0  0  0  0  0  0  0  0  0
   37.7770   26.9280   41.6030 C   0  0  0  0  0  0  0  0  0  0  0  0
   37.0330   26.7160   42.7690 C   0  0  0  0  0  0  0  0  0  0  0  0
   36.9770   27.7820   43.6650 C   0  0  0  0  0  0  0  0  0  0  0  0
   37.6520   28.9440   43.3330 C   0  0  0  0  0  0  0  0  0  0  0  0
   38.3780   29.1280   42.1780 C   0  0  0  0  0  0  0  0  0  0  0  0
   38.4230   28.0760   41.3110 N   0  0  0  0  0  0  0  0  0  0  0  0
   36.5710   25.7760   42.8870 H   0  0  0  0  0  0  0  0  0  0  0  0
   36.4090   27.6460   44.5740 H   0  0  0  0  0  0  0  0  0  0  0  0
   37.6140   29.7760   44.0230 H   0  0  0  0  0  0  0  0  0  0  0  0
   39.0530   30.3980   41.9260 C   0  0  0  0  0  0  0  0  0  0  0  0
   39.8490   30.8390   42.7970 O   0  0  0  0  0  0  0  0  0  0  0  0
   39.0260   31.3280   40.8530 N   0  0  0  0  0  0  0  0  0  0  0  0
   38.1120   30.8910   39.7910 C   0  0  0  0  0  3  0  0  0  0  0  0
   38.6650   30.3050   39.0170 H   0  0  0  0  0  0  0  0  0  0  0  0
   37.6270   32.1730   39.1070 C   0  0  0  0  0  3  0  0  0  0  0  0
   38.3020   32.4930   38.3060 H   0  0  0  0  0  0  0  0  0  0  0  0
   37.3880   33.1560   40.0540 O   0  0  0  0  0  0  0  0  0  0  0  0
   38.5770   33.6570   40.5950 C   0  0  0  0  0  2  0  0  0  0  0  0
   39.6640   32.6090   40.5100 C   0  0  0  0  0  2  0  0  0  0  0  0
  1  7  1  6  0  0  0
  1 19  1  0  0  0  0
  1  2  1  0  0  0  0
  2  9  1  0  0  0  0
  2  8  1  0  0  0  0
  3 11  1  0  0  0  0
  3  2  1  0  0  0  0
  4  3  1  0  0  0  0
  4 12  1  0  0  0  0
  5 14  1  0  0  0  0
  5  4  1  0  0  0  0
  5  6  1  0  0  0  0
  6 16  1  6  0  0  0
  6  1  1  0  0  0  0
  6 26  1  0  0  0  0
 10  3  1  0  0  0  0
 13  4  1  0  0  0  0
 15  5  1  0  0  0  0
 17 23  1  0  0  0  0
 18 24  1  0  0  0  0
 18 17  1  0  0  0  0
 19 18  2  0  0  0  0
 20 19  1  0  0  0  0
 20 21  2  0  0  0  0
 21 22  1  0  0  0  0
 22 17  2  0  0  0  0
 25 21  1  0  0  0  0
 26 27  1  0  0  0  0
 27 32  1  0  0  0  0
 27 28  2  0  0  0  0
 28 33  1  0  0  0  0
 29 28  1  0  0  0  0
 29 34  1  0  0  0  0
 30 29  2  0  0  0  0
 31 26  2  0  0  0  0
 31 30  1  0  0  0  0
 35 30  1  0  0  0  0
 35 36  2  0  0  0  0
 37 35  1  0  0  0  0
 38 37  1  0  0  0  0
 39 38  1  0  0  0  0
 40 38  1  0  0  0  0
 40 42  1  0  0  0  0
 41 40  1  0  0  0  0
 42 43  1  0  0  0  0
 44 43  1  0  0  0  0
 44 37  1  0  0  0  0
M  END
>  <minimizedAffinity>
-6.37868786

$$$$

 OpenBabel03242516553D

 44 47  0  0  1  0  0  0  0  0999 V2000
   36.5350   30.7250   38.9450 C   0  0  1  0  0  0  0  0  0  0  0  0
   36.7160   29.8070   37.8200 C   0  0  0  0  0  0  0  0  0  0  0  0
   35.3150   29.3870   37.3800 C   0  0  0  0  0  0  0  0  0  0  0  0
   34.7710   28.5030   38.4690 C   0  0  0  0  0  0  0  0  0  0  0  0
   34.7910   29.1270   39.8350 C   0  0  0  0  0  0  0  0  0  0  0  0
   35.9090   30.0320   40.1610 C   0  0  1  0  0  0  0  0  0  0  0  0
   35.7370   31.4800   38.6670 H   0  0  0  0  0  0  0  0  0  0  0  0
   37.2270   28.8510   38.0700 H   0  0  0  0  0  0  0  0  0  0  0  0
   37.2430   30.3010   37.0010 H   0  0  0  0  0  0  0  0  0  0  0  0
   34.6580   30.2500   37.1770 H   0  0  0  0  0  0  0  0  0  0  0  0
   35.4740   28.7500   36.4860 H   0  0  0  0  0  0  0  0  0  0  0  0
   35.3680   27.5650   38.4560 H   0  0  0  0  0  0  0  0  0  0  0  0
   33.7420   28.2070   38.2210 H   0  0  0  0  0  0  0  0  0  0  0  0
   34.7960   28.2800   40.5660 H   0  0  0  0  0  0  0  0  0  0  0  0
   33.7990   29.6100   39.9900 H   0  0  0  0  0  0  0  0  0  0  0  0
   35.5120   30.8740   40.7890 H   0  0  0  0  0  0  0  0  0  0  0  0
   38.6130   33.4880   40.4690 C   0  0  0  0  0  0  0  0  0  0  0  0
   37.5410   32.7010   40.0320 C   0  0  0  0  0  0  0  0  0  0  0  0
   37.6950   31.4790   39.3720 C   0  0  0  0  0  0  0  0  0  0  0  0
   38.9550   31.0870   39.1720 N   0  0  0  0  0  0  0  0  0  0  0  0
   40.0050   31.8440   39.5920 C   0  0  0  0  0  0  0  0  0  0  0  0
   39.8500   33.0150   40.2250 N   0  0  0  0  0  0  0  0  0  0  0  0
   38.4190   34.4220   40.9720 H   0  0  0  0  0  0  0  0  0  0  0  0
   36.5210   33.0320   40.2000 H   0  0  0  0  0  0  0  0  0  0  0  0
   41.0190   31.5080   39.4210 H   0  0  0  0  0  0  0  0  0  0  0  0
   36.9220   29.3930   40.9990 C   0  0  0  0  0  0  0  0  0  0  0  0
   37.3820   29.8710   42.2310 C   0  0  0  0  0  0  0  0  0  0  0  0
   38.3440   29.0930   42.8730 C   0  0  0  0  0  0  0  0  0  0  0  0
   38.7580   27.9290   42.2490 C   0  0  0  0  0  0  0  0  0  0  0  0
   38.2900   27.4800   41.0350 C   0  0  0  0  0  0  0  0  0  0  0  0
   37.3490   28.2520   40.4190 N   0  0  0  0  0  0  0  0  0  0  0  0
   36.9740   30.7770   42.5840 H   0  0  0  0  0  0  0  0  0  0  0  0
   38.7170   29.4390   43.8260 H   0  0  0  0  0  0  0  0  0  0  0  0
   39.5040   27.3190   42.7400 H   0  0  0  0  0  0  0  0  0  0  0  0
   38.7980   26.2340   40.4640 C   0  0  0  0  0  0  0  0  0  0  0  0
   39.9340   26.2410   39.9230 O   0  0  0  0  0  0  0  0  0  0  0  0
   38.2780   24.9170   40.3660 N   0  0  0  0  0  0  0  0  0  0  0  0
   36.9440   24.8220   40.9710 C   0  0  0  0  0  3  0  0  0  0  0  0
   37.0230   24.5060   42.0400 H   0  0  0  0  0  0  0  0  0  0  0  0
   36.2320   23.6870   40.2300 C   0  0  0  0  0  3  0  0  0  0  0  0
   36.4350   22.7090   40.6800 H   0  0  0  0  0  0  0  0  0  0  0  0
   36.5260   23.7450   38.8770 O   0  0  0  0  0  0  0  0  0  0  0  0
   37.8440   23.3560   38.6150 C   0  0  0  0  0  2  0  0  0  0  0  0
   38.7090   23.6170   39.8270 C   0  0  0  0  0  2  0  0  0  0  0  0
  1  7  1  6  0  0  0
  1 19  1  0  0  0  0
  1  6  1  0  0  0  0
  2  8  1  0  0  0  0
  2  1  1  0  0  0  0
  3  2  1  0  0  0  0
  3  4  1  0  0  0  0
  4  5  1  0  0  0  0
  5 15  1  0  0  0  0
  5  6  1  0  0  0  0
  5 14  1  0  0  0  0
  6 16  1  1  0  0  0
  6 26  1  0  0  0  0
  9  2  1  0  0  0  0
 10  3  1  0  0  0  0
 11  3  1  0  0  0  0
 12  4  1  0  0  0  0
 13  4  1  0  0  0  0
 17 23  1  0  0  0  0
 18 24  1  0  0  0  0
 18 17  2  0  0  0  0
 19 18  1  0  0  0  0
 20 19  2  0  0  0  0
 20 21  1  0  0  0  0
 21 22  2  0  0  0  0
 22 17  1  0  0  0  0
 25 21  1  0  0  0  0
 26 27  1  0  0  0  0
 27 32  1  0  0  0  0
 27 28  2  0  0  0  0
 28 33  1  0  0  0  0
 29 34  1  0  0  0  0
 29 28  1  0  0  0  0
 30 29  2  0  0  0  0
 31 26  2  0  0  0  0
 31 30  1  0  0  0  0
 35 30  1  0  0  0  0
 36 35  2  0  0  0  0
 37 35  1  0  0  0  0
 37 38  1  0  0  0  0
 38 39  1  0  0  0  0
 40 41  1  0  0  0  0
 40 38  1  0  0  0  0
 42 40  1  0  0  0  0
 43 42  1  0  0  0  0
 43 44  1  0  0  0  0
 44 37  1  0  0  0  0
M  END
>  <minimizedAffinity>
-6.06038237

$$$$

 OpenBabel03242516553D

 44 47  0  0  1  0  0  0  0  0999 V2000
   38.8680   24.8280   40.7390 C   0  0  1  0  0  0  0  0  0  0  0  0
   38.3140   23.6710   41.4420 C   0  0  0  0  0  0  0  0  0  0  0  0
   37.4520   22.9240   40.4260 C   0  0  0  0  0  0  0  0  0  0  0  0
   36.2470   23.7870   40.1690 C   0  0  0  0  0  0  0  0  0  0  0  0
   36.5750   25.1880   39.7390 C   0  0  0  0  0  0  0  0  0  0  0  0
   37.7790   25.8190   40.3100 C   0  0  1  0  0  0  0  0  0  0  0  0
   39.2750   24.4800   39.7400 H   0  0  0  0  0  0  0  0  0  0  0  0
   37.6160   23.9150   42.2730 H   0  0  0  0  0  0  0  0  0  0  0  0
   39.1130   23.0260   41.8130 H   0  0  0  0  0  0  0  0  0  0  0  0
   38.0000   22.6870   39.4980 H   0  0  0  0  0  0  0  0  0  0  0  0
   37.1000   22.0160   40.9600 H   0  0  0  0  0  0  0  0  0  0  0  0
   35.6450   23.7940   41.1050 H   0  0  0  0  0  0  0  0  0  0  0  0
   35.6120   23.3130   39.4080 H   0  0  0  0  0  0  0  0  0  0  0  0
   35.6860   25.8130   40.0050 H   0  0  0  0  0  0  0  0  0  0  0  0
   36.5830   25.1950   38.6240 H   0  0  0  0  0  0  0  0  0  0  0  0
   38.2660   26.4420   39.5120 H   0  0  0  0  0  0  0  0  0  0  0  0
   41.3210   25.8850   43.4110 C   0  0  0  0  0  0  0  0  0  0  0  0
   40.3040   25.2290   42.7060 C   0  0  0  0  0  0  0  0  0  0  0  0
   39.9350   25.5500   41.3980 C   0  0  0  0  0  0  0  0  0  0  0  0
   40.6210   26.5460   40.8340 N   0  0  0  0  0  0  0  0  0  0  0  0
   41.6120   27.1920   41.5080 C   0  0  0  0  0  0  0  0  0  0  0  0
   41.9610   26.8780   42.7630 N   0  0  0  0  0  0  0  0  0  0  0  0
   41.5530   25.5830   44.4200 H   0  0  0  0  0  0  0  0  0  0  0  0
   39.7540   24.4200   43.1780 H   0  0  0  0  0  0  0  0  0  0  0  0
   42.1560   27.9970   41.0330 H   0  0  0  0  0  0  0  0  0  0  0  0
   37.4630   26.7680   41.3760 C   0  0  0  0  0  0  0  0  0  0  0  0
   37.0400   26.4320   42.6680 C   0  0  0  0  0  0  0  0  0  0  0  0
   36.8090   27.4980   43.5360 C   0  0  0  0  0  0  0  0  0  0  0  0
   37.0130   28.7800   43.0570 C   0  0  0  0  0  0  0  0  0  0  0  0
   37.4300   29.0850   41.7800 C   0  0  0  0  0  0  0  0  0  0  0  0
   37.6520   28.0310   40.9430 N   0  0  0  0  0  0  0  0  0  0  0  0
   36.9270   25.4080   42.8910 H   0  0  0  0  0  0  0  0  0  0  0  0
   36.4820   27.2670   44.5390 H   0  0  0  0  0  0  0  0  0  0  0  0
   36.8360   29.6130   43.7240 H   0  0  0  0  0  0  0  0  0  0  0  0
   37.6140   30.4770   41.3780 C   0  0  0  0  0  0  0  0  0  0  0  0
   36.6020   31.1400   41.0310 O   0  0  0  0  0  0  0  0  0  0  0  0
   38.7460   31.3270   41.2750 N   0  0  0  0  0  0  0  0  0  0  0  0
   39.9770   30.6260   41.6580 C   0  0  0  0  0  3  0  0  0  0  0  0
   40.1950   30.7840   42.7420 H   0  0  0  0  0  0  0  0  0  0  0  0
   41.1040   31.3100   40.8800 C   0  0  0  0  0  3  0  0  0  0  0  0
   41.5090   32.1760   41.4150 H   0  0  0  0  0  0  0  0  0  0  0  0
   40.6830   31.6040   39.5920 O   0  0  0  0  0  0  0  0  0  0  0  0
   39.7620   32.6560   39.5740 C   0  0  0  0  0  2  0  0  0  0  0  0
   39.0270   32.7210   40.8940 C   0  0  0  0  0  2  0  0  0  0  0  0
  1  7  1  6  0  0  0
  1 19  1  0  0  0  0
  1  2  1  0  0  0  0
  2  9  1  0  0  0  0
  2  8  1  0  0  0  0
  3 11  1  0  0  0  0
  3  2  1  0  0  0  0
  4  3  1  0  0  0  0
  4 12  1  0  0  0  0
  5 14  1  0  0  0  0
  5  4  1  0  0  0  0
  5  6  1  0  0  0  0
  6 16  1  6  0  0  0
  6  1  1  0  0  0  0
  6 26  1  0  0  0  0
 10  3  1  0  0  0  0
 13  4  1  0  0  0  0
 15  5  1  0  0  0  0
 17 23  1  0  0  0  0
 18 24  1  0  0  0  0
 18 17  2  0  0  0  0
 19 18  1  0  0  0  0
 20 19  2  0  0  0  0
 20 21  1  0  0  0  0
 21 22  2  0  0  0  0
 22 17  1  0  0  0  0
 25 21  1  0  0  0  0
 26 27  1  0  0  0  0
 27 32  1  0  0  0  0
 27 28  2  0  0  0  0
 28 33  1  0  0  0  0
 29 28  1  0  0  0  0
 29 34  1  0  0  0  0
 30 29  2  0  0  0  0
 31 26  2  0  0  0  0
 31 30  1  0  0  0  0
 35 30  1  0  0  0  0
 36 35  2  0  0  0  0
 37 35  1  0  0  0  0
 37 38  1  0  0  0  0
 38 39  1  0  0  0  0
 40 41  1  0  0  0  0
 40 38  1  0  0  0  0
 42 40  1  0  0  0  0
 43 42  1  0  0  0  0
 43 44  1  0  0  0  0
 44 37  1  0  0  0  0
M  END
>  <minimizedAffinity>
-6.01457024

$$$$

 OpenBabel03242516553D

 44 47  0  0  1  0  0  0  0  0999 V2000
   36.8650   30.2990   39.3200 C   0  0  1  0  0  0  0  0  0  0  0  0
   36.8710   29.3820   38.1800 C   0  0  0  0  0  0  0  0  0  0  0  0
   35.4560   29.4030   37.6050 C   0  0  0  0  0  0  0  0  0  0  0  0
   34.5760   28.7080   38.6090 C   0  0  0  0  0  0  0  0  0  0  0  0
   34.6520   29.2810   39.9950 C   0  0  0  0  0  0  0  0  0  0  0  0
   35.9510   29.8090   40.4500 C   0  0  1  0  0  0  0  0  0  0  0  0
   36.3540   31.2600   39.0050 H   0  0  0  0  0  0  0  0  0  0  0  0
   37.0520   28.3150   38.4350 H   0  0  0  0  0  0  0  0  0  0  0  0
   37.5940   29.7070   37.4280 H   0  0  0  0  0  0  0  0  0  0  0  0
   35.1040   30.4240   37.3810 H   0  0  0  0  0  0  0  0  0  0  0  0
   35.5020   28.7580   36.7040 H   0  0  0  0  0  0  0  0  0  0  0  0
   34.8690   27.6340   38.6100 H   0  0  0  0  0  0  0  0  0  0  0  0
   33.5330   28.7340   38.2620 H   0  0  0  0  0  0  0  0  0  0  0  0
   34.3380   28.4620   40.6890 H   0  0  0  0  0  0  0  0  0  0  0  0
   33.8360   30.0350   40.0830 H   0  0  0  0  0  0  0  0  0  0  0  0
   35.7640   30.7230   41.0750 H   0  0  0  0  0  0  0  0  0  0  0  0
   39.5110   32.2980   41.1300 C   0  0  0  0  0  0  0  0  0  0  0  0
   38.3010   31.8700   40.5720 C   0  0  0  0  0  0  0  0  0  0  0  0
   38.1500   30.6690   39.8740 C   0  0  0  0  0  0  0  0  0  0  0  0
   39.2520   29.9260   39.7620 N   0  0  0  0  0  0  0  0  0  0  0  0
   40.4360   30.3310   40.3000 C   0  0  0  0  0  0  0  0  0  0  0  0
   40.5730   31.4840   40.9680 N   0  0  0  0  0  0  0  0  0  0  0  0
   39.5540   33.2380   41.6560 H   0  0  0  0  0  0  0  0  0  0  0  0
   37.4110   32.4850   40.6700 H   0  0  0  0  0  0  0  0  0  0  0  0
   41.3180   29.7140   40.1980 H   0  0  0  0  0  0  0  0  0  0  0  0
   36.6480   28.8870   41.3460 C   0  0  0  0  0  0  0  0  0  0  0  0
   37.2810   29.2360   42.5440 C   0  0  0  0  0  0  0  0  0  0  0  0
   37.8730   28.1940   43.2540 C   0  0  0  0  0  0  0  0  0  0  0  0
   37.7880   26.9180   42.7240 C   0  0  0  0  0  0  0  0  0  0  0  0
   37.1580   26.6000   41.5420 C   0  0  0  0  0  0  0  0  0  0  0  0
   36.5850   27.6310   40.8580 N   0  0  0  0  0  0  0  0  0  0  0  0
   37.2670   30.2530   42.8230 H   0  0  0  0  0  0  0  0  0  0  0  0
   38.3690   28.4350   44.1840 H   0  0  0  0  0  0  0  0  0  0  0  0
   38.2440   26.1030   43.2690 H   0  0  0  0  0  0  0  0  0  0  0  0
   37.1280   25.2160   41.0730 C   0  0  0  0  0  0  0  0  0  0  0  0
   36.6370   24.3370   41.8280 O   0  0  0  0  0  0  0  0  0  0  0  0
   37.5500   24.5760   39.8780 N   0  0  0  0  0  0  0  0  0  0  0  0
   38.1430   25.5350   38.9390 C   0  0  0  0  0  3  0  0  0  0  0  0
   37.3680   25.9200   38.2330 H   0  0  0  0  0  0  0  0  0  0  0  0
   39.1410   24.7320   38.1000 C   0  0  0  0  0  3  0  0  0  0  0  0
   38.6670   24.2690   37.2270 H   0  0  0  0  0  0  0  0  0  0  0  0
   39.8200   23.8300   38.9030 O   0  0  0  0  0  0  0  0  0  0  0  0
   39.0000   22.7700   39.3040 C   0  0  0  0  0  2  0  0  0  0  0  0
   37.5540   23.2150   39.3190 C   0  0  0  0  0  2  0  0  0  0  0  0
  1  7  1  6  0  0  0
  1 19  1  0  0  0  0
  1  6  1  0  0  0  0
  2  8  1  0  0  0  0
  2  1  1  0  0  0  0
  3  2  1  0  0  0  0
  3  4  1  0  0  0  0
  4 12  1  0  0  0  0
  4  5  1  0  0  0  0
  5 15  1  0  0  0  0
  5  6  1  0  0  0  0
  5 14  1  0  0  0  0
  6 16  1  1  0  0  0
  6 26  1  0  0  0  0
  9  2  1  0  0  0  0
 10  3  1  0  0  0  0
 11  3  1  0  0  0  0
 13  4  1  0  0  0  0
 17 23  1  0  0  0  0
 18 24  1  0  0  0  0
 18 17  2  0  0  0  0
 19 18  1  0  0  0  0
 20 19  2  0  0  0  0
 20 21  1  0  0  0  0
 21 22  2  0  0  0  0
 22 17  1  0  0  0  0
 25 21  1  0  0  0  0
 26 27  1  0  0  0  0
 27 32  1  0  0  0  0
 27 28  2  0  0  0  0
 28 33  1  0  0  0  0
 29 28  1  0  0  0  0
 29 34  1  0  0  0  0
 30 29  2  0  0  0  0
 31 26  2  0  0  0  0
 31 30  1  0  0  0  0
 35 30  1  0  0  0  0
 35 36  2  0  0  0  0
 37 35  1  0  0  0  0
 38 37  1  0  0  0  0
 39 38  1  0  0  0  0
 40 42  1  0  0  0  0
 40 38  1  0  0  0  0
 41 40  1  0  0  0  0
 42 43  1  0  0  0  0
 43 44  1  0  0  0  0
 44 37  1  0  0  0  0
M  END
>  <minimizedAffinity>
-5.93584204

$$$$

 OpenBabel03242516553D

 44 47  0  0  1  0  0  0  0  0999 V2000
   37.8980   26.3180   41.2500 C   0  0  1  0  0  0  0  0  0  0  0  0
   39.3210   26.6140   41.4210 C   0  0  0  0  0  0  0  0  0  0  0  0
   39.6410   26.3490   42.8910 C   0  0  0  0  0  0  0  0  0  0  0  0
   38.9610   27.4350   43.6800 C   0  0  0  0  0  0  0  0  0  0  0  0
   37.4870   27.5570   43.4150 C   0  0  0  0  0  0  0  0  0  0  0  0
   37.0090   27.2800   42.0480 C   0  0  1  0  0  0  0  0  0  0  0  0
   37.6760   25.3240   41.7490 H   0  0  0  0  0  0  0  0  0  0  0  0
   39.6030   27.6780   41.2620 H   0  0  0  0  0  0  0  0  0  0  0  0
   39.9280   25.9740   40.7760 H   0  0  0  0  0  0  0  0  0  0  0  0
   39.3310   25.3420   43.2170 H   0  0  0  0  0  0  0  0  0  0  0  0
   40.7350   26.5110   42.9810 H   0  0  0  0  0  0  0  0  0  0  0  0
   39.4830   28.3880   43.4400 H   0  0  0  0  0  0  0  0  0  0  0  0
   39.1240   27.2650   44.7530 H   0  0  0  0  0  0  0  0  0  0  0  0
   37.2070   28.6050   43.6840 H   0  0  0  0  0  0  0  0  0  0  0  0
   36.9650   26.9350   44.1790 H   0  0  0  0  0  0  0  0  0  0  0  0
   36.0200   26.7530   42.1180 H   0  0  0  0  0  0  0  0  0  0  0  0
   35.8150   25.2250   38.2940 C   0  0  0  0  0  0  0  0  0  0  0  0
   36.3440   25.3720   39.5820 C   0  0  0  0  0  0  0  0  0  0  0  0
   37.4030   26.2270   39.8930 C   0  0  0  0  0  0  0  0  0  0  0  0
   37.9030   26.9210   38.8690 N   0  0  0  0  0  0  0  0  0  0  0  0
   37.3980   26.7870   37.6120 C   0  0  0  0  0  0  0  0  0  0  0  0
   36.3810   25.9650   37.3210 N   0  0  0  0  0  0  0  0  0  0  0  0
   34.9950   24.5440   38.1270 H   0  0  0  0  0  0  0  0  0  0  0  0
   35.9280   24.8000   40.4070 H   0  0  0  0  0  0  0  0  0  0  0  0
   37.8170   27.3580   36.7940 H   0  0  0  0  0  0  0  0  0  0  0  0
   36.7240   28.5010   41.2960 C   0  0  0  0  0  0  0  0  0  0  0  0
   35.5100   28.8110   40.6730 C   0  0  0  0  0  0  0  0  0  0  0  0
   35.4490   30.0410   40.0210 C   0  0  0  0  0  0  0  0  0  0  0  0
   36.5780   30.8420   40.0420 C   0  0  0  0  0  0  0  0  0  0  0  0
   37.7620   30.5140   40.6620 C   0  0  0  0  0  0  0  0  0  0  0  0
   37.8060   29.3070   41.2960 N   0  0  0  0  0  0  0  0  0  0  0  0
   34.7340   28.1000   40.7400 H   0  0  0  0  0  0  0  0  0  0  0  0
   34.5230   30.3060   39.5320 H   0  0  0  0  0  0  0  0  0  0  0  0
   36.5390   31.7980   39.5390 H   0  0  0  0  0  0  0  0  0  0  0  0
   38.8950   31.4360   40.6230 C   0  0  0  0  0  0  0  0  0  0  0  0
   38.9110   32.4020   41.4300 O   0  0  0  0  0  0  0  0  0  0  0  0
   40.0710   31.5100   39.8320 N   0  0  0  0  0  0  0  0  0  0  0  0
   40.1290   30.4170   38.8550 C   0  0  0  0  0  3  0  0  0  0  0  0
   40.6940   29.5490   39.2730 H   0  0  0  0  0  0  0  0  0  0  0  0
   40.9530   30.9520   37.6810 C   0  0  0  0  0  3  0  0  0  0  0  0
   42.0280   30.7930   37.8240 H   0  0  0  0  0  0  0  0  0  0  0  0
   40.6190   32.2730   37.4280 O   0  0  0  0  0  0  0  0  0  0  0  0
   41.1060   33.1310   38.4200 C   0  0  0  0  0  2  0  0  0  0  0  0
   41.2540   32.3800   39.7240 C   0  0  0  0  0  2  0  0  0  0  0  0
  1  2  1  0  0  0  0
  1  7  1  1  0  0  0
  1  6  1  0  0  0  0
  2  3  1  0  0  0  0
  3 11  1  0  0  0  0
  3 10  1  0  0  0  0
  3  4  1  0  0  0  0
  4 13  1  0  0  0  0
  5  4  1  0  0  0  0
  5 14  1  0  0  0  0
  5 15  1  0  0  0  0
  6 16  1  1  0  0  0
  6  5  1  0  0  0  0
  8  2  1  0  0  0  0
  9  2  1  0  0  0  0
 12  4  1  0  0  0  0
 17 18  1  0  0  0  0
 18 19  2  0  0  0  0
 18 24  1  0  0  0  0
 19  1  1  0  0  0  0
 20 19  1  0  0  0  0
 21 20  2  0  0  0  0
 22 21  1  0  0  0  0
 22 17  2  0  0  0  0
 23 17  1  0  0  0  0
 25 21  1  0  0  0  0
 26  6  1  0  0  0  0
 27 32  1  0  0  0  0
 27 26  2  0  0  0  0
 28 29  2  0  0  0  0
 28 27  1  0  0  0  0
 29 30  1  0  0  0  0
 30 31  2  0  0  0  0
 31 26  1  0  0  0  0
 33 28  1  0  0  0  0
 34 29  1  0  0  0  0
 35 30  1  0  0  0  0
 35 36  2  0  0  0  0
 37 35  1  0  0  0  0
 38 39  1  0  0  0  0
 38 37  1  0  0  0  0
 40 41  1  0  0  0  0
 40 38  1  0  0  0  0
 42 40  1  0  0  0  0
 42 43  1  0  0  0  0
 43 44  1  0  0  0  0
 44 37  1  0  0  0  0
M  END
>  <minimizedAffinity>
-5.8040657

$$$$

 OpenBabel03242516553D

 44 47  0  0  1  0  0  0  0  0999 V2000
   37.7930   25.9510   41.8980 C   0  0  1  0  0  0  0  0  0  0  0  0
   39.0780   26.5050   42.3260 C   0  0  0  0  0  0  0  0  0  0  0  0
   38.8270   27.1750   43.6750 C   0  0  0  0  0  0  0  0  0  0  0  0
   37.9930   28.3970   43.4000 C   0  0  0  0  0  0  0  0  0  0  0  0
   36.7260   28.1180   42.6420 C   0  0  0  0  0  0  0  0  0  0  0  0
   36.7510   27.0440   41.6320 C   0  0  1  0  0  0  0  0  0  0  0  0
   37.3330   25.3960   42.7730 H   0  0  0  0  0  0  0  0  0  0  0  0
   39.4760   27.3190   41.6810 H   0  0  0  0  0  0  0  0  0  0  0  0
   39.8250   25.7160   42.4230 H   0  0  0  0  0  0  0  0  0  0  0  0
   38.3460   26.4980   44.4020 H   0  0  0  0  0  0  0  0  0  0  0  0
   39.8250   27.5260   44.0120 H   0  0  0  0  0  0  0  0  0  0  0  0
   38.6360   29.1110   42.8400 H   0  0  0  0  0  0  0  0  0  0  0  0
   37.7460   28.8940   44.3480 H   0  0  0  0  0  0  0  0  0  0  0  0
   36.4470   29.0750   42.1360 H   0  0  0  0  0  0  0  0  0  0  0  0
   35.9200   27.9680   43.3970 H   0  0  0  0  0  0  0  0  0  0  0  0
   35.7660   26.5050   41.6620 H   0  0  0  0  0  0  0  0  0  0  0  0
   36.7870   23.1160   39.6120 C   0  0  0  0  0  0  0  0  0  0  0  0
   36.8310   24.0440   40.6590 C   0  0  0  0  0  0  0  0  0  0  0  0
   37.8130   25.0300   40.7810 C   0  0  0  0  0  0  0  0  0  0  0  0
   38.7380   25.0440   39.8200 N   0  0  0  0  0  0  0  0  0  0  0  0
   38.7070   24.1470   38.7960 C   0  0  0  0  0  0  0  0  0  0  0  0
   37.7610   23.2040   38.6850 N   0  0  0  0  0  0  0  0  0  0  0  0
   35.9990   22.3810   39.5820 H   0  0  0  0  0  0  0  0  0  0  0  0
   36.0720   24.0210   41.4350 H   0  0  0  0  0  0  0  0  0  0  0  0
   39.4660   24.1740   38.0270 H   0  0  0  0  0  0  0  0  0  0  0  0
   36.8480   27.5600   40.2670 C   0  0  0  0  0  0  0  0  0  0  0  0
   36.0790   27.1350   39.1780 C   0  0  0  0  0  0  0  0  0  0  0  0
   36.3240   27.7760   37.9650 C   0  0  0  0  0  0  0  0  0  0  0  0
   37.2930   28.7640   37.9380 C   0  0  0  0  0  0  0  0  0  0  0  0
   38.0370   29.1650   39.0250 C   0  0  0  0  0  0  0  0  0  0  0  0
   37.7860   28.5280   40.2050 N   0  0  0  0  0  0  0  0  0  0  0  0
   35.3770   26.3680   39.3490 H   0  0  0  0  0  0  0  0  0  0  0  0
   35.7450   27.4670   37.1070 H   0  0  0  0  0  0  0  0  0  0  0  0
   37.4890   29.2670   37.0010 H   0  0  0  0  0  0  0  0  0  0  0  0
   39.0360   30.2200   38.8850 C   0  0  0  0  0  0  0  0  0  0  0  0
   40.2310   29.8910   38.6600 O   0  0  0  0  0  0  0  0  0  0  0  0
   38.9820   31.6370   38.9450 N   0  0  0  0  0  0  0  0  0  0  0  0
   37.6170   32.1090   39.2110 C   0  0  0  0  0  3  0  0  0  0  0  0
   37.0840   32.3200   38.2530 H   0  0  0  0  0  0  0  0  0  0  0  0
   37.7740   33.4520   39.9300 C   0  0  0  0  0  3  0  0  0  0  0  0
   37.8570   34.2880   39.2280 H   0  0  0  0  0  0  0  0  0  0  0  0
   38.8200   33.3860   40.8370 O   0  0  0  0  0  0  0  0  0  0  0  0
   40.0630   33.3580   40.1960 C   0  0  0  0  0  2  0  0  0  0  0  0
   39.9160   32.7670   38.8120 C   0  0  0  0  0  2  0  0  0  0  0  0
  1  2  1  0  0  0  0
  1  7  1  1  0  0  0
  2  9  1  0  0  0  0
  2  3  1  0  0  0  0
  3 11  1  0  0  0  0
  3 10  1  0  0  0  0
  4  3  1  0  0  0  0
  4 13  1  0  0  0  0
  5 15  1  0  0  0  0
  5  4  1  0  0  0  0
  6 16  1  1  0  0  0
  6  1  1  0  0  0  0
  6  5  1  0  0  0  0
  8  2  1  0  0  0  0
 12  4  1  0  0  0  0
 14  5  1  0  0  0  0
 17 18  1  0  0  0  0
 18 19  2  0  0  0  0
 18 24  1  0  0  0  0
 19  1  1  0  0  0  0
 20 19  1  0  0  0  0
 21 20  2  0  0  0  0
 22 21  1  0  0  0  0
 22 17  2  0  0  0  0
 23 17  1  0  0  0  0
 25 21  1  0  0  0  0
 26  6  1  0  0  0  0
 27 32  1  0  0  0  0
 27 26  2  0  0  0  0
 28 27  1  0  0  0  0
 29 28  2  0  0  0  0
 29 30  1  0  0  0  0
 30 31  2  0  0  0  0
 31 26  1  0  0  0  0
 33 28  1  0  0  0  0
 34 29  1  0  0  0  0
 35 37  1  0  0  0  0
 35 30  1  0  0  0  0
 36 35  2  0  0  0  0
 37 38  1  0  0  0  0
 38 40  1  0  0  0  0
 39 38  1  0  0  0  0
 40 42  1  0  0  0  0
 41 40  1  0  0  0  0
 43 42  1  0  0  0  0
 44 37  1  0  0  0  0
 44 43  1  0  0  0  0
M  END
>  <minimizedAffinity>
-5.76788092

$$$$

 OpenBabel03242516553D

 44 47  0  0  1  0  0  0  0  0999 V2000
   37.3360   30.4750   38.7030 C   0  0  1  0  0  0  0  0  0  0  0  0
   36.7780   29.1590   38.3870 C   0  0  0  0  0  0  0  0  0  0  0  0
   35.2710   29.2670   38.6100 C   0  0  0  0  0  0  0  0  0  0  0  0
   35.0650   29.3880   40.0960 C   0  0  0  0  0  0  0  0  0  0  0  0
   35.8320   30.5110   40.7340 C   0  0  0  0  0  0  0  0  0  0  0  0
   37.1600   30.8370   40.1830 C   0  0  1  0  0  0  0  0  0  0  0  0
   36.7030   31.2640   38.1910 H   0  0  0  0  0  0  0  0  0  0  0  0
   37.1010   28.3370   39.0640 H   0  0  0  0  0  0  0  0  0  0  0  0
   36.9940   28.8870   37.3520 H   0  0  0  0  0  0  0  0  0  0  0  0
   34.8200   30.1100   38.0580 H   0  0  0  0  0  0  0  0  0  0  0  0
   34.8630   28.2830   38.2990 H   0  0  0  0  0  0  0  0  0  0  0  0
   35.3510   28.4110   40.5450 H   0  0  0  0  0  0  0  0  0  0  0  0
   33.9940   29.5130   40.3080 H   0  0  0  0  0  0  0  0  0  0  0  0
   35.9520   30.2340   41.8110 H   0  0  0  0  0  0  0  0  0  0  0  0
   35.1560   31.3960   40.7580 H   0  0  0  0  0  0  0  0  0  0  0  0
   37.2940   31.9510   40.2160 H   0  0  0  0  0  0  0  0  0  0  0  0
   40.9240   29.8080   37.7270 C   0  0  0  0  0  0  0  0  0  0  0  0
   39.5840   29.6520   38.0990 C   0  0  0  0  0  0  0  0  0  0  0  0
   38.7090   30.7190   38.3130 C   0  0  0  0  0  0  0  0  0  0  0  0
   39.2300   31.9350   38.1410 N   0  0  0  0  0  0  0  0  0  0  0  0
   40.5310   32.1010   37.7800 C   0  0  0  0  0  0  0  0  0  0  0  0
   41.3660   31.0720   37.5750 N   0  0  0  0  0  0  0  0  0  0  0  0
   41.5430   28.9380   37.5780 H   0  0  0  0  0  0  0  0  0  0  0  0
   39.1720   28.6560   38.2370 H   0  0  0  0  0  0  0  0  0  0  0  0
   40.9350   33.0950   37.6450 H   0  0  0  0  0  0  0  0  0  0  0  0
   38.2510   30.3100   41.0000 C   0  0  0  0  0  0  0  0  0  0  0  0
   39.3730   31.0300   41.4260 C   0  0  0  0  0  0  0  0  0  0  0  0
   40.2870   30.3350   42.2150 C   0  0  0  0  0  0  0  0  0  0  0  0
   40.0150   29.0100   42.5080 C   0  0  0  0  0  0  0  0  0  0  0  0
   38.9030   28.3230   42.0770 C   0  0  0  0  0  0  0  0  0  0  0  0
   38.0180   29.0170   41.3050 N   0  0  0  0  0  0  0  0  0  0  0  0
   39.4470   32.0370   41.1230 H   0  0  0  0  0  0  0  0  0  0  0  0
   41.1630   30.8670   42.5580 H   0  0  0  0  0  0  0  0  0  0  0  0
   40.7190   28.4630   43.1200 H   0  0  0  0  0  0  0  0  0  0  0  0
   38.7140   26.9220   42.4450 C   0  0  0  0  0  0  0  0  0  0  0  0
   39.3310   26.4760   43.4480 O   0  0  0  0  0  0  0  0  0  0  0  0
   37.9420   25.8610   41.9030 N   0  0  0  0  0  0  0  0  0  0  0  0
   37.1910   26.2960   40.7190 C   0  0  0  0  0  3  0  0  0  0  0  0
   36.1680   26.6370   41.0100 H   0  0  0  0  0  0  0  0  0  0  0  0
   37.0080   25.0430   39.8590 C   0  0  0  0  0  3  0  0  0  0  0  0
   36.1120   24.4780   40.1390 H   0  0  0  0  0  0  0  0  0  0  0  0
   38.1670   24.2830   39.8720 O   0  0  0  0  0  0  0  0  0  0  0  0
   38.3600   23.6510   41.1050 C   0  0  0  0  0  2  0  0  0  0  0  0
   37.6840   24.4430   42.2020 C   0  0  0  0  0  2  0  0  0  0  0  0
  1  7  1  6  0  0  0
  1  6  1  0  0  0  0
  2  3  1  0  0  0  0
  2  1  1  0  0  0  0
  2  8  1  0  0  0  0
  3  4  1  0  0  0  0
  4 13  1  0  0  0  0
  4 12  1  0  0  0  0
  4  5  1  0  0  0  0
  5 15  1  0  0  0  0
  5 14  1  0  0  0  0
  6 16  1  1  0  0  0
  6  5  1  0  0  0  0
  6 26  1  0  0  0  0
  9  2  1  0  0  0  0
 10  3  1  0  0  0  0
 11  3  1  0  0  0  0
 17 18  1  0  0  0  0
 18 24  1  0  0  0  0
 18 19  2  0  0  0  0
 19  1  1  0  0  0  0
 20 19  1  0  0  0  0
 21 20  2  0  0  0  0
 22 17  2  0  0  0  0
 22 21  1  0  0  0  0
 23 17  1  0  0  0  0
 25 21  1  0  0  0  0
 26 31  2  0  0  0  0
 26 27  1  0  0  0  0
 27 28  2  0  0  0  0
 28 29  1  0  0  0  0
 28 33  1  0  0  0  0
 29 34  1  0  0  0  0
 30 35  1  0  0  0  0
 30 29  2  0  0  0  0
 31 30  1  0  0  0  0
 32 27  1  0  0  0  0
 35 36  2  0  0  0  0
 37 44  1  0  0  0  0
 37 35  1  0  0  0  0
 38 39  1  0  0  0  0
 38 37  1  0  0  0  0
 40 42  1  0  0  0  0
 40 41  1  0  0  0  0
 40 38  1  0  0  0  0
 42 43  1  0  0  0  0
 43 44  1  0  0  0  0
M  END
>  <minimizedAffinity>
-5.74743271

$$$$

 OpenBabel03242516553D

 44 47  0  0  1  0  0  0  0  0999 V2000
   37.1430   28.1420   40.7550 C   0  0  1  0  0  0  0  0  0  0  0  0
   38.4580   27.5010   40.7310 C   0  0  0  0  0  0  0  0  0  0  0  0
   38.6870   26.9380   42.1320 C   0  0  0  0  0  0  0  0  0  0  0  0
   38.8900   28.1210   43.0410 C   0  0  0  0  0  0  0  0  0  0  0  0
   37.7800   29.1320   42.9910 C   0  0  0  0  0  0  0  0  0  0  0  0
   37.1060   29.3500   41.6980 C   0  0  1  0  0  0  0  0  0  0  0  0
   36.4080   27.4340   41.2500 H   0  0  0  0  0  0  0  0  0  0  0  0
   39.3140   28.1920   40.5650 H   0  0  0  0  0  0  0  0  0  0  0  0
   38.4840   26.7010   39.9880 H   0  0  0  0  0  0  0  0  0  0  0  0
   37.8590   26.2920   42.4700 H   0  0  0  0  0  0  0  0  0  0  0  0
   39.6550   26.3990   42.0710 H   0  0  0  0  0  0  0  0  0  0  0  0
   39.8590   28.5870   42.7580 H   0  0  0  0  0  0  0  0  0  0  0  0
   39.0150   27.7710   44.0750 H   0  0  0  0  0  0  0  0  0  0  0  0
   38.2250   30.1010   43.3280 H   0  0  0  0  0  0  0  0  0  0  0  0
   37.0620   28.8700   43.8030 H   0  0  0  0  0  0  0  0  0  0  0  0
   36.0130   29.5200   41.8920 H   0  0  0  0  0  0  0  0  0  0  0  0
   34.5580   28.9810   38.1310 C   0  0  0  0  0  0  0  0  0  0  0  0
   35.1850   28.6300   39.3320 C   0  0  0  0  0  0  0  0  0  0  0  0
   36.5690   28.5160   39.4790 C   0  0  0  0  0  0  0  0  0  0  0  0
   37.2880   28.7660   38.3840 N   0  0  0  0  0  0  0  0  0  0  0  0
   36.6900   29.1080   37.2090 C   0  0  0  0  0  0  0  0  0  0  0  0
   35.3610   29.2160   37.0750 N   0  0  0  0  0  0  0  0  0  0  0  0
   33.4820   29.0500   38.0900 H   0  0  0  0  0  0  0  0  0  0  0  0
   34.5880   28.4280   40.2160 H   0  0  0  0  0  0  0  0  0  0  0  0
   37.2910   29.3070   36.3320 H   0  0  0  0  0  0  0  0  0  0  0  0
   37.5560   30.5700   41.0300 C   0  0  0  0  0  0  0  0  0  0  0  0
   36.7280   31.5950   40.5580 C   0  0  0  0  0  0  0  0  0  0  0  0
   37.3690   32.6800   39.9650 C   0  0  0  0  0  0  0  0  0  0  0  0
   38.7520   32.6560   39.8930 C   0  0  0  0  0  0  0  0  0  0  0  0
   39.5450   31.6350   40.3650 C   0  0  0  0  0  0  0  0  0  0  0  0
   38.9020   30.5790   40.9420 N   0  0  0  0  0  0  0  0  0  0  0  0
   35.6880   31.4750   40.6830 H   0  0  0  0  0  0  0  0  0  0  0  0
   36.7540   33.4860   39.5920 H   0  0  0  0  0  0  0  0  0  0  0  0
   39.2580   33.4940   39.4340 H   0  0  0  0  0  0  0  0  0  0  0  0
   40.9980   31.7110   40.2360 C   0  0  0  0  0  0  0  0  0  0  0  0
   41.6570   32.2340   41.1730 O   0  0  0  0  0  0  0  0  0  0  0  0
   41.9160   31.3050   39.2330 N   0  0  0  0  0  0  0  0  0  0  0  0
   41.2260   30.6860   38.0950 C   0  0  0  0  0  3  0  0  0  0  0  0
   41.1740   29.5790   38.2260 H   0  0  0  0  0  0  0  0  0  0  0  0
   42.1190   30.9430   36.8780 C   0  0  0  0  0  3  0  0  0  0  0  0
   42.8810   30.1660   36.7540 H   0  0  0  0  0  0  0  0  0  0  0  0
   42.6420   32.2250   36.9330 O   0  0  0  0  0  0  0  0  0  0  0  0
   43.6200   32.3460   37.9260 C   0  0  0  0  0  2  0  0  0  0  0  0
   43.3730   31.3310   39.0190 C   0  0  0  0  0  2  0  0  0  0  0  0
  1  7  1  1  0  0  0
  1  6  1  0  0  0  0
  2  1  1  0  0  0  0
  2  3  1  0  0  0  0
  3 10  1  0  0  0  0
  3  4  1  0  0  0  0
  4 13  1  0  0  0  0
  5  4  1  0  0  0  0
  5 14  1  0  0  0  0
  5 15  1  0  0  0  0
  6 16  1  1  0  0  0
  6  5  1  0  0  0  0
  8  2  1  0  0  0  0
  9  2  1  0  0  0  0
 11  3  1  0  0  0  0
 12  4  1  0  0  0  0
 17 18  1  0  0  0  0
 18 19  2  0  0  0  0
 18 24  1  0  0  0  0
 19  1  1  0  0  0  0
 20 19  1  0  0  0  0
 21 20  2  0  0  0  0
 22 21  1  0  0  0  0
 22 17  2  0  0  0  0
 23 17  1  0  0  0  0
 25 21  1  0  0  0  0
 26  6  1  0  0  0  0
 27 32  1  0  0  0  0
 27 26  2  0  0  0  0
 28 27  1  0  0  0  0
 29 28  2  0  0  0  0
 29 30  1  0  0  0  0
 30 31  2  0  0  0  0
 31 26  1  0  0  0  0
 33 28  1  0  0  0  0
 34 29  1  0  0  0  0
 35 30  1  0  0  0  0
 35 36  2  0  0  0  0
 37 35  1  0  0  0  0
 38 39  1  0  0  0  0
 38 37  1  0  0  0  0
 40 42  1  0  0  0  0
 40 38  1  0  0  0  0
 41 40  1  0  0  0  0
 42 43  1  0  0  0  0
 43 44  1  0  0  0  0
 44 37  1  0  0  0  0
M  END
>  <minimizedAffinity>
-5.64727259

$$$$

 OpenBabel03242516553D

 44 47  0  0  1  0  0  0  0  0999 V2000
   36.5200   30.7090   38.9810 C   0  0  1  0  0  0  0  0  0  0  0  0
   36.6900   29.8000   37.8480 C   0  0  0  0  0  0  0  0  0  0  0  0
   35.2860   29.3710   37.4280 C   0  0  0  0  0  0  0  0  0  0  0  0
   34.7670   28.4750   38.5210 C   0  0  0  0  0  0  0  0  0  0  0  0
   34.8050   29.0910   39.8900 C   0  0  0  0  0  0  0  0  0  0  0  0
   35.9200   30.0040   40.2030 C   0  0  1  0  0  0  0  0  0  0  0  0
   35.7100   31.4590   38.7220 H   0  0  0  0  0  0  0  0  0  0  0  0
   37.2130   28.8470   38.0830 H   0  0  0  0  0  0  0  0  0  0  0  0
   37.1990   30.3030   37.0230 H   0  0  0  0  0  0  0  0  0  0  0  0
   34.6180   30.2290   37.2420 H   0  0  0  0  0  0  0  0  0  0  0  0
   35.4350   28.7400   36.5270 H   0  0  0  0  0  0  0  0  0  0  0  0
   35.3720   27.5420   38.4920 H   0  0  0  0  0  0  0  0  0  0  0  0
   33.7360   28.1720   38.2880 H   0  0  0  0  0  0  0  0  0  0  0  0
   34.8280   28.2400   40.6150 H   0  0  0  0  0  0  0  0  0  0  0  0
   33.8110   29.5640   40.0640 H   0  0  0  0  0  0  0  0  0  0  0  0
   35.5260   30.8390   40.8430 H   0  0  0  0  0  0  0  0  0  0  0  0
   38.5990   33.4810   40.4890 C   0  0  0  0  0  0  0  0  0  0  0  0
   37.5270   32.6860   40.0650 C   0  0  0  0  0  0  0  0  0  0  0  0
   37.6800   31.4710   39.3940 C   0  0  0  0  0  0  0  0  0  0  0  0
   38.9390   31.0910   39.1700 N   0  0  0  0  0  0  0  0  0  0  0  0
   39.9910   31.8540   39.5770 C   0  0  0  0  0  0  0  0  0  0  0  0
   39.8360   33.0200   40.2210 N   0  0  0  0  0  0  0  0  0  0  0  0
   38.4060   34.4090   41.0020 H   0  0  0  0  0  0  0  0  0  0  0  0
   36.5070   33.0070   40.2530 H   0  0  0  0  0  0  0  0  0  0  0  0
   41.0040   31.5290   39.3850 H   0  0  0  0  0  0  0  0  0  0  0  0
   36.9520   29.3680   41.0200 C   0  0  0  0  0  0  0  0  0  0  0  0
   37.4100   29.8290   42.2590 C   0  0  0  0  0  0  0  0  0  0  0  0
   38.3930   29.0580   42.8780 C   0  0  0  0  0  0  0  0  0  0  0  0
   38.8280   27.9170   42.2260 C   0  0  0  0  0  0  0  0  0  0  0  0
   38.3600   27.4840   41.0050 C   0  0  0  0  0  0  0  0  0  0  0  0
   37.4000   28.2500   40.4120 N   0  0  0  0  0  0  0  0  0  0  0  0
   36.9850   30.7180   42.6350 H   0  0  0  0  0  0  0  0  0  0  0  0
   38.7650   29.3910   43.8360 H   0  0  0  0  0  0  0  0  0  0  0  0
   39.5900   27.3130   42.6980 H   0  0  0  0  0  0  0  0  0  0  0  0
   38.8910   26.2630   40.4040 C   0  0  0  0  0  0  0  0  0  0  0  0
   38.4240   25.1560   40.7820 O   0  0  0  0  0  0  0  0  0  0  0  0
   39.8810   26.0030   39.4220 N   0  0  0  0  0  0  0  0  0  0  0  0
   40.4840   27.2480   38.9290 C   0  0  0  0  0  3  0  0  0  0  0  0
   39.9480   27.6070   38.0180 H   0  0  0  0  0  0  0  0  0  0  0  0
   41.9010   26.8750   38.4840 C   0  0  0  0  0  3  0  0  0  0  0  0
   41.9300   26.5260   37.4460 H   0  0  0  0  0  0  0  0  0  0  0  0
   42.4620   25.9810   39.3820 O   0  0  0  0  0  0  0  0  0  0  0  0
   41.8830   24.7110   39.2830 C   0  0  0  0  0  2  0  0  0  0  0  0
   40.4700   24.8300   38.7560 C   0  0  0  0  0  2  0  0  0  0  0  0
  1  7  1  6  0  0  0
  1 19  1  0  0  0  0
  1  6  1  0  0  0  0
  2  8  1  0  0  0  0
  2  1  1  0  0  0  0
  3  2  1  0  0  0  0
  3  4  1  0  0  0  0
  4  5  1  0  0  0  0
  5 15  1  0  0  0  0
  5  6  1  0  0  0  0
  5 14  1  0  0  0  0
  6 16  1  1  0  0  0
  6 26  1  0  0  0  0
  9  2  1  0  0  0  0
 10  3  1  0  0  0  0
 11  3  1  0  0  0  0
 12  4  1  0  0  0  0
 13  4  1  0  0  0  0
 17 23  1  0  0  0  0
 18 24  1  0  0  0  0
 18 17  2  0  0  0  0
 19 18  1  0  0  0  0
 20 19  2  0  0  0  0
 20 21  1  0  0  0  0
 21 22  2  0  0  0  0
 22 17  1  0  0  0  0
 25 21  1  0  0  0  0
 26 27  1  0  0  0  0
 27 32  1  0  0  0  0
 27 28  2  0  0  0  0
 28 33  1  0  0  0  0
 29 34  1  0  0  0  0
 29 28  1  0  0  0  0
 30 29  2  0  0  0  0
 31 30  1  0  0  0  0
 31 26  2  0  0  0  0
 35 36  2  0  0  0  0
 35 30  1  0  0  0  0
 37 35  1  0  0  0  0
 38 37  1  0  0  0  0
 39 38  1  0  0  0  0
 40 38  1  0  0  0  0
 40 42  1  0  0  0  0
 41 40  1  0  0  0  0
 43 42  1  0  0  0  0
 44 43  1  0  0  0  0
 44 37  1  0  0  0  0
M  END
>  <minimizedAffinity>
-5.61076117

$$$$
