
 OpenBabel03242516523D

 44 47  0  0  1  0  0  0  0  0999 V2000
   47.8740   32.9430   41.8120 C   0  0  1  0  0  0  0  0  0  0  0  0
   47.5580   32.2080   40.5870 C   0  0  0  0  0  0  0  0  0  0  0  0
   48.5770   32.6590   39.5420 C   0  0  0  0  0  0  0  0  0  0  0  0
   48.2340   34.0830   39.1950 C   0  0  0  0  0  0  0  0  0  0  0  0
   48.1650   35.0050   40.3790 C   0  0  0  0  0  0  0  0  0  0  0  0
   47.6640   34.4530   41.6520 C   0  0  1  0  0  0  0  0  0  0  0  0
   48.9920   32.8800   41.9900 H   0  0  0  0  0  0  0  0  0  0  0  0
   46.5710   32.4500   40.1350 H   0  0  0  0  0  0  0  0  0  0  0  0
   47.6310   31.1320   40.7530 H   0  0  0  0  0  0  0  0  0  0  0  0
   49.6180   32.5560   39.8930 H   0  0  0  0  0  0  0  0  0  0  0  0
   48.3620   32.0410   38.6460 H   0  0  0  0  0  0  0  0  0  0  0  0
   47.2610   34.0620   38.6560 H   0  0  0  0  0  0  0  0  0  0  0  0
   48.9680   34.4720   38.4750 H   0  0  0  0  0  0  0  0  0  0  0  0
   47.5050   35.8550   40.0760 H   0  0  0  0  0  0  0  0  0  0  0  0
   49.1710   35.4720   40.4900 H   0  0  0  0  0  0  0  0  0  0  0  0
   48.2520   34.9090   42.4930 H   0  0  0  0  0  0  0  0  0  0  0  0
   45.5240   31.0870   44.1160 C   0  0  0  0  0  0  0  0  0  0  0  0
   46.1980   31.5600   42.9840 C   0  0  0  0  0  0  0  0  0  0  0  0
   47.2300   32.5000   43.0310 C   0  0  0  0  0  0  0  0  0  0  0  0
   47.5520   32.9410   44.2480 N   0  0  0  0  0  0  0  0  0  0  0  0
   46.9050   32.4900   45.3570 C   0  0  0  0  0  0  0  0  0  0  0  0
   45.9160   31.5880   45.3050 N   0  0  0  0  0  0  0  0  0  0  0  0
   44.7360   30.3600   44.0050 H   0  0  0  0  0  0  0  0  0  0  0  0
   45.9250   31.1920   41.9990 H   0  0  0  0  0  0  0  0  0  0  0  0
   47.1810   32.8610   46.3350 H   0  0  0  0  0  0  0  0  0  0  0  0
   46.2780   34.8360   41.9210 C   0  0  0  0  0  0  0  0  0  0  0  0
   45.8340   35.5660   43.0290 C   0  0  0  0  0  0  0  0  0  0  0  0
   44.4680   35.8370   43.0810 C   0  0  0  0  0  0  0  0  0  0  0  0
   43.6750   35.3680   42.0480 C   0  0  0  0  0  0  0  0  0  0  0  0
   44.1360   34.6510   40.9670 C   0  0  0  0  0  0  0  0  0  0  0  0
   45.4760   34.3940   40.9310 N   0  0  0  0  0  0  0  0  0  0  0  0
   46.5560   35.8570   43.7400 H   0  0  0  0  0  0  0  0  0  0  0  0
   44.0980   36.3990   43.9260 H   0  0  0  0  0  0  0  0  0  0  0  0
   42.6140   35.5730   42.0800 H   0  0  0  0  0  0  0  0  0  0  0  0
   43.2100   34.2030   39.9300 C   0  0  0  0  0  0  0  0  0  0  0  0
   42.6360   35.0710   39.2210 O   0  0  0  0  0  0  0  0  0  0  0  0
   42.7660   32.9260   39.4960 N   0  0  0  0  0  0  0  0  0  0  0  0
   41.5710   33.0370   38.6520 C   0  0  0  0  0  3  0  0  0  0  0  0
   40.6450   32.9370   39.2690 H   0  0  0  0  0  0  0  0  0  0  0  0
   41.6080   31.8220   37.7200 C   0  0  0  0  0  3  0  0  0  0  0  0
   41.1300   30.9430   38.1690 H   0  0  0  0  0  0  0  0  0  0  0  0
   42.9070   31.5870   37.2960 O   0  0  0  0  0  0  0  0  0  0  0  0
   43.7050   31.0730   38.3220 C   0  0  0  0  0  2  0  0  0  0  0  0
   43.1680   31.5200   39.6640 C   0  0  0  0  0  2  0  0  0  0  0  0
  1  7  1  1  0  0  0
  1 19  1  0  0  0  0
  2  9  1  0  0  0  0
  2  1  1  0  0  0  0
  3 10  1  0  0  0  0
  3  2  1  0  0  0  0
  4  3  1  0  0  0  0
  4  5  1  0  0  0  0
  5 15  1  0  0  0  0
  5  6  1  0  0  0  0
  6  1  1  0  0  0  0
  6 26  1  0  0  0  0
  6 16  1  1  0  0  0
  8  2  1  0  0  0  0
 11  3  1  0  0  0  0
 12  4  1  0  0  0  0
 13  4  1  0  0  0  0
 14  5  1  0  0  0  0
 17 22  1  0  0  0  0
 18 19  1  0  0  0  0
 18 17  2  0  0  0  0
 19 20  2  0  0  0  0
 20 21  1  0  0  0  0
 21 25  1  0  0  0  0
 22 21  2  0  0  0  0
 23 17  1  0  0  0  0
 24 18  1  0  0  0  0
 26 27  1  0  0  0  0
 27 28  2  0  0  0  0
 27 32  1  0  0  0  0
 28 33  1  0  0  0  0
 29 34  1  0  0  0  0
 29 28  1  0  0  0  0
 30 29  2  0  0  0  0
 31 30  1  0  0  0  0
 31 26  2  0  0  0  0
 35 30  1  0  0  0  0
 36 35  2  0  0  0  0
 37 44  1  0  0  0  0
 37 35  1  0  0  0  0
 38 39  1  0  0  0  0
 38 37  1  0  0  0  0
 40 41  1  0  0  0  0
 40 38  1  0  0  0  0
 42 40  1  0  0  0  0
 42 43  1  0  0  0  0
 43 44  1  0  0  0  0
M  END
>  <minimizedAffinity>
-5.64614725

>  <minimizedRMSD>
0.470351547

$$$$
