
 OpenBabel03242510223D

 37 40  0  0  1  0  0  0  0  0999 V2000
   48.0380   33.2390   43.1380 N   0  0  0  0  0  0  0  0  0  0  0  0
   49.2240   33.3150   42.4110 C   0  0  0  0  0  0  0  0  0  0  0  0
   50.3890   32.9450   42.7020 O   0  0  0  0  0  0  0  0  0  0  0  0
   47.4750   34.1190   43.0520 H   0  0  0  0  0  0  0  0  0  0  0  0
   46.3050   32.1040   44.4790 C   0  0  1  0  0  0  0  0  0  0  0  0
   46.4280   31.3600   43.2960 C   0  0  0  0  0  0  0  0  0  0  0  0
   47.6650   32.1000   43.8970 C   0  0  1  0  0  0  0  0  0  0  0  0
   46.1730   31.6520   45.4760 H   0  0  0  0  0  0  0  0  0  0  0  0
   46.5120   30.2330   43.3820 H   0  0  0  0  0  0  0  0  0  0  0  0
   46.1640   31.6250   42.2550 H   0  0  0  0  0  0  0  0  0  0  0  0
   48.4410   31.3980   44.2490 H   0  0  0  0  0  0  0  0  0  0  0  0
   45.0580   33.9830   43.1680 C   0  0  0  0  0  0  0  0  0  0  0  0
   45.5510   33.4440   44.4030 C   0  0  0  0  0  0  0  0  0  0  0  0
   45.3500   34.1870   45.5480 C   0  0  0  0  0  0  0  0  0  0  0  0
   44.7070   35.3700   45.4590 N   0  0  0  0  0  0  0  0  0  0  0  0
   44.2470   35.8700   44.2810 C   0  0  0  0  0  0  0  0  0  0  0  0
   44.4340   35.1420   43.1040 N   0  0  0  0  0  0  0  0  0  0  0  0
   45.2070   33.3850   42.2980 H   0  0  0  0  0  0  0  0  0  0  0  0
   45.7060   33.8130   46.4990 H   0  0  0  0  0  0  0  0  0  0  0  0
   43.7460   36.8290   44.3260 H   0  0  0  0  0  0  0  0  0  0  0  0
   49.2010   33.9280   41.0230 C   0  0  2  0  0  0  0  0  0  0  0  0
   48.6350   35.3930   40.9160 C   0  0  0  0  0  0  0  0  0  0  0  0
   47.9400   34.2110   40.3320 C   0  0  1  0  0  0  0  0  0  0  0  0
   50.1300   33.8570   40.4220 H   0  0  0  0  0  0  0  0  0  0  0  0
   49.1800   36.1050   40.2990 H   0  0  0  0  0  0  0  0  0  0  0  0
   48.2510   35.7500   41.9090 H   0  0  0  0  0  0  0  0  0  0  0  0
   47.0050   33.8200   40.7700 H   0  0  0  0  0  0  0  0  0  0  0  0
   47.9220   34.0810   38.8260 C   0  0  0  0  0  0  0  0  0  0  0  0
   48.5560   34.8750   38.1390 O   0  0  0  0  0  0  0  0  0  0  0  0
   47.1610   33.0280   38.1800 N   0  0  0  0  0  0  0  0  0  0  0  0
   47.9230   32.1050   37.3540 C   0  0  0  0  0  3  0  0  0  0  0  0
   48.5310   31.3960   37.9150 H   0  0  0  0  0  0  0  0  0  0  0  0
   46.9630   31.4540   36.3930 C   0  0  0  0  0  3  0  0  0  0  0  0
   47.3770   30.5100   35.9780 H   0  0  0  0  0  0  0  0  0  0  0  0
   45.7430   31.1110   36.9710 O   0  0  0  0  0  0  0  0  0  0  0  0
   45.0280   32.2570   37.3310 C   0  0  0  0  0  2  0  0  0  0  0  0
   45.7320   32.9970   38.4210 C   0  0  0  0  0  2  0  0  0  0  0  0
  1  7  1  0  0  0  0
  2  3  2  0  0  0  0
  2  1  1  0  0  0  0
  4  1  1  0  0  0  0
  5  8  1  1  0  0  0
  6  9  1  0  0  0  0
  6  7  1  0  0  0  0
  6  5  1  0  0  0  0
  7 11  1  1  0  0  0
  7  5  1  0  0  0  0
 10  6  1  0  0  0  0
 12 13  1  0  0  0  0
 13  5  1  0  0  0  0
 13 14  2  0  0  0  0
 14 19  1  0  0  0  0
 15 14  1  0  0  0  0
 16 20  1  0  0  0  0
 16 15  2  0  0  0  0
 17 12  2  0  0  0  0
 17 16  1  0  0  0  0
 18 12  1  0  0  0  0
 21 24  1  6  0  0  0
 21  2  1  0  0  0  0
 22 21  1  0  0  0  0
 22 26  1  0  0  0  0
 23 27  1  1  0  0  0
 23 22  1  0  0  0  0
 23 21  1  0  0  0  0
 25 22  1  0  0  0  0
 28 23  1  0  0  0  0
 29 28  2  0  0  0  0
 30 37  1  0  0  0  0
 30 28  1  0  0  0  0
 31 32  1  0  0  0  0
 31 30  1  0  0  0  0
 33 35  1  0  0  0  0
 33 31  1  0  0  0  0
 34 33  1  0  0  0  0
 35 36  1  0  0  0  0
 36 37  1  0  0  0  0
M  END
>  <minimizedAffinity>
-4.98262119

>  <minimizedRMSD>
0.422341913

$$$$
