
 OpenBabel03242515013D

 36 38  0  0  0  0  0  0  0  0999 V2000
   43.6950   34.7960   40.8990 S   0  0  0  0  0  0  0  0  0  0  0  0
   44.9440   34.5050   42.1530 C   0  0  0  0  0  0  0  0  0  0  0  0
   46.2700   34.4000   41.7020 C   0  0  0  0  0  0  0  0  0  0  0  0
   47.2770   34.1740   42.6390 C   0  0  0  0  0  0  0  0  0  0  0  0
   46.9140   34.0670   43.9350 N   0  0  0  0  0  0  0  0  0  0  0  0
   45.6470   34.1680   44.3660 C   0  0  0  0  0  0  0  0  0  0  0  0
   44.6800   34.3860   43.4570 N   0  0  0  0  0  0  0  0  0  0  0  0
   46.5830   34.4820   40.6690 H   0  0  0  0  0  0  0  0  0  0  0  0
   48.3060   34.0890   42.3180 H   0  0  0  0  0  0  0  0  0  0  0  0
   45.3630   34.0390   45.7770 C   0  0  0  0  0  0  0  0  0  0  0  0
   44.5680   34.8500   46.3090 O   0  0  0  0  0  0  0  0  0  0  0  0
   45.9050   33.0590   46.6540 N   0  0  0  0  0  0  0  0  0  0  0  0
   45.0790   32.6490   47.7740 C   0  0  0  0  0  3  0  0  0  0  0  0
   44.0690   33.0490   47.7200 H   0  0  0  0  0  0  0  0  0  0  0  0
   44.9720   31.1250   47.6800 C   0  0  0  0  0  3  0  0  0  0  0  0
   44.5670   30.7870   48.6570 H   0  0  0  0  0  0  0  0  0  0  0  0
   46.1950   30.5190   47.5290 O   0  0  0  0  0  0  0  0  0  0  0  0
   46.9150   30.9270   46.4350 C   0  0  0  0  0  2  0  0  0  0  0  0
   47.2060   32.4300   46.5360 C   0  0  0  0  0  2  0  0  0  0  0  0
   42.0550   34.9790   41.5930 C   0  0  0  0  0  0  0  0  0  0  0  0
   41.5390   33.9750   41.6060 H   0  0  0  0  0  0  0  0  0  0  0  0
   42.0800   35.2990   42.6720 H   0  0  0  0  0  0  0  0  0  0  0  0
   41.1800   35.9270   40.8430 C   0  0  0  0  0  0  0  0  0  0  0  0
   40.5230   36.4940   41.5620 H   0  0  0  0  0  0  0  0  0  0  0  0
   41.7610   36.6900   40.2870 H   0  0  0  0  0  0  0  0  0  0  0  0
   42.0190   36.1290   37.9220 Cl  0  0  0  0  0  0  0  0  0  0  0  0
   40.6320   35.2560   38.4850 C   0  0  0  0  0  0  0  0  0  0  0  0
   40.3350   35.2280   39.8540 C   0  0  0  0  0  0  0  0  0  0  0  0
   39.2150   34.5130   40.2190 C   0  0  0  0  0  0  0  0  0  0  0  0
   38.3570   33.8220   39.3760 C   0  0  0  0  0  0  0  0  0  0  0  0
   38.6760   33.8690   38.0260 C   0  0  0  0  0  0  0  0  0  0  0  0
   37.6390   33.0200   36.8840 Cl  0  0  0  0  0  0  0  0  0  0  0  0
   39.7850   34.5700   37.6080 C   0  0  0  0  0  0  0  0  0  0  0  0
   38.9780   34.4850   41.2810 H   0  0  0  0  0  0  0  0  0  0  0  0
   37.5050   33.2950   39.7830 H   0  0  0  0  0  0  0  0  0  0  0  0
   40.0080   34.5880   36.5420 H   0  0  0  0  0  0  0  0  0  0  0  0
  1 20  1  0  0  0  0
  1  2  1  0  0  0  0
  2  7  1  0  0  0  0
  3  2  2  0  0  0  0
  3  4  1  0  0  0  0
  4  5  2  0  0  0  0
  5  6  1  0  0  0  0
  6 10  1  0  0  0  0
  7  6  2  0  0  0  0
  8  3  1  0  0  0  0
  9  4  1  0  0  0  0
 10 11  2  0  0  0  0
 10 12  1  0  0  0  0
 12 13  1  0  0  0  0
 14 13  1  0  0  0  0
 15 13  1  0  0  0  0
 15 16  1  0  0  0  0
 17 15  1  0  0  0  0
 18 19  1  0  0  0  0
 18 17  1  0  0  0  0
 19 12  1  0  0  0  0
 20 21  1  0  0  0  0
 20 22  1  0  0  0  0
 23 24  1  0  0  0  0
 23 20  1  0  0  0  0
 25 23  1  0  0  0  0
 26 27  1  0  0  0  0
 27 28  1  0  0  0  0
 28 29  2  0  0  0  0
 28 23  1  0  0  0  0
 29 34  1  0  0  0  0
 30 35  1  0  0  0  0
 30 29  1  0  0  0  0
 31 30  2  0  0  0  0
 32 31  1  0  0  0  0
 33 31  1  0  0  0  0
 33 27  2  0  0  0  0
 36 33  1  0  0  0  0
M  END
>  <minimizedAffinity>
-6.7742815

>  <minimizedRMSD>
0.277865857

$$$$
