
 OpenBabel03242510223D

 37 40  0  0  1  0  0  0  0  0999 V2000
   48.0410   33.2350   43.1390 N   0  0  0  0  0  0  0  0  0  0  0  0
   49.2290   33.3100   42.4140 C   0  0  0  0  0  0  0  0  0  0  0  0
   50.3920   32.9350   42.7050 O   0  0  0  0  0  0  0  0  0  0  0  0
   47.4810   34.1170   43.0550 H   0  0  0  0  0  0  0  0  0  0  0  0
   46.3030   32.0990   44.4720 C   0  0  1  0  0  0  0  0  0  0  0  0
   46.4280   31.3580   43.2880 C   0  0  0  0  0  0  0  0  0  0  0  0
   47.6640   32.0950   43.8940 C   0  0  1  0  0  0  0  0  0  0  0  0
   46.1670   31.6460   45.4680 H   0  0  0  0  0  0  0  0  0  0  0  0
   46.5090   30.2310   43.3710 H   0  0  0  0  0  0  0  0  0  0  0  0
   46.1660   31.6270   42.2470 H   0  0  0  0  0  0  0  0  0  0  0  0
   48.4380   31.3900   44.2460 H   0  0  0  0  0  0  0  0  0  0  0  0
   45.0600   33.9840   43.1640 C   0  0  0  0  0  0  0  0  0  0  0  0
   45.5520   33.4420   44.3980 C   0  0  0  0  0  0  0  0  0  0  0  0
   45.3510   34.1820   45.5440 C   0  0  0  0  0  0  0  0  0  0  0  0
   44.7110   35.3670   45.4570 N   0  0  0  0  0  0  0  0  0  0  0  0
   44.2520   35.8700   44.2800 C   0  0  0  0  0  0  0  0  0  0  0  0
   44.4390   35.1440   43.1020 N   0  0  0  0  0  0  0  0  0  0  0  0
   45.2100   33.3860   42.2930 H   0  0  0  0  0  0  0  0  0  0  0  0
   45.7050   33.8070   46.4960 H   0  0  0  0  0  0  0  0  0  0  0  0
   43.7540   36.8300   44.3260 H   0  0  0  0  0  0  0  0  0  0  0  0
   49.2090   33.9270   41.0280 C   0  0  2  0  0  0  0  0  0  0  0  0
   48.6080   35.3780   40.9170 C   0  0  0  0  0  0  0  0  0  0  0  0
   47.9500   34.1810   40.3200 C   0  0  1  0  0  0  0  0  0  0  0  0
   50.1470   33.8820   40.4390 H   0  0  0  0  0  0  0  0  0  0  0  0
   49.1420   36.1050   40.3110 H   0  0  0  0  0  0  0  0  0  0  0  0
   48.2010   35.7210   41.9060 H   0  0  0  0  0  0  0  0  0  0  0  0
   47.0200   33.7640   40.7440 H   0  0  0  0  0  0  0  0  0  0  0  0
   47.9570   34.0560   38.8130 C   0  0  0  0  0  0  0  0  0  0  0  0
   48.5440   34.8920   38.1360 O   0  0  0  0  0  0  0  0  0  0  0  0
   47.2720   32.9580   38.1560 N   0  0  0  0  0  0  0  0  0  0  0  0
   45.8220   33.0440   38.1120 C   0  0  0  0  0  3  0  0  0  0  0  0
   45.4350   33.7770   37.4050 H   0  0  0  0  0  0  0  0  0  0  0  0
   45.2900   31.6510   37.8930 C   0  0  0  0  0  3  0  0  0  0  0  0
   44.2480   31.6680   37.5060 H   0  0  0  0  0  0  0  0  0  0  0  0
   46.0240   30.9120   36.9700 O   0  0  0  0  0  0  0  0  0  0  0  0
   47.3030   30.6370   37.4650 C   0  0  0  0  0  2  0  0  0  0  0  0
   48.0950   31.8950   37.6110 C   0  0  0  0  0  2  0  0  0  0  0  0
  1  7  1  0  0  0  0
  2  3  2  0  0  0  0
  2  1  1  0  0  0  0
  4  1  1  0  0  0  0
  5  8  1  1  0  0  0
  6  9  1  0  0  0  0
  6  7  1  0  0  0  0
  6  5  1  0  0  0  0
  7 11  1  1  0  0  0
  7  5  1  0  0  0  0
 10  6  1  0  0  0  0
 12 13  1  0  0  0  0
 13  5  1  0  0  0  0
 13 14  2  0  0  0  0
 14 19  1  0  0  0  0
 15 14  1  0  0  0  0
 16 20  1  0  0  0  0
 16 15  2  0  0  0  0
 17 12  2  0  0  0  0
 17 16  1  0  0  0  0
 18 12  1  0  0  0  0
 21 24  1  6  0  0  0
 21  2  1  0  0  0  0
 22 21  1  0  0  0  0
 22 26  1  0  0  0  0
 23 27  1  1  0  0  0
 23 22  1  0  0  0  0
 23 21  1  0  0  0  0
 25 22  1  0  0  0  0
 28 23  1  0  0  0  0
 29 28  2  0  0  0  0
 30 28  1  0  0  0  0
 31 30  1  0  0  0  0
 32 31  1  0  0  0  0
 33 31  1  0  0  0  0
 34 33  1  0  0  0  0
 35 36  1  0  0  0  0
 35 33  1  0  0  0  0
 36 37  1  0  0  0  0
 37 30  1  0  0  0  0
M  END
>  <minimizedAffinity>
-4.89996004

>  <minimizedRMSD>
0.560806274

$$$$
