
 OpenBabel03242515013D

 36 38  0  0  0  0  0  0  0  0999 V2000
   43.8840   34.7460   40.8230 S   0  0  0  0  0  0  0  0  0  0  0  0
   45.1160   34.4750   42.0970 C   0  0  0  0  0  0  0  0  0  0  0  0
   46.4590   34.5390   41.6930 C   0  0  0  0  0  0  0  0  0  0  0  0
   47.4540   34.3350   42.6480 C   0  0  0  0  0  0  0  0  0  0  0  0
   47.0630   34.0850   43.9160 N   0  0  0  0  0  0  0  0  0  0  0  0
   45.7790   34.0250   44.3030 C   0  0  0  0  0  0  0  0  0  0  0  0
   44.8240   34.2220   43.3770 N   0  0  0  0  0  0  0  0  0  0  0  0
   46.7940   34.7370   40.6830 H   0  0  0  0  0  0  0  0  0  0  0  0
   48.4960   34.3790   42.3620 H   0  0  0  0  0  0  0  0  0  0  0  0
   45.4650   33.7520   45.6860 C   0  0  0  0  0  0  0  0  0  0  0  0
   44.7930   34.5920   46.3310 O   0  0  0  0  0  0  0  0  0  0  0  0
   45.8480   32.5930   46.4190 N   0  0  0  0  0  0  0  0  0  0  0  0
   46.0010   31.3600   45.6710 C   0  0  0  0  0  3  0  0  0  0  0  0
   45.9370   31.5130   44.5940 H   0  0  0  0  0  0  0  0  0  0  0  0
   47.4110   30.8550   45.9790 C   0  0  0  0  0  3  0  0  0  0  0  0
   47.4420   29.8040   45.6230 H   0  0  0  0  0  0  0  0  0  0  0  0
   47.6760   30.8230   47.3260 O   0  0  0  0  0  0  0  0  0  0  0  0
   47.5440   32.0260   47.9730 C   0  0  0  0  0  2  0  0  0  0  0  0
   46.1000   32.5270   47.8460 C   0  0  0  0  0  2  0  0  0  0  0  0
   42.2190   34.8080   41.4780 C   0  0  0  0  0  0  0  0  0  0  0  0
   41.7340   33.7940   41.3670 H   0  0  0  0  0  0  0  0  0  0  0  0
   42.2020   35.0100   42.5850 H   0  0  0  0  0  0  0  0  0  0  0  0
   41.3380   35.8070   40.8060 C   0  0  0  0  0  0  0  0  0  0  0  0
   40.7320   36.3640   41.5750 H   0  0  0  0  0  0  0  0  0  0  0  0
   41.9140   36.5740   40.2510 H   0  0  0  0  0  0  0  0  0  0  0  0
   42.0640   36.0680   37.8600 Cl  0  0  0  0  0  0  0  0  0  0  0  0
   40.6690   35.2280   38.4540 C   0  0  0  0  0  0  0  0  0  0  0  0
   40.4280   35.1690   39.8330 C   0  0  0  0  0  0  0  0  0  0  0  0
   39.2990   34.4820   40.2230 C   0  0  0  0  0  0  0  0  0  0  0  0
   38.3820   33.8490   39.3970 C   0  0  0  0  0  0  0  0  0  0  0  0
   38.6470   33.9260   38.0370 C   0  0  0  0  0  0  0  0  0  0  0  0
   37.5350   33.1490   36.9160 Cl  0  0  0  0  0  0  0  0  0  0  0  0
   39.7630   34.5990   37.5940 C   0  0  0  0  0  0  0  0  0  0  0  0
   39.1040   34.4310   41.2930 H   0  0  0  0  0  0  0  0  0  0  0  0
   37.5290   33.3400   39.8240 H   0  0  0  0  0  0  0  0  0  0  0  0
   39.9430   34.6420   36.5210 H   0  0  0  0  0  0  0  0  0  0  0  0
  1 20  1  0  0  0  0
  1  2  1  0  0  0  0
  2  7  1  0  0  0  0
  3  2  2  0  0  0  0
  3  4  1  0  0  0  0
  4  5  2  0  0  0  0
  5  6  1  0  0  0  0
  6 10  1  0  0  0  0
  7  6  2  0  0  0  0
  8  3  1  0  0  0  0
  9  4  1  0  0  0  0
 10 11  2  0  0  0  0
 10 12  1  0  0  0  0
 12 19  1  0  0  0  0
 13 15  1  0  0  0  0
 13 12  1  0  0  0  0
 14 13  1  0  0  0  0
 15 17  1  0  0  0  0
 16 15  1  0  0  0  0
 17 18  1  0  0  0  0
 19 18  1  0  0  0  0
 20 22  1  0  0  0  0
 21 20  1  0  0  0  0
 23 20  1  0  0  0  0
 23 24  1  0  0  0  0
 25 23  1  0  0  0  0
 26 27  1  0  0  0  0
 27 28  1  0  0  0  0
 28 29  2  0  0  0  0
 28 23  1  0  0  0  0
 29 34  1  0  0  0  0
 30 35  1  0  0  0  0
 30 29  1  0  0  0  0
 31 30  2  0  0  0  0
 32 31  1  0  0  0  0
 33 31  1  0  0  0  0
 33 27  2  0  0  0  0
 36 33  1  0  0  0  0
M  END
>  <minimizedAffinity>
-6.81701374

>  <minimizedRMSD>
0.62150842

$$$$
