
 OpenBabel03252507163D

 28 30  0  0  0  0  0  0  0  0999 V2000
   44.2960   35.6580   43.3480 C   0  0  0  0  0  0  0  0  0  0  0  0
   45.0330   34.5250   42.9190 C   0  0  0  0  0  0  0  0  0  0  0  0
   45.6360   33.7500   43.9060 C   0  0  0  0  0  0  0  0  0  0  0  0
   45.5050   34.0910   45.2030 N   0  0  0  0  0  0  0  0  0  0  0  0
   44.7860   35.1920   45.5830 C   0  0  0  0  0  0  0  0  0  0  0  0
   44.2080   35.9360   44.6490 N   0  0  0  0  0  0  0  0  0  0  0  0
   43.8170   36.2740   42.5870 H   0  0  0  0  0  0  0  0  0  0  0  0
   44.6760   35.4710   46.6150 H   0  0  0  0  0  0  0  0  0  0  0  0
   46.3980   32.5840   43.4830 C   0  0  0  0  0  0  0  0  0  0  0  0
   45.7870   31.3590   43.3780 C   0  0  0  0  0  0  0  0  0  0  0  0
   46.5550   30.2860   42.9710 C   0  0  0  0  0  0  0  0  0  0  0  0
   47.9040   30.3760   42.6650 C   0  0  0  0  0  0  0  0  0  0  0  0
   48.4550   31.6270   42.7900 C   0  0  0  0  0  0  0  0  0  0  0  0
   47.7050   32.6760   43.1870 N   0  0  0  0  0  0  0  0  0  0  0  0
   44.7360   31.2700   43.6120 H   0  0  0  0  0  0  0  0  0  0  0  0
   46.0010   29.3470   42.9120 H   0  0  0  0  0  0  0  0  0  0  0  0
   48.4220   29.4850   42.3570 H   0  0  0  0  0  0  0  0  0  0  0  0
   49.5130   31.7340   42.5570 H   0  0  0  0  0  0  0  0  0  0  0  0
   45.1300   34.2250   41.5360 C   0  0  0  0  0  0  0  0  0  0  0  0
   46.2170   34.4620   40.9570 O   0  0  0  0  0  0  0  0  0  0  0  0
   44.0740   33.6700   40.7590 N   0  0  0  0  0  0  0  0  0  0  0  0
   43.4980   32.3780   41.0950 C   0  0  0  0  0  3  0  0  0  0  0  0
   43.9590   32.0290   42.0270 H   0  0  0  0  0  0  0  0  0  0  0  0
   43.8790   31.4570   39.9410 C   0  0  0  0  0  3  0  0  0  0  0  0
   44.8830   31.0270   40.2310 H   0  0  0  0  0  0  0  0  0  0  0  0
   44.0810   32.1490   38.7770 O   0  0  0  0  0  0  0  0  0  0  0  0
   43.2770   33.2400   38.5690 C   0  0  0  0  0  2  0  0  0  0  0  0
   43.5100   34.3390   39.6010 C   0  0  0  0  0  2  0  0  0  0  0  0
  1  6  1  0  0  0  0
  2  1  2  0  0  0  0
  2  3  1  0  0  0  0
  3  4  2  0  0  0  0
  4  5  1  0  0  0  0
  5  8  1  0  0  0  0
  6  5  2  0  0  0  0
  7  1  1  0  0  0  0
  9  3  1  0  0  0  0
 10  9  1  0  0  0  0
 10 15  1  0  0  0  0
 11 10  2  0  0  0  0
 12 13  2  0  0  0  0
 12 11  1  0  0  0  0
 13 14  1  0  0  0  0
 14  9  2  0  0  0  0
 16 11  1  0  0  0  0
 17 12  1  0  0  0  0
 18 13  1  0  0  0  0
 19  2  1  0  0  0  0
 20 19  2  0  0  0  0
 21 22  1  0  0  0  0
 21 19  1  0  0  0  0
 22 23  1  0  0  0  0
 24 25  1  0  0  0  0
 24 22  1  0  0  0  0
 26 24  1  0  0  0  0
 27 26  1  0  0  0  0
 27 28  1  0  0  0  0
 28 21  1  0  0  0  0
M  END
>  <minimizedAffinity>
-3.8903451

>  <minimizedRMSD>
1.46777749

$$$$
