
 OpenBabel03242515003D

 36 38  0  0  0  0  0  0  0  0999 V2000
   43.7700   34.7520   40.8260 S   0  0  0  0  0  0  0  0  0  0  0  0
   45.0280   34.5100   42.0810 C   0  0  0  0  0  0  0  0  0  0  0  0
   46.3620   34.5570   41.6460 C   0  0  0  0  0  0  0  0  0  0  0  0
   47.3770   34.3750   42.5850 C   0  0  0  0  0  0  0  0  0  0  0  0
   47.0120   34.1610   43.8670 N   0  0  0  0  0  0  0  0  0  0  0  0
   45.7370   34.1170   44.2830 C   0  0  0  0  0  0  0  0  0  0  0  0
   44.7630   34.2940   43.3730 N   0  0  0  0  0  0  0  0  0  0  0  0
   46.6760   34.7260   40.6240 H   0  0  0  0  0  0  0  0  0  0  0  0
   48.4130   34.4060   42.2760 H   0  0  0  0  0  0  0  0  0  0  0  0
   45.4520   33.8830   45.6800 C   0  0  0  0  0  0  0  0  0  0  0  0
   44.7330   34.7060   46.2960 O   0  0  0  0  0  0  0  0  0  0  0  0
   45.9120   32.7830   46.4560 N   0  0  0  0  0  0  0  0  0  0  0  0
   45.5050   32.7400   47.8480 C   0  0  0  0  0  3  0  0  0  0  0  0
   44.7650   33.5010   48.0920 H   0  0  0  0  0  0  0  0  0  0  0  0
   44.8440   31.3770   48.0500 C   0  0  0  0  0  3  0  0  0  0  0  0
   44.7630   31.2370   49.1480 H   0  0  0  0  0  0  0  0  0  0  0  0
   45.6120   30.3420   47.5750 O   0  0  0  0  0  0  0  0  0  0  0  0
   45.9380   30.4220   46.2460 C   0  0  0  0  0  2  0  0  0  0  0  0
   46.7530   31.6970   45.9880 C   0  0  0  0  0  2  0  0  0  0  0  0
   42.1310   34.9400   41.5230 C   0  0  0  0  0  0  0  0  0  0  0  0
   41.6060   33.9410   41.5210 H   0  0  0  0  0  0  0  0  0  0  0  0
   42.1590   35.2430   42.6070 H   0  0  0  0  0  0  0  0  0  0  0  0
   41.2650   35.9080   40.7880 C   0  0  0  0  0  0  0  0  0  0  0  0
   40.6360   36.4910   41.5180 H   0  0  0  0  0  0  0  0  0  0  0  0
   41.8540   36.6560   40.2210 H   0  0  0  0  0  0  0  0  0  0  0  0
   42.0420   36.1070   37.8500 Cl  0  0  0  0  0  0  0  0  0  0  0  0
   40.6520   35.2560   38.4400 C   0  0  0  0  0  0  0  0  0  0  0  0
   40.3870   35.2280   39.8150 C   0  0  0  0  0  0  0  0  0  0  0  0
   39.2620   34.5310   40.2030 C   0  0  0  0  0  0  0  0  0  0  0  0
   38.3730   33.8590   39.3770 C   0  0  0  0  0  0  0  0  0  0  0  0
   38.6620   33.9060   38.0200 C   0  0  0  0  0  0  0  0  0  0  0  0
   37.5860   33.0800   36.8990 Cl  0  0  0  0  0  0  0  0  0  0  0  0
   39.7740   34.5890   37.5800 C   0  0  0  0  0  0  0  0  0  0  0  0
   39.0480   34.5030   41.2700 H   0  0  0  0  0  0  0  0  0  0  0  0
   37.5210   33.3460   39.8010 H   0  0  0  0  0  0  0  0  0  0  0  0
   39.9740   34.6070   36.5100 H   0  0  0  0  0  0  0  0  0  0  0  0
  1 20  1  0  0  0  0
  1  2  1  0  0  0  0
  2  7  1  0  0  0  0
  3  2  2  0  0  0  0
  3  4  1  0  0  0  0
  4  5  2  0  0  0  0
  5  6  1  0  0  0  0
  6 10  1  0  0  0  0
  7  6  2  0  0  0  0
  8  3  1  0  0  0  0
  9  4  1  0  0  0  0
 10 11  2  0  0  0  0
 10 12  1  0  0  0  0
 12 13  1  0  0  0  0
 13 15  1  0  0  0  0
 13 14  1  0  0  0  0
 15 16  1  0  0  0  0
 17 15  1  0  0  0  0
 18 17  1  0  0  0  0
 19 18  1  0  0  0  0
 19 12  1  0  0  0  0
 20 22  1  0  0  0  0
 21 20  1  0  0  0  0
 23 24  1  0  0  0  0
 23 20  1  0  0  0  0
 25 23  1  0  0  0  0
 26 27  1  0  0  0  0
 27 28  1  0  0  0  0
 28 29  2  0  0  0  0
 28 23  1  0  0  0  0
 29 34  1  0  0  0  0
 30 35  1  0  0  0  0
 30 29  1  0  0  0  0
 31 30  2  0  0  0  0
 32 31  1  0  0  0  0
 33 31  1  0  0  0  0
 33 27  2  0  0  0  0
 36 33  1  0  0  0  0
M  END
>  <minimizedAffinity>
-6.94033527

>  <minimizedRMSD>
0.419314235

$$$$
