
 OpenBabel03242510223D

 37 40  0  0  1  0  0  0  0  0999 V2000
   48.0450   33.2730   43.2470 N   0  0  0  0  0  0  0  0  0  0  0  0
   49.2210   33.3260   42.5020 C   0  0  0  0  0  0  0  0  0  0  0  0
   50.3870   32.9540   42.7850 O   0  0  0  0  0  0  0  0  0  0  0  0
   47.4860   34.1540   43.1510 H   0  0  0  0  0  0  0  0  0  0  0  0
   46.3070   32.1550   44.5960 C   0  0  1  0  0  0  0  0  0  0  0  0
   46.4580   31.3780   43.4380 C   0  0  0  0  0  0  0  0  0  0  0  0
   47.6750   32.1520   44.0340 C   0  0  1  0  0  0  0  0  0  0  0  0
   46.1650   31.7320   45.6040 H   0  0  0  0  0  0  0  0  0  0  0  0
   46.5550   30.2550   43.5590 H   0  0  0  0  0  0  0  0  0  0  0  0
   46.2060   31.6080   42.3850 H   0  0  0  0  0  0  0  0  0  0  0  0
   48.4550   31.4710   44.4190 H   0  0  0  0  0  0  0  0  0  0  0  0
   45.0450   33.9720   43.2120 C   0  0  0  0  0  0  0  0  0  0  0  0
   45.5370   33.4820   44.4680 C   0  0  0  0  0  0  0  0  0  0  0  0
   45.3180   34.2610   45.5860 C   0  0  0  0  0  0  0  0  0  0  0  0
   44.6610   35.4310   45.4520 N   0  0  0  0  0  0  0  0  0  0  0  0
   44.2030   35.8850   44.2550 C   0  0  0  0  0  0  0  0  0  0  0  0
   44.4080   35.1200   43.1050 N   0  0  0  0  0  0  0  0  0  0  0  0
   45.2090   33.3460   42.3650 H   0  0  0  0  0  0  0  0  0  0  0  0
   45.6710   33.9250   46.5520 H   0  0  0  0  0  0  0  0  0  0  0  0
   43.6900   36.8390   44.2630 H   0  0  0  0  0  0  0  0  0  0  0  0
   49.1830   33.9100   41.1030 C   0  0  2  0  0  0  0  0  0  0  0  0
   48.7440   35.4180   40.9860 C   0  0  0  0  0  0  0  0  0  0  0  0
   47.9180   34.2920   40.4660 C   0  0  1  0  0  0  0  0  0  0  0  0
   50.0700   33.7450   40.4590 H   0  0  0  0  0  0  0  0  0  0  0  0
   49.3170   36.0650   40.3270 H   0  0  0  0  0  0  0  0  0  0  0  0
   48.4420   35.8280   41.9880 H   0  0  0  0  0  0  0  0  0  0  0  0
   46.9760   33.9940   40.9590 H   0  0  0  0  0  0  0  0  0  0  0  0
   47.8130   34.1330   38.9660 C   0  0  0  0  0  0  0  0  0  0  0  0
   48.5430   34.7910   38.2330 O   0  0  0  0  0  0  0  0  0  0  0  0
   46.8560   33.2120   38.3820 N   0  0  0  0  0  0  0  0  0  0  0  0
   46.5930   33.3820   36.9620 C   0  0  0  0  0  3  0  0  0  0  0  0
   47.3990   33.0420   36.3110 H   0  0  0  0  0  0  0  0  0  0  0  0
   45.2630   32.7400   36.6660 C   0  0  0  0  0  3  0  0  0  0  0  0
   45.1490   32.5160   35.5820 H   0  0  0  0  0  0  0  0  0  0  0  0
   45.0700   31.5280   37.3240 O   0  0  0  0  0  0  0  0  0  0  0  0
   44.9710   31.7280   38.7040 C   0  0  0  0  0  2  0  0  0  0  0  0
   46.2660   32.2210   39.2600 C   0  0  0  0  0  2  0  0  0  0  0  0
  1  7  1  0  0  0  0
  2  3  2  0  0  0  0
  2  1  1  0  0  0  0
  4  1  1  0  0  0  0
  5  8  1  1  0  0  0
  6  9  1  0  0  0  0
  6  7  1  0  0  0  0
  6  5  1  0  0  0  0
  7 11  1  1  0  0  0
  7  5  1  0  0  0  0
 10  6  1  0  0  0  0
 12 13  1  0  0  0  0
 13  5  1  0  0  0  0
 13 14  2  0  0  0  0
 14 19  1  0  0  0  0
 15 14  1  0  0  0  0
 16 20  1  0  0  0  0
 16 15  2  0  0  0  0
 17 12  2  0  0  0  0
 17 16  1  0  0  0  0
 18 12  1  0  0  0  0
 21 24  1  6  0  0  0
 21  2  1  0  0  0  0
 22 21  1  0  0  0  0
 22 26  1  0  0  0  0
 23 27  1  1  0  0  0
 23 22  1  0  0  0  0
 23 21  1  0  0  0  0
 25 22  1  0  0  0  0
 28 23  1  0  0  0  0
 29 28  2  0  0  0  0
 30 28  1  0  0  0  0
 30 37  1  0  0  0  0
 31 30  1  0  0  0  0
 32 31  1  0  0  0  0
 33 31  1  0  0  0  0
 33 35  1  0  0  0  0
 34 33  1  0  0  0  0
 35 36  1  0  0  0  0
 36 37  1  0  0  0  0
M  END
>  <minimizedAffinity>
-5.05236578

>  <minimizedRMSD>
0.142157868

$$$$
