
 OpenBabel03242515003D

 36 38  0  0  0  0  0  0  0  0999 V2000
   43.6100   34.8640   40.8340 S   0  0  0  0  0  0  0  0  0  0  0  0
   44.8880   34.6010   42.0650 C   0  0  0  0  0  0  0  0  0  0  0  0
   46.2110   34.5730   41.5960 C   0  0  0  0  0  0  0  0  0  0  0  0
   47.2400   34.3710   42.5160 C   0  0  0  0  0  0  0  0  0  0  0  0
   46.8990   34.2140   43.8120 N   0  0  0  0  0  0  0  0  0  0  0  0
   45.6350   34.2420   44.2600 C   0  0  0  0  0  0  0  0  0  0  0  0
   44.6470   34.4370   43.3690 N   0  0  0  0  0  0  0  0  0  0  0  0
   46.5060   34.6960   40.5630 H   0  0  0  0  0  0  0  0  0  0  0  0
   48.2680   34.3440   42.1810 H   0  0  0  0  0  0  0  0  0  0  0  0
   45.3750   34.0640   45.6710 C   0  0  0  0  0  0  0  0  0  0  0  0
   44.6050   34.8670   46.2490 O   0  0  0  0  0  0  0  0  0  0  0  0
   45.9160   33.0420   46.4990 N   0  0  0  0  0  0  0  0  0  0  0  0
   45.2830   32.8330   47.7880 C   0  0  0  0  0  3  0  0  0  0  0  0
   44.3630   33.4050   47.9010 H   0  0  0  0  0  0  0  0  0  0  0  0
   44.9080   31.3510   47.8360 C   0  0  0  0  0  3  0  0  0  0  0  0
   44.6620   31.1330   48.8960 H   0  0  0  0  0  0  0  0  0  0  0  0
   45.9560   30.5310   47.4960 O   0  0  0  0  0  0  0  0  0  0  0  0
   46.4910   30.7560   46.2540 C   0  0  0  0  0  2  0  0  0  0  0  0
   47.0420   32.1860   46.1780 C   0  0  0  0  0  2  0  0  0  0  0  0
   41.9920   35.1000   41.5620 C   0  0  0  0  0  0  0  0  0  0  0  0
   41.4700   34.1030   41.6480 H   0  0  0  0  0  0  0  0  0  0  0  0
   42.0510   35.4810   42.6210 H   0  0  0  0  0  0  0  0  0  0  0  0
   41.1030   36.0120   40.7850 C   0  0  0  0  0  0  0  0  0  0  0  0
   40.4270   36.5790   41.4860 H   0  0  0  0  0  0  0  0  0  0  0  0
   41.6720   36.7770   40.2190 H   0  0  0  0  0  0  0  0  0  0  0  0
   41.9320   36.2170   37.8620 Cl  0  0  0  0  0  0  0  0  0  0  0  0
   40.5780   35.3000   38.4340 C   0  0  0  0  0  0  0  0  0  0  0  0
   40.2840   35.2740   39.8040 C   0  0  0  0  0  0  0  0  0  0  0  0
   39.1910   34.5210   40.1770 C   0  0  0  0  0  0  0  0  0  0  0  0
   38.3580   33.7920   39.3410 C   0  0  0  0  0  0  0  0  0  0  0  0
   38.6740   33.8370   37.9900 C   0  0  0  0  0  0  0  0  0  0  0  0
   37.6680   32.9400   36.8580 Cl  0  0  0  0  0  0  0  0  0  0  0  0
   39.7560   34.5740   37.5650 C   0  0  0  0  0  0  0  0  0  0  0  0
   38.9550   34.4940   41.2390 H   0  0  0  0  0  0  0  0  0  0  0  0
   37.5260   33.2370   39.7540 H   0  0  0  0  0  0  0  0  0  0  0  0
   39.9780   34.5900   36.4990 H   0  0  0  0  0  0  0  0  0  0  0  0
  1 20  1  0  0  0  0
  1  2  1  0  0  0  0
  2  7  1  0  0  0  0
  3  2  2  0  0  0  0
  3  4  1  0  0  0  0
  4  5  2  0  0  0  0
  5  6  1  0  0  0  0
  6 10  1  0  0  0  0
  7  6  2  0  0  0  0
  8  3  1  0  0  0  0
  9  4  1  0  0  0  0
 10 11  2  0  0  0  0
 10 12  1  0  0  0  0
 12 13  1  0  0  0  0
 13 15  1  0  0  0  0
 13 14  1  0  0  0  0
 15 16  1  0  0  0  0
 17 15  1  0  0  0  0
 18 17  1  0  0  0  0
 19 18  1  0  0  0  0
 19 12  1  0  0  0  0
 20 21  1  0  0  0  0
 20 22  1  0  0  0  0
 23 24  1  0  0  0  0
 23 20  1  0  0  0  0
 25 23  1  0  0  0  0
 26 27  1  0  0  0  0
 27 28  1  0  0  0  0
 28 29  2  0  0  0  0
 28 23  1  0  0  0  0
 29 34  1  0  0  0  0
 30 35  1  0  0  0  0
 30 29  1  0  0  0  0
 31 30  2  0  0  0  0
 32 31  1  0  0  0  0
 33 31  1  0  0  0  0
 33 27  2  0  0  0  0
 36 33  1  0  0  0  0
M  END
>  <minimizedAffinity>
-6.97909832

>  <minimizedRMSD>
0.215701908

$$$$
