
 OpenBabel03242510223D

 37 40  0  0  1  0  0  0  0  0999 V2000
   48.0090   33.2380   43.0810 N   0  0  0  0  0  0  0  0  0  0  0  0
   49.2100   33.3370   42.3800 C   0  0  0  0  0  0  0  0  0  0  0  0
   50.3750   32.9930   42.7000 O   0  0  0  0  0  0  0  0  0  0  0  0
   47.4290   34.1050   42.9770 H   0  0  0  0  0  0  0  0  0  0  0  0
   46.2920   32.0980   44.4380 C   0  0  1  0  0  0  0  0  0  0  0  0
   46.3960   31.3630   43.2490 C   0  0  0  0  0  0  0  0  0  0  0  0
   47.6430   32.0950   43.8370 C   0  0  1  0  0  0  0  0  0  0  0  0
   46.1730   31.6400   45.4340 H   0  0  0  0  0  0  0  0  0  0  0  0
   46.4780   30.2350   43.3250 H   0  0  0  0  0  0  0  0  0  0  0  0
   46.1170   31.6360   42.2130 H   0  0  0  0  0  0  0  0  0  0  0  0
   48.4220   31.3880   44.1720 H   0  0  0  0  0  0  0  0  0  0  0  0
   45.0340   33.9930   43.1590 C   0  0  0  0  0  0  0  0  0  0  0  0
   45.5410   33.4420   44.3830 C   0  0  0  0  0  0  0  0  0  0  0  0
   45.3560   34.1750   45.5360 C   0  0  0  0  0  0  0  0  0  0  0  0
   44.7160   35.3600   45.4660 N   0  0  0  0  0  0  0  0  0  0  0  0
   44.2420   35.8720   44.2980 C   0  0  0  0  0  0  0  0  0  0  0  0
   44.4130   35.1540   43.1130 N   0  0  0  0  0  0  0  0  0  0  0  0
   45.1720   33.4010   42.2820 H   0  0  0  0  0  0  0  0  0  0  0  0
   45.7220   33.7920   46.4810 H   0  0  0  0  0  0  0  0  0  0  0  0
   43.7460   36.8320   44.3570 H   0  0  0  0  0  0  0  0  0  0  0  0
   49.2050   33.9420   40.9890 C   0  0  2  0  0  0  0  0  0  0  0  0
   48.5980   35.3900   40.8590 C   0  0  0  0  0  0  0  0  0  0  0  0
   47.9540   34.1840   40.2630 C   0  0  1  0  0  0  0  0  0  0  0  0
   50.1510   33.8970   40.4130 H   0  0  0  0  0  0  0  0  0  0  0  0
   49.1370   36.1140   40.2530 H   0  0  0  0  0  0  0  0  0  0  0  0
   48.1760   35.7390   41.8400 H   0  0  0  0  0  0  0  0  0  0  0  0
   47.0210   33.7660   40.6780 H   0  0  0  0  0  0  0  0  0  0  0  0
   47.9810   34.0470   38.7580 C   0  0  0  0  0  0  0  0  0  0  0  0
   48.5870   34.8710   38.0820 O   0  0  0  0  0  0  0  0  0  0  0  0
   47.2940   32.9510   38.0990 N   0  0  0  0  0  0  0  0  0  0  0  0
   46.2490   33.3240   37.1610 C   0  0  0  0  0  3  0  0  0  0  0  0
   46.6150   33.7330   36.2180 H   0  0  0  0  0  0  0  0  0  0  0  0
   45.3390   32.1350   36.9960 C   0  0  0  0  0  3  0  0  0  0  0  0
   44.7390   32.2060   36.0620 H   0  0  0  0  0  0  0  0  0  0  0  0
   46.0170   30.9210   36.9170 O   0  0  0  0  0  0  0  0  0  0  0  0
   46.6340   30.6220   38.1360 C   0  0  0  0  0  2  0  0  0  0  0  0
   47.7160   31.6050   38.4370 C   0  0  0  0  0  2  0  0  0  0  0  0
  1  7  1  0  0  0  0
  2  3  2  0  0  0  0
  2  1  1  0  0  0  0
  4  1  1  0  0  0  0
  5  8  1  1  0  0  0
  6  9  1  0  0  0  0
  6  7  1  0  0  0  0
  6  5  1  0  0  0  0
  7 11  1  1  0  0  0
  7  5  1  0  0  0  0
 10  6  1  0  0  0  0
 12 13  1  0  0  0  0
 13  5  1  0  0  0  0
 13 14  2  0  0  0  0
 14 19  1  0  0  0  0
 15 14  1  0  0  0  0
 16 20  1  0  0  0  0
 16 15  2  0  0  0  0
 17 12  2  0  0  0  0
 17 16  1  0  0  0  0
 18 12  1  0  0  0  0
 21 24  1  6  0  0  0
 21  2  1  0  0  0  0
 22 21  1  0  0  0  0
 22 26  1  0  0  0  0
 23 27  1  1  0  0  0
 23 22  1  0  0  0  0
 23 21  1  0  0  0  0
 25 22  1  0  0  0  0
 28 23  1  0  0  0  0
 29 28  2  0  0  0  0
 30 37  1  0  0  0  0
 30 28  1  0  0  0  0
 31 30  1  0  0  0  0
 32 31  1  0  0  0  0
 33 31  1  0  0  0  0
 34 33  1  0  0  0  0
 35 33  1  0  0  0  0
 35 36  1  0  0  0  0
 36 37  1  0  0  0  0
M  END
>  <minimizedAffinity>
-4.93562269

>  <minimizedRMSD>
0.563982546

$$$$
