
 OpenBabel03242510243D

 37 40  0  0  1  0  0  0  0  0999 V2000
   37.5720   29.0610   42.1120 N   0  0  0  0  0  0  0  0  0  0  0  0
   37.9660   29.6480   40.9110 C   0  0  0  0  0  0  0  0  0  0  0  0
   38.1950   29.1380   39.7860 O   0  0  0  0  0  0  0  0  0  0  0  0
   38.0900   29.4670   42.9280 H   0  0  0  0  0  0  0  0  0  0  0  0
   37.0680   26.6870   42.5540 C   0  0  1  0  0  0  0  0  0  0  0  0
   36.5000   27.4060   43.6150 C   0  0  0  0  0  0  0  0  0  0  0  0
   36.5920   28.0390   42.1910 C   0  0  1  0  0  0  0  0  0  0  0  0
   36.5810   25.8240   42.0690 H   0  0  0  0  0  0  0  0  0  0  0  0
   35.4350   27.1630   43.9150 H   0  0  0  0  0  0  0  0  0  0  0  0
   36.9840   27.9780   44.4310 H   0  0  0  0  0  0  0  0  0  0  0  0
   35.5970   28.1990   41.7410 H   0  0  0  0  0  0  0  0  0  0  0  0
   39.4170   26.8630   43.6760 C   0  0  0  0  0  0  0  0  0  0  0  0
   38.5960   26.4960   42.5580 C   0  0  0  0  0  0  0  0  0  0  0  0
   39.2280   25.9780   41.4470 C   0  0  0  0  0  0  0  0  0  0  0  0
   40.5690   25.8390   41.4590 N   0  0  0  0  0  0  0  0  0  0  0  0
   41.3360   26.1930   42.5250 C   0  0  0  0  0  0  0  0  0  0  0  0
   40.7270   26.7200   43.6660 N   0  0  0  0  0  0  0  0  0  0  0  0
   38.9060   27.2440   44.5320 H   0  0  0  0  0  0  0  0  0  0  0  0
   38.6430   25.6870   40.5830 H   0  0  0  0  0  0  0  0  0  0  0  0
   42.4030   26.0390   42.4260 H   0  0  0  0  0  0  0  0  0  0  0  0
   38.1720   31.1510   40.8570 C   0  0  2  0  0  0  0  0  0  0  0  0
   36.9670   32.0030   40.3080 C   0  0  0  0  0  0  0  0  0  0  0  0
   38.2600   31.8660   39.5800 C   0  0  1  0  0  0  0  0  0  0  0  0
   38.5730   31.6410   41.7670 H   0  0  0  0  0  0  0  0  0  0  0  0
   36.7000   32.9100   40.8440 H   0  0  0  0  0  0  0  0  0  0  0  0
   36.1320   31.3390   39.9570 H   0  0  0  0  0  0  0  0  0  0  0  0
   38.3380   31.2720   38.6530 H   0  0  0  0  0  0  0  0  0  0  0  0
   39.1610   33.0790   39.5170 C   0  0  0  0  0  0  0  0  0  0  0  0
   38.8050   34.1290   40.0400 O   0  0  0  0  0  0  0  0  0  0  0  0
   40.4440   33.0170   38.8420 N   0  0  0  0  0  0  0  0  0  0  0  0
   41.3630   34.1090   39.1190 C   0  0  0  0  0  3  0  0  0  0  0  0
   41.8210   34.0730   40.1080 H   0  0  0  0  0  0  0  0  0  0  0  0
   42.3600   34.1600   37.9910 C   0  0  0  0  0  3  0  0  0  0  0  0
   43.2800   34.7150   38.2830 H   0  0  0  0  0  0  0  0  0  0  0  0
   42.7930   32.9060   37.5700 O   0  0  0  0  0  0  0  0  0  0  0  0
   41.7460   32.1990   36.9710 C   0  0  0  0  0  2  0  0  0  0  0  0
   40.6840   31.8820   37.9710 C   0  0  0  0  0  2  0  0  0  0  0  0
  1  7  1  0  0  0  0
  1  4  1  0  0  0  0
  2  1  1  0  0  0  0
  3  2  2  0  0  0  0
  5  8  1  6  0  0  0
  5 13  1  0  0  0  0
  5  6  1  0  0  0  0
  6  9  1  0  0  0  0
  6 10  1  0  0  0  0
  7 11  1  6  0  0  0
  7  5  1  0  0  0  0
  7  6  1  0  0  0  0
 12 18  1  0  0  0  0
 13 12  2  0  0  0  0
 14 15  2  0  0  0  0
 14 13  1  0  0  0  0
 15 16  1  0  0  0  0
 16 17  2  0  0  0  0
 17 12  1  0  0  0  0
 19 14  1  0  0  0  0
 20 16  1  0  0  0  0
 21  2  1  0  0  0  0
 21 24  1  1  0  0  0
 22 25  1  0  0  0  0
 22 21  1  0  0  0  0
 23 27  1  6  0  0  0
 23 22  1  0  0  0  0
 23 21  1  0  0  0  0
 26 22  1  0  0  0  0
 28 23  1  0  0  0  0
 28 29  2  0  0  0  0
 30 31  1  0  0  0  0
 30 28  1  0  0  0  0
 31 32  1  0  0  0  0
 33 34  1  0  0  0  0
 33 31  1  0  0  0  0
 35 33  1  0  0  0  0
 36 35  1  0  0  0  0
 36 37  1  0  0  0  0
 37 30  1  0  0  0  0
M  END
>  <minimizedAffinity>
-5.44505167

$$$$

 OpenBabel03242510243D

 37 40  0  0  1  0  0  0  0  0999 V2000
   37.6120   29.8900   39.8050 N   0  0  0  0  0  0  0  0  0  0  0  0
   36.9980   29.9280   41.0560 C   0  0  0  0  0  0  0  0  0  0  0  0
   36.1980   30.7610   41.5500 O   0  0  0  0  0  0  0  0  0  0  0  0
   38.6180   29.6040   39.8780 H   0  0  0  0  0  0  0  0  0  0  0  0
   37.3100   31.4770   37.9400 C   0  0  1  0  0  0  0  0  0  0  0  0
   37.9080   30.3370   37.3850 C   0  0  0  0  0  0  0  0  0  0  0  0
   36.9360   30.2070   38.5990 C   0  0  1  0  0  0  0  0  0  0  0  0
   36.5100   32.0520   37.4450 H   0  0  0  0  0  0  0  0  0  0  0  0
   37.4690   29.9170   36.4290 H   0  0  0  0  0  0  0  0  0  0  0  0
   38.9240   29.9210   37.5300 H   0  0  0  0  0  0  0  0  0  0  0  0
   36.0080   29.6700   38.3350 H   0  0  0  0  0  0  0  0  0  0  0  0
   39.6350   32.3600   38.7280 C   0  0  0  0  0  0  0  0  0  0  0  0
   38.2020   32.4200   38.7680 C   0  0  0  0  0  0  0  0  0  0  0  0
   37.6270   33.3510   39.6080 C   0  0  0  0  0  0  0  0  0  0  0  0
   38.4240   34.1540   40.3420 N   0  0  0  0  0  0  0  0  0  0  0  0
   39.7810   34.0850   40.2960 C   0  0  0  0  0  0  0  0  0  0  0  0
   40.3940   33.1530   39.4560 N   0  0  0  0  0  0  0  0  0  0  0  0
   40.0590   31.6450   38.0590 H   0  0  0  0  0  0  0  0  0  0  0  0
   36.5480   33.4290   39.6650 H   0  0  0  0  0  0  0  0  0  0  0  0
   40.3230   34.7760   40.9290 H   0  0  0  0  0  0  0  0  0  0  0  0
   37.2800   28.8180   42.0510 C   0  0  2  0  0  0  0  0  0  0  0  0
   38.4150   29.0960   43.1060 C   0  0  0  0  0  0  0  0  0  0  0  0
   38.5420   28.0730   42.0300 C   0  0  1  0  0  0  0  0  0  0  0  0
   36.4090   28.3680   42.5700 H   0  0  0  0  0  0  0  0  0  0  0  0
   38.2240   28.8230   44.1410 H   0  0  0  0  0  0  0  0  0  0  0  0
   38.9140   30.0820   42.9090 H   0  0  0  0  0  0  0  0  0  0  0  0
   39.2220   28.2220   41.1730 H   0  0  0  0  0  0  0  0  0  0  0  0
   38.5040   26.6170   42.4380 C   0  0  0  0  0  0  0  0  0  0  0  0
   38.8850   26.2880   43.5560 O   0  0  0  0  0  0  0  0  0  0  0  0
   38.0220   25.6010   41.5210 N   0  0  0  0  0  0  0  0  0  0  0  0
   37.7150   24.3070   42.1070 C   0  0  0  0  0  3  0  0  0  0  0  0
   36.7990   24.2860   42.6980 H   0  0  0  0  0  0  0  0  0  0  0  0
   37.7470   23.2870   40.9990 C   0  0  0  0  0  3  0  0  0  0  0  0
   37.1960   22.3610   41.2800 H   0  0  0  0  0  0  0  0  0  0  0  0
   37.1630   23.7300   39.8150 O   0  0  0  0  0  0  0  0  0  0  0  0
   37.9170   24.7630   39.2510 C   0  0  0  0  0  2  0  0  0  0  0  0
   37.8910   25.9730   40.1250 C   0  0  0  0  0  2  0  0  0  0  0  0
  1  4  1  0  0  0  0
  1  2  1  0  0  0  0
  2  3  2  0  0  0  0
  2 21  1  0  0  0  0
  5  8  1  6  0  0  0
  5  7  1  0  0  0  0
  5 13  1  0  0  0  0
  6 10  1  0  0  0  0
  6  5  1  0  0  0  0
  6  7  1  0  0  0  0
  7 11  1  6  0  0  0
  7  1  1  0  0  0  0
  9  6  1  0  0  0  0
 12 13  2  0  0  0  0
 12 17  1  0  0  0  0
 13 14  1  0  0  0  0
 14 19  1  0  0  0  0
 14 15  2  0  0  0  0
 16 15  1  0  0  0  0
 16 20  1  0  0  0  0
 17 16  2  0  0  0  0
 18 12  1  0  0  0  0
 21 24  1  1  0  0  0
 21 22  1  0  0  0  0
 22 25  1  0  0  0  0
 23 27  1  6  0  0  0
 23 21  1  0  0  0  0
 23 28  1  0  0  0  0
 23 22  1  0  0  0  0
 26 22  1  0  0  0  0
 28 29  2  0  0  0  0
 30 31  1  0  0  0  0
 30 28  1  0  0  0  0
 31 32  1  0  0  0  0
 33 34  1  0  0  0  0
 33 31  1  0  0  0  0
 35 33  1  0  0  0  0
 36 35  1  0  0  0  0
 36 37  1  0  0  0  0
 37 30  1  0  0  0  0
M  END
>  <minimizedAffinity>
-5.28190565

$$$$

 OpenBabel03242510243D

 37 40  0  0  1  0  0  0  0  0999 V2000
   38.5790   27.5020   42.6200 N   0  0  0  0  0  0  0  0  0  0  0  0
   37.2730   27.9630   42.7790 C   0  0  0  0  0  0  0  0  0  0  0  0
   36.3050   27.4780   43.4160 O   0  0  0  0  0  0  0  0  0  0  0  0
   38.9110   27.6170   41.6330 H   0  0  0  0  0  0  0  0  0  0  0  0
   39.8860   25.5880   43.4660 C   0  0  1  0  0  0  0  0  0  0  0  0
   40.8080   26.6240   43.2580 C   0  0  0  0  0  0  0  0  0  0  0  0
   39.3400   26.9450   43.6800 C   0  0  1  0  0  0  0  0  0  0  0  0
   39.9160   24.9050   44.3310 H   0  0  0  0  0  0  0  0  0  0  0  0
   41.5550   26.8450   44.0800 H   0  0  0  0  0  0  0  0  0  0  0  0
   41.1550   27.0930   42.3170 H   0  0  0  0  0  0  0  0  0  0  0  0
   39.2840   27.3930   44.6880 H   0  0  0  0  0  0  0  0  0  0  0  0
   38.1190   24.1190   42.2310 C   0  0  0  0  0  0  0  0  0  0  0  0
   39.3570   24.8440   42.2260 C   0  0  0  0  0  0  0  0  0  0  0  0
   40.0940   24.8390   41.0600 C   0  0  0  0  0  0  0  0  0  0  0  0
   39.6260   24.1630   39.9900 N   0  0  0  0  0  0  0  0  0  0  0  0
   38.4510   23.4780   40.0090 C   0  0  0  0  0  0  0  0  0  0  0  0
   37.6820   23.4640   41.1740 N   0  0  0  0  0  0  0  0  0  0  0  0
   37.5560   24.1520   43.1360 H   0  0  0  0  0  0  0  0  0  0  0  0
   41.0330   25.3750   41.0160 H   0  0  0  0  0  0  0  0  0  0  0  0
   38.1730   22.9700   39.0950 H   0  0  0  0  0  0  0  0  0  0  0  0
   36.8630   29.2630   42.1120 C   0  0  2  0  0  0  0  0  0  0  0  0
   36.1750   29.1380   40.7010 C   0  0  0  0  0  0  0  0  0  0  0  0
   37.5250   29.7400   40.8940 C   0  0  1  0  0  0  0  0  0  0  0  0
   36.2940   29.9910   42.7250 H   0  0  0  0  0  0  0  0  0  0  0  0
   35.2940   29.7450   40.5100 H   0  0  0  0  0  0  0  0  0  0  0  0
   36.1580   28.0690   40.3560 H   0  0  0  0  0  0  0  0  0  0  0  0
   38.4400   29.2210   40.5590 H   0  0  0  0  0  0  0  0  0  0  0  0
   37.6580   31.2350   40.7090 C   0  0  0  0  0  0  0  0  0  0  0  0
   36.6540   31.9190   40.5410 O   0  0  0  0  0  0  0  0  0  0  0  0
   38.9610   31.8720   40.7260 N   0  0  0  0  0  0  0  0  0  0  0  0
   38.9620   33.3190   40.8720 C   0  0  0  0  0  3  0  0  0  0  0  0
   38.7170   33.6700   41.8750 H   0  0  0  0  0  0  0  0  0  0  0  0
   40.2830   33.8270   40.3570 C   0  0  0  0  0  3  0  0  0  0  0  0
   40.5070   34.8470   40.7420 H   0  0  0  0  0  0  0  0  0  0  0  0
   41.3680   33.0370   40.7250 O   0  0  0  0  0  0  0  0  0  0  0  0
   41.3000   31.7870   40.1030 C   0  0  0  0  0  2  0  0  0  0  0  0
   40.1230   31.0140   40.5990 C   0  0  0  0  0  2  0  0  0  0  0  0
  1  2  1  0  0  0  0
  1  7  1  0  0  0  0
  2  3  2  0  0  0  0
  4  1  1  0  0  0  0
  5  7  1  0  0  0  0
  5  8  1  1  0  0  0
  6  5  1  0  0  0  0
  6  7  1  0  0  0  0
  6  9  1  0  0  0  0
  7 11  1  1  0  0  0
 10  6  1  0  0  0  0
 12 18  1  0  0  0  0
 13 12  1  0  0  0  0
 13  5  1  0  0  0  0
 14 13  2  0  0  0  0
 15 16  2  0  0  0  0
 15 14  1  0  0  0  0
 16 17  1  0  0  0  0
 17 12  2  0  0  0  0
 19 14  1  0  0  0  0
 20 16  1  0  0  0  0
 21 24  1  1  0  0  0
 21  2  1  0  0  0  0
 22 23  1  0  0  0  0
 22 21  1  0  0  0  0
 23 27  1  6  0  0  0
 23 21  1  0  0  0  0
 25 22  1  0  0  0  0
 26 22  1  0  0  0  0
 28 30  1  0  0  0  0
 28 23  1  0  0  0  0
 29 28  2  0  0  0  0
 30 31  1  0  0  0  0
 31 32  1  0  0  0  0
 33 35  1  0  0  0  0
 33 34  1  0  0  0  0
 33 31  1  0  0  0  0
 36 37  1  0  0  0  0
 36 35  1  0  0  0  0
 37 30  1  0  0  0  0
M  END
>  <minimizedAffinity>
-5.23352051

$$$$

 OpenBabel03242510243D

 37 40  0  0  1  0  0  0  0  0999 V2000
   36.8340   28.6090   41.3960 N   0  0  0  0  0  0  0  0  0  0  0  0
   35.8680   29.3150   40.6800 C   0  0  0  0  0  0  0  0  0  0  0  0
   34.6650   29.0450   40.4420 O   0  0  0  0  0  0  0  0  0  0  0  0
   37.7620   28.6240   40.9110 H   0  0  0  0  0  0  0  0  0  0  0  0
   37.1090   26.5920   42.7910 C   0  0  1  0  0  0  0  0  0  0  0  0
   37.8650   27.5970   43.4110 C   0  0  0  0  0  0  0  0  0  0  0  0
   36.5640   27.9570   42.6270 C   0  0  1  0  0  0  0  0  0  0  0  0
   36.4960   25.8580   43.3410 H   0  0  0  0  0  0  0  0  0  0  0  0
   37.7510   27.7360   44.5300 H   0  0  0  0  0  0  0  0  0  0  0  0
   38.7890   28.1060   43.0760 H   0  0  0  0  0  0  0  0  0  0  0  0
   35.7710   28.3460   43.2900 H   0  0  0  0  0  0  0  0  0  0  0  0
   36.8620   25.3050   40.5350 C   0  0  0  0  0  0  0  0  0  0  0  0
   37.6870   25.9480   41.5170 C   0  0  0  0  0  0  0  0  0  0  0  0
   39.0490   25.9540   41.3010 C   0  0  0  0  0  0  0  0  0  0  0  0
   39.5400   25.3650   40.1910 N   0  0  0  0  0  0  0  0  0  0  0  0
   38.7460   24.7570   39.2680 C   0  0  0  0  0  0  0  0  0  0  0  0
   37.3630   24.7340   39.4580 N   0  0  0  0  0  0  0  0  0  0  0  0
   35.8110   25.3290   40.7130 H   0  0  0  0  0  0  0  0  0  0  0  0
   39.7050   26.4300   42.0180 H   0  0  0  0  0  0  0  0  0  0  0  0
   39.2470   24.3150   38.4160 H   0  0  0  0  0  0  0  0  0  0  0  0
   36.2420   30.6430   40.0500 C   0  0  2  0  0  0  0  0  0  0  0  0
   36.5900   30.6160   38.5140 C   0  0  0  0  0  0  0  0  0  0  0  0
   37.6010   30.9080   39.5690 C   0  0  1  0  0  0  0  0  0  0  0  0
   35.5740   31.5060   40.2510 H   0  0  0  0  0  0  0  0  0  0  0  0
   36.1710   31.3970   37.8840 H   0  0  0  0  0  0  0  0  0  0  0  0
   36.5810   29.5650   38.1190 H   0  0  0  0  0  0  0  0  0  0  0  0
   38.3950   30.1830   39.8220 H   0  0  0  0  0  0  0  0  0  0  0  0
   38.1170   32.3260   39.6730 C   0  0  0  0  0  0  0  0  0  0  0  0
   37.3620   33.2660   39.4510 O   0  0  0  0  0  0  0  0  0  0  0  0
   39.4990   32.5890   40.0290 N   0  0  0  0  0  0  0  0  0  0  0  0
   39.8060   33.9550   40.4210 C   0  0  0  0  0  3  0  0  0  0  0  0
   39.4420   34.2320   41.4110 H   0  0  0  0  0  0  0  0  0  0  0  0
   41.2880   34.1560   40.2420 C   0  0  0  0  0  3  0  0  0  0  0  0
   41.6570   35.0250   40.8310 H   0  0  0  0  0  0  0  0  0  0  0  0
   42.0540   33.0690   40.6530 O   0  0  0  0  0  0  0  0  0  0  0  0
   41.8300   31.9670   39.8230 C   0  0  0  0  0  2  0  0  0  0  0  0
   40.4270   31.4770   39.9620 C   0  0  0  0  0  2  0  0  0  0  0  0
  1  7  1  0  0  0  0
  2  1  1  0  0  0  0
  3  2  2  0  0  0  0
  4  1  1  0  0  0  0
  5  8  1  1  0  0  0
  5  6  1  0  0  0  0
  6  9  1  0  0  0  0
  7  5  1  0  0  0  0
  7 11  1  1  0  0  0
  7  6  1  0  0  0  0
 10  6  1  0  0  0  0
 12 18  1  0  0  0  0
 12 13  1  0  0  0  0
 13  5  1  0  0  0  0
 14 13  2  0  0  0  0
 14 19  1  0  0  0  0
 15 14  1  0  0  0  0
 16 17  1  0  0  0  0
 16 15  2  0  0  0  0
 17 12  2  0  0  0  0
 20 16  1  0  0  0  0
 21 24  1  1  0  0  0
 21  2  1  0  0  0  0
 22 23  1  0  0  0  0
 22 21  1  0  0  0  0
 23 28  1  0  0  0  0
 23 27  1  1  0  0  0
 23 21  1  0  0  0  0
 25 22  1  0  0  0  0
 26 22  1  0  0  0  0
 28 30  1  0  0  0  0
 29 28  2  0  0  0  0
 30 31  1  0  0  0  0
 31 32  1  0  0  0  0
 33 31  1  0  0  0  0
 33 35  1  0  0  0  0
 33 34  1  0  0  0  0
 36 37  1  0  0  0  0
 36 35  1  0  0  0  0
 37 30  1  0  0  0  0
M  END
>  <minimizedAffinity>
-5.21181345

$$$$

 OpenBabel03242510243D

 37 40  0  0  1  0  0  0  0  0999 V2000
   36.9840   29.7680   39.7420 N   0  0  0  0  0  0  0  0  0  0  0  0
   36.1660   29.0440   40.6070 C   0  0  0  0  0  0  0  0  0  0  0  0
   34.9140   28.9570   40.6690 O   0  0  0  0  0  0  0  0  0  0  0  0
   37.7820   30.2180   40.2510 H   0  0  0  0  0  0  0  0  0  0  0  0
   37.3770   31.0050   37.6430 C   0  0  1  0  0  0  0  0  0  0  0  0
   38.0520   29.7840   37.5040 C   0  0  0  0  0  0  0  0  0  0  0  0
   36.7410   29.8710   38.3480 C   0  0  1  0  0  0  0  0  0  0  0  0
   36.8080   31.4870   36.8310 H   0  0  0  0  0  0  0  0  0  0  0  0
   37.9110   29.2040   36.5410 H   0  0  0  0  0  0  0  0  0  0  0  0
   38.9440   29.3970   38.0330 H   0  0  0  0  0  0  0  0  0  0  0  0
   35.9130   29.2990   37.8930 H   0  0  0  0  0  0  0  0  0  0  0  0
   37.2440   33.0670   39.2370 C   0  0  0  0  0  0  0  0  0  0  0  0
   38.0180   32.0760   38.5460 C   0  0  0  0  0  0  0  0  0  0  0  0
   39.3880   32.1210   38.6930 C   0  0  0  0  0  0  0  0  0  0  0  0
   39.9340   33.0800   39.4690 N   0  0  0  0  0  0  0  0  0  0  0  0
   39.1880   34.0150   40.1170 C   0  0  0  0  0  0  0  0  0  0  0  0
   37.7980   33.9960   39.9880 N   0  0  0  0  0  0  0  0  0  0  0  0
   36.1850   33.0030   39.1240 H   0  0  0  0  0  0  0  0  0  0  0  0
   40.0070   31.3890   38.1890 H   0  0  0  0  0  0  0  0  0  0  0  0
   39.7310   34.7390   40.7120 H   0  0  0  0  0  0  0  0  0  0  0  0
   36.8050   28.1860   41.6820 C   0  0  2  0  0  0  0  0  0  0  0  0
   37.4340   28.9510   42.9060 C   0  0  0  0  0  0  0  0  0  0  0  0
   38.2530   28.1990   41.9130 C   0  0  1  0  0  0  0  0  0  0  0  0
   36.2170   27.3250   42.0610 H   0  0  0  0  0  0  0  0  0  0  0  0
   37.2380   28.5650   43.9030 H   0  0  0  0  0  0  0  0  0  0  0  0
   37.3780   30.0630   42.7560 H   0  0  0  0  0  0  0  0  0  0  0  0
   38.8930   28.7220   41.1810 H   0  0  0  0  0  0  0  0  0  0  0  0
   38.9010   26.9120   42.3700 C   0  0  0  0  0  0  0  0  0  0  0  0
   38.2170   25.9060   42.5190 O   0  0  0  0  0  0  0  0  0  0  0  0
   40.3260   26.8530   42.6390 N   0  0  0  0  0  0  0  0  0  0  0  0
   40.8990   25.5210   42.7470 C   0  0  0  0  0  3  0  0  0  0  0  0
   41.0010   24.9960   41.7960 H   0  0  0  0  0  0  0  0  0  0  0  0
   42.1900   25.6420   43.5140 C   0  0  0  0  0  3  0  0  0  0  0  0
   42.8500   24.7630   43.3450 H   0  0  0  0  0  0  0  0  0  0  0  0
   42.9460   26.7570   43.1620 O   0  0  0  0  0  0  0  0  0  0  0  0
   42.2950   27.9340   43.5430 C   0  0  0  0  0  2  0  0  0  0  0  0
   41.0320   28.1130   42.7680 C   0  0  0  0  0  2  0  0  0  0  0  0
  1  4  1  0  0  0  0
  1  2  1  0  0  0  0
  2  3  2  0  0  0  0
  2 21  1  0  0  0  0
  5  8  1  6  0  0  0
  5  7  1  0  0  0  0
  5 13  1  0  0  0  0
  6  5  1  0  0  0  0
  6 10  1  0  0  0  0
  6  7  1  0  0  0  0
  7 11  1  6  0  0  0
  7  1  1  0  0  0  0
  9  6  1  0  0  0  0
 12 17  1  0  0  0  0
 13 14  1  0  0  0  0
 13 12  2  0  0  0  0
 14 15  2  0  0  0  0
 15 16  1  0  0  0  0
 16 20  1  0  0  0  0
 17 16  2  0  0  0  0
 18 12  1  0  0  0  0
 19 14  1  0  0  0  0
 21 23  1  0  0  0  0
 21 24  1  1  0  0  0
 21 22  1  0  0  0  0
 22 25  1  0  0  0  0
 23 27  1  6  0  0  0
 23 28  1  0  0  0  0
 23 22  1  0  0  0  0
 26 22  1  0  0  0  0
 28 29  2  0  0  0  0
 28 30  1  0  0  0  0
 30 31  1  0  0  0  0
 30 37  1  0  0  0  0
 31 33  1  0  0  0  0
 32 31  1  0  0  0  0
 34 33  1  0  0  0  0
 35 33  1  0  0  0  0
 35 36  1  0  0  0  0
 37 36  1  0  0  0  0
M  END
>  <minimizedAffinity>
-5.16271544

$$$$

 OpenBabel03242510243D

 37 40  0  0  1  0  0  0  0  0999 V2000
   36.8380   28.4380   41.2500 N   0  0  0  0  0  0  0  0  0  0  0  0
   35.8490   29.1910   40.6190 C   0  0  0  0  0  0  0  0  0  0  0  0
   34.6250   28.9630   40.4560 O   0  0  0  0  0  0  0  0  0  0  0  0
   37.7320   28.4400   40.7040 H   0  0  0  0  0  0  0  0  0  0  0  0
   37.8350   27.2570   43.1730 C   0  0  1  0  0  0  0  0  0  0  0  0
   37.3360   28.4660   43.6790 C   0  0  0  0  0  0  0  0  0  0  0  0
   36.6310   27.7600   42.4780 C   0  0  1  0  0  0  0  0  0  0  0  0
   37.7570   26.2930   43.7020 H   0  0  0  0  0  0  0  0  0  0  0  0
   36.7180   28.4320   44.6280 H   0  0  0  0  0  0  0  0  0  0  0  0
   37.6680   29.5070   43.5010 H   0  0  0  0  0  0  0  0  0  0  0  0
   35.6200   27.4000   42.7410 H   0  0  0  0  0  0  0  0  0  0  0  0
   39.5020   26.2970   41.4100 C   0  0  0  0  0  0  0  0  0  0  0  0
   39.1430   27.3090   42.3620 C   0  0  0  0  0  0  0  0  0  0  0  0
   40.0320   28.3460   42.5560 C   0  0  0  0  0  0  0  0  0  0  0  0
   41.1840   28.3630   41.8530 N   0  0  0  0  0  0  0  0  0  0  0  0
   41.5120   27.3960   40.9550 C   0  0  0  0  0  0  0  0  0  0  0  0
   40.6330   26.3340   40.7360 N   0  0  0  0  0  0  0  0  0  0  0  0
   38.7920   25.5160   41.2620 H   0  0  0  0  0  0  0  0  0  0  0  0
   39.7970   29.1300   43.2640 H   0  0  0  0  0  0  0  0  0  0  0  0
   42.4620   27.5100   40.4480 H   0  0  0  0  0  0  0  0  0  0  0  0
   36.2200   30.5260   40.0010 C   0  0  2  0  0  0  0  0  0  0  0  0
   36.6400   30.5010   38.4830 C   0  0  0  0  0  0  0  0  0  0  0  0
   37.5950   30.8210   39.5820 C   0  0  1  0  0  0  0  0  0  0  0  0
   35.5250   31.3730   40.1660 H   0  0  0  0  0  0  0  0  0  0  0  0
   36.2340   31.2700   37.8310 H   0  0  0  0  0  0  0  0  0  0  0  0
   36.6740   29.4490   38.0930 H   0  0  0  0  0  0  0  0  0  0  0  0
   38.3920   30.1150   39.8750 H   0  0  0  0  0  0  0  0  0  0  0  0
   38.0720   32.2500   39.7030 C   0  0  0  0  0  0  0  0  0  0  0  0
   37.2990   33.1720   39.4630 O   0  0  0  0  0  0  0  0  0  0  0  0
   39.4370   32.5470   40.0960 N   0  0  0  0  0  0  0  0  0  0  0  0
   39.6990   33.9190   40.5000 C   0  0  0  0  0  3  0  0  0  0  0  0
   39.3010   34.1840   41.4800 H   0  0  0  0  0  0  0  0  0  0  0  0
   41.1800   34.1580   40.3610 C   0  0  0  0  0  3  0  0  0  0  0  0
   41.5110   35.0340   40.9620 H   0  0  0  0  0  0  0  0  0  0  0  0
   41.9610   33.0880   40.7910 O   0  0  0  0  0  0  0  0  0  0  0  0
   41.7870   31.9830   39.9520 C   0  0  0  0  0  2  0  0  0  0  0  0
   40.3930   31.4580   40.0530 C   0  0  0  0  0  2  0  0  0  0  0  0
  1  7  1  0  0  0  0
  2  1  1  0  0  0  0
  3  2  2  0  0  0  0
  4  1  1  0  0  0  0
  5  6  1  0  0  0  0
  5  8  1  1  0  0  0
  6  9  1  0  0  0  0
  7 11  1  1  0  0  0
  7  5  1  0  0  0  0
  7  6  1  0  0  0  0
 10  6  1  0  0  0  0
 12 13  1  0  0  0  0
 13 14  2  0  0  0  0
 13  5  1  0  0  0  0
 14 19  1  0  0  0  0
 15 14  1  0  0  0  0
 16 15  2  0  0  0  0
 17 16  1  0  0  0  0
 17 12  2  0  0  0  0
 18 12  1  0  0  0  0
 20 16  1  0  0  0  0
 21 24  1  1  0  0  0
 21  2  1  0  0  0  0
 22 23  1  0  0  0  0
 22 21  1  0  0  0  0
 23 28  1  0  0  0  0
 23 27  1  1  0  0  0
 23 21  1  0  0  0  0
 25 22  1  0  0  0  0
 26 22  1  0  0  0  0
 28 30  1  0  0  0  0
 29 28  2  0  0  0  0
 30 31  1  0  0  0  0
 31 32  1  0  0  0  0
 33 31  1  0  0  0  0
 33 35  1  0  0  0  0
 33 34  1  0  0  0  0
 36 37  1  0  0  0  0
 36 35  1  0  0  0  0
 37 30  1  0  0  0  0
M  END
>  <minimizedAffinity>
-5.14080334

$$$$

 OpenBabel03242510243D

 37 40  0  0  1  0  0  0  0  0999 V2000
   37.8900   25.5930   40.0190 N   0  0  0  0  0  0  0  0  0  0  0  0
   36.6790   25.7970   39.3610 C   0  0  0  0  0  0  0  0  0  0  0  0
   35.8410   24.9760   38.9130 O   0  0  0  0  0  0  0  0  0  0  0  0
   38.6320   26.2480   39.6760 H   0  0  0  0  0  0  0  0  0  0  0  0
   38.1700   25.0910   42.4190 C   0  0  1  0  0  0  0  0  0  0  0  0
   36.9060   24.5970   42.0660 C   0  0  0  0  0  0  0  0  0  0  0  0
   38.0690   24.6080   41.0250 C   0  0  1  0  0  0  0  0  0  0  0  0
   38.8670   24.5660   43.0940 H   0  0  0  0  0  0  0  0  0  0  0  0
   36.6310   23.5500   42.4000 H   0  0  0  0  0  0  0  0  0  0  0  0
   35.9860   25.1360   41.7700 H   0  0  0  0  0  0  0  0  0  0  0  0
   38.3860   23.5890   40.7430 H   0  0  0  0  0  0  0  0  0  0  0  0
   39.5920   27.2750   42.5380 C   0  0  0  0  0  0  0  0  0  0  0  0
   38.3190   26.6140   42.5880 C   0  0  0  0  0  0  0  0  0  0  0  0
   37.2050   27.3930   42.8210 C   0  0  0  0  0  0  0  0  0  0  0  0
   37.3570   28.7230   42.9890 N   0  0  0  0  0  0  0  0  0  0  0  0
   38.5700   29.3370   42.9420 C   0  0  0  0  0  0  0  0  0  0  0  0
   39.7170   28.5760   42.7070 N   0  0  0  0  0  0  0  0  0  0  0  0
   40.4380   26.6570   42.3390 H   0  0  0  0  0  0  0  0  0  0  0  0
   36.2270   26.9320   42.8640 H   0  0  0  0  0  0  0  0  0  0  0  0
   38.5760   30.4090   43.0910 H   0  0  0  0  0  0  0  0  0  0  0  0
   36.2100   27.2170   39.1020 C   0  0  2  0  0  0  0  0  0  0  0  0
   36.6970   27.8800   37.7590 C   0  0  0  0  0  0  0  0  0  0  0  0
   37.1480   28.3450   39.1010 C   0  0  1  0  0  0  0  0  0  0  0  0
   35.1300   27.4280   39.2340 H   0  0  0  0  0  0  0  0  0  0  0  0
   35.9680   28.4330   37.1710 H   0  0  0  0  0  0  0  0  0  0  0  0
   37.4050   27.2020   37.2100 H   0  0  0  0  0  0  0  0  0  0  0  0
   38.1780   28.1670   39.4560 H   0  0  0  0  0  0  0  0  0  0  0  0
   36.6360   29.6810   39.5880 C   0  0  0  0  0  0  0  0  0  0  0  0
   35.4670   29.7930   39.9410 O   0  0  0  0  0  0  0  0  0  0  0  0
   37.5110   30.8370   39.6420 N   0  0  0  0  0  0  0  0  0  0  0  0
   37.0290   31.9660   40.4210 C   0  0  0  0  0  3  0  0  0  0  0  0
   37.0690   31.8180   41.5010 H   0  0  0  0  0  0  0  0  0  0  0  0
   37.7660   33.1920   39.9490 C   0  0  0  0  0  3  0  0  0  0  0  0
   37.7230   34.0100   40.7020 H   0  0  0  0  0  0  0  0  0  0  0  0
   39.1190   32.9720   39.7070 O   0  0  0  0  0  0  0  0  0  0  0  0
   39.2920   32.1170   38.6150 C   0  0  0  0  0  2  0  0  0  0  0  0
   38.7680   30.7540   38.9240 C   0  0  0  0  0  2  0  0  0  0  0  0
  1  7  1  0  0  0  0
  2  1  1  0  0  0  0
  3  2  2  0  0  0  0
  4  1  1  0  0  0  0
  5 13  1  0  0  0  0
  5  8  1  1  0  0  0
  6  9  1  0  0  0  0
  6  5  1  0  0  0  0
  7 11  1  6  0  0  0
  7  6  1  0  0  0  0
  7  5  1  0  0  0  0
 10  6  1  0  0  0  0
 12 13  2  0  0  0  0
 12 17  1  0  0  0  0
 13 14  1  0  0  0  0
 14 19  1  0  0  0  0
 14 15  2  0  0  0  0
 16 15  1  0  0  0  0
 16 20  1  0  0  0  0
 17 16  2  0  0  0  0
 18 12  1  0  0  0  0
 21 24  1  1  0  0  0
 21  2  1  0  0  0  0
 22 23  1  0  0  0  0
 22 21  1  0  0  0  0
 23 21  1  0  0  0  0
 23 27  1  1  0  0  0
 23 28  1  0  0  0  0
 25 22  1  0  0  0  0
 26 22  1  0  0  0  0
 28 30  1  0  0  0  0
 28 29  2  0  0  0  0
 30 31  1  0  0  0  0
 31 32  1  0  0  0  0
 33 31  1  0  0  0  0
 33 34  1  0  0  0  0
 35 33  1  0  0  0  0
 36 37  1  0  0  0  0
 36 35  1  0  0  0  0
 37 30  1  0  0  0  0
M  END
>  <minimizedAffinity>
-5.07088041

$$$$

 OpenBabel03242510243D

 37 40  0  0  1  0  0  0  0  0999 V2000
   32.8420   28.7570   37.2210 N   0  0  0  0  0  0  0  0  0  0  0  0
   34.0320   28.2680   37.7560 C   0  0  0  0  0  0  0  0  0  0  0  0
   34.4940   27.1000   37.7960 O   0  0  0  0  0  0  0  0  0  0  0  0
   32.3960   29.4640   37.8540 H   0  0  0  0  0  0  0  0  0  0  0  0
   31.0830   28.9950   35.5070 C   0  0  1  0  0  0  0  0  0  0  0  0
   32.2610   29.4820   34.9220 C   0  0  0  0  0  0  0  0  0  0  0  0
   32.3180   28.3290   35.9740 C   0  0  1  0  0  0  0  0  0  0  0  0
   30.3420   28.3810   34.9700 H   0  0  0  0  0  0  0  0  0  0  0  0
   32.5230   29.1310   33.8770 H   0  0  0  0  0  0  0  0  0  0  0  0
   32.8570   30.3840   35.1600 H   0  0  0  0  0  0  0  0  0  0  0  0
   32.6640   27.3780   35.5320 H   0  0  0  0  0  0  0  0  0  0  0  0
   30.6250   31.3000   36.6390 C   0  0  0  0  0  0  0  0  0  0  0  0
   30.3770   29.8910   36.5410 C   0  0  0  0  0  0  0  0  0  0  0  0
   29.4830   29.3370   37.4340 C   0  0  0  0  0  0  0  0  0  0  0  0
   28.8910   30.1330   38.3480 N   0  0  0  0  0  0  0  0  0  0  0  0
   29.1370   31.4680   38.4310 C   0  0  0  0  0  0  0  0  0  0  0  0
   30.0360   32.0590   37.5410 N   0  0  0  0  0  0  0  0  0  0  0  0
   31.3050   31.7110   35.9260 H   0  0  0  0  0  0  0  0  0  0  0  0
   29.2680   28.2770   37.3920 H   0  0  0  0  0  0  0  0  0  0  0  0
   28.6070   32.0110   39.2040 H   0  0  0  0  0  0  0  0  0  0  0  0
   34.9960   29.2350   38.4170 C   0  0  2  0  0  0  0  0  0  0  0  0
   36.1840   29.7590   37.5250 C   0  0  0  0  0  0  0  0  0  0  0  0
   36.3860   28.8610   38.6980 C   0  0  1  0  0  0  0  0  0  0  0  0
   34.5570   30.0910   38.9690 H   0  0  0  0  0  0  0  0  0  0  0  0
   36.4190   30.8190   37.5640 H   0  0  0  0  0  0  0  0  0  0  0  0
   36.1800   29.2610   36.5190 H   0  0  0  0  0  0  0  0  0  0  0  0
   36.6770   27.8030   38.5690 H   0  0  0  0  0  0  0  0  0  0  0  0
   37.0350   29.4500   39.9290 C   0  0  0  0  0  0  0  0  0  0  0  0
   37.5410   30.5660   39.8750 O   0  0  0  0  0  0  0  0  0  0  0  0
   37.0710   28.7100   41.1770 N   0  0  0  0  0  0  0  0  0  0  0  0
   37.4110   29.4770   42.3630 C   0  0  0  0  0  3  0  0  0  0  0  0
   36.6180   30.1380   42.7150 H   0  0  0  0  0  0  0  0  0  0  0  0
   37.9000   28.5080   43.4070 C   0  0  0  0  0  3  0  0  0  0  0  0
   37.8490   28.9460   44.4290 H   0  0  0  0  0  0  0  0  0  0  0  0
   37.1630   27.3280   43.4640 O   0  0  0  0  0  0  0  0  0  0  0  0
   37.3400   26.5800   42.2970 C   0  0  0  0  0  2  0  0  0  0  0  0
   36.7640   27.2940   41.1190 C   0  0  0  0  0  2  0  0  0  0  0  0
  1  2  1  0  0  0  0
  1  4  1  0  0  0  0
  2  3  2  0  0  0  0
  2 21  1  0  0  0  0
  5  8  1  6  0  0  0
  5  7  1  0  0  0  0
  5 13  1  0  0  0  0
  6 10  1  0  0  0  0
  6  5  1  0  0  0  0
  6  7  1  0  0  0  0
  7 11  1  6  0  0  0
  7  1  1  0  0  0  0
  9  6  1  0  0  0  0
 12 17  1  0  0  0  0
 13 12  2  0  0  0  0
 13 14  1  0  0  0  0
 14 15  2  0  0  0  0
 15 16  1  0  0  0  0
 16 20  1  0  0  0  0
 17 16  2  0  0  0  0
 18 12  1  0  0  0  0
 19 14  1  0  0  0  0
 21 23  1  0  0  0  0
 21 24  1  1  0  0  0
 22 25  1  0  0  0  0
 22 21  1  0  0  0  0
 22 23  1  0  0  0  0
 23 27  1  6  0  0  0
 23 28  1  0  0  0  0
 26 22  1  0  0  0  0
 28 30  1  0  0  0  0
 29 28  2  0  0  0  0
 30 31  1  0  0  0  0
 31 32  1  0  0  0  0
 31 33  1  0  0  0  0
 33 35  1  0  0  0  0
 33 34  1  0  0  0  0
 36 35  1  0  0  0  0
 37 30  1  0  0  0  0
 37 36  1  0  0  0  0
M  END
>  <minimizedAffinity>
-5.0340848

$$$$

 OpenBabel03242510243D

 37 40  0  0  1  0  0  0  0  0999 V2000
   38.8320   28.3180   41.5930 N   0  0  0  0  0  0  0  0  0  0  0  0
   37.7620   28.9790   40.9940 C   0  0  0  0  0  0  0  0  0  0  0  0
   36.5520   29.0460   41.3250 O   0  0  0  0  0  0  0  0  0  0  0  0
   39.4440   27.8500   40.8830 H   0  0  0  0  0  0  0  0  0  0  0  0
   39.0380   26.9670   43.6480 C   0  0  1  0  0  0  0  0  0  0  0  0
   40.3160   27.4850   43.3970 C   0  0  0  0  0  0  0  0  0  0  0  0
   39.0420   28.2940   42.9960 C   0  0  1  0  0  0  0  0  0  0  0  0
   38.5940   26.8910   44.6540 H   0  0  0  0  0  0  0  0  0  0  0  0
   40.8780   27.9580   44.2600 H   0  0  0  0  0  0  0  0  0  0  0  0
   41.0280   27.2660   42.5780 H   0  0  0  0  0  0  0  0  0  0  0  0
   38.9370   29.2250   43.5810 H   0  0  0  0  0  0  0  0  0  0  0  0
   37.1760   25.5870   42.4500 C   0  0  0  0  0  0  0  0  0  0  0  0
   38.5580   25.7950   42.7710 C   0  0  0  0  0  0  0  0  0  0  0  0
   39.4710   24.8830   42.2830 C   0  0  0  0  0  0  0  0  0  0  0  0
   39.0310   23.8500   41.5350 N   0  0  0  0  0  0  0  0  0  0  0  0
   37.7160   23.6630   41.2400 C   0  0  0  0  0  0  0  0  0  0  0  0
   36.7680   24.5690   41.7190 N   0  0  0  0  0  0  0  0  0  0  0  0
   36.4900   26.3140   42.8220 H   0  0  0  0  0  0  0  0  0  0  0  0
   40.5240   25.0060   42.5020 H   0  0  0  0  0  0  0  0  0  0  0  0
   37.4750   22.7990   40.6330 H   0  0  0  0  0  0  0  0  0  0  0  0
   38.0040   29.7810   39.7290 C   0  0  2  0  0  0  0  0  0  0  0  0
   37.9170   31.3470   39.8670 C   0  0  0  0  0  0  0  0  0  0  0  0
   36.9290   30.5450   39.0890 C   0  0  1  0  0  0  0  0  0  0  0  0
   38.9000   29.5230   39.1290 H   0  0  0  0  0  0  0  0  0  0  0  0
   38.6850   31.9440   39.3810 H   0  0  0  0  0  0  0  0  0  0  0  0
   37.6030   31.6430   40.9040 H   0  0  0  0  0  0  0  0  0  0  0  0
   35.8970   30.3970   39.4510 H   0  0  0  0  0  0  0  0  0  0  0  0
   36.9580   30.6680   37.5830 C   0  0  0  0  0  0  0  0  0  0  0  0
   37.6720   31.5130   37.0540 O   0  0  0  0  0  0  0  0  0  0  0  0
   36.1480   29.7970   36.7510 N   0  0  0  0  0  0  0  0  0  0  0  0
   36.4890   29.7660   35.3380 C   0  0  0  0  0  3  0  0  0  0  0  0
   37.4060   29.2230   35.1080 H   0  0  0  0  0  0  0  0  0  0  0  0
   35.2820   29.2640   34.5900 C   0  0  0  0  0  3  0  0  0  0  0  0
   35.5560   28.8840   33.5800 H   0  0  0  0  0  0  0  0  0  0  0  0
   34.6290   28.2120   35.2250 O   0  0  0  0  0  0  0  0  0  0  0  0
   34.0440   28.6440   36.4190 C   0  0  0  0  0  2  0  0  0  0  0  0
   35.0910   29.0480   37.4040 C   0  0  0  0  0  2  0  0  0  0  0  0
  1  7  1  0  0  0  0
  2  3  2  0  0  0  0
  2  1  1  0  0  0  0
  4  1  1  0  0  0  0
  5  8  1  1  0  0  0
  6  5  1  0  0  0  0
  6  9  1  0  0  0  0
  7  6  1  0  0  0  0
  7 11  1  1  0  0  0
  7  5  1  0  0  0  0
 10  6  1  0  0  0  0
 12 13  1  0  0  0  0
 12 18  1  0  0  0  0
 13  5  1  0  0  0  0
 14 19  1  0  0  0  0
 14 13  2  0  0  0  0
 15 14  1  0  0  0  0
 16 15  2  0  0  0  0
 16 17  1  0  0  0  0
 17 12  2  0  0  0  0
 20 16  1  0  0  0  0
 21 24  1  6  0  0  0
 21 22  1  0  0  0  0
 21  2  1  0  0  0  0
 22 26  1  0  0  0  0
 23 27  1  1  0  0  0
 23 21  1  0  0  0  0
 23 22  1  0  0  0  0
 25 22  1  0  0  0  0
 28 23  1  0  0  0  0
 29 28  2  0  0  0  0
 30 37  1  0  0  0  0
 30 28  1  0  0  0  0
 31 30  1  0  0  0  0
 32 31  1  0  0  0  0
 33 35  1  0  0  0  0
 33 31  1  0  0  0  0
 34 33  1  0  0  0  0
 35 36  1  0  0  0  0
 36 37  1  0  0  0  0
M  END
>  <minimizedAffinity>
-4.85440826

$$$$
