
 OpenBabel03242516533D

 44 47  0  0  1  0  0  0  0  0999 V2000
   47.5880   32.5540   41.3140 C   0  0  1  0  0  0  0  0  0  0  0  0
   46.9630   31.9390   40.1420 C   0  0  0  0  0  0  0  0  0  0  0  0
   47.8670   32.2630   38.9550 C   0  0  0  0  0  0  0  0  0  0  0  0
   47.7210   33.7390   38.6950 C   0  0  0  0  0  0  0  0  0  0  0  0
   47.9960   34.6040   39.8920 C   0  0  0  0  0  0  0  0  0  0  0  0
   47.6140   34.0840   41.2180 C   0  0  1  0  0  0  0  0  0  0  0  0
   48.6930   32.3000   41.3060 H   0  0  0  0  0  0  0  0  0  0  0  0
   45.9730   32.3600   39.8620 H   0  0  0  0  0  0  0  0  0  0  0  0
   46.8780   30.8580   40.2740 H   0  0  0  0  0  0  0  0  0  0  0  0
   48.9170   31.9750   39.1290 H   0  0  0  0  0  0  0  0  0  0  0  0
   47.4130   31.7310   38.0940 H   0  0  0  0  0  0  0  0  0  0  0  0
   46.6860   33.9030   38.3210 H   0  0  0  0  0  0  0  0  0  0  0  0
   48.3880   34.0340   37.8730 H   0  0  0  0  0  0  0  0  0  0  0  0
   47.4500   35.5640   39.7160 H   0  0  0  0  0  0  0  0  0  0  0  0
   49.0710   34.8940   39.8460 H   0  0  0  0  0  0  0  0  0  0  0  0
   48.3950   34.3980   41.9610 H   0  0  0  0  0  0  0  0  0  0  0  0
   45.3250   31.0450   43.9350 C   0  0  0  0  0  0  0  0  0  0  0  0
   45.8840   31.4490   42.7170 C   0  0  0  0  0  0  0  0  0  0  0  0
   47.0770   32.1670   42.6120 C   0  0  0  0  0  0  0  0  0  0  0  0
   47.6770   32.4600   43.7670 N   0  0  0  0  0  0  0  0  0  0  0  0
   47.1440   32.0730   44.9580 C   0  0  0  0  0  0  0  0  0  0  0  0
   45.9990   31.3840   45.0520 N   0  0  0  0  0  0  0  0  0  0  0  0
   44.3990   30.4920   43.9410 H   0  0  0  0  0  0  0  0  0  0  0  0
   45.3840   31.2050   41.7840 H   0  0  0  0  0  0  0  0  0  0  0  0
   47.6460   32.3200   45.8840 H   0  0  0  0  0  0  0  0  0  0  0  0
   46.3730   34.6770   41.7160 C   0  0  0  0  0  0  0  0  0  0  0  0
   46.2490   35.4640   42.8660 C   0  0  0  0  0  0  0  0  0  0  0  0
   44.9720   35.9430   43.1490 C   0  0  0  0  0  0  0  0  0  0  0  0
   43.9460   35.6060   42.2830 C   0  0  0  0  0  0  0  0  0  0  0  0
   44.0940   34.8280   41.1560 C   0  0  0  0  0  0  0  0  0  0  0  0
   45.3500   34.3670   40.8930 N   0  0  0  0  0  0  0  0  0  0  0  0
   47.1210   35.6380   43.4320 H   0  0  0  0  0  0  0  0  0  0  0  0
   44.8470   36.5540   44.0320 H   0  0  0  0  0  0  0  0  0  0  0  0
   42.9510   35.9730   42.4950 H   0  0  0  0  0  0  0  0  0  0  0  0
   42.9410   34.5320   40.3090 C   0  0  0  0  0  0  0  0  0  0  0  0
   42.6930   35.3000   39.3430 O   0  0  0  0  0  0  0  0  0  0  0  0
   41.9580   33.5090   40.3140 N   0  0  0  0  0  0  0  0  0  0  0  0
   42.1710   32.5680   41.4200 C   0  0  0  0  0  0  0  0  0  0  0  0
   42.7940   31.7040   41.0830 H   0  0  0  0  0  0  0  0  0  0  0  0
   40.7880   32.0050   41.7590 C   0  0  0  0  0  0  0  0  0  0  0  0
   40.5370   31.1300   41.1490 H   0  0  0  0  0  0  0  0  0  0  0  0
   39.8370   33.0110   41.6980 O   0  0  0  0  0  0  0  0  0  0  0  0
   39.5750   33.4000   40.3800 C   0  0  0  0  0  0  0  0  0  0  0  0
   40.7830   33.1270   39.5130 C   0  0  0  0  0  0  0  0  0  0  0  0
  1  7  1  6  0  0  0
  1 19  1  0  0  0  0
  2  9  1  0  0  0  0
  2  1  1  0  0  0  0
  3 10  1  0  0  0  0
  3  2  1  0  0  0  0
  4  3  1  0  0  0  0
  4  5  1  0  0  0  0
  5  6  1  0  0  0  0
  6  1  1  0  0  0  0
  6 26  1  0  0  0  0
  6 16  1  1  0  0  0
  8  2  1  0  0  0  0
 11  3  1  0  0  0  0
 12  4  1  0  0  0  0
 13  4  1  0  0  0  0
 14  5  1  0  0  0  0
 15  5  1  0  0  0  0
 17 23  1  0  0  0  0
 17 22  1  0  0  0  0
 18 17  2  0  0  0  0
 19 18  1  0  0  0  0
 19 20  2  0  0  0  0
 20 21  1  0  0  0  0
 21 22  2  0  0  0  0
 21 25  1  0  0  0  0
 24 18  1  0  0  0  0
 26 27  1  0  0  0  0
 27 28  2  0  0  0  0
 27 32  1  0  0  0  0
 28 33  1  0  0  0  0
 29 34  1  0  0  0  0
 29 28  1  0  0  0  0
 30 29  2  0  0  0  0
 31 30  1  0  0  0  0
 31 26  2  0  0  0  0
 35 37  1  0  0  0  0
 35 30  1  0  0  0  0
 36 35  2  0  0  0  0
 37 38  1  0  0  0  0
 38 40  1  0  0  0  0
 39 38  1  0  0  0  0
 41 40  1  0  0  0  0
 42 40  1  0  0  0  0
 43 42  1  0  0  0  0
 44 37  1  0  0  0  0
 44 43  1  0  0  0  0
M  END
>  <minimizedAffinity>
-5.85333967

>  <minimizedRMSD>
1.52894843

$$$$
