
 OpenBabel03242516523D

 44 47  0  0  1  0  0  0  0  0999 V2000
   47.7810   32.7820   41.6250 C   0  0  1  0  0  0  0  0  0  0  0  0
   47.3450   32.1030   40.4040 C   0  0  0  0  0  0  0  0  0  0  0  0
   48.3240   32.5200   39.3090 C   0  0  0  0  0  0  0  0  0  0  0  0
   48.0500   33.9710   39.0190 C   0  0  0  0  0  0  0  0  0  0  0  0
   48.1120   34.8610   40.2270 C   0  0  0  0  0  0  0  0  0  0  0  0
   47.6560   34.3060   41.5140 C   0  0  1  0  0  0  0  0  0  0  0  0
   48.9020   32.6460   41.7300 H   0  0  0  0  0  0  0  0  0  0  0  0
   46.3490   32.4170   40.0220 H   0  0  0  0  0  0  0  0  0  0  0  0
   47.3600   31.0200   40.5390 H   0  0  0  0  0  0  0  0  0  0  0  0
   49.3760   32.3430   39.5900 H   0  0  0  0  0  0  0  0  0  0  0  0
   48.0160   31.9410   38.4130 H   0  0  0  0  0  0  0  0  0  0  0  0
   47.0470   34.0240   38.5420 H   0  0  0  0  0  0  0  0  0  0  0  0
   48.7620   34.3340   38.2640 H   0  0  0  0  0  0  0  0  0  0  0  0
   47.4890   35.7590   39.9860 H   0  0  0  0  0  0  0  0  0  0  0  0
   49.1500   35.2630   40.2850 H   0  0  0  0  0  0  0  0  0  0  0  0
   48.3220   34.7010   42.3280 H   0  0  0  0  0  0  0  0  0  0  0  0
   45.4500   31.0290   44.0260 C   0  0  0  0  0  0  0  0  0  0  0  0
   46.0820   31.4890   42.8650 C   0  0  0  0  0  0  0  0  0  0  0  0
   47.1860   32.3450   42.8700 C   0  0  0  0  0  0  0  0  0  0  0  0
   47.6220   32.7150   44.0750 N   0  0  0  0  0  0  0  0  0  0  0  0
   47.0160   32.2750   45.2120 C   0  0  0  0  0  0  0  0  0  0  0  0
   45.9580   31.4530   45.2000 N   0  0  0  0  0  0  0  0  0  0  0  0
   44.6010   30.3690   43.9460 H   0  0  0  0  0  0  0  0  0  0  0  0
   45.7160   31.1800   41.8900 H   0  0  0  0  0  0  0  0  0  0  0  0
   47.3850   32.5860   46.1800 H   0  0  0  0  0  0  0  0  0  0  0  0
   46.3160   34.7650   41.8790 C   0  0  0  0  0  0  0  0  0  0  0  0
   45.9890   35.4950   43.0280 C   0  0  0  0  0  0  0  0  0  0  0  0
   44.6480   35.8450   43.1720 C   0  0  0  0  0  0  0  0  0  0  0  0
   43.7640   35.4490   42.1830 C   0  0  0  0  0  0  0  0  0  0  0  0
   44.1110   34.7310   41.0610 C   0  0  0  0  0  0  0  0  0  0  0  0
   45.4270   34.3950   40.9350 N   0  0  0  0  0  0  0  0  0  0  0  0
   46.7710   35.7250   43.6960 H   0  0  0  0  0  0  0  0  0  0  0  0
   44.3670   36.4090   44.0500 H   0  0  0  0  0  0  0  0  0  0  0  0
   42.7210   35.7170   42.2870 H   0  0  0  0  0  0  0  0  0  0  0  0
   43.0960   34.3630   40.0780 C   0  0  0  0  0  0  0  0  0  0  0  0
   42.5860   35.2730   39.3720 O   0  0  0  0  0  0  0  0  0  0  0  0
   42.4990   33.1330   39.6970 N   0  0  0  0  0  0  0  0  0  0  0  0
   41.7910   33.2580   38.4180 C   0  0  0  0  0  3  0  0  0  0  0  0
   40.7160   33.5070   38.5890 H   0  0  0  0  0  0  0  0  0  0  0  0
   41.8210   31.8620   37.7890 C   0  0  0  0  0  3  0  0  0  0  0  0
   40.9800   31.2420   38.1200 H   0  0  0  0  0  0  0  0  0  0  0  0
   43.0580   31.2710   38.0000 O   0  0  0  0  0  0  0  0  0  0  0  0
   43.2320   30.8920   39.3350 C   0  0  0  0  0  2  0  0  0  0  0  0
   42.3860   31.7670   40.2340 C   0  0  0  0  0  2  0  0  0  0  0  0
  1  7  1  1  0  0  0
  1 19  1  0  0  0  0
  2  9  1  0  0  0  0
  2  1  1  0  0  0  0
  3 10  1  0  0  0  0
  3  2  1  0  0  0  0
  4  3  1  0  0  0  0
  4  5  1  0  0  0  0
  5 15  1  0  0  0  0
  5  6  1  0  0  0  0
  6  1  1  0  0  0  0
  6 26  1  0  0  0  0
  6 16  1  1  0  0  0
  8  2  1  0  0  0  0
 11  3  1  0  0  0  0
 12  4  1  0  0  0  0
 13  4  1  0  0  0  0
 14  5  1  0  0  0  0
 17 22  1  0  0  0  0
 18 19  1  0  0  0  0
 18 17  2  0  0  0  0
 19 20  2  0  0  0  0
 20 21  1  0  0  0  0
 21 25  1  0  0  0  0
 22 21  2  0  0  0  0
 23 17  1  0  0  0  0
 24 18  1  0  0  0  0
 26 27  1  0  0  0  0
 27 28  2  0  0  0  0
 27 32  1  0  0  0  0
 28 33  1  0  0  0  0
 29 34  1  0  0  0  0
 29 28  1  0  0  0  0
 30 29  2  0  0  0  0
 31 30  1  0  0  0  0
 31 26  2  0  0  0  0
 35 30  1  0  0  0  0
 36 35  2  0  0  0  0
 37 35  1  0  0  0  0
 37 44  1  0  0  0  0
 38 39  1  0  0  0  0
 38 37  1  0  0  0  0
 40 42  1  0  0  0  0
 40 41  1  0  0  0  0
 40 38  1  0  0  0  0
 42 43  1  0  0  0  0
 43 44  1  0  0  0  0
M  END
>  <minimizedAffinity>
-5.54092741

>  <minimizedRMSD>
0.707524776

$$$$
