
 OpenBabel03242523163D

 26 28  0  0  0  0  0  0  0  0999 V2000
   46.1690   34.3700   43.7230 C   0  0  0  0  0  0  0  0  0  0  0  0
   47.3190   33.8000   43.2830 C   0  0  0  0  0  0  0  0  0  0  0  0
   47.8000   32.7600   44.0640 C   0  0  0  0  0  0  0  0  0  0  0  0
   47.0760   32.4030   45.2040 N   0  0  0  0  0  0  0  0  0  0  0  0
   45.9620   33.0040   45.5720 C   0  0  0  0  0  0  0  0  0  0  0  0
   45.4520   34.0420   44.8230 N   0  0  0  0  0  0  0  0  0  0  0  0
   48.7020   32.2440   43.8010 H   0  0  0  0  0  0  0  0  0  0  0  0
   45.5870   32.5560   46.4820 H   0  0  0  0  0  0  0  0  0  0  0  0
   45.3940   35.4020   43.0620 C   0  0  0  0  0  0  0  0  0  0  0  0
   45.0350   36.5080   42.7660 O   0  0  0  0  0  0  0  0  0  0  0  0
   44.3930   34.8210   42.1760 N   0  0  0  0  0  0  0  0  0  0  0  0
   43.2210   35.6270   42.0350 C   0  0  0  0  0  3  0  0  0  0  0  0
   43.5280   36.6020   41.5870 H   0  0  0  0  0  0  0  0  0  0  0  0
   42.1560   35.0050   41.1810 C   0  0  0  0  0  3  0  0  0  0  0  0
   41.3190   35.7130   41.0180 H   0  0  0  0  0  0  0  0  0  0  0  0
   42.6090   34.5050   39.9940 O   0  0  0  0  0  0  0  0  0  0  0  0
   43.8860   34.0140   39.9750 C   0  0  0  0  0  2  0  0  0  0  0  0
   44.2510   33.6220   41.3750 C   0  0  0  0  0  2  0  0  0  0  0  0
   48.0900   34.2090   42.1690 C   0  0  0  0  0  0  0  0  0  0  0  0
   48.3680   35.4440   41.6840 C   0  0  0  0  0  0  0  0  0  0  0  0
   49.5410   34.8000   42.4250 C   0  0  0  0  0  0  0  0  0  0  0  0
   48.4240   33.2370   41.5920 H   0  0  0  0  0  0  0  0  0  0  0  0
   47.9350   36.3870   42.1140 H   0  0  0  0  0  0  0  0  0  0  0  0
   48.5820   35.6220   40.5870 H   0  0  0  0  0  0  0  0  0  0  0  0
   49.6550   35.1940   43.4560 H   0  0  0  0  0  0  0  0  0  0  0  0
   50.3740   34.4500   41.8450 H   0  0  0  0  0  0  0  0  0  0  0  0
  1  6  1  0  0  0  0
  2  1  2  0  0  0  0
  2  3  1  0  0  0  0
  3  4  2  0  0  0  0
  4  5  1  0  0  0  0
  5  8  1  0  0  0  0
  6  5  2  0  0  0  0
  7  3  1  0  0  0  0
  9  1  1  0  0  0  0
 10  9  2  0  0  0  0
 11  9  1  0  0  0  0
 12 11  1  0  0  0  0
 13 12  1  0  0  0  0
 14 12  1  0  0  0  0
 15 14  1  0  0  0  0
 16 14  1  0  0  0  0
 17 16  1  0  0  0  0
 17 18  1  0  0  0  0
 18 11  1  0  0  0  0
 19 21  1  0  0  0  0
 19  2  1  0  0  0  0
 20 23  1  0  0  0  0
 20 19  1  0  0  0  0
 20 21  1  0  0  0  0
 21 25  1  0  0  0  0
 22 19  1  0  0  0  0
 24 20  1  0  0  0  0
 26 21  1  0  0  0  0
M  END
>  <minimizedAffinity>
-4.76673031

>  <minimizedRMSD>
1.04277027

$$$$
