
 OpenBabel03252507163D

 28 30  0  0  0  0  0  0  0  0999 V2000
   44.3010   35.5780   43.3560 C   0  0  0  0  0  0  0  0  0  0  0  0
   44.9710   34.3700   43.0400 C   0  0  0  0  0  0  0  0  0  0  0  0
   45.5130   33.6500   44.1030 C   0  0  0  0  0  0  0  0  0  0  0  0
   45.3890   34.1120   45.3620 N   0  0  0  0  0  0  0  0  0  0  0  0
   44.7340   35.2850   45.6310 C   0  0  0  0  0  0  0  0  0  0  0  0
   44.2150   35.9760   44.6250 N   0  0  0  0  0  0  0  0  0  0  0  0
   43.8710   36.1520   42.5350 H   0  0  0  0  0  0  0  0  0  0  0  0
   44.6300   35.6600   46.6320 H   0  0  0  0  0  0  0  0  0  0  0  0
   46.2060   32.4060   43.7970 C   0  0  0  0  0  0  0  0  0  0  0  0
   45.5260   31.2140   43.8090 C   0  0  0  0  0  0  0  0  0  0  0  0
   46.2300   30.0640   43.5110 C   0  0  0  0  0  0  0  0  0  0  0  0
   47.5820   30.0470   43.2020 C   0  0  0  0  0  0  0  0  0  0  0  0
   48.2040   31.2710   43.2080 C   0  0  0  0  0  0  0  0  0  0  0  0
   47.5160   32.3940   43.4980 N   0  0  0  0  0  0  0  0  0  0  0  0
   44.4710   31.2090   44.0470 H   0  0  0  0  0  0  0  0  0  0  0  0
   45.6230   29.1580   43.5410 H   0  0  0  0  0  0  0  0  0  0  0  0
   48.0470   29.1020   42.9830 H   0  0  0  0  0  0  0  0  0  0  0  0
   49.2650   31.2940   42.9690 H   0  0  0  0  0  0  0  0  0  0  0  0
   45.0660   33.9420   41.6910 C   0  0  0  0  0  0  0  0  0  0  0  0
   46.1760   34.0480   41.1170 O   0  0  0  0  0  0  0  0  0  0  0  0
   43.9840   33.3980   40.9430 N   0  0  0  0  0  0  0  0  0  0  0  0
   43.5210   34.0390   39.7230 C   0  0  0  0  0  3  0  0  0  0  0  0
   44.1870   34.8820   39.5070 H   0  0  0  0  0  0  0  0  0  0  0  0
   42.1180   34.5450   40.0420 C   0  0  0  0  0  3  0  0  0  0  0  0
   42.2710   35.5800   40.4680 H   0  0  0  0  0  0  0  0  0  0  0  0
   41.5210   33.8100   41.0330 O   0  0  0  0  0  0  0  0  0  0  0  0
   41.8060   32.4690   41.0520 C   0  0  0  0  0  2  0  0  0  0  0  0
   43.2790   32.1910   41.3380 C   0  0  0  0  0  2  0  0  0  0  0  0
  1  6  1  0  0  0  0
  2  1  2  0  0  0  0
  2  3  1  0  0  0  0
  3  4  2  0  0  0  0
  4  5  1  0  0  0  0
  5  8  1  0  0  0  0
  6  5  2  0  0  0  0
  7  1  1  0  0  0  0
  9 10  1  0  0  0  0
  9  3  1  0  0  0  0
 10 15  1  0  0  0  0
 11 16  1  0  0  0  0
 11 10  2  0  0  0  0
 12 13  2  0  0  0  0
 12 11  1  0  0  0  0
 13 14  1  0  0  0  0
 14  9  2  0  0  0  0
 17 12  1  0  0  0  0
 18 13  1  0  0  0  0
 19  2  1  0  0  0  0
 20 19  2  0  0  0  0
 21 28  1  0  0  0  0
 21 19  1  0  0  0  0
 22 24  1  0  0  0  0
 22 21  1  0  0  0  0
 23 22  1  0  0  0  0
 24 25  1  0  0  0  0
 24 26  1  0  0  0  0
 26 27  1  0  0  0  0
 27 28  1  0  0  0  0
M  END
>  <minimizedAffinity>
-4.17926025

>  <minimizedRMSD>
1.45159876

$$$$
