
 OpenBabel03242515003D

 36 38  0  0  0  0  0  0  0  0999 V2000
   43.8040   34.8530   40.8770 S   0  0  0  0  0  0  0  0  0  0  0  0
   45.0150   34.5550   42.1660 C   0  0  0  0  0  0  0  0  0  0  0  0
   46.3600   34.5220   41.7650 C   0  0  0  0  0  0  0  0  0  0  0  0
   47.3390   34.2930   42.7310 C   0  0  0  0  0  0  0  0  0  0  0  0
   46.9310   34.1140   44.0060 N   0  0  0  0  0  0  0  0  0  0  0  0
   45.6450   34.1460   44.3890 C   0  0  0  0  0  0  0  0  0  0  0  0
   44.7060   34.3670   43.4530 N   0  0  0  0  0  0  0  0  0  0  0  0
   46.7090   34.6620   40.7500 H   0  0  0  0  0  0  0  0  0  0  0  0
   48.3820   34.2630   42.4490 H   0  0  0  0  0  0  0  0  0  0  0  0
   45.3120   33.9430   45.7810 C   0  0  0  0  0  0  0  0  0  0  0  0
   44.7380   34.8660   46.4050 O   0  0  0  0  0  0  0  0  0  0  0  0
   45.5740   32.7700   46.5420 N   0  0  0  0  0  0  0  0  0  0  0  0
   46.5160   31.8170   45.9840 C   0  0  0  0  0  3  0  0  0  0  0  0
   47.0200   32.1980   45.0970 H   0  0  0  0  0  0  0  0  0  0  0  0
   47.5800   31.6020   47.0600 C   0  0  0  0  0  3  0  0  0  0  0  0
   48.1490   30.7010   46.7480 H   0  0  0  0  0  0  0  0  0  0  0  0
   47.0370   31.3200   48.2890 O   0  0  0  0  0  0  0  0  0  0  0  0
   46.1790   32.2720   48.7780 C   0  0  0  0  0  2  0  0  0  0  0  0
   44.9870   32.4330   47.8250 C   0  0  0  0  0  2  0  0  0  0  0  0
   42.1320   34.9420   41.5120 C   0  0  0  0  0  0  0  0  0  0  0  0
   41.6500   33.9240   41.4420 H   0  0  0  0  0  0  0  0  0  0  0  0
   42.1040   35.1940   42.6090 H   0  0  0  0  0  0  0  0  0  0  0  0
   41.2570   35.9080   40.7860 C   0  0  0  0  0  0  0  0  0  0  0  0
   40.6260   36.4830   41.5220 H   0  0  0  0  0  0  0  0  0  0  0  0
   41.8390   36.6640   40.2210 H   0  0  0  0  0  0  0  0  0  0  0  0
   42.0410   36.1000   37.8490 Cl  0  0  0  0  0  0  0  0  0  0  0  0
   40.6480   35.2540   38.4380 C   0  0  0  0  0  0  0  0  0  0  0  0
   40.3790   35.2280   39.8130 C   0  0  0  0  0  0  0  0  0  0  0  0
   39.2530   34.5340   40.1990 C   0  0  0  0  0  0  0  0  0  0  0  0
   38.3640   33.8630   39.3720 C   0  0  0  0  0  0  0  0  0  0  0  0
   38.6570   33.9060   38.0160 C   0  0  0  0  0  0  0  0  0  0  0  0
   37.5810   33.0800   36.8940 Cl  0  0  0  0  0  0  0  0  0  0  0  0
   39.7710   34.5860   37.5770 C   0  0  0  0  0  0  0  0  0  0  0  0
   39.0360   34.5090   41.2660 H   0  0  0  0  0  0  0  0  0  0  0  0
   37.5110   33.3510   39.7950 H   0  0  0  0  0  0  0  0  0  0  0  0
   39.9730   34.6020   36.5080 H   0  0  0  0  0  0  0  0  0  0  0  0
  1 20  1  0  0  0  0
  1  2  1  0  0  0  0
  2  7  1  0  0  0  0
  3  2  2  0  0  0  0
  3  4  1  0  0  0  0
  4  5  2  0  0  0  0
  5  6  1  0  0  0  0
  6 10  1  0  0  0  0
  7  6  2  0  0  0  0
  8  3  1  0  0  0  0
  9  4  1  0  0  0  0
 10 11  2  0  0  0  0
 10 12  1  0  0  0  0
 12 19  1  0  0  0  0
 13 12  1  0  0  0  0
 13 15  1  0  0  0  0
 14 13  1  0  0  0  0
 15 17  1  0  0  0  0
 16 15  1  0  0  0  0
 17 18  1  0  0  0  0
 19 18  1  0  0  0  0
 20 22  1  0  0  0  0
 21 20  1  0  0  0  0
 23 20  1  0  0  0  0
 23 24  1  0  0  0  0
 25 23  1  0  0  0  0
 26 27  1  0  0  0  0
 27 28  1  0  0  0  0
 28 29  2  0  0  0  0
 28 23  1  0  0  0  0
 29 34  1  0  0  0  0
 30 35  1  0  0  0  0
 30 29  1  0  0  0  0
 31 30  2  0  0  0  0
 32 31  1  0  0  0  0
 33 31  1  0  0  0  0
 33 27  2  0  0  0  0
 36 33  1  0  0  0  0
M  END
>  <minimizedAffinity>
-6.70173645

>  <minimizedRMSD>
0.608409524

$$$$
