
 OpenBabel03242515013D

 36 38  0  0  0  0  0  0  0  0999 V2000
   44.0440   34.7360   40.9400 S   0  0  0  0  0  0  0  0  0  0  0  0
   45.2500   34.3820   42.2190 C   0  0  0  0  0  0  0  0  0  0  0  0
   46.5980   34.3850   41.8250 C   0  0  0  0  0  0  0  0  0  0  0  0
   47.5740   34.1160   42.7830 C   0  0  0  0  0  0  0  0  0  0  0  0
   47.1610   33.8650   44.0440 N   0  0  0  0  0  0  0  0  0  0  0  0
   45.8730   33.8630   44.4210 C   0  0  0  0  0  0  0  0  0  0  0  0
   44.9360   34.1230   43.4920 N   0  0  0  0  0  0  0  0  0  0  0  0
   46.9510   34.5830   40.8210 H   0  0  0  0  0  0  0  0  0  0  0  0
   48.6190   34.1110   42.5060 H   0  0  0  0  0  0  0  0  0  0  0  0
   45.5340   33.5830   45.7970 C   0  0  0  0  0  0  0  0  0  0  0  0
   44.8120   34.3980   46.4200 O   0  0  0  0  0  0  0  0  0  0  0  0
   45.9450   32.4450   46.5460 N   0  0  0  0  0  0  0  0  0  0  0  0
   47.3220   32.4180   47.0030 C   0  0  0  0  0  3  0  0  0  0  0  0
   47.8400   33.3600   46.8300 H   0  0  0  0  0  0  0  0  0  0  0  0
   47.2560   32.2010   48.5150 C   0  0  0  0  0  3  0  0  0  0  0  0
   48.2870   31.9280   48.8280 H   0  0  0  0  0  0  0  0  0  0  0  0
   46.4460   31.1490   48.8640 O   0  0  0  0  0  0  0  0  0  0  0  0
   45.1490   31.2470   48.4290 C   0  0  0  0  0  2  0  0  0  0  0  0
   45.1180   31.3060   46.8970 C   0  0  0  0  0  2  0  0  0  0  0  0
   42.3660   34.7570   41.5650 C   0  0  0  0  0  0  0  0  0  0  0  0
   41.8930   33.7450   41.4020 H   0  0  0  0  0  0  0  0  0  0  0  0
   42.3270   34.9130   42.6790 H   0  0  0  0  0  0  0  0  0  0  0  0
   41.4890   35.7760   40.9180 C   0  0  0  0  0  0  0  0  0  0  0  0
   40.9010   36.3310   41.7030 H   0  0  0  0  0  0  0  0  0  0  0  0
   42.0680   36.5440   40.3660 H   0  0  0  0  0  0  0  0  0  0  0  0
   42.2050   36.0230   37.9680 Cl  0  0  0  0  0  0  0  0  0  0  0  0
   40.7930   35.2180   38.5700 C   0  0  0  0  0  0  0  0  0  0  0  0
   40.5580   35.1630   39.9500 C   0  0  0  0  0  0  0  0  0  0  0  0
   39.4140   34.5060   40.3460 C   0  0  0  0  0  0  0  0  0  0  0  0
   38.4760   33.8970   39.5240 C   0  0  0  0  0  0  0  0  0  0  0  0
   38.7350   33.9690   38.1620 C   0  0  0  0  0  0  0  0  0  0  0  0
   37.5970   33.2230   37.0470 Cl  0  0  0  0  0  0  0  0  0  0  0  0
   39.8660   34.6140   37.7140 C   0  0  0  0  0  0  0  0  0  0  0  0
   39.2240   34.4580   41.4170 H   0  0  0  0  0  0  0  0  0  0  0  0
   37.6130   33.4100   39.9550 H   0  0  0  0  0  0  0  0  0  0  0  0
   40.0410   34.6530   36.6400 H   0  0  0  0  0  0  0  0  0  0  0  0
  1 20  1  0  0  0  0
  1  2  1  0  0  0  0
  2  7  1  0  0  0  0
  3  2  2  0  0  0  0
  3  4  1  0  0  0  0
  4  5  2  0  0  0  0
  5  6  1  0  0  0  0
  6 10  1  0  0  0  0
  7  6  2  0  0  0  0
  8  3  1  0  0  0  0
  9  4  1  0  0  0  0
 10 11  2  0  0  0  0
 10 12  1  0  0  0  0
 12 19  1  0  0  0  0
 12 13  1  0  0  0  0
 13 15  1  0  0  0  0
 14 13  1  0  0  0  0
 15 16  1  0  0  0  0
 15 17  1  0  0  0  0
 18 17  1  0  0  0  0
 19 18  1  0  0  0  0
 20 22  1  0  0  0  0
 21 20  1  0  0  0  0
 23 20  1  0  0  0  0
 23 24  1  0  0  0  0
 25 23  1  0  0  0  0
 26 27  1  0  0  0  0
 27 28  1  0  0  0  0
 28 29  2  0  0  0  0
 28 23  1  0  0  0  0
 29 34  1  0  0  0  0
 30 35  1  0  0  0  0
 30 29  1  0  0  0  0
 31 30  2  0  0  0  0
 32 31  1  0  0  0  0
 33 31  1  0  0  0  0
 33 27  2  0  0  0  0
 36 33  1  0  0  0  0
M  END
>  <minimizedAffinity>
-6.51702785

>  <minimizedRMSD>
0.736862481

$$$$
