
 OpenBabel03252507163D

 28 30  0  0  0  0  0  0  0  0999 V2000
   45.7750   36.2250   43.0460 C   0  0  0  0  0  0  0  0  0  0  0  0
   46.2010   34.8760   43.1290 C   0  0  0  0  0  0  0  0  0  0  0  0
   45.6910   34.1140   44.1770 C   0  0  0  0  0  0  0  0  0  0  0  0
   44.8320   34.6670   45.0560 N   0  0  0  0  0  0  0  0  0  0  0  0
   44.4410   35.9750   44.9450 C   0  0  0  0  0  0  0  0  0  0  0  0
   44.9230   36.7080   43.9500 N   0  0  0  0  0  0  0  0  0  0  0  0
   46.1660   36.8340   42.2300 H   0  0  0  0  0  0  0  0  0  0  0  0
   43.7570   36.4230   45.6420 H   0  0  0  0  0  0  0  0  0  0  0  0
   46.1190   32.7260   44.2790 C   0  0  0  0  0  0  0  0  0  0  0  0
   45.4850   31.7510   43.5500 C   0  0  0  0  0  0  0  0  0  0  0  0
   45.9310   30.4510   43.6830 C   0  0  0  0  0  0  0  0  0  0  0  0
   46.9790   30.0770   44.5090 C   0  0  0  0  0  0  0  0  0  0  0  0
   47.5700   31.0980   45.2110 C   0  0  0  0  0  0  0  0  0  0  0  0
   47.1350   32.3680   45.0810 N   0  0  0  0  0  0  0  0  0  0  0  0
   44.6660   32.0250   42.9000 H   0  0  0  0  0  0  0  0  0  0  0  0
   45.3780   29.7330   43.0730 H   0  0  0  0  0  0  0  0  0  0  0  0
   47.2570   29.0380   44.5490 H   0  0  0  0  0  0  0  0  0  0  0  0
   48.3970   30.8390   45.8690 H   0  0  0  0  0  0  0  0  0  0  0  0
   47.1090   34.3580   42.1700 C   0  0  0  0  0  0  0  0  0  0  0  0
   48.2780   34.1030   42.5430 O   0  0  0  0  0  0  0  0  0  0  0  0
   46.7790   34.1050   40.8080 N   0  0  0  0  0  0  0  0  0  0  0  0
   45.4260   33.7410   40.4210 C   0  0  0  0  0  3  0  0  0  0  0  0
   44.7900   33.7920   41.3120 H   0  0  0  0  0  0  0  0  0  0  0  0
   45.5240   32.3020   39.9250 C   0  0  0  0  0  3  0  0  0  0  0  0
   45.3780   31.6660   40.8460 H   0  0  0  0  0  0  0  0  0  0  0  0
   46.7760   32.0080   39.4520 O   0  0  0  0  0  0  0  0  0  0  0  0
   47.4380   33.0200   38.8070 C   0  0  0  0  0  2  0  0  0  0  0  0
   47.7500   34.1930   39.7320 C   0  0  0  0  0  2  0  0  0  0  0  0
  1  2  2  0  0  0  0
  1  6  1  0  0  0  0
  2  3  1  0  0  0  0
  3  9  1  0  0  0  0
  3  4  2  0  0  0  0
  5  4  1  0  0  0  0
  5  8  1  0  0  0  0
  6  5  2  0  0  0  0
  7  1  1  0  0  0  0
  9 14  1  0  0  0  0
 10 11  1  0  0  0  0
 10  9  2  0  0  0  0
 11 12  2  0  0  0  0
 12 17  1  0  0  0  0
 12 13  1  0  0  0  0
 13 18  1  0  0  0  0
 14 13  2  0  0  0  0
 15 10  1  0  0  0  0
 16 11  1  0  0  0  0
 19 20  2  0  0  0  0
 19  2  1  0  0  0  0
 21 19  1  0  0  0  0
 22 21  1  0  0  0  0
 22 23  1  0  0  0  0
 24 22  1  0  0  0  0
 24 25  1  0  0  0  0
 26 24  1  0  0  0  0
 27 26  1  0  0  0  0
 27 28  1  0  0  0  0
 28 21  1  0  0  0  0
M  END
>  <minimizedAffinity>
-4.14865017

>  <minimizedRMSD>
1.04001904

$$$$
