
 OpenBabel03242515013D

 36 38  0  0  0  0  0  0  0  0999 V2000
   44.0410   34.6690   40.8780 S   0  0  0  0  0  0  0  0  0  0  0  0
   45.2810   34.3700   42.1380 C   0  0  0  0  0  0  0  0  0  0  0  0
   46.6210   34.4970   41.7390 C   0  0  0  0  0  0  0  0  0  0  0  0
   47.6230   34.2750   42.6840 C   0  0  0  0  0  0  0  0  0  0  0  0
   47.2400   33.9470   43.9370 N   0  0  0  0  0  0  0  0  0  0  0  0
   45.9590   33.8270   44.3180 C   0  0  0  0  0  0  0  0  0  0  0  0
   44.9980   34.0420   43.4030 N   0  0  0  0  0  0  0  0  0  0  0  0
   46.9500   34.7580   40.7420 H   0  0  0  0  0  0  0  0  0  0  0  0
   48.6630   34.3660   42.4020 H   0  0  0  0  0  0  0  0  0  0  0  0
   45.6540   33.4730   45.6850 C   0  0  0  0  0  0  0  0  0  0  0  0
   44.8910   34.2160   46.3470 O   0  0  0  0  0  0  0  0  0  0  0  0
   46.1410   32.3330   46.3840 N   0  0  0  0  0  0  0  0  0  0  0  0
   47.1800   32.5590   47.3700 C   0  0  0  0  0  3  0  0  0  0  0  0
   47.3610   33.6160   47.5550 H   0  0  0  0  0  0  0  0  0  0  0  0
   46.6610   31.9480   48.6730 C   0  0  0  0  0  3  0  0  0  0  0  0
   47.5360   31.8890   49.3520 H   0  0  0  0  0  0  0  0  0  0  0  0
   46.2020   30.6640   48.5080 O   0  0  0  0  0  0  0  0  0  0  0  0
   45.1990   30.5200   47.5850 C   0  0  0  0  0  2  0  0  0  0  0  0
   45.6970   30.9630   46.2030 C   0  0  0  0  0  2  0  0  0  0  0  0
   42.3840   34.7510   41.5500 C   0  0  0  0  0  0  0  0  0  0  0  0
   41.8800   33.7480   41.4300 H   0  0  0  0  0  0  0  0  0  0  0  0
   42.3810   34.9390   42.6600 H   0  0  0  0  0  0  0  0  0  0  0  0
   41.5140   35.7740   40.8990 C   0  0  0  0  0  0  0  0  0  0  0  0
   40.9320   36.3380   41.6820 H   0  0  0  0  0  0  0  0  0  0  0  0
   42.0980   36.5330   40.3410 H   0  0  0  0  0  0  0  0  0  0  0  0
   42.2030   36.0370   37.9440 Cl  0  0  0  0  0  0  0  0  0  0  0  0
   40.7980   35.2260   38.5540 C   0  0  0  0  0  0  0  0  0  0  0  0
   40.5760   35.1630   39.9360 C   0  0  0  0  0  0  0  0  0  0  0  0
   39.4370   34.5010   40.3390 C   0  0  0  0  0  0  0  0  0  0  0  0
   38.4940   33.8940   39.5230 C   0  0  0  0  0  0  0  0  0  0  0  0
   38.7410   33.9730   38.1590 C   0  0  0  0  0  0  0  0  0  0  0  0
   37.5940   33.2290   37.0500 Cl  0  0  0  0  0  0  0  0  0  0  0  0
   39.8650   34.6230   37.7030 C   0  0  0  0  0  0  0  0  0  0  0  0
   39.2560   34.4470   41.4110 H   0  0  0  0  0  0  0  0  0  0  0  0
   37.6350   33.4010   39.9590 H   0  0  0  0  0  0  0  0  0  0  0  0
   40.0310   34.6690   36.6280 H   0  0  0  0  0  0  0  0  0  0  0  0
  1 20  1  0  0  0  0
  1  2  1  0  0  0  0
  2  7  1  0  0  0  0
  3  2  2  0  0  0  0
  3  4  1  0  0  0  0
  4  5  2  0  0  0  0
  5  6  1  0  0  0  0
  6 10  1  0  0  0  0
  7  6  2  0  0  0  0
  8  3  1  0  0  0  0
  9  4  1  0  0  0  0
 10 11  2  0  0  0  0
 10 12  1  0  0  0  0
 12 13  1  0  0  0  0
 13 14  1  0  0  0  0
 13 15  1  0  0  0  0
 15 16  1  0  0  0  0
 17 15  1  0  0  0  0
 18 17  1  0  0  0  0
 19 12  1  0  0  0  0
 19 18  1  0  0  0  0
 20 22  1  0  0  0  0
 21 20  1  0  0  0  0
 23 20  1  0  0  0  0
 23 24  1  0  0  0  0
 25 23  1  0  0  0  0
 26 27  1  0  0  0  0
 27 28  1  0  0  0  0
 28 29  2  0  0  0  0
 28 23  1  0  0  0  0
 29 34  1  0  0  0  0
 30 35  1  0  0  0  0
 30 29  1  0  0  0  0
 31 30  2  0  0  0  0
 32 31  1  0  0  0  0
 33 31  1  0  0  0  0
 33 27  2  0  0  0  0
 36 33  1  0  0  0  0
M  END
>  <minimizedAffinity>
-6.82397032

>  <minimizedRMSD>
0.797968686

$$$$
