
 OpenBabel03242518513D

 22 23  0  0  0  0  0  0  0  0999 V2000
   37.1960   28.2240   43.6800 C   0  0  0  0  0  0  0  0  0  0  0  0
   36.9750   26.8960   43.2430 C   0  0  0  0  0  0  0  0  0  0  0  0
   37.4000   26.6110   41.9410 C   0  0  0  0  0  0  0  0  0  0  0  0
   37.9760   27.6030   41.2110 N   0  0  0  0  0  0  0  0  0  0  0  0
   38.1640   28.8550   41.6750 C   0  0  0  0  0  0  0  0  0  0  0  0
   37.7730   29.1710   42.9190 N   0  0  0  0  0  0  0  0  0  0  0  0
   36.8690   28.4480   44.6880 H   0  0  0  0  0  0  0  0  0  0  0  0
   36.5030   26.1950   43.9240 H   0  0  0  0  0  0  0  0  0  0  0  0
   38.7810   29.8930   40.8740 C   0  0  0  0  0  0  0  0  0  0  0  0
   39.7040   29.6690   40.0720 O   0  0  0  0  0  0  0  0  0  0  0  0
   38.4080   31.2600   40.9150 N   0  0  0  0  0  0  0  0  0  0  0  0
   37.0280   31.5690   40.5630 C   0  0  0  0  0  3  0  0  0  0  0  0
   36.5960   32.1880   41.3770 H   0  0  0  0  0  0  0  0  0  0  0  0
   37.0700   32.2710   39.2240 C   0  0  0  0  0  3  0  0  0  0  0  0
   36.1910   32.9490   39.1420 H   0  0  0  0  0  0  0  0  0  0  0  0
   38.1960   33.0810   39.0990 O   0  0  0  0  0  0  0  0  0  0  0  0
   38.6000   33.5730   40.3360 C   0  0  0  0  0  2  0  0  0  0  0  0
   39.1350   32.4720   41.2460 C   0  0  0  0  0  2  0  0  0  0  0  0
   37.1720   25.2440   41.4880 C   0  0  0  0  0  0  0  0  0  0  0  0
   36.3540   25.2590   40.3530 F   0  0  0  0  0  0  0  0  0  0  0  0
   36.3940   24.6260   42.4790 F   0  0  0  0  0  0  0  0  0  0  0  0
   38.2970   24.5620   41.2030 F   0  0  0  0  0  0  0  0  0  0  0  0
  1  7  1  0  0  0  0
  2  1  1  0  0  0  0
  2  8  1  0  0  0  0
  3  2  2  0  0  0  0
  4  5  2  0  0  0  0
  4  3  1  0  0  0  0
  5  6  1  0  0  0  0
  6  1  2  0  0  0  0
  9 11  1  0  0  0  0
  9  5  1  0  0  0  0
 10  9  2  0  0  0  0
 11 18  1  0  0  0  0
 12 11  1  0  0  0  0
 12 13  1  0  0  0  0
 14 12  1  0  0  0  0
 15 14  1  0  0  0  0
 16 14  1  0  0  0  0
 16 17  1  0  0  0  0
 17 18  1  0  0  0  0
 19  3  1  0  0  0  0
 19 21  1  0  0  0  0
 20 19  1  0  0  0  0
 22 19  1  0  0  0  0
M  END
>  <minimizedAffinity>
-4.91400671

$$$$

 OpenBabel03242518513D

 22 23  0  0  0  0  0  0  0  0999 V2000
   37.8420   28.5460   43.5690 C   0  0  0  0  0  0  0  0  0  0  0  0
   37.8300   27.1450   43.3740 C   0  0  0  0  0  0  0  0  0  0  0  0
   37.4260   26.7160   42.1050 C   0  0  0  0  0  0  0  0  0  0  0  0
   37.0820   27.6520   41.1800 N   0  0  0  0  0  0  0  0  0  0  0  0
   37.1100   28.9790   41.4170 C   0  0  0  0  0  0  0  0  0  0  0  0
   37.4940   29.4330   42.6200 N   0  0  0  0  0  0  0  0  0  0  0  0
   38.1550   28.8810   44.5510 H   0  0  0  0  0  0  0  0  0  0  0  0
   38.1270   26.5010   44.1960 H   0  0  0  0  0  0  0  0  0  0  0  0
   36.7380   29.9540   40.4120 C   0  0  0  0  0  0  0  0  0  0  0  0
   36.0170   30.9370   40.6570 O   0  0  0  0  0  0  0  0  0  0  0  0
   37.1470   29.8970   39.0560 N   0  0  0  0  0  0  0  0  0  0  0  0
   38.5820   29.9330   38.8070 C   0  0  0  0  0  3  0  0  0  0  0  0
   38.8390   29.0730   38.1530 H   0  0  0  0  0  0  0  0  0  0  0  0
   38.8790   31.2790   38.1840 C   0  0  0  0  0  3  0  0  0  0  0  0
   39.7810   31.1870   37.5370 H   0  0  0  0  0  0  0  0  0  0  0  0
   37.8480   31.7040   37.3530 O   0  0  0  0  0  0  0  0  0  0  0  0
   37.1880   30.6220   36.7760 C   0  0  0  0  0  2  0  0  0  0  0  0
   36.4130   29.8070   37.8070 C   0  0  0  0  0  2  0  0  0  0  0  0
   37.4110   25.2730   41.9010 C   0  0  0  0  0  0  0  0  0  0  0  0
   37.0440   24.9930   40.5800 F   0  0  0  0  0  0  0  0  0  0  0  0
   36.3520   24.7770   42.6780 F   0  0  0  0  0  0  0  0  0  0  0  0
   38.5830   24.6660   42.1640 F   0  0  0  0  0  0  0  0  0  0  0  0
  1  7  1  0  0  0  0
  2  1  1  0  0  0  0
  2  8  1  0  0  0  0
  3  2  2  0  0  0  0
  4  5  2  0  0  0  0
  4  3  1  0  0  0  0
  5  6  1  0  0  0  0
  6  1  2  0  0  0  0
  9 10  2  0  0  0  0
  9  5  1  0  0  0  0
 11  9  1  0  0  0  0
 12 11  1  0  0  0  0
 13 12  1  0  0  0  0
 14 12  1  0  0  0  0
 15 14  1  0  0  0  0
 16 14  1  0  0  0  0
 17 16  1  0  0  0  0
 17 18  1  0  0  0  0
 18 11  1  0  0  0  0
 19  3  1  0  0  0  0
 19 22  1  0  0  0  0
 19 21  1  0  0  0  0
 20 19  1  0  0  0  0
M  END
>  <minimizedAffinity>
-4.84444284

$$$$

 OpenBabel03242518513D

 22 23  0  0  0  0  0  0  0  0999 V2000
   36.8500   27.1440   39.0740 C   0  0  0  0  0  0  0  0  0  0  0  0
   36.6590   26.5750   40.3550 C   0  0  0  0  0  0  0  0  0  0  0  0
   37.2130   27.2890   41.4210 C   0  0  0  0  0  0  0  0  0  0  0  0
   37.8780   28.4450   41.1560 N   0  0  0  0  0  0  0  0  0  0  0  0
   38.0330   28.9470   39.9140 C   0  0  0  0  0  0  0  0  0  0  0  0
   37.5150   28.2930   38.8620 N   0  0  0  0  0  0  0  0  0  0  0  0
   36.4210   26.5930   38.2450 H   0  0  0  0  0  0  0  0  0  0  0  0
   36.1080   25.6420   40.4340 H   0  0  0  0  0  0  0  0  0  0  0  0
   38.7470   30.1820   39.6600 C   0  0  0  0  0  0  0  0  0  0  0  0
   39.6260   30.2880   38.7870 O   0  0  0  0  0  0  0  0  0  0  0  0
   38.5290   31.3890   40.3690 N   0  0  0  0  0  0  0  0  0  0  0  0
   37.1860   31.9500   40.3020 C   0  0  0  0  0  3  0  0  0  0  0  0
   36.8400   32.1400   41.3400 H   0  0  0  0  0  0  0  0  0  0  0  0
   37.2820   33.2010   39.4570 C   0  0  0  0  0  3  0  0  0  0  0  0
   36.4820   33.9100   39.7670 H   0  0  0  0  0  0  0  0  0  0  0  0
   38.4880   33.8670   39.6540 O   0  0  0  0  0  0  0  0  0  0  0  0
   38.9670   33.6700   40.9450 C   0  0  0  0  0  2  0  0  0  0  0  0
   39.3920   32.2240   41.1840 C   0  0  0  0  0  2  0  0  0  0  0  0
   37.0190   26.7040   42.7430 C   0  0  0  0  0  0  0  0  0  0  0  0
   38.2240   26.7470   43.4530 F   0  0  0  0  0  0  0  0  0  0  0  0
   36.7770   25.3370   42.5350 F   0  0  0  0  0  0  0  0  0  0  0  0
   36.0610   27.3010   43.4750 F   0  0  0  0  0  0  0  0  0  0  0  0
  1  2  1  0  0  0  0
  2  8  1  0  0  0  0
  2  3  2  0  0  0  0
  3 19  1  0  0  0  0
  4  3  1  0  0  0  0
  5  4  2  0  0  0  0
  6  1  2  0  0  0  0
  6  5  1  0  0  0  0
  7  1  1  0  0  0  0
  9  5  1  0  0  0  0
  9 11  1  0  0  0  0
 10  9  2  0  0  0  0
 11 18  1  0  0  0  0
 12 11  1  0  0  0  0
 12 13  1  0  0  0  0
 14 16  1  0  0  0  0
 14 15  1  0  0  0  0
 14 12  1  0  0  0  0
 16 17  1  0  0  0  0
 17 18  1  0  0  0  0
 19 20  1  0  0  0  0
 19 22  1  0  0  0  0
 21 19  1  0  0  0  0
M  END
>  <minimizedAffinity>
-4.81351328

$$$$

 OpenBabel03242518513D

 22 23  0  0  0  0  0  0  0  0999 V2000
   39.6310   25.4930   43.3170 C   0  0  0  0  0  0  0  0  0  0  0  0
   38.9570   24.5130   42.5500 C   0  0  0  0  0  0  0  0  0  0  0  0
   37.8800   24.9780   41.7890 C   0  0  0  0  0  0  0  0  0  0  0  0
   37.5660   26.3000   41.8420 N   0  0  0  0  0  0  0  0  0  0  0  0
   38.2410   27.1950   42.5920 C   0  0  0  0  0  0  0  0  0  0  0  0
   39.2830   26.7920   43.3350 N   0  0  0  0  0  0  0  0  0  0  0  0
   40.4660   25.1360   43.9070 H   0  0  0  0  0  0  0  0  0  0  0  0
   39.3060   23.4850   42.5940 H   0  0  0  0  0  0  0  0  0  0  0  0
   37.8850   28.5990   42.6290 C   0  0  0  0  0  0  0  0  0  0  0  0
   37.8700   29.2650   43.6790 O   0  0  0  0  0  0  0  0  0  0  0  0
   37.5180   29.3600   41.4910 N   0  0  0  0  0  0  0  0  0  0  0  0
   38.5110   29.4640   40.4300 C   0  0  0  0  0  3  0  0  0  0  0  0
   38.0260   29.1690   39.4750 H   0  0  0  0  0  0  0  0  0  0  0  0
   39.0090   30.8920   40.4420 C   0  0  0  0  0  3  0  0  0  0  0  0
   39.3480   31.1660   39.4170 H   0  0  0  0  0  0  0  0  0  0  0  0
   37.9980   31.7900   40.7690 O   0  0  0  0  0  0  0  0  0  0  0  0
   36.7550   31.3220   40.3540 C   0  0  0  0  0  2  0  0  0  0  0  0
   36.3140   30.0900   41.1390 C   0  0  0  0  0  2  0  0  0  0  0  0
   37.1830   23.9700   40.9980 C   0  0  0  0  0  0  0  0  0  0  0  0
   37.0960   24.3990   39.6690 F   0  0  0  0  0  0  0  0  0  0  0  0
   35.8570   23.9590   41.4570 F   0  0  0  0  0  0  0  0  0  0  0  0
   37.7580   22.7530   41.0250 F   0  0  0  0  0  0  0  0  0  0  0  0
  1  6  1  0  0  0  0
  1  7  1  0  0  0  0
  2  8  1  0  0  0  0
  2  1  2  0  0  0  0
  3  4  2  0  0  0  0
  3  2  1  0  0  0  0
  4  5  1  0  0  0  0
  5  9  1  0  0  0  0
  5  6  2  0  0  0  0
  9 10  2  0  0  0  0
 11  9  1  0  0  0  0
 12 14  1  0  0  0  0
 12 11  1  0  0  0  0
 13 12  1  0  0  0  0
 14 16  1  0  0  0  0
 15 14  1  0  0  0  0
 17 16  1  0  0  0  0
 17 18  1  0  0  0  0
 18 11  1  0  0  0  0
 19 22  1  0  0  0  0
 19 21  1  0  0  0  0
 19  3  1  0  0  0  0
 20 19  1  0  0  0  0
M  END
>  <minimizedAffinity>
-4.73814344

$$$$

 OpenBabel03242518513D

 22 23  0  0  0  0  0  0  0  0999 V2000
   36.9640   27.5750   39.2880 C   0  0  0  0  0  0  0  0  0  0  0  0
   36.8170   26.8870   40.5160 C   0  0  0  0  0  0  0  0  0  0  0  0
   37.0500   27.6480   41.6660 C   0  0  0  0  0  0  0  0  0  0  0  0
   37.3920   28.9560   41.5240 N   0  0  0  0  0  0  0  0  0  0  0  0
   37.5200   29.5670   40.3280 C   0  0  0  0  0  0  0  0  0  0  0  0
   37.3040   28.8730   39.1990 N   0  0  0  0  0  0  0  0  0  0  0  0
   36.7850   26.9890   38.3960 H   0  0  0  0  0  0  0  0  0  0  0  0
   36.5400   25.8370   40.4950 H   0  0  0  0  0  0  0  0  0  0  0  0
   37.8860   30.9630   40.2060 C   0  0  0  0  0  0  0  0  0  0  0  0
   37.1380   31.8920   40.5580 O   0  0  0  0  0  0  0  0  0  0  0  0
   39.1200   31.4210   39.6800 N   0  0  0  0  0  0  0  0  0  0  0  0
   40.3250   30.9870   40.3740 C   0  0  0  0  0  3  0  0  0  0  0  0
   41.0140   30.5430   39.6250 H   0  0  0  0  0  0  0  0  0  0  0  0
   40.8890   32.2080   41.0670 C   0  0  0  0  0  3  0  0  0  0  0  0
   41.9910   32.0890   41.1710 H   0  0  0  0  0  0  0  0  0  0  0  0
   40.6920   33.3650   40.3190 O   0  0  0  0  0  0  0  0  0  0  0  0
   40.6790   33.0850   38.9550 C   0  0  0  0  0  2  0  0  0  0  0  0
   39.4580   32.2660   38.5490 C   0  0  0  0  0  2  0  0  0  0  0  0
   36.9000   26.9410   42.9320 C   0  0  0  0  0  0  0  0  0  0  0  0
   38.0770   27.0690   43.6790 F   0  0  0  0  0  0  0  0  0  0  0  0
   36.8270   25.5760   42.6130 F   0  0  0  0  0  0  0  0  0  0  0  0
   35.8630   27.3620   43.6800 F   0  0  0  0  0  0  0  0  0  0  0  0
  1  2  1  0  0  0  0
  2  3  2  0  0  0  0
  3 19  1  0  0  0  0
  4  3  1  0  0  0  0
  5  4  2  0  0  0  0
  6  1  2  0  0  0  0
  6  5  1  0  0  0  0
  7  1  1  0  0  0  0
  8  2  1  0  0  0  0
  9  5  1  0  0  0  0
  9 10  2  0  0  0  0
 11  9  1  0  0  0  0
 11 12  1  0  0  0  0
 12 14  1  0  0  0  0
 13 12  1  0  0  0  0
 14 15  1  0  0  0  0
 16 14  1  0  0  0  0
 17 16  1  0  0  0  0
 18 17  1  0  0  0  0
 18 11  1  0  0  0  0
 19 20  1  0  0  0  0
 19 22  1  0  0  0  0
 21 19  1  0  0  0  0
M  END
>  <minimizedAffinity>
-4.71842718

$$$$

 OpenBabel03242518513D

 22 23  0  0  0  0  0  0  0  0999 V2000
   40.0570   31.7240   41.9140 C   0  0  0  0  0  0  0  0  0  0  0  0
   39.2570   32.2800   40.8870 C   0  0  0  0  0  0  0  0  0  0  0  0
   38.1170   31.5450   40.5470 C   0  0  0  0  0  0  0  0  0  0  0  0
   37.8700   30.3820   41.2070 N   0  0  0  0  0  0  0  0  0  0  0  0
   38.6660   29.8940   42.1800 C   0  0  0  0  0  0  0  0  0  0  0  0
   39.7690   30.5690   42.5390 N   0  0  0  0  0  0  0  0  0  0  0  0
   40.9410   32.2910   42.1800 H   0  0  0  0  0  0  0  0  0  0  0  0
   39.5650   33.2180   40.4360 H   0  0  0  0  0  0  0  0  0  0  0  0
   38.3780   28.6520   42.8670 C   0  0  0  0  0  0  0  0  0  0  0  0
   37.4190   28.5170   43.6470 O   0  0  0  0  0  0  0  0  0  0  0  0
   39.1450   27.4680   42.7310 N   0  0  0  0  0  0  0  0  0  0  0  0
   39.2410   26.9050   41.3900 C   0  0  0  0  0  3  0  0  0  0  0  0
   40.3150   26.7490   41.1580 H   0  0  0  0  0  0  0  0  0  0  0  0
   38.4310   25.6270   41.3990 C   0  0  0  0  0  3  0  0  0  0  0  0
   38.8480   24.9290   40.6390 H   0  0  0  0  0  0  0  0  0  0  0  0
   38.5190   24.9680   42.6210 O   0  0  0  0  0  0  0  0  0  0  0  0
   39.7440   25.2070   43.2360 C   0  0  0  0  0  2  0  0  0  0  0  0
   39.8890   26.6600   43.6790 C   0  0  0  0  0  2  0  0  0  0  0  0
   37.2910   32.1140   39.4880 C   0  0  0  0  0  0  0  0  0  0  0  0
   38.0660   32.2890   38.3360 F   0  0  0  0  0  0  0  0  0  0  0  0
   36.9670   33.4150   39.9010 F   0  0  0  0  0  0  0  0  0  0  0  0
   36.2090   31.3770   39.1760 F   0  0  0  0  0  0  0  0  0  0  0  0
  1  7  1  0  0  0  0
  1  6  1  0  0  0  0
  2  1  2  0  0  0  0
  3  2  1  0  0  0  0
  3  4  2  0  0  0  0
  4  5  1  0  0  0  0
  5  6  2  0  0  0  0
  5  9  1  0  0  0  0
  8  2  1  0  0  0  0
  9 10  2  0  0  0  0
 11  9  1  0  0  0  0
 11 18  1  0  0  0  0
 12 14  1  0  0  0  0
 12 11  1  0  0  0  0
 13 12  1  0  0  0  0
 14 16  1  0  0  0  0
 15 14  1  0  0  0  0
 16 17  1  0  0  0  0
 17 18  1  0  0  0  0
 19 21  1  0  0  0  0
 19  3  1  0  0  0  0
 20 19  1  0  0  0  0
 22 19  1  0  0  0  0
M  END
>  <minimizedAffinity>
-4.62884617

$$$$

 OpenBabel03242518513D

 22 23  0  0  0  0  0  0  0  0999 V2000
   40.3590   26.2610   41.2740 C   0  0  0  0  0  0  0  0  0  0  0  0
   39.3860   25.2340   41.2600 C   0  0  0  0  0  0  0  0  0  0  0  0
   38.0700   25.6470   41.4900 C   0  0  0  0  0  0  0  0  0  0  0  0
   37.8290   26.9680   41.7060 N   0  0  0  0  0  0  0  0  0  0  0  0
   38.7950   27.9100   41.7100 C   0  0  0  0  0  0  0  0  0  0  0  0
   40.0710   27.5560   41.4920 N   0  0  0  0  0  0  0  0  0  0  0  0
   41.3790   25.9440   41.0960 H   0  0  0  0  0  0  0  0  0  0  0  0
   39.7070   24.2130   41.0760 H   0  0  0  0  0  0  0  0  0  0  0  0
   38.5100   29.3110   41.9440 C   0  0  0  0  0  0  0  0  0  0  0  0
   38.7130   29.8690   43.0360 O   0  0  0  0  0  0  0  0  0  0  0  0
   37.9760   30.1900   40.9690 N   0  0  0  0  0  0  0  0  0  0  0  0
   38.7630   30.3750   39.7570 C   0  0  0  0  0  3  0  0  0  0  0  0
   38.1020   30.1880   38.8850 H   0  0  0  0  0  0  0  0  0  0  0  0
   39.3150   31.7820   39.8100 C   0  0  0  0  0  3  0  0  0  0  0  0
   39.4740   32.1480   38.7710 H   0  0  0  0  0  0  0  0  0  0  0  0
   38.4180   32.6670   40.4010 O   0  0  0  0  0  0  0  0  0  0  0  0
   37.1020   32.2730   40.1800 C   0  0  0  0  0  2  0  0  0  0  0  0
   36.7600   30.9800   40.9140 C   0  0  0  0  0  2  0  0  0  0  0  0
   37.0640   24.5910   41.4770 C   0  0  0  0  0  0  0  0  0  0  0  0
   36.2840   24.6770   42.6360 F   0  0  0  0  0  0  0  0  0  0  0  0
   37.7640   23.3820   41.6080 F   0  0  0  0  0  0  0  0  0  0  0  0
   36.2530   24.6150   40.4040 F   0  0  0  0  0  0  0  0  0  0  0  0
  1  6  1  0  0  0  0
  2  1  2  0  0  0  0
  2  3  1  0  0  0  0
  3  4  2  0  0  0  0
  4  5  1  0  0  0  0
  5  9  1  0  0  0  0
  6  5  2  0  0  0  0
  7  1  1  0  0  0  0
  8  2  1  0  0  0  0
  9 10  2  0  0  0  0
 11  9  1  0  0  0  0
 12 14  1  0  0  0  0
 12 11  1  0  0  0  0
 13 12  1  0  0  0  0
 14 16  1  0  0  0  0
 15 14  1  0  0  0  0
 17 16  1  0  0  0  0
 17 18  1  0  0  0  0
 18 11  1  0  0  0  0
 19  3  1  0  0  0  0
 19 21  1  0  0  0  0
 19 20  1  0  0  0  0
 22 19  1  0  0  0  0
M  END
>  <minimizedAffinity>
-4.53154993

$$$$

 OpenBabel03242518513D

 22 23  0  0  0  0  0  0  0  0999 V2000
   37.2320   27.4540   43.3680 C   0  0  0  0  0  0  0  0  0  0  0  0
   37.1300   26.2380   42.6520 C   0  0  0  0  0  0  0  0  0  0  0  0
   36.9770   26.3640   41.2680 C   0  0  0  0  0  0  0  0  0  0  0  0
   36.9380   27.6110   40.7270 N   0  0  0  0  0  0  0  0  0  0  0  0
   37.0390   28.7420   41.4550 C   0  0  0  0  0  0  0  0  0  0  0  0
   37.1890   28.6660   42.7870 N   0  0  0  0  0  0  0  0  0  0  0  0
   37.3510   27.3600   44.4410 H   0  0  0  0  0  0  0  0  0  0  0  0
   37.1750   25.3040   43.2030 H   0  0  0  0  0  0  0  0  0  0  0  0
   36.9940   30.0590   40.8520 C   0  0  0  0  0  0  0  0  0  0  0  0
   35.9850   30.7840   40.8880 O   0  0  0  0  0  0  0  0  0  0  0  0
   38.0770   30.6580   40.1620 N   0  0  0  0  0  0  0  0  0  0  0  0
   39.3020   30.8610   40.9250 C   0  0  0  0  0  3  0  0  0  0  0  0
   40.1420   30.4170   40.3510 H   0  0  0  0  0  0  0  0  0  0  0  0
   39.4350   32.3530   41.1400 C   0  0  0  0  0  3  0  0  0  0  0  0
   40.5130   32.6090   41.2440 H   0  0  0  0  0  0  0  0  0  0  0  0
   38.9670   33.0770   40.0470 O   0  0  0  0  0  0  0  0  0  0  0  0
   39.1360   32.3660   38.8630 C   0  0  0  0  0  2  0  0  0  0  0  0
   38.2380   31.1340   38.8010 C   0  0  0  0  0  2  0  0  0  0  0  0
   36.8700   25.1130   40.5280 C   0  0  0  0  0  0  0  0  0  0  0  0
   38.1290   24.7560   40.0300 F   0  0  0  0  0  0  0  0  0  0  0  0
   36.1030   25.3960   39.3870 F   0  0  0  0  0  0  0  0  0  0  0  0
   36.3820   24.0860   41.2480 F   0  0  0  0  0  0  0  0  0  0  0  0
  1  7  1  0  0  0  0
  2  8  1  0  0  0  0
  2  1  2  0  0  0  0
  3  2  1  0  0  0  0
  4  3  2  0  0  0  0
  4  5  1  0  0  0  0
  5  6  2  0  0  0  0
  6  1  1  0  0  0  0
  9 10  2  0  0  0  0
  9  5  1  0  0  0  0
 11  9  1  0  0  0  0
 11 12  1  0  0  0  0
 12 14  1  0  0  0  0
 13 12  1  0  0  0  0
 14 15  1  0  0  0  0
 16 14  1  0  0  0  0
 17 16  1  0  0  0  0
 18 17  1  0  0  0  0
 18 11  1  0  0  0  0
 19 22  1  0  0  0  0
 19  3  1  0  0  0  0
 20 19  1  0  0  0  0
 21 19  1  0  0  0  0
M  END
>  <minimizedAffinity>
-4.51752043

$$$$

 OpenBabel03242518513D

 22 23  0  0  0  0  0  0  0  0999 V2000
   40.2940   28.3610   42.9790 C   0  0  0  0  0  0  0  0  0  0  0  0
   39.0670   27.6610   43.0530 C   0  0  0  0  0  0  0  0  0  0  0  0
   38.0030   28.2340   42.3500 C   0  0  0  0  0  0  0  0  0  0  0  0
   38.2190   29.3900   41.6680 N   0  0  0  0  0  0  0  0  0  0  0  0
   39.4120   30.0200   41.6290 C   0  0  0  0  0  0  0  0  0  0  0  0
   40.4600   29.5030   42.2880 N   0  0  0  0  0  0  0  0  0  0  0  0
   41.1210   27.9190   43.5230 H   0  0  0  0  0  0  0  0  0  0  0  0
   39.0230   26.7450   43.6350 H   0  0  0  0  0  0  0  0  0  0  0  0
   39.6140   31.2510   40.8930 C   0  0  0  0  0  0  0  0  0  0  0  0
   39.3090   32.3680   41.3470 O   0  0  0  0  0  0  0  0  0  0  0  0
   40.1730   31.3210   39.5930 N   0  0  0  0  0  0  0  0  0  0  0  0
   41.5260   30.8040   39.4370 C   0  0  0  0  0  3  0  0  0  0  0  0
   41.5230   30.0780   38.5970 H   0  0  0  0  0  0  0  0  0  0  0  0
   42.4220   32.0000   39.2020 C   0  0  0  0  0  3  0  0  0  0  0  0
   43.3030   31.6800   38.6020 H   0  0  0  0  0  0  0  0  0  0  0  0
   41.7830   32.9860   38.4570 O   0  0  0  0  0  0  0  0  0  0  0  0
   40.8490   32.4330   37.5850 C   0  0  0  0  0  2  0  0  0  0  0  0
   39.6670   31.8180   38.3270 C   0  0  0  0  0  2  0  0  0  0  0  0
   36.7360   27.5160   42.4260 C   0  0  0  0  0  0  0  0  0  0  0  0
   36.8300   26.3260   41.6940 F   0  0  0  0  0  0  0  0  0  0  0  0
   35.8020   28.2930   41.7230 F   0  0  0  0  0  0  0  0  0  0  0  0
   36.3400   27.2240   43.6790 F   0  0  0  0  0  0  0  0  0  0  0  0
  1  2  1  0  0  0  0
  1  7  1  0  0  0  0
  2  8  1  0  0  0  0
  3 19  1  0  0  0  0
  3  2  2  0  0  0  0
  4  3  1  0  0  0  0
  5  4  2  0  0  0  0
  5  6  1  0  0  0  0
  6  1  2  0  0  0  0
  9 10  2  0  0  0  0
  9  5  1  0  0  0  0
 11  9  1  0  0  0  0
 12 11  1  0  0  0  0
 13 12  1  0  0  0  0
 14 12  1  0  0  0  0
 15 14  1  0  0  0  0
 16 14  1  0  0  0  0
 17 18  1  0  0  0  0
 17 16  1  0  0  0  0
 18 11  1  0  0  0  0
 19 22  1  0  0  0  0
 20 19  1  0  0  0  0
 21 19  1  0  0  0  0
M  END
>  <minimizedAffinity>
-4.50105286

$$$$
