
 OpenBabel03242515013D

 36 38  0  0  0  0  0  0  0  0999 V2000
   43.8290   34.4990   40.7600 S   0  0  0  0  0  0  0  0  0  0  0  0
   45.1470   34.3280   41.9630 C   0  0  0  0  0  0  0  0  0  0  0  0
   46.4540   34.5320   41.4920 C   0  0  0  0  0  0  0  0  0  0  0  0
   47.5140   34.4100   42.3890 C   0  0  0  0  0  0  0  0  0  0  0  0
   47.2170   34.0990   43.6690 N   0  0  0  0  0  0  0  0  0  0  0  0
   45.9690   33.9040   44.1200 C   0  0  0  0  0  0  0  0  0  0  0  0
   44.9510   34.0230   43.2490 N   0  0  0  0  0  0  0  0  0  0  0  0
   46.7140   34.7810   40.4710 H   0  0  0  0  0  0  0  0  0  0  0  0
   48.5300   34.5620   42.0520 H   0  0  0  0  0  0  0  0  0  0  0  0
   45.7570   33.5750   45.5110 C   0  0  0  0  0  0  0  0  0  0  0  0
   45.0540   34.3410   46.2130 O   0  0  0  0  0  0  0  0  0  0  0  0
   46.2760   32.4380   46.1910 N   0  0  0  0  0  0  0  0  0  0  0  0
   46.8540   32.6610   47.5020 C   0  0  0  0  0  3  0  0  0  0  0  0
   46.6870   33.6730   47.8680 H   0  0  0  0  0  0  0  0  0  0  0  0
   46.1270   31.7060   48.4500 C   0  0  0  0  0  3  0  0  0  0  0  0
   46.7270   31.6860   49.3830 H   0  0  0  0  0  0  0  0  0  0  0  0
   46.0930   30.4170   47.9760 O   0  0  0  0  0  0  0  0  0  0  0  0
   45.5060   30.2670   46.7440 C   0  0  0  0  0  2  0  0  0  0  0  0
   46.2830   31.0740   45.6970 C   0  0  0  0  0  2  0  0  0  0  0  0
   42.2370   34.8040   41.5230 C   0  0  0  0  0  0  0  0  0  0  0  0
   41.6500   33.8410   41.5630 H   0  0  0  0  0  0  0  0  0  0  0  0
   42.3330   35.1230   42.5980 H   0  0  0  0  0  0  0  0  0  0  0  0
   41.4040   35.8130   40.8070 C   0  0  0  0  0  0  0  0  0  0  0  0
   40.8090   36.4160   41.5500 H   0  0  0  0  0  0  0  0  0  0  0  0
   42.0160   36.5410   40.2380 H   0  0  0  0  0  0  0  0  0  0  0  0
   42.1040   36.0780   37.8550 Cl  0  0  0  0  0  0  0  0  0  0  0  0
   40.7130   35.2400   38.4610 C   0  0  0  0  0  0  0  0  0  0  0  0
   40.4840   35.1790   39.8410 C   0  0  0  0  0  0  0  0  0  0  0  0
   39.3560   34.4950   40.2410 C   0  0  0  0  0  0  0  0  0  0  0  0
   38.4310   33.8650   39.4220 C   0  0  0  0  0  0  0  0  0  0  0  0
   38.6840   33.9440   38.0590 C   0  0  0  0  0  0  0  0  0  0  0  0
   37.5590   33.1720   36.9470 Cl  0  0  0  0  0  0  0  0  0  0  0  0
   39.7970   34.6150   37.6080 C   0  0  0  0  0  0  0  0  0  0  0  0
   39.1710   34.4420   41.3130 H   0  0  0  0  0  0  0  0  0  0  0  0
   37.5800   33.3580   39.8550 H   0  0  0  0  0  0  0  0  0  0  0  0
   39.9680   34.6590   36.5330 H   0  0  0  0  0  0  0  0  0  0  0  0
  1 20  1  0  0  0  0
  1  2  1  0  0  0  0
  2  7  1  0  0  0  0
  3  2  2  0  0  0  0
  3  4  1  0  0  0  0
  4  5  2  0  0  0  0
  5  6  1  0  0  0  0
  6 10  1  0  0  0  0
  7  6  2  0  0  0  0
  8  3  1  0  0  0  0
  9  4  1  0  0  0  0
 10 12  1  0  0  0  0
 10 11  2  0  0  0  0
 12 13  1  0  0  0  0
 13 14  1  0  0  0  0
 13 15  1  0  0  0  0
 15 16  1  0  0  0  0
 17 15  1  0  0  0  0
 18 17  1  0  0  0  0
 19 12  1  0  0  0  0
 19 18  1  0  0  0  0
 20 21  1  0  0  0  0
 20 22  1  0  0  0  0
 23 20  1  0  0  0  0
 23 24  1  0  0  0  0
 25 23  1  0  0  0  0
 26 27  1  0  0  0  0
 27 28  1  0  0  0  0
 28 29  2  0  0  0  0
 28 23  1  0  0  0  0
 29 34  1  0  0  0  0
 30 35  1  0  0  0  0
 30 29  1  0  0  0  0
 31 30  2  0  0  0  0
 32 31  1  0  0  0  0
 33 31  1  0  0  0  0
 33 27  2  0  0  0  0
 36 33  1  0  0  0  0
M  END
>  <minimizedAffinity>
-6.80191183

>  <minimizedRMSD>
0.722097337

$$$$
