
 OpenBabel03242516523D

 44 47  0  0  1  0  0  0  0  0999 V2000
   47.8040   32.8170   41.7120 C   0  0  1  0  0  0  0  0  0  0  0  0
   47.4000   32.1410   40.4780 C   0  0  0  0  0  0  0  0  0  0  0  0
   48.3900   32.5840   39.4030 C   0  0  0  0  0  0  0  0  0  0  0  0
   48.0980   34.0330   39.1210 C   0  0  0  0  0  0  0  0  0  0  0  0
   48.1240   34.9140   40.3380 C   0  0  0  0  0  0  0  0  0  0  0  0
   47.6550   34.3390   41.6130 C   0  0  1  0  0  0  0  0  0  0  0  0
   48.9250   32.6980   41.8360 H   0  0  0  0  0  0  0  0  0  0  0  0
   46.4060   32.4430   40.0810 H   0  0  0  0  0  0  0  0  0  0  0  0
   47.4310   31.0570   40.6040 H   0  0  0  0  0  0  0  0  0  0  0  0
   49.4400   32.4230   39.7010 H   0  0  0  0  0  0  0  0  0  0  0  0
   48.1080   32.0080   38.4980 H   0  0  0  0  0  0  0  0  0  0  0  0
   47.1020   34.0740   38.6270 H   0  0  0  0  0  0  0  0  0  0  0  0
   48.8160   34.4150   38.3820 H   0  0  0  0  0  0  0  0  0  0  0  0
   47.4900   35.8030   40.0940 H   0  0  0  0  0  0  0  0  0  0  0  0
   49.1540   35.3320   40.4170 H   0  0  0  0  0  0  0  0  0  0  0  0
   48.3010   34.7380   42.4410 H   0  0  0  0  0  0  0  0  0  0  0  0
   45.4760   30.9850   44.0580 C   0  0  0  0  0  0  0  0  0  0  0  0
   46.1200   31.4680   42.9120 C   0  0  0  0  0  0  0  0  0  0  0  0
   47.1950   32.3580   42.9430 C   0  0  0  0  0  0  0  0  0  0  0  0
   47.5920   32.7400   44.1580 N   0  0  0  0  0  0  0  0  0  0  0  0
   46.9750   32.2780   45.2800 C   0  0  0  0  0  0  0  0  0  0  0  0
   45.9440   31.4230   45.2430 N   0  0  0  0  0  0  0  0  0  0  0  0
   44.6510   30.2980   43.9580 H   0  0  0  0  0  0  0  0  0  0  0  0
   45.7860   31.1490   41.9290 H   0  0  0  0  0  0  0  0  0  0  0  0
   47.3120   32.6000   46.2570 H   0  0  0  0  0  0  0  0  0  0  0  0
   46.3020   34.7730   41.9590 C   0  0  0  0  0  0  0  0  0  0  0  0
   45.9470   35.5120   43.0930 C   0  0  0  0  0  0  0  0  0  0  0  0
   44.5970   35.8330   43.2200 C   0  0  0  0  0  0  0  0  0  0  0  0
   43.7320   35.4020   42.2290 C   0  0  0  0  0  0  0  0  0  0  0  0
   44.1060   34.6750   41.1220 C   0  0  0  0  0  0  0  0  0  0  0  0
   45.4310   34.3680   41.0120 N   0  0  0  0  0  0  0  0  0  0  0  0
   46.7170   35.7700   43.7640 H   0  0  0  0  0  0  0  0  0  0  0  0
   44.2950   36.4040   44.0860 H   0  0  0  0  0  0  0  0  0  0  0  0
   42.6830   35.6470   42.3200 H   0  0  0  0  0  0  0  0  0  0  0  0
   43.1080   34.2700   40.1350 C   0  0  0  0  0  0  0  0  0  0  0  0
   42.4310   35.1640   39.5630 O   0  0  0  0  0  0  0  0  0  0  0  0
   42.6860   33.0140   39.6260 N   0  0  0  0  0  0  0  0  0  0  0  0
   42.5590   33.0450   38.1650 C   0  0  0  0  0  3  0  0  0  0  0  0
   41.5130   33.3020   37.8690 H   0  0  0  0  0  0  0  0  0  0  0  0
   42.8060   31.6090   37.6950 C   0  0  0  0  0  3  0  0  0  0  0  0
   41.8870   31.0110   37.6970 H   0  0  0  0  0  0  0  0  0  0  0  0
   43.8350   31.0390   38.4280 O   0  0  0  0  0  0  0  0  0  0  0  0
   43.4450   30.7550   39.7400 C   0  0  0  0  0  2  0  0  0  0  0  0
   42.3320   31.6880   40.1600 C   0  0  0  0  0  2  0  0  0  0  0  0
  1  7  1  1  0  0  0
  1 19  1  0  0  0  0
  2  9  1  0  0  0  0
  2  1  1  0  0  0  0
  3 10  1  0  0  0  0
  3  2  1  0  0  0  0
  4  3  1  0  0  0  0
  4  5  1  0  0  0  0
  5 15  1  0  0  0  0
  5  6  1  0  0  0  0
  6  1  1  0  0  0  0
  6 26  1  0  0  0  0
  6 16  1  1  0  0  0
  8  2  1  0  0  0  0
 11  3  1  0  0  0  0
 12  4  1  0  0  0  0
 13  4  1  0  0  0  0
 14  5  1  0  0  0  0
 17 22  1  0  0  0  0
 18 19  1  0  0  0  0
 18 17  2  0  0  0  0
 19 20  2  0  0  0  0
 20 21  1  0  0  0  0
 21 25  1  0  0  0  0
 22 21  2  0  0  0  0
 23 17  1  0  0  0  0
 24 18  1  0  0  0  0
 26 27  1  0  0  0  0
 27 28  2  0  0  0  0
 27 32  1  0  0  0  0
 28 33  1  0  0  0  0
 29 34  1  0  0  0  0
 29 28  1  0  0  0  0
 30 29  2  0  0  0  0
 31 30  1  0  0  0  0
 31 26  2  0  0  0  0
 35 30  1  0  0  0  0
 36 35  2  0  0  0  0
 37 35  1  0  0  0  0
 37 44  1  0  0  0  0
 38 37  1  0  0  0  0
 39 38  1  0  0  0  0
 40 41  1  0  0  0  0
 40 38  1  0  0  0  0
 40 42  1  0  0  0  0
 42 43  1  0  0  0  0
 43 44  1  0  0  0  0
M  END
>  <minimizedAffinity>
-5.35689878

>  <minimizedRMSD>
0.536196649

$$$$
