
 OpenBabel03242513433D

 45 48  0  0  0  0  0  0  0  0999 V2000
   47.7690   31.0670   45.9670 C   0  0  0  0  0  0  0  0  0  0  0  0
   47.0050   32.0710   45.4460 C   0  0  0  0  0  0  0  0  0  0  0  0
   45.9520   32.5220   46.1980 C   0  0  0  0  0  0  0  0  0  0  0  0
   45.6300   32.0150   47.4430 C   0  0  0  0  0  0  0  0  0  0  0  0
   44.6940   32.2360   48.3950 N   0  0  0  0  0  0  0  0  0  0  0  0
   44.9040   31.3840   49.4440 C   0  0  0  0  0  0  0  0  0  0  0  0
   45.9790   30.6390   49.1240 N   0  0  0  0  0  0  0  0  0  0  0  0
   46.4270   31.0120   47.9130 C   0  0  0  0  0  0  0  0  0  0  0  0
   47.4980   30.5110   47.2160 C   0  0  0  0  0  0  0  0  0  0  0  0
   48.6200   30.6510   45.4410 H   0  0  0  0  0  0  0  0  0  0  0  0
   45.3140   33.3250   45.8220 H   0  0  0  0  0  0  0  0  0  0  0  0
   43.9570   32.9740   48.2580 H   0  0  0  0  0  0  0  0  0  0  0  0
   44.2760   31.3840   50.3180 H   0  0  0  0  0  0  0  0  0  0  0  0
   47.2660   34.4230   42.6590 C   0  0  0  0  0  0  0  0  0  0  0  0
   47.8980   33.6520   41.6580 C   0  0  0  0  0  0  0  0  0  0  0  0
   48.2130   32.3270   41.9960 C   0  0  0  0  0  0  0  0  0  0  0  0
   47.9170   31.8310   43.2240 N   0  0  0  0  0  0  0  0  0  0  0  0
   47.3070   32.6390   44.1350 C   0  0  0  0  0  0  0  0  0  0  0  0
   46.9810   33.9130   43.8760 N   0  0  0  0  0  0  0  0  0  0  0  0
   46.9910   35.4470   42.4840 H   0  0  0  0  0  0  0  0  0  0  0  0
   48.6960   31.7350   41.2290 H   0  0  0  0  0  0  0  0  0  0  0  0
   48.1770   34.2850   40.3530 C   0  0  0  0  0  0  0  0  0  0  0  0
   48.7200   35.5130   40.6620 F   0  0  0  0  0  0  0  0  0  0  0  0
   47.0050   34.4600   39.6990 F   0  0  0  0  0  0  0  0  0  0  0  0
   49.0690   33.4720   39.6560 F   0  0  0  0  0  0  0  0  0  0  0  0
   48.2730   29.4900   47.7470 O   0  0  0  0  0  0  0  0  0  0  0  0
   49.8830   28.2970   49.3970 O   0  0  0  0  0  0  0  0  0  0  0  0
   49.4520   29.6770   48.9310 P   0  0  2  0  0  0  0  0  0  0  0  0
   48.7340   30.4360   50.2680 O   0  0  0  0  0  0  0  0  0  0  0  0
   48.3690   29.8110   50.9160 H   0  0  0  0  0  0  0  0  0  0  0  0
   50.7840   30.5500   48.4230 O   0  0  0  0  0  0  0  0  0  0  0  0
   51.6790   30.8880   49.4100 C   0  0  0  0  0  0  0  0  0  0  0  0
   51.3570   30.4190   50.3760 H   0  0  0  0  0  0  0  0  0  0  0  0
   52.6760   30.5490   49.1350 H   0  0  0  0  0  0  0  0  0  0  0  0
   51.5650   32.3920   49.6290 C   0  0  0  0  0  0  0  0  0  0  0  0
   52.0980   32.9380   48.8060 H   0  0  0  0  0  0  0  0  0  0  0  0
   50.5090   32.6600   49.6050 H   0  0  0  0  0  0  0  0  0  0  0  0
   52.0920   32.7770   50.9190 N   0  0  0  0  0  0  0  0  0  0  0  0
   51.3120   32.0320   51.9210 C   0  0  0  0  0  0  0  0  0  0  0  0
   50.2430   32.2770   51.7550 H   0  0  0  0  0  0  0  0  0  0  0  0
   51.7210   32.5850   53.2700 C   0  0  0  0  0  0  0  0  0  0  0  0
   50.9400   33.2330   53.7130 H   0  0  0  0  0  0  0  0  0  0  0  0
   52.8700   33.3760   53.1890 O   0  0  0  0  0  0  0  0  0  0  0  0
   52.6650   34.5190   52.4370 C   0  0  0  0  0  0  0  0  0  0  0  0
   51.8190   34.1670   51.2290 C   0  0  0  0  0  0  0  0  0  0  0  0
  1  9  1  0  0  0  0
  2  1  2  0  0  0  0
  2  3  1  0  0  0  0
  3  4  2  0  0  0  0
  4  8  1  0  0  0  0
  4  5  1  0  0  0  0
  5  6  1  0  0  0  0
  6 13  1  0  0  0  0
  7  6  2  0  0  0  0
  8  7  1  0  0  0  0
  9 26  1  0  0  0  0
  9  8  2  0  0  0  0
 10  1  1  0  0  0  0
 11  3  1  0  0  0  0
 12  5  1  0  0  0  0
 14 19  1  0  0  0  0
 15 16  1  0  0  0  0
 15 14  2  0  0  0  0
 16 17  2  0  0  0  0
 17 18  1  0  0  0  0
 18  2  1  0  0  0  0
 19 18  2  0  0  0  0
 20 14  1  0  0  0  0
 21 16  1  0  0  0  0
 22 23  1  0  0  0  0
 22 15  1  0  0  0  0
 24 22  1  0  0  0  0
 25 22  1  0  0  0  0
 26 28  1  0  0  0  0
 28 27  2  1  0  0  0
 28 29  1  0  0  0  0
 29 30  1  0  0  0  0
 31 28  1  0  0  0  0
 31 32  1  0  0  0  0
 32 35  1  0  0  0  0
 32 33  1  0  0  0  0
 34 32  1  0  0  0  0
 35 38  1  0  0  0  0
 36 35  1  0  0  0  0
 37 35  1  0  0  0  0
 38 45  1  0  0  0  0
 38 39  1  0  0  0  0
 39 41  1  0  0  0  0
 40 39  1  0  0  0  0
 41 42  1  0  0  0  0
 43 41  1  0  0  0  0
 44 43  1  0  0  0  0
 45 44  1  0  0  0  0
M  END
>  <minimizedAffinity>
-6.1217227

>  <minimizedRMSD>
0.864969552

$$$$
