
 OpenBabel03252503153D

 35 38  0  0  1  0  0  0  0  0999 V2000
   45.9010   34.5530   41.6540 C   0  0  0  0  0  0  0  0  0  0  0  0
   47.1210   34.8010   41.3910 O   0  0  0  0  0  0  0  0  0  0  0  0
   44.8990   34.0800   40.6430 C   0  0  0  0  0  0  0  0  0  0  0  0
   43.5230   34.0860   40.8090 C   0  0  0  0  0  0  0  0  0  0  0  0
   43.0230   33.5810   39.6650 N   0  0  0  0  0  0  0  0  0  0  0  0
   44.0510   33.2830   38.8420 C   0  0  0  0  0  0  0  0  0  0  0  0
   45.2210   33.5930   39.4480 N   0  0  0  0  0  0  0  0  0  0  0  0
   44.0650   32.7310   37.5250 N   0  0  0  0  0  0  0  0  0  0  0  0
   42.9610   34.4140   41.6530 H   0  0  0  0  0  0  0  0  0  0  0  0
   43.4800   31.8520   37.4530 H   0  0  0  0  0  0  0  0  0  0  0  0
   44.5810   33.1170   36.7000 H   0  0  0  0  0  0  0  0  0  0  0  0
   41.7510   33.6670   37.2880 H   0  0  0  0  0  0  0  0  0  0  0  0
   41.2380   34.0960   38.1080 N   0  0  0  0  0  0  0  0  0  0  0  0
   41.6520   33.3710   39.3170 C   0  0  2  0  0  3  0  0  0  0  0  0
   40.6850   33.6820   40.4170 C   0  0  0  0  0  3  0  0  0  0  0  0
   41.1980   33.9040   41.3660 H   0  0  0  0  0  0  0  0  0  0  0  0
   39.8820   34.7660   40.0710 O   0  0  0  0  0  0  0  0  0  0  0  0
   39.0650   34.4670   38.9840 C   0  0  0  0  0  2  0  0  0  0  0  0
   39.8370   33.6780   37.9320 C   0  0  0  0  0  2  0  0  0  0  0  0
   44.9130   35.9640   43.4010 C   0  0  0  0  0  0  0  0  0  0  0  0
   45.5170   34.7540   43.0060 C   0  0  0  0  0  0  0  0  0  0  0  0
   45.6830   33.8420   44.0240 C   0  0  0  0  0  0  0  0  0  0  0  0
   45.3020   34.0780   45.2930 N   0  0  0  0  0  0  0  0  0  0  0  0
   44.7240   35.2670   45.6130 C   0  0  0  0  0  0  0  0  0  0  0  0
   44.5350   36.1960   44.6690 N   0  0  0  0  0  0  0  0  0  0  0  0
   44.7500   36.7340   42.6510 H   0  0  0  0  0  0  0  0  0  0  0  0
   44.4430   35.3910   46.6550 H   0  0  0  0  0  0  0  0  0  0  0  0
   46.2840   32.5960   43.7180 C   0  0  0  0  0  0  0  0  0  0  0  0
   47.5590   32.1170   43.7080 C   0  0  0  0  0  0  0  0  0  0  0  0
   47.8270   30.8740   43.3700 C   0  0  0  0  0  0  0  0  0  0  0  0
   46.7980   30.0670   43.0300 C   0  0  0  0  0  0  0  0  0  0  0  0
   45.3590   31.1670   43.2060 S   0  0  0  0  0  0  0  0  0  0  0  0
   48.3250   32.8630   44.0030 H   0  0  0  0  0  0  0  0  0  0  0  0
   48.8080   30.4190   43.3360 H   0  0  0  0  0  0  0  0  0  0  0  0
   46.7150   29.0310   42.7180 H   0  0  0  0  0  0  0  0  0  0  0  0
  1 21  1  0  0  0  0
  2  1  2  0  0  0  0
  3  4  2  0  0  0  0
  3  1  1  0  0  0  0
  4  9  1  0  0  0  0
  5  4  1  0  0  0  0
  6  7  2  0  0  0  0
  6  5  1  0  0  0  0
  7  3  1  0  0  0  0
  8  6  1  0  0  0  0
 10  8  1  0  0  0  0
 11  8  1  0  0  0  0
 12 13  1  0  0  0  0
 13 14  1  0  0  0  0
 14  5  1  1  0  0  0
 14 15  1  0  0  0  0
 15 16  1  0  0  0  0
 17 15  1  0  0  0  0
 18 17  1  0  0  0  0
 19 13  1  0  0  0  0
 19 18  1  0  0  0  0
 20 25  1  0  0  0  0
 21 20  2  0  0  0  0
 21 22  1  0  0  0  0
 22 23  2  0  0  0  0
 23 24  1  0  0  0  0
 24 27  1  0  0  0  0
 25 24  2  0  0  0  0
 26 20  1  0  0  0  0
 28 22  1  0  0  0  0
 29 28  2  0  0  0  0
 29 33  1  0  0  0  0
 30 29  1  0  0  0  0
 31 32  1  0  0  0  0
 31 30  2  0  0  0  0
 32 28  1  0  0  0  0
 34 30  1  0  0  0  0
 35 31  1  0  0  0  0
M  END
>  <minimizedAffinity>
-5.62160397

>  <minimizedRMSD>
1.10763216

$$$$
