
 OpenBabel03252503173D

 35 38  0  0  1  0  0  0  0  0999 V2000
   35.5790   29.1100   39.4740 C   0  0  0  0  0  0  0  0  0  0  0  0
   34.4760   29.3060   40.0790 O   0  0  0  0  0  0  0  0  0  0  0  0
   36.5140   30.2030   39.0490 C   0  0  0  0  0  0  0  0  0  0  0  0
   37.2250   31.0320   39.9020 C   0  0  0  0  0  0  0  0  0  0  0  0
   37.9280   31.8530   39.0980 N   0  0  0  0  0  0  0  0  0  0  0  0
   37.6550   31.5350   37.8150 C   0  0  0  0  0  0  0  0  0  0  0  0
   36.7750   30.5060   37.7810 N   0  0  0  0  0  0  0  0  0  0  0  0
   38.1340   32.0930   36.5910 N   0  0  0  0  0  0  0  0  0  0  0  0
   37.2280   31.0360   40.9670 H   0  0  0  0  0  0  0  0  0  0  0  0
   38.0410   33.1470   36.5670 H   0  0  0  0  0  0  0  0  0  0  0  0
   38.5370   31.5590   35.7850 H   0  0  0  0  0  0  0  0  0  0  0  0
   39.7650   33.2240   37.6780 H   0  0  0  0  0  0  0  0  0  0  0  0
   40.0470   32.9430   38.6580 N   0  0  0  0  0  0  0  0  0  0  0  0
   38.8260   32.9000   39.4740 C   0  0  2  0  0  3  0  0  0  0  0  0
   39.2160   32.8860   40.9190 C   0  0  0  0  0  3  0  0  0  0  0  0
   38.6440   32.1390   41.4920 H   0  0  0  0  0  0  0  0  0  0  0  0
   40.5750   32.6190   41.0570 O   0  0  0  0  0  0  0  0  0  0  0  0
   41.3510   33.6390   40.5140 C   0  0  0  0  0  2  0  0  0  0  0  0
   40.7620   34.1160   39.1900 C   0  0  0  0  0  2  0  0  0  0  0  0
   35.4640   27.1420   38.0140 C   0  0  0  0  0  0  0  0  0  0  0  0
   35.8940   27.7520   39.2100 C   0  0  0  0  0  0  0  0  0  0  0  0
   36.6120   26.9250   40.0440 C   0  0  0  0  0  0  0  0  0  0  0  0
   36.8860   25.6400   39.7490 N   0  0  0  0  0  0  0  0  0  0  0  0
   36.4440   25.1080   38.5780 C   0  0  0  0  0  0  0  0  0  0  0  0
   35.7400   25.8600   37.7250 N   0  0  0  0  0  0  0  0  0  0  0  0
   34.8900   27.7330   37.3060 H   0  0  0  0  0  0  0  0  0  0  0  0
   36.7000   24.0670   38.4040 H   0  0  0  0  0  0  0  0  0  0  0  0
   37.0840   27.4530   41.2700 C   0  0  0  0  0  0  0  0  0  0  0  0
   36.5450   27.6520   42.5050 C   0  0  0  0  0  0  0  0  0  0  0  0
   37.2440   28.1790   43.4870 C   0  0  0  0  0  0  0  0  0  0  0  0
   38.5280   28.5240   43.2450 C   0  0  0  0  0  0  0  0  0  0  0  0
   38.7390   28.0630   41.4970 S   0  0  0  0  0  0  0  0  0  0  0  0
   35.4860   27.3340   42.5940 H   0  0  0  0  0  0  0  0  0  0  0  0
   36.8920   28.3700   44.4920 H   0  0  0  0  0  0  0  0  0  0  0  0
   39.3230   28.9650   43.8400 H   0  0  0  0  0  0  0  0  0  0  0  0
  1  2  2  0  0  0  0
  3  1  1  0  0  0  0
  3  4  2  0  0  0  0
  4  9  1  0  0  0  0
  5  4  1  0  0  0  0
  6  5  1  0  0  0  0
  7  6  2  0  0  0  0
  7  3  1  0  0  0  0
  8  6  1  0  0  0  0
 10  8  1  0  0  0  0
 11  8  1  0  0  0  0
 12 13  1  0  0  0  0
 13 19  1  0  0  0  0
 13 14  1  0  0  0  0
 14  5  1  6  0  0  0
 14 15  1  0  0  0  0
 15 17  1  0  0  0  0
 15 16  1  0  0  0  0
 18 17  1  0  0  0  0
 19 18  1  0  0  0  0
 20 21  1  0  0  0  0
 21  1  1  0  0  0  0
 21 22  2  0  0  0  0
 22 28  1  0  0  0  0
 23 22  1  0  0  0  0
 24 23  2  0  0  0  0
 25 20  2  0  0  0  0
 25 24  1  0  0  0  0
 26 20  1  0  0  0  0
 27 24  1  0  0  0  0
 28 32  1  0  0  0  0
 28 29  2  0  0  0  0
 29 33  1  0  0  0  0
 29 30  1  0  0  0  0
 30 34  1  0  0  0  0
 31 30  2  0  0  0  0
 31 35  1  0  0  0  0
 32 31  1  0  0  0  0
M  END
>  <minimizedAffinity>
-6.03280687

$$$$

 OpenBabel03252503173D

 35 38  0  0  1  0  0  0  0  0999 V2000
   36.0700   29.3470   39.5590 C   0  0  0  0  0  0  0  0  0  0  0  0
   35.1470   29.7420   40.3420 O   0  0  0  0  0  0  0  0  0  0  0  0
   37.1180   30.2440   38.9700 C   0  0  0  0  0  0  0  0  0  0  0  0
   38.2960   30.6240   39.5930 C   0  0  0  0  0  0  0  0  0  0  0  0
   38.9260   31.4210   38.7100 N   0  0  0  0  0  0  0  0  0  0  0  0
   38.1640   31.5200   37.6000 C   0  0  0  0  0  0  0  0  0  0  0  0
   37.0360   30.7870   37.7590 N   0  0  0  0  0  0  0  0  0  0  0  0
   38.3730   32.2350   36.3820 N   0  0  0  0  0  0  0  0  0  0  0  0
   38.6460   30.3550   40.5630 H   0  0  0  0  0  0  0  0  0  0  0  0
   38.6260   33.2480   36.5500 H   0  0  0  0  0  0  0  0  0  0  0  0
   38.2950   31.8410   35.4150 H   0  0  0  0  0  0  0  0  0  0  0  0
   39.5570   33.8880   39.5990 H   0  0  0  0  0  0  0  0  0  0  0  0
   40.0960   33.5430   38.7560 N   0  0  0  0  0  0  0  0  0  0  0  0
   40.1860   32.0810   38.8580 C   0  0  2  0  0  3  0  0  0  0  0  0
   41.2450   31.6000   37.9150 C   0  0  0  0  0  3  0  0  0  0  0  0
   40.9150   30.7200   37.3390 H   0  0  0  0  0  0  0  0  0  0  0  0
   41.6070   32.6100   37.0280 O   0  0  0  0  0  0  0  0  0  0  0  0
   42.2120   33.6750   37.6920 C   0  0  0  0  0  2  0  0  0  0  0  0
   41.4810   33.9800   38.9950 C   0  0  0  0  0  2  0  0  0  0  0  0
   35.4910   27.4990   38.0540 C   0  0  0  0  0  0  0  0  0  0  0  0
   36.0590   27.9600   39.2580 C   0  0  0  0  0  0  0  0  0  0  0  0
   36.5720   26.9670   40.0620 C   0  0  0  0  0  0  0  0  0  0  0  0
   36.5380   25.6630   39.7320 N   0  0  0  0  0  0  0  0  0  0  0  0
   35.9760   25.2790   38.5540 C   0  0  0  0  0  0  0  0  0  0  0  0
   35.4590   26.1960   37.7290 N   0  0  0  0  0  0  0  0  0  0  0  0
   35.0640   28.2270   37.3670 H   0  0  0  0  0  0  0  0  0  0  0  0
   35.9810   24.2120   38.3520 H   0  0  0  0  0  0  0  0  0  0  0  0
   37.1620   27.3390   41.2940 C   0  0  0  0  0  0  0  0  0  0  0  0
   36.6940   27.6160   42.5430 C   0  0  0  0  0  0  0  0  0  0  0  0
   37.5030   27.9420   43.5270 C   0  0  0  0  0  0  0  0  0  0  0  0
   38.8300   27.9980   43.2740 C   0  0  0  0  0  0  0  0  0  0  0  0
   38.9140   27.5540   41.5110 S   0  0  0  0  0  0  0  0  0  0  0  0
   35.5920   27.5400   42.6400 H   0  0  0  0  0  0  0  0  0  0  0  0
   37.2120   28.1760   44.5430 H   0  0  0  0  0  0  0  0  0  0  0  0
   39.7080   28.2310   43.8670 H   0  0  0  0  0  0  0  0  0  0  0  0
  1  2  2  0  0  0  0
  3  1  1  0  0  0  0
  3  4  2  0  0  0  0
  4  9  1  0  0  0  0
  5  4  1  0  0  0  0
  6  7  2  0  0  0  0
  6  5  1  0  0  0  0
  7  3  1  0  0  0  0
  8 10  1  0  0  0  0
  8  6  1  0  0  0  0
 11  8  1  0  0  0  0
 13 14  1  0  0  0  0
 13 19  1  0  0  0  0
 13 12  1  0  0  0  0
 14  5  1  6  0  0  0
 15 14  1  0  0  0  0
 16 15  1  0  0  0  0
 17 18  1  0  0  0  0
 17 15  1  0  0  0  0
 18 19  1  0  0  0  0
 20 21  1  0  0  0  0
 21  1  1  0  0  0  0
 21 22  2  0  0  0  0
 22 28  1  0  0  0  0
 23 22  1  0  0  0  0
 24 23  2  0  0  0  0
 25 20  2  0  0  0  0
 25 24  1  0  0  0  0
 26 20  1  0  0  0  0
 27 24  1  0  0  0  0
 28 32  1  0  0  0  0
 28 29  2  0  0  0  0
 29 33  1  0  0  0  0
 29 30  1  0  0  0  0
 30 34  1  0  0  0  0
 31 30  2  0  0  0  0
 31 35  1  0  0  0  0
 32 31  1  0  0  0  0
M  END
>  <minimizedAffinity>
-6.02717447

$$$$

 OpenBabel03252503173D

 35 38  0  0  1  0  0  0  0  0999 V2000
   37.5380   30.8220   40.6550 C   0  0  0  0  0  0  0  0  0  0  0  0
   36.6750   31.7390   40.8450 O   0  0  0  0  0  0  0  0  0  0  0  0
   38.6160   30.8800   39.6140 C   0  0  0  0  0  0  0  0  0  0  0  0
   39.6660   29.9850   39.4910 C   0  0  0  0  0  0  0  0  0  0  0  0
   40.3810   30.4150   38.4340 N   0  0  0  0  0  0  0  0  0  0  0  0
   39.7890   31.5220   37.9380 C   0  0  0  0  0  0  0  0  0  0  0  0
   38.6890   31.8150   38.6710 N   0  0  0  0  0  0  0  0  0  0  0  0
   40.1410   32.3560   36.8330 N   0  0  0  0  0  0  0  0  0  0  0  0
   39.8820   29.1330   40.0940 H   0  0  0  0  0  0  0  0  0  0  0  0
   41.1540   32.6600   36.8670 H   0  0  0  0  0  0  0  0  0  0  0  0
   39.5030   32.6560   36.0590 H   0  0  0  0  0  0  0  0  0  0  0  0
   41.3790   30.4520   35.9290 H   0  0  0  0  0  0  0  0  0  0  0  0
   41.4560   29.5340   36.4490 N   0  0  0  0  0  0  0  0  0  0  0  0
   41.5690   29.8450   37.8800 C   0  0  2  0  0  3  0  0  0  0  0  0
   42.0570   28.6250   38.5980 C   0  0  0  0  0  3  0  0  0  0  0  0
   41.4870   28.4350   39.5210 H   0  0  0  0  0  0  0  0  0  0  0  0
   41.9720   27.5060   37.7750 O   0  0  0  0  0  0  0  0  0  0  0  0
   42.8270   27.6120   36.6810 C   0  0  0  0  0  2  0  0  0  0  0  0
   42.7960   29.0260   36.1110 C   0  0  0  0  0  2  0  0  0  0  0  0
   38.1710   29.6310   42.7040 C   0  0  0  0  0  0  0  0  0  0  0  0
   37.4250   29.6950   41.5100 C   0  0  0  0  0  0  0  0  0  0  0  0
   36.6210   28.6010   41.2830 C   0  0  0  0  0  0  0  0  0  0  0  0
   36.5480   27.5530   42.1250 N   0  0  0  0  0  0  0  0  0  0  0  0
   37.2930   27.5490   43.2630 C   0  0  0  0  0  0  0  0  0  0  0  0
   38.0950   28.5830   43.5410 N   0  0  0  0  0  0  0  0  0  0  0  0
   38.8300   30.4590   42.9510 H   0  0  0  0  0  0  0  0  0  0  0  0
   37.1860   26.6740   43.8960 H   0  0  0  0  0  0  0  0  0  0  0  0
   35.8350   28.5780   40.1050 C   0  0  0  0  0  0  0  0  0  0  0  0
   34.6180   29.0730   39.7470 C   0  0  0  0  0  0  0  0  0  0  0  0
   34.1250   28.8920   38.5420 C   0  0  0  0  0  0  0  0  0  0  0  0
   34.8610   28.1970   37.6470 C   0  0  0  0  0  0  0  0  0  0  0  0
   36.3520   27.7780   38.6030 S   0  0  0  0  0  0  0  0  0  0  0  0
   34.0990   29.6260   40.5570 H   0  0  0  0  0  0  0  0  0  0  0  0
   33.1700   29.2500   38.1810 H   0  0  0  0  0  0  0  0  0  0  0  0
   34.7200   27.8990   36.6130 H   0  0  0  0  0  0  0  0  0  0  0  0
  1  2  2  0  0  0  0
  1 21  1  0  0  0  0
  3  1  1  0  0  0  0
  4  3  2  0  0  0  0
  4  9  1  0  0  0  0
  5  4  1  0  0  0  0
  6  5  1  0  0  0  0
  6  7  2  0  0  0  0
  7  3  1  0  0  0  0
  8 10  1  0  0  0  0
  8  6  1  0  0  0  0
 11  8  1  0  0  0  0
 12 13  1  0  0  0  0
 13 14  1  0  0  0  0
 14  5  1  1  0  0  0
 14 15  1  0  0  0  0
 15 16  1  0  0  0  0
 17 15  1  0  0  0  0
 18 17  1  0  0  0  0
 19 13  1  0  0  0  0
 19 18  1  0  0  0  0
 20 26  1  0  0  0  0
 20 25  1  0  0  0  0
 21 20  2  0  0  0  0
 22 21  1  0  0  0  0
 22 23  2  0  0  0  0
 23 24  1  0  0  0  0
 24 25  2  0  0  0  0
 24 27  1  0  0  0  0
 28 22  1  0  0  0  0
 29 28  2  0  0  0  0
 29 33  1  0  0  0  0
 30 29  1  0  0  0  0
 31 30  2  0  0  0  0
 31 32  1  0  0  0  0
 32 28  1  0  0  0  0
 34 30  1  0  0  0  0
 35 31  1  0  0  0  0
M  END
>  <minimizedAffinity>
-5.737041

$$$$

 OpenBabel03252503173D

 35 38  0  0  1  0  0  0  0  0999 V2000
   38.2430   27.1420   39.3710 C   0  0  0  0  0  0  0  0  0  0  0  0
   39.2610   26.9060   38.6450 O   0  0  0  0  0  0  0  0  0  0  0  0
   37.8770   28.4980   39.8970 C   0  0  0  0  0  0  0  0  0  0  0  0
   38.7220   29.5950   39.9520 C   0  0  0  0  0  0  0  0  0  0  0  0
   37.9860   30.5870   40.4880 N   0  0  0  0  0  0  0  0  0  0  0  0
   36.7490   30.1120   40.7470 C   0  0  0  0  0  0  0  0  0  0  0  0
   36.6780   28.8100   40.3790 N   0  0  0  0  0  0  0  0  0  0  0  0
   35.6010   30.7480   41.3100 N   0  0  0  0  0  0  0  0  0  0  0  0
   39.7390   29.6610   39.6430 H   0  0  0  0  0  0  0  0  0  0  0  0
   35.8230   31.2490   42.2140 H   0  0  0  0  0  0  0  0  0  0  0  0
   34.6340   30.7430   40.9070 H   0  0  0  0  0  0  0  0  0  0  0  0
   37.0660   32.9450   39.5580 H   0  0  0  0  0  0  0  0  0  0  0  0
   38.1160   32.8590   39.6540 N   0  0  0  0  0  0  0  0  0  0  0  0
   38.3820   31.9330   40.7630 C   0  0  2  0  0  3  0  0  0  0  0  0
   39.8150   32.0780   41.1750 C   0  0  0  0  0  3  0  0  0  0  0  0
   40.3020   31.1020   41.3220 H   0  0  0  0  0  0  0  0  0  0  0  0
   40.5270   32.8000   40.2210 O   0  0  0  0  0  0  0  0  0  0  0  0
   40.0720   34.1130   40.1330 C   0  0  0  0  0  2  0  0  0  0  0  0
   38.5490   34.1590   40.1940 C   0  0  0  0  0  2  0  0  0  0  0  0
   36.4940   25.5420   38.7380 C   0  0  0  0  0  0  0  0  0  0  0  0
   37.4370   26.0130   39.6730 C   0  0  0  0  0  0  0  0  0  0  0  0
   37.4840   25.2930   40.8460 C   0  0  0  0  0  0  0  0  0  0  0  0
   36.6980   24.2270   41.0860 N   0  0  0  0  0  0  0  0  0  0  0  0
   35.8060   23.8200   40.1430 C   0  0  0  0  0  0  0  0  0  0  0  0
   35.7120   24.4780   38.9830 N   0  0  0  0  0  0  0  0  0  0  0  0
   36.4000   26.0620   37.7880 H   0  0  0  0  0  0  0  0  0  0  0  0
   35.2030   22.9550   40.4040 H   0  0  0  0  0  0  0  0  0  0  0  0
   38.4030   25.6960   41.8450 C   0  0  0  0  0  0  0  0  0  0  0  0
   38.3690   26.5680   42.8910 C   0  0  0  0  0  0  0  0  0  0  0  0
   39.4080   26.7420   43.6790 C   0  0  0  0  0  0  0  0  0  0  0  0
   40.5270   26.0260   43.4300 C   0  0  0  0  0  0  0  0  0  0  0  0
   40.0530   25.0470   41.9710 S   0  0  0  0  0  0  0  0  0  0  0  0
   37.4040   27.1020   43.0040 H   0  0  0  0  0  0  0  0  0  0  0  0
   39.4620   27.4120   44.5270 H   0  0  0  0  0  0  0  0  0  0  0  0
   41.5070   25.9600   43.8930 H   0  0  0  0  0  0  0  0  0  0  0  0
  1 21  1  0  0  0  0
  1  3  1  0  0  0  0
  2  1  2  0  0  0  0
  3  4  2  0  0  0  0
  3  7  1  0  0  0  0
  4  5  1  0  0  0  0
  5  6  1  0  0  0  0
  6  8  1  0  0  0  0
  7  6  2  0  0  0  0
  8 10  1  0  0  0  0
  9  4  1  0  0  0  0
 11  8  1  0  0  0  0
 12 13  1  0  0  0  0
 13 19  1  0  0  0  0
 13 14  1  0  0  0  0
 14  5  1  6  0  0  0
 14 15  1  0  0  0  0
 15 16  1  0  0  0  0
 17 15  1  0  0  0  0
 18 19  1  0  0  0  0
 18 17  1  0  0  0  0
 20 25  2  0  0  0  0
 20 21  1  0  0  0  0
 21 22  2  0  0  0  0
 22 23  1  0  0  0  0
 22 28  1  0  0  0  0
 24 27  1  0  0  0  0
 24 23  2  0  0  0  0
 25 24  1  0  0  0  0
 26 20  1  0  0  0  0
 28 32  1  0  0  0  0
 28 29  2  0  0  0  0
 29 33  1  0  0  0  0
 29 30  1  0  0  0  0
 30 34  1  0  0  0  0
 31 30  2  0  0  0  0
 31 35  1  0  0  0  0
 32 31  1  0  0  0  0
M  END
>  <minimizedAffinity>
-5.66669464

$$$$

 OpenBabel03252503173D

 35 38  0  0  1  0  0  0  0  0999 V2000
   37.1450   30.5690   40.7870 C   0  0  0  0  0  0  0  0  0  0  0  0
   36.1130   31.2130   41.1620 O   0  0  0  0  0  0  0  0  0  0  0  0
   38.2320   31.1430   39.9270 C   0  0  0  0  0  0  0  0  0  0  0  0
   39.4890   31.5240   40.3670 C   0  0  0  0  0  0  0  0  0  0  0  0
   40.1280   31.9770   39.2720 N   0  0  0  0  0  0  0  0  0  0  0  0
   39.2950   31.8750   38.2150 C   0  0  0  0  0  0  0  0  0  0  0  0
   38.1120   31.3550   38.6200 N   0  0  0  0  0  0  0  0  0  0  0  0
   39.4810   32.2140   36.8400 N   0  0  0  0  0  0  0  0  0  0  0  0
   39.8850   31.4780   41.3550 H   0  0  0  0  0  0  0  0  0  0  0  0
   39.8520   33.1970   36.7160 H   0  0  0  0  0  0  0  0  0  0  0  0
   39.2840   31.5930   36.0200 H   0  0  0  0  0  0  0  0  0  0  0  0
   41.0720   34.5040   39.2830 H   0  0  0  0  0  0  0  0  0  0  0  0
   41.5240   33.8390   38.5940 N   0  0  0  0  0  0  0  0  0  0  0  0
   41.4590   32.4910   39.1750 C   0  0  2  0  0  3  0  0  0  0  0  0
   42.4070   31.6040   38.4300 C   0  0  0  0  0  3  0  0  0  0  0  0
   41.9530   30.6310   38.1840 H   0  0  0  0  0  0  0  0  0  0  0  0
   42.8300   32.2160   37.2540 O   0  0  0  0  0  0  0  0  0  0  0  0
   43.5820   33.3580   37.5180 C   0  0  0  0  0  2  0  0  0  0  0  0
   42.9600   34.1600   38.6560 C   0  0  0  0  0  2  0  0  0  0  0  0
   37.8650   28.9180   42.4530 C   0  0  0  0  0  0  0  0  0  0  0  0
   37.2200   29.2250   41.2380 C   0  0  0  0  0  0  0  0  0  0  0  0
   36.7010   28.1340   40.5790 C   0  0  0  0  0  0  0  0  0  0  0  0
   36.7970   26.8760   41.0480 N   0  0  0  0  0  0  0  0  0  0  0  0
   37.4330   26.6430   42.2280 C   0  0  0  0  0  0  0  0  0  0  0  0
   37.9590   27.6610   42.9170 N   0  0  0  0  0  0  0  0  0  0  0  0
   38.3010   29.7300   43.0300 H   0  0  0  0  0  0  0  0  0  0  0  0
   37.4750   25.6060   42.5460 H   0  0  0  0  0  0  0  0  0  0  0  0
   36.0350   28.3480   39.3470 C   0  0  0  0  0  0  0  0  0  0  0  0
   34.8070   28.8100   38.9820 C   0  0  0  0  0  0  0  0  0  0  0  0
   34.4520   28.9040   37.7190 C   0  0  0  0  0  0  0  0  0  0  0  0
   35.3430   28.5310   36.7740 C   0  0  0  0  0  0  0  0  0  0  0  0
   36.7770   28.0110   37.7660 S   0  0  0  0  0  0  0  0  0  0  0  0
   34.1560   29.0870   39.8360 H   0  0  0  0  0  0  0  0  0  0  0  0
   33.4990   29.2580   37.3480 H   0  0  0  0  0  0  0  0  0  0  0  0
   35.3320   28.4990   35.6890 H   0  0  0  0  0  0  0  0  0  0  0  0
  1  2  2  0  0  0  0
  1 21  1  0  0  0  0
  3  4  2  0  0  0  0
  3  1  1  0  0  0  0
  4  9  1  0  0  0  0
  5  4  1  0  0  0  0
  6  7  2  0  0  0  0
  6  5  1  0  0  0  0
  7  3  1  0  0  0  0
  8  6  1  0  0  0  0
 10  8  1  0  0  0  0
 11  8  1  0  0  0  0
 13 19  1  0  0  0  0
 13 14  1  0  0  0  0
 13 12  1  0  0  0  0
 14  5  1  6  0  0  0
 15 14  1  0  0  0  0
 16 15  1  0  0  0  0
 17 18  1  0  0  0  0
 17 15  1  0  0  0  0
 18 19  1  0  0  0  0
 20 25  1  0  0  0  0
 20 26  1  0  0  0  0
 21 20  2  0  0  0  0
 22 23  2  0  0  0  0
 22 21  1  0  0  0  0
 23 24  1  0  0  0  0
 24 27  1  0  0  0  0
 24 25  2  0  0  0  0
 28 22  1  0  0  0  0
 29 28  2  0  0  0  0
 29 33  1  0  0  0  0
 30 29  1  0  0  0  0
 31 30  2  0  0  0  0
 31 32  1  0  0  0  0
 32 28  1  0  0  0  0
 34 30  1  0  0  0  0
 35 31  1  0  0  0  0
M  END
>  <minimizedAffinity>
-5.57950115

$$$$

 OpenBabel03252503173D

 35 38  0  0  1  0  0  0  0  0999 V2000
   36.5250   29.2490   41.0590 C   0  0  0  0  0  0  0  0  0  0  0  0
   35.2940   28.9910   40.8590 O   0  0  0  0  0  0  0  0  0  0  0  0
   37.1810   30.5530   40.7120 C   0  0  0  0  0  0  0  0  0  0  0  0
   38.5400   30.8140   40.7830 C   0  0  0  0  0  0  0  0  0  0  0  0
   38.6790   32.0930   40.3840 N   0  0  0  0  0  0  0  0  0  0  0  0
   37.4580   32.5850   40.0850 C   0  0  0  0  0  0  0  0  0  0  0  0
   36.5220   31.6270   40.2880 N   0  0  0  0  0  0  0  0  0  0  0  0
   37.0570   33.8740   39.6210 N   0  0  0  0  0  0  0  0  0  0  0  0
   39.3240   30.1590   41.0850 H   0  0  0  0  0  0  0  0  0  0  0  0
   37.4550   34.6550   40.2120 H   0  0  0  0  0  0  0  0  0  0  0  0
   36.4410   34.0680   38.7960 H   0  0  0  0  0  0  0  0  0  0  0  0
   39.3830   34.0810   38.7030 H   0  0  0  0  0  0  0  0  0  0  0  0
   40.1310   33.3640   38.9170 N   0  0  0  0  0  0  0  0  0  0  0  0
   39.8820   32.8580   40.2740 C   0  0  2  0  0  3  0  0  0  0  0  0
   41.1090   32.1450   40.7510 C   0  0  0  0  0  3  0  0  0  0  0  0
   40.8660   31.1840   41.2310 H   0  0  0  0  0  0  0  0  0  0  0  0
   41.9840   31.9140   39.6930 O   0  0  0  0  0  0  0  0  0  0  0  0
   42.4750   33.1080   39.1700 C   0  0  0  0  0  2  0  0  0  0  0  0
   41.3660   34.1500   39.0750 C   0  0  0  0  0  2  0  0  0  0  0  0
   37.5320   28.1990   43.0340 C   0  0  0  0  0  0  0  0  0  0  0  0
   37.2780   28.2000   41.6480 C   0  0  0  0  0  0  0  0  0  0  0  0
   37.8130   27.1280   40.9710 C   0  0  0  0  0  0  0  0  0  0  0  0
   38.5220   26.1560   41.5750 N   0  0  0  0  0  0  0  0  0  0  0  0
   38.7340   26.2100   42.9180 C   0  0  0  0  0  0  0  0  0  0  0  0
   38.2400   27.2270   43.6320 N   0  0  0  0  0  0  0  0  0  0  0  0
   37.1410   29.0160   43.6350 H   0  0  0  0  0  0  0  0  0  0  0  0
   39.3140   25.3940   43.3390 H   0  0  0  0  0  0  0  0  0  0  0  0
   37.6090   27.0470   39.5720 C   0  0  0  0  0  0  0  0  0  0  0  0
   36.6900   26.4480   38.7640 C   0  0  0  0  0  0  0  0  0  0  0  0
   36.7510   26.5480   37.4540 C   0  0  0  0  0  0  0  0  0  0  0  0
   37.7590   27.2700   36.9140 C   0  0  0  0  0  0  0  0  0  0  0  0
   38.6720   27.8350   38.3840 S   0  0  0  0  0  0  0  0  0  0  0  0
   35.9080   25.8820   39.3110 H   0  0  0  0  0  0  0  0  0  0  0  0
   36.0650   26.1040   36.7460 H   0  0  0  0  0  0  0  0  0  0  0  0
   38.0570   27.5210   35.9010 H   0  0  0  0  0  0  0  0  0  0  0  0
  1 21  1  0  0  0  0
  2  1  2  0  0  0  0
  3  4  2  0  0  0  0
  3  1  1  0  0  0  0
  4  9  1  0  0  0  0
  5  4  1  0  0  0  0
  6  7  2  0  0  0  0
  6  5  1  0  0  0  0
  7  3  1  0  0  0  0
  8  6  1  0  0  0  0
  8 10  1  0  0  0  0
 11  8  1  0  0  0  0
 12 13  1  0  0  0  0
 13 19  1  0  0  0  0
 13 14  1  0  0  0  0
 14  5  1  6  0  0  0
 14 15  1  0  0  0  0
 15 16  1  0  0  0  0
 17 15  1  0  0  0  0
 18 17  1  0  0  0  0
 19 18  1  0  0  0  0
 20 25  1  0  0  0  0
 20 26  1  0  0  0  0
 21 20  2  0  0  0  0
 22 23  2  0  0  0  0
 22 21  1  0  0  0  0
 23 24  1  0  0  0  0
 24 27  1  0  0  0  0
 24 25  2  0  0  0  0
 28 22  1  0  0  0  0
 29 33  1  0  0  0  0
 29 28  2  0  0  0  0
 30 29  1  0  0  0  0
 31 30  2  0  0  0  0
 31 32  1  0  0  0  0
 32 28  1  0  0  0  0
 34 30  1  0  0  0  0
 35 31  1  0  0  0  0
M  END
>  <minimizedAffinity>
-5.49844599

$$$$

 OpenBabel03252503173D

 35 38  0  0  1  0  0  0  0  0999 V2000
   36.5530   28.6060   41.0360 C   0  0  0  0  0  0  0  0  0  0  0  0
   36.1830   28.1610   42.1700 O   0  0  0  0  0  0  0  0  0  0  0  0
   37.3570   29.8580   40.8420 C   0  0  0  0  0  0  0  0  0  0  0  0
   38.7280   29.9130   40.6470 C   0  0  0  0  0  0  0  0  0  0  0  0
   39.0180   31.2210   40.5210 N   0  0  0  0  0  0  0  0  0  0  0  0
   37.8740   31.9290   40.6350 C   0  0  0  0  0  0  0  0  0  0  0  0
   36.8370   31.0810   40.8350 N   0  0  0  0  0  0  0  0  0  0  0  0
   37.6340   33.3350   40.5760 N   0  0  0  0  0  0  0  0  0  0  0  0
   39.4210   29.1050   40.6030 H   0  0  0  0  0  0  0  0  0  0  0  0
   38.2780   33.8790   41.2160 H   0  0  0  0  0  0  0  0  0  0  0  0
   36.9140   33.8130   39.9850 H   0  0  0  0  0  0  0  0  0  0  0  0
   40.7810   32.3380   42.2290 H   0  0  0  0  0  0  0  0  0  0  0  0
   40.6420   32.8390   41.3070 N   0  0  0  0  0  0  0  0  0  0  0  0
   40.2960   31.8260   40.3020 C   0  0  2  0  0  3  0  0  0  0  0  0
   40.4670   32.4240   38.9410 C   0  0  0  0  0  3  0  0  0  0  0  0
   39.6180   32.1890   38.2780 H   0  0  0  0  0  0  0  0  0  0  0  0
   40.6040   33.8070   39.0270 O   0  0  0  0  0  0  0  0  0  0  0  0
   41.7740   34.1600   39.6940 C   0  0  0  0  0  2  0  0  0  0  0  0
   41.9950   33.2590   40.9040 C   0  0  0  0  0  2  0  0  0  0  0  0
   35.2210   28.3440   38.9930 C   0  0  0  0  0  0  0  0  0  0  0  0
   36.1520   27.8300   39.9180 C   0  0  0  0  0  0  0  0  0  0  0  0
   36.6010   26.5610   39.6280 C   0  0  0  0  0  0  0  0  0  0  0  0
   36.1900   25.8630   38.5520 N   0  0  0  0  0  0  0  0  0  0  0  0
   35.2890   26.4130   37.6950 C   0  0  0  0  0  0  0  0  0  0  0  0
   34.8140   27.6430   37.9220 N   0  0  0  0  0  0  0  0  0  0  0  0
   34.8210   29.3410   39.1570 H   0  0  0  0  0  0  0  0  0  0  0  0
   35.0010   25.7950   36.8500 H   0  0  0  0  0  0  0  0  0  0  0  0
   37.5390   25.9640   40.5040 C   0  0  0  0  0  0  0  0  0  0  0  0
   38.8820   26.0770   40.7020 C   0  0  0  0  0  0  0  0  0  0  0  0
   39.5060   25.3740   41.6220 C   0  0  0  0  0  0  0  0  0  0  0  0
   38.7790   24.5240   42.3820 C   0  0  0  0  0  0  0  0  0  0  0  0
   37.0960   24.7530   41.7280 S   0  0  0  0  0  0  0  0  0  0  0  0
   39.3800   26.8010   40.0260 H   0  0  0  0  0  0  0  0  0  0  0  0
   40.5650   25.4040   41.8410 H   0  0  0  0  0  0  0  0  0  0  0  0
   39.0110   23.8380   43.1900 H   0  0  0  0  0  0  0  0  0  0  0  0
  1  2  2  0  0  0  0
  3  1  1  0  0  0  0
  4  3  2  0  0  0  0
  5  6  1  0  0  0  0
  5  4  1  0  0  0  0
  6  7  2  0  0  0  0
  7  3  1  0  0  0  0
  8  6  1  0  0  0  0
  8 10  1  0  0  0  0
  9  4  1  0  0  0  0
 11  8  1  0  0  0  0
 13 12  1  0  0  0  0
 14  5  1  1  0  0  0
 14 13  1  0  0  0  0
 15 17  1  0  0  0  0
 15 14  1  0  0  0  0
 16 15  1  0  0  0  0
 17 18  1  0  0  0  0
 18 19  1  0  0  0  0
 19 13  1  0  0  0  0
 20 26  1  0  0  0  0
 20 21  1  0  0  0  0
 21  1  1  0  0  0  0
 22 21  2  0  0  0  0
 22 28  1  0  0  0  0
 23 22  1  0  0  0  0
 24 25  1  0  0  0  0
 24 23  2  0  0  0  0
 25 20  2  0  0  0  0
 27 24  1  0  0  0  0
 28 29  2  0  0  0  0
 28 32  1  0  0  0  0
 29 30  1  0  0  0  0
 30 34  1  0  0  0  0
 30 31  2  0  0  0  0
 31 35  1  0  0  0  0
 32 31  1  0  0  0  0
 33 29  1  0  0  0  0
M  END
>  <minimizedAffinity>
-5.44502926

$$$$

 OpenBabel03252503173D

 35 38  0  0  1  0  0  0  0  0999 V2000
   38.5560   27.0080   42.6250 C   0  0  0  0  0  0  0  0  0  0  0  0
   39.2130   26.7310   43.6800 O   0  0  0  0  0  0  0  0  0  0  0  0
   38.1720   28.3970   42.2090 C   0  0  0  0  0  0  0  0  0  0  0  0
   39.0520   29.4480   42.0040 C   0  0  0  0  0  0  0  0  0  0  0  0
   38.2820   30.4930   41.6460 N   0  0  0  0  0  0  0  0  0  0  0  0
   36.9920   30.0930   41.6350 C   0  0  0  0  0  0  0  0  0  0  0  0
   36.9210   28.7870   41.9850 N   0  0  0  0  0  0  0  0  0  0  0  0
   35.7940   30.8060   41.3270 N   0  0  0  0  0  0  0  0  0  0  0  0
   40.1120   29.4500   42.1040 H   0  0  0  0  0  0  0  0  0  0  0  0
   35.7230   31.7190   41.8580 H   0  0  0  0  0  0  0  0  0  0  0  0
   35.0470   30.4980   40.6610 H   0  0  0  0  0  0  0  0  0  0  0  0
   37.0080   32.4930   40.3600 H   0  0  0  0  0  0  0  0  0  0  0  0
   38.0320   32.3640   40.1260 N   0  0  0  0  0  0  0  0  0  0  0  0
   38.6930   31.8230   41.3210 C   0  0  2  0  0  3  0  0  0  0  0  0
   40.1730   31.9860   41.1640 C   0  0  0  0  0  3  0  0  0  0  0  0
   40.7210   31.0750   41.4500 H   0  0  0  0  0  0  0  0  0  0  0  0
   40.4930   32.3120   39.8490 O   0  0  0  0  0  0  0  0  0  0  0  0
   39.9820   33.5580   39.4950 C   0  0  0  0  0  2  0  0  0  0  0  0
   38.5680   33.7330   40.0390 C   0  0  0  0  0  2  0  0  0  0  0  0
   36.9860   25.2030   42.0810 C   0  0  0  0  0  0  0  0  0  0  0  0
   38.1880   25.8920   41.8280 C   0  0  0  0  0  0  0  0  0  0  0  0
   38.9230   25.3880   40.7780 C   0  0  0  0  0  0  0  0  0  0  0  0
   38.5320   24.3250   40.0500 N   0  0  0  0  0  0  0  0  0  0  0  0
   37.3590   23.7010   40.3440 C   0  0  0  0  0  0  0  0  0  0  0  0
   36.6000   24.1430   41.3520 N   0  0  0  0  0  0  0  0  0  0  0  0
   36.3520   25.5440   42.8960 H   0  0  0  0  0  0  0  0  0  0  0  0
   37.1060   22.8510   39.7170 H   0  0  0  0  0  0  0  0  0  0  0  0
   40.1480   26.0180   40.4520 C   0  0  0  0  0  0  0  0  0  0  0  0
   40.5240   27.0190   39.6080 C   0  0  0  0  0  0  0  0  0  0  0  0
   41.7760   27.4080   39.5120 C   0  0  0  0  0  0  0  0  0  0  0  0
   42.7000   26.7880   40.2790 C   0  0  0  0  0  0  0  0  0  0  0  0
   41.7020   25.5710   41.1920 S   0  0  0  0  0  0  0  0  0  0  0  0
   39.6870   27.4580   39.0270 H   0  0  0  0  0  0  0  0  0  0  0  0
   42.1550   28.1910   38.8680 H   0  0  0  0  0  0  0  0  0  0  0  0
   43.7730   26.8900   40.4100 H   0  0  0  0  0  0  0  0  0  0  0  0
  1  2  2  0  0  0  0
  3  1  1  0  0  0  0
  4  9  1  0  0  0  0
  4  3  2  0  0  0  0
  5  4  1  0  0  0  0
  6  5  1  0  0  0  0
  6  7  2  0  0  0  0
  7  3  1  0  0  0  0
  8  6  1  0  0  0  0
  8 10  1  0  0  0  0
 11  8  1  0  0  0  0
 13 12  1  0  0  0  0
 13 14  1  0  0  0  0
 14  5  1  6  0  0  0
 15 14  1  0  0  0  0
 15 16  1  0  0  0  0
 17 15  1  0  0  0  0
 18 17  1  0  0  0  0
 18 19  1  0  0  0  0
 19 13  1  0  0  0  0
 20 26  1  0  0  0  0
 21 20  1  0  0  0  0
 21  1  1  0  0  0  0
 22 21  2  0  0  0  0
 23 24  2  0  0  0  0
 23 22  1  0  0  0  0
 24 25  1  0  0  0  0
 25 20  2  0  0  0  0
 27 24  1  0  0  0  0
 28 22  1  0  0  0  0
 28 32  1  0  0  0  0
 29 28  2  0  0  0  0
 30 29  1  0  0  0  0
 30 31  2  0  0  0  0
 31 35  1  0  0  0  0
 31 32  1  0  0  0  0
 33 29  1  0  0  0  0
 34 30  1  0  0  0  0
M  END
>  <minimizedAffinity>
-5.39945555

$$$$

 OpenBabel03252503173D

 35 38  0  0  1  0  0  0  0  0999 V2000
   37.1320   30.4250   41.2560 C   0  0  0  0  0  0  0  0  0  0  0  0
   35.9120   30.7540   41.1000 O   0  0  0  0  0  0  0  0  0  0  0  0
   38.2930   31.3320   40.9750 C   0  0  0  0  0  0  0  0  0  0  0  0
   39.5820   31.1610   41.4520 C   0  0  0  0  0  0  0  0  0  0  0  0
   40.2870   32.1950   40.9560 N   0  0  0  0  0  0  0  0  0  0  0  0
   39.4610   32.9600   40.2110 C   0  0  0  0  0  0  0  0  0  0  0  0
   38.2170   32.4240   40.2200 N   0  0  0  0  0  0  0  0  0  0  0  0
   39.7060   34.1590   39.4740 N   0  0  0  0  0  0  0  0  0  0  0  0
   39.9570   30.3850   42.0790 H   0  0  0  0  0  0  0  0  0  0  0  0
   40.1990   34.8930   40.0550 H   0  0  0  0  0  0  0  0  0  0  0  0
   39.4440   34.3330   38.4750 H   0  0  0  0  0  0  0  0  0  0  0  0
   41.5270   33.9920   42.5400 H   0  0  0  0  0  0  0  0  0  0  0  0
   41.9210   33.8790   41.5650 N   0  0  0  0  0  0  0  0  0  0  0  0
   41.6730   32.4930   41.1460 C   0  0  2  0  0  3  0  0  0  0  0  0
   42.5340   32.1890   39.9600 C   0  0  0  0  0  3  0  0  0  0  0  0
   41.9750   31.6640   39.1690 H   0  0  0  0  0  0  0  0  0  0  0  0
   43.0710   33.3600   39.4320 O   0  0  0  0  0  0  0  0  0  0  0  0
   43.9450   33.9680   40.3310 C   0  0  0  0  0  2  0  0  0  0  0  0
   43.3820   33.9150   41.7470 C   0  0  0  0  0  2  0  0  0  0  0  0
   37.4490   28.8500   43.1090 C   0  0  0  0  0  0  0  0  0  0  0  0
   37.3490   29.1040   41.7270 C   0  0  0  0  0  0  0  0  0  0  0  0
   37.4790   27.9880   40.9330 C   0  0  0  0  0  0  0  0  0  0  0  0
   37.6850   26.7530   41.4270 N   0  0  0  0  0  0  0  0  0  0  0  0
   37.7730   26.5700   42.7720 C   0  0  0  0  0  0  0  0  0  0  0  0
   37.6550   27.6160   43.5980 N   0  0  0  0  0  0  0  0  0  0  0  0
   37.3570   29.6840   43.8000 H   0  0  0  0  0  0  0  0  0  0  0  0
   37.9400   25.5490   43.1020 H   0  0  0  0  0  0  0  0  0  0  0  0
   37.3940   28.1490   39.5280 C   0  0  0  0  0  0  0  0  0  0  0  0
   38.2830   28.4190   38.5320 C   0  0  0  0  0  0  0  0  0  0  0  0
   37.9050   28.5130   37.2760 C   0  0  0  0  0  0  0  0  0  0  0  0
   36.5980   28.3310   36.9850 C   0  0  0  0  0  0  0  0  0  0  0  0
   35.8710   28.0080   38.6220 S   0  0  0  0  0  0  0  0  0  0  0  0
   39.3270   28.5500   38.8820 H   0  0  0  0  0  0  0  0  0  0  0  0
   38.5460   28.7240   36.4300 H   0  0  0  0  0  0  0  0  0  0  0  0
   36.0130   28.3470   36.0710 H   0  0  0  0  0  0  0  0  0  0  0  0
  1 21  1  0  0  0  0
  2  1  2  0  0  0  0
  3  1  1  0  0  0  0
  3  4  2  0  0  0  0
  4  9  1  0  0  0  0
  5  4  1  0  0  0  0
  6  7  2  0  0  0  0
  6  5  1  0  0  0  0
  7  3  1  0  0  0  0
  8 10  1  0  0  0  0
  8  6  1  0  0  0  0
 11  8  1  0  0  0  0
 13 19  1  0  0  0  0
 13 12  1  0  0  0  0
 14  5  1  6  0  0  0
 14 13  1  0  0  0  0
 15 14  1  0  0  0  0
 16 15  1  0  0  0  0
 17 15  1  0  0  0  0
 17 18  1  0  0  0  0
 18 19  1  0  0  0  0
 20 25  1  0  0  0  0
 20 26  1  0  0  0  0
 21 20  2  0  0  0  0
 22 23  2  0  0  0  0
 22 21  1  0  0  0  0
 23 24  1  0  0  0  0
 24 27  1  0  0  0  0
 24 25  2  0  0  0  0
 28 22  1  0  0  0  0
 29 33  1  0  0  0  0
 29 28  2  0  0  0  0
 30 29  1  0  0  0  0
 31 30  2  0  0  0  0
 31 32  1  0  0  0  0
 32 28  1  0  0  0  0
 34 30  1  0  0  0  0
 35 31  1  0  0  0  0
M  END
>  <minimizedAffinity>
-5.38796329

$$$$
