
 OpenBabel03242513433D

 45 48  0  0  0  0  0  0  0  0999 V2000
   47.7850   31.0900   46.0020 C   0  0  0  0  0  0  0  0  0  0  0  0
   47.0080   32.0820   45.4750 C   0  0  0  0  0  0  0  0  0  0  0  0
   45.9420   32.5150   46.2200 C   0  0  0  0  0  0  0  0  0  0  0  0
   45.6210   32.0040   47.4630 C   0  0  0  0  0  0  0  0  0  0  0  0
   44.6740   32.2110   48.4090 N   0  0  0  0  0  0  0  0  0  0  0  0
   44.8920   31.3630   49.4600 C   0  0  0  0  0  0  0  0  0  0  0  0
   45.9810   30.6360   49.1480 N   0  0  0  0  0  0  0  0  0  0  0  0
   46.4310   31.0160   47.9400 C   0  0  0  0  0  0  0  0  0  0  0  0
   47.5150   30.5320   47.2500 C   0  0  0  0  0  0  0  0  0  0  0  0
   48.6460   30.6880   45.4820 H   0  0  0  0  0  0  0  0  0  0  0  0
   45.2940   33.3080   45.8380 H   0  0  0  0  0  0  0  0  0  0  0  0
   43.9270   32.9360   48.2660 H   0  0  0  0  0  0  0  0  0  0  0  0
   44.2580   31.3530   50.3300 H   0  0  0  0  0  0  0  0  0  0  0  0
   47.2240   34.4260   42.6780 C   0  0  0  0  0  0  0  0  0  0  0  0
   47.9010   33.6730   41.6920 C   0  0  0  0  0  0  0  0  0  0  0  0
   48.2600   32.3630   42.0430 C   0  0  0  0  0  0  0  0  0  0  0  0
   47.9630   31.8640   43.2690 N   0  0  0  0  0  0  0  0  0  0  0  0
   47.3090   32.6530   44.1650 C   0  0  0  0  0  0  0  0  0  0  0  0
   46.9390   33.9120   43.8930 N   0  0  0  0  0  0  0  0  0  0  0  0
   46.9140   35.4380   42.4930 H   0  0  0  0  0  0  0  0  0  0  0  0
   48.7780   31.7860   41.2870 H   0  0  0  0  0  0  0  0  0  0  0  0
   48.1760   34.3090   40.3880 C   0  0  0  0  0  0  0  0  0  0  0  0
   48.7260   35.5340   40.6980 F   0  0  0  0  0  0  0  0  0  0  0  0
   47.0020   34.4920   39.7400 F   0  0  0  0  0  0  0  0  0  0  0  0
   49.0610   33.4940   39.6840 F   0  0  0  0  0  0  0  0  0  0  0  0
   48.3030   29.5240   47.7870 O   0  0  0  0  0  0  0  0  0  0  0  0
   49.9520   28.3610   49.4200 O   0  0  0  0  0  0  0  0  0  0  0  0
   49.4750   29.7320   48.9740 P   0  0  2  0  0  0  0  0  0  0  0  0
   48.7320   30.4480   50.3220 O   0  0  0  0  0  0  0  0  0  0  0  0
   48.3890   29.8020   50.9610 H   0  0  0  0  0  0  0  0  0  0  0  0
   50.7780   30.6570   48.4800 O   0  0  0  0  0  0  0  0  0  0  0  0
   51.6210   31.0720   49.4820 C   0  0  0  0  0  0  0  0  0  0  0  0
   51.3500   30.5450   50.4340 H   0  0  0  0  0  0  0  0  0  0  0  0
   52.6520   30.8590   49.2080 H   0  0  0  0  0  0  0  0  0  0  0  0
   51.3290   32.5470   49.7370 C   0  0  0  0  0  0  0  0  0  0  0  0
   51.8700   33.1760   48.9820 H   0  0  0  0  0  0  0  0  0  0  0  0
   50.2570   32.7050   49.6270 H   0  0  0  0  0  0  0  0  0  0  0  0
   51.7010   32.9320   51.0790 N   0  0  0  0  0  0  0  0  0  0  0  0
   53.1670   33.0710   51.0760 C   0  0  0  0  0  3  0  0  0  0  0  0
   53.5900   32.1080   50.7280 H   0  0  0  0  0  0  0  0  0  0  0  0
   53.5740   33.2720   52.5200 C   0  0  0  0  0  3  0  0  0  0  0  0
   54.0500   32.3720   52.9530 H   0  0  0  0  0  0  0  0  0  0  0  0
   52.4790   33.5550   53.3420 O   0  0  0  0  0  0  0  0  0  0  0  0
   51.5960   32.4950   53.4150 C   0  0  0  0  0  2  0  0  0  0  0  0
   51.4550   31.8750   52.0410 C   0  0  0  0  0  2  0  0  0  0  0  0
  1  9  1  0  0  0  0
  2  1  2  0  0  0  0
  2  3  1  0  0  0  0
  3  4  2  0  0  0  0
  4  8  1  0  0  0  0
  4  5  1  0  0  0  0
  5  6  1  0  0  0  0
  6 13  1  0  0  0  0
  7  6  2  0  0  0  0
  8  7  1  0  0  0  0
  9 26  1  0  0  0  0
  9  8  2  0  0  0  0
 10  1  1  0  0  0  0
 11  3  1  0  0  0  0
 12  5  1  0  0  0  0
 14 19  1  0  0  0  0
 15 16  1  0  0  0  0
 15 14  2  0  0  0  0
 16 17  2  0  0  0  0
 17 18  1  0  0  0  0
 18  2  1  0  0  0  0
 19 18  2  0  0  0  0
 20 14  1  0  0  0  0
 21 16  1  0  0  0  0
 22 23  1  0  0  0  0
 22 15  1  0  0  0  0
 24 22  1  0  0  0  0
 25 22  1  0  0  0  0
 26 28  1  0  0  0  0
 28 27  2  1  0  0  0
 28 29  1  0  0  0  0
 29 30  1  0  0  0  0
 31 28  1  0  0  0  0
 31 32  1  0  0  0  0
 32 35  1  0  0  0  0
 32 33  1  0  0  0  0
 34 32  1  0  0  0  0
 35 38  1  0  0  0  0
 36 35  1  0  0  0  0
 37 35  1  0  0  0  0
 38 45  1  0  0  0  0
 39 38  1  0  0  0  0
 39 41  1  0  0  0  0
 40 39  1  0  0  0  0
 41 42  1  0  0  0  0
 41 43  1  0  0  0  0
 43 44  1  0  0  0  0
 45 44  1  0  0  0  0
M  END
>  <minimizedAffinity>
-6.02574635

>  <minimizedRMSD>
1.08713412

$$$$
