
 OpenBabel03252503153D

 35 38  0  0  1  0  0  0  0  0999 V2000
   45.4740   34.5240   41.5410 C   0  0  0  0  0  0  0  0  0  0  0  0
   46.6810   34.6610   41.1590 O   0  0  0  0  0  0  0  0  0  0  0  0
   44.3320   34.1970   40.6260 C   0  0  0  0  0  0  0  0  0  0  0  0
   42.9990   34.4930   40.8640 C   0  0  0  0  0  0  0  0  0  0  0  0
   42.3320   34.0240   39.7930 N   0  0  0  0  0  0  0  0  0  0  0  0
   43.2210   33.4680   38.9430 C   0  0  0  0  0  0  0  0  0  0  0  0
   44.4690   33.5740   39.4590 N   0  0  0  0  0  0  0  0  0  0  0  0
   43.0350   32.8350   37.6760 N   0  0  0  0  0  0  0  0  0  0  0  0
   42.5730   34.9850   41.7070 H   0  0  0  0  0  0  0  0  0  0  0  0
   42.2840   32.0900   37.7060 H   0  0  0  0  0  0  0  0  0  0  0  0
   43.5600   33.0520   36.7960 H   0  0  0  0  0  0  0  0  0  0  0  0
   40.4700   32.0760   39.6740 H   0  0  0  0  0  0  0  0  0  0  0  0
   40.3970   32.8360   38.9430 N   0  0  0  0  0  0  0  0  0  0  0  0
   40.9260   34.0720   39.5360 C   0  0  2  0  0  3  0  0  0  0  0  0
   40.4950   35.2320   38.6920 C   0  0  0  0  0  3  0  0  0  0  0  0
   41.3220   35.9350   38.5070 H   0  0  0  0  0  0  0  0  0  0  0  0
   39.9970   34.7890   37.4700 O   0  0  0  0  0  0  0  0  0  0  0  0
   38.8300   34.0470   37.6360 C   0  0  0  0  0  2  0  0  0  0  0  0
   38.9540   33.1110   38.8330 C   0  0  0  0  0  2  0  0  0  0  0  0
   44.8230   35.9530   43.4260 C   0  0  0  0  0  0  0  0  0  0  0  0
   45.2530   34.7050   42.9310 C   0  0  0  0  0  0  0  0  0  0  0  0
   45.4220   33.7380   43.8960 C   0  0  0  0  0  0  0  0  0  0  0  0
   45.1990   33.9580   45.2050 N   0  0  0  0  0  0  0  0  0  0  0  0
   44.7850   35.1850   45.6220 C   0  0  0  0  0  0  0  0  0  0  0  0
   44.6020   36.1670   44.7330 N   0  0  0  0  0  0  0  0  0  0  0  0
   44.6680   36.7670   42.7220 H   0  0  0  0  0  0  0  0  0  0  0  0
   44.6250   35.2930   46.6910 H   0  0  0  0  0  0  0  0  0  0  0  0
   45.8540   32.4520   43.4890 C   0  0  0  0  0  0  0  0  0  0  0  0
   47.0600   31.8290   43.3790 C   0  0  0  0  0  0  0  0  0  0  0  0
   47.1610   30.5870   42.9600 C   0  0  0  0  0  0  0  0  0  0  0  0
   46.0260   29.9260   42.6380 C   0  0  0  0  0  0  0  0  0  0  0  0
   44.7400   31.1730   42.9560 S   0  0  0  0  0  0  0  0  0  0  0  0
   47.9240   32.4620   43.6690 H   0  0  0  0  0  0  0  0  0  0  0  0
   48.0770   30.0230   42.8440 H   0  0  0  0  0  0  0  0  0  0  0  0
   45.8050   28.9270   42.2760 H   0  0  0  0  0  0  0  0  0  0  0  0
  1 21  1  0  0  0  0
  2  1  2  0  0  0  0
  3  4  2  0  0  0  0
  3  1  1  0  0  0  0
  4  9  1  0  0  0  0
  5  4  1  0  0  0  0
  6  7  2  0  0  0  0
  6  5  1  0  0  0  0
  7  3  1  0  0  0  0
  8 10  1  0  0  0  0
  8  6  1  0  0  0  0
 11  8  1  0  0  0  0
 13 14  1  0  0  0  0
 13 12  1  0  0  0  0
 14  5  1  6  0  0  0
 15 14  1  0  0  0  0
 16 15  1  0  0  0  0
 17 18  1  0  0  0  0
 17 15  1  0  0  0  0
 18 19  1  0  0  0  0
 19 13  1  0  0  0  0
 20 25  1  0  0  0  0
 21 20  2  0  0  0  0
 21 22  1  0  0  0  0
 22 23  2  0  0  0  0
 23 24  1  0  0  0  0
 24 27  1  0  0  0  0
 25 24  2  0  0  0  0
 26 20  1  0  0  0  0
 28 22  1  0  0  0  0
 29 28  2  0  0  0  0
 29 33  1  0  0  0  0
 30 29  1  0  0  0  0
 31 32  1  0  0  0  0
 31 30  2  0  0  0  0
 32 28  1  0  0  0  0
 34 30  1  0  0  0  0
 35 31  1  0  0  0  0
M  END
>  <minimizedAffinity>
-5.4905858

>  <minimizedRMSD>
1.80624986

$$$$
