
 OpenBabel03252503153D

 35 38  0  0  1  0  0  0  0  0999 V2000
   46.0960   34.6240   41.6390 C   0  0  0  0  0  0  0  0  0  0  0  0
   47.3220   34.9030   41.4380 O   0  0  0  0  0  0  0  0  0  0  0  0
   45.1590   34.1250   40.5800 C   0  0  0  0  0  0  0  0  0  0  0  0
   43.7920   34.3490   40.5430 C   0  0  0  0  0  0  0  0  0  0  0  0
   43.3580   33.7260   39.4310 N   0  0  0  0  0  0  0  0  0  0  0  0
   44.4150   33.1500   38.8200 C   0  0  0  0  0  0  0  0  0  0  0  0
   45.5400   33.3970   39.5340 N   0  0  0  0  0  0  0  0  0  0  0  0
   44.4970   32.3790   37.6210 N   0  0  0  0  0  0  0  0  0  0  0  0
   43.1940   34.8930   41.2360 H   0  0  0  0  0  0  0  0  0  0  0  0
   43.7930   31.5910   37.6020 H   0  0  0  0  0  0  0  0  0  0  0  0
   45.1630   32.5420   36.8290 H   0  0  0  0  0  0  0  0  0  0  0  0
   42.1700   34.9310   37.3300 H   0  0  0  0  0  0  0  0  0  0  0  0
   41.5950   34.8620   38.2160 N   0  0  0  0  0  0  0  0  0  0  0  0
   42.0220   33.6490   38.9260 C   0  0  2  0  0  3  0  0  0  0  0  0
   40.9930   33.3130   39.9620 C   0  0  0  0  0  3  0  0  0  0  0  0
   41.4520   33.0530   40.9290 H   0  0  0  0  0  0  0  0  0  0  0  0
   40.1190   34.3800   40.1470 O   0  0  0  0  0  0  0  0  0  0  0  0
   39.3690   34.6270   39.0000 C   0  0  0  0  0  2  0  0  0  0  0  0
   40.2400   34.5180   37.7530 C   0  0  0  0  0  2  0  0  0  0  0  0
   45.0250   36.0290   43.3410 C   0  0  0  0  0  0  0  0  0  0  0  0
   45.6400   34.8170   42.9690 C   0  0  0  0  0  0  0  0  0  0  0  0
   45.7410   33.8950   43.9860 C   0  0  0  0  0  0  0  0  0  0  0  0
   45.2920   34.1250   45.2350 N   0  0  0  0  0  0  0  0  0  0  0  0
   44.7070   35.3160   45.5330 C   0  0  0  0  0  0  0  0  0  0  0  0
   44.5790   36.2540   44.5870 N   0  0  0  0  0  0  0  0  0  0  0  0
   44.9110   36.8070   42.5890 H   0  0  0  0  0  0  0  0  0  0  0  0
   44.3690   35.4340   46.5580 H   0  0  0  0  0  0  0  0  0  0  0  0
   46.3470   32.6470   43.7040 C   0  0  0  0  0  0  0  0  0  0  0  0
   47.6190   32.1600   43.7500 C   0  0  0  0  0  0  0  0  0  0  0  0
   47.8940   30.9160   43.4210 C   0  0  0  0  0  0  0  0  0  0  0  0
   46.8760   30.1170   43.0310 C   0  0  0  0  0  0  0  0  0  0  0  0
   45.4370   31.2250   43.1460 S   0  0  0  0  0  0  0  0  0  0  0  0
   48.3750   32.9000   44.0820 H   0  0  0  0  0  0  0  0  0  0  0  0
   48.8730   30.4550   43.4290 H   0  0  0  0  0  0  0  0  0  0  0  0
   46.8010   29.0820   42.7120 H   0  0  0  0  0  0  0  0  0  0  0  0
  1 21  1  0  0  0  0
  2  1  2  0  0  0  0
  3  1  1  0  0  0  0
  4  3  2  0  0  0  0
  4  9  1  0  0  0  0
  5  4  1  0  0  0  0
  6  5  1  0  0  0  0
  6  7  2  0  0  0  0
  7  3  1  0  0  0  0
  8  6  1  0  0  0  0
 10  8  1  0  0  0  0
 11  8  1  0  0  0  0
 12 13  1  0  0  0  0
 13 14  1  0  0  0  0
 14  5  1  1  0  0  0
 14 15  1  0  0  0  0
 15 17  1  0  0  0  0
 15 16  1  0  0  0  0
 18 17  1  0  0  0  0
 19 13  1  0  0  0  0
 19 18  1  0  0  0  0
 20 25  1  0  0  0  0
 21 20  2  0  0  0  0
 21 22  1  0  0  0  0
 22 23  2  0  0  0  0
 23 24  1  0  0  0  0
 24 27  1  0  0  0  0
 25 24  2  0  0  0  0
 26 20  1  0  0  0  0
 28 29  2  0  0  0  0
 28 22  1  0  0  0  0
 29 33  1  0  0  0  0
 30 34  1  0  0  0  0
 30 29  1  0  0  0  0
 31 32  1  0  0  0  0
 31 30  2  0  0  0  0
 32 28  1  0  0  0  0
 35 31  1  0  0  0  0
M  END
>  <minimizedAffinity>
-5.5776825

>  <minimizedRMSD>
0.803350389

$$$$
