
 OpenBabel03242520123D

 33 35  0  0  0  0  0  0  0  0999 V2000
   46.1710   32.5710   46.9470 C   0  0  0  0  0  0  0  0  0  0  0  0
   45.2810   32.6160   47.9700 C   0  0  0  0  0  0  0  0  0  0  0  0
   45.4870   31.7910   49.0610 C   0  0  0  0  0  0  0  0  0  0  0  0
   46.5750   30.9390   49.1070 C   0  0  0  0  0  0  0  0  0  0  0  0
   47.4620   30.9250   48.0400 C   0  0  0  0  0  0  0  0  0  0  0  0
   47.2410   31.7210   47.0150 N   0  0  0  0  0  0  0  0  0  0  0  0
   44.4650   33.3120   47.8410 H   0  0  0  0  0  0  0  0  0  0  0  0
   44.7570   31.8410   49.8760 H   0  0  0  0  0  0  0  0  0  0  0  0
   46.6910   30.3140   49.9780 H   0  0  0  0  0  0  0  0  0  0  0  0
   44.9420   35.0190   44.5360 C   0  0  0  0  0  0  0  0  0  0  0  0
   45.8980   34.8970   43.5080 C   0  0  0  0  0  0  0  0  0  0  0  0
   46.9590   33.9920   43.6240 C   0  0  0  0  0  0  0  0  0  0  0  0
   46.9580   33.2870   44.7730 N   0  0  0  0  0  0  0  0  0  0  0  0
   46.0610   33.3950   45.7430 C   0  0  0  0  0  0  0  0  0  0  0  0
   45.0570   34.2670   45.6110 N   0  0  0  0  0  0  0  0  0  0  0  0
   43.8770   35.9580   44.3590 N   0  0  0  0  0  0  0  0  0  0  0  0
   45.8030   35.5180   42.6230 H   0  0  0  0  0  0  0  0  0  0  0  0
   47.6880   33.8920   42.8550 H   0  0  0  0  0  0  0  0  0  0  0  0
   43.9470   36.6690   43.5960 H   0  0  0  0  0  0  0  0  0  0  0  0
   43.0550   35.8890   45.0160 H   0  0  0  0  0  0  0  0  0  0  0  0
   48.6240   30.0480   48.0370 C   0  0  0  0  0  0  0  0  0  0  0  0
   49.7190   30.2800   48.7590 C   0  0  0  0  0  0  0  0  0  0  0  0
   49.8300   31.4490   49.6470 C   0  0  0  0  0  0  0  0  0  0  0  0
   50.4680   32.2410   49.1630 H   0  0  0  0  0  0  0  0  0  0  0  0
   48.8320   31.9560   49.7830 H   0  0  0  0  0  0  0  0  0  0  0  0
   50.3230   31.1770   50.9610 N   0  0  0  0  0  0  0  0  0  0  0  0
   51.5430   31.9000   51.2280 C   0  0  0  0  0  0  0  0  0  0  0  0
   51.2240   32.8610   51.7060 H   0  0  0  0  0  0  0  0  0  0  0  0
   52.4080   31.2140   52.2510 C   0  0  0  0  0  0  0  0  0  0  0  0
   53.0540   31.9030   52.7920 H   0  0  0  0  0  0  0  0  0  0  0  0
   51.5780   30.4590   53.1130 O   0  0  0  0  0  0  0  0  0  0  0  0
   51.2330   29.3380   52.3470 C   0  0  0  0  0  0  0  0  0  0  0  0
   50.3850   29.7740   51.1870 C   0  0  0  0  0  0  0  0  0  0  0  0
  1  6  2  0  0  0  0
  1  2  1  0  0  0  0
  2  3  2  0  0  0  0
  3  4  1  0  0  0  0
  3  8  1  0  0  0  0
  4  9  1  0  0  0  0
  5  4  2  0  0  0  0
  6  5  1  0  0  0  0
  7  2  1  0  0  0  0
 10 15  1  0  0  0  0
 11 12  1  0  0  0  0
 11 10  2  0  0  0  0
 12 13  2  0  0  0  0
 13 14  1  0  0  0  0
 14  1  1  0  0  0  0
 15 14  2  0  0  0  0
 16 10  1  0  0  0  0
 16 20  1  0  0  0  0
 17 11  1  0  0  0  0
 18 12  1  0  0  0  0
 19 16  1  0  0  0  0
 21  5  1  0  0  0  0
 21 22  2  0  0  0  0
 22 23  1  0  0  0  0
 23 25  1  0  0  0  0
 23 26  1  0  0  0  0
 24 23  1  0  0  0  0
 26 33  1  0  0  0  0
 26 27  1  0  0  0  0
 27 28  1  0  0  0  0
 27 29  1  0  0  0  0
 29 30  1  0  0  0  0
 29 31  1  0  0  0  0
 32 31  1  0  0  0  0
 33 32  1  0  0  0  0
M  END
>  <minimizedAffinity>
-6.4999299

>  <minimizedRMSD>
0.429685116

$$$$
