
 OpenBabel03242520123D

 33 35  0  0  0  0  0  0  0  0999 V2000
   46.1500   32.5630   46.9680 C   0  0  0  0  0  0  0  0  0  0  0  0
   45.2400   32.5980   47.9740 C   0  0  0  0  0  0  0  0  0  0  0  0
   45.4360   31.7780   49.0700 C   0  0  0  0  0  0  0  0  0  0  0  0
   46.5350   30.9410   49.1390 C   0  0  0  0  0  0  0  0  0  0  0  0
   47.4420   30.9370   48.0890 C   0  0  0  0  0  0  0  0  0  0  0  0
   47.2300   31.7280   47.0580 N   0  0  0  0  0  0  0  0  0  0  0  0
   44.4170   33.2830   47.8270 H   0  0  0  0  0  0  0  0  0  0  0  0
   44.6900   31.8200   49.8710 H   0  0  0  0  0  0  0  0  0  0  0  0
   46.6420   30.3200   50.0130 H   0  0  0  0  0  0  0  0  0  0  0  0
   44.9480   35.0060   44.5380 C   0  0  0  0  0  0  0  0  0  0  0  0
   45.9120   34.8780   43.5190 C   0  0  0  0  0  0  0  0  0  0  0  0
   46.9700   33.9690   43.6460 C   0  0  0  0  0  0  0  0  0  0  0  0
   46.9570   33.2690   44.7980 N   0  0  0  0  0  0  0  0  0  0  0  0
   46.0530   33.3830   45.7600 C   0  0  0  0  0  0  0  0  0  0  0  0
   45.0520   34.2580   45.6170 N   0  0  0  0  0  0  0  0  0  0  0  0
   43.8880   35.9470   44.3490 N   0  0  0  0  0  0  0  0  0  0  0  0
   45.8260   35.4960   42.6300 H   0  0  0  0  0  0  0  0  0  0  0  0
   47.7040   33.8640   42.8830 H   0  0  0  0  0  0  0  0  0  0  0  0
   43.9660   36.6560   43.5840 H   0  0  0  0  0  0  0  0  0  0  0  0
   43.0600   35.8840   45.0000 H   0  0  0  0  0  0  0  0  0  0  0  0
   48.6160   30.0760   48.1110 C   0  0  0  0  0  3  0  0  0  0  0  0
   49.7300   30.3720   48.7770 C   0  0  0  0  0  3  0  0  0  0  0  0
   49.8530   31.6040   49.5730 C   0  0  0  0  0  0  0  0  0  0  0  0
   50.4850   32.3560   49.0240 H   0  0  0  0  0  0  0  0  0  0  0  0
   48.8580   32.1210   49.6840 H   0  0  0  0  0  0  0  0  0  0  0  0
   50.3630   31.4300   50.8980 N   0  0  0  0  0  0  0  0  0  0  0  0
   51.4950   32.2900   51.1470 C   0  0  0  0  0  3  0  0  0  0  0  0
   51.0690   33.2240   51.5910 H   0  0  0  0  0  0  0  0  0  0  0  0
   52.4220   31.7360   52.1940 C   0  0  0  0  0  3  0  0  0  0  0  0
   52.9850   32.5080   52.7150 H   0  0  0  0  0  0  0  0  0  0  0  0
   51.6740   30.9220   53.0760 O   0  0  0  0  0  0  0  0  0  0  0  0
   51.4590   29.7470   52.3460 C   0  0  0  0  0  2  0  0  0  0  0  0
   50.5770   30.0500   51.1690 C   0  0  0  0  0  2  0  0  0  0  0  0
  1  6  2  0  0  0  0
  1  2  1  0  0  0  0
  2  3  2  0  0  0  0
  3  4  1  0  0  0  0
  3  8  1  0  0  0  0
  4  9  1  0  0  0  0
  5 21  1  0  0  0  0
  5  4  2  0  0  0  0
  6  5  1  0  0  0  0
  7  2  1  0  0  0  0
 10 15  1  0  0  0  0
 11 12  1  0  0  0  0
 11 10  2  0  0  0  0
 12 13  2  0  0  0  0
 13 14  1  0  0  0  0
 14  1  1  0  0  0  0
 15 14  2  0  0  0  0
 16 10  1  0  0  0  0
 16 20  1  0  0  0  0
 17 11  1  0  0  0  0
 18 12  1  0  0  0  0
 19 16  1  0  0  0  0
 21 22  2  0  0  0  0
 22 23  1  0  0  0  0
 23 25  1  0  0  0  0
 23 26  1  0  0  0  0
 24 23  1  0  0  0  0
 26 27  1  0  0  0  0
 26 33  1  0  0  0  0
 27 28  1  0  0  0  0
 27 29  1  0  0  0  0
 29 30  1  0  0  0  0
 29 31  1  0  0  0  0
 32 31  1  0  0  0  0
 33 32  1  0  0  0  0
M  END
>  <minimizedAffinity>
-6.44711828

>  <minimizedRMSD>
0.732827544

$$$$
