
 OpenBabel03242521103D

 18 19  0  0  1  0  0  0  0  0999 V2000
   44.5640   35.7170   44.7440 C   0  0  0  0  0  0  0  0  0  0  0  0
   44.9540   36.2150   43.4730 C   0  0  0  0  0  0  0  0  0  0  0  0
   45.9300   35.4870   42.7600 C   0  0  0  0  0  0  0  0  0  0  0  0
   46.4200   34.3740   43.3400 N   0  0  0  0  0  0  0  0  0  0  0  0
   46.0300   33.9240   44.5510 C   0  0  0  0  0  0  0  0  0  0  0  0
   45.1060   34.5930   45.2500 N   0  0  0  0  0  0  0  0  0  0  0  0
   43.8180   36.2480   45.3210 H   0  0  0  0  0  0  0  0  0  0  0  0
   44.5270   37.1100   43.0660 H   0  0  0  0  0  0  0  0  0  0  0  0
   46.2320   35.8570   41.7950 H   0  0  0  0  0  0  0  0  0  0  0  0
   46.8570   32.4360   45.0480 S   0  0  0  0  0  0  0  0  0  0  0  0
   47.1070   33.4480   47.7010 H   0  0  0  0  0  0  0  0  0  0  0  0
   46.2960   32.8230   47.6280 N   0  0  0  0  0  0  0  0  0  0  0  0
   46.3850   31.7930   46.6210 C   0  0  2  0  0  3  0  0  0  0  0  0
   47.3080   30.7480   47.2190 C   0  0  0  0  0  3  0  0  0  0  0  0
   48.1850   31.2140   47.7430 H   0  0  0  0  0  0  0  0  0  0  0  0
   46.5590   30.1350   48.2120 O   0  0  0  0  0  0  0  0  0  0  0  0
   46.1010   30.9350   49.2060 C   0  0  0  0  0  3  0  0  0  0  0  0
   45.7960   32.3610   48.8800 C   0  0  0  0  0  3  0  0  0  0  0  0
  1  6  1  0  0  0  0
  1  7  1  0  0  0  0
  2  1  2  0  0  0  0
  3  4  2  0  0  0  0
  3  2  1  0  0  0  0
  4  5  1  0  0  0  0
  5 10  1  0  0  0  0
  5  6  2  0  0  0  0
  8  2  1  0  0  0  0
  9  3  1  0  0  0  0
 12 11  1  0  0  0  0
 12 18  1  0  0  0  0
 13 10  1  6  0  0  0
 13 14  1  0  0  0  0
 13 12  1  0  0  0  0
 14 15  1  0  0  0  0
 14 16  1  0  0  0  0
 16 17  1  0  0  0  0
 18 17  2  0  0  0  0
M  END
>  <minimizedAffinity>
-4.3399024

>  <minimizedRMSD>
2.40450501

$$$$
