
 OpenBabel03242520133D

 33 35  0  0  0  0  0  0  0  0999 V2000
   37.7810   30.2960   40.4050 C   0  0  0  0  0  0  0  0  0  0  0  0
   37.4360   29.8560   39.1690 C   0  0  0  0  0  0  0  0  0  0  0  0
   37.2310   30.7890   38.1680 C   0  0  0  0  0  0  0  0  0  0  0  0
   37.3750   32.1400   38.4230 C   0  0  0  0  0  0  0  0  0  0  0  0
   37.7300   32.5480   39.7000 C   0  0  0  0  0  0  0  0  0  0  0  0
   37.9190   31.6380   40.6330 N   0  0  0  0  0  0  0  0  0  0  0  0
   37.3470   28.7830   39.0700 H   0  0  0  0  0  0  0  0  0  0  0  0
   36.9510   30.4140   37.1780 H   0  0  0  0  0  0  0  0  0  0  0  0
   37.2020   32.8290   37.6120 H   0  0  0  0  0  0  0  0  0  0  0  0
   37.2010   28.1170   43.2730 C   0  0  0  0  0  0  0  0  0  0  0  0
   38.5200   27.7700   43.6270 C   0  0  0  0  0  0  0  0  0  0  0  0
   39.6080   28.2690   42.9010 C   0  0  0  0  0  0  0  0  0  0  0  0
   39.2640   29.0760   41.8780 N   0  0  0  0  0  0  0  0  0  0  0  0
   38.0260   29.4080   41.5410 C   0  0  0  0  0  0  0  0  0  0  0  0
   37.0020   28.9190   42.2480 N   0  0  0  0  0  0  0  0  0  0  0  0
   36.1300   27.5800   44.0550 N   0  0  0  0  0  0  0  0  0  0  0  0
   38.6840   27.1080   44.4710 H   0  0  0  0  0  0  0  0  0  0  0  0
   40.6090   28.0130   43.1590 H   0  0  0  0  0  0  0  0  0  0  0  0
   36.3250   26.7930   44.7150 H   0  0  0  0  0  0  0  0  0  0  0  0
   35.1740   28.0090   43.9290 H   0  0  0  0  0  0  0  0  0  0  0  0
   37.8960   33.9580   40.0230 C   0  0  0  0  0  3  0  0  0  0  0  0
   39.0760   34.5150   40.2930 C   0  0  0  0  0  3  0  0  0  0  0  0
   40.3250   33.7370   40.2640 C   0  0  0  0  0  0  0  0  0  0  0  0
   40.8800   33.8650   41.2350 H   0  0  0  0  0  0  0  0  0  0  0  0
   40.1170   32.6300   40.2190 H   0  0  0  0  0  0  0  0  0  0  0  0
   41.2010   34.0240   39.1710 N   0  0  0  0  0  0  0  0  0  0  0  0
   40.9980   33.1070   38.0760 C   0  0  0  0  0  3  0  0  0  0  0  0
   40.2450   33.5970   37.4090 H   0  0  0  0  0  0  0  0  0  0  0  0
   42.2310   32.9370   37.2290 C   0  0  0  0  0  3  0  0  0  0  0  0
   42.0060   32.6530   36.2030 H   0  0  0  0  0  0  0  0  0  0  0  0
   43.0000   34.1230   37.3060 O   0  0  0  0  0  0  0  0  0  0  0  0
   43.6020   34.0480   38.5680 C   0  0  0  0  0  2  0  0  0  0  0  0
   42.5440   34.1380   39.6290 C   0  0  0  0  0  2  0  0  0  0  0  0
  1  6  1  0  0  0  0
  1 14  1  0  0  0  0
  2  1  2  0  0  0  0
  3  4  2  0  0  0  0
  3  2  1  0  0  0  0
  4  5  1  0  0  0  0
  5 21  1  0  0  0  0
  5  6  2  0  0  0  0
  7  2  1  0  0  0  0
  8  3  1  0  0  0  0
  9  4  1  0  0  0  0
 10 11  1  0  0  0  0
 10 16  1  0  0  0  0
 11 17  1  0  0  0  0
 12 18  1  0  0  0  0
 12 11  2  0  0  0  0
 13 12  1  0  0  0  0
 14 13  2  0  0  0  0
 14 15  1  0  0  0  0
 15 10  2  0  0  0  0
 16 19  1  0  0  0  0
 20 16  1  0  0  0  0
 21 22  2  0  0  0  0
 23 22  1  0  0  0  0
 23 24  1  0  0  0  0
 25 23  1  0  0  0  0
 26 33  1  0  0  0  0
 26 23  1  0  0  0  0
 27 26  1  0  0  0  0
 28 27  1  0  0  0  0
 29 31  1  0  0  0  0
 29 27  1  0  0  0  0
 30 29  1  0  0  0  0
 31 32  1  0  0  0  0
 32 33  1  0  0  0  0
M  END
>  <minimizedAffinity>
-5.82358694

$$$$

 OpenBabel03242520133D

 33 35  0  0  0  0  0  0  0  0999 V2000
   39.8260   30.2740   42.0100 C   0  0  0  0  0  0  0  0  0  0  0  0
   41.0310   29.6610   42.1370 C   0  0  0  0  0  0  0  0  0  0  0  0
   41.0890   28.4520   42.8050 C   0  0  0  0  0  0  0  0  0  0  0  0
   39.9460   27.8790   43.3310 C   0  0  0  0  0  0  0  0  0  0  0  0
   38.7340   28.5380   43.1780 C   0  0  0  0  0  0  0  0  0  0  0  0
   38.7080   29.6880   42.5380 N   0  0  0  0  0  0  0  0  0  0  0  0
   41.8640   30.1870   41.6930 H   0  0  0  0  0  0  0  0  0  0  0  0
   42.0700   27.9740   42.8990 H   0  0  0  0  0  0  0  0  0  0  0  0
   40.0430   26.9370   43.8450 H   0  0  0  0  0  0  0  0  0  0  0  0
   38.2270   33.0820   40.3160 C   0  0  0  0  0  0  0  0  0  0  0  0
   39.3320   33.9190   40.0670 C   0  0  0  0  0  0  0  0  0  0  0  0
   40.6190   33.5410   40.4690 C   0  0  0  0  0  0  0  0  0  0  0  0
   40.6720   32.3460   41.0890 N   0  0  0  0  0  0  0  0  0  0  0  0
   39.6370   31.5520   41.3250 C   0  0  0  0  0  0  0  0  0  0  0  0
   38.4180   31.9340   40.9330 N   0  0  0  0  0  0  0  0  0  0  0  0
   36.9370   33.5190   39.8780 N   0  0  0  0  0  0  0  0  0  0  0  0
   39.1740   34.8660   39.5600 H   0  0  0  0  0  0  0  0  0  0  0  0
   41.4610   34.1660   40.2870 H   0  0  0  0  0  0  0  0  0  0  0  0
   36.8080   34.5160   39.5880 H   0  0  0  0  0  0  0  0  0  0  0  0
   36.1600   32.8060   39.8660 H   0  0  0  0  0  0  0  0  0  0  0  0
   37.5000   27.9800   43.7120 C   0  0  0  0  0  3  0  0  0  0  0  0
   36.6950   27.1790   43.0140 C   0  0  0  0  0  3  0  0  0  0  0  0
   37.0100   26.7750   41.6350 C   0  0  0  0  0  0  0  0  0  0  0  0
   36.0670   26.7360   41.0210 H   0  0  0  0  0  0  0  0  0  0  0  0
   37.6370   27.5520   41.1130 H   0  0  0  0  0  0  0  0  0  0  0  0
   37.7160   25.5390   41.5040 N   0  0  0  0  0  0  0  0  0  0  0  0
   38.8090   25.6500   40.5680 C   0  0  0  0  0  3  0  0  0  0  0  0
   39.7030   25.9270   41.1820 H   0  0  0  0  0  0  0  0  0  0  0  0
   39.1570   24.3330   39.9270 C   0  0  0  0  0  3  0  0  0  0  0  0
   40.1940   24.2790   39.6030 H   0  0  0  0  0  0  0  0  0  0  0  0
   38.8110   23.2910   40.8190 O   0  0  0  0  0  0  0  0  0  0  0  0
   37.4170   23.2110   40.7150 C   0  0  0  0  0  2  0  0  0  0  0  0
   36.8070   24.4720   41.2540 C   0  0  0  0  0  2  0  0  0  0  0  0
  1  2  2  0  0  0  0
  1  6  1  0  0  0  0
  2  3  1  0  0  0  0
  3  8  1  0  0  0  0
  3  4  2  0  0  0  0
  4  9  1  0  0  0  0
  5  4  1  0  0  0  0
  5 21  1  0  0  0  0
  6  5  2  0  0  0  0
  7  2  1  0  0  0  0
 10 15  1  0  0  0  0
 11 10  2  0  0  0  0
 11 12  1  0  0  0  0
 12 13  2  0  0  0  0
 13 14  1  0  0  0  0
 14  1  1  0  0  0  0
 15 14  2  0  0  0  0
 16 10  1  0  0  0  0
 17 11  1  0  0  0  0
 18 12  1  0  0  0  0
 19 16  1  0  0  0  0
 20 16  1  0  0  0  0
 22 21  2  0  0  0  0
 23 22  1  0  0  0  0
 24 23  1  0  0  0  0
 25 23  1  0  0  0  0
 26 23  1  0  0  0  0
 27 28  1  0  0  0  0
 27 26  1  0  0  0  0
 29 27  1  0  0  0  0
 29 31  1  0  0  0  0
 30 29  1  0  0  0  0
 32 31  1  0  0  0  0
 32 33  1  0  0  0  0
 33 26  1  0  0  0  0
M  END
>  <minimizedAffinity>
-5.80951071

$$$$

 OpenBabel03242520133D

 33 35  0  0  0  0  0  0  0  0999 V2000
   39.9020   30.3350   41.9970 C   0  0  0  0  0  0  0  0  0  0  0  0
   41.1050   29.7260   42.1510 C   0  0  0  0  0  0  0  0  0  0  0  0
   41.1500   28.5120   42.8130 C   0  0  0  0  0  0  0  0  0  0  0  0
   39.9950   27.9330   43.3070 C   0  0  0  0  0  0  0  0  0  0  0  0
   38.7860   28.5890   43.1270 C   0  0  0  0  0  0  0  0  0  0  0  0
   38.7730   29.7430   42.4930 N   0  0  0  0  0  0  0  0  0  0  0  0
   41.9470   30.2570   41.7320 H   0  0  0  0  0  0  0  0  0  0  0  0
   42.1300   28.0370   42.9290 H   0  0  0  0  0  0  0  0  0  0  0  0
   40.0830   26.9880   43.8180 H   0  0  0  0  0  0  0  0  0  0  0  0
   38.3310   33.1680   40.3180 C   0  0  0  0  0  0  0  0  0  0  0  0
   39.4460   33.9900   40.0630 C   0  0  0  0  0  0  0  0  0  0  0  0
   40.7300   33.5940   40.4560 C   0  0  0  0  0  0  0  0  0  0  0  0
   40.7710   32.3970   41.0740 N   0  0  0  0  0  0  0  0  0  0  0  0
   39.7260   31.6170   41.3150 C   0  0  0  0  0  0  0  0  0  0  0  0
   38.5100   32.0170   40.9320 N   0  0  0  0  0  0  0  0  0  0  0  0
   37.0440   33.6240   39.8900 N   0  0  0  0  0  0  0  0  0  0  0  0
   39.2970   34.9400   39.5590 H   0  0  0  0  0  0  0  0  0  0  0  0
   41.5800   34.2070   40.2700 H   0  0  0  0  0  0  0  0  0  0  0  0
   36.9270   34.6230   39.6010 H   0  0  0  0  0  0  0  0  0  0  0  0
   36.2570   32.9220   39.8820 H   0  0  0  0  0  0  0  0  0  0  0  0
   37.5410   28.0240   43.6260 C   0  0  0  0  0  3  0  0  0  0  0  0
   36.7670   27.2080   42.9110 C   0  0  0  0  0  3  0  0  0  0  0  0
   37.1310   26.7930   41.5470 C   0  0  0  0  0  0  0  0  0  0  0  0
   38.2510   26.7620   41.4400 H   0  0  0  0  0  0  0  0  0  0  0  0
   36.8130   25.7300   41.3440 H   0  0  0  0  0  0  0  0  0  0  0  0
   36.5730   27.5840   40.4950 N   0  0  0  0  0  0  0  0  0  0  0  0
   37.5920   28.0510   39.5870 C   0  0  0  0  0  3  0  0  0  0  0  0
   37.6490   27.2800   38.7770 H   0  0  0  0  0  0  0  0  0  0  0  0
   37.2060   29.3300   38.8930 C   0  0  0  0  0  3  0  0  0  0  0  0
   37.6920   29.4530   37.9280 H   0  0  0  0  0  0  0  0  0  0  0  0
   35.7950   29.3860   38.8010 O   0  0  0  0  0  0  0  0  0  0  0  0
   35.3890   29.7220   40.0980 C   0  0  0  0  0  2  0  0  0  0  0  0
   35.7260   28.5950   41.0300 C   0  0  0  0  0  2  0  0  0  0  0  0
  1  2  2  0  0  0  0
  1  6  1  0  0  0  0
  2  3  1  0  0  0  0
  3  8  1  0  0  0  0
  3  4  2  0  0  0  0
  4  9  1  0  0  0  0
  5  4  1  0  0  0  0
  5 21  1  0  0  0  0
  6  5  2  0  0  0  0
  7  2  1  0  0  0  0
 10 15  1  0  0  0  0
 11 10  2  0  0  0  0
 11 12  1  0  0  0  0
 12 13  2  0  0  0  0
 13 14  1  0  0  0  0
 14  1  1  0  0  0  0
 15 14  2  0  0  0  0
 16 10  1  0  0  0  0
 17 11  1  0  0  0  0
 18 12  1  0  0  0  0
 19 16  1  0  0  0  0
 20 16  1  0  0  0  0
 22 21  2  0  0  0  0
 23 22  1  0  0  0  0
 24 23  1  0  0  0  0
 25 23  1  0  0  0  0
 26 33  1  0  0  0  0
 26 23  1  0  0  0  0
 27 26  1  0  0  0  0
 28 27  1  0  0  0  0
 29 27  1  0  0  0  0
 30 29  1  0  0  0  0
 31 29  1  0  0  0  0
 31 32  1  0  0  0  0
 32 33  1  0  0  0  0
M  END
>  <minimizedAffinity>
-5.78984737

$$$$

 OpenBabel03242520133D

 33 35  0  0  0  0  0  0  0  0999 V2000
   37.7770   30.6890   40.6310 C   0  0  0  0  0  0  0  0  0  0  0  0
   37.1510   30.4280   39.4560 C   0  0  0  0  0  0  0  0  0  0  0  0
   36.9610   31.4670   38.5630 C   0  0  0  0  0  0  0  0  0  0  0  0
   37.3990   32.7430   38.8610 C   0  0  0  0  0  0  0  0  0  0  0  0
   38.0360   32.9680   40.0730 C   0  0  0  0  0  0  0  0  0  0  0  0
   38.2040   31.9600   40.9040 N   0  0  0  0  0  0  0  0  0  0  0  0
   36.8450   29.4000   39.3160 H   0  0  0  0  0  0  0  0  0  0  0  0
   36.4510   31.2350   37.6210 H   0  0  0  0  0  0  0  0  0  0  0  0
   37.2260   33.5200   38.1340 H   0  0  0  0  0  0  0  0  0  0  0  0
   37.2400   28.2290   43.2720 C   0  0  0  0  0  0  0  0  0  0  0  0
   38.5590   27.8060   43.5270 C   0  0  0  0  0  0  0  0  0  0  0  0
   39.6340   28.3470   42.8100 C   0  0  0  0  0  0  0  0  0  0  0  0
   39.2760   29.2720   41.8970 N   0  0  0  0  0  0  0  0  0  0  0  0
   38.0370   29.6760   41.6530 C   0  0  0  0  0  0  0  0  0  0  0  0
   37.0270   29.1440   42.3480 N   0  0  0  0  0  0  0  0  0  0  0  0
   36.1840   27.6430   44.0380 N   0  0  0  0  0  0  0  0  0  0  0  0
   38.7340   27.0510   44.2870 H   0  0  0  0  0  0  0  0  0  0  0  0
   40.6350   28.0350   42.9940 H   0  0  0  0  0  0  0  0  0  0  0  0
   36.3780   26.7840   44.6010 H   0  0  0  0  0  0  0  0  0  0  0  0
   35.2390   28.1120   44.0020 H   0  0  0  0  0  0  0  0  0  0  0  0
   38.5180   34.2930   40.4370 C   0  0  0  0  0  3  0  0  0  0  0  0
   39.7500   34.7240   40.1700 C   0  0  0  0  0  3  0  0  0  0  0  0
   40.7270   33.8860   39.4560 C   0  0  0  0  0  0  0  0  0  0  0  0
   40.2410   32.9260   39.1240 H   0  0  0  0  0  0  0  0  0  0  0  0
   41.0530   34.3690   38.4910 H   0  0  0  0  0  0  0  0  0  0  0  0
   41.9250   33.5880   40.1780 N   0  0  0  0  0  0  0  0  0  0  0  0
   41.7970   32.3660   40.9340 C   0  0  0  0  0  3  0  0  0  0  0  0
   42.1760   31.5560   40.2620 H   0  0  0  0  0  0  0  0  0  0  0  0
   42.6960   32.3370   42.1410 C   0  0  0  0  0  3  0  0  0  0  0  0
   42.9640   31.3270   42.4470 H   0  0  0  0  0  0  0  0  0  0  0  0
   43.8290   33.1440   41.8810 O   0  0  0  0  0  0  0  0  0  0  0  0
   43.3450   34.4510   42.0140 C   0  0  0  0  0  2  0  0  0  0  0  0
   42.3490   34.7240   40.9240 C   0  0  0  0  0  2  0  0  0  0  0  0
  1  6  1  0  0  0  0
  1 14  1  0  0  0  0
  2  1  2  0  0  0  0
  3  4  2  0  0  0  0
  3  2  1  0  0  0  0
  4  5  1  0  0  0  0
  5 21  1  0  0  0  0
  5  6  2  0  0  0  0
  7  2  1  0  0  0  0
  8  3  1  0  0  0  0
  9  4  1  0  0  0  0
 10 11  1  0  0  0  0
 10 16  1  0  0  0  0
 11 17  1  0  0  0  0
 12 18  1  0  0  0  0
 12 11  2  0  0  0  0
 13 12  1  0  0  0  0
 14 13  2  0  0  0  0
 14 15  1  0  0  0  0
 15 10  2  0  0  0  0
 16 19  1  0  0  0  0
 20 16  1  0  0  0  0
 22 21  2  0  0  0  0
 23 22  1  0  0  0  0
 23 26  1  0  0  0  0
 24 23  1  0  0  0  0
 25 23  1  0  0  0  0
 26 33  1  0  0  0  0
 26 27  1  0  0  0  0
 27 29  1  0  0  0  0
 28 27  1  0  0  0  0
 29 30  1  0  0  0  0
 31 32  1  0  0  0  0
 31 29  1  0  0  0  0
 33 32  1  0  0  0  0
M  END
>  <minimizedAffinity>
-5.74231863

$$$$

 OpenBabel03242520133D

 33 35  0  0  0  0  0  0  0  0999 V2000
   37.6350   30.5630   40.3910 C   0  0  0  0  0  0  0  0  0  0  0  0
   36.4850   30.3030   39.7190 C   0  0  0  0  0  0  0  0  0  0  0  0
   35.6140   29.3630   40.2400 C   0  0  0  0  0  0  0  0  0  0  0  0
   35.9080   28.7040   41.4180 C   0  0  0  0  0  0  0  0  0  0  0  0
   37.0940   29.0000   42.0750 C   0  0  0  0  0  0  0  0  0  0  0  0
   37.9050   29.8990   41.5560 N   0  0  0  0  0  0  0  0  0  0  0  0
   36.3460   30.8680   38.8080 H   0  0  0  0  0  0  0  0  0  0  0  0
   34.6920   29.1660   39.6810 H   0  0  0  0  0  0  0  0  0  0  0  0
   35.1990   27.9780   41.7820 H   0  0  0  0  0  0  0  0  0  0  0  0
   39.9400   32.4080   38.2460 C   0  0  0  0  0  0  0  0  0  0  0  0
   40.4710   33.3450   39.1540 C   0  0  0  0  0  0  0  0  0  0  0  0
   40.0540   33.3590   40.4910 C   0  0  0  0  0  0  0  0  0  0  0  0
   39.1340   32.4200   40.7900 N   0  0  0  0  0  0  0  0  0  0  0  0
   38.6320   31.5340   39.9420 C   0  0  0  0  0  0  0  0  0  0  0  0
   39.0440   31.5410   38.6700 N   0  0  0  0  0  0  0  0  0  0  0  0
   40.4070   32.4390   36.8950 N   0  0  0  0  0  0  0  0  0  0  0  0
   41.2080   34.0610   38.8040 H   0  0  0  0  0  0  0  0  0  0  0  0
   40.4470   34.0630   41.1860 H   0  0  0  0  0  0  0  0  0  0  0  0
   40.9520   33.2670   36.5630 H   0  0  0  0  0  0  0  0  0  0  0  0
   40.1790   31.6110   36.2820 H   0  0  0  0  0  0  0  0  0  0  0  0
   37.4530   28.3360   43.3200 C   0  0  0  0  0  3  0  0  0  0  0  0
   38.2300   27.2550   43.3770 C   0  0  0  0  0  3  0  0  0  0  0  0
   38.8120   26.6540   42.1660 C   0  0  0  0  0  0  0  0  0  0  0  0
   38.5600   27.2810   41.2660 H   0  0  0  0  0  0  0  0  0  0  0  0
   39.9390   26.6740   42.1990 H   0  0  0  0  0  0  0  0  0  0  0  0
   38.4440   25.2950   41.9180 N   0  0  0  0  0  0  0  0  0  0  0  0
   39.3920   24.6390   41.0510 C   0  0  0  0  0  3  0  0  0  0  0  0
   40.1400   24.1590   41.7310 H   0  0  0  0  0  0  0  0  0  0  0  0
   38.7760   23.5080   40.2720 C   0  0  0  0  0  3  0  0  0  0  0  0
   39.4980   22.7450   39.9890 H   0  0  0  0  0  0  0  0  0  0  0  0
   37.6940   22.9820   41.0160 O   0  0  0  0  0  0  0  0  0  0  0  0
   36.6780   23.9310   40.8440 C   0  0  0  0  0  2  0  0  0  0  0  0
   37.0850   25.2170   41.5040 C   0  0  0  0  0  2  0  0  0  0  0  0
  1  6  1  0  0  0  0
  2  3  1  0  0  0  0
  2  1  2  0  0  0  0
  3  4  2  0  0  0  0
  4  9  1  0  0  0  0
  4  5  1  0  0  0  0
  5 21  1  0  0  0  0
  6  5  2  0  0  0  0
  7  2  1  0  0  0  0
  8  3  1  0  0  0  0
 10 15  2  0  0  0  0
 10 11  1  0  0  0  0
 11 12  2  0  0  0  0
 12 13  1  0  0  0  0
 12 18  1  0  0  0  0
 14  1  1  0  0  0  0
 14 13  2  0  0  0  0
 15 14  1  0  0  0  0
 16 10  1  0  0  0  0
 17 11  1  0  0  0  0
 19 16  1  0  0  0  0
 20 16  1  0  0  0  0
 21 22  2  0  0  0  0
 23 25  1  0  0  0  0
 23 22  1  0  0  0  0
 24 23  1  0  0  0  0
 26 23  1  0  0  0  0
 27 28  1  0  0  0  0
 27 26  1  0  0  0  0
 29 31  1  0  0  0  0
 29 27  1  0  0  0  0
 30 29  1  0  0  0  0
 32 31  1  0  0  0  0
 32 33  1  0  0  0  0
 33 26  1  0  0  0  0
M  END
>  <minimizedAffinity>
-5.71956348

$$$$

 OpenBabel03242520133D

 33 35  0  0  0  0  0  0  0  0999 V2000
   39.0630   32.0470   38.6830 C   0  0  0  0  0  0  0  0  0  0  0  0
   38.5820   31.6300   37.4850 C   0  0  0  0  0  0  0  0  0  0  0  0
   37.3970   30.9160   37.4610 C   0  0  0  0  0  0  0  0  0  0  0  0
   36.7190   30.6340   38.6330 C   0  0  0  0  0  0  0  0  0  0  0  0
   37.2450   31.0800   39.8360 C   0  0  0  0  0  0  0  0  0  0  0  0
   38.3750   31.7580   39.8290 N   0  0  0  0  0  0  0  0  0  0  0  0
   39.1830   31.8990   36.6280 H   0  0  0  0  0  0  0  0  0  0  0  0
   37.0260   30.5870   36.4840 H   0  0  0  0  0  0  0  0  0  0  0  0
   35.8010   30.0730   38.5630 H   0  0  0  0  0  0  0  0  0  0  0  0
   42.0990   33.9040   37.8750 C   0  0  0  0  0  0  0  0  0  0  0  0
   42.5820   34.2150   39.1610 C   0  0  0  0  0  0  0  0  0  0  0  0
   41.8870   33.8020   40.3040 C   0  0  0  0  0  0  0  0  0  0  0  0
   40.7620   33.1070   40.0430 N   0  0  0  0  0  0  0  0  0  0  0  0
   40.3020   32.8090   38.8360 C   0  0  0  0  0  0  0  0  0  0  0  0
   40.9820   33.2160   37.7590 N   0  0  0  0  0  0  0  0  0  0  0  0
   42.8540   34.3490   36.7450 N   0  0  0  0  0  0  0  0  0  0  0  0
   43.5020   34.7840   39.2570 H   0  0  0  0  0  0  0  0  0  0  0  0
   42.2410   34.0320   41.2820 H   0  0  0  0  0  0  0  0  0  0  0  0
   43.6080   35.0610   36.8840 H   0  0  0  0  0  0  0  0  0  0  0  0
   42.6160   33.9330   35.8060 H   0  0  0  0  0  0  0  0  0  0  0  0
   36.5720   30.8120   41.0990 C   0  0  0  0  0  3  0  0  0  0  0  0
   36.7830   29.7140   41.8240 C   0  0  0  0  0  3  0  0  0  0  0  0
   37.7450   28.6820   41.4050 C   0  0  0  0  0  0  0  0  0  0  0  0
   37.9550   28.7760   40.3030 H   0  0  0  0  0  0  0  0  0  0  0  0
   38.7520   28.8420   41.8850 H   0  0  0  0  0  0  0  0  0  0  0  0
   37.3690   27.3350   41.7060 N   0  0  0  0  0  0  0  0  0  0  0  0
   38.3940   26.6570   42.4620 C   0  0  0  0  0  3  0  0  0  0  0  0
   38.1270   26.8160   43.5380 H   0  0  0  0  0  0  0  0  0  0  0  0
   38.3690   25.1660   42.2610 C   0  0  0  0  0  3  0  0  0  0  0  0
   38.7760   24.6150   43.1070 H   0  0  0  0  0  0  0  0  0  0  0  0
   37.0460   24.7740   41.9450 O   0  0  0  0  0  0  0  0  0  0  0  0
   36.8910   25.1670   40.6100 C   0  0  0  0  0  2  0  0  0  0  0  0
   36.9400   26.6650   40.5260 C   0  0  0  0  0  2  0  0  0  0  0  0
  1 14  1  0  0  0  0
  1  6  1  0  0  0  0
  2  1  2  0  0  0  0
  3  2  1  0  0  0  0
  3  4  2  0  0  0  0
  4  5  1  0  0  0  0
  5 21  1  0  0  0  0
  6  5  2  0  0  0  0
  7  2  1  0  0  0  0
  8  3  1  0  0  0  0
  9  4  1  0  0  0  0
 10 11  1  0  0  0  0
 11 17  1  0  0  0  0
 11 12  2  0  0  0  0
 12 18  1  0  0  0  0
 13 12  1  0  0  0  0
 14 13  2  0  0  0  0
 15 10  2  0  0  0  0
 15 14  1  0  0  0  0
 16 19  1  0  0  0  0
 16 10  1  0  0  0  0
 20 16  1  0  0  0  0
 21 22  2  0  0  0  0
 23 26  1  0  0  0  0
 23 22  1  0  0  0  0
 23 25  1  0  0  0  0
 24 23  1  0  0  0  0
 26 27  1  0  0  0  0
 27 28  1  0  0  0  0
 29 27  1  0  0  0  0
 29 30  1  0  0  0  0
 31 29  1  0  0  0  0
 32 31  1  0  0  0  0
 33 32  1  0  0  0  0
 33 26  1  0  0  0  0
M  END
>  <minimizedAffinity>
-5.70259619

$$$$

 OpenBabel03242520133D

 33 35  0  0  0  0  0  0  0  0999 V2000
   39.0460   31.9680   38.7250 C   0  0  0  0  0  0  0  0  0  0  0  0
   38.5470   31.5690   37.5280 C   0  0  0  0  0  0  0  0  0  0  0  0
   37.3630   30.8550   37.5120 C   0  0  0  0  0  0  0  0  0  0  0  0
   36.7030   30.5530   38.6890 C   0  0  0  0  0  0  0  0  0  0  0  0
   37.2470   30.9800   39.8910 C   0  0  0  0  0  0  0  0  0  0  0  0
   38.3760   31.6590   39.8770 N   0  0  0  0  0  0  0  0  0  0  0  0
   39.1350   31.8520   36.6660 H   0  0  0  0  0  0  0  0  0  0  0  0
   36.9770   30.5400   36.5350 H   0  0  0  0  0  0  0  0  0  0  0  0
   35.7850   29.9920   38.6240 H   0  0  0  0  0  0  0  0  0  0  0  0
   42.0550   33.8620   37.9010 C   0  0  0  0  0  0  0  0  0  0  0  0
   42.5700   34.1320   39.1840 C   0  0  0  0  0  0  0  0  0  0  0  0
   41.9060   33.6780   40.3300 C   0  0  0  0  0  0  0  0  0  0  0  0
   40.7770   32.9880   40.0750 N   0  0  0  0  0  0  0  0  0  0  0  0
   40.2870   32.7290   38.8710 C   0  0  0  0  0  0  0  0  0  0  0  0
   40.9370   33.1740   37.7910 N   0  0  0  0  0  0  0  0  0  0  0  0
   42.7790   34.3480   36.7670 N   0  0  0  0  0  0  0  0  0  0  0  0
   43.4900   34.7000   39.2740 H   0  0  0  0  0  0  0  0  0  0  0  0
   42.2860   33.8760   41.3050 H   0  0  0  0  0  0  0  0  0  0  0  0
   43.5330   35.0570   36.9100 H   0  0  0  0  0  0  0  0  0  0  0  0
   42.5160   33.9620   35.8210 H   0  0  0  0  0  0  0  0  0  0  0  0
   36.5940   30.6910   41.1590 C   0  0  0  0  0  3  0  0  0  0  0  0
   36.8640   29.6130   41.8940 C   0  0  0  0  0  3  0  0  0  0  0  0
   37.8750   28.6270   41.4810 C   0  0  0  0  0  0  0  0  0  0  0  0
   37.3740   27.7390   41.0040 H   0  0  0  0  0  0  0  0  0  0  0  0
   38.5350   29.0340   40.6630 H   0  0  0  0  0  0  0  0  0  0  0  0
   38.7540   28.1790   42.5170 N   0  0  0  0  0  0  0  0  0  0  0  0
   40.1040   28.6390   42.3000 C   0  0  0  0  0  3  0  0  0  0  0  0
   40.1830   29.6090   42.8540 H   0  0  0  0  0  0  0  0  0  0  0  0
   41.1300   27.7350   42.9280 C   0  0  0  0  0  3  0  0  0  0  0  0
   42.0540   28.2520   43.1810 H   0  0  0  0  0  0  0  0  0  0  0  0
   40.5450   27.0940   44.0450 O   0  0  0  0  0  0  0  0  0  0  0  0
   39.7250   26.1130   43.4750 C   0  0  0  0  0  2  0  0  0  0  0  0
   38.6140   26.7770   42.7150 C   0  0  0  0  0  2  0  0  0  0  0  0
  1 14  1  0  0  0  0
  1  6  1  0  0  0  0
  2  1  2  0  0  0  0
  3  2  1  0  0  0  0
  3  4  2  0  0  0  0
  4  5  1  0  0  0  0
  5 21  1  0  0  0  0
  6  5  2  0  0  0  0
  7  2  1  0  0  0  0
  8  3  1  0  0  0  0
  9  4  1  0  0  0  0
 10 11  1  0  0  0  0
 11 17  1  0  0  0  0
 11 12  2  0  0  0  0
 12 18  1  0  0  0  0
 13 12  1  0  0  0  0
 14 13  2  0  0  0  0
 15 10  2  0  0  0  0
 15 14  1  0  0  0  0
 16 19  1  0  0  0  0
 16 10  1  0  0  0  0
 20 16  1  0  0  0  0
 21 22  2  0  0  0  0
 23 22  1  0  0  0  0
 23 26  1  0  0  0  0
 24 23  1  0  0  0  0
 25 23  1  0  0  0  0
 26 33  1  0  0  0  0
 27 26  1  0  0  0  0
 27 28  1  0  0  0  0
 27 29  1  0  0  0  0
 29 30  1  0  0  0  0
 29 31  1  0  0  0  0
 32 31  1  0  0  0  0
 33 32  1  0  0  0  0
M  END
>  <minimizedAffinity>
-5.66687107

$$$$

 OpenBabel03242520133D

 33 35  0  0  0  0  0  0  0  0999 V2000
   40.3330   33.3420   39.2440 C   0  0  0  0  0  0  0  0  0  0  0  0
   39.9890   34.4910   39.8780 C   0  0  0  0  0  0  0  0  0  0  0  0
   38.6650   34.6800   40.2300 C   0  0  0  0  0  0  0  0  0  0  0  0
   37.7130   33.7200   39.9410 C   0  0  0  0  0  0  0  0  0  0  0  0
   38.1070   32.5590   39.2910 C   0  0  0  0  0  0  0  0  0  0  0  0
   39.3740   32.4050   38.9680 N   0  0  0  0  0  0  0  0  0  0  0  0
   40.8030   35.1790   40.0590 H   0  0  0  0  0  0  0  0  0  0  0  0
   38.4070   35.6140   40.7410 H   0  0  0  0  0  0  0  0  0  0  0  0
   36.6940   33.9140   40.2330 H   0  0  0  0  0  0  0  0  0  0  0  0
   43.8660   33.7210   38.4140 C   0  0  0  0  0  0  0  0  0  0  0  0
   44.2050   32.4050   38.0460 C   0  0  0  0  0  0  0  0  0  0  0  0
   43.2460   31.3850   38.0760 C   0  0  0  0  0  0  0  0  0  0  0  0
   42.0250   31.7910   38.4770 N   0  0  0  0  0  0  0  0  0  0  0  0
   41.6980   33.0280   38.8240 C   0  0  0  0  0  0  0  0  0  0  0  0
   42.6310   33.9840   38.7880 N   0  0  0  0  0  0  0  0  0  0  0  0
   44.8870   34.7210   38.3590 N   0  0  0  0  0  0  0  0  0  0  0  0
   45.2240   32.1880   37.7390 H   0  0  0  0  0  0  0  0  0  0  0  0
   43.4910   30.3860   37.8000 H   0  0  0  0  0  0  0  0  0  0  0  0
   45.8860   34.4260   38.2620 H   0  0  0  0  0  0  0  0  0  0  0  0
   44.5840   35.7300   38.4200 H   0  0  0  0  0  0  0  0  0  0  0  0
   37.1460   31.5150   38.9630 C   0  0  0  0  0  3  0  0  0  0  0  0
   36.8400   30.5150   39.7880 C   0  0  0  0  0  3  0  0  0  0  0  0
   37.4440   30.4000   41.1250 C   0  0  0  0  0  0  0  0  0  0  0  0
   38.5670   30.4270   41.0430 H   0  0  0  0  0  0  0  0  0  0  0  0
   37.2010   31.2960   41.7640 H   0  0  0  0  0  0  0  0  0  0  0  0
   37.0490   29.2520   41.8810 N   0  0  0  0  0  0  0  0  0  0  0  0
   37.7570   29.1750   43.1350 C   0  0  0  0  0  3  0  0  0  0  0  0
   37.1090   29.7050   43.8790 H   0  0  0  0  0  0  0  0  0  0  0  0
   37.8770   27.7640   43.6450 C   0  0  0  0  0  3  0  0  0  0  0  0
   37.9730   27.7100   44.7280 H   0  0  0  0  0  0  0  0  0  0  0  0
   36.7810   27.0120   43.1590 O   0  0  0  0  0  0  0  0  0  0  0  0
   37.1060   26.7770   41.8180 C   0  0  0  0  0  2  0  0  0  0  0  0
   37.1120   28.0810   41.0740 C   0  0  0  0  0  2  0  0  0  0  0  0
  1  2  1  0  0  0  0
  2  7  1  0  0  0  0
  2  3  2  0  0  0  0
  3  8  1  0  0  0  0
  4  3  1  0  0  0  0
  4  9  1  0  0  0  0
  5  4  2  0  0  0  0
  6  1  2  0  0  0  0
  6  5  1  0  0  0  0
 10 15  1  0  0  0  0
 11 12  1  0  0  0  0
 11 10  2  0  0  0  0
 12 13  2  0  0  0  0
 13 14  1  0  0  0  0
 14  1  1  0  0  0  0
 15 14  2  0  0  0  0
 16 10  1  0  0  0  0
 16 20  1  0  0  0  0
 17 11  1  0  0  0  0
 18 12  1  0  0  0  0
 19 16  1  0  0  0  0
 21  5  1  0  0  0  0
 21 22  2  0  0  0  0
 22 23  1  0  0  0  0
 23 25  1  0  0  0  0
 23 26  1  0  0  0  0
 24 23  1  0  0  0  0
 26 27  1  0  0  0  0
 27 29  1  0  0  0  0
 27 28  1  0  0  0  0
 29 30  1  0  0  0  0
 31 29  1  0  0  0  0
 32 31  1  0  0  0  0
 33 32  1  0  0  0  0
 33 26  1  0  0  0  0
M  END
>  <minimizedAffinity>
-5.59798861

$$$$

 OpenBabel03242520133D

 33 35  0  0  0  0  0  0  0  0999 V2000
   37.2110   30.5210   41.0050 C   0  0  0  0  0  0  0  0  0  0  0  0
   36.1640   30.0070   40.3120 C   0  0  0  0  0  0  0  0  0  0  0  0
   35.6440   28.7880   40.7080 C   0  0  0  0  0  0  0  0  0  0  0  0
   36.1810   28.1080   41.7850 C   0  0  0  0  0  0  0  0  0  0  0  0
   37.2520   28.6680   42.4670 C   0  0  0  0  0  0  0  0  0  0  0  0
   37.7260   29.8310   42.0680 N   0  0  0  0  0  0  0  0  0  0  0  0
   35.8150   30.6120   39.4870 H   0  0  0  0  0  0  0  0  0  0  0  0
   34.8000   28.3890   40.1350 H   0  0  0  0  0  0  0  0  0  0  0  0
   35.7440   27.1600   42.0530 H   0  0  0  0  0  0  0  0  0  0  0  0
   39.7000   33.1780   40.7550 C   0  0  0  0  0  0  0  0  0  0  0  0
   38.9740   34.1710   40.0690 C   0  0  0  0  0  0  0  0  0  0  0  0
   37.6450   33.9500   39.6880 C   0  0  0  0  0  0  0  0  0  0  0  0
   37.1680   32.7390   40.0370 N   0  0  0  0  0  0  0  0  0  0  0  0
   37.8440   31.8000   40.6830 C   0  0  0  0  0  0  0  0  0  0  0  0
   39.1120   32.0330   41.0360 N   0  0  0  0  0  0  0  0  0  0  0  0
   41.0530   33.4630   41.1220 N   0  0  0  0  0  0  0  0  0  0  0  0
   39.4600   35.1140   39.8360 H   0  0  0  0  0  0  0  0  0  0  0  0
   37.0870   34.6930   39.1690 H   0  0  0  0  0  0  0  0  0  0  0  0
   41.5330   34.2890   40.6980 H   0  0  0  0  0  0  0  0  0  0  0  0
   41.5150   32.8170   41.8170 H   0  0  0  0  0  0  0  0  0  0  0  0
   37.8550   27.9960   43.6080 C   0  0  0  0  0  3  0  0  0  0  0  0
   38.8000   27.0630   43.4950 C   0  0  0  0  0  3  0  0  0  0  0  0
   39.3290   26.6520   42.1850 C   0  0  0  0  0  0  0  0  0  0  0  0
   38.7970   25.7260   41.8280 H   0  0  0  0  0  0  0  0  0  0  0  0
   39.0970   27.4170   41.3900 H   0  0  0  0  0  0  0  0  0  0  0  0
   40.7420   26.4380   42.1330 N   0  0  0  0  0  0  0  0  0  0  0  0
   41.1440   25.3500   42.9910 C   0  0  0  0  0  3  0  0  0  0  0  0
   41.1310   24.4370   42.3430 H   0  0  0  0  0  0  0  0  0  0  0  0
   42.5670   25.4830   43.4650 C   0  0  0  0  0  3  0  0  0  0  0  0
   43.0270   24.5250   43.7020 H   0  0  0  0  0  0  0  0  0  0  0  0
   43.2990   26.2120   42.4990 O   0  0  0  0  0  0  0  0  0  0  0  0
   42.8890   27.5360   42.6980 C   0  0  0  0  0  2  0  0  0  0  0  0
   41.4360   27.6630   42.3400 C   0  0  0  0  0  2  0  0  0  0  0  0
  1  6  1  0  0  0  0
  2  3  1  0  0  0  0
  2  1  2  0  0  0  0
  3  4  2  0  0  0  0
  4  9  1  0  0  0  0
  4  5  1  0  0  0  0
  5 21  1  0  0  0  0
  6  5  2  0  0  0  0
  7  2  1  0  0  0  0
  8  3  1  0  0  0  0
 10 15  1  0  0  0  0
 10 16  1  0  0  0  0
 11 10  2  0  0  0  0
 12 13  2  0  0  0  0
 12 11  1  0  0  0  0
 13 14  1  0  0  0  0
 14  1  1  0  0  0  0
 14 15  2  0  0  0  0
 16 20  1  0  0  0  0
 17 11  1  0  0  0  0
 18 12  1  0  0  0  0
 19 16  1  0  0  0  0
 22 21  2  0  0  0  0
 23 22  1  0  0  0  0
 24 23  1  0  0  0  0
 25 23  1  0  0  0  0
 26 23  1  0  0  0  0
 26 33  1  0  0  0  0
 26 27  1  0  0  0  0
 27 29  1  0  0  0  0
 28 27  1  0  0  0  0
 29 30  1  0  0  0  0
 31 32  1  0  0  0  0
 31 29  1  0  0  0  0
 33 32  1  0  0  0  0
M  END
>  <minimizedAffinity>
-5.57489395

$$$$
