
 OpenBabel03242523263D

 44 47  0  0  1  0  0  0  0  0999 V2000
   47.3260   32.6040   44.2160 C   0  0  0  0  0  0  0  0  0  0  0  0
   48.1840   33.0390   43.3140 C   0  0  0  0  0  0  0  0  0  0  0  0
   48.9880   32.0570   42.7550 C   0  0  0  0  0  0  0  0  0  0  0  0
   48.8040   30.7290   43.2050 N   0  0  0  0  0  0  0  0  0  0  0  0
   47.9280   30.3750   44.1100 C   0  0  0  0  0  0  0  0  0  0  0  0
   47.1140   31.3450   44.6790 N   0  0  0  0  0  0  0  0  0  0  0  0
   49.7490   32.2030   42.0000 H   0  0  0  0  0  0  0  0  0  0  0  0
   47.9070   29.3200   44.3520 H   0  0  0  0  0  0  0  0  0  0  0  0
   48.4630   34.4040   42.9350 C   0  0  1  0  0  0  0  0  0  0  0  0
   49.4050   34.8350   42.0680 C   0  0  0  0  0  0  0  0  0  0  0  0
   48.0460   34.7700   41.4290 C   0  0  1  0  0  0  0  0  0  0  0  0
   47.8820   35.1100   43.6120 H   0  0  0  0  0  0  0  0  0  0  0  0
   49.8260   35.8750   42.0860 H   0  0  0  0  0  0  0  0  0  0  0  0
   50.1820   34.1530   41.6210 H   0  0  0  0  0  0  0  0  0  0  0  0
   47.4740   35.7050   41.3160 H   0  0  0  0  0  0  0  0  0  0  0  0
   47.7750   33.6550   40.5980 N   0  0  0  0  0  0  0  0  0  0  0  0
   47.0860   32.9830   40.9700 H   0  0  0  0  0  0  0  0  0  0  0  0
   48.8650   35.4560   38.7460 H   0  0  0  0  0  0  0  0  0  0  0  0
   48.5780   34.4790   38.5550 N   0  0  0  0  0  0  0  0  0  0  0  0
   47.3960   34.1290   39.2840 C   0  0  1  0  0  0  0  0  0  0  0  0
   46.5910   33.0450   38.6150 C   0  0  0  0  0  0  0  0  0  0  0  0
   45.7980   33.4530   37.9690 H   0  0  0  0  0  0  0  0  0  0  0  0
   47.5100   32.2650   37.8760 O   0  0  0  0  0  0  0  0  0  0  0  0
   47.8320   33.0110   36.7440 C   0  0  0  0  0  0  0  0  0  0  0  0
   48.3760   34.3740   37.1220 C   0  0  0  0  0  0  0  0  0  0  0  0
   46.3040   33.4390   44.9110 C   0  0  0  0  0  0  0  0  0  0  0  0
   45.7480   33.8960   45.8630 O   0  0  0  0  0  0  0  0  0  0  0  0
   44.4920   31.7160   43.0820 Cl  0  0  0  0  0  0  0  0  0  0  0  0
   44.6020   33.4590   42.9370 C   0  0  0  0  0  0  0  0  0  0  0  0
   45.4640   34.1190   43.8520 C   0  0  0  0  0  0  0  0  0  0  0  0
   45.4510   35.4700   43.6370 C   0  0  0  0  0  0  0  0  0  0  0  0
   44.7960   36.1990   42.7590 C   0  0  0  0  0  0  0  0  0  0  0  0
   43.9700   35.5070   41.8920 C   0  0  0  0  0  0  0  0  0  0  0  0
   43.8720   34.1620   41.9760 C   0  0  0  0  0  0  0  0  0  0  0  0
   46.0940   36.0830   44.3220 H   0  0  0  0  0  0  0  0  0  0  0  0
   44.8600   37.2870   42.6730 H   0  0  0  0  0  0  0  0  0  0  0  0
   43.4090   36.0970   41.1450 H   0  0  0  0  0  0  0  0  0  0  0  0
   43.0240   33.5810   41.0680 O   0  0  0  0  0  0  0  0  0  0  0  0
   40.7980   32.9950   39.8120 O   0  0  0  0  0  0  0  0  0  0  0  0
   41.3700   33.2580   41.1780 P   0  0  0  0  0  0  0  0  0  0  0  0
   41.1430   31.9260   42.2030 O   0  0  0  0  0  0  0  0  0  0  0  0
   41.4620   31.1050   41.7140 H   0  0  0  0  0  0  0  0  0  0  0  0
   40.5340   34.5430   41.9020 O   0  0  0  0  0  0  0  0  0  0  0  0
   39.5780   34.4200   41.6800 H   0  0  0  0  0  0  0  0  0  0  0  0
  1  6  1  0  0  0  0
  1 26  1  0  0  0  0
  2  1  2  0  0  0  0
  3  4  2  0  0  0  0
  3  2  1  0  0  0  0
  4  5  1  0  0  0  0
  5  8  1  0  0  0  0
  5  6  2  0  0  0  0
  7  3  1  0  0  0  0
  9  2  1  0  0  0  0
  9 12  1  1  0  0  0
 10 13  1  0  0  0  0
 10  9  1  0  0  0  0
 11 15  1  6  0  0  0
 11 10  1  0  0  0  0
 11  9  1  0  0  0  0
 14 10  1  0  0  0  0
 16 17  1  0  0  0  0
 16 11  1  0  0  0  0
 19 18  1  0  0  0  0
 19 20  1  0  0  0  0
 20 16  1  1  0  0  0
 21 20  1  0  0  0  0
 22 21  1  0  0  0  0
 23 21  1  0  0  0  0
 24 25  1  0  0  0  0
 24 23  1  0  0  0  0
 25 19  1  0  0  0  0
 26 27  2  0  0  0  0
 29 28  1  0  0  0  0
 29 30  1  0  0  0  0
 30 26  1  0  0  0  0
 31 30  2  0  0  0  0
 31 35  1  0  0  0  0
 32 31  1  0  0  0  0
 33 34  1  0  0  0  0
 33 32  2  0  0  0  0
 34 29  2  0  0  0  0
 36 32  1  0  0  0  0
 37 33  1  0  0  0  0
 38 40  1  0  0  0  0
 38 34  1  0  0  0  0
 39 40  2  0  0  0  0
 40 43  1  0  0  0  0
 40 41  1  0  0  0  0
 42 41  1  0  0  0  0
 44 43  1  0  0  0  0
M  END
>  <minimizedAffinity>
-6.19597387

>  <minimizedRMSD>
0.976797581

$$$$
