
 OpenBabel03242521093D

 18 19  0  0  1  0  0  0  0  0999 V2000
   44.5620   35.7440   44.8350 C   0  0  0  0  0  0  0  0  0  0  0  0
   44.9470   36.2740   43.5740 C   0  0  0  0  0  0  0  0  0  0  0  0
   45.8740   35.5320   42.8130 C   0  0  0  0  0  0  0  0  0  0  0  0
   46.3270   34.3770   43.3390 N   0  0  0  0  0  0  0  0  0  0  0  0
   45.9440   33.8980   44.5410 C   0  0  0  0  0  0  0  0  0  0  0  0
   45.0650   34.5790   45.2850 N   0  0  0  0  0  0  0  0  0  0  0  0
   43.8530   36.2850   45.4490 H   0  0  0  0  0  0  0  0  0  0  0  0
   44.5510   37.2010   43.2110 H   0  0  0  0  0  0  0  0  0  0  0  0
   46.1720   35.9260   41.8550 H   0  0  0  0  0  0  0  0  0  0  0  0
   46.7140   32.3570   44.9620 S   0  0  0  0  0  0  0  0  0  0  0  0
   47.2770   29.9950   46.4550 H   0  0  0  0  0  0  0  0  0  0  0  0
   47.6270   30.8250   46.9470 N   0  0  0  0  0  0  0  0  0  0  0  0
   46.9170   32.0550   46.6880 C   0  0  2  0  0  3  0  0  0  0  0  0
   45.6400   31.9410   47.5000 C   0  0  0  0  0  3  0  0  0  0  0  0
   45.1920   30.9150   47.4370 H   0  0  0  0  0  0  0  0  0  0  0  0
   46.0400   32.0980   48.8190 O   0  0  0  0  0  0  0  0  0  0  0  0
   46.9400   31.1980   49.2890 C   0  0  0  0  0  3  0  0  0  0  0  0
   47.9190   30.6100   48.3250 C   0  0  0  0  0  3  0  0  0  0  0  0
  1  6  1  0  0  0  0
  1  7  1  0  0  0  0
  2  1  2  0  0  0  0
  3  4  2  0  0  0  0
  3  2  1  0  0  0  0
  4  5  1  0  0  0  0
  5 10  1  0  0  0  0
  5  6  2  0  0  0  0
  8  2  1  0  0  0  0
  9  3  1  0  0  0  0
 11 12  1  0  0  0  0
 12 18  1  0  0  0  0
 13 10  1  6  0  0  0
 13 12  1  0  0  0  0
 13 14  1  0  0  0  0
 14 16  1  0  0  0  0
 15 14  1  0  0  0  0
 16 17  1  0  0  0  0
 18 17  2  0  0  0  0
M  END
>  <minimizedAffinity>
-4.02888966

>  <minimizedRMSD>
1.825629

$$$$
