
 OpenBabel03242523263D

 44 47  0  0  1  0  0  0  0  0999 V2000
   46.6120   33.2820   43.0040 C   0  0  0  0  0  0  0  0  0  0  0  0
   47.8680   32.8860   43.0810 C   0  0  0  0  0  0  0  0  0  0  0  0
   48.0550   31.6680   43.7160 C   0  0  0  0  0  0  0  0  0  0  0  0
   46.9060   31.0010   44.2020 N   0  0  0  0  0  0  0  0  0  0  0  0
   45.6880   31.4620   44.0890 C   0  0  0  0  0  0  0  0  0  0  0  0
   45.4810   32.6790   43.4540 N   0  0  0  0  0  0  0  0  0  0  0  0
   49.0010   31.1680   43.8800 H   0  0  0  0  0  0  0  0  0  0  0  0
   44.9120   30.8380   44.5130 H   0  0  0  0  0  0  0  0  0  0  0  0
   49.0550   33.6110   42.6970 C   0  0  1  0  0  0  0  0  0  0  0  0
   50.3070   33.1180   42.5630 C   0  0  0  0  0  0  0  0  0  0  0  0
   49.6110   33.2440   41.2370 C   0  0  1  0  0  0  0  0  0  0  0  0
   48.8300   34.7270   42.6860 H   0  0  0  0  0  0  0  0  0  0  0  0
   51.2270   33.7560   42.6320 H   0  0  0  0  0  0  0  0  0  0  0  0
   50.5860   32.0700   42.8650 H   0  0  0  0  0  0  0  0  0  0  0  0
   49.8520   34.1090   40.5970 H   0  0  0  0  0  0  0  0  0  0  0  0
   49.0720   32.0610   40.6740 N   0  0  0  0  0  0  0  0  0  0  0  0
   48.0690   31.9020   40.8550 H   0  0  0  0  0  0  0  0  0  0  0  0
   51.1100   33.0970   39.0510 H   0  0  0  0  0  0  0  0  0  0  0  0
   50.7840   32.1130   39.0730 N   0  0  0  0  0  0  0  0  0  0  0  0
   49.3650   32.0380   39.2570 C   0  0  1  0  0  3  0  0  0  0  0  0
   48.7620   30.7830   38.6790 C   0  0  0  0  0  3  0  0  0  0  0  0
   48.3940   30.9320   37.6530 H   0  0  0  0  0  0  0  0  0  0  0  0
   49.7740   29.7970   38.7260 O   0  0  0  0  0  0  0  0  0  0  0  0
   50.6590   30.0970   37.6920 C   0  0  0  0  0  2  0  0  0  0  0  0
   51.1960   31.5080   37.8210 C   0  0  0  0  0  2  0  0  0  0  0  0
   46.1350   34.5120   42.3100 C   0  0  0  0  0  0  0  0  0  0  0  0
   45.9760   35.6890   42.1830 O   0  0  0  0  0  0  0  0  0  0  0  0
   43.0880   34.9760   41.9920 Cl  0  0  0  0  0  0  0  0  0  0  0  0
   44.0680   34.2230   40.7480 C   0  0  0  0  0  0  0  0  0  0  0  0
   45.4540   34.0870   41.0280 C   0  0  0  0  0  0  0  0  0  0  0  0
   46.1010   33.4940   39.9780 C   0  0  0  0  0  0  0  0  0  0  0  0
   45.6510   33.0600   38.8210 C   0  0  0  0  0  0  0  0  0  0  0  0
   44.2950   33.2160   38.5980 C   0  0  0  0  0  0  0  0  0  0  0  0
   43.5140   33.7870   39.5430 C   0  0  0  0  0  0  0  0  0  0  0  0
   47.2070   33.3550   40.0990 H   0  0  0  0  0  0  0  0  0  0  0  0
   46.2640   32.5960   38.0430 H   0  0  0  0  0  0  0  0  0  0  0  0
   43.8930   32.8590   37.6330 H   0  0  0  0  0  0  0  0  0  0  0  0
   42.1860   33.8920   39.2150 O   0  0  0  0  0  0  0  0  0  0  0  0
   40.2470   34.5700   37.5870 O   0  0  0  0  0  0  0  0  0  0  0  0
   41.3560   35.1360   38.4300 P   0  0  0  0  0  0  0  0  0  0  0  0
   40.7520   36.2080   39.5970 O   0  0  0  0  0  0  0  0  0  0  0  0
   39.9930   35.7480   40.0720 H   0  0  0  0  0  0  0  0  0  0  0  0
   42.3950   36.0550   37.4540 O   0  0  0  0  0  0  0  0  0  0  0  0
   41.8200   36.5570   36.8250 H   0  0  0  0  0  0  0  0  0  0  0  0
  1  2  2  0  0  0  0
  1  6  1  0  0  0  0
  2  3  1  0  0  0  0
  3  7  1  0  0  0  0
  3  4  2  0  0  0  0
  5  4  1  0  0  0  0
  5  8  1  0  0  0  0
  6  5  2  0  0  0  0
  9 12  1  1  0  0  0
  9  2  1  0  0  0  0
 10 13  1  0  0  0  0
 10  9  1  0  0  0  0
 10 14  1  0  0  0  0
 11 15  1  6  0  0  0
 11 10  1  0  0  0  0
 11  9  1  0  0  0  0
 16 17  1  0  0  0  0
 16 11  1  0  0  0  0
 18 19  1  0  0  0  0
 19 20  1  0  0  0  0
 20 16  1  1  0  0  0
 21 23  1  0  0  0  0
 21 20  1  0  0  0  0
 22 21  1  0  0  0  0
 24 25  1  0  0  0  0
 24 23  1  0  0  0  0
 25 19  1  0  0  0  0
 26  1  1  0  0  0  0
 27 26  2  0  0  0  0
 29 30  1  0  0  0  0
 29 28  1  0  0  0  0
 30 26  1  0  0  0  0
 31 35  1  0  0  0  0
 31 30  2  0  0  0  0
 32 31  1  0  0  0  0
 33 32  2  0  0  0  0
 33 34  1  0  0  0  0
 34 29  2  0  0  0  0
 36 32  1  0  0  0  0
 37 33  1  0  0  0  0
 38 34  1  0  0  0  0
 39 40  2  0  0  0  0
 40 38  1  0  0  0  0
 40 41  1  0  0  0  0
 41 42  1  0  0  0  0
 43 40  1  0  0  0  0
 44 43  1  0  0  0  0
M  END
>  <minimizedAffinity>
-5.12286234

>  <minimizedRMSD>
3.47829175

$$$$
