
 OpenBabel03252507373D

 37 41  0  0  0  0  0  0  0  0999 V2000
   45.5880   34.7960   43.4760 C   0  0  0  0  0  0  0  0  0  0  0  0
   46.2950   33.7210   44.0730 C   0  0  0  0  0  0  0  0  0  0  0  0
   46.0830   33.5020   45.4250 C   0  0  0  0  0  0  0  0  0  0  0  0
   45.2360   34.2980   46.1000 N   0  0  0  0  0  0  0  0  0  0  0  0
   44.5720   35.3180   45.5090 C   0  0  0  0  0  0  0  0  0  0  0  0
   44.7490   35.5580   44.2150 N   0  0  0  0  0  0  0  0  0  0  0  0
   46.9670   33.0820   43.5620 H   0  0  0  0  0  0  0  0  0  0  0  0
   43.9290   35.8740   46.1590 H   0  0  0  0  0  0  0  0  0  0  0  0
   47.0110   32.6680   47.5180 C   0  0  0  0  0  0  0  0  0  0  0  0
   46.7400   32.4280   46.1770 C   0  0  0  0  0  0  0  0  0  0  0  0
   47.0960   31.2150   45.6510 C   0  0  0  0  0  0  0  0  0  0  0  0
   47.7080   30.2420   46.4120 C   0  0  0  0  0  0  0  0  0  0  0  0
   48.1380   28.9930   46.1030 N   0  0  0  0  0  0  0  0  0  0  0  0
   48.6800   28.4490   47.2530 C   0  0  0  0  0  0  0  0  0  0  0  0
   48.5650   29.3810   48.2310 N   0  0  0  0  0  0  0  0  0  0  0  0
   47.9750   30.4720   47.7260 C   0  0  0  0  0  0  0  0  0  0  0  0
   47.6260   31.6880   48.2850 C   0  0  0  0  0  0  0  0  0  0  0  0
   46.7600   33.6090   48.0240 H   0  0  0  0  0  0  0  0  0  0  0  0
   46.8720   31.0640   44.6040 H   0  0  0  0  0  0  0  0  0  0  0  0
   48.0450   28.5790   45.1440 H   0  0  0  0  0  0  0  0  0  0  0  0
   49.0740   27.4590   47.1990 H   0  0  0  0  0  0  0  0  0  0  0  0
   47.8450   31.8620   49.3400 H   0  0  0  0  0  0  0  0  0  0  0  0
   45.7980   35.0230   42.1170 O   0  0  0  0  0  0  0  0  0  0  0  0
   44.7700   34.7570   41.2110 C   0  0  0  0  0  0  0  0  0  0  0  0
   45.3550   33.8070   40.4570 C   0  0  0  0  0  0  0  0  0  0  0  0
   43.9720   33.4040   39.1980 S   0  0  0  0  0  0  0  0  0  0  0  0
   42.8760   34.6910   40.0420 C   0  0  0  0  0  0  0  0  0  0  0  0
   43.5430   35.0440   40.8320 N   0  0  0  0  0  0  0  0  0  0  0  0
   46.2150   32.9960   40.0190 H   0  0  0  0  0  0  0  0  0  0  0  0
   41.5130   34.9970   39.6220 N   0  0  0  0  0  0  0  0  0  0  0  0
   40.4160   35.0960   40.5520 C   0  0  0  0  0  3  0  0  0  0  0  0
   40.5580   34.3960   41.4200 H   0  0  0  0  0  0  0  0  0  0  0  0
   39.1000   34.8990   39.8810 C   0  0  0  0  0  3  0  0  0  0  0  0
   38.6770   35.9090   39.6250 H   0  0  0  0  0  0  0  0  0  0  0  0
   39.0770   34.0310   38.8270 O   0  0  0  0  0  0  0  0  0  0  0  0
   40.1150   34.1110   37.9360 C   0  0  0  0  0  2  0  0  0  0  0  0
   41.1180   35.2160   38.2570 C   0  0  0  0  0  2  0  0  0  0  0  0
  1  2  2  0  0  0  0
  1  6  1  0  0  0  0
  2  3  1  0  0  0  0
  3  4  2  0  0  0  0
  3 10  1  0  0  0  0
  5  4  1  0  0  0  0
  5  8  1  0  0  0  0
  6  5  2  0  0  0  0
  7  2  1  0  0  0  0
  9 18  1  0  0  0  0
  9 17  1  0  0  0  0
 10  9  2  0  0  0  0
 11 10  1  0  0  0  0
 11 12  2  0  0  0  0
 12 16  1  0  0  0  0
 13 12  1  0  0  0  0
 13 14  1  0  0  0  0
 14 15  2  0  0  0  0
 16 15  1  0  0  0  0
 16 17  2  0  0  0  0
 17 22  1  0  0  0  0
 19 11  1  0  0  0  0
 20 13  1  0  0  0  0
 21 14  1  0  0  0  0
 23  1  1  0  0  0  0
 24 23  1  0  0  0  0
 25 24  2  0  0  0  0
 26 27  1  0  0  0  0
 26 25  1  0  0  0  0
 27 28  2  0  0  0  0
 28 24  1  0  0  0  0
 29 25  1  0  0  0  0
 30 27  1  0  0  0  0
 30 31  1  0  0  0  0
 31 32  1  0  0  0  0
 33 31  1  0  0  0  0
 34 33  1  0  0  0  0
 35 33  1  0  0  0  0
 36 37  1  0  0  0  0
 36 35  1  0  0  0  0
 37 30  1  0  0  0  0
M  END
>  <minimizedAffinity>
-6.83906651

>  <minimizedRMSD>
0.446003467

$$$$
