
 OpenBabel03252502003D

 33 36  0  0  0  0  0  0  0  0999 V2000
   47.7400   32.2420   48.2810 C   0  0  0  0  0  0  0  0  0  0  0  0
   47.4520   30.8880   48.3140 C   0  0  0  0  0  0  0  0  0  0  0  0
   46.6080   30.4230   47.3480 C   0  0  0  0  0  0  0  0  0  0  0  0
   46.1070   31.2730   46.4310 N   0  0  0  0  0  0  0  0  0  0  0  0
   46.3880   32.5590   46.4070 C   0  0  0  0  0  0  0  0  0  0  0  0
   47.2120   33.0220   47.3500 N   0  0  0  0  0  0  0  0  0  0  0  0
   48.4220   32.6200   49.0600 H   0  0  0  0  0  0  0  0  0  0  0  0
   46.2370   29.0580   47.2770 N   0  0  0  0  0  0  0  0  0  0  0  0
   47.1720   28.0700   46.7790 C   0  0  0  0  0  0  0  0  0  0  0  0
   48.2150   28.4610   46.8070 H   0  0  0  0  0  0  0  0  0  0  0  0
   47.1720   26.7880   47.5520 C   0  0  0  0  0  0  0  0  0  0  0  0
   47.9600   26.8260   48.3330 H   0  0  0  0  0  0  0  0  0  0  0  0
   45.9500   26.4250   48.0830 O   0  0  0  0  0  0  0  0  0  0  0  0
   44.9500   27.0090   47.3120 C   0  0  0  0  0  0  0  0  0  0  0  0
   44.9780   28.4870   47.6610 C   0  0  0  0  0  0  0  0  0  0  0  0
   45.9520   33.6350   45.5060 C   0  0  0  0  0  0  0  0  0  0  0  0
   44.9600   34.5150   45.7990 N   0  0  0  0  0  0  0  0  0  0  0  0
   44.5360   35.5030   45.0100 C   0  0  0  0  0  0  0  0  0  0  0  0
   45.1130   35.6830   43.8030 N   0  0  0  0  0  0  0  0  0  0  0  0
   46.1110   34.8780   43.3900 C   0  0  0  0  0  0  0  0  0  0  0  0
   46.6990   35.0690   42.1490 C   0  0  0  0  0  0  0  0  0  0  0  0
   47.7130   34.2560   41.7220 C   0  0  0  0  0  0  0  0  0  0  0  0
   48.1130   33.2570   42.5690 C   0  0  0  0  0  0  0  0  0  0  0  0
   47.5060   33.0960   43.7920 C   0  0  0  0  0  0  0  0  0  0  0  0
   46.4940   33.8770   44.2660 C   0  0  0  0  0  0  0  0  0  0  0  0
   43.7330   36.1360   45.3630 H   0  0  0  0  0  0  0  0  0  0  0  0
   46.3140   35.8850   41.5510 H   0  0  0  0  0  0  0  0  0  0  0  0
   48.0990   34.4940   40.7420 H   0  0  0  0  0  0  0  0  0  0  0  0
   48.9240   32.6210   42.2070 H   0  0  0  0  0  0  0  0  0  0  0  0
   47.8750   32.2770   44.4210 H   0  0  0  0  0  0  0  0  0  0  0  0
   48.0230   30.0800   49.3110 N   0  0  0  0  0  0  0  0  0  0  0  0
   48.8550   29.4550   49.2520 H   0  0  0  0  0  0  0  0  0  0  0  0
   47.4410   30.2170   50.1890 H   0  0  0  0  0  0  0  0  0  0  0  0
  1  2  1  0  0  0  0
  1  7  1  0  0  0  0
  2 31  1  0  0  0  0
  3  2  2  0  0  0  0
  4  3  1  0  0  0  0
  5  4  2  0  0  0  0
  5  6  1  0  0  0  0
  6  1  2  0  0  0  0
  8  3  1  0  0  0  0
  8 15  1  0  0  0  0
  9 10  1  0  0  0  0
  9  8  1  0  0  0  0
  9 11  1  0  0  0  0
 11 13  1  0  0  0  0
 11 12  1  0  0  0  0
 14 15  1  0  0  0  0
 14 13  1  0  0  0  0
 16 17  1  0  0  0  0
 16  5  1  0  0  0  0
 18 26  1  0  0  0  0
 18 17  2  0  0  0  0
 19 18  1  0  0  0  0
 20 19  2  0  0  0  0
 20 25  1  0  0  0  0
 21 20  1  0  0  0  0
 22 21  2  0  0  0  0
 22 23  1  0  0  0  0
 23 24  2  0  0  0  0
 24 25  1  0  0  0  0
 24 30  1  0  0  0  0
 25 16  2  0  0  0  0
 27 21  1  0  0  0  0
 28 22  1  0  0  0  0
 29 23  1  0  0  0  0
 31 33  1  0  0  0  0
 32 31  1  0  0  0  0
M  END
>  <minimizedAffinity>
-6.54519796

>  <minimizedRMSD>
0.288409442

$$$$
