
 OpenBabel03252507373D

 37 41  0  0  0  0  0  0  0  0999 V2000
   45.5630   34.7920   43.4520 C   0  0  0  0  0  0  0  0  0  0  0  0
   46.2670   33.7160   44.0520 C   0  0  0  0  0  0  0  0  0  0  0  0
   46.0650   33.5100   45.4070 C   0  0  0  0  0  0  0  0  0  0  0  0
   45.2290   34.3170   46.0820 N   0  0  0  0  0  0  0  0  0  0  0  0
   44.5680   35.3370   45.4890 C   0  0  0  0  0  0  0  0  0  0  0  0
   44.7360   35.5660   44.1910 N   0  0  0  0  0  0  0  0  0  0  0  0
   46.9310   33.0680   43.5410 H   0  0  0  0  0  0  0  0  0  0  0  0
   43.9340   35.9030   46.1390 H   0  0  0  0  0  0  0  0  0  0  0  0
   47.0000   32.6850   47.5000 C   0  0  0  0  0  0  0  0  0  0  0  0
   46.7210   32.4370   46.1620 C   0  0  0  0  0  0  0  0  0  0  0  0
   47.0670   31.2180   45.6430 C   0  0  0  0  0  0  0  0  0  0  0  0
   47.6780   30.2470   46.4060 C   0  0  0  0  0  0  0  0  0  0  0  0
   48.1000   28.9940   46.1040 N   0  0  0  0  0  0  0  0  0  0  0  0
   48.6450   28.4550   47.2540 C   0  0  0  0  0  0  0  0  0  0  0  0
   48.5400   29.3940   48.2270 N   0  0  0  0  0  0  0  0  0  0  0  0
   47.9540   30.4850   47.7170 C   0  0  0  0  0  0  0  0  0  0  0  0
   47.6150   31.7070   48.2700 C   0  0  0  0  0  0  0  0  0  0  0  0
   46.7570   33.6300   48.0020 H   0  0  0  0  0  0  0  0  0  0  0  0
   46.8360   31.0620   44.5980 H   0  0  0  0  0  0  0  0  0  0  0  0
   47.9990   28.5750   45.1470 H   0  0  0  0  0  0  0  0  0  0  0  0
   49.0340   27.4630   47.2040 H   0  0  0  0  0  0  0  0  0  0  0  0
   47.8410   31.8860   49.3230 H   0  0  0  0  0  0  0  0  0  0  0  0
   45.7640   35.0060   42.0890 O   0  0  0  0  0  0  0  0  0  0  0  0
   44.7550   34.6640   41.1860 C   0  0  0  0  0  0  0  0  0  0  0  0
   45.4040   33.7550   40.4350 C   0  0  0  0  0  0  0  0  0  0  0  0
   44.0500   33.2500   39.1810 S   0  0  0  0  0  0  0  0  0  0  0  0
   42.8680   34.4620   40.0210 C   0  0  0  0  0  0  0  0  0  0  0  0
   43.5110   34.8640   40.8080 N   0  0  0  0  0  0  0  0  0  0  0  0
   46.3170   33.0030   39.9990 H   0  0  0  0  0  0  0  0  0  0  0  0
   41.4870   34.6710   39.6020 N   0  0  0  0  0  0  0  0  0  0  0  0
   40.4460   33.7010   39.8410 C   0  0  0  0  0  3  0  0  0  0  0  0
   40.8560   32.6550   39.8150 H   0  0  0  0  0  0  0  0  0  0  0  0
   39.2980   33.8800   38.9080 C   0  0  0  0  0  3  0  0  0  0  0  0
   38.5180   34.5070   39.4200 H   0  0  0  0  0  0  0  0  0  0  0  0
   39.5970   34.3230   37.6510 O   0  0  0  0  0  0  0  0  0  0  0  0
   40.5150   35.3370   37.5540 C   0  0  0  0  0  2  0  0  0  0  0  0
   41.0220   35.8380   38.9030 C   0  0  0  0  0  2  0  0  0  0  0  0
  1  2  2  0  0  0  0
  1  6  1  0  0  0  0
  2  3  1  0  0  0  0
  3  4  2  0  0  0  0
  3 10  1  0  0  0  0
  5  4  1  0  0  0  0
  5  8  1  0  0  0  0
  6  5  2  0  0  0  0
  7  2  1  0  0  0  0
  9 18  1  0  0  0  0
  9 17  1  0  0  0  0
 10  9  2  0  0  0  0
 11 10  1  0  0  0  0
 11 12  2  0  0  0  0
 12 16  1  0  0  0  0
 13 12  1  0  0  0  0
 13 14  1  0  0  0  0
 14 15  2  0  0  0  0
 16 15  1  0  0  0  0
 16 17  2  0  0  0  0
 17 22  1  0  0  0  0
 19 11  1  0  0  0  0
 20 13  1  0  0  0  0
 21 14  1  0  0  0  0
 23  1  1  0  0  0  0
 24 23  1  0  0  0  0
 25 24  2  0  0  0  0
 26 27  1  0  0  0  0
 26 25  1  0  0  0  0
 27 28  2  0  0  0  0
 28 24  1  0  0  0  0
 29 25  1  0  0  0  0
 30 31  1  0  0  0  0
 30 27  1  0  0  0  0
 32 31  1  0  0  0  0
 33 34  1  0  0  0  0
 33 31  1  0  0  0  0
 35 33  1  0  0  0  0
 36 35  1  0  0  0  0
 36 37  1  0  0  0  0
 37 30  1  0  0  0  0
M  END
>  <minimizedAffinity>
-6.65111351

>  <minimizedRMSD>
0.610995531

$$$$
