
 OpenBabel03252509123D

 31 34  0  0  1  0  0  0  0  0999 V2000
   47.5860   31.3720   45.0500 C   0  0  0  0  0  0  0  0  0  0  0  0
   47.2450   32.4080   44.1780 C   0  0  0  0  0  0  0  0  0  0  0  0
   46.3640   33.4220   44.5200 C   0  0  0  0  0  0  0  0  0  0  0  0
   45.7850   33.4160   45.7960 C   0  0  0  0  0  0  0  0  0  0  0  0
   44.9170   34.1980   46.4610 N   0  0  0  0  0  0  0  0  0  0  0  0
   44.7020   33.7050   47.6940 C   0  0  0  0  0  0  0  0  0  0  0  0
   45.4570   32.6000   47.7760 N   0  0  0  0  0  0  0  0  0  0  0  0
   46.1340   32.3910   46.6340 C   0  0  0  0  0  0  0  0  0  0  0  0
   47.0120   31.3620   46.3230 C   0  0  0  0  0  0  0  0  0  0  0  0
   48.2750   30.5870   44.7760 H   0  0  0  0  0  0  0  0  0  0  0  0
   44.4760   35.0580   46.0840 H   0  0  0  0  0  0  0  0  0  0  0  0
   44.0570   34.1180   48.4520 H   0  0  0  0  0  0  0  0  0  0  0  0
   47.2490   30.5850   47.0200 H   0  0  0  0  0  0  0  0  0  0  0  0
   47.7700   31.7710   40.6080 C   0  0  0  0  0  0  0  0  0  0  0  0
   48.9590   32.4600   40.3380 C   0  0  0  0  0  0  0  0  0  0  0  0
   49.5640   33.1360   41.3950 C   0  0  0  0  0  0  0  0  0  0  0  0
   48.9860   33.1050   42.6400 N   0  0  0  0  0  0  0  0  0  0  0  0
   47.8390   32.4250   42.8450 C   0  0  0  0  0  0  0  0  0  0  0  0
   47.2100   31.7490   41.8450 N   0  0  0  0  0  0  0  0  0  0  0  0
   47.1950   31.2040   39.8830 H   0  0  0  0  0  0  0  0  0  0  0  0
   49.3050   32.4050   39.3260 H   0  0  0  0  0  0  0  0  0  0  0  0
   50.4720   33.6580   41.1800 H   0  0  0  0  0  0  0  0  0  0  0  0
   45.9510   34.7310   43.3980 S   0  0  0  0  0  0  0  0  0  0  0  0
   44.9360   35.8670   41.3970 H   0  0  0  0  0  0  0  0  0  0  0  0
   44.0360   35.8240   41.9670 N   0  0  0  0  0  0  0  0  0  0  0  0
   44.2280   34.6870   42.8440 C   0  0  1  0  0  3  0  0  0  0  0  0
   44.0590   33.3640   42.0900 C   0  0  0  0  0  3  0  0  0  0  0  0
   44.9720   33.1090   41.5150 H   0  0  0  0  0  0  0  0  0  0  0  0
   42.9890   33.3560   41.2340 O   0  0  0  0  0  0  0  0  0  0  0  0
   42.1260   34.4180   41.3270 C   0  0  0  0  0  2  0  0  0  0  0  0
   42.8890   35.7030   41.1140 C   0  0  0  0  0  2  0  0  0  0  0  0
  1  9  1  0  0  0  0
  2  3  1  0  0  0  0
  2  1  2  0  0  0  0
  3  4  2  0  0  0  0
  4  5  1  0  0  0  0
  4  8  1  0  0  0  0
  5  6  1  0  0  0  0
  6  7  2  0  0  0  0
  6 12  1  0  0  0  0
  8  7  1  0  0  0  0
  9  8  2  0  0  0  0
  9 13  1  0  0  0  0
 10  1  1  0  0  0  0
 11  5  1  0  0  0  0
 14 19  1  0  0  0  0
 15 14  2  0  0  0  0
 15 16  1  0  0  0  0
 16 17  2  0  0  0  0
 17 18  1  0  0  0  0
 18  2  1  0  0  0  0
 19 18  2  0  0  0  0
 20 14  1  0  0  0  0
 21 15  1  0  0  0  0
 22 16  1  0  0  0  0
 23  3  1  0  0  0  0
 24 25  1  0  0  0  0
 25 26  1  0  0  0  0
 26 23  1  6  0  0  0
 27 26  1  0  0  0  0
 28 27  1  0  0  0  0
 29 30  1  0  0  0  0
 29 27  1  0  0  0  0
 31 30  1  0  0  0  0
 31 25  1  0  0  0  0
M  END
>  <minimizedAffinity>
-4.68277884

>  <minimizedRMSD>
1.67942846

$$$$
