
 OpenBabel03252509123D

 31 34  0  0  1  0  0  0  0  0999 V2000
   47.7880   32.2270   44.0290 C   0  0  0  0  0  0  0  0  0  0  0  0
   47.1310   33.3390   43.4970 C   0  0  0  0  0  0  0  0  0  0  0  0
   46.1590   34.0430   44.1900 C   0  0  0  0  0  0  0  0  0  0  0  0
   45.8130   33.6280   45.4830 C   0  0  0  0  0  0  0  0  0  0  0  0
   44.9480   34.0420   46.4260 N   0  0  0  0  0  0  0  0  0  0  0  0
   45.0320   33.2490   47.5100 C   0  0  0  0  0  0  0  0  0  0  0  0
   45.9700   32.3360   47.2150 N   0  0  0  0  0  0  0  0  0  0  0  0
   46.4700   32.5360   45.9840 C   0  0  0  0  0  0  0  0  0  0  0  0
   47.4470   31.8100   45.3170 C   0  0  0  0  0  0  0  0  0  0  0  0
   48.5450   31.6850   43.4820 H   0  0  0  0  0  0  0  0  0  0  0  0
   44.3090   34.8540   46.3370 H   0  0  0  0  0  0  0  0  0  0  0  0
   44.4630   33.3370   48.4210 H   0  0  0  0  0  0  0  0  0  0  0  0
   47.9280   30.9620   45.7590 H   0  0  0  0  0  0  0  0  0  0  0  0
   47.3030   33.5110   39.8410 C   0  0  0  0  0  0  0  0  0  0  0  0
   48.1370   34.6130   39.6180 C   0  0  0  0  0  0  0  0  0  0  0  0
   48.6300   35.2820   40.7350 C   0  0  0  0  0  0  0  0  0  0  0  0
   48.2880   34.8490   41.9920 N   0  0  0  0  0  0  0  0  0  0  0  0
   47.4800   33.7800   42.1500 C   0  0  0  0  0  0  0  0  0  0  0  0
   46.9730   33.0930   41.0900 N   0  0  0  0  0  0  0  0  0  0  0  0
   46.8510   32.8990   39.0670 H   0  0  0  0  0  0  0  0  0  0  0  0
   48.3270   34.8480   38.5910 H   0  0  0  0  0  0  0  0  0  0  0  0
   49.2670   36.1220   40.5560 H   0  0  0  0  0  0  0  0  0  0  0  0
   45.3440   35.4560   43.4970 S   0  0  0  0  0  0  0  0  0  0  0  0
   44.4400   36.0840   41.2350 H   0  0  0  0  0  0  0  0  0  0  0  0
   43.4910   36.0130   41.7170 N   0  0  0  0  0  0  0  0  0  0  0  0
   43.7150   35.0780   42.8020 C   0  0  1  0  0  3  0  0  0  0  0  0
   43.7970   33.6370   42.2910 C   0  0  0  0  0  3  0  0  0  0  0  0
   44.7950   33.4170   41.8600 H   0  0  0  0  0  0  0  0  0  0  0  0
   42.8430   33.3350   41.3530 O   0  0  0  0  0  0  0  0  0  0  0  0
   41.8540   34.2660   41.1690 C   0  0  0  0  0  2  0  0  0  0  0  0
   42.4750   35.5900   40.7970 C   0  0  0  0  0  2  0  0  0  0  0  0
  1  9  1  0  0  0  0
  2  1  2  0  0  0  0
  2  3  1  0  0  0  0
  3  4  2  0  0  0  0
  4  8  1  0  0  0  0
  4  5  1  0  0  0  0
  5  6  1  0  0  0  0
  6 12  1  0  0  0  0
  7  6  2  0  0  0  0
  8  7  1  0  0  0  0
  9 13  1  0  0  0  0
  9  8  2  0  0  0  0
 10  1  1  0  0  0  0
 11  5  1  0  0  0  0
 14 19  1  0  0  0  0
 15 14  2  0  0  0  0
 15 16  1  0  0  0  0
 16 17  2  0  0  0  0
 17 18  1  0  0  0  0
 18  2  1  0  0  0  0
 19 18  2  0  0  0  0
 20 14  1  0  0  0  0
 21 15  1  0  0  0  0
 22 16  1  0  0  0  0
 23  3  1  0  0  0  0
 24 25  1  0  0  0  0
 25 26  1  0  0  0  0
 26 23  1  6  0  0  0
 27 26  1  0  0  0  0
 28 27  1  0  0  0  0
 29 27  1  0  0  0  0
 30 29  1  0  0  0  0
 31 30  1  0  0  0  0
 31 25  1  0  0  0  0
M  END
>  <minimizedAffinity>
-5.31718302

>  <minimizedRMSD>
1.4014076

$$$$
