
 OpenBabel03252507373D

 37 41  0  0  0  0  0  0  0  0999 V2000
   45.5980   34.7450   43.4840 C   0  0  0  0  0  0  0  0  0  0  0  0
   46.3130   33.6780   44.0860 C   0  0  0  0  0  0  0  0  0  0  0  0
   46.1090   33.4710   45.4410 C   0  0  0  0  0  0  0  0  0  0  0  0
   45.2630   34.2690   46.1140 N   0  0  0  0  0  0  0  0  0  0  0  0
   44.5910   35.2810   45.5180 C   0  0  0  0  0  0  0  0  0  0  0  0
   44.7600   35.5100   44.2200 N   0  0  0  0  0  0  0  0  0  0  0  0
   46.9850   33.0370   43.5780 H   0  0  0  0  0  0  0  0  0  0  0  0
   43.9490   35.8400   46.1660 H   0  0  0  0  0  0  0  0  0  0  0  0
   47.0210   32.6470   47.5450 C   0  0  0  0  0  0  0  0  0  0  0  0
   46.7760   32.4060   46.1990 C   0  0  0  0  0  0  0  0  0  0  0  0
   47.1620   31.2020   45.6750 C   0  0  0  0  0  0  0  0  0  0  0  0
   47.7810   30.2380   46.4420 C   0  0  0  0  0  0  0  0  0  0  0  0
   48.2400   28.9990   46.1350 N   0  0  0  0  0  0  0  0  0  0  0  0
   48.7740   28.4610   47.2910 C   0  0  0  0  0  0  0  0  0  0  0  0
   48.6270   29.3870   48.2710 N   0  0  0  0  0  0  0  0  0  0  0  0
   48.0240   30.4690   47.7600 C   0  0  0  0  0  0  0  0  0  0  0  0
   47.6440   31.6760   48.3180 C   0  0  0  0  0  0  0  0  0  0  0  0
   46.7450   33.5810   48.0510 H   0  0  0  0  0  0  0  0  0  0  0  0
   46.9560   31.0510   44.6240 H   0  0  0  0  0  0  0  0  0  0  0  0
   48.1690   28.5870   45.1730 H   0  0  0  0  0  0  0  0  0  0  0  0
   49.1880   27.4790   47.2390 H   0  0  0  0  0  0  0  0  0  0  0  0
   47.8430   31.8500   49.3770 H   0  0  0  0  0  0  0  0  0  0  0  0
   45.7990   34.9600   42.1210 O   0  0  0  0  0  0  0  0  0  0  0  0
   44.7470   34.7410   41.2300 C   0  0  0  0  0  0  0  0  0  0  0  0
   45.2950   33.8010   40.4390 C   0  0  0  0  0  0  0  0  0  0  0  0
   43.8780   33.4620   39.1980 S   0  0  0  0  0  0  0  0  0  0  0  0
   42.8280   34.7490   40.1000 C   0  0  0  0  0  0  0  0  0  0  0  0
   43.5200   35.0650   40.8850 N   0  0  0  0  0  0  0  0  0  0  0  0
   46.1270   32.9830   39.9610 H   0  0  0  0  0  0  0  0  0  0  0  0
   41.4640   35.0970   39.7170 N   0  0  0  0  0  0  0  0  0  0  0  0
   40.3350   34.8910   40.5900 C   0  0  0  0  0  0  0  0  0  0  0  0
   40.4890   33.9910   41.2450 H   0  0  0  0  0  0  0  0  0  0  0  0
   39.0540   34.8260   39.8320 C   0  0  0  0  0  0  0  0  0  0  0  0
   38.5830   35.8460   39.8380 H   0  0  0  0  0  0  0  0  0  0  0  0
   39.1110   34.2730   38.5850 O   0  0  0  0  0  0  0  0  0  0  0  0
   40.1710   34.6370   37.7950 C   0  0  0  0  0  0  0  0  0  0  0  0
   41.1010   35.6570   38.4440 C   0  0  0  0  0  0  0  0  0  0  0  0
  1  2  2  0  0  0  0
  1  6  1  0  0  0  0
  2  3  1  0  0  0  0
  3  4  2  0  0  0  0
  3 10  1  0  0  0  0
  5  4  1  0  0  0  0
  5  8  1  0  0  0  0
  6  5  2  0  0  0  0
  7  2  1  0  0  0  0
  9 18  1  0  0  0  0
  9 17  1  0  0  0  0
 10  9  2  0  0  0  0
 11 10  1  0  0  0  0
 11 12  2  0  0  0  0
 12 16  1  0  0  0  0
 13 12  1  0  0  0  0
 13 14  1  0  0  0  0
 14 15  2  0  0  0  0
 16 15  1  0  0  0  0
 16 17  2  0  0  0  0
 17 22  1  0  0  0  0
 19 11  1  0  0  0  0
 20 13  1  0  0  0  0
 21 14  1  0  0  0  0
 23  1  1  0  0  0  0
 24 23  1  0  0  0  0
 25 24  2  0  0  0  0
 26 27  1  0  0  0  0
 26 25  1  0  0  0  0
 27 28  2  0  0  0  0
 28 24  1  0  0  0  0
 29 25  1  0  0  0  0
 30 27  1  0  0  0  0
 30 31  1  0  0  0  0
 31 32  1  0  0  0  0
 33 34  1  0  0  0  0
 33 31  1  0  0  0  0
 35 33  1  0  0  0  0
 36 37  1  0  0  0  0
 36 35  1  0  0  0  0
 37 30  1  0  0  0  0
M  END
>  <minimizedAffinity>
-6.93399143

>  <minimizedRMSD>
0.36892125

$$$$
