
 OpenBabel03252507373D

 37 41  0  0  0  0  0  0  0  0999 V2000
   45.7620   34.6990   43.6770 C   0  0  0  0  0  0  0  0  0  0  0  0
   46.4940   33.6540   44.2960 C   0  0  0  0  0  0  0  0  0  0  0  0
   46.2250   33.4030   45.6320 C   0  0  0  0  0  0  0  0  0  0  0  0
   45.3040   34.1420   46.2720 N   0  0  0  0  0  0  0  0  0  0  0  0
   44.6170   35.1350   45.6610 C   0  0  0  0  0  0  0  0  0  0  0  0
   44.8470   35.4040   44.3810 N   0  0  0  0  0  0  0  0  0  0  0  0
   47.2240   33.0590   43.8120 H   0  0  0  0  0  0  0  0  0  0  0  0
   43.9130   35.6460   46.2840 H   0  0  0  0  0  0  0  0  0  0  0  0
   47.1900   32.6330   47.7330 C   0  0  0  0  0  0  0  0  0  0  0  0
   46.9010   32.3540   46.4030 C   0  0  0  0  0  0  0  0  0  0  0  0
   47.2550   31.1280   45.9060 C   0  0  0  0  0  0  0  0  0  0  0  0
   47.8840   30.1810   46.6840 C   0  0  0  0  0  0  0  0  0  0  0  0
   48.3170   28.9260   46.4030 N   0  0  0  0  0  0  0  0  0  0  0  0
   48.8800   28.4170   47.5600 C   0  0  0  0  0  0  0  0  0  0  0  0
   48.7740   29.3760   48.5130 N   0  0  0  0  0  0  0  0  0  0  0  0
   48.1700   30.4490   47.9870 C   0  0  0  0  0  0  0  0  0  0  0  0
   47.8230   31.6780   48.5170 C   0  0  0  0  0  0  0  0  0  0  0  0
   46.9420   33.5860   48.2170 H   0  0  0  0  0  0  0  0  0  0  0  0
   47.0160   30.9470   44.8670 H   0  0  0  0  0  0  0  0  0  0  0  0
   48.2120   28.4850   45.4570 H   0  0  0  0  0  0  0  0  0  0  0  0
   49.2780   27.4280   47.5260 H   0  0  0  0  0  0  0  0  0  0  0  0
   48.0570   31.8830   49.5630 H   0  0  0  0  0  0  0  0  0  0  0  0
   46.0280   34.9580   42.3330 O   0  0  0  0  0  0  0  0  0  0  0  0
   45.1010   34.5700   41.3630 C   0  0  0  0  0  0  0  0  0  0  0  0
   45.8690   33.7640   40.6070 C   0  0  0  0  0  0  0  0  0  0  0  0
   44.6310   33.1990   39.2610 S   0  0  0  0  0  0  0  0  0  0  0  0
   43.3000   34.2520   40.0930 C   0  0  0  0  0  0  0  0  0  0  0  0
   43.8630   34.6720   40.9310 N   0  0  0  0  0  0  0  0  0  0  0  0
   46.8700   33.1230   40.1860 H   0  0  0  0  0  0  0  0  0  0  0  0
   41.9270   34.3520   39.6120 N   0  0  0  0  0  0  0  0  0  0  0  0
   41.1750   33.2080   39.1600 C   0  0  0  0  0  3  0  0  0  0  0  0
   41.8510   32.4430   38.6850 H   0  0  0  0  0  0  0  0  0  0  0  0
   40.0510   33.6010   38.2650 C   0  0  0  0  0  3  0  0  0  0  0  0
   39.1160   33.6850   38.8840 H   0  0  0  0  0  0  0  0  0  0  0  0
   40.2600   34.6880   37.4650 O   0  0  0  0  0  0  0  0  0  0  0  0
   40.8780   35.7690   38.0400 C   0  0  0  0  0  2  0  0  0  0  0  0
   41.1910   35.5830   39.5210 C   0  0  0  0  0  2  0  0  0  0  0  0
  1  2  2  0  0  0  0
  1  6  1  0  0  0  0
  2  3  1  0  0  0  0
  3  4  2  0  0  0  0
  3 10  1  0  0  0  0
  5  4  1  0  0  0  0
  5  8  1  0  0  0  0
  6  5  2  0  0  0  0
  7  2  1  0  0  0  0
  9 18  1  0  0  0  0
  9 17  1  0  0  0  0
 10  9  2  0  0  0  0
 11 10  1  0  0  0  0
 11 12  2  0  0  0  0
 12 16  1  0  0  0  0
 13 12  1  0  0  0  0
 13 14  1  0  0  0  0
 14 15  2  0  0  0  0
 16 15  1  0  0  0  0
 16 17  2  0  0  0  0
 17 22  1  0  0  0  0
 19 11  1  0  0  0  0
 20 13  1  0  0  0  0
 21 14  1  0  0  0  0
 23  1  1  0  0  0  0
 24 23  1  0  0  0  0
 25 24  2  0  0  0  0
 26 27  1  0  0  0  0
 26 25  1  0  0  0  0
 27 28  2  0  0  0  0
 28 24  1  0  0  0  0
 29 25  1  0  0  0  0
 30 27  1  0  0  0  0
 31 30  1  0  0  0  0
 32 31  1  0  0  0  0
 33 34  1  0  0  0  0
 33 31  1  0  0  0  0
 35 36  1  0  0  0  0
 35 33  1  0  0  0  0
 36 37  1  0  0  0  0
 37 30  1  0  0  0  0
M  END
>  <minimizedAffinity>
-6.61620569

>  <minimizedRMSD>
0.897608042

$$$$
