
 OpenBabel03252507373D

 37 41  0  0  0  0  0  0  0  0999 V2000
   45.5190   34.8240   43.5080 C   0  0  0  0  0  0  0  0  0  0  0  0
   46.2290   33.7420   44.0900 C   0  0  0  0  0  0  0  0  0  0  0  0
   46.0420   33.5240   45.4460 C   0  0  0  0  0  0  0  0  0  0  0  0
   45.2140   34.3260   46.1380 N   0  0  0  0  0  0  0  0  0  0  0  0
   44.5470   35.3520   45.5600 C   0  0  0  0  0  0  0  0  0  0  0  0
   44.7010   35.5920   44.2630 N   0  0  0  0  0  0  0  0  0  0  0  0
   46.8860   33.0980   43.5660 H   0  0  0  0  0  0  0  0  0  0  0  0
   43.9220   35.9130   46.2230 H   0  0  0  0  0  0  0  0  0  0  0  0
   47.0070   32.6840   47.5190 C   0  0  0  0  0  0  0  0  0  0  0  0
   46.7050   32.4440   46.1840 C   0  0  0  0  0  0  0  0  0  0  0  0
   47.0380   31.2280   45.6520 C   0  0  0  0  0  0  0  0  0  0  0  0
   47.6570   30.2500   46.4010 C   0  0  0  0  0  0  0  0  0  0  0  0
   48.0690   28.9960   46.0840 N   0  0  0  0  0  0  0  0  0  0  0  0
   48.6300   28.4480   47.2220 C   0  0  0  0  0  0  0  0  0  0  0  0
   48.5450   29.3830   48.2010 N   0  0  0  0  0  0  0  0  0  0  0  0
   47.9550   30.4790   47.7080 C   0  0  0  0  0  0  0  0  0  0  0  0
   47.6300   31.6990   48.2730 C   0  0  0  0  0  0  0  0  0  0  0  0
   46.7770   33.6270   48.0300 H   0  0  0  0  0  0  0  0  0  0  0  0
   46.7890   31.0780   44.6110 H   0  0  0  0  0  0  0  0  0  0  0  0
   47.9500   28.5830   45.1270 H   0  0  0  0  0  0  0  0  0  0  0  0
   49.0130   27.4550   47.1600 H   0  0  0  0  0  0  0  0  0  0  0  0
   47.8740   31.8710   49.3230 H   0  0  0  0  0  0  0  0  0  0  0  0
   45.7040   35.0500   42.1440 O   0  0  0  0  0  0  0  0  0  0  0  0
   44.6580   34.7860   41.2580 C   0  0  0  0  0  0  0  0  0  0  0  0
   45.2170   33.8180   40.5090 C   0  0  0  0  0  0  0  0  0  0  0  0
   43.8090   33.4180   39.2770 S   0  0  0  0  0  0  0  0  0  0  0  0
   42.7460   34.7330   40.1190 C   0  0  0  0  0  0  0  0  0  0  0  0
   43.4310   35.0870   40.8940 N   0  0  0  0  0  0  0  0  0  0  0  0
   46.0580   32.9870   40.0700 H   0  0  0  0  0  0  0  0  0  0  0  0
   41.3810   35.0550   39.7160 N   0  0  0  0  0  0  0  0  0  0  0  0
   40.2260   34.5960   40.4460 C   0  0  0  0  0  3  0  0  0  0  0  0
   40.4170   33.5940   40.9170 H   0  0  0  0  0  0  0  0  0  0  0  0
   38.9990   34.5960   39.6000 C   0  0  0  0  0  3  0  0  0  0  0  0
   38.4450   35.5590   39.7740 H   0  0  0  0  0  0  0  0  0  0  0  0
   39.1730   34.3140   38.2750 O   0  0  0  0  0  0  0  0  0  0  0  0
   40.2420   34.9070   37.6520 C   0  0  0  0  0  2  0  0  0  0  0  0
   41.0440   35.8360   38.5570 C   0  0  0  0  0  2  0  0  0  0  0  0
  1  2  2  0  0  0  0
  1  6  1  0  0  0  0
  2  3  1  0  0  0  0
  3  4  2  0  0  0  0
  3 10  1  0  0  0  0
  5  4  1  0  0  0  0
  5  8  1  0  0  0  0
  6  5  2  0  0  0  0
  7  2  1  0  0  0  0
  9 18  1  0  0  0  0
  9 17  1  0  0  0  0
 10  9  2  0  0  0  0
 11 10  1  0  0  0  0
 11 12  2  0  0  0  0
 12 16  1  0  0  0  0
 13 12  1  0  0  0  0
 13 14  1  0  0  0  0
 14 15  2  0  0  0  0
 16 15  1  0  0  0  0
 16 17  2  0  0  0  0
 17 22  1  0  0  0  0
 19 11  1  0  0  0  0
 20 13  1  0  0  0  0
 21 14  1  0  0  0  0
 23  1  1  0  0  0  0
 24 23  1  0  0  0  0
 25 24  2  0  0  0  0
 26 27  1  0  0  0  0
 26 25  1  0  0  0  0
 27 28  2  0  0  0  0
 28 24  1  0  0  0  0
 29 25  1  0  0  0  0
 30 27  1  0  0  0  0
 30 31  1  0  0  0  0
 31 32  1  0  0  0  0
 33 34  1  0  0  0  0
 33 31  1  0  0  0  0
 35 33  1  0  0  0  0
 36 35  1  0  0  0  0
 36 37  1  0  0  0  0
 37 30  1  0  0  0  0
M  END
>  <minimizedAffinity>
-6.90609789

>  <minimizedRMSD>
0.370972216

$$$$
