
 OpenBabel03242519003D

 38 41  0  0  1  0  0  0  0  0999 V2000
   45.0890   32.0830   42.1560 C   0  0  1  0  0  0  0  0  0  0  0  0
   44.4750   33.4170   42.4750 C   0  0  0  0  0  0  0  0  0  0  0  0
   45.3260   33.3560   41.3830 C   0  0  1  0  0  0  0  0  0  0  0  0
   44.4960   31.2800   41.6410 H   0  0  0  0  0  0  0  0  0  0  0  0
   43.3520   33.4010   42.3190 H   0  0  0  0  0  0  0  0  0  0  0  0
   44.6840   33.8460   43.4830 H   0  0  0  0  0  0  0  0  0  0  0  0
   45.0040   33.2030   40.3270 H   0  0  0  0  0  0  0  0  0  0  0  0
   46.0840   31.5170   43.0650 C   0  0  0  0  0  0  0  0  0  0  0  0
   47.2540   31.0110   42.4800 C   0  0  0  0  0  0  0  0  0  0  0  0
   48.2110   30.4710   43.3550 C   0  0  0  0  0  0  0  0  0  0  0  0
   47.9300   30.4810   44.6960 N   0  0  0  0  0  0  0  0  0  0  0  0
   46.7630   30.9930   45.2050 C   0  0  0  0  0  0  0  0  0  0  0  0
   45.8190   31.5210   44.3840 N   0  0  0  0  0  0  0  0  0  0  0  0
   47.5250   30.9420   41.4740 H   0  0  0  0  0  0  0  0  0  0  0  0
   49.1540   30.0500   43.0310 H   0  0  0  0  0  0  0  0  0  0  0  0
   46.5830   30.9460   46.6140 N   0  0  0  0  0  0  0  0  0  0  0  0
   47.6600   31.3290   47.4730 C   0  0  0  0  0  0  0  0  0  0  0  0
   48.2970   30.4720   47.7850 H   0  0  0  0  0  0  0  0  0  0  0  0
   47.1310   32.1230   48.6190 C   0  0  0  0  0  0  0  0  0  0  0  0
   47.0630   33.1940   48.3020 H   0  0  0  0  0  0  0  0  0  0  0  0
   45.9110   31.7600   49.1060 O   0  0  0  0  0  0  0  0  0  0  0  0
   45.3680   30.5960   48.6380 C   0  0  0  0  0  0  0  0  0  0  0  0
   45.3200   30.5140   47.1320 C   0  0  0  0  0  0  0  0  0  0  0  0
   46.6160   34.0960   41.4050 C   0  0  0  0  0  0  0  0  0  0  0  0
   47.1420   34.6410   42.5530 C   0  0  0  0  0  0  0  0  0  0  0  0
   48.3020   35.3640   42.6180 C   0  0  0  0  0  0  0  0  0  0  0  0
   48.9970   35.5630   41.4470 C   0  0  0  0  0  0  0  0  0  0  0  0
   48.4970   35.0260   40.2620 C   0  0  0  0  0  0  0  0  0  0  0  0
   47.3300   34.3150   40.2720 C   0  0  0  0  0  0  0  0  0  0  0  0
   46.6210   34.5030   43.4960 H   0  0  0  0  0  0  0  0  0  0  0  0
   48.6580   35.7670   43.5630 H   0  0  0  0  0  0  0  0  0  0  0  0
   49.9260   36.1510   41.5460 H   0  0  0  0  0  0  0  0  0  0  0  0
   49.1650   35.2760   39.4460 H   0  0  0  0  0  0  0  0  0  0  0  0
   47.7630   32.7060   38.5480 C   0  0  0  0  0  0  0  0  0  0  0  0
   48.3790   32.3100   39.5400 O   0  0  0  0  0  0  0  0  0  0  0  0
   47.0760   33.9190   38.9100 N   0  0  0  0  0  0  0  0  0  0  0  0
   47.6220   32.3810   37.5270 H   0  0  0  0  0  0  0  0  0  0  0  0
   46.4440   34.5060   38.3030 H   0  0  0  0  0  0  0  0  0  0  0  0
  1  4  1  6  0  0  0
  1  2  1  0  0  0  0
  1  8  1  0  0  0  0
  2  6  1  0  0  0  0
  3  7  1  6  0  0  0
  3 24  1  0  0  0  0
  3  1  1  0  0  0  0
  3  2  1  0  0  0  0
  5  2  1  0  0  0  0
  8 13  1  0  0  0  0
  9  8  2  0  0  0  0
  9 10  1  0  0  0  0
 10 11  2  0  0  0  0
 11 12  1  0  0  0  0
 12 16  1  0  0  0  0
 13 12  2  0  0  0  0
 14  9  1  0  0  0  0
 15 10  1  0  0  0  0
 16 23  1  0  0  0  0
 16 17  1  0  0  0  0
 17 18  1  0  0  0  0
 17 19  1  0  0  0  0
 19 21  1  0  0  0  0
 20 19  1  0  0  0  0
 22 21  1  0  0  0  0
 23 22  1  0  0  0  0
 24 25  1  0  0  0  0
 25 26  2  0  0  0  0
 25 30  1  0  0  0  0
 26 31  1  0  0  0  0
 27 32  1  0  0  0  0
 27 26  1  0  0  0  0
 28 29  1  0  0  0  0
 28 27  2  0  0  0  0
 29 24  2  0  0  0  0
 33 28  1  0  0  0  0
 34 36  1  0  0  0  0
 34 35  2  0  0  0  0
 36 29  1  0  0  0  0
 37 34  1  0  0  0  0
 38 36  1  0  0  0  0
M  END
>  <minimizedAffinity>
-5.29715061

>  <minimizedRMSD>
2.54108

$$$$
