
 OpenBabel03252509133D

 31 34  0  0  1  0  0  0  0  0999 V2000
   37.4780   31.0120   36.8910 C   0  0  0  0  0  0  0  0  0  0  0  0
   37.2580   31.0910   38.2670 C   0  0  0  0  0  0  0  0  0  0  0  0
   36.3500   30.2820   38.9330 C   0  0  0  0  0  0  0  0  0  0  0  0
   35.6170   29.3390   38.2000 C   0  0  0  0  0  0  0  0  0  0  0  0
   34.6800   28.4170   38.4860 N   0  0  0  0  0  0  0  0  0  0  0  0
   34.3090   27.7730   37.3640 C   0  0  0  0  0  0  0  0  0  0  0  0
   35.0380   28.3180   36.3790 N   0  0  0  0  0  0  0  0  0  0  0  0
   35.8500   29.2790   36.8520 C   0  0  0  0  0  0  0  0  0  0  0  0
   36.7500   30.0730   36.1560 C   0  0  0  0  0  0  0  0  0  0  0  0
   38.1880   31.6450   36.3800 H   0  0  0  0  0  0  0  0  0  0  0  0
   34.2980   28.2250   39.4310 H   0  0  0  0  0  0  0  0  0  0  0  0
   33.5780   26.9850   37.2830 H   0  0  0  0  0  0  0  0  0  0  0  0
   36.8910   29.9830   35.0990 H   0  0  0  0  0  0  0  0  0  0  0  0
   38.1280   34.1610   40.0680 C   0  0  0  0  0  0  0  0  0  0  0  0
   39.4360   33.9100   40.5010 C   0  0  0  0  0  0  0  0  0  0  0  0
   40.0000   32.6820   40.1640 C   0  0  0  0  0  0  0  0  0  0  0  0
   39.2700   31.7770   39.4350 N   0  0  0  0  0  0  0  0  0  0  0  0
   38.0130   32.0700   39.0420 C   0  0  0  0  0  0  0  0  0  0  0  0
   37.4180   33.2560   39.3460 N   0  0  0  0  0  0  0  0  0  0  0  0
   37.5680   35.0710   40.2570 H   0  0  0  0  0  0  0  0  0  0  0  0
   39.8960   34.6980   41.0620 H   0  0  0  0  0  0  0  0  0  0  0  0
   40.9990   32.4990   40.4980 H   0  0  0  0  0  0  0  0  0  0  0  0
   36.0920   30.3950   40.6830 S   0  0  0  0  0  0  0  0  0  0  0  0
   35.8280   28.9580   42.7310 H   0  0  0  0  0  0  0  0  0  0  0  0
   36.8190   29.2830   42.9520 N   0  0  0  0  0  0  0  0  0  0  0  0
   37.3880   29.5860   41.6550 C   0  0  1  0  0  3  0  0  0  0  0  0
   37.7540   28.3080   40.8930 C   0  0  0  0  0  3  0  0  0  0  0  0
   36.8610   27.8500   40.4230 H   0  0  0  0  0  0  0  0  0  0  0  0
   38.3690   27.3640   41.6730 O   0  0  0  0  0  0  0  0  0  0  0  0
   38.7480   27.7630   42.9280 C   0  0  0  0  0  2  0  0  0  0  0  0
   37.5420   28.2790   43.6750 C   0  0  0  0  0  2  0  0  0  0  0  0
  1  2  1  0  0  0  0
  2  3  2  0  0  0  0
  2 18  1  0  0  0  0
  3 23  1  0  0  0  0
  4  5  1  0  0  0  0
  4  3  1  0  0  0  0
  5 11  1  0  0  0  0
  6  5  1  0  0  0  0
  7  8  1  0  0  0  0
  7  6  2  0  0  0  0
  8  4  2  0  0  0  0
  9  8  1  0  0  0  0
  9  1  2  0  0  0  0
 10  1  1  0  0  0  0
 12  6  1  0  0  0  0
 13  9  1  0  0  0  0
 14 20  1  0  0  0  0
 14 15  1  0  0  0  0
 15 21  1  0  0  0  0
 16 22  1  0  0  0  0
 16 15  2  0  0  0  0
 17 16  1  0  0  0  0
 18 19  1  0  0  0  0
 18 17  2  0  0  0  0
 19 14  2  0  0  0  0
 24 25  1  0  0  0  0
 25 31  1  0  0  0  0
 26 23  1  6  0  0  0
 26 25  1  0  0  0  0
 27 26  1  0  0  0  0
 27 29  1  0  0  0  0
 28 27  1  0  0  0  0
 29 30  1  0  0  0  0
 30 31  1  0  0  0  0
M  END
>  <minimizedAffinity>
-5.66021681

$$$$

 OpenBabel03252509133D

 31 34  0  0  1  0  0  0  0  0999 V2000
   40.2170   29.7780   42.2150 C   0  0  0  0  0  0  0  0  0  0  0  0
   39.2070   30.5030   41.5790 C   0  0  0  0  0  0  0  0  0  0  0  0
   37.8700   30.1440   41.6380 C   0  0  0  0  0  0  0  0  0  0  0  0
   37.5040   29.0050   42.3670 C   0  0  0  0  0  0  0  0  0  0  0  0
   36.3520   28.3670   42.6390 N   0  0  0  0  0  0  0  0  0  0  0  0
   36.5920   27.2880   43.4070 C   0  0  0  0  0  0  0  0  0  0  0  0
   37.9190   27.2750   43.6030 N   0  0  0  0  0  0  0  0  0  0  0  0
   38.5110   28.3100   42.9830 C   0  0  0  0  0  0  0  0  0  0  0  0
   39.8570   28.6410   42.9430 C   0  0  0  0  0  0  0  0  0  0  0  0
   41.2560   30.0650   42.1650 H   0  0  0  0  0  0  0  0  0  0  0  0
   35.4130   28.6600   42.3090 H   0  0  0  0  0  0  0  0  0  0  0  0
   35.8650   26.5870   43.7820 H   0  0  0  0  0  0  0  0  0  0  0  0
   40.6020   28.0590   43.4450 H   0  0  0  0  0  0  0  0  0  0  0  0
   40.7090   32.6500   39.0170 C   0  0  0  0  0  0  0  0  0  0  0  0
   40.2620   33.9280   39.3770 C   0  0  0  0  0  0  0  0  0  0  0  0
   39.4470   34.0290   40.5020 C   0  0  0  0  0  0  0  0  0  0  0  0
   39.1150   32.8980   41.2060 N   0  0  0  0  0  0  0  0  0  0  0  0
   39.5740   31.6910   40.8140 C   0  0  0  0  0  0  0  0  0  0  0  0
   40.3730   31.5400   39.7230 N   0  0  0  0  0  0  0  0  0  0  0  0
   41.3460   32.4250   38.1690 H   0  0  0  0  0  0  0  0  0  0  0  0
   40.5920   34.7270   38.7470 H   0  0  0  0  0  0  0  0  0  0  0  0
   39.1110   35.0090   40.7710 H   0  0  0  0  0  0  0  0  0  0  0  0
   36.6040   31.0850   40.8280 S   0  0  0  0  0  0  0  0  0  0  0  0
   38.1550   31.9640   39.0530 H   0  0  0  0  0  0  0  0  0  0  0  0
   37.3090   31.8510   38.4130 N   0  0  0  0  0  0  0  0  0  0  0  0
   36.5300   30.8030   39.0410 C   0  0  1  0  0  3  0  0  0  0  0  0
   37.1550   29.4240   38.8040 C   0  0  0  0  0  3  0  0  0  0  0  0
   38.0040   29.2430   39.4930 H   0  0  0  0  0  0  0  0  0  0  0  0
   37.5900   29.2350   37.5180 O   0  0  0  0  0  0  0  0  0  0  0  0
   37.2270   30.1910   36.6050 C   0  0  0  0  0  2  0  0  0  0  0  0
   37.7120   31.5410   37.0730 C   0  0  0  0  0  2  0  0  0  0  0  0
  1  9  1  0  0  0  0
  2  3  1  0  0  0  0
  2  1  2  0  0  0  0
  3  4  2  0  0  0  0
  4  5  1  0  0  0  0
  4  8  1  0  0  0  0
  5  6  1  0  0  0  0
  6  7  2  0  0  0  0
  6 12  1  0  0  0  0
  8  7  1  0  0  0  0
  9  8  2  0  0  0  0
  9 13  1  0  0  0  0
 10  1  1  0  0  0  0
 11  5  1  0  0  0  0
 14 15  2  0  0  0  0
 14 19  1  0  0  0  0
 15 16  1  0  0  0  0
 16 22  1  0  0  0  0
 16 17  2  0  0  0  0
 18 17  1  0  0  0  0
 18  2  1  0  0  0  0
 19 18  2  0  0  0  0
 20 14  1  0  0  0  0
 21 15  1  0  0  0  0
 23  3  1  0  0  0  0
 25 26  1  0  0  0  0
 25 24  1  0  0  0  0
 26 23  1  1  0  0  0
 27 26  1  0  0  0  0
 27 28  1  0  0  0  0
 29 27  1  0  0  0  0
 30 31  1  0  0  0  0
 30 29  1  0  0  0  0
 31 25  1  0  0  0  0
M  END
>  <minimizedAffinity>
-5.52356911

$$$$

 OpenBabel03252509133D

 31 34  0  0  1  0  0  0  0  0999 V2000
   36.5710   26.3690   39.4260 C   0  0  0  0  0  0  0  0  0  0  0  0
   36.1590   27.7010   39.3470 C   0  0  0  0  0  0  0  0  0  0  0  0
   36.2340   28.5770   40.4180 C   0  0  0  0  0  0  0  0  0  0  0  0
   36.7460   28.1160   41.6380 C   0  0  0  0  0  0  0  0  0  0  0  0
   36.9620   28.6500   42.8530 N   0  0  0  0  0  0  0  0  0  0  0  0
   37.4840   27.7240   43.6780 C   0  0  0  0  0  0  0  0  0  0  0  0
   37.5860   26.6060   42.9450 N   0  0  0  0  0  0  0  0  0  0  0  0
   37.1440   26.8070   41.6920 C   0  0  0  0  0  0  0  0  0  0  0  0
   37.0820   25.9040   40.6400 C   0  0  0  0  0  0  0  0  0  0  0  0
   36.5100   25.6930   38.5860 H   0  0  0  0  0  0  0  0  0  0  0  0
   36.7600   29.6320   43.1200 H   0  0  0  0  0  0  0  0  0  0  0  0
   37.7610   27.8610   44.7110 H   0  0  0  0  0  0  0  0  0  0  0  0
   37.4080   24.8900   40.7390 H   0  0  0  0  0  0  0  0  0  0  0  0
   35.9790   29.1590   35.9910 C   0  0  0  0  0  0  0  0  0  0  0  0
   34.6080   29.1210   35.7050 C   0  0  0  0  0  0  0  0  0  0  0  0
   33.7640   28.5920   36.6780 C   0  0  0  0  0  0  0  0  0  0  0  0
   34.2930   28.1330   37.8600 N   0  0  0  0  0  0  0  0  0  0  0  0
   35.6220   28.1940   38.0830 C   0  0  0  0  0  0  0  0  0  0  0  0
   36.4870   28.7030   37.1640 N   0  0  0  0  0  0  0  0  0  0  0  0
   36.7470   29.5440   35.3280 H   0  0  0  0  0  0  0  0  0  0  0  0
   34.3250   29.5100   34.7490 H   0  0  0  0  0  0  0  0  0  0  0  0
   32.7190   28.5670   36.4530 H   0  0  0  0  0  0  0  0  0  0  0  0
   35.7120   30.2670   40.2930 S   0  0  0  0  0  0  0  0  0  0  0  0
   36.6810   32.3660   41.2820 H   0  0  0  0  0  0  0  0  0  0  0  0
   36.8600   32.6310   40.2650 N   0  0  0  0  0  0  0  0  0  0  0  0
   36.9700   31.3580   39.5830 C   0  0  1  0  0  3  0  0  0  0  0  0
   38.3190   30.6880   39.8630 C   0  0  0  0  0  3  0  0  0  0  0  0
   38.3220   30.1880   40.8520 H   0  0  0  0  0  0  0  0  0  0  0  0
   39.3810   31.5530   39.8080 O   0  0  0  0  0  0  0  0  0  0  0  0
   39.1200   32.8070   39.3190 C   0  0  0  0  0  2  0  0  0  0  0  0
   38.0320   33.4500   40.1430 C   0  0  0  0  0  2  0  0  0  0  0  0
  1  9  1  0  0  0  0
  2  1  2  0  0  0  0
  2  3  1  0  0  0  0
  3  4  2  0  0  0  0
  4  8  1  0  0  0  0
  4  5  1  0  0  0  0
  5 11  1  0  0  0  0
  5  6  1  0  0  0  0
  6 12  1  0  0  0  0
  7  6  2  0  0  0  0
  8  7  1  0  0  0  0
  9 13  1  0  0  0  0
  9  8  2  0  0  0  0
 10  1  1  0  0  0  0
 14 19  1  0  0  0  0
 15 14  2  0  0  0  0
 15 16  1  0  0  0  0
 16 17  2  0  0  0  0
 17 18  1  0  0  0  0
 18  2  1  0  0  0  0
 19 18  2  0  0  0  0
 20 14  1  0  0  0  0
 21 15  1  0  0  0  0
 22 16  1  0  0  0  0
 23  3  1  0  0  0  0
 25 24  1  0  0  0  0
 26 27  1  0  0  0  0
 26 25  1  0  0  0  0
 26 23  1  1  0  0  0
 27 28  1  0  0  0  0
 29 27  1  0  0  0  0
 30 29  1  0  0  0  0
 30 31  1  0  0  0  0
 31 25  1  0  0  0  0
M  END
>  <minimizedAffinity>
-5.52311802

$$$$

 OpenBabel03252509133D

 31 34  0  0  1  0  0  0  0  0999 V2000
   37.2650   33.0090   39.7200 C   0  0  0  0  0  0  0  0  0  0  0  0
   37.6240   31.6600   39.6700 C   0  0  0  0  0  0  0  0  0  0  0  0
   38.9170   31.2150   39.8930 C   0  0  0  0  0  0  0  0  0  0  0  0
   39.9170   32.1530   40.1840 C   0  0  0  0  0  0  0  0  0  0  0  0
   41.2350   32.1020   40.4450 N   0  0  0  0  0  0  0  0  0  0  0  0
   41.7120   33.3430   40.6530 C   0  0  0  0  0  0  0  0  0  0  0  0
   40.6580   34.1610   40.5150 N   0  0  0  0  0  0  0  0  0  0  0  0
   39.5430   33.4690   40.2280 C   0  0  0  0  0  0  0  0  0  0  0  0
   38.2590   33.9470   40.0090 C   0  0  0  0  0  0  0  0  0  0  0  0
   36.2550   33.3470   39.5460 H   0  0  0  0  0  0  0  0  0  0  0  0
   41.8050   31.2370   40.4840 H   0  0  0  0  0  0  0  0  0  0  0  0
   42.7300   33.6150   40.8830 H   0  0  0  0  0  0  0  0  0  0  0  0
   38.0230   34.9910   40.0560 H   0  0  0  0  0  0  0  0  0  0  0  0
   34.8990   29.2490   40.1020 C   0  0  0  0  0  0  0  0  0  0  0  0
   34.6530   28.8150   38.7930 C   0  0  0  0  0  0  0  0  0  0  0  0
   35.4350   29.3620   37.7780 C   0  0  0  0  0  0  0  0  0  0  0  0
   36.3990   30.2900   38.0880 N   0  0  0  0  0  0  0  0  0  0  0  0
   36.5930   30.6730   39.3670 C   0  0  0  0  0  0  0  0  0  0  0  0
   35.8560   30.1670   40.3930 N   0  0  0  0  0  0  0  0  0  0  0  0
   34.3680   28.9090   40.9850 H   0  0  0  0  0  0  0  0  0  0  0  0
   33.8750   28.0890   38.6850 H   0  0  0  0  0  0  0  0  0  0  0  0
   35.2420   29.0250   36.7810 H   0  0  0  0  0  0  0  0  0  0  0  0
   39.3470   29.4960   39.8320 S   0  0  0  0  0  0  0  0  0  0  0  0
   37.7340   30.1020   41.6640 H   0  0  0  0  0  0  0  0  0  0  0  0
   38.4120   29.5660   42.2880 N   0  0  0  0  0  0  0  0  0  0  0  0
   39.0470   28.6230   41.3900 C   0  0  1  0  0  3  0  0  0  0  0  0
   38.1120   27.4580   41.0500 C   0  0  0  0  0  3  0  0  0  0  0  0
   37.3770   27.7460   40.2710 H   0  0  0  0  0  0  0  0  0  0  0  0
   37.4300   26.9700   42.1340 O   0  0  0  0  0  0  0  0  0  0  0  0
   37.8240   27.4370   43.3610 C   0  0  0  0  0  2  0  0  0  0  0  0
   37.7250   28.9420   43.3810 C   0  0  0  0  0  2  0  0  0  0  0  0
  1  9  1  0  0  0  0
  2  1  2  0  0  0  0
  2  3  1  0  0  0  0
  3  4  2  0  0  0  0
  4  8  1  0  0  0  0
  4  5  1  0  0  0  0
  5 11  1  0  0  0  0
  5  6  1  0  0  0  0
  6 12  1  0  0  0  0
  7  6  2  0  0  0  0
  8  7  1  0  0  0  0
  9 13  1  0  0  0  0
  9  8  2  0  0  0  0
 10  1  1  0  0  0  0
 14 19  1  0  0  0  0
 14 20  1  0  0  0  0
 15 14  2  0  0  0  0
 16 17  2  0  0  0  0
 16 15  1  0  0  0  0
 17 18  1  0  0  0  0
 18  2  1  0  0  0  0
 18 19  2  0  0  0  0
 21 15  1  0  0  0  0
 22 16  1  0  0  0  0
 23  3  1  0  0  0  0
 24 25  1  0  0  0  0
 25 31  1  0  0  0  0
 26 23  1  6  0  0  0
 26 25  1  0  0  0  0
 27 26  1  0  0  0  0
 27 29  1  0  0  0  0
 28 27  1  0  0  0  0
 29 30  1  0  0  0  0
 30 31  1  0  0  0  0
M  END
>  <minimizedAffinity>
-5.5213542

$$$$

 OpenBabel03252509133D

 31 34  0  0  1  0  0  0  0  0999 V2000
   39.4670   30.3950   42.1080 C   0  0  0  0  0  0  0  0  0  0  0  0
   38.2260   29.9430   41.6540 C   0  0  0  0  0  0  0  0  0  0  0  0
   37.3510   30.7410   40.9340 C   0  0  0  0  0  0  0  0  0  0  0  0
   37.7200   32.0610   40.6420 C   0  0  0  0  0  0  0  0  0  0  0  0
   37.1550   33.0950   39.9940 N   0  0  0  0  0  0  0  0  0  0  0  0
   37.9760   34.1610   40.0220 C   0  0  0  0  0  0  0  0  0  0  0  0
   39.0620   33.7600   40.7020 N   0  0  0  0  0  0  0  0  0  0  0  0
   38.9410   32.4820   41.0960 C   0  0  0  0  0  0  0  0  0  0  0  0
   39.8390   31.7100   41.8200 C   0  0  0  0  0  0  0  0  0  0  0  0
   40.1440   29.7660   42.6670 H   0  0  0  0  0  0  0  0  0  0  0  0
   36.2250   33.0790   39.5370 H   0  0  0  0  0  0  0  0  0  0  0  0
   37.7940   35.1300   39.5860 H   0  0  0  0  0  0  0  0  0  0  0  0
   40.7820   32.0930   42.1500 H   0  0  0  0  0  0  0  0  0  0  0  0
   37.8150   26.3140   41.3700 C   0  0  0  0  0  0  0  0  0  0  0  0
   37.0800   25.9900   42.5170 C   0  0  0  0  0  0  0  0  0  0  0  0
   36.7350   27.0330   43.3740 C   0  0  0  0  0  0  0  0  0  0  0  0
   37.1210   28.3150   43.0720 N   0  0  0  0  0  0  0  0  0  0  0  0
   37.8290   28.5710   41.9530 C   0  0  0  0  0  0  0  0  0  0  0  0
   38.1890   27.5870   41.0840 N   0  0  0  0  0  0  0  0  0  0  0  0
   38.1480   25.6050   40.6180 H   0  0  0  0  0  0  0  0  0  0  0  0
   36.8420   24.9530   42.6360 H   0  0  0  0  0  0  0  0  0  0  0  0
   36.1730   26.7770   44.2470 H   0  0  0  0  0  0  0  0  0  0  0  0
   35.7830   30.1430   40.3610 S   0  0  0  0  0  0  0  0  0  0  0  0
   36.9800   28.1790   39.3430 H   0  0  0  0  0  0  0  0  0  0  0  0
   36.9570   28.7660   38.4540 N   0  0  0  0  0  0  0  0  0  0  0  0
   35.8010   29.6220   38.6270 C   0  0  1  0  0  3  0  0  0  0  0  0
   34.4960   28.8530   38.4020 C   0  0  0  0  0  3  0  0  0  0  0  0
   34.2210   28.2570   39.2950 H   0  0  0  0  0  0  0  0  0  0  0  0
   34.5330   28.0180   37.3160 O   0  0  0  0  0  0  0  0  0  0  0  0
   35.6200   28.1430   36.4890 C   0  0  0  0  0  2  0  0  0  0  0  0
   36.8840   27.9350   37.2870 C   0  0  0  0  0  2  0  0  0  0  0  0
  1 10  1  0  0  0  0
  2 18  1  0  0  0  0
  2  1  2  0  0  0  0
  3  2  1  0  0  0  0
  4  3  2  0  0  0  0
  4  8  1  0  0  0  0
  5  6  1  0  0  0  0
  5  4  1  0  0  0  0
  6  7  2  0  0  0  0
  7  8  1  0  0  0  0
  8  9  2  0  0  0  0
  9  1  1  0  0  0  0
  9 13  1  0  0  0  0
 11  5  1  0  0  0  0
 12  6  1  0  0  0  0
 14 15  1  0  0  0  0
 15 21  1  0  0  0  0
 15 16  2  0  0  0  0
 16 22  1  0  0  0  0
 17 16  1  0  0  0  0
 18 17  2  0  0  0  0
 19 14  2  0  0  0  0
 19 18  1  0  0  0  0
 20 14  1  0  0  0  0
 23  3  1  0  0  0  0
 25 26  1  0  0  0  0
 25 24  1  0  0  0  0
 26 23  1  1  0  0  0
 27 26  1  0  0  0  0
 27 28  1  0  0  0  0
 29 27  1  0  0  0  0
 30 31  1  0  0  0  0
 30 29  1  0  0  0  0
 31 25  1  0  0  0  0
M  END
>  <minimizedAffinity>
-5.38566208

$$$$

 OpenBabel03252509133D

 31 34  0  0  1  0  0  0  0  0999 V2000
   38.7800   30.7750   37.7410 C   0  0  0  0  0  0  0  0  0  0  0  0
   37.8070   30.4490   38.6880 C   0  0  0  0  0  0  0  0  0  0  0  0
   37.5890   31.1980   39.8340 C   0  0  0  0  0  0  0  0  0  0  0  0
   38.3740   32.3360   40.0600 C   0  0  0  0  0  0  0  0  0  0  0  0
   38.4540   33.2720   41.0220 N   0  0  0  0  0  0  0  0  0  0  0  0
   39.4210   34.1590   40.7240 C   0  0  0  0  0  0  0  0  0  0  0  0
   39.9370   33.7480   39.5560 N   0  0  0  0  0  0  0  0  0  0  0  0
   39.3220   32.6370   39.1190 C   0  0  0  0  0  0  0  0  0  0  0  0
   39.5650   31.9090   37.9630 C   0  0  0  0  0  0  0  0  0  0  0  0
   38.9420   30.1870   36.8500 H   0  0  0  0  0  0  0  0  0  0  0  0
   37.8590   33.3110   41.8700 H   0  0  0  0  0  0  0  0  0  0  0  0
   39.7140   35.0170   41.3070 H   0  0  0  0  0  0  0  0  0  0  0  0
   40.3220   32.1920   37.2600 H   0  0  0  0  0  0  0  0  0  0  0  0
   36.6360   26.9780   38.7550 C   0  0  0  0  0  0  0  0  0  0  0  0
   35.4300   27.0390   38.0450 C   0  0  0  0  0  0  0  0  0  0  0  0
   35.0380   28.2820   37.5520 C   0  0  0  0  0  0  0  0  0  0  0  0
   35.8300   29.3810   37.7750 N   0  0  0  0  0  0  0  0  0  0  0  0
   36.9830   29.2650   38.4650 C   0  0  0  0  0  0  0  0  0  0  0  0
   37.4090   28.0740   38.9670 N   0  0  0  0  0  0  0  0  0  0  0  0
   37.0610   26.0800   39.1930 H   0  0  0  0  0  0  0  0  0  0  0  0
   34.9070   26.1120   37.9410 H   0  0  0  0  0  0  0  0  0  0  0  0
   34.1170   28.3200   37.0110 H   0  0  0  0  0  0  0  0  0  0  0  0
   36.3420   30.7680   41.0180 S   0  0  0  0  0  0  0  0  0  0  0  0
   36.3100   28.2540   40.9560 H   0  0  0  0  0  0  0  0  0  0  0  0
   36.2870   28.3370   42.0180 N   0  0  0  0  0  0  0  0  0  0  0  0
   36.9220   29.6110   42.2850 C   0  0  1  0  0  3  0  0  0  0  0  0
   38.4420   29.5260   42.1170 C   0  0  0  0  0  3  0  0  0  0  0  0
   38.7320   29.5750   41.0480 H   0  0  0  0  0  0  0  0  0  0  0  0
   38.9900   28.3950   42.6650 O   0  0  0  0  0  0  0  0  0  0  0  0
   38.1590   27.6320   43.4430 C   0  0  0  0  0  2  0  0  0  0  0  0
   36.9490   27.2260   42.6380 C   0  0  0  0  0  2  0  0  0  0  0  0
  1  9  2  0  0  0  0
  1  2  1  0  0  0  0
  2  3  2  0  0  0  0
  3  4  1  0  0  0  0
  3 23  1  0  0  0  0
  4  5  1  0  0  0  0
  5 11  1  0  0  0  0
  6  5  1  0  0  0  0
  6 12  1  0  0  0  0
  7  6  2  0  0  0  0
  8  7  1  0  0  0  0
  8  4  2  0  0  0  0
  9  8  1  0  0  0  0
 10  1  1  0  0  0  0
 13  9  1  0  0  0  0
 14 19  1  0  0  0  0
 14 20  1  0  0  0  0
 15 14  2  0  0  0  0
 16 17  2  0  0  0  0
 16 15  1  0  0  0  0
 17 18  1  0  0  0  0
 18  2  1  0  0  0  0
 18 19  2  0  0  0  0
 21 15  1  0  0  0  0
 22 16  1  0  0  0  0
 24 25  1  0  0  0  0
 25 26  1  0  0  0  0
 25 31  1  0  0  0  0
 26 23  1  6  0  0  0
 27 26  1  0  0  0  0
 27 29  1  0  0  0  0
 28 27  1  0  0  0  0
 29 30  1  0  0  0  0
 31 30  1  0  0  0  0
M  END
>  <minimizedAffinity>
-5.2209959

$$$$

 OpenBabel03252509133D

 31 34  0  0  1  0  0  0  0  0999 V2000
   37.1690   26.2350   39.6500 C   0  0  0  0  0  0  0  0  0  0  0  0
   37.3100   27.4090   40.3920 C   0  0  0  0  0  0  0  0  0  0  0  0
   36.5190   28.5290   40.1880 C   0  0  0  0  0  0  0  0  0  0  0  0
   35.5310   28.4910   39.1950 C   0  0  0  0  0  0  0  0  0  0  0  0
   34.6090   29.3490   38.7240 N   0  0  0  0  0  0  0  0  0  0  0  0
   33.9070   28.7720   37.7310 C   0  0  0  0  0  0  0  0  0  0  0  0
   34.4160   27.5370   37.6020 N   0  0  0  0  0  0  0  0  0  0  0  0
   35.4100   27.3290   38.4810 C   0  0  0  0  0  0  0  0  0  0  0  0
   36.1850   26.1920   38.6590 C   0  0  0  0  0  0  0  0  0  0  0  0
   37.7880   25.3660   39.8150 H   0  0  0  0  0  0  0  0  0  0  0  0
   34.4560   30.3140   39.0710 H   0  0  0  0  0  0  0  0  0  0  0  0
   33.1040   29.2150   37.1650 H   0  0  0  0  0  0  0  0  0  0  0  0
   36.0460   25.3090   38.0690 H   0  0  0  0  0  0  0  0  0  0  0  0
   40.5060   28.0230   42.0750 C   0  0  0  0  0  0  0  0  0  0  0  0
   40.2670   27.5660   43.3780 C   0  0  0  0  0  0  0  0  0  0  0  0
   39.0040   27.0510   43.6560 C   0  0  0  0  0  0  0  0  0  0  0  0
   38.0530   27.0100   42.6650 N   0  0  0  0  0  0  0  0  0  0  0  0
   38.3370   27.4640   41.4270 C   0  0  0  0  0  0  0  0  0  0  0  0
   39.5570   27.9760   41.1060 N   0  0  0  0  0  0  0  0  0  0  0  0
   41.4400   28.4460   41.7200 H   0  0  0  0  0  0  0  0  0  0  0  0
   41.0910   27.6530   44.0560 H   0  0  0  0  0  0  0  0  0  0  0  0
   38.8300   26.7040   44.6520 H   0  0  0  0  0  0  0  0  0  0  0  0
   36.7120   30.0070   41.1480 S   0  0  0  0  0  0  0  0  0  0  0  0
   36.3300   32.4930   41.1310 H   0  0  0  0  0  0  0  0  0  0  0  0
   36.8520   32.4560   40.2020 N   0  0  0  0  0  0  0  0  0  0  0  0
   37.6930   31.2820   40.3170 C   0  0  1  0  0  3  0  0  0  0  0  0
   38.9000   31.5450   41.2230 C   0  0  0  0  0  3  0  0  0  0  0  0
   38.6210   31.4830   42.2930 H   0  0  0  0  0  0  0  0  0  0  0  0
   39.4980   32.7580   40.9980 O   0  0  0  0  0  0  0  0  0  0  0  0
   39.0770   33.4490   39.8910 C   0  0  0  0  0  2  0  0  0  0  0  0
   37.5860   33.6660   39.9730 C   0  0  0  0  0  2  0  0  0  0  0  0
  1 10  1  0  0  0  0
  1  2  1  0  0  0  0
  2 18  1  0  0  0  0
  3  2  2  0  0  0  0
  3 23  1  0  0  0  0
  4  3  1  0  0  0  0
  5 11  1  0  0  0  0
  5  4  1  0  0  0  0
  6  5  1  0  0  0  0
  7  6  2  0  0  0  0
  7  8  1  0  0  0  0
  8  9  1  0  0  0  0
  8  4  2  0  0  0  0
  9  1  2  0  0  0  0
 12  6  1  0  0  0  0
 13  9  1  0  0  0  0
 14 15  1  0  0  0  0
 15 16  2  0  0  0  0
 15 21  1  0  0  0  0
 16 22  1  0  0  0  0
 17 16  1  0  0  0  0
 18 17  2  0  0  0  0
 19 18  1  0  0  0  0
 19 14  2  0  0  0  0
 20 14  1  0  0  0  0
 25 26  1  0  0  0  0
 25 24  1  0  0  0  0
 26 23  1  1  0  0  0
 26 27  1  0  0  0  0
 27 28  1  0  0  0  0
 29 27  1  0  0  0  0
 30 31  1  0  0  0  0
 30 29  1  0  0  0  0
 31 25  1  0  0  0  0
M  END
>  <minimizedAffinity>
-5.09446526

$$$$

 OpenBabel03252509133D

 31 34  0  0  1  0  0  0  0  0999 V2000
   34.6810   28.5450   38.3810 C   0  0  0  0  0  0  0  0  0  0  0  0
   36.0000   28.9140   38.6480 C   0  0  0  0  0  0  0  0  0  0  0  0
   36.8570   29.4070   37.6760 C   0  0  0  0  0  0  0  0  0  0  0  0
   36.3860   29.5440   36.3630 C   0  0  0  0  0  0  0  0  0  0  0  0
   36.9030   29.9660   35.1960 N   0  0  0  0  0  0  0  0  0  0  0  0
   35.9790   29.8780   34.2220 C   0  0  0  0  0  0  0  0  0  0  0  0
   34.8780   29.3920   34.8160 N   0  0  0  0  0  0  0  0  0  0  0  0
   35.0890   29.1760   36.1250 C   0  0  0  0  0  0  0  0  0  0  0  0
   34.2070   28.6790   37.0740 C   0  0  0  0  0  0  0  0  0  0  0  0
   34.0200   28.1630   39.1450 H   0  0  0  0  0  0  0  0  0  0  0  0
   37.8720   30.3120   35.0600 H   0  0  0  0  0  0  0  0  0  0  0  0
   36.1040   30.1450   33.1860 H   0  0  0  0  0  0  0  0  0  0  0  0
   33.2010   28.4070   36.8300 H   0  0  0  0  0  0  0  0  0  0  0  0
   36.9660   29.7290   42.0870 C   0  0  0  0  0  0  0  0  0  0  0  0
   37.4540   28.5090   42.5740 C   0  0  0  0  0  0  0  0  0  0  0  0
   37.4420   27.4210   41.7050 C   0  0  0  0  0  0  0  0  0  0  0  0
   36.9620   27.5760   40.4270 N   0  0  0  0  0  0  0  0  0  0  0  0
   36.5050   28.7750   40.0100 C   0  0  0  0  0  0  0  0  0  0  0  0
   36.4960   29.8680   40.8220 N   0  0  0  0  0  0  0  0  0  0  0  0
   36.9170   30.6540   42.6520 H   0  0  0  0  0  0  0  0  0  0  0  0
   37.7990   28.5200   43.5870 H   0  0  0  0  0  0  0  0  0  0  0  0
   37.8170   26.4930   42.0830 H   0  0  0  0  0  0  0  0  0  0  0  0
   38.5270   29.8770   38.0400 S   0  0  0  0  0  0  0  0  0  0  0  0
   36.8370   31.3040   39.2370 H   0  0  0  0  0  0  0  0  0  0  0  0
   37.3510   32.1130   38.7690 N   0  0  0  0  0  0  0  0  0  0  0  0
   38.6910   31.6040   38.5610 C   0  0  1  0  0  3  0  0  0  0  0  0
   39.4900   31.5790   39.8680 C   0  0  0  0  0  3  0  0  0  0  0  0
   39.2230   30.6980   40.4850 H   0  0  0  0  0  0  0  0  0  0  0  0
   39.3300   32.7080   40.6280 O   0  0  0  0  0  0  0  0  0  0  0  0
   38.6700   33.7530   40.0350 C   0  0  0  0  0  2  0  0  0  0  0  0
   37.3060   33.2930   39.5820 C   0  0  0  0  0  2  0  0  0  0  0  0
  1  2  1  0  0  0  0
  1 10  1  0  0  0  0
  2 18  1  0  0  0  0
  3 23  1  0  0  0  0
  3  2  2  0  0  0  0
  4  3  1  0  0  0  0
  5  4  1  0  0  0  0
  6  7  2  0  0  0  0
  6  5  1  0  0  0  0
  7  8  1  0  0  0  0
  8  4  2  0  0  0  0
  8  9  1  0  0  0  0
  9  1  2  0  0  0  0
 11  5  1  0  0  0  0
 12  6  1  0  0  0  0
 13  9  1  0  0  0  0
 14 15  1  0  0  0  0
 14 20  1  0  0  0  0
 15 21  1  0  0  0  0
 16 22  1  0  0  0  0
 16 15  2  0  0  0  0
 17 16  1  0  0  0  0
 18 17  2  0  0  0  0
 18 19  1  0  0  0  0
 19 14  2  0  0  0  0
 25 24  1  0  0  0  0
 25 31  1  0  0  0  0
 26 23  1  1  0  0  0
 26 25  1  0  0  0  0
 26 27  1  0  0  0  0
 27 28  1  0  0  0  0
 27 29  1  0  0  0  0
 30 29  1  0  0  0  0
 31 30  1  0  0  0  0
M  END
>  <minimizedAffinity>
-5.06451607

$$$$

 OpenBabel03252509133D

 31 34  0  0  1  0  0  0  0  0999 V2000
   36.9920   29.7460   36.9280 C   0  0  0  0  0  0  0  0  0  0  0  0
   36.3850   29.1230   38.0200 C   0  0  0  0  0  0  0  0  0  0  0  0
   36.2650   29.7270   39.2620 C   0  0  0  0  0  0  0  0  0  0  0  0
   36.7710   31.0220   39.4380 C   0  0  0  0  0  0  0  0  0  0  0  0
   36.8390   31.8960   40.4580 N   0  0  0  0  0  0  0  0  0  0  0  0
   37.4540   33.0240   40.0580 C   0  0  0  0  0  0  0  0  0  0  0  0
   37.7630   32.8260   38.7680 N   0  0  0  0  0  0  0  0  0  0  0  0
   37.3610   31.6130   38.3530 C   0  0  0  0  0  0  0  0  0  0  0  0
   37.4980   31.0360   37.0990 C   0  0  0  0  0  0  0  0  0  0  0  0
   37.0800   29.2680   35.9640 H   0  0  0  0  0  0  0  0  0  0  0  0
   36.4720   31.7310   41.4140 H   0  0  0  0  0  0  0  0  0  0  0  0
   37.6520   33.8990   40.6550 H   0  0  0  0  0  0  0  0  0  0  0  0
   37.9700   31.5470   36.2850 H   0  0  0  0  0  0  0  0  0  0  0  0
   34.1210   26.3670   37.1810 C   0  0  0  0  0  0  0  0  0  0  0  0
   34.8620   25.2330   37.5340 C   0  0  0  0  0  0  0  0  0  0  0  0
   36.1360   25.4360   38.0600 C   0  0  0  0  0  0  0  0  0  0  0  0
   36.6130   26.7150   38.2090 N   0  0  0  0  0  0  0  0  0  0  0  0
   35.8550   27.7730   37.8520 C   0  0  0  0  0  0  0  0  0  0  0  0
   34.6050   27.6260   37.3340 N   0  0  0  0  0  0  0  0  0  0  0  0
   33.1190   26.3570   36.7630 H   0  0  0  0  0  0  0  0  0  0  0  0
   34.3760   24.2940   37.3690 H   0  0  0  0  0  0  0  0  0  0  0  0
   36.6950   24.5650   38.3280 H   0  0  0  0  0  0  0  0  0  0  0  0
   35.4830   28.9190   40.6330 S   0  0  0  0  0  0  0  0  0  0  0  0
   37.8730   28.2860   40.1690 H   0  0  0  0  0  0  0  0  0  0  0  0
   37.7000   27.5300   40.9000 N   0  0  0  0  0  0  0  0  0  0  0  0
   36.6510   28.0810   41.7340 C   0  0  1  0  0  3  0  0  0  0  0  0
   37.1940   29.1600   42.6770 C   0  0  0  0  0  3  0  0  0  0  0  0
   37.3200   30.1270   42.1500 H   0  0  0  0  0  0  0  0  0  0  0  0
   38.3870   28.8240   43.2630 O   0  0  0  0  0  0  0  0  0  0  0  0
   38.8050   27.5290   43.0940 C   0  0  0  0  0  2  0  0  0  0  0  0
   38.9010   27.2210   41.6200 C   0  0  0  0  0  2  0  0  0  0  0  0
  1  9  2  0  0  0  0
  1  2  1  0  0  0  0
  2  3  2  0  0  0  0
  3  4  1  0  0  0  0
  3 23  1  0  0  0  0
  4  5  1  0  0  0  0
  5 11  1  0  0  0  0
  6  5  1  0  0  0  0
  6 12  1  0  0  0  0
  7  6  2  0  0  0  0
  8  7  1  0  0  0  0
  8  4  2  0  0  0  0
  9  8  1  0  0  0  0
 10  1  1  0  0  0  0
 13  9  1  0  0  0  0
 14 19  2  0  0  0  0
 14 15  1  0  0  0  0
 15 16  2  0  0  0  0
 16 17  1  0  0  0  0
 16 22  1  0  0  0  0
 18  2  1  0  0  0  0
 18 17  2  0  0  0  0
 19 18  1  0  0  0  0
 20 14  1  0  0  0  0
 21 15  1  0  0  0  0
 24 25  1  0  0  0  0
 25 31  1  0  0  0  0
 25 26  1  0  0  0  0
 26 23  1  6  0  0  0
 26 27  1  0  0  0  0
 27 29  1  0  0  0  0
 28 27  1  0  0  0  0
 30 29  1  0  0  0  0
 31 30  1  0  0  0  0
M  END
>  <minimizedAffinity>
-5.03059244

$$$$
