
 OpenBabel03252509343D

 42 44  0  0  1  0  0  0  0  0999 V2000
   48.4820   32.9400   43.0380 C   0  0  1  0  0  0  0  0  0  0  0  0
   49.4820   32.5990   41.9480 C   0  0  0  0  0  0  0  0  0  0  0  0
   50.4960   33.7070   42.1150 C   0  0  0  0  0  0  0  0  0  0  0  0
   49.7440   34.8740   42.6950 C   0  0  0  0  0  0  0  0  0  0  0  0
   48.2960   34.4230   42.7830 C   0  0  1  0  0  0  0  0  0  0  0  0
   48.9880   32.7750   43.9950 H   0  0  0  0  0  0  0  0  0  0  0  0
   49.9820   31.6570   42.2900 H   0  0  0  0  0  0  0  0  0  0  0  0
   49.0600   32.5180   40.9500 H   0  0  0  0  0  0  0  0  0  0  0  0
   51.3740   33.4040   42.7060 H   0  0  0  0  0  0  0  0  0  0  0  0
   50.8310   33.9850   41.0800 H   0  0  0  0  0  0  0  0  0  0  0  0
   50.1250   35.0990   43.7140 H   0  0  0  0  0  0  0  0  0  0  0  0
   49.8210   35.7830   42.0420 H   0  0  0  0  0  0  0  0  0  0  0  0
   47.7980   34.8160   43.6920 H   0  0  0  0  0  0  0  0  0  0  0  0
   47.5320   34.7040   41.5240 C   0  0  0  0  0  0  0  0  0  0  0  0
   47.8500   35.7090   41.1630 H   0  0  0  0  0  0  0  0  0  0  0  0
   47.8980   33.9940   40.7410 H   0  0  0  0  0  0  0  0  0  0  0  0
   46.1430   34.6290   41.6150 N   0  0  0  0  0  0  0  0  0  0  0  0
   45.4800   35.3650   42.5990 C   0  0  0  0  0  0  0  0  0  0  0  0
   45.9010   36.4030   42.6160 H   0  0  0  0  0  0  0  0  0  0  0  0
   43.9990   35.5030   42.4690 C   0  0  0  0  0  0  0  0  0  0  0  0
   43.4500   34.6140   42.8590 H   0  0  0  0  0  0  0  0  0  0  0  0
   43.6790   35.6040   41.1170 O   0  0  0  0  0  0  0  0  0  0  0  0
   43.9420   34.3220   40.5840 C   0  0  0  0  0  0  0  0  0  0  0  0
   45.4250   34.1280   40.4990 C   0  0  0  0  0  0  0  0  0  0  0  0
   47.3000   32.2290   42.9100 O   0  0  0  0  0  0  0  0  0  0  0  0
   46.7940   33.1360   45.2790 O   0  0  0  0  0  0  0  0  0  0  0  0
   46.6920   31.8860   44.4400 P   0  0  1  0  0  0  0  0  0  0  0  0
   45.1200   31.2970   44.3470 O   0  0  0  0  0  0  0  0  0  0  0  0
   44.4940   32.0580   44.2780 H   0  0  0  0  0  0  0  0  0  0  0  0
   47.6130   30.6610   45.1330 O   0  0  0  0  0  0  0  0  0  0  0  0
   46.7920   29.8280   45.8220 C   0  0  0  0  0  0  0  0  0  0  0  0
   45.9100   29.4360   45.3210 H   0  0  0  0  0  0  0  0  0  0  0  0
   47.4170   28.9120   46.0560 H   0  0  0  0  0  0  0  0  0  0  0  0
   47.0010   31.1630   49.2840 C   0  0  0  0  0  0  0  0  0  0  0  0
   47.3840   30.6490   48.0360 C   0  0  0  0  0  0  0  0  0  0  0  0
   46.3910   30.3660   47.1280 C   0  0  0  0  0  0  0  0  0  0  0  0
   45.0980   30.5980   47.4870 N   0  0  0  0  0  0  0  0  0  0  0  0
   44.7540   31.0910   48.6900 C   0  0  0  0  0  0  0  0  0  0  0  0
   45.7070   31.3690   49.5790 N   0  0  0  0  0  0  0  0  0  0  0  0
   47.8080   31.3780   49.9810 H   0  0  0  0  0  0  0  0  0  0  0  0
   48.4450   30.4900   47.8240 H   0  0  0  0  0  0  0  0  0  0  0  0
   43.7020   31.2410   48.8950 H   0  0  0  0  0  0  0  0  0  0  0  0
  1  6  1  1  0  0  0
  2  3  1  0  0  0  0
  2  7  1  0  0  0  0
  2  1  1  0  0  0  0
  3  4  1  0  0  0  0
  3  9  1  0  0  0  0
  4  5  1  0  0  0  0
  4 11  1  0  0  0  0
  5  1  1  0  0  0  0
  5 13  1  1  0  0  0
  8  2  1  0  0  0  0
 10  3  1  0  0  0  0
 12  4  1  0  0  0  0
 14 17  1  0  0  0  0
 14  5  1  0  0  0  0
 15 14  1  0  0  0  0
 16 14  1  0  0  0  0
 17 18  1  0  0  0  0
 18 19  1  0  0  0  0
 20 18  1  0  0  0  0
 20 21  1  0  0  0  0
 22 20  1  0  0  0  0
 23 22  1  0  0  0  0
 24 23  1  0  0  0  0
 24 17  1  0  0  0  0
 25  1  1  0  0  0  0
 25 27  1  0  0  0  0
 27 30  1  0  0  0  0
 27 26  2  1  0  0  0
 28 27  1  0  0  0  0
 29 28  1  0  0  0  0
 30 31  1  0  0  0  0
 31 33  1  0  0  0  0
 31 36  1  0  0  0  0
 32 31  1  0  0  0  0
 34 39  1  0  0  0  0
 34 40  1  0  0  0  0
 35 34  2  0  0  0  0
 36 37  2  0  0  0  0
 36 35  1  0  0  0  0
 37 38  1  0  0  0  0
 38 42  1  0  0  0  0
 38 39  2  0  0  0  0
 41 35  1  0  0  0  0
M  END
>  <minimizedAffinity>
-5.07367659

>  <minimizedRMSD>
3.24631763

$$$$
