
 OpenBabel03242510143D

 41 44  0  0  1  0  0  0  0  0999 V2000
   39.9900   29.5010   42.1180 N   0  0  0  0  0  0  0  0  0  0  0  0
   41.3650   29.3670   42.6000 C   0  0  0  0  0  0  0  0  0  0  0  0
   42.0080   30.6950   42.8790 C   0  0  0  0  0  0  0  0  0  0  0  0
   42.1370   31.4970   41.6780 N   0  0  0  0  0  0  0  0  0  0  0  0
   41.2190   30.9610   40.6650 C   0  0  0  0  0  0  0  0  0  0  0  0
   39.8800   30.7120   41.3220 C   0  0  1  0  0  0  0  0  0  0  0  0
   41.2890   28.8560   43.6050 H   0  0  0  0  0  0  0  0  0  0  0  0
   41.9780   28.7000   41.9900 H   0  0  0  0  0  0  0  0  0  0  0  0
   42.9320   30.5370   43.4310 H   0  0  0  0  0  0  0  0  0  0  0  0
   41.3030   31.2360   43.5740 H   0  0  0  0  0  0  0  0  0  0  0  0
   43.0980   31.4560   41.2790 H   0  0  0  0  0  0  0  0  0  0  0  0
   41.6600   29.9620   40.4140 H   0  0  0  0  0  0  0  0  0  0  0  0
   41.1860   31.5890   39.7750 H   0  0  0  0  0  0  0  0  0  0  0  0
   39.7260   31.5580   42.0780 H   0  0  0  0  0  0  0  0  0  0  0  0
   39.7920   27.0660   40.1530 Br  0  0  0  0  0  0  0  0  0  0  0  0
   38.6300   27.5070   41.6100 C   0  0  0  0  0  0  0  0  0  0  0  0
   37.5660   26.7000   41.8790 C   0  0  0  0  0  0  0  0  0  0  0  0
   36.6940   27.0090   42.9390 C   0  0  0  0  0  0  0  0  0  0  0  0
   36.9520   28.1400   43.6790 C   0  0  0  0  0  0  0  0  0  0  0  0
   38.0420   28.9190   43.3610 C   0  0  0  0  0  0  0  0  0  0  0  0
   38.8900   28.6390   42.3520 C   0  0  0  0  0  0  0  0  0  0  0  0
   35.8640   26.3270   43.1020 H   0  0  0  0  0  0  0  0  0  0  0  0
   36.2410   28.3130   44.4730 H   0  0  0  0  0  0  0  0  0  0  0  0
   38.0880   29.7640   44.0340 H   0  0  0  0  0  0  0  0  0  0  0  0
   36.3630   24.5210   39.2160 C   0  0  0  0  0  0  0  0  0  0  0  0
   36.9080   23.2500   39.5530 C   0  0  0  0  0  0  0  0  0  0  0  0
   37.6890   23.1840   40.7100 C   0  0  0  0  0  0  0  0  0  0  0  0
   37.8790   24.3080   41.4310 N   0  0  0  0  0  0  0  0  0  0  0  0
   37.3320   25.5190   41.0700 C   0  0  0  0  0  0  0  0  0  0  0  0
   36.5830   25.5920   39.9630 N   0  0  0  0  0  0  0  0  0  0  0  0
   35.7850   24.4570   38.3160 H   0  0  0  0  0  0  0  0  0  0  0  0
   36.7980   22.3310   39.0320 H   0  0  0  0  0  0  0  0  0  0  0  0
   38.1710   22.3110   41.1050 H   0  0  0  0  0  0  0  0  0  0  0  0
   38.7570   30.7890   40.4580 N   0  0  1  0  0  0  0  0  0  0  0  0
   38.2280   32.1700   40.5460 C   0  0  0  0  0  3  0  0  0  0  0  0
   38.0190   32.4780   41.5660 H   0  0  0  0  0  0  0  0  0  0  0  0
   36.9600   32.1730   39.7090 C   0  0  0  0  0  3  0  0  0  0  0  0
   36.6320   33.2300   39.6820 H   0  0  0  0  0  0  0  0  0  0  0  0
   37.1810   31.7870   38.4130 O   0  0  0  0  0  0  0  0  0  0  0  0
   37.8480   30.5480   38.3020 C   0  0  0  0  0  2  0  0  0  0  0  0
   39.1460   30.7230   39.0320 C   0  0  0  0  0  2  0  0  0  0  0  0
  1 21  1  0  0  0  0
  1  2  1  0  0  0  0
  2  3  1  0  0  0  0
  2  7  1  0  0  0  0
  3  9  1  0  0  0  0
  3 10  1  0  0  0  0
  4  3  1  0  0  0  0
  5  6  1  0  0  0  0
  5  4  1  0  0  0  0
  6 14  1  1  0  0  0
  6  1  1  0  0  0  0
  8  2  1  0  0  0  0
 11  4  1  0  0  0  0
 12  5  1  0  0  0  0
 13  5  1  0  0  0  0
 15 16  1  0  0  0  0
 16 17  2  0  0  0  0
 16 21  1  0  0  0  0
 17 18  1  0  0  0  0
 18 22  1  0  0  0  0
 18 19  2  0  0  0  0
 19 23  1  0  0  0  0
 20 19  1  0  0  0  0
 20 24  1  0  0  0  0
 21 20  2  0  0  0  0
 25 26  2  0  0  0  0
 25 30  1  0  0  0  0
 26 27  1  0  0  0  0
 27 33  1  0  0  0  0
 27 28  2  0  0  0  0
 29 28  1  0  0  0  0
 29 17  1  0  0  0  0
 30 29  2  0  0  0  0
 31 25  1  0  0  0  0
 32 26  1  0  0  0  0
 34 41  1  6  0  0  0
 34 35  1  0  0  0  0
 34  6  1  0  0  0  0
 35 36  1  0  0  0  0
 37 35  1  0  0  0  0
 38 37  1  0  0  0  0
 39 37  1  0  0  0  0
 40 39  1  0  0  0  0
 40 41  1  0  0  0  0
M  END
>  <minimizedAffinity>
-5.48869038

$$$$

 OpenBabel03242510143D

 41 44  0  0  1  0  0  0  0  0999 V2000
   37.4400   30.5170   38.7120 N   0  0  0  0  0  0  0  0  0  0  0  0
   36.8830   30.1590   37.4080 C   0  0  0  0  0  0  0  0  0  0  0  0
   35.6680   29.2860   37.5210 C   0  0  0  0  0  0  0  0  0  0  0  0
   35.9740   28.0060   38.1310 N   0  0  0  0  0  0  0  0  0  0  0  0
   37.2560   28.1280   38.8380 C   0  0  0  0  0  0  0  0  0  0  0  0
   37.2370   29.4130   39.6350 C   0  0  1  0  0  0  0  0  0  0  0  0
   36.5140   31.1260   36.9550 H   0  0  0  0  0  0  0  0  0  0  0  0
   37.6300   29.7850   36.7030 H   0  0  0  0  0  0  0  0  0  0  0  0
   35.1740   29.2300   36.5520 H   0  0  0  0  0  0  0  0  0  0  0  0
   34.9630   29.8320   38.2130 H   0  0  0  0  0  0  0  0  0  0  0  0
   36.0800   27.2490   37.4250 H   0  0  0  0  0  0  0  0  0  0  0  0
   38.0000   28.2580   38.0100 H   0  0  0  0  0  0  0  0  0  0  0  0
   37.4880   27.2330   39.4130 H   0  0  0  0  0  0  0  0  0  0  0  0
   36.1680   29.5380   40.0270 H   0  0  0  0  0  0  0  0  0  0  0  0
   40.5130   30.6220   38.1000 Br  0  0  0  0  0  0  0  0  0  0  0  0
   39.4190   31.9760   38.9010 C   0  0  0  0  0  0  0  0  0  0  0  0
   39.9890   33.1560   39.2720 C   0  0  0  0  0  0  0  0  0  0  0  0
   39.2080   34.1610   39.8710 C   0  0  0  0  0  0  0  0  0  0  0  0
   37.8680   33.9080   40.0640 C   0  0  0  0  0  0  0  0  0  0  0  0
   37.3480   32.6970   39.6700 C   0  0  0  0  0  0  0  0  0  0  0  0
   38.0780   31.7230   39.0940 C   0  0  0  0  0  0  0  0  0  0  0  0
   39.7210   35.0790   40.1450 H   0  0  0  0  0  0  0  0  0  0  0  0
   37.3340   34.7240   40.5290 H   0  0  0  0  0  0  0  0  0  0  0  0
   36.2920   32.6680   39.9030 H   0  0  0  0  0  0  0  0  0  0  0  0
   43.5920   33.2830   39.8160 C   0  0  0  0  0  0  0  0  0  0  0  0
   44.0950   33.8080   38.5930 C   0  0  0  0  0  0  0  0  0  0  0  0
   43.1580   34.1080   37.6000 C   0  0  0  0  0  0  0  0  0  0  0  0
   41.8520   33.8860   37.8520 N   0  0  0  0  0  0  0  0  0  0  0  0
   41.4050   33.3760   39.0500 C   0  0  0  0  0  0  0  0  0  0  0  0
   42.2950   33.0870   40.0070 N   0  0  0  0  0  0  0  0  0  0  0  0
   44.3920   33.0900   40.5020 H   0  0  0  0  0  0  0  0  0  0  0  0
   45.1050   34.0060   38.3310 H   0  0  0  0  0  0  0  0  0  0  0  0
   43.3660   34.5080   36.6260 H   0  0  0  0  0  0  0  0  0  0  0  0
   38.0510   29.4160   40.7980 N   0  0  1  0  0  0  0  0  0  0  0  0
   37.1890   29.0310   41.9400 C   0  0  0  0  0  3  0  0  0  0  0  0
   36.3000   29.6490   42.0250 H   0  0  0  0  0  0  0  0  0  0  0  0
   38.0640   29.1700   43.1740 C   0  0  0  0  0  3  0  0  0  0  0  0
   37.4560   28.7720   44.0080 H   0  0  0  0  0  0  0  0  0  0  0  0
   39.2000   28.4070   43.1050 O   0  0  0  0  0  0  0  0  0  0  0  0
   39.9540   28.6270   41.9320 C   0  0  0  0  0  2  0  0  0  0  0  0
   39.0310   28.3080   40.7940 C   0  0  0  0  0  2  0  0  0  0  0  0
  1 21  1  0  0  0  0
  1  6  1  0  0  0  0
  2  3  1  0  0  0  0
  2  1  1  0  0  0  0
  3  4  1  0  0  0  0
  3 10  1  0  0  0  0
  4  5  1  0  0  0  0
  5 13  1  0  0  0  0
  5  6  1  0  0  0  0
  6 14  1  1  0  0  0
  6 34  1  0  0  0  0
  7  2  1  0  0  0  0
  8  2  1  0  0  0  0
  9  3  1  0  0  0  0
 11  4  1  0  0  0  0
 12  5  1  0  0  0  0
 15 16  1  0  0  0  0
 16 21  2  0  0  0  0
 16 17  1  0  0  0  0
 17 18  2  0  0  0  0
 18 19  1  0  0  0  0
 18 22  1  0  0  0  0
 19 23  1  0  0  0  0
 20 24  1  0  0  0  0
 20 19  2  0  0  0  0
 21 20  1  0  0  0  0
 25 30  1  0  0  0  0
 25 31  1  0  0  0  0
 26 25  2  0  0  0  0
 27 28  2  0  0  0  0
 27 26  1  0  0  0  0
 28 29  1  0  0  0  0
 29 17  1  0  0  0  0
 29 30  2  0  0  0  0
 32 26  1  0  0  0  0
 33 27  1  0  0  0  0
 34 41  1  6  0  0  0
 34 35  1  0  0  0  0
 35 36  1  0  0  0  0
 35 37  1  0  0  0  0
 37 38  1  0  0  0  0
 39 37  1  0  0  0  0
 40 39  1  0  0  0  0
 41 40  1  0  0  0  0
M  END
>  <minimizedAffinity>
-5.46198797

$$$$

 OpenBabel03242510143D

 41 44  0  0  1  0  0  0  0  0999 V2000
   38.9790   30.8690   39.2450 N   0  0  0  0  0  0  0  0  0  0  0  0
   37.9060   31.6900   38.6830 C   0  0  0  0  0  0  0  0  0  0  0  0
   37.8720   31.6410   37.1830 C   0  0  0  0  0  0  0  0  0  0  0  0
   39.0770   32.1930   36.5950 N   0  0  0  0  0  0  0  0  0  0  0  0
   40.1220   32.2210   37.6260 C   0  0  0  0  0  0  0  0  0  0  0  0
   40.1170   30.8890   38.3420 C   0  0  1  0  0  0  0  0  0  0  0  0
   36.9420   31.2070   39.0190 H   0  0  0  0  0  0  0  0  0  0  0  0
   37.8720   32.7020   39.0920 H   0  0  0  0  0  0  0  0  0  0  0  0
   36.9410   32.0820   36.8310 H   0  0  0  0  0  0  0  0  0  0  0  0
   37.8340   30.5460   36.9130 H   0  0  0  0  0  0  0  0  0  0  0  0
   38.9410   33.1720   36.2650 H   0  0  0  0  0  0  0  0  0  0  0  0
   39.7550   32.9920   38.3510 H   0  0  0  0  0  0  0  0  0  0  0  0
   41.0860   32.5210   37.2180 H   0  0  0  0  0  0  0  0  0  0  0  0
   39.8880   30.0940   37.5490 H   0  0  0  0  0  0  0  0  0  0  0  0
   38.3380   27.8160   38.9380 Br  0  0  0  0  0  0  0  0  0  0  0  0
   38.7370   28.7850   40.5410 C   0  0  0  0  0  0  0  0  0  0  0  0
   38.7610   28.1210   41.7300 C   0  0  0  0  0  0  0  0  0  0  0  0
   39.0430   28.8130   42.9220 C   0  0  0  0  0  0  0  0  0  0  0  0
   39.2860   30.1660   42.8410 C   0  0  0  0  0  0  0  0  0  0  0  0
   39.2470   30.7840   41.6120 C   0  0  0  0  0  0  0  0  0  0  0  0
   38.9810   30.1390   40.4600 C   0  0  0  0  0  0  0  0  0  0  0  0
   39.0470   28.2270   43.8370 H   0  0  0  0  0  0  0  0  0  0  0  0
   39.4930   30.6290   43.7940 H   0  0  0  0  0  0  0  0  0  0  0  0
   39.4520   31.8390   41.7350 H   0  0  0  0  0  0  0  0  0  0  0  0
   39.2570   24.5110   41.6060 C   0  0  0  0  0  0  0  0  0  0  0  0
   37.9550   23.9870   41.8440 C   0  0  0  0  0  0  0  0  0  0  0  0
   36.9280   24.9130   42.0440 C   0  0  0  0  0  0  0  0  0  0  0  0
   37.2220   26.2290   42.0010 N   0  0  0  0  0  0  0  0  0  0  0  0
   38.4960   26.6950   41.7670 C   0  0  0  0  0  0  0  0  0  0  0  0
   39.4860   25.8150   41.5740 N   0  0  0  0  0  0  0  0  0  0  0  0
   39.9640   23.7180   41.4660 H   0  0  0  0  0  0  0  0  0  0  0  0
   37.6570   22.9690   41.8900 H   0  0  0  0  0  0  0  0  0  0  0  0
   35.8950   24.6900   42.2340 H   0  0  0  0  0  0  0  0  0  0  0  0
   41.3610   30.4950   38.9000 N   0  0  1  0  0  0  0  0  0  0  0  0
   42.1580   29.8810   37.8120 C   0  0  0  0  0  3  0  0  0  0  0  0
   41.6300   29.0780   37.3050 H   0  0  0  0  0  0  0  0  0  0  0  0
   43.4210   29.3630   38.4760 C   0  0  0  0  0  3  0  0  0  0  0  0
   44.0630   29.0110   37.6460 H   0  0  0  0  0  0  0  0  0  0  0  0
   44.1150   30.3480   39.1300 O   0  0  0  0  0  0  0  0  0  0  0  0
   43.3290   31.0720   40.0520 C   0  0  0  0  0  2  0  0  0  0  0  0
   42.2060   31.6580   39.2490 C   0  0  0  0  0  2  0  0  0  0  0  0
  1 21  1  0  0  0  0
  2  7  1  0  0  0  0
  2  8  1  0  0  0  0
  2  1  1  0  0  0  0
  3  2  1  0  0  0  0
  4  3  1  0  0  0  0
  4  5  1  0  0  0  0
  5  6  1  0  0  0  0
  5 12  1  0  0  0  0
  6 14  1  6  0  0  0
  6 34  1  0  0  0  0
  6  1  1  0  0  0  0
  9  3  1  0  0  0  0
 10  3  1  0  0  0  0
 11  4  1  0  0  0  0
 13  5  1  0  0  0  0
 15 16  1  0  0  0  0
 16 17  1  0  0  0  0
 17 29  1  0  0  0  0
 17 18  2  0  0  0  0
 18 22  1  0  0  0  0
 19 18  1  0  0  0  0
 19 23  1  0  0  0  0
 20 24  1  0  0  0  0
 20 19  2  0  0  0  0
 21 16  2  0  0  0  0
 21 20  1  0  0  0  0
 25 26  1  0  0  0  0
 26 32  1  0  0  0  0
 26 27  2  0  0  0  0
 27 33  1  0  0  0  0
 28 27  1  0  0  0  0
 29 28  2  0  0  0  0
 30 25  2  0  0  0  0
 30 29  1  0  0  0  0
 31 25  1  0  0  0  0
 34 41  1  6  0  0  0
 35 37  1  0  0  0  0
 35 34  1  0  0  0  0
 36 35  1  0  0  0  0
 37 39  1  0  0  0  0
 38 37  1  0  0  0  0
 39 40  1  0  0  0  0
 41 40  1  0  0  0  0
M  END
>  <minimizedAffinity>
-5.38462305

$$$$

 OpenBabel03242510143D

 41 44  0  0  1  0  0  0  0  0999 V2000
   37.4580   28.4550   38.4030 N   0  0  0  0  0  0  0  0  0  0  0  0
   36.9600   27.6200   37.3100 C   0  0  0  0  0  0  0  0  0  0  0  0
   37.7450   27.8020   36.0430 C   0  0  0  0  0  0  0  0  0  0  0  0
   37.6350   29.1520   35.5270 N   0  0  0  0  0  0  0  0  0  0  0  0
   37.1650   30.0230   36.6120 C   0  0  0  0  0  0  0  0  0  0  0  0
   37.9620   29.7030   37.8560 C   0  0  1  0  0  0  0  0  0  0  0  0
   37.1500   26.5520   37.6270 H   0  0  0  0  0  0  0  0  0  0  0  0
   35.8780   27.6830   37.1710 H   0  0  0  0  0  0  0  0  0  0  0  0
   37.4790   27.0150   35.3400 H   0  0  0  0  0  0  0  0  0  0  0  0
   38.8240   27.6330   36.3260 H   0  0  0  0  0  0  0  0  0  0  0  0
   36.9430   29.2220   34.7520 H   0  0  0  0  0  0  0  0  0  0  0  0
   36.1140   29.6770   36.7890 H   0  0  0  0  0  0  0  0  0  0  0  0
   37.1690   31.0730   36.3200 H   0  0  0  0  0  0  0  0  0  0  0  0
   39.0290   29.4730   37.5090 H   0  0  0  0  0  0  0  0  0  0  0  0
   40.2130   27.3930   39.4590 Br  0  0  0  0  0  0  0  0  0  0  0  0
   38.6030   27.6970   40.4510 C   0  0  0  0  0  0  0  0  0  0  0  0
   38.5890   27.4400   41.7890 C   0  0  0  0  0  0  0  0  0  0  0  0
   37.4160   27.6480   42.5370 C   0  0  0  0  0  0  0  0  0  0  0  0
   36.3010   28.1110   41.8750 C   0  0  0  0  0  0  0  0  0  0  0  0
   36.3730   28.3520   40.5220 C   0  0  0  0  0  0  0  0  0  0  0  0
   37.4870   28.1620   39.7890 C   0  0  0  0  0  0  0  0  0  0  0  0
   37.4690   27.4230   43.5990 H   0  0  0  0  0  0  0  0  0  0  0  0
   35.4400   28.2440   42.5130 H   0  0  0  0  0  0  0  0  0  0  0  0
   35.4130   28.7010   40.1680 H   0  0  0  0  0  0  0  0  0  0  0  0
   41.7200   27.3660   43.6560 C   0  0  0  0  0  0  0  0  0  0  0  0
   42.0610   25.9850   43.6800 C   0  0  0  0  0  0  0  0  0  0  0  0
   41.1840   25.1050   43.0390 C   0  0  0  0  0  0  0  0  0  0  0  0
   40.0810   25.6060   42.4440 N   0  0  0  0  0  0  0  0  0  0  0  0
   39.7870   26.9510   42.4430 C   0  0  0  0  0  0  0  0  0  0  0  0
   40.6220   27.8010   43.0540 N   0  0  0  0  0  0  0  0  0  0  0  0
   42.4570   27.9460   44.1730 H   0  0  0  0  0  0  0  0  0  0  0  0
   42.9080   25.5270   44.1270 H   0  0  0  0  0  0  0  0  0  0  0  0
   41.2900   24.0400   42.9630 H   0  0  0  0  0  0  0  0  0  0  0  0
   38.1040   30.7730   38.7770 N   0  0  1  0  0  0  0  0  0  0  0  0
   39.4510   31.3550   38.5740 C   0  0  0  0  0  3  0  0  0  0  0  0
   40.2440   30.6140   38.6360 H   0  0  0  0  0  0  0  0  0  0  0  0
   39.6080   32.4060   39.6580 C   0  0  0  0  0  3  0  0  0  0  0  0
   40.5640   32.9160   39.4330 H   0  0  0  0  0  0  0  0  0  0  0  0
   38.6240   33.3590   39.6160 O   0  0  0  0  0  0  0  0  0  0  0  0
   37.3190   32.8210   39.6290 C   0  0  0  0  0  2  0  0  0  0  0  0
   37.2420   31.9250   38.4290 C   0  0  0  0  0  2  0  0  0  0  0  0
  1 21  1  0  0  0  0
  2  7  1  0  0  0  0
  2  1  1  0  0  0  0
  3 10  1  0  0  0  0
  3  2  1  0  0  0  0
  4  3  1  0  0  0  0
  4  5  1  0  0  0  0
  5 12  1  0  0  0  0
  5  6  1  0  0  0  0
  6 14  1  6  0  0  0
  6  1  1  0  0  0  0
  6 34  1  0  0  0  0
  8  2  1  0  0  0  0
  9  3  1  0  0  0  0
 11  4  1  0  0  0  0
 13  5  1  0  0  0  0
 15 16  1  0  0  0  0
 16 17  1  0  0  0  0
 17 29  1  0  0  0  0
 17 18  2  0  0  0  0
 18 22  1  0  0  0  0
 19 23  1  0  0  0  0
 19 18  1  0  0  0  0
 20 19  2  0  0  0  0
 21 16  2  0  0  0  0
 21 20  1  0  0  0  0
 24 20  1  0  0  0  0
 25 26  1  0  0  0  0
 25 31  1  0  0  0  0
 26 32  1  0  0  0  0
 27 26  2  0  0  0  0
 28 27  1  0  0  0  0
 29 28  2  0  0  0  0
 29 30  1  0  0  0  0
 30 25  2  0  0  0  0
 33 27  1  0  0  0  0
 34 41  1  6  0  0  0
 35 36  1  0  0  0  0
 35 34  1  0  0  0  0
 35 37  1  0  0  0  0
 38 37  1  0  0  0  0
 39 40  1  0  0  0  0
 39 37  1  0  0  0  0
 41 40  1  0  0  0  0
M  END
>  <minimizedAffinity>
-5.36888885

$$$$

 OpenBabel03242510143D

 41 44  0  0  1  0  0  0  0  0999 V2000
   37.8550   25.6080   40.7930 N   0  0  0  0  0  0  0  0  0  0  0  0
   36.9160   25.0130   39.8410 C   0  0  0  0  0  0  0  0  0  0  0  0
   37.0050   23.5150   39.8070 C   0  0  0  0  0  0  0  0  0  0  0  0
   38.3020   23.0590   39.3480 N   0  0  0  0  0  0  0  0  0  0  0  0
   39.2540   24.1700   39.4790 C   0  0  0  0  0  0  0  0  0  0  0  0
   39.0620   24.8000   40.8390 C   0  0  1  0  0  0  0  0  0  0  0  0
   35.8850   25.2410   40.2430 H   0  0  0  0  0  0  0  0  0  0  0  0
   36.9430   25.4790   38.8530 H   0  0  0  0  0  0  0  0  0  0  0  0
   36.1530   23.1170   39.2580 H   0  0  0  0  0  0  0  0  0  0  0  0
   36.8860   23.1770   40.8780 H   0  0  0  0  0  0  0  0  0  0  0  0
   38.2880   22.7790   38.3450 H   0  0  0  0  0  0  0  0  0  0  0  0
   38.9010   24.9090   38.7140 H   0  0  0  0  0  0  0  0  0  0  0  0
   40.2730   23.8580   39.2550 H   0  0  0  0  0  0  0  0  0  0  0  0
   38.8260   23.9460   41.5650 H   0  0  0  0  0  0  0  0  0  0  0  0
   38.6690   28.2830   39.3740 Br  0  0  0  0  0  0  0  0  0  0  0  0
   37.9710   28.0470   41.1430 C   0  0  0  0  0  0  0  0  0  0  0  0
   37.7790   29.1390   41.9330 C   0  0  0  0  0  0  0  0  0  0  0  0
   37.2760   28.9900   43.2370 C   0  0  0  0  0  0  0  0  0  0  0  0
   36.9910   27.7170   43.6770 C   0  0  0  0  0  0  0  0  0  0  0  0
   37.2050   26.6500   42.8350 C   0  0  0  0  0  0  0  0  0  0  0  0
   37.6840   26.7720   41.5820 C   0  0  0  0  0  0  0  0  0  0  0  0
   37.1470   29.9000   43.8180 H   0  0  0  0  0  0  0  0  0  0  0  0
   36.6100   27.6810   44.6870 H   0  0  0  0  0  0  0  0  0  0  0  0
   36.9360   25.7330   43.3430 H   0  0  0  0  0  0  0  0  0  0  0  0
   39.6120   32.1970   41.1650 C   0  0  0  0  0  0  0  0  0  0  0  0
   38.6660   32.9810   40.4480 C   0  0  0  0  0  0  0  0  0  0  0  0
   37.4020   32.4210   40.2480 C   0  0  0  0  0  0  0  0  0  0  0  0
   37.1530   31.1880   40.7370 N   0  0  0  0  0  0  0  0  0  0  0  0
   38.0970   30.4610   41.4260 C   0  0  0  0  0  0  0  0  0  0  0  0
   39.3100   30.9910   41.6240 N   0  0  0  0  0  0  0  0  0  0  0  0
   40.5420   32.7200   41.2610 H   0  0  0  0  0  0  0  0  0  0  0  0
   38.7970   33.9520   40.0390 H   0  0  0  0  0  0  0  0  0  0  0  0
   36.5770   32.8740   39.7310 H   0  0  0  0  0  0  0  0  0  0  0  0
   40.2110   25.4310   41.3830 N   0  0  1  0  0  0  0  0  0  0  0  0
   40.5620   24.7090   42.6280 C   0  0  0  0  0  3  0  0  0  0  0  0
   39.7300   24.6370   43.3230 H   0  0  0  0  0  0  0  0  0  0  0  0
   41.7130   25.4890   43.2400 C   0  0  0  0  0  3  0  0  0  0  0  0
   42.0470   24.8840   44.1040 H   0  0  0  0  0  0  0  0  0  0  0  0
   42.7830   25.6040   42.3910 O   0  0  0  0  0  0  0  0  0  0  0  0
   42.4430   26.1280   41.1260 C   0  0  0  0  0  2  0  0  0  0  0  0
   41.4190   25.1880   40.5630 C   0  0  0  0  0  2  0  0  0  0  0  0
  1  6  1  0  0  0  0
  1 21  1  0  0  0  0
  2  7  1  0  0  0  0
  2  1  1  0  0  0  0
  3  2  1  0  0  0  0
  3 10  1  0  0  0  0
  4  5  1  0  0  0  0
  4  3  1  0  0  0  0
  5  6  1  0  0  0  0
  6 34  1  0  0  0  0
  6 14  1  1  0  0  0
  8  2  1  0  0  0  0
  9  3  1  0  0  0  0
 11  4  1  0  0  0  0
 12  5  1  0  0  0  0
 13  5  1  0  0  0  0
 15 16  1  0  0  0  0
 16 21  2  0  0  0  0
 16 17  1  0  0  0  0
 17 18  2  0  0  0  0
 18 19  1  0  0  0  0
 18 22  1  0  0  0  0
 19 23  1  0  0  0  0
 20 24  1  0  0  0  0
 20 19  2  0  0  0  0
 21 20  1  0  0  0  0
 25 31  1  0  0  0  0
 25 30  1  0  0  0  0
 26 25  2  0  0  0  0
 27 26  1  0  0  0  0
 27 28  2  0  0  0  0
 28 29  1  0  0  0  0
 29 30  2  0  0  0  0
 29 17  1  0  0  0  0
 32 26  1  0  0  0  0
 33 27  1  0  0  0  0
 34 41  1  6  0  0  0
 34 35  1  0  0  0  0
 35 37  1  0  0  0  0
 35 36  1  0  0  0  0
 37 38  1  0  0  0  0
 39 37  1  0  0  0  0
 40 39  1  0  0  0  0
 41 40  1  0  0  0  0
M  END
>  <minimizedAffinity>
-5.36866951

$$$$

 OpenBabel03242510143D

 41 44  0  0  1  0  0  0  0  0999 V2000
   37.8790   29.6000   39.3350 N   0  0  0  0  0  0  0  0  0  0  0  0
   37.0590   28.9790   38.2950 C   0  0  0  0  0  0  0  0  0  0  0  0
   37.6330   29.1690   36.9210 C   0  0  0  0  0  0  0  0  0  0  0  0
   37.6770   30.5680   36.5410 N   0  0  0  0  0  0  0  0  0  0  0  0
   37.5640   31.3800   37.7590 C   0  0  0  0  0  0  0  0  0  0  0  0
   38.4940   30.8040   38.8020 C   0  0  1  0  0  0  0  0  0  0  0  0
   37.1090   27.8670   38.4870 H   0  0  0  0  0  0  0  0  0  0  0  0
   35.9980   29.2300   38.3680 H   0  0  0  0  0  0  0  0  0  0  0  0
   37.1140   28.5160   36.2220 H   0  0  0  0  0  0  0  0  0  0  0  0
   38.6980   28.8000   36.9810 H   0  0  0  0  0  0  0  0  0  0  0  0
   36.8860   30.8310   35.9180 H   0  0  0  0  0  0  0  0  0  0  0  0
   36.5150   31.1900   38.1040 H   0  0  0  0  0  0  0  0  0  0  0  0
   37.7030   32.4410   37.5530 H   0  0  0  0  0  0  0  0  0  0  0  0
   39.4270   30.4440   38.2430 H   0  0  0  0  0  0  0  0  0  0  0  0
   40.4800   27.8970   39.7420 Br  0  0  0  0  0  0  0  0  0  0  0  0
   39.1830   28.4090   41.0570 C   0  0  0  0  0  0  0  0  0  0  0  0
   39.3560   28.0160   42.3490 C   0  0  0  0  0  0  0  0  0  0  0  0
   38.4130   28.3720   43.3300 C   0  0  0  0  0  0  0  0  0  0  0  0
   37.3250   29.1190   42.9380 C   0  0  0  0  0  0  0  0  0  0  0  0
   37.2010   29.4870   41.6180 C   0  0  0  0  0  0  0  0  0  0  0  0
   38.0940   29.1580   40.6640 C   0  0  0  0  0  0  0  0  0  0  0  0
   38.6070   28.0260   44.3420 H   0  0  0  0  0  0  0  0  0  0  0  0
   36.6450   29.3520   43.7430 H   0  0  0  0  0  0  0  0  0  0  0  0
   36.2920   30.0580   41.4880 H   0  0  0  0  0  0  0  0  0  0  0  0
   41.5510   25.1620   42.9290 C   0  0  0  0  0  0  0  0  0  0  0  0
   42.7470   25.7560   43.4190 C   0  0  0  0  0  0  0  0  0  0  0  0
   42.7600   27.1490   43.5370 C   0  0  0  0  0  0  0  0  0  0  0  0
   41.6570   27.8400   43.1850 N   0  0  0  0  0  0  0  0  0  0  0  0
   40.5170   27.2270   42.7140 C   0  0  0  0  0  0  0  0  0  0  0  0
   40.4960   25.8930   42.5990 N   0  0  0  0  0  0  0  0  0  0  0  0
   41.6500   24.0960   42.8800 H   0  0  0  0  0  0  0  0  0  0  0  0
   43.6460   25.2730   43.7130 H   0  0  0  0  0  0  0  0  0  0  0  0
   43.5750   27.7520   43.8870 H   0  0  0  0  0  0  0  0  0  0  0  0
   38.9810   31.7310   39.7600 N   0  0  1  0  0  0  0  0  0  0  0  0
   40.4130   31.9630   39.4610 C   0  0  0  0  0  3  0  0  0  0  0  0
   40.9880   31.0430   39.4090 H   0  0  0  0  0  0  0  0  0  0  0  0
   40.9220   32.8570   40.5780 C   0  0  0  0  0  3  0  0  0  0  0  0
   41.9570   33.1220   40.2900 H   0  0  0  0  0  0  0  0  0  0  0  0
   40.2190   34.0290   40.6780 O   0  0  0  0  0  0  0  0  0  0  0  0
   38.8240   33.8420   40.7860 C   0  0  0  0  0  2  0  0  0  0  0  0
   38.4230   33.0860   39.5550 C   0  0  0  0  0  2  0  0  0  0  0  0
  1 21  1  0  0  0  0
  2  8  1  0  0  0  0
  2  7  1  0  0  0  0
  2  1  1  0  0  0  0
  3 10  1  0  0  0  0
  3  2  1  0  0  0  0
  4  3  1  0  0  0  0
  4  5  1  0  0  0  0
  5 12  1  0  0  0  0
  5  6  1  0  0  0  0
  6 14  1  6  0  0  0
  6  1  1  0  0  0  0
  6 34  1  0  0  0  0
  9  3  1  0  0  0  0
 11  4  1  0  0  0  0
 13  5  1  0  0  0  0
 15 16  1  0  0  0  0
 16 17  1  0  0  0  0
 17 29  1  0  0  0  0
 17 18  2  0  0  0  0
 18 22  1  0  0  0  0
 19 18  1  0  0  0  0
 19 23  1  0  0  0  0
 20 19  2  0  0  0  0
 21 16  2  0  0  0  0
 21 20  1  0  0  0  0
 24 20  1  0  0  0  0
 25 26  1  0  0  0  0
 26 27  2  0  0  0  0
 26 32  1  0  0  0  0
 27 33  1  0  0  0  0
 28 27  1  0  0  0  0
 29 28  2  0  0  0  0
 30 29  1  0  0  0  0
 30 25  2  0  0  0  0
 31 25  1  0  0  0  0
 34 41  1  6  0  0  0
 35 34  1  0  0  0  0
 35 37  1  0  0  0  0
 36 35  1  0  0  0  0
 37 39  1  0  0  0  0
 38 37  1  0  0  0  0
 39 40  1  0  0  0  0
 41 40  1  0  0  0  0
M  END
>  <minimizedAffinity>
-5.31367445

$$$$

 OpenBabel03242510143D

 41 44  0  0  1  0  0  0  0  0999 V2000
   38.3600   28.0050   42.0950 N   0  0  0  0  0  0  0  0  0  0  0  0
   38.6040   27.6870   43.5020 C   0  0  0  0  0  0  0  0  0  0  0  0
   39.6790   26.6550   43.6800 C   0  0  0  0  0  0  0  0  0  0  0  0
   39.3090   25.3810   43.0950 N   0  0  0  0  0  0  0  0  0  0  0  0
   38.2130   25.6110   42.1440 C   0  0  0  0  0  0  0  0  0  0  0  0
   38.5680   26.8100   41.2940 C   0  0  1  0  0  0  0  0  0  0  0  0
   39.0190   28.6320   43.9630 H   0  0  0  0  0  0  0  0  0  0  0  0
   37.6930   27.4770   44.0660 H   0  0  0  0  0  0  0  0  0  0  0  0
   39.9690   26.6150   44.7280 H   0  0  0  0  0  0  0  0  0  0  0  0
   40.5730   27.0420   43.1100 H   0  0  0  0  0  0  0  0  0  0  0  0
   38.9620   24.7060   43.8080 H   0  0  0  0  0  0  0  0  0  0  0  0
   37.3550   25.9080   42.8000 H   0  0  0  0  0  0  0  0  0  0  0  0
   37.9640   24.7090   41.5860 H   0  0  0  0  0  0  0  0  0  0  0  0
   39.6980   26.7600   41.1140 H   0  0  0  0  0  0  0  0  0  0  0  0
   40.7590   29.7680   41.1130 Br  0  0  0  0  0  0  0  0  0  0  0  0
   38.8870   30.1630   41.0250 C   0  0  0  0  0  0  0  0  0  0  0  0
   38.4830   31.3430   40.4760 C   0  0  0  0  0  0  0  0  0  0  0  0
   37.1140   31.6590   40.4090 C   0  0  0  0  0  0  0  0  0  0  0  0
   36.2150   30.7460   40.9120 C   0  0  0  0  0  0  0  0  0  0  0  0
   36.6810   29.5710   41.4550 C   0  0  0  0  0  0  0  0  0  0  0  0
   37.9870   29.2490   41.5270 C   0  0  0  0  0  0  0  0  0  0  0  0
   36.8560   32.6150   39.9610 H   0  0  0  0  0  0  0  0  0  0  0  0
   35.1840   31.0580   40.8260 H   0  0  0  0  0  0  0  0  0  0  0  0
   35.8450   28.9810   41.8050 H   0  0  0  0  0  0  0  0  0  0  0  0
   40.7850   34.1610   40.2500 C   0  0  0  0  0  0  0  0  0  0  0  0
   41.3440   34.0310   38.9470 C   0  0  0  0  0  0  0  0  0  0  0  0
   40.9010   32.9550   38.1740 C   0  0  0  0  0  0  0  0  0  0  0  0
   39.9840   32.1140   38.6950 N   0  0  0  0  0  0  0  0  0  0  0  0
   39.4670   32.2750   39.9610 C   0  0  0  0  0  0  0  0  0  0  0  0
   39.8850   33.3030   40.7090 N   0  0  0  0  0  0  0  0  0  0  0  0
   41.1920   35.0150   40.7520 H   0  0  0  0  0  0  0  0  0  0  0  0
   42.0640   34.6540   38.4780 H   0  0  0  0  0  0  0  0  0  0  0  0
   41.2170   32.7120   37.1770 H   0  0  0  0  0  0  0  0  0  0  0  0
   37.9950   26.8240   39.9960 N   0  0  1  0  0  0  0  0  0  0  0  0
   38.8470   25.9770   39.1290 C   0  0  0  0  0  3  0  0  0  0  0  0
   39.8930   26.2690   39.1510 H   0  0  0  0  0  0  0  0  0  0  0  0
   38.2740   26.1210   37.7300 C   0  0  0  0  0  3  0  0  0  0  0  0
   38.8380   25.3990   37.1090 H   0  0  0  0  0  0  0  0  0  0  0  0
   36.9520   25.7640   37.6610 O   0  0  0  0  0  0  0  0  0  0  0  0
   36.1400   26.4320   38.6040 C   0  0  0  0  0  2  0  0  0  0  0  0
   36.7140   26.0860   39.9450 C   0  0  0  0  0  2  0  0  0  0  0  0
  1  2  1  0  0  0  0
  2  3  1  0  0  0  0
  2  7  1  0  0  0  0
  2  8  1  0  0  0  0
  3  9  1  0  0  0  0
  4  3  1  0  0  0  0
  4 11  1  0  0  0  0
  5 12  1  0  0  0  0
  5  4  1  0  0  0  0
  6 14  1  6  0  0  0
  6  1  1  0  0  0  0
  6  5  1  0  0  0  0
 10  3  1  0  0  0  0
 13  5  1  0  0  0  0
 16 15  1  0  0  0  0
 16 21  1  0  0  0  0
 17 16  2  0  0  0  0
 18 17  1  0  0  0  0
 18 19  2  0  0  0  0
 19 20  1  0  0  0  0
 20 21  2  0  0  0  0
 20 24  1  0  0  0  0
 21  1  1  0  0  0  0
 22 18  1  0  0  0  0
 23 19  1  0  0  0  0
 25 30  1  0  0  0  0
 25 31  1  0  0  0  0
 26 25  2  0  0  0  0
 27 28  2  0  0  0  0
 27 26  1  0  0  0  0
 28 29  1  0  0  0  0
 29 17  1  0  0  0  0
 29 30  2  0  0  0  0
 32 26  1  0  0  0  0
 33 27  1  0  0  0  0
 34 41  1  1  0  0  0
 34  6  1  0  0  0  0
 35 36  1  0  0  0  0
 35 34  1  0  0  0  0
 37 35  1  0  0  0  0
 38 37  1  0  0  0  0
 39 37  1  0  0  0  0
 39 40  1  0  0  0  0
 40 41  1  0  0  0  0
M  END
>  <minimizedAffinity>
-5.30463934

$$$$

 OpenBabel03242510143D

 41 44  0  0  1  0  0  0  0  0999 V2000
   37.8320   30.3750   40.6230 N   0  0  0  0  0  0  0  0  0  0  0  0
   36.7610   31.2130   40.0820 C   0  0  0  0  0  0  0  0  0  0  0  0
   37.0990   31.7770   38.7330 C   0  0  0  0  0  0  0  0  0  0  0  0
   38.2430   32.6670   38.7880 N   0  0  0  0  0  0  0  0  0  0  0  0
   38.9740   32.4010   40.0340 C   0  0  0  0  0  0  0  0  0  0  0  0
   39.1140   30.9040   40.1910 C   0  0  1  0  0  0  0  0  0  0  0  0
   35.8870   30.5190   39.9050 H   0  0  0  0  0  0  0  0  0  0  0  0
   36.3900   31.9570   40.7910 H   0  0  0  0  0  0  0  0  0  0  0  0
   36.2030   32.2040   38.2880 H   0  0  0  0  0  0  0  0  0  0  0  0
   37.3880   30.8920   38.0950 H   0  0  0  0  0  0  0  0  0  0  0  0
   37.9620   33.6690   38.8020 H   0  0  0  0  0  0  0  0  0  0  0  0
   38.2710   32.7570   40.8310 H   0  0  0  0  0  0  0  0  0  0  0  0
   39.9080   32.9590   40.0840 H   0  0  0  0  0  0  0  0  0  0  0  0
   39.2770   30.4800   39.1390 H   0  0  0  0  0  0  0  0  0  0  0  0
   37.9390   27.6610   39.0580 Br  0  0  0  0  0  0  0  0  0  0  0  0
   37.7530   27.9320   40.9450 C   0  0  0  0  0  0  0  0  0  0  0  0
   37.6510   26.8480   41.7650 C   0  0  0  0  0  0  0  0  0  0  0  0
   37.5050   27.0220   43.1530 C   0  0  0  0  0  0  0  0  0  0  0  0
   37.4680   28.3080   43.6420 C   0  0  0  0  0  0  0  0  0  0  0  0
   37.5740   29.3650   42.7670 C   0  0  0  0  0  0  0  0  0  0  0  0
   37.7170   29.2190   41.4350 C   0  0  0  0  0  0  0  0  0  0  0  0
   37.4280   26.1190   43.7520 H   0  0  0  0  0  0  0  0  0  0  0  0
   37.3530   28.3630   44.7140 H   0  0  0  0  0  0  0  0  0  0  0  0
   37.5190   30.2940   43.3170 H   0  0  0  0  0  0  0  0  0  0  0  0
   38.9070   23.6350   40.5840 C   0  0  0  0  0  0  0  0  0  0  0  0
   37.7360   22.9660   40.1300 C   0  0  0  0  0  0  0  0  0  0  0  0
   36.5270   23.6570   40.2470 C   0  0  0  0  0  0  0  0  0  0  0  0
   36.5370   24.8990   40.7750 N   0  0  0  0  0  0  0  0  0  0  0  0
   37.6930   25.5110   41.2030 C   0  0  0  0  0  0  0  0  0  0  0  0
   38.8560   24.8570   41.0940 N   0  0  0  0  0  0  0  0  0  0  0  0
   39.7720   23.0180   40.4480 H   0  0  0  0  0  0  0  0  0  0  0  0
   37.6590   21.9950   39.7060 H   0  0  0  0  0  0  0  0  0  0  0  0
   35.5580   23.3020   39.9550 H   0  0  0  0  0  0  0  0  0  0  0  0
   40.2460   30.4750   40.9330 N   0  0  1  0  0  0  0  0  0  0  0  0
   41.3970   30.4430   40.0020 C   0  0  0  0  0  3  0  0  0  0  0  0
   41.2050   29.8490   39.1120 H   0  0  0  0  0  0  0  0  0  0  0  0
   42.5500   29.8610   40.8010 C   0  0  0  0  0  3  0  0  0  0  0  0
   43.4340   29.9470   40.1410 H   0  0  0  0  0  0  0  0  0  0  0  0
   42.8240   30.5820   41.9340 O   0  0  0  0  0  0  0  0  0  0  0  0
   41.6960   30.7820   42.7590 C   0  0  0  0  0  2  0  0  0  0  0  0
   40.6930   31.4980   41.9040 C   0  0  0  0  0  2  0  0  0  0  0  0
  1 21  1  0  0  0  0
  2  1  1  0  0  0  0
  2  8  1  0  0  0  0
  3  4  1  0  0  0  0
  3  2  1  0  0  0  0
  4 11  1  0  0  0  0
  4  5  1  0  0  0  0
  5 13  1  0  0  0  0
  5  6  1  0  0  0  0
  5 12  1  0  0  0  0
  6 14  1  6  0  0  0
  6  1  1  0  0  0  0
  6 34  1  0  0  0  0
  7  2  1  0  0  0  0
  9  3  1  0  0  0  0
 10  3  1  0  0  0  0
 15 16  1  0  0  0  0
 16 21  2  0  0  0  0
 16 17  1  0  0  0  0
 17 18  2  0  0  0  0
 18 19  1  0  0  0  0
 18 22  1  0  0  0  0
 19 23  1  0  0  0  0
 20 24  1  0  0  0  0
 20 19  2  0  0  0  0
 21 20  1  0  0  0  0
 25 30  1  0  0  0  0
 26 27  1  0  0  0  0
 26 25  2  0  0  0  0
 27 28  2  0  0  0  0
 28 29  1  0  0  0  0
 29 17  1  0  0  0  0
 30 29  2  0  0  0  0
 31 25  1  0  0  0  0
 32 26  1  0  0  0  0
 33 27  1  0  0  0  0
 34 41  1  1  0  0  0
 35 37  1  0  0  0  0
 35 34  1  0  0  0  0
 36 35  1  0  0  0  0
 37 39  1  0  0  0  0
 38 37  1  0  0  0  0
 39 40  1  0  0  0  0
 41 40  1  0  0  0  0
M  END
>  <minimizedAffinity>
-5.30364561

$$$$

 OpenBabel03242510143D

 41 44  0  0  1  0  0  0  0  0999 V2000
   38.0470   30.9320   40.5660 N   0  0  0  0  0  0  0  0  0  0  0  0
   38.2990   32.3730   40.5890 C   0  0  0  0  0  0  0  0  0  0  0  0
   39.7600   32.7020   40.4900 C   0  0  0  0  0  0  0  0  0  0  0  0
   40.5080   32.2000   41.6270 N   0  0  0  0  0  0  0  0  0  0  0  0
   39.7010   31.1650   42.2870 C   0  0  0  0  0  0  0  0  0  0  0  0
   39.1460   30.2450   41.2230 C   0  0  1  0  0  0  0  0  0  0  0  0
   37.8370   32.7810   39.6420 H   0  0  0  0  0  0  0  0  0  0  0  0
   37.7840   32.8920   41.4010 H   0  0  0  0  0  0  0  0  0  0  0  0
   39.8760   33.7660   40.2950 H   0  0  0  0  0  0  0  0  0  0  0  0
   40.1340   32.1610   39.5730 H   0  0  0  0  0  0  0  0  0  0  0  0
   40.6970   32.9420   42.3320 H   0  0  0  0  0  0  0  0  0  0  0  0
   38.8400   31.7390   42.7170 H   0  0  0  0  0  0  0  0  0  0  0  0
   40.2530   30.6680   43.0840 H   0  0  0  0  0  0  0  0  0  0  0  0
   39.9610   30.1430   40.4240 H   0  0  0  0  0  0  0  0  0  0  0  0
   38.3990   30.1140   37.5600 Br  0  0  0  0  0  0  0  0  0  0  0  0
   36.9010   29.7860   38.7080 C   0  0  0  0  0  0  0  0  0  0  0  0
   35.8210   29.1160   38.2160 C   0  0  0  0  0  0  0  0  0  0  0  0
   34.7060   28.8710   39.0370 C   0  0  0  0  0  0  0  0  0  0  0  0
   34.7470   29.3280   40.3340 C   0  0  0  0  0  0  0  0  0  0  0  0
   35.8630   30.0000   40.7770 C   0  0  0  0  0  0  0  0  0  0  0  0
   36.9420   30.2430   40.0070 C   0  0  0  0  0  0  0  0  0  0  0  0
   33.8760   28.3330   38.5850 H   0  0  0  0  0  0  0  0  0  0  0  0
   33.8560   29.1040   40.9030 H   0  0  0  0  0  0  0  0  0  0  0  0
   35.7220   30.2910   41.8090 H   0  0  0  0  0  0  0  0  0  0  0  0
   35.3650   29.0350   34.5990 C   0  0  0  0  0  0  0  0  0  0  0  0
   35.8400   27.7440   34.2320 C   0  0  0  0  0  0  0  0  0  0  0  0
   36.3120   26.9270   35.2630 C   0  0  0  0  0  0  0  0  0  0  0  0
   36.2910   27.3990   36.5270 N   0  0  0  0  0  0  0  0  0  0  0  0
   35.8230   28.6550   36.8400 C   0  0  0  0  0  0  0  0  0  0  0  0
   35.3680   29.4440   35.8590 N   0  0  0  0  0  0  0  0  0  0  0  0
   35.0290   29.5730   33.7360 H   0  0  0  0  0  0  0  0  0  0  0  0
   35.8840   27.3140   33.2620 H   0  0  0  0  0  0  0  0  0  0  0  0
   36.7030   25.9330   35.1620 H   0  0  0  0  0  0  0  0  0  0  0  0
   38.8860   28.9160   41.6460 N   0  0  1  0  0  0  0  0  0  0  0  0
   40.1630   28.1710   41.5710 C   0  0  0  0  0  3  0  0  0  0  0  0
   40.6340   28.2360   40.5940 H   0  0  0  0  0  0  0  0  0  0  0  0
   39.8160   26.7320   41.9090 C   0  0  0  0  0  3  0  0  0  0  0  0
   40.7860   26.2030   41.9660 H   0  0  0  0  0  0  0  0  0  0  0  0
   39.2170   26.6070   43.1360 O   0  0  0  0  0  0  0  0  0  0  0  0
   38.0920   27.4430   43.3000 C   0  0  0  0  0  2  0  0  0  0  0  0
   38.5960   28.8410   43.0960 C   0  0  0  0  0  2  0  0  0  0  0  0
  1  2  1  0  0  0  0
  1  6  1  0  0  0  0
  2  8  1  0  0  0  0
  3  2  1  0  0  0  0
  3  4  1  0  0  0  0
  4  5  1  0  0  0  0
  4 11  1  0  0  0  0
  5 12  1  0  0  0  0
  5 13  1  0  0  0  0
  6 14  1  6  0  0  0
  6 34  1  0  0  0  0
  6  5  1  0  0  0  0
  7  2  1  0  0  0  0
  9  3  1  0  0  0  0
 10  3  1  0  0  0  0
 15 16  1  0  0  0  0
 16 21  1  0  0  0  0
 17 16  2  0  0  0  0
 17 18  1  0  0  0  0
 18 19  2  0  0  0  0
 19 20  1  0  0  0  0
 19 23  1  0  0  0  0
 20 24  1  0  0  0  0
 21  1  1  0  0  0  0
 21 20  2  0  0  0  0
 22 18  1  0  0  0  0
 25 30  1  0  0  0  0
 26 25  2  0  0  0  0
 26 27  1  0  0  0  0
 27 28  2  0  0  0  0
 28 29  1  0  0  0  0
 29 17  1  0  0  0  0
 30 29  2  0  0  0  0
 31 25  1  0  0  0  0
 32 26  1  0  0  0  0
 33 27  1  0  0  0  0
 34 41  1  1  0  0  0
 35 34  1  0  0  0  0
 35 37  1  0  0  0  0
 36 35  1  0  0  0  0
 37 38  1  0  0  0  0
 37 39  1  0  0  0  0
 39 40  1  0  0  0  0
 41 40  1  0  0  0  0
M  END
>  <minimizedAffinity>
-5.26316404

$$$$
