
 OpenBabel03242523543D

 44 47  0  0  1  0  0  0  0  0999 V2000
   42.8610   34.3740   38.9560 C   0  0  1  0  0  0  0  0  0  0  0  0
   43.0820   35.1970   40.2160 C   0  0  1  0  0  0  0  0  0  0  0  0
   41.8290   35.6330   40.6860 O   0  0  0  0  0  0  0  0  0  0  0  0
   40.9520   35.9490   39.6460 C   0  0  0  0  0  0  0  0  0  0  0  0
   40.5050   34.7150   38.8880 C   0  0  2  0  0  0  0  0  0  0  0  0
   41.5910   33.6150   39.1650 C   0  0  1  0  0  0  0  0  0  0  0  0
   43.7280   33.6870   38.8370 H   0  0  0  0  0  0  0  0  0  0  0  0
   43.7720   36.0290   40.0770 H   0  0  0  0  0  0  0  0  0  0  0  0
   41.3510   36.7350   38.9840 H   0  0  0  0  0  0  0  0  0  0  0  0
   40.0630   36.3810   40.1350 H   0  0  0  0  0  0  0  0  0  0  0  0
   39.5180   34.3590   39.2240 H   0  0  0  0  0  0  0  0  0  0  0  0
   41.3510   33.5070   40.2710 H   0  0  0  0  0  0  0  0  0  0  0  0
   42.7610   35.2090   37.8330 O   0  0  0  0  0  0  0  0  0  0  0  0
   43.6430   35.6650   37.7270 H   0  0  0  0  0  0  0  0  0  0  0  0
   40.5680   34.9560   37.5240 O   0  0  0  0  0  0  0  0  0  0  0  0
   40.0730   35.7930   37.3030 H   0  0  0  0  0  0  0  0  0  0  0  0
   43.4950   34.2730   41.1880 O   0  0  0  0  0  0  0  0  0  0  0  0
   44.6350   34.3420   41.8860 C   0  0  0  0  0  0  0  0  0  0  0  0
   45.8700   34.4910   41.2380 C   0  0  0  0  0  0  0  0  0  0  0  0
   47.0200   34.5580   42.0030 C   0  0  0  0  0  0  0  0  0  0  0  0
   46.9230   34.4770   43.3770 N   0  0  0  0  0  0  0  0  0  0  0  0
   45.7100   34.3330   43.9720 C   0  0  0  0  0  0  0  0  0  0  0  0
   44.5770   34.2660   43.2290 N   0  0  0  0  0  0  0  0  0  0  0  0
   45.9420   34.5540   40.1500 H   0  0  0  0  0  0  0  0  0  0  0  0
   45.6130   34.2680   45.0490 H   0  0  0  0  0  0  0  0  0  0  0  0
   48.3750   34.7000   41.3740 C   0  0  0  0  0  0  0  0  0  0  0  0
   49.0720   36.0460   41.5510 C   0  0  0  0  0  0  0  0  0  0  0  0
   49.5550   34.7250   42.1820 C   0  0  0  0  0  0  0  0  0  0  0  0
   48.3690   34.3850   40.2970 H   0  0  0  0  0  0  0  0  0  0  0  0
   48.5330   36.7510   42.2110 H   0  0  0  0  0  0  0  0  0  0  0  0
   49.6900   36.4480   40.7260 H   0  0  0  0  0  0  0  0  0  0  0  0
   50.5290   34.3660   41.7970 H   0  0  0  0  0  0  0  0  0  0  0  0
   49.4830   34.6510   43.2820 H   0  0  0  0  0  0  0  0  0  0  0  0
   41.3490   32.5890   38.3290 O   0  0  0  0  0  0  0  0  0  0  0  0
   40.3820   31.6510   38.3870 C   0  0  0  0  0  0  0  0  0  0  0  0
   40.2800   30.7090   37.4830 O   0  0  0  0  0  0  0  0  0  0  0  0
   39.2570   31.2030   39.1570 N   0  0  0  0  0  0  0  0  0  0  0  0
   39.0070   29.7750   39.0920 C   0  0  0  0  0  0  0  0  0  0  0  0
   39.0880   29.4560   38.0110 H   0  0  0  0  0  0  0  0  0  0  0  0
   37.5590   29.4970   39.4450 C   0  0  0  0  0  0  0  0  0  0  0  0
   36.9080   29.8630   38.6000 H   0  0  0  0  0  0  0  0  0  0  0  0
   37.1720   29.9740   40.6710 O   0  0  0  0  0  0  0  0  0  0  0  0
   37.9200   31.0510   41.1210 C   0  0  0  0  0  0  0  0  0  0  0  0
   38.3420   31.9380   39.9780 C   0  0  0  0  0  0  0  0  0  0  0  0
  1  7  1  6  0  0  0
  1  6  1  0  0  0  0
  1  2  1  0  0  0  0
  2  8  1  6  0  0  0
  2  3  1  0  0  0  0
  2 17  1  0  0  0  0
  4 10  1  0  0  0  0
  4  3  1  0  0  0  0
  5  6  1  0  0  0  0
  5 11  1  1  0  0  0
  5  4  1  0  0  0  0
  6 12  1  1  0  0  0
  9  4  1  0  0  0  0
 13  1  1  0  0  0  0
 14 13  1  0  0  0  0
 15  5  1  0  0  0  0
 16 15  1  0  0  0  0
 17 18  1  0  0  0  0
 18 23  1  0  0  0  0
 19 18  2  0  0  0  0
 19 20  1  0  0  0  0
 20 21  2  0  0  0  0
 21 22  1  0  0  0  0
 22 25  1  0  0  0  0
 23 22  2  0  0  0  0
 24 19  1  0  0  0  0
 26 27  1  0  0  0  0
 26 20  1  0  0  0  0
 26 28  1  0  0  0  0
 27 28  1  0  0  0  0
 27 30  1  0  0  0  0
 28 33  1  0  0  0  0
 29 26  1  0  0  0  0
 31 27  1  0  0  0  0
 32 28  1  0  0  0  0
 34 35  1  0  0  0  0
 34  6  1  0  0  0  0
 35 37  1  0  0  0  0
 36 35  2  0  0  0  0
 37 44  1  0  0  0  0
 38 37  1  0  0  0  0
 38 40  1  0  0  0  0
 39 38  1  0  0  0  0
 40 42  1  0  0  0  0
 41 40  1  0  0  0  0
 42 43  1  0  0  0  0
 44 43  1  0  0  0  0
M  END
>  <minimizedAffinity>
-6.53818035

>  <minimizedRMSD>
1.96540117

$$$$
