
 OpenBabel03252508523D

 42 45  0  0  1  0  0  0  0  0999 V2000
   43.3020   34.4070   40.7670 C   0  0  0  0  0  0  0  0  0  0  0  0
   43.2300   35.6290   40.3870 O   0  0  0  0  0  0  0  0  0  0  0  0
   41.9410   33.9940   40.4740 N   0  0  0  0  0  0  0  0  0  0  0  0
   41.5530   34.0980   39.0890 C   0  0  0  0  0  0  0  0  0  0  0  0
   40.7370   35.4000   39.0070 C   0  0  0  0  0  0  0  0  0  0  0  0
   39.9540   35.4990   40.3110 C   0  0  0  0  0  0  0  0  0  0  0  0
   39.6300   34.1220   40.8900 C   0  0  0  0  0  0  0  0  0  0  0  0
   40.9280   33.4940   41.3790 C   0  0  1  0  0  0  0  0  0  0  0  0
   42.3980   34.2070   38.3870 H   0  0  0  0  0  0  0  0  0  0  0  0
   40.8710   33.2800   38.7600 H   0  0  0  0  0  0  0  0  0  0  0  0
   41.4110   36.2830   38.9290 H   0  0  0  0  0  0  0  0  0  0  0  0
   40.0690   35.4040   38.1280 H   0  0  0  0  0  0  0  0  0  0  0  0
   38.9570   35.9580   40.0760 H   0  0  0  0  0  0  0  0  0  0  0  0
   40.5120   36.0670   41.0690 H   0  0  0  0  0  0  0  0  0  0  0  0
   39.1620   33.5160   40.0800 H   0  0  0  0  0  0  0  0  0  0  0  0
   38.9160   34.3110   41.7040 H   0  0  0  0  0  0  0  0  0  0  0  0
   41.1220   33.8050   42.4280 H   0  0  0  0  0  0  0  0  0  0  0  0
   40.7580   32.0830   41.3390 N   0  0  2  0  0  0  0  0  0  0  0  0
   41.8860   31.4710   42.0100 C   0  0  0  0  0  3  0  0  0  0  0  0
   41.6120   31.0890   43.0200 H   0  0  0  0  0  0  0  0  0  0  0  0
   42.5350   30.4000   41.1650 C   0  0  0  0  0  3  0  0  0  0  0  0
   43.2770   29.8820   41.8090 H   0  0  0  0  0  0  0  0  0  0  0  0
   41.6300   29.4500   40.7150 O   0  0  0  0  0  0  0  0  0  0  0  0
   40.4700   30.0020   40.2140 C   0  0  0  0  0  2  0  0  0  0  0  0
   40.6210   31.5090   40.0370 C   0  0  0  0  0  2  0  0  0  0  0  0
   44.3800   33.7600   41.2830 O   0  0  0  0  0  0  0  0  0  0  0  0
   45.7090   34.0950   41.1260 C   0  0  0  0  0  0  0  0  0  0  0  0
   46.3470   34.7260   42.1900 C   0  0  0  0  0  0  0  0  0  0  0  0
   47.7050   35.0530   41.9930 C   0  0  0  0  0  0  0  0  0  0  0  0
   48.2890   34.7410   40.8020 N   0  0  0  0  0  0  0  0  0  0  0  0
   47.6250   34.1380   39.8240 C   0  0  0  0  0  0  0  0  0  0  0  0
   46.3350   33.8110   39.9720 N   0  0  0  0  0  0  0  0  0  0  0  0
   48.1950   35.5390   42.8170 H   0  0  0  0  0  0  0  0  0  0  0  0
   48.1470   33.9150   38.8950 H   0  0  0  0  0  0  0  0  0  0  0  0
   45.6300   35.0110   43.4120 C   0  0  0  0  0  0  0  0  0  0  0  0
   44.9980   36.2370   43.6350 C   0  0  0  0  0  0  0  0  0  0  0  0
   44.4490   36.0950   44.8850 C   0  0  0  0  0  0  0  0  0  0  0  0
   44.7270   34.8650   45.3910 N   0  0  0  0  0  0  0  0  0  0  0  0
   45.4390   34.2450   44.4700 N   0  0  0  0  0  0  0  0  0  0  0  0
   44.9460   37.1050   42.9840 H   0  0  0  0  0  0  0  0  0  0  0  0
   43.8710   36.8410   45.4180 H   0  0  0  0  0  0  0  0  0  0  0  0
   44.4110   34.5170   46.3400 H   0  0  0  0  0  0  0  0  0  0  0  0
  1 26  1  0  0  0  0
  2  1  2  0  0  0  0
  3  1  1  0  0  0  0
  3  8  1  0  0  0  0
  4  3  1  0  0  0  0
  5  4  1  0  0  0  0
  5  6  1  0  0  0  0
  6  7  1  0  0  0  0
  6 14  1  0  0  0  0
  7  8  1  0  0  0  0
  7 16  1  0  0  0  0
  8 17  1  1  0  0  0
  9  4  1  0  0  0  0
 10  4  1  0  0  0  0
 11  5  1  0  0  0  0
 12  5  1  0  0  0  0
 13  6  1  0  0  0  0
 15  7  1  0  0  0  0
 18 25  1  6  0  0  0
 18  8  1  0  0  0  0
 18 19  1  0  0  0  0
 19 20  1  0  0  0  0
 21 22  1  0  0  0  0
 21 19  1  0  0  0  0
 23 21  1  0  0  0  0
 24 23  1  0  0  0  0
 25 24  1  0  0  0  0
 27 26  1  0  0  0  0
 27 28  1  0  0  0  0
 28 35  1  0  0  0  0
 29 28  2  0  0  0  0
 29 33  1  0  0  0  0
 30 29  1  0  0  0  0
 31 32  1  0  0  0  0
 31 30  2  0  0  0  0
 32 27  2  0  0  0  0
 34 31  1  0  0  0  0
 35 36  1  0  0  0  0
 35 39  2  0  0  0  0
 36 37  2  0  0  0  0
 37 38  1  0  0  0  0
 37 41  1  0  0  0  0
 38 42  1  0  0  0  0
 39 38  1  0  0  0  0
 40 36  1  0  0  0  0
M  END
>  <minimizedAffinity>
-6.50661659

>  <minimizedRMSD>
0.347096175

$$$$
