
 OpenBabel03252509343D

 42 44  0  0  1  0  0  0  0  0999 V2000
   37.2610   28.2040   41.9260 C   0  0  1  0  0  0  0  0  0  0  0  0
   37.3930   28.0490   43.4300 C   0  0  0  0  0  0  0  0  0  0  0  0
   38.8630   27.7280   43.5700 C   0  0  0  0  0  0  0  0  0  0  0  0
   39.2680   27.0650   42.2820 C   0  0  0  0  0  0  0  0  0  0  0  0
   37.9950   26.9620   41.4590 C   0  0  1  0  0  0  0  0  0  0  0  0
   37.8180   29.1060   41.6510 H   0  0  0  0  0  0  0  0  0  0  0  0
   37.2520   29.0790   43.8470 H   0  0  0  0  0  0  0  0  0  0  0  0
   36.7260   27.3160   43.8740 H   0  0  0  0  0  0  0  0  0  0  0  0
   39.4750   28.6060   43.8320 H   0  0  0  0  0  0  0  0  0  0  0  0
   38.9420   26.9710   44.3950 H   0  0  0  0  0  0  0  0  0  0  0  0
   40.0060   27.7000   41.7470 H   0  0  0  0  0  0  0  0  0  0  0  0
   39.6920   26.0420   42.4580 H   0  0  0  0  0  0  0  0  0  0  0  0
   38.1900   27.1260   40.3800 H   0  0  0  0  0  0  0  0  0  0  0  0
   37.2350   25.7010   41.7360 C   0  0  0  0  0  0  0  0  0  0  0  0
   37.6230   25.2860   42.6950 H   0  0  0  0  0  0  0  0  0  0  0  0
   36.1760   25.9860   41.9590 H   0  0  0  0  0  0  0  0  0  0  0  0
   37.2600   24.7320   40.7340 N   0  0  0  0  0  0  0  0  0  0  0  0
   37.8030   23.4750   41.0100 C   0  0  0  0  0  3  0  0  0  0  0  0
   37.4120   23.1240   41.9990 H   0  0  0  0  0  0  0  0  0  0  0  0
   37.5330   22.3830   40.0290 C   0  0  0  0  0  3  0  0  0  0  0  0
   38.2220   22.4140   39.1530 H   0  0  0  0  0  0  0  0  0  0  0  0
   36.2440   22.5470   39.5250 O   0  0  0  0  0  0  0  0  0  0  0  0
   36.3130   23.7070   38.7210 C   0  0  0  0  0  2  0  0  0  0  0  0
   36.4110   24.9080   39.6110 C   0  0  0  0  0  2  0  0  0  0  0  0
   35.9390   28.2250   41.5120 O   0  0  0  0  0  0  0  0  0  0  0  0
   34.4620   29.2920   39.6770 O   0  0  0  0  0  0  0  0  0  0  0  0
   35.6940   29.5520   40.5090 P   0  0  1  0  0  0  0  0  0  0  0  0
   35.5830   30.9710   41.4010 O   0  0  0  0  0  0  0  0  0  0  0  0
   34.6600   31.0680   41.7400 H   0  0  0  0  0  0  0  0  0  0  0  0
   37.0300   29.7310   39.5030 O   0  0  0  0  0  0  0  0  0  0  0  0
   36.8720   30.8540   38.7560 C   0  0  0  0  0  0  0  0  0  0  0  0
   36.8600   30.7610   37.6730 H   0  0  0  0  0  0  0  0  0  0  0  0
   35.8440   31.2510   39.0200 H   0  0  0  0  0  0  0  0  0  0  0  0
   40.0080   32.8240   39.0730 C   0  0  0  0  0  0  0  0  0  0  0  0
   39.1150   31.8010   38.7210 C   0  0  0  0  0  0  0  0  0  0  0  0
   37.8060   31.9260   39.1250 C   0  0  0  0  0  0  0  0  0  0  0  0
   37.4500   33.0280   39.8400 N   0  0  0  0  0  0  0  0  0  0  0  0
   38.3230   33.9970   40.1660 C   0  0  0  0  0  0  0  0  0  0  0  0
   39.5950   33.8880   39.7810 N   0  0  0  0  0  0  0  0  0  0  0  0
   41.0360   32.6980   38.7400 H   0  0  0  0  0  0  0  0  0  0  0  0
   39.4800   30.9460   38.1460 H   0  0  0  0  0  0  0  0  0  0  0  0
   37.9570   34.8380   40.7400 H   0  0  0  0  0  0  0  0  0  0  0  0
  1  6  1  6  0  0  0
  1  2  1  0  0  0  0
  2  3  1  0  0  0  0
  2  7  1  0  0  0  0
  2  8  1  0  0  0  0
  3  9  1  0  0  0  0
  3 10  1  0  0  0  0
  4 12  1  0  0  0  0
  4  3  1  0  0  0  0
  5 13  1  6  0  0  0
  5 14  1  0  0  0  0
  5  1  1  0  0  0  0
  5  4  1  0  0  0  0
 11  4  1  0  0  0  0
 14 16  1  0  0  0  0
 14 15  1  0  0  0  0
 17 18  1  0  0  0  0
 17 14  1  0  0  0  0
 18 19  1  0  0  0  0
 20 18  1  0  0  0  0
 21 20  1  0  0  0  0
 22 20  1  0  0  0  0
 23 22  1  0  0  0  0
 23 24  1  0  0  0  0
 24 17  1  0  0  0  0
 25  1  1  0  0  0  0
 27 26  2  6  0  0  0
 27 28  1  0  0  0  0
 27 25  1  0  0  0  0
 28 29  1  0  0  0  0
 30 27  1  0  0  0  0
 31 33  1  0  0  0  0
 31 36  1  0  0  0  0
 31 30  1  0  0  0  0
 32 31  1  0  0  0  0
 34 39  1  0  0  0  0
 35 34  2  0  0  0  0
 35 36  1  0  0  0  0
 36 37  2  0  0  0  0
 37 38  1  0  0  0  0
 38 42  1  0  0  0  0
 39 38  2  0  0  0  0
 40 34  1  0  0  0  0
 41 35  1  0  0  0  0
M  END
>  <minimizedAffinity>
-5.45805168

$$$$

 OpenBabel03252509343D

 42 44  0  0  1  0  0  0  0  0999 V2000
   36.1640   30.0730   38.5120 C   0  0  1  0  0  0  0  0  0  0  0  0
   36.3320   29.5610   37.0930 C   0  0  0  0  0  0  0  0  0  0  0  0
   34.9540   29.0110   36.8080 C   0  0  0  0  0  0  0  0  0  0  0  0
   34.3840   28.6080   38.1400 C   0  0  0  0  0  0  0  0  0  0  0  0
   35.4840   28.8790   39.1530 C   0  0  1  0  0  0  0  0  0  0  0  0
   35.4780   30.9250   38.4620 H   0  0  0  0  0  0  0  0  0  0  0  0
   36.4440   30.4790   36.4590 H   0  0  0  0  0  0  0  0  0  0  0  0
   37.1410   28.8500   36.9570 H   0  0  0  0  0  0  0  0  0  0  0  0
   34.3170   29.7090   36.2430 H   0  0  0  0  0  0  0  0  0  0  0  0
   35.1070   28.0820   36.1970 H   0  0  0  0  0  0  0  0  0  0  0  0
   33.4990   29.2360   38.3780 H   0  0  0  0  0  0  0  0  0  0  0  0
   34.1060   27.5220   38.1610 H   0  0  0  0  0  0  0  0  0  0  0  0
   35.0760   29.2550   40.1120 H   0  0  0  0  0  0  0  0  0  0  0  0
   36.4060   27.7090   39.3230 C   0  0  0  0  0  0  0  0  0  0  0  0
   36.0660   26.9160   38.6170 H   0  0  0  0  0  0  0  0  0  0  0  0
   37.4130   28.0130   38.9410 H   0  0  0  0  0  0  0  0  0  0  0  0
   36.5260   27.2000   40.6150 N   0  0  0  0  0  0  0  0  0  0  0  0
   37.0880   25.9350   40.8040 C   0  0  0  0  0  3  0  0  0  0  0  0
   38.0100   25.8540   40.1740 H   0  0  0  0  0  0  0  0  0  0  0  0
   37.4810   25.5610   42.1940 C   0  0  0  0  0  3  0  0  0  0  0  0
   36.6190   25.1960   42.8000 H   0  0  0  0  0  0  0  0  0  0  0  0
   37.9640   26.6980   42.8400 O   0  0  0  0  0  0  0  0  0  0  0  0
   36.8300   27.5210   43.0250 C   0  0  0  0  0  2  0  0  0  0  0  0
   36.4360   28.1060   41.7020 C   0  0  0  0  0  2  0  0  0  0  0  0
   37.3760   30.3760   39.1100 O   0  0  0  0  0  0  0  0  0  0  0  0
   37.0010   32.9350   39.0820 O   0  0  0  0  0  0  0  0  0  0  0  0
   37.2070   31.7760   40.0260 P   0  0  1  0  0  0  0  0  0  0  0  0
   35.9590   31.6210   41.1410 O   0  0  0  0  0  0  0  0  0  0  0  0
   35.1010   31.8210   40.6940 H   0  0  0  0  0  0  0  0  0  0  0  0
   38.6110   32.0160   40.9210 O   0  0  0  0  0  0  0  0  0  0  0  0
   39.6260   31.3220   40.3440 C   0  0  0  0  0  0  0  0  0  0  0  0
   40.3220   30.7890   40.9870 H   0  0  0  0  0  0  0  0  0  0  0  0
   39.1270   30.5110   39.7300 H   0  0  0  0  0  0  0  0  0  0  0  0
   41.5280   34.1400   38.8440 C   0  0  0  0  0  0  0  0  0  0  0  0
   40.7950   33.3770   39.7650 C   0  0  0  0  0  0  0  0  0  0  0  0
   40.3940   32.1200   39.3790 C   0  0  0  0  0  0  0  0  0  0  0  0
   40.7270   31.6860   38.1330 N   0  0  0  0  0  0  0  0  0  0  0  0
   41.4310   32.4340   37.2660 C   0  0  0  0  0  0  0  0  0  0  0  0
   41.8260   33.6560   37.6270 N   0  0  0  0  0  0  0  0  0  0  0  0
   41.8320   35.1300   39.1770 H   0  0  0  0  0  0  0  0  0  0  0  0
   40.5660   33.7980   40.7480 H   0  0  0  0  0  0  0  0  0  0  0  0
   41.6500   32.0140   36.2930 H   0  0  0  0  0  0  0  0  0  0  0  0
  1  6  1  1  0  0  0
  1 25  1  0  0  0  0
  1  5  1  0  0  0  0
  2  1  1  0  0  0  0
  3  2  1  0  0  0  0
  3  4  1  0  0  0  0
  4 12  1  0  0  0  0
  4 11  1  0  0  0  0
  4  5  1  0  0  0  0
  5 14  1  0  0  0  0
  5 13  1  1  0  0  0
  7  2  1  0  0  0  0
  8  2  1  0  0  0  0
  9  3  1  0  0  0  0
 10  3  1  0  0  0  0
 14 17  1  0  0  0  0
 15 14  1  0  0  0  0
 16 14  1  0  0  0  0
 17 18  1  0  0  0  0
 17 24  1  0  0  0  0
 18 20  1  0  0  0  0
 19 18  1  0  0  0  0
 20 21  1  0  0  0  0
 20 22  1  0  0  0  0
 22 23  1  0  0  0  0
 24 23  1  0  0  0  0
 25 27  1  0  0  0  0
 27 26  2  6  0  0  0
 27 30  1  0  0  0  0
 27 28  1  0  0  0  0
 29 28  1  0  0  0  0
 31 30  1  0  0  0  0
 31 32  1  0  0  0  0
 33 31  1  0  0  0  0
 34 40  1  0  0  0  0
 34 35  1  0  0  0  0
 35 41  1  0  0  0  0
 36 35  2  0  0  0  0
 36 31  1  0  0  0  0
 37 36  1  0  0  0  0
 38 39  1  0  0  0  0
 38 37  2  0  0  0  0
 39 34  2  0  0  0  0
 42 38  1  0  0  0  0
M  END
>  <minimizedAffinity>
-5.24049187

$$$$

 OpenBabel03252509343D

 42 44  0  0  1  0  0  0  0  0999 V2000
   36.5510   29.2960   40.3710 C   0  0  1  0  0  0  0  0  0  0  0  0
   35.0610   29.3230   40.0860 C   0  0  0  0  0  0  0  0  0  0  0  0
   35.0200   28.8290   38.6580 C   0  0  0  0  0  0  0  0  0  0  0  0
   36.3390   29.2160   38.0470 C   0  0  0  0  0  0  0  0  0  0  0  0
   37.0790   29.9860   39.1280 C   0  0  1  0  0  0  0  0  0  0  0  0
   36.8530   28.2430   40.3830 H   0  0  0  0  0  0  0  0  0  0  0  0
   34.6240   28.5060   40.7160 H   0  0  0  0  0  0  0  0  0  0  0  0
   34.5830   30.2850   40.2460 H   0  0  0  0  0  0  0  0  0  0  0  0
   34.7890   27.7550   38.5780 H   0  0  0  0  0  0  0  0  0  0  0  0
   34.2110   29.4140   38.1460 H   0  0  0  0  0  0  0  0  0  0  0  0
   36.9140   28.3040   37.7820 H   0  0  0  0  0  0  0  0  0  0  0  0
   36.2020   29.8660   37.1430 H   0  0  0  0  0  0  0  0  0  0  0  0
   38.1660   29.7710   39.1130 H   0  0  0  0  0  0  0  0  0  0  0  0
   36.7670   31.4520   39.1020 C   0  0  0  0  0  0  0  0  0  0  0  0
   36.1730   31.6460   38.1790 H   0  0  0  0  0  0  0  0  0  0  0  0
   36.0580   31.6620   39.9420 H   0  0  0  0  0  0  0  0  0  0  0  0
   37.8570   32.3170   39.1780 N   0  0  0  0  0  0  0  0  0  0  0  0
   37.7820   33.4420   40.0030 C   0  0  0  0  0  3  0  0  0  0  0  0
   37.3500   33.1360   40.9890 H   0  0  0  0  0  0  0  0  0  0  0  0
   39.0570   34.1610   40.2960 C   0  0  0  0  0  3  0  0  0  0  0  0
   39.3510   34.8610   39.4790 H   0  0  0  0  0  0  0  0  0  0  0  0
   40.0820   33.2230   40.4010 O   0  0  0  0  0  0  0  0  0  0  0  0
   40.2680   32.7380   39.0870 C   0  0  0  0  0  2  0  0  0  0  0  0
   39.1180   31.8450   38.7330 C   0  0  0  0  0  2  0  0  0  0  0  0
   36.8780   29.9760   41.5330 O   0  0  0  0  0  0  0  0  0  0  0  0
   38.7500   29.6650   43.2910 O   0  0  0  0  0  0  0  0  0  0  0  0
   37.6360   28.9190   42.5980 P   0  0  1  0  0  0  0  0  0  0  0  0
   36.5320   28.2570   43.6800 O   0  0  0  0  0  0  0  0  0  0  0  0
   36.3900   28.8910   44.4240 H   0  0  0  0  0  0  0  0  0  0  0  0
   38.2740   27.6280   41.7280 O   0  0  0  0  0  0  0  0  0  0  0  0
   37.9810   26.4720   42.3760 C   0  0  0  0  0  0  0  0  0  0  0  0
   38.6890   26.0930   43.1090 H   0  0  0  0  0  0  0  0  0  0  0  0
   37.0420   26.6870   42.9720 H   0  0  0  0  0  0  0  0  0  0  0  0
   36.5030   24.6450   39.4960 C   0  0  0  0  0  0  0  0  0  0  0  0
   36.8510   25.6890   40.3660 C   0  0  0  0  0  0  0  0  0  0  0  0
   37.6170   25.3780   41.4650 C   0  0  0  0  0  0  0  0  0  0  0  0
   37.9950   24.0830   41.6470 N   0  0  0  0  0  0  0  0  0  0  0  0
   37.6500   23.0980   40.7990 C   0  0  0  0  0  0  0  0  0  0  0  0
   36.9060   23.3860   39.7310 N   0  0  0  0  0  0  0  0  0  0  0  0
   35.8960   24.9210   38.6360 H   0  0  0  0  0  0  0  0  0  0  0  0
   36.5060   26.7040   40.1500 H   0  0  0  0  0  0  0  0  0  0  0  0
   37.9890   22.0950   41.0210 H   0  0  0  0  0  0  0  0  0  0  0  0
  1  6  1  1  0  0  0
  1 25  1  0  0  0  0
  2  8  1  0  0  0  0
  2  1  1  0  0  0  0
  2  7  1  0  0  0  0
  3  2  1  0  0  0  0
  4  3  1  0  0  0  0
  4  5  1  0  0  0  0
  5 13  1  6  0  0  0
  5  1  1  0  0  0  0
  9  3  1  0  0  0  0
 10  3  1  0  0  0  0
 11  4  1  0  0  0  0
 12  4  1  0  0  0  0
 14  5  1  0  0  0  0
 14 17  1  0  0  0  0
 14 16  1  0  0  0  0
 15 14  1  0  0  0  0
 17 18  1  0  0  0  0
 18 20  1  0  0  0  0
 18 19  1  0  0  0  0
 20 22  1  0  0  0  0
 21 20  1  0  0  0  0
 23 22  1  0  0  0  0
 24 23  1  0  0  0  0
 24 17  1  0  0  0  0
 25 27  1  0  0  0  0
 27 26  2  1  0  0  0
 27 28  1  0  0  0  0
 28 29  1  0  0  0  0
 30 31  1  0  0  0  0
 30 27  1  0  0  0  0
 31 33  1  0  0  0  0
 31 32  1  0  0  0  0
 34 39  2  0  0  0  0
 34 35  1  0  0  0  0
 35 36  2  0  0  0  0
 36 37  1  0  0  0  0
 36 31  1  0  0  0  0
 38 42  1  0  0  0  0
 38 37  2  0  0  0  0
 39 38  1  0  0  0  0
 40 34  1  0  0  0  0
 41 35  1  0  0  0  0
M  END
>  <minimizedAffinity>
-5.12704992

$$$$

 OpenBabel03252509343D

 42 44  0  0  1  0  0  0  0  0999 V2000
   37.8020   30.3970   39.2440 C   0  0  1  0  0  0  0  0  0  0  0  0
   39.1830   30.3500   38.6160 C   0  0  0  0  0  0  0  0  0  0  0  0
   39.1590   31.5830   37.7440 C   0  0  0  0  0  0  0  0  0  0  0  0
   37.7150   31.8110   37.3880 C   0  0  0  0  0  0  0  0  0  0  0  0
   36.9530   30.6550   38.0140 C   0  0  1  0  0  0  0  0  0  0  0  0
   37.7870   31.2660   39.9110 H   0  0  0  0  0  0  0  0  0  0  0  0
   39.8960   30.5680   39.4530 H   0  0  0  0  0  0  0  0  0  0  0  0
   39.4150   29.4280   38.0910 H   0  0  0  0  0  0  0  0  0  0  0  0
   39.6450   32.4540   38.2110 H   0  0  0  0  0  0  0  0  0  0  0  0
   39.7140   31.3160   36.8060 H   0  0  0  0  0  0  0  0  0  0  0  0
   37.3640   32.7680   37.8280 H   0  0  0  0  0  0  0  0  0  0  0  0
   37.5580   31.8130   36.2770 H   0  0  0  0  0  0  0  0  0  0  0  0
   35.9670   30.9770   38.4020 H   0  0  0  0  0  0  0  0  0  0  0  0
   36.8710   29.4650   37.1060 C   0  0  0  0  0  0  0  0  0  0  0  0
   37.4630   29.7060   36.1930 H   0  0  0  0  0  0  0  0  0  0  0  0
   37.4320   28.6280   37.5940 H   0  0  0  0  0  0  0  0  0  0  0  0
   35.5890   29.0360   36.7650 N   0  0  0  0  0  0  0  0  0  0  0  0
   34.6070   28.9540   37.7550 C   0  0  0  0  0  3  0  0  0  0  0  0
   34.6460   29.8850   38.3770 H   0  0  0  0  0  0  0  0  0  0  0  0
   33.1930   28.7960   37.3040 C   0  0  0  0  0  3  0  0  0  0  0  0
   32.9380   27.7390   37.0580 H   0  0  0  0  0  0  0  0  0  0  0  0
   33.0150   29.5300   36.1330 O   0  0  0  0  0  0  0  0  0  0  0  0
   33.7560   28.8340   35.1520 C   0  0  0  0  0  2  0  0  0  0  0  0
   35.2170   29.0630   35.3970 C   0  0  0  0  0  2  0  0  0  0  0  0
   37.4700   29.2110   39.8770 O   0  0  0  0  0  0  0  0  0  0  0  0
   38.0100   29.9360   42.3010 O   0  0  0  0  0  0  0  0  0  0  0  0
   36.8570   29.5520   41.4060 P   0  0  1  0  0  0  0  0  0  0  0  0
   35.6730   30.7420   41.3300 O   0  0  0  0  0  0  0  0  0  0  0  0
   36.1080   31.6290   41.3170 H   0  0  0  0  0  0  0  0  0  0  0  0
   36.1040   28.1750   42.0120 O   0  0  0  0  0  0  0  0  0  0  0  0
   36.8890   27.6310   42.9760 C   0  0  0  0  0  0  0  0  0  0  0  0
   37.5740   28.2800   43.5160 H   0  0  0  0  0  0  0  0  0  0  0  0
   36.1760   27.2470   43.7680 H   0  0  0  0  0  0  0  0  0  0  0  0
   37.6130   24.1740   41.8170 C   0  0  0  0  0  0  0  0  0  0  0  0
   36.9080   25.3050   42.2560 C   0  0  0  0  0  0  0  0  0  0  0  0
   37.6280   26.4470   42.5160 C   0  0  0  0  0  0  0  0  0  0  0  0
   38.9770   26.4200   42.3340 N   0  0  0  0  0  0  0  0  0  0  0  0
   39.6330   25.3240   41.9130 C   0  0  0  0  0  0  0  0  0  0  0  0
   38.9460   24.2100   41.6570 N   0  0  0  0  0  0  0  0  0  0  0  0
   37.0170   23.2860   41.6190 H   0  0  0  0  0  0  0  0  0  0  0  0
   35.8230   25.2460   42.3780 H   0  0  0  0  0  0  0  0  0  0  0  0
   40.7060   25.3870   41.7990 H   0  0  0  0  0  0  0  0  0  0  0  0
  1 25  1  0  0  0  0
  1  6  1  1  0  0  0
  2  1  1  0  0  0  0
  2  7  1  0  0  0  0
  3  9  1  0  0  0  0
  3  2  1  0  0  0  0
  4  3  1  0  0  0  0
  4 11  1  0  0  0  0
  4  5  1  0  0  0  0
  5 13  1  1  0  0  0
  5  1  1  0  0  0  0
  8  2  1  0  0  0  0
 10  3  1  0  0  0  0
 12  4  1  0  0  0  0
 14 16  1  0  0  0  0
 14  5  1  0  0  0  0
 15 14  1  0  0  0  0
 17 14  1  0  0  0  0
 17 18  1  0  0  0  0
 18 19  1  0  0  0  0
 20 18  1  0  0  0  0
 21 20  1  0  0  0  0
 22 20  1  0  0  0  0
 23 24  1  0  0  0  0
 23 22  1  0  0  0  0
 24 17  1  0  0  0  0
 25 27  1  0  0  0  0
 27 30  1  0  0  0  0
 27 26  2  1  0  0  0
 28 27  1  0  0  0  0
 29 28  1  0  0  0  0
 30 31  1  0  0  0  0
 31 32  1  0  0  0  0
 31 33  1  0  0  0  0
 34 35  1  0  0  0  0
 35 41  1  0  0  0  0
 35 36  2  0  0  0  0
 36 31  1  0  0  0  0
 37 36  1  0  0  0  0
 38 37  2  0  0  0  0
 39 34  2  0  0  0  0
 39 38  1  0  0  0  0
 40 34  1  0  0  0  0
 42 38  1  0  0  0  0
M  END
>  <minimizedAffinity>
-5.07566977

$$$$

 OpenBabel03252509343D

 42 44  0  0  1  0  0  0  0  0999 V2000
   37.4070   28.9170   41.7440 C   0  0  1  0  0  0  0  0  0  0  0  0
   36.4100   27.7840   41.9030 C   0  0  0  0  0  0  0  0  0  0  0  0
   36.6140   27.4050   43.3510 C   0  0  0  0  0  0  0  0  0  0  0  0
   38.0360   27.7710   43.6800 C   0  0  0  0  0  0  0  0  0  0  0  0
   38.6320   28.2920   42.3830 C   0  0  1  0  0  0  0  0  0  0  0  0
   37.0390   29.7500   42.3530 H   0  0  0  0  0  0  0  0  0  0  0  0
   35.4000   28.2670   41.8410 H   0  0  0  0  0  0  0  0  0  0  0  0
   36.5320   26.9660   41.1990 H   0  0  0  0  0  0  0  0  0  0  0  0
   35.8700   27.8560   44.0260 H   0  0  0  0  0  0  0  0  0  0  0  0
   36.5190   26.2880   43.4000 H   0  0  0  0  0  0  0  0  0  0  0  0
   38.0510   28.5770   44.4440 H   0  0  0  0  0  0  0  0  0  0  0  0
   38.6200   26.8840   44.0380 H   0  0  0  0  0  0  0  0  0  0  0  0
   39.3300   29.1340   42.5610 H   0  0  0  0  0  0  0  0  0  0  0  0
   39.2280   27.1990   41.5470 C   0  0  0  0  0  0  0  0  0  0  0  0
   38.6690   26.2640   41.7810 H   0  0  0  0  0  0  0  0  0  0  0  0
   38.9790   27.4170   40.4780 H   0  0  0  0  0  0  0  0  0  0  0  0
   40.6010   26.9990   41.6790 N   0  0  0  0  0  0  0  0  0  0  0  0
   41.4180   28.0720   42.0420 C   0  0  0  0  0  3  0  0  0  0  0  0
   40.9350   28.6200   42.8910 H   0  0  0  0  0  0  0  0  0  0  0  0
   42.8120   27.7560   42.4710 C   0  0  0  0  0  3  0  0  0  0  0  0
   43.5030   27.6080   41.6080 H   0  0  0  0  0  0  0  0  0  0  0  0
   42.7980   26.5540   43.1770 O   0  0  0  0  0  0  0  0  0  0  0  0
   42.5160   25.5660   42.2070 C   0  0  0  0  0  2  0  0  0  0  0  0
   41.0730   25.6690   41.8170 C   0  0  0  0  0  2  0  0  0  0  0  0
   37.6150   29.2550   40.4170 O   0  0  0  0  0  0  0  0  0  0  0  0
   35.5030   29.7230   39.0000 O   0  0  0  0  0  0  0  0  0  0  0  0
   36.4680   30.3910   39.9480 P   0  0  1  0  0  0  0  0  0  0  0  0
   35.7020   31.0620   41.2840 O   0  0  0  0  0  0  0  0  0  0  0  0
   34.9740   30.4610   41.5740 H   0  0  0  0  0  0  0  0  0  0  0  0
   37.2460   31.6600   39.1640 O   0  0  0  0  0  0  0  0  0  0  0  0
   38.3670   31.1860   38.5620 C   0  0  0  0  0  0  0  0  0  0  0  0
   38.7070   30.1840   38.8120 H   0  0  0  0  0  0  0  0  0  0  0  0
   38.1190   31.1360   37.4570 H   0  0  0  0  0  0  0  0  0  0  0  0
   40.7840   33.6450   39.9490 C   0  0  0  0  0  0  0  0  0  0  0  0
   39.6960   32.7640   39.8540 C   0  0  0  0  0  0  0  0  0  0  0  0
   39.5060   32.1080   38.6610 C   0  0  0  0  0  0  0  0  0  0  0  0
   40.3780   32.3460   37.6430 N   0  0  0  0  0  0  0  0  0  0  0  0
   41.4150   33.1950   37.7560 C   0  0  0  0  0  0  0  0  0  0  0  0
   41.6100   33.8380   38.9080 N   0  0  0  0  0  0  0  0  0  0  0  0
   40.9090   34.1500   40.9050 H   0  0  0  0  0  0  0  0  0  0  0  0
   39.0400   32.6280   40.7180 H   0  0  0  0  0  0  0  0  0  0  0  0
   42.0570   33.3300   36.8960 H   0  0  0  0  0  0  0  0  0  0  0  0
  1  2  1  0  0  0  0
  1  6  1  1  0  0  0
  1  5  1  0  0  0  0
  2  3  1  0  0  0  0
  3 10  1  0  0  0  0
  3  4  1  0  0  0  0
  3  9  1  0  0  0  0
  4 12  1  0  0  0  0
  4 11  1  0  0  0  0
  5 13  1  1  0  0  0
  5  4  1  0  0  0  0
  7  2  1  0  0  0  0
  8  2  1  0  0  0  0
 14 17  1  0  0  0  0
 14 15  1  0  0  0  0
 14  5  1  0  0  0  0
 16 14  1  0  0  0  0
 17 24  1  0  0  0  0
 17 18  1  0  0  0  0
 18 20  1  0  0  0  0
 18 19  1  0  0  0  0
 20 22  1  0  0  0  0
 21 20  1  0  0  0  0
 23 22  1  0  0  0  0
 24 23  1  0  0  0  0
 25  1  1  0  0  0  0
 27 26  2  6  0  0  0
 27 25  1  0  0  0  0
 27 28  1  0  0  0  0
 28 29  1  0  0  0  0
 30 27  1  0  0  0  0
 31 36  1  0  0  0  0
 31 32  1  0  0  0  0
 31 30  1  0  0  0  0
 33 31  1  0  0  0  0
 34 40  1  0  0  0  0
 35 34  1  0  0  0  0
 35 41  1  0  0  0  0
 36 35  2  0  0  0  0
 37 38  2  0  0  0  0
 37 36  1  0  0  0  0
 38 39  1  0  0  0  0
 39 34  2  0  0  0  0
 42 38  1  0  0  0  0
M  END
>  <minimizedAffinity>
-5.02664328

$$$$

 OpenBabel03252509343D

 42 44  0  0  1  0  0  0  0  0999 V2000
   36.3140   29.4810   38.8780 C   0  0  1  0  0  0  0  0  0  0  0  0
   36.6200   29.5480   37.3940 C   0  0  0  0  0  0  0  0  0  0  0  0
   35.2900   29.1550   36.7950 C   0  0  0  0  0  0  0  0  0  0  0  0
   34.6180   28.2770   37.8150 C   0  0  0  0  0  0  0  0  0  0  0  0
   35.6170   28.1360   38.9510 C   0  0  1  0  0  0  0  0  0  0  0  0
   35.6080   30.2910   39.0930 H   0  0  0  0  0  0  0  0  0  0  0  0
   36.7590   30.6370   37.1690 H   0  0  0  0  0  0  0  0  0  0  0  0
   37.4600   28.9380   37.0720 H   0  0  0  0  0  0  0  0  0  0  0  0
   34.6830   30.0190   36.4810 H   0  0  0  0  0  0  0  0  0  0  0  0
   35.5240   28.5280   35.8930 H   0  0  0  0  0  0  0  0  0  0  0  0
   33.6970   28.7720   38.1910 H   0  0  0  0  0  0  0  0  0  0  0  0
   34.3730   27.2660   37.3960 H   0  0  0  0  0  0  0  0  0  0  0  0
   35.1150   28.1200   39.9390 H   0  0  0  0  0  0  0  0  0  0  0  0
   36.5560   26.9850   38.7480 C   0  0  0  0  0  0  0  0  0  0  0  0
   36.4480   26.6550   37.6890 H   0  0  0  0  0  0  0  0  0  0  0  0
   37.5990   27.3840   38.8150 H   0  0  0  0  0  0  0  0  0  0  0  0
   36.4080   25.9060   39.6180 N   0  0  0  0  0  0  0  0  0  0  0  0
   36.0980   24.6460   39.1010 C   0  0  0  0  0  3  0  0  0  0  0  0
   36.7510   24.4520   38.2120 H   0  0  0  0  0  0  0  0  0  0  0  0
   36.2540   23.4750   40.0140 C   0  0  0  0  0  3  0  0  0  0  0  0
   35.3780   23.3390   40.6900 H   0  0  0  0  0  0  0  0  0  0  0  0
   37.3580   23.6960   40.8350 O   0  0  0  0  0  0  0  0  0  0  0  0
   36.9640   24.7410   41.7010 C   0  0  0  0  0  2  0  0  0  0  0  0
   36.9390   26.0250   40.9280 C   0  0  0  0  0  2  0  0  0  0  0  0
   37.4590   29.5270   39.6560 O   0  0  0  0  0  0  0  0  0  0  0  0
   38.0710   31.6020   41.0730 O   0  0  0  0  0  0  0  0  0  0  0  0
   37.1460   30.4110   41.0520 P   0  0  1  0  0  0  0  0  0  0  0  0
   35.5260   30.8500   41.1380 O   0  0  0  0  0  0  0  0  0  0  0  0
   35.3840   31.6660   40.6000 H   0  0  0  0  0  0  0  0  0  0  0  0
   37.4420   29.4390   42.3920 O   0  0  0  0  0  0  0  0  0  0  0  0
   38.7710   29.4630   42.6690 C   0  0  0  0  0  0  0  0  0  0  0  0
   39.3990   30.1780   42.1430 H   0  0  0  0  0  0  0  0  0  0  0  0
   38.8480   29.7630   43.7590 H   0  0  0  0  0  0  0  0  0  0  0  0
   39.8770   26.0380   43.5990 C   0  0  0  0  0  0  0  0  0  0  0  0
   39.2760   27.3040   43.6750 C   0  0  0  0  0  0  0  0  0  0  0  0
   39.3990   28.1370   42.5880 C   0  0  0  0  0  0  0  0  0  0  0  0
   40.0920   27.6920   41.5040 N   0  0  0  0  0  0  0  0  0  0  0  0
   40.6600   26.4750   41.4530 C   0  0  0  0  0  0  0  0  0  0  0  0
   40.5490   25.6570   42.5000 N   0  0  0  0  0  0  0  0  0  0  0  0
   39.7640   25.4010   44.4740 H   0  0  0  0  0  0  0  0  0  0  0  0
   38.7380   27.5880   44.5830 H   0  0  0  0  0  0  0  0  0  0  0  0
   41.1960   26.2020   40.5540 H   0  0  0  0  0  0  0  0  0  0  0  0
  1  5  1  0  0  0  0
  1  6  1  1  0  0  0
  1 25  1  0  0  0  0
  2  1  1  0  0  0  0
  3  2  1  0  0  0  0
  3  4  1  0  0  0  0
  4 11  1  0  0  0  0
  4  5  1  0  0  0  0
  5 13  1  1  0  0  0
  7  2  1  0  0  0  0
  8  2  1  0  0  0  0
  9  3  1  0  0  0  0
 10  3  1  0  0  0  0
 12  4  1  0  0  0  0
 14 16  1  0  0  0  0
 14  5  1  0  0  0  0
 14 17  1  0  0  0  0
 15 14  1  0  0  0  0
 17 24  1  0  0  0  0
 18 17  1  0  0  0  0
 18 20  1  0  0  0  0
 19 18  1  0  0  0  0
 20 21  1  0  0  0  0
 20 22  1  0  0  0  0
 22 23  1  0  0  0  0
 24 23  1  0  0  0  0
 25 27  1  0  0  0  0
 27 26  2  1  0  0  0
 27 28  1  0  0  0  0
 27 30  1  0  0  0  0
 29 28  1  0  0  0  0
 30 31  1  0  0  0  0
 31 33  1  0  0  0  0
 32 31  1  0  0  0  0
 34 35  1  0  0  0  0
 34 40  1  0  0  0  0
 35 41  1  0  0  0  0
 36 31  1  0  0  0  0
 36 35  2  0  0  0  0
 37 36  1  0  0  0  0
 38 37  2  0  0  0  0
 38 39  1  0  0  0  0
 39 34  2  0  0  0  0
 42 38  1  0  0  0  0
M  END
>  <minimizedAffinity>
-4.95159721

$$$$

 OpenBabel03252509343D

 42 44  0  0  1  0  0  0  0  0999 V2000
   36.9250   26.8280   40.9620 C   0  0  1  0  0  0  0  0  0  0  0  0
   36.8500   25.7210   39.9270 C   0  0  0  0  0  0  0  0  0  0  0  0
   36.5340   24.5230   40.7910 C   0  0  0  0  0  0  0  0  0  0  0  0
   37.1120   24.8240   42.1460 C   0  0  0  0  0  0  0  0  0  0  0  0
   37.8070   26.1680   42.0040 C   0  0  1  0  0  0  0  0  0  0  0  0
   35.9100   26.9670   41.3500 H   0  0  0  0  0  0  0  0  0  0  0  0
   35.9260   25.9350   39.3300 H   0  0  0  0  0  0  0  0  0  0  0  0
   37.7380   25.6130   39.3100 H   0  0  0  0  0  0  0  0  0  0  0  0
   35.4620   24.2730   40.8090 H   0  0  0  0  0  0  0  0  0  0  0  0
   37.1020   23.6600   40.3510 H   0  0  0  0  0  0  0  0  0  0  0  0
   36.2950   24.9080   42.8950 H   0  0  0  0  0  0  0  0  0  0  0  0
   37.8520   24.0440   42.4650 H   0  0  0  0  0  0  0  0  0  0  0  0
   37.6960   26.7870   42.9160 H   0  0  0  0  0  0  0  0  0  0  0  0
   39.2310   26.0300   41.5540 C   0  0  0  0  0  0  0  0  0  0  0  0
   39.3830   24.9650   41.2630 H   0  0  0  0  0  0  0  0  0  0  0  0
   39.3400   26.6030   40.5990 H   0  0  0  0  0  0  0  0  0  0  0  0
   40.2070   26.4380   42.4620 N   0  0  0  0  0  0  0  0  0  0  0  0
   41.1170   25.5000   42.9570 C   0  0  0  0  0  3  0  0  0  0  0  0
   41.4920   24.8790   42.1030 H   0  0  0  0  0  0  0  0  0  0  0  0
   42.3190   26.0240   43.6690 C   0  0  0  0  0  3  0  0  0  0  0  0
   42.1080   26.2810   44.7340 H   0  0  0  0  0  0  0  0  0  0  0  0
   42.7240   27.2050   43.0500 O   0  0  0  0  0  0  0  0  0  0  0  0
   41.7160   28.1440   43.3640 C   0  0  0  0  0  2  0  0  0  0  0  0
   40.4900   27.8240   42.5630 C   0  0  0  0  0  2  0  0  0  0  0  0
   37.4830   27.9890   40.4540 O   0  0  0  0  0  0  0  0  0  0  0  0
   35.0700   28.8880   40.7000 O   0  0  0  0  0  0  0  0  0  0  0  0
   36.5130   29.2980   40.8680 P   0  0  1  0  0  0  0  0  0  0  0  0
   36.8540   29.8350   42.4230 O   0  0  0  0  0  0  0  0  0  0  0  0
   36.3620   29.2760   43.0730 H   0  0  0  0  0  0  0  0  0  0  0  0
   36.8600   30.5830   39.8390 O   0  0  0  0  0  0  0  0  0  0  0  0
   37.0900   31.6940   40.5840 C   0  0  0  0  0  0  0  0  0  0  0  0
   36.2900   32.4230   40.6920 H   0  0  0  0  0  0  0  0  0  0  0  0
   37.2790   31.3200   41.6370 H   0  0  0  0  0  0  0  0  0  0  0  0
   40.2300   32.5560   38.7910 C   0  0  0  0  0  0  0  0  0  0  0  0
   39.0550   31.8820   39.1590 C   0  0  0  0  0  0  0  0  0  0  0  0
   38.3200   32.4000   40.2000 C   0  0  0  0  0  0  0  0  0  0  0  0
   38.7680   33.5300   40.8120 N   0  0  0  0  0  0  0  0  0  0  0  0
   39.8970   34.1590   40.4430 C   0  0  0  0  0  0  0  0  0  0  0  0
   40.6200   33.6680   39.4360 N   0  0  0  0  0  0  0  0  0  0  0  0
   40.7910   32.1230   37.9660 H   0  0  0  0  0  0  0  0  0  0  0  0
   38.7640   30.9790   38.6170 H   0  0  0  0  0  0  0  0  0  0  0  0
   40.1840   35.0500   40.9860 H   0  0  0  0  0  0  0  0  0  0  0  0
  1  6  1  1  0  0  0
  1  5  1  0  0  0  0
  2  3  1  0  0  0  0
  2  1  1  0  0  0  0
  3  9  1  0  0  0  0
  3  4  1  0  0  0  0
  4 12  1  0  0  0  0
  4 11  1  0  0  0  0
  5  4  1  0  0  0  0
  5 13  1  1  0  0  0
  7  2  1  0  0  0  0
  8  2  1  0  0  0  0
 10  3  1  0  0  0  0
 14  5  1  0  0  0  0
 14 17  1  0  0  0  0
 15 14  1  0  0  0  0
 16 14  1  0  0  0  0
 17 24  1  0  0  0  0
 17 18  1  0  0  0  0
 18 20  1  0  0  0  0
 19 18  1  0  0  0  0
 20 21  1  0  0  0  0
 22 23  1  0  0  0  0
 22 20  1  0  0  0  0
 24 23  1  0  0  0  0
 25 27  1  0  0  0  0
 25  1  1  0  0  0  0
 27 26  2  6  0  0  0
 27 28  1  0  0  0  0
 28 29  1  0  0  0  0
 30 31  1  0  0  0  0
 30 27  1  0  0  0  0
 31 32  1  0  0  0  0
 31 33  1  0  0  0  0
 34 35  2  0  0  0  0
 34 39  1  0  0  0  0
 35 36  1  0  0  0  0
 36 31  1  0  0  0  0
 36 37  2  0  0  0  0
 38 37  1  0  0  0  0
 38 42  1  0  0  0  0
 39 38  2  0  0  0  0
 40 34  1  0  0  0  0
 41 35  1  0  0  0  0
M  END
>  <minimizedAffinity>
-4.934237

$$$$

 OpenBabel03252509343D

 42 44  0  0  1  0  0  0  0  0999 V2000
   36.7220   30.5250   38.7790 C   0  0  1  0  0  0  0  0  0  0  0  0
   36.4420   29.7800   37.4870 C   0  0  0  0  0  0  0  0  0  0  0  0
   35.0410   29.2710   37.7320 C   0  0  0  0  0  0  0  0  0  0  0  0
   34.9070   29.1250   39.2230 C   0  0  0  0  0  0  0  0  0  0  0  0
   36.2670   29.4930   39.7920 C   0  0  1  0  0  0  0  0  0  0  0  0
   36.0580   31.3960   38.7930 H   0  0  0  0  0  0  0  0  0  0  0  0
   36.3580   30.5740   36.7000 H   0  0  0  0  0  0  0  0  0  0  0  0
   37.1670   29.0100   37.2370 H   0  0  0  0  0  0  0  0  0  0  0  0
   34.2640   29.9030   37.2740 H   0  0  0  0  0  0  0  0  0  0  0  0
   34.9940   28.2480   37.2730 H   0  0  0  0  0  0  0  0  0  0  0  0
   34.1420   29.8330   39.6040 H   0  0  0  0  0  0  0  0  0  0  0  0
   34.6440   28.0740   39.5140 H   0  0  0  0  0  0  0  0  0  0  0  0
   36.1760   30.0430   40.7490 H   0  0  0  0  0  0  0  0  0  0  0  0
   37.1900   28.3150   39.8750 C   0  0  0  0  0  0  0  0  0  0  0  0
   36.6820   27.4610   39.3690 H   0  0  0  0  0  0  0  0  0  0  0  0
   38.0790   28.5360   39.2310 H   0  0  0  0  0  0  0  0  0  0  0  0
   37.6140   27.9500   41.1520 N   0  0  0  0  0  0  0  0  0  0  0  0
   38.7810   27.1980   41.2980 C   0  0  0  0  0  3  0  0  0  0  0  0
   39.5760   27.6370   40.6420 H   0  0  0  0  0  0  0  0  0  0  0  0
   39.3620   27.0950   42.6690 C   0  0  0  0  0  3  0  0  0  0  0  0
   38.8620   26.3150   43.2890 H   0  0  0  0  0  0  0  0  0  0  0  0
   39.1670   28.3090   43.3260 O   0  0  0  0  0  0  0  0  0  0  0  0
   37.7750   28.3760   43.5590 C   0  0  0  0  0  2  0  0  0  0  0  0
   37.0810   28.6550   42.2610 C   0  0  0  0  0  2  0  0  0  0  0  0
   38.0610   30.8510   38.9210 O   0  0  0  0  0  0  0  0  0  0  0  0
   39.1060   33.1790   39.3430 O   0  0  0  0  0  0  0  0  0  0  0  0
   38.2060   32.1490   39.9800 P   0  0  1  0  0  0  0  0  0  0  0  0
   36.6980   32.7700   40.3840 O   0  0  0  0  0  0  0  0  0  0  0  0
   36.4050   33.3930   39.6750 H   0  0  0  0  0  0  0  0  0  0  0  0
   38.8930   31.6070   41.4170 O   0  0  0  0  0  0  0  0  0  0  0  0
   39.9960   30.8700   41.1280 C   0  0  0  0  0  0  0  0  0  0  0  0
   39.9620   29.7960   41.2970 H   0  0  0  0  0  0  0  0  0  0  0  0
   40.1490   30.9780   40.0100 H   0  0  0  0  0  0  0  0  0  0  0  0
   42.8980   31.2530   43.4170 C   0  0  0  0  0  0  0  0  0  0  0  0
   41.7290   30.7440   42.8330 C   0  0  0  0  0  0  0  0  0  0  0  0
   41.2210   31.4030   41.7380 C   0  0  0  0  0  0  0  0  0  0  0  0
   41.8760   32.5060   41.2830 N   0  0  0  0  0  0  0  0  0  0  0  0
   42.9970   32.9760   41.8580 C   0  0  0  0  0  0  0  0  0  0  0  0
   43.4990   32.3470   42.9210 N   0  0  0  0  0  0  0  0  0  0  0  0
   43.2770   30.7110   44.2810 H   0  0  0  0  0  0  0  0  0  0  0  0
   41.2610   29.8530   43.2600 H   0  0  0  0  0  0  0  0  0  0  0  0
   43.4520   33.8610   41.4350 H   0  0  0  0  0  0  0  0  0  0  0  0
  1  6  1  1  0  0  0
  1 25  1  0  0  0  0
  1  5  1  0  0  0  0
  2  3  1  0  0  0  0
  2  1  1  0  0  0  0
  3  4  1  0  0  0  0
  4 12  1  0  0  0  0
  4 11  1  0  0  0  0
  4  5  1  0  0  0  0
  5 14  1  0  0  0  0
  5 13  1  1  0  0  0
  7  2  1  0  0  0  0
  8  2  1  0  0  0  0
  9  3  1  0  0  0  0
 10  3  1  0  0  0  0
 14 17  1  0  0  0  0
 15 14  1  0  0  0  0
 16 14  1  0  0  0  0
 17 18  1  0  0  0  0
 17 24  1  0  0  0  0
 18 20  1  0  0  0  0
 19 18  1  0  0  0  0
 20 21  1  0  0  0  0
 20 22  1  0  0  0  0
 22 23  1  0  0  0  0
 24 23  1  0  0  0  0
 25 27  1  0  0  0  0
 27 26  2  6  0  0  0
 27 28  1  0  0  0  0
 27 30  1  0  0  0  0
 29 28  1  0  0  0  0
 31 32  1  0  0  0  0
 31 30  1  0  0  0  0
 31 36  1  0  0  0  0
 33 31  1  0  0  0  0
 34 40  1  0  0  0  0
 35 41  1  0  0  0  0
 35 34  2  0  0  0  0
 36 35  1  0  0  0  0
 37 36  2  0  0  0  0
 37 38  1  0  0  0  0
 38 39  2  0  0  0  0
 39 34  1  0  0  0  0
 42 38  1  0  0  0  0
M  END
>  <minimizedAffinity>
-4.91032171

$$$$

 OpenBabel03252509343D

 42 44  0  0  1  0  0  0  0  0999 V2000
   36.7600   27.6620   41.0220 C   0  0  1  0  0  0  0  0  0  0  0  0
   37.0220   26.2490   40.5340 C   0  0  0  0  0  0  0  0  0  0  0  0
   36.8800   25.4580   41.8130 C   0  0  0  0  0  0  0  0  0  0  0  0
   37.2440   26.4010   42.9270 C   0  0  0  0  0  0  0  0  0  0  0  0
   37.6530   27.6970   42.2460 C   0  0  1  0  0  0  0  0  0  0  0  0
   35.7050   27.7050   41.3140 H   0  0  0  0  0  0  0  0  0  0  0  0
   36.1370   25.9860   39.8980 H   0  0  0  0  0  0  0  0  0  0  0  0
   37.9690   26.1120   40.0190 H   0  0  0  0  0  0  0  0  0  0  0  0
   35.8880   24.9950   41.9280 H   0  0  0  0  0  0  0  0  0  0  0  0
   37.6570   24.6490   41.7700 H   0  0  0  0  0  0  0  0  0  0  0  0
   36.3580   26.5850   43.5710 H   0  0  0  0  0  0  0  0  0  0  0  0
   38.0970   26.0080   43.5410 H   0  0  0  0  0  0  0  0  0  0  0  0
   37.3250   28.5840   42.8230 H   0  0  0  0  0  0  0  0  0  0  0  0
   39.1110   27.7250   41.8990 C   0  0  0  0  0  0  0  0  0  0  0  0
   39.5550   26.7690   42.2610 H   0  0  0  0  0  0  0  0  0  0  0  0
   39.1950   27.6710   40.7850 H   0  0  0  0  0  0  0  0  0  0  0  0
   39.8380   28.8160   42.3730 N   0  0  0  0  0  0  0  0  0  0  0  0
   41.2290   28.7270   42.4610 C   0  0  0  0  0  3  0  0  0  0  0  0
   41.6200   28.2710   41.5160 H   0  0  0  0  0  0  0  0  0  0  0  0
   41.9840   29.9980   42.6710 C   0  0  0  0  0  3  0  0  0  0  0  0
   42.0030   30.3130   43.7400 H   0  0  0  0  0  0  0  0  0  0  0  0
   41.3430   31.0170   41.9690 O   0  0  0  0  0  0  0  0  0  0  0  0
   40.1320   31.2310   42.6650 C   0  0  0  0  0  2  0  0  0  0  0  0
   39.2060   30.0860   42.3880 C   0  0  0  0  0  2  0  0  0  0  0  0
   37.1100   28.6180   40.0830 O   0  0  0  0  0  0  0  0  0  0  0  0
   34.6120   29.1460   39.6680 O   0  0  0  0  0  0  0  0  0  0  0  0
   35.9200   29.8050   40.0310 P   0  0  1  0  0  0  0  0  0  0  0  0
   35.8400   30.6440   41.4850 O   0  0  0  0  0  0  0  0  0  0  0  0
   35.2870   30.1310   42.1230 H   0  0  0  0  0  0  0  0  0  0  0  0
   36.3290   30.9370   38.8560 O   0  0  0  0  0  0  0  0  0  0  0  0
   37.6650   30.8680   38.6230 C   0  0  0  0  0  0  0  0  0  0  0  0
   38.1890   29.9460   38.8670 H   0  0  0  0  0  0  0  0  0  0  0  0
   37.7840   30.9750   37.5010 H   0  0  0  0  0  0  0  0  0  0  0  0
   40.4200   33.2580   39.3400 C   0  0  0  0  0  0  0  0  0  0  0  0
   39.7090   32.1800   38.7910 C   0  0  0  0  0  0  0  0  0  0  0  0
   38.4090   31.9970   39.1990 C   0  0  0  0  0  0  0  0  0  0  0  0
   37.8850   32.8650   40.1070 N   0  0  0  0  0  0  0  0  0  0  0  0
   38.5850   33.8910   40.6210 C   0  0  0  0  0  0  0  0  0  0  0  0
   39.8470   34.0800   40.2340 N   0  0  0  0  0  0  0  0  0  0  0  0
   41.4470   33.3780   39.0000 H   0  0  0  0  0  0  0  0  0  0  0  0
   40.2030   31.5260   38.0670 H   0  0  0  0  0  0  0  0  0  0  0  0
   38.0930   34.5310   41.3410 H   0  0  0  0  0  0  0  0  0  0  0  0
  1  6  1  1  0  0  0
  1  5  1  0  0  0  0
  2  1  1  0  0  0  0
  2  3  1  0  0  0  0
  3  9  1  0  0  0  0
  3  4  1  0  0  0  0
  4 12  1  0  0  0  0
  4 11  1  0  0  0  0
  5 13  1  1  0  0  0
  5  4  1  0  0  0  0
  7  2  1  0  0  0  0
  8  2  1  0  0  0  0
 10  3  1  0  0  0  0
 14  5  1  0  0  0  0
 14 15  1  0  0  0  0
 14 17  1  0  0  0  0
 16 14  1  0  0  0  0
 17 24  1  0  0  0  0
 17 18  1  0  0  0  0
 18 20  1  0  0  0  0
 19 18  1  0  0  0  0
 20 21  1  0  0  0  0
 22 23  1  0  0  0  0
 22 20  1  0  0  0  0
 24 23  1  0  0  0  0
 25  1  1  0  0  0  0
 27 26  2  6  0  0  0
 27 25  1  0  0  0  0
 27 28  1  0  0  0  0
 28 29  1  0  0  0  0
 30 27  1  0  0  0  0
 31 30  1  0  0  0  0
 31 32  1  0  0  0  0
 31 36  1  0  0  0  0
 33 31  1  0  0  0  0
 34 39  1  0  0  0  0
 35 36  1  0  0  0  0
 35 34  2  0  0  0  0
 36 37  2  0  0  0  0
 37 38  1  0  0  0  0
 38 42  1  0  0  0  0
 39 38  2  0  0  0  0
 40 34  1  0  0  0  0
 41 35  1  0  0  0  0
M  END
>  <minimizedAffinity>
-4.89914989

$$$$
