
 OpenBabel03252502223D

 33 35  0  0  1  0  0  0  0  0999 V2000
   46.8830   34.6390   42.2930 N   0  0  0  0  0  0  0  0  0  0  0  0
   48.3300   34.6940   42.3600 C   0  0  0  0  0  0  0  0  0  0  0  0
   48.7440   35.4780   41.1040 C   0  0  0  0  0  0  0  0  0  0  0  0
   48.3910   34.6990   39.8690 C   0  0  0  0  0  0  0  0  0  0  0  0
   47.0740   34.0020   39.9340 C   0  0  0  0  0  0  0  0  0  0  0  0
   46.1820   34.4270   41.0700 C   0  0  1  0  0  0  0  0  0  0  0  0
   48.6850   35.2470   43.2410 H   0  0  0  0  0  0  0  0  0  0  0  0
   48.7500   33.6770   42.2720 H   0  0  0  0  0  0  0  0  0  0  0  0
   48.3410   36.4890   41.1000 H   0  0  0  0  0  0  0  0  0  0  0  0
   49.8610   35.5510   41.1610 H   0  0  0  0  0  0  0  0  0  0  0  0
   48.4130   35.3850   38.9930 H   0  0  0  0  0  0  0  0  0  0  0  0
   49.2190   33.9710   39.6860 H   0  0  0  0  0  0  0  0  0  0  0  0
   46.5140   34.1480   38.9920 H   0  0  0  0  0  0  0  0  0  0  0  0
   47.2630   32.8980   40.0310 H   0  0  0  0  0  0  0  0  0  0  0  0
   45.7170   35.3730   40.7630 H   0  0  0  0  0  0  0  0  0  0  0  0
   44.4830   35.9450   44.8410 C   0  0  0  0  0  0  0  0  0  0  0  0
   45.2060   35.8760   43.6360 C   0  0  0  0  0  0  0  0  0  0  0  0
   46.1070   34.8000   43.4700 C   0  0  0  0  0  0  0  0  0  0  0  0
   46.2040   33.9090   44.5000 N   0  0  0  0  0  0  0  0  0  0  0  0
   45.4920   34.0140   45.6370 C   0  0  0  0  0  0  0  0  0  0  0  0
   44.6310   35.0390   45.7990 N   0  0  0  0  0  0  0  0  0  0  0  0
   43.7840   36.7640   44.9910 H   0  0  0  0  0  0  0  0  0  0  0  0
   45.1050   36.5920   42.8510 H   0  0  0  0  0  0  0  0  0  0  0  0
   45.6970   33.2070   46.3590 H   0  0  0  0  0  0  0  0  0  0  0  0
   45.2430   33.3930   41.2380 O   0  0  0  0  0  0  0  0  0  0  0  0
   44.5000   35.6870   40.5790 H   0  0  0  0  0  0  0  0  0  0  0  0
   43.7210   35.0150   40.3990 N   0  0  0  0  0  0  0  0  0  0  0  0
   44.0360   33.6360   40.6110 C   0  0  2  0  0  0  0  0  0  0  0  0
   42.8770   32.9130   41.2090 C   0  0  0  0  0  0  0  0  0  0  0  0
   42.6710   33.1490   42.2700 H   0  0  0  0  0  0  0  0  0  0  0  0
   41.7340   33.3050   40.5000 O   0  0  0  0  0  0  0  0  0  0  0  0
   41.3920   34.5560   41.0310 C   0  0  0  0  0  0  0  0  0  0  0  0
   42.5870   35.4620   41.1510 C   0  0  0  0  0  0  0  0  0  0  0  0
  1  2  1  0  0  0  0
  1 18  1  0  0  0  0
  2  7  1  0  0  0  0
  3 10  1  0  0  0  0
  3  2  1  0  0  0  0
  4  5  1  0  0  0  0
  4  3  1  0  0  0  0
  5 14  1  0  0  0  0
  5  6  1  0  0  0  0
  6 15  1  6  0  0  0
  6 25  1  0  0  0  0
  6  1  1  0  0  0  0
  8  2  1  0  0  0  0
  9  3  1  0  0  0  0
 11  4  1  0  0  0  0
 12  4  1  0  0  0  0
 13  5  1  0  0  0  0
 16 22  1  0  0  0  0
 16 21  1  0  0  0  0
 17 16  2  0  0  0  0
 18 17  1  0  0  0  0
 18 19  2  0  0  0  0
 19 20  1  0  0  0  0
 20 21  2  0  0  0  0
 20 24  1  0  0  0  0
 23 17  1  0  0  0  0
 27 26  1  0  0  0  0
 27 28  1  0  0  0  0
 27 33  1  0  0  0  0
 28 29  1  0  0  0  0
 28 25  1  1  0  0  0
 29 30  1  0  0  0  0
 31 32  1  0  0  0  0
 31 29  1  0  0  0  0
 32 33  1  0  0  0  0
M  END
>  <minimizedAffinity>
-5.79271746

>  <minimizedRMSD>
0.848680854

$$$$
