
 OpenBabel03252508273D

 40 44  0  0  1  0  0  0  0  0999 V2000
   38.3570   29.2010   42.8600 C   0  0  1  0  0  0  0  0  0  0  0  0
   37.2270   28.7040   43.6580 C   0  0  0  0  0  0  0  0  0  0  0  0
   37.8640   27.9000   42.4540 C   0  0  2  0  0  0  0  0  0  0  0  0
   39.1960   29.3940   43.6180 H   0  0  0  0  0  0  0  0  0  0  0  0
   37.3350   28.1090   44.5730 H   0  0  0  0  0  0  0  0  0  0  0  0
   36.2120   29.0970   43.5160 H   0  0  0  0  0  0  0  0  0  0  0  0
   36.9650   27.7440   41.7840 H   0  0  0  0  0  0  0  0  0  0  0  0
   38.5350   26.6220   42.7100 C   0  0  0  0  0  0  0  0  0  0  0  0
   39.5850   26.3910   43.5440 C   0  0  0  0  0  0  0  0  0  0  0  0
   40.2800   25.1950   43.6650 C   0  0  0  0  0  0  0  0  0  0  0  0
   39.8470   24.1400   42.8440 C   0  0  0  0  0  0  0  0  0  0  0  0
   38.7740   24.3510   41.9820 C   0  0  0  0  0  0  0  0  0  0  0  0
   38.3490   23.2660   41.2400 C   0  0  0  0  0  0  0  0  0  0  0  0
   37.2380   23.4060   40.4160 C   0  0  0  0  0  0  0  0  0  0  0  0
   36.5640   24.6080   40.3400 C   0  0  0  0  0  0  0  0  0  0  0  0
   37.0310   25.6560   41.1000 C   0  0  0  0  0  0  0  0  0  0  0  0
   38.1400   25.5660   41.9280 C   0  0  0  0  0  0  0  0  0  0  0  0
   39.8810   27.2410   44.1600 H   0  0  0  0  0  0  0  0  0  0  0  0
   41.0990   25.0830   44.3470 H   0  0  0  0  0  0  0  0  0  0  0  0
   40.3730   23.1970   42.9140 H   0  0  0  0  0  0  0  0  0  0  0  0
   38.8930   22.3290   41.3170 H   0  0  0  0  0  0  0  0  0  0  0  0
   36.9900   22.4820   39.8700 H   0  0  0  0  0  0  0  0  0  0  0  0
   35.7420   24.5200   39.6650 H   0  0  0  0  0  0  0  0  0  0  0  0
   36.3220   26.4160   40.9430 H   0  0  0  0  0  0  0  0  0  0  0  0
   36.8270   31.6340   40.5380 C   0  0  0  0  0  0  0  0  0  0  0  0
   37.9580   32.4650   40.2030 C   0  0  0  0  0  0  0  0  0  0  0  0
   39.2020   32.1700   40.7960 C   0  0  0  0  0  0  0  0  0  0  0  0
   39.2920   31.1400   41.6370 N   0  0  0  0  0  0  0  0  0  0  0  0
   38.1920   30.3650   41.9350 C   0  0  0  0  0  0  0  0  0  0  0  0
   37.0010   30.6060   41.4020 N   0  0  0  0  0  0  0  0  0  0  0  0
   35.8700   31.8670   40.0790 H   0  0  0  0  0  0  0  0  0  0  0  0
   37.8130   33.2640   39.5280 H   0  0  0  0  0  0  0  0  0  0  0  0
   40.3320   32.9720   40.4830 N   0  0  0  0  0  0  0  0  0  0  0  0
   40.2180   34.1420   39.6340 C   0  0  0  0  0  3  0  0  0  0  0  0
   39.7080   34.9750   40.1580 H   0  0  0  0  0  0  0  0  0  0  0  0
   41.5170   34.5360   39.0140 C   0  0  0  0  0  3  0  0  0  0  0  0
   41.3680   35.5370   38.5580 H   0  0  0  0  0  0  0  0  0  0  0  0
   42.5950   34.5340   39.8570 O   0  0  0  0  0  0  0  0  0  0  0  0
   42.4210   33.9210   41.0710 C   0  0  0  0  0  2  0  0  0  0  0  0
   41.6340   32.6270   41.0160 C   0  0  0  0  0  2  0  0  0  0  0  0
  1  4  1  1  0  0  0
  1  2  1  0  0  0  0
  2  5  1  0  0  0  0
  3  7  1  6  0  0  0
  3  8  1  0  0  0  0
  3  1  1  0  0  0  0
  3  2  1  0  0  0  0
  6  2  1  0  0  0  0
  8  9  1  0  0  0  0
  9 10  2  0  0  0  0
  9 18  1  0  0  0  0
 10 19  1  0  0  0  0
 11 20  1  0  0  0  0
 11 10  1  0  0  0  0
 12 11  2  0  0  0  0
 13 21  1  0  0  0  0
 13 12  1  0  0  0  0
 14 13  2  0  0  0  0
 15 14  1  0  0  0  0
 15 16  2  0  0  0  0
 16 17  1  0  0  0  0
 17 12  1  0  0  0  0
 17  8  2  0  0  0  0
 22 14  1  0  0  0  0
 23 15  1  0  0  0  0
 24 16  1  0  0  0  0
 25 30  1  0  0  0  0
 26 25  2  0  0  0  0
 26 27  1  0  0  0  0
 27 28  2  0  0  0  0
 28 29  1  0  0  0  0
 29  1  1  0  0  0  0
 30 29  2  0  0  0  0
 31 25  1  0  0  0  0
 32 26  1  0  0  0  0
 33 27  1  0  0  0  0
 33 40  1  0  0  0  0
 34 35  1  0  0  0  0
 34 33  1  0  0  0  0
 36 34  1  0  0  0  0
 36 38  1  0  0  0  0
 37 36  1  0  0  0  0
 38 39  1  0  0  0  0
 40 39  1  0  0  0  0
M  END
>  <minimizedAffinity>
-6.78334332

$$$$

 OpenBabel03252508273D

 40 44  0  0  1  0  0  0  0  0999 V2000
   39.1380   27.6280   42.6780 C   0  0  1  0  0  0  0  0  0  0  0  0
   38.0410   27.5090   43.6480 C   0  0  0  0  0  0  0  0  0  0  0  0
   37.8390   27.3810   42.0860 C   0  0  2  0  0  0  0  0  0  0  0  0
   39.8980   26.8270   42.9870 H   0  0  0  0  0  0  0  0  0  0  0  0
   37.7360   26.5660   44.1200 H   0  0  0  0  0  0  0  0  0  0  0  0
   37.6130   28.3940   44.1380 H   0  0  0  0  0  0  0  0  0  0  0  0
   37.0690   28.1880   41.8900 H   0  0  0  0  0  0  0  0  0  0  0  0
   37.3980   26.1060   41.5130 C   0  0  0  0  0  0  0  0  0  0  0  0
   37.6290   24.8570   41.9980 C   0  0  0  0  0  0  0  0  0  0  0  0
   37.3080   23.6650   41.3620 C   0  0  0  0  0  0  0  0  0  0  0  0
   36.6900   23.7780   40.1060 C   0  0  0  0  0  0  0  0  0  0  0  0
   36.4400   25.0470   39.5880 C   0  0  0  0  0  0  0  0  0  0  0  0
   35.7760   25.1060   38.3780 C   0  0  0  0  0  0  0  0  0  0  0  0
   35.4420   26.3480   37.8520 C   0  0  0  0  0  0  0  0  0  0  0  0
   35.7630   27.5090   38.5260 C   0  0  0  0  0  0  0  0  0  0  0  0
   36.4250   27.3910   39.7260 C   0  0  0  0  0  0  0  0  0  0  0  0
   36.7880   26.1750   40.2860 C   0  0  0  0  0  0  0  0  0  0  0  0
   38.1110   24.8230   42.9760 H   0  0  0  0  0  0  0  0  0  0  0  0
   37.5200   22.7110   41.8060 H   0  0  0  0  0  0  0  0  0  0  0  0
   36.4310   22.8650   39.5850 H   0  0  0  0  0  0  0  0  0  0  0  0
   35.5310   24.1790   37.8650 H   0  0  0  0  0  0  0  0  0  0  0  0
   34.9190   26.2780   36.8840 H   0  0  0  0  0  0  0  0  0  0  0  0
   35.4230   28.3550   37.9720 H   0  0  0  0  0  0  0  0  0  0  0  0
   36.4800   28.3800   40.0800 H   0  0  0  0  0  0  0  0  0  0  0  0
   41.6800   30.3090   42.6960 C   0  0  0  0  0  0  0  0  0  0  0  0
   40.9780   31.3780   42.0280 C   0  0  0  0  0  0  0  0  0  0  0  0
   39.6630   31.1370   41.5820 C   0  0  0  0  0  0  0  0  0  0  0  0
   39.1160   29.9400   41.7940 N   0  0  0  0  0  0  0  0  0  0  0  0
   39.8130   28.9410   42.4370 C   0  0  0  0  0  0  0  0  0  0  0  0
   41.0530   29.1220   42.8730 N   0  0  0  0  0  0  0  0  0  0  0  0
   42.6940   30.5010   43.0360 H   0  0  0  0  0  0  0  0  0  0  0  0
   41.4750   32.3010   41.8950 H   0  0  0  0  0  0  0  0  0  0  0  0
   38.9490   32.1730   40.9210 N   0  0  0  0  0  0  0  0  0  0  0  0
   39.5880   33.4240   40.5630 C   0  0  0  0  0  3  0  0  0  0  0  0
   40.2880   33.2930   39.7130 H   0  0  0  0  0  0  0  0  0  0  0  0
   38.6140   34.5360   40.3670 C   0  0  0  0  0  3  0  0  0  0  0  0
   39.1720   35.3790   39.9070 H   0  0  0  0  0  0  0  0  0  0  0  0
   37.5030   34.2210   39.6310 O   0  0  0  0  0  0  0  0  0  0  0  0
   37.2800   32.8890   39.4010 C   0  0  0  0  0  2  0  0  0  0  0  0
   37.5500   31.9900   40.5910 C   0  0  0  0  0  2  0  0  0  0  0  0
  1  4  1  6  0  0  0
  1  2  1  0  0  0  0
  2  5  1  0  0  0  0
  2  6  1  0  0  0  0
  3  7  1  6  0  0  0
  3  1  1  0  0  0  0
  3  2  1  0  0  0  0
  8  9  1  0  0  0  0
  8  3  1  0  0  0  0
  9 18  1  0  0  0  0
 10 19  1  0  0  0  0
 10  9  2  0  0  0  0
 11 10  1  0  0  0  0
 12 11  2  0  0  0  0
 12 17  1  0  0  0  0
 13 12  1  0  0  0  0
 14 13  2  0  0  0  0
 14 15  1  0  0  0  0
 15 16  2  0  0  0  0
 16 24  1  0  0  0  0
 16 17  1  0  0  0  0
 17  8  2  0  0  0  0
 20 11  1  0  0  0  0
 21 13  1  0  0  0  0
 22 14  1  0  0  0  0
 23 15  1  0  0  0  0
 25 30  1  0  0  0  0
 25 31  1  0  0  0  0
 26 25  2  0  0  0  0
 27 28  2  0  0  0  0
 27 26  1  0  0  0  0
 28 29  1  0  0  0  0
 29  1  1  0  0  0  0
 29 30  2  0  0  0  0
 32 26  1  0  0  0  0
 33 27  1  0  0  0  0
 34 33  1  0  0  0  0
 35 34  1  0  0  0  0
 36 34  1  0  0  0  0
 37 36  1  0  0  0  0
 38 36  1  0  0  0  0
 39 38  1  0  0  0  0
 39 40  1  0  0  0  0
 40 33  1  0  0  0  0
M  END
>  <minimizedAffinity>
-6.44775772

$$$$

 OpenBabel03252508273D

 40 44  0  0  1  0  0  0  0  0999 V2000
   38.3620   29.1610   41.9510 C   0  0  1  0  0  0  0  0  0  0  0  0
   37.7440   28.9190   43.2620 C   0  0  0  0  0  0  0  0  0  0  0  0
   37.0950   28.4600   41.8960 C   0  0  2  0  0  0  0  0  0  0  0  0
   39.3980   28.6720   42.0150 H   0  0  0  0  0  0  0  0  0  0  0  0
   37.9330   28.0310   43.8780 H   0  0  0  0  0  0  0  0  0  0  0  0
   37.2380   29.7240   43.8120 H   0  0  0  0  0  0  0  0  0  0  0  0
   36.0860   28.9720   41.9410 H   0  0  0  0  0  0  0  0  0  0  0  0
   36.9300   27.0310   41.6150 C   0  0  0  0  0  0  0  0  0  0  0  0
   37.1690   25.9900   42.4570 C   0  0  0  0  0  0  0  0  0  0  0  0
   37.1260   24.6430   42.1180 C   0  0  0  0  0  0  0  0  0  0  0  0
   36.8050   24.3500   40.7820 C   0  0  0  0  0  0  0  0  0  0  0  0
   36.5540   25.3980   39.9010 C   0  0  0  0  0  0  0  0  0  0  0  0
   36.1850   25.0560   38.6150 C   0  0  0  0  0  0  0  0  0  0  0  0
   35.8560   26.0650   37.7160 C   0  0  0  0  0  0  0  0  0  0  0  0
   35.8940   27.3900   38.1000 C   0  0  0  0  0  0  0  0  0  0  0  0
   36.2700   27.6740   39.3930 C   0  0  0  0  0  0  0  0  0  0  0  0
   36.6150   26.7030   40.3210 C   0  0  0  0  0  0  0  0  0  0  0  0
   37.4130   26.2700   43.4830 H   0  0  0  0  0  0  0  0  0  0  0  0
   37.3250   23.8720   42.8360 H   0  0  0  0  0  0  0  0  0  0  0  0
   36.7680   23.3080   40.4890 H   0  0  0  0  0  0  0  0  0  0  0  0
   36.1600   24.0070   38.3350 H   0  0  0  0  0  0  0  0  0  0  0  0
   35.5800   25.6800   36.7210 H   0  0  0  0  0  0  0  0  0  0  0  0
   35.6070   28.0120   37.2820 H   0  0  0  0  0  0  0  0  0  0  0  0
   36.1410   28.7150   39.4690 H   0  0  0  0  0  0  0  0  0  0  0  0
   37.4200   32.3700   40.3810 C   0  0  0  0  0  0  0  0  0  0  0  0
   38.6930   33.0450   40.3140 C   0  0  0  0  0  0  0  0  0  0  0  0
   39.8270   32.3820   40.8230 C   0  0  0  0  0  0  0  0  0  0  0  0
   39.6870   31.1620   41.3420 N   0  0  0  0  0  0  0  0  0  0  0  0
   38.4570   30.5440   41.3890 C   0  0  0  0  0  0  0  0  0  0  0  0
   37.3610   31.1310   40.9230 N   0  0  0  0  0  0  0  0  0  0  0  0
   36.5480   32.8870   39.9880 H   0  0  0  0  0  0  0  0  0  0  0  0
   38.7290   34.0110   39.8890 H   0  0  0  0  0  0  0  0  0  0  0  0
   41.0940   33.0240   40.7690 N   0  0  0  0  0  0  0  0  0  0  0  0
   42.2060   32.5730   41.5830 C   0  0  0  0  0  3  0  0  0  0  0  0
   42.6200   31.6150   41.2090 H   0  0  0  0  0  0  0  0  0  0  0  0
   43.2410   33.6290   41.7840 C   0  0  0  0  0  3  0  0  0  0  0  0
   44.1260   33.1340   42.2370 H   0  0  0  0  0  0  0  0  0  0  0  0
   43.5900   34.3320   40.6620 O   0  0  0  0  0  0  0  0  0  0  0  0
   42.7760   34.1820   39.5690 C   0  0  0  0  0  2  0  0  0  0  0  0
   41.2940   34.1560   39.8870 C   0  0  0  0  0  2  0  0  0  0  0  0
  1  4  1  6  0  0  0
  1  2  1  0  0  0  0
  2  6  1  0  0  0  0
  2  5  1  0  0  0  0
  3  7  1  6  0  0  0
  3  1  1  0  0  0  0
  3  2  1  0  0  0  0
  8  3  1  0  0  0  0
  8  9  1  0  0  0  0
  9 18  1  0  0  0  0
 10  9  2  0  0  0  0
 10 19  1  0  0  0  0
 11 10  1  0  0  0  0
 12 17  1  0  0  0  0
 12 11  2  0  0  0  0
 13 12  1  0  0  0  0
 14 15  1  0  0  0  0
 14 13  2  0  0  0  0
 15 16  2  0  0  0  0
 16 24  1  0  0  0  0
 16 17  1  0  0  0  0
 17  8  2  0  0  0  0
 20 11  1  0  0  0  0
 21 13  1  0  0  0  0
 22 14  1  0  0  0  0
 23 15  1  0  0  0  0
 25 30  1  0  0  0  0
 26 25  2  0  0  0  0
 26 27  1  0  0  0  0
 27 28  2  0  0  0  0
 28 29  1  0  0  0  0
 29  1  1  0  0  0  0
 30 29  2  0  0  0  0
 31 25  1  0  0  0  0
 32 26  1  0  0  0  0
 33 27  1  0  0  0  0
 33 34  1  0  0  0  0
 34 36  1  0  0  0  0
 35 34  1  0  0  0  0
 36 37  1  0  0  0  0
 38 36  1  0  0  0  0
 39 40  1  0  0  0  0
 39 38  1  0  0  0  0
 40 33  1  0  0  0  0
M  END
>  <minimizedAffinity>
-6.44547892

$$$$

 OpenBabel03252508273D

 40 44  0  0  1  0  0  0  0  0999 V2000
   38.4480   29.3420   42.0720 C   0  0  1  0  0  0  0  0  0  0  0  0
   37.7000   29.2350   43.3330 C   0  0  0  0  0  0  0  0  0  0  0  0
   37.7950   28.0640   42.2750 C   0  0  2  0  0  0  0  0  0  0  0  0
   39.5210   29.6040   42.3820 H   0  0  0  0  0  0  0  0  0  0  0  0
   38.1350   28.8900   44.2790 H   0  0  0  0  0  0  0  0  0  0  0  0
   36.7220   29.7190   43.4590 H   0  0  0  0  0  0  0  0  0  0  0  0
   36.7010   27.8700   42.0530 H   0  0  0  0  0  0  0  0  0  0  0  0
   38.4710   26.8150   42.6350 C   0  0  0  0  0  0  0  0  0  0  0  0
   39.4970   26.6520   43.5130 C   0  0  0  0  0  0  0  0  0  0  0  0
   40.2000   25.4740   43.7330 C   0  0  0  0  0  0  0  0  0  0  0  0
   39.8020   24.3620   42.9730 C   0  0  0  0  0  0  0  0  0  0  0  0
   38.7520   24.5030   42.0690 C   0  0  0  0  0  0  0  0  0  0  0  0
   38.3600   23.3660   41.3890 C   0  0  0  0  0  0  0  0  0  0  0  0
   37.2720   23.4370   40.5260 C   0  0  0  0  0  0  0  0  0  0  0  0
   36.5890   24.6240   40.3500 C   0  0  0  0  0  0  0  0  0  0  0  0
   37.0240   25.7250   41.0510 C   0  0  0  0  0  0  0  0  0  0  0  0
   38.1090   25.7040   41.9150 C   0  0  0  0  0  0  0  0  0  0  0  0
   39.7670   27.5450   44.0790 H   0  0  0  0  0  0  0  0  0  0  0  0
   41.0000   25.4180   44.4450 H   0  0  0  0  0  0  0  0  0  0  0  0
   40.3350   23.4320   43.1210 H   0  0  0  0  0  0  0  0  0  0  0  0
   38.9100   22.4420   41.5440 H   0  0  0  0  0  0  0  0  0  0  0  0
   37.0490   22.4760   40.0360 H   0  0  0  0  0  0  0  0  0  0  0  0
   35.7890   24.4810   39.6590 H   0  0  0  0  0  0  0  0  0  0  0  0
   36.3120   26.4650   40.8230 H   0  0  0  0  0  0  0  0  0  0  0  0
   37.6400   32.3880   40.1450 C   0  0  0  0  0  0  0  0  0  0  0  0
   37.0410   31.8300   38.9570 C   0  0  0  0  0  0  0  0  0  0  0  0
   36.9480   30.4270   38.8540 C   0  0  0  0  0  0  0  0  0  0  0  0
   37.4110   29.6710   39.8490 N   0  0  0  0  0  0  0  0  0  0  0  0
   37.9760   30.2360   40.9710 C   0  0  0  0  0  0  0  0  0  0  0  0
   38.0860   31.5520   41.1110 N   0  0  0  0  0  0  0  0  0  0  0  0
   37.7110   33.4700   40.2190 H   0  0  0  0  0  0  0  0  0  0  0  0
   36.6970   32.4900   38.2090 H   0  0  0  0  0  0  0  0  0  0  0  0
   36.3620   29.8510   37.6950 N   0  0  0  0  0  0  0  0  0  0  0  0
   37.0460   29.8590   36.4160 C   0  0  0  0  0  3  0  0  0  0  0  0
   37.8940   29.1450   36.4050 H   0  0  0  0  0  0  0  0  0  0  0  0
   36.1170   29.6960   35.2610 C   0  0  0  0  0  3  0  0  0  0  0  0
   36.7440   29.5140   34.3630 H   0  0  0  0  0  0  0  0  0  0  0  0
   35.1660   28.7210   35.4040 O   0  0  0  0  0  0  0  0  0  0  0  0
   35.0020   28.2070   36.6640 C   0  0  0  0  0  2  0  0  0  0  0  0
   35.0520   29.2370   37.7750 C   0  0  0  0  0  2  0  0  0  0  0  0
  1  3  1  0  0  0  0
  1  4  1  1  0  0  0
  1  2  1  0  0  0  0
  2  6  1  0  0  0  0
  2  5  1  0  0  0  0
  3  7  1  6  0  0  0
  3  8  1  0  0  0  0
  3  2  1  0  0  0  0
  8  9  1  0  0  0  0
  9 10  2  0  0  0  0
  9 18  1  0  0  0  0
 10 19  1  0  0  0  0
 11 20  1  0  0  0  0
 11 10  1  0  0  0  0
 12 11  2  0  0  0  0
 13 21  1  0  0  0  0
 13 12  1  0  0  0  0
 14 13  2  0  0  0  0
 15 14  1  0  0  0  0
 15 16  2  0  0  0  0
 16 17  1  0  0  0  0
 17 12  1  0  0  0  0
 17  8  2  0  0  0  0
 22 14  1  0  0  0  0
 23 15  1  0  0  0  0
 24 16  1  0  0  0  0
 25 31  1  0  0  0  0
 25 30  1  0  0  0  0
 26 25  2  0  0  0  0
 27 26  1  0  0  0  0
 27 28  2  0  0  0  0
 28 29  1  0  0  0  0
 29 30  2  0  0  0  0
 29  1  1  0  0  0  0
 32 26  1  0  0  0  0
 33 40  1  0  0  0  0
 33 27  1  0  0  0  0
 34 33  1  0  0  0  0
 35 34  1  0  0  0  0
 36 38  1  0  0  0  0
 36 34  1  0  0  0  0
 37 36  1  0  0  0  0
 38 39  1  0  0  0  0
 39 40  1  0  0  0  0
M  END
>  <minimizedAffinity>
-6.40253067

$$$$

 OpenBabel03252508273D

 40 44  0  0  1  0  0  0  0  0999 V2000
   37.0660   29.3270   41.4890 C   0  0  1  0  0  0  0  0  0  0  0  0
   35.8790   28.7840   40.8140 C   0  0  0  0  0  0  0  0  0  0  0  0
   37.3260   28.1660   40.6620 C   0  0  2  0  0  0  0  0  0  0  0  0
   36.8070   29.3110   42.6060 H   0  0  0  0  0  0  0  0  0  0  0  0
   35.2170   28.0250   41.2490 H   0  0  0  0  0  0  0  0  0  0  0  0
   35.4490   29.2760   39.9310 H   0  0  0  0  0  0  0  0  0  0  0  0
   37.4740   28.2070   39.5410 H   0  0  0  0  0  0  0  0  0  0  0  0
   37.5940   26.8140   41.1610 C   0  0  0  0  0  0  0  0  0  0  0  0
   36.8760   25.6840   40.9160 C   0  0  0  0  0  0  0  0  0  0  0  0
   37.0820   24.4450   41.5090 C   0  0  0  0  0  0  0  0  0  0  0  0
   38.1290   24.3700   42.4420 C   0  0  0  0  0  0  0  0  0  0  0  0
   38.8810   25.5120   42.7080 C   0  0  0  0  0  0  0  0  0  0  0  0
   39.9370   25.3720   43.5880 C   0  0  0  0  0  0  0  0  0  0  0  0
   40.7590   26.4640   43.8350 C   0  0  0  0  0  0  0  0  0  0  0  0
   40.5300   27.6740   43.2100 C   0  0  0  0  0  0  0  0  0  0  0  0
   39.4640   27.7580   42.3450 C   0  0  0  0  0  0  0  0  0  0  0  0
   38.6110   26.6980   42.0750 C   0  0  0  0  0  0  0  0  0  0  0  0
   36.0750   25.7950   40.1840 H   0  0  0  0  0  0  0  0  0  0  0  0
   36.4770   23.5940   41.2660 H   0  0  0  0  0  0  0  0  0  0  0  0
   38.3110   23.4170   42.9230 H   0  0  0  0  0  0  0  0  0  0  0  0
   40.1000   24.4100   44.0670 H   0  0  0  0  0  0  0  0  0  0  0  0
   41.5650   26.2420   44.5520 H   0  0  0  0  0  0  0  0  0  0  0  0
   41.2630   28.3860   43.5190 H   0  0  0  0  0  0  0  0  0  0  0  0
   39.5450   28.7250   41.9390 H   0  0  0  0  0  0  0  0  0  0  0  0
   37.3520   32.7400   40.1040 C   0  0  0  0  0  0  0  0  0  0  0  0
   38.7490   33.0270   40.3260 C   0  0  0  0  0  0  0  0  0  0  0  0
   39.5400   32.0450   40.9550 C   0  0  0  0  0  0  0  0  0  0  0  0
   38.9760   30.8930   41.3190 N   0  0  0  0  0  0  0  0  0  0  0  0
   37.6390   30.6500   41.0910 C   0  0  0  0  0  0  0  0  0  0  0  0
   36.8560   31.5460   40.5030 N   0  0  0  0  0  0  0  0  0  0  0  0
   36.7470   33.5020   39.6200 H   0  0  0  0  0  0  0  0  0  0  0  0
   39.1270   33.9610   40.0110 H   0  0  0  0  0  0  0  0  0  0  0  0
   40.9180   32.3010   41.1850 N   0  0  0  0  0  0  0  0  0  0  0  0
   41.5550   33.5100   40.7010 C   0  0  0  0  0  3  0  0  0  0  0  0
   41.2400   34.3970   41.2870 H   0  0  0  0  0  0  0  0  0  0  0  0
   43.0350   33.3750   40.5770 C   0  0  0  0  0  3  0  0  0  0  0  0
   43.4400   34.3930   40.3990 H   0  0  0  0  0  0  0  0  0  0  0  0
   43.6620   32.7730   41.6350 O   0  0  0  0  0  0  0  0  0  0  0  0
   42.8550   32.1310   42.5390 C   0  0  0  0  0  2  0  0  0  0  0  0
   41.7200   31.3420   41.9190 C   0  0  0  0  0  2  0  0  0  0  0  0
  1  4  1  1  0  0  0
  2  5  1  0  0  0  0
  2  1  1  0  0  0  0
  3  7  1  6  0  0  0
  3  2  1  0  0  0  0
  3  8  1  0  0  0  0
  3  1  1  0  0  0  0
  6  2  1  0  0  0  0
  8 17  1  0  0  0  0
  9  8  2  0  0  0  0
  9 10  1  0  0  0  0
 10 11  2  0  0  0  0
 11 12  1  0  0  0  0
 11 20  1  0  0  0  0
 12 13  1  0  0  0  0
 13 14  2  0  0  0  0
 13 21  1  0  0  0  0
 14 22  1  0  0  0  0
 15 23  1  0  0  0  0
 15 14  1  0  0  0  0
 16 15  2  0  0  0  0
 17 16  1  0  0  0  0
 17 12  2  0  0  0  0
 18  9  1  0  0  0  0
 19 10  1  0  0  0  0
 24 16  1  0  0  0  0
 25 26  2  0  0  0  0
 25 30  1  0  0  0  0
 26 27  1  0  0  0  0
 27 33  1  0  0  0  0
 27 28  2  0  0  0  0
 29 28  1  0  0  0  0
 29  1  1  0  0  0  0
 30 29  2  0  0  0  0
 31 25  1  0  0  0  0
 32 26  1  0  0  0  0
 33 40  1  0  0  0  0
 34 33  1  0  0  0  0
 34 35  1  0  0  0  0
 36 34  1  0  0  0  0
 36 38  1  0  0  0  0
 37 36  1  0  0  0  0
 38 39  1  0  0  0  0
 40 39  1  0  0  0  0
M  END
>  <minimizedAffinity>
-6.33312464

$$$$

 OpenBabel03252508273D

 40 44  0  0  1  0  0  0  0  0999 V2000
   37.8140   31.5030   41.2040 C   0  0  1  0  0  0  0  0  0  0  0  0
   36.5740   31.1720   40.4880 C   0  0  0  0  0  0  0  0  0  0  0  0
   37.7240   30.1240   40.7690 C   0  0  2  0  0  0  0  0  0  0  0  0
   37.4720   31.9100   42.2210 H   0  0  0  0  0  0  0  0  0  0  0  0
   35.6550   30.8240   40.9760 H   0  0  0  0  0  0  0  0  0  0  0  0
   36.4190   31.4770   39.4440 H   0  0  0  0  0  0  0  0  0  0  0  0
   37.9730   29.7730   39.7210 H   0  0  0  0  0  0  0  0  0  0  0  0
   37.4630   28.9760   41.6410 C   0  0  0  0  0  0  0  0  0  0  0  0
   37.4830   28.9480   43.0010 C   0  0  0  0  0  0  0  0  0  0  0  0
   37.3580   27.8140   43.7930 C   0  0  0  0  0  0  0  0  0  0  0  0
   37.1970   26.5960   43.1120 C   0  0  0  0  0  0  0  0  0  0  0  0
   37.1700   26.5980   41.7200 C   0  0  0  0  0  0  0  0  0  0  0  0
   36.9500   25.3840   41.0990 C   0  0  0  0  0  0  0  0  0  0  0  0
   36.8460   25.3430   39.7140 C   0  0  0  0  0  0  0  0  0  0  0  0
   36.9570   26.4970   38.9650 C   0  0  0  0  0  0  0  0  0  0  0  0
   37.1780   27.6790   39.6340 C   0  0  0  0  0  0  0  0  0  0  0  0
   37.2980   27.7670   41.0140 C   0  0  0  0  0  0  0  0  0  0  0  0
   37.6100   29.9190   43.4810 H   0  0  0  0  0  0  0  0  0  0  0  0
   37.3820   27.8660   44.8640 H   0  0  0  0  0  0  0  0  0  0  0  0
   37.1010   25.6940   43.7040 H   0  0  0  0  0  0  0  0  0  0  0  0
   36.8630   24.4880   41.7080 H   0  0  0  0  0  0  0  0  0  0  0  0
   36.6730   24.3260   39.3260 H   0  0  0  0  0  0  0  0  0  0  0  0
   36.8460   26.2680   37.9280 H   0  0  0  0  0  0  0  0  0  0  0  0
   37.1410   28.4070   38.8770 H   0  0  0  0  0  0  0  0  0  0  0  0
   39.7190   34.5360   40.2980 C   0  0  0  0  0  0  0  0  0  0  0  0
   40.7030   34.0000   39.3900 C   0  0  0  0  0  0  0  0  0  0  0  0
   40.6870   32.6150   39.1310 C   0  0  0  0  0  0  0  0  0  0  0  0
   39.7700   31.8540   39.7270 N   0  0  0  0  0  0  0  0  0  0  0  0
   38.8420   32.3980   40.5890 C   0  0  0  0  0  0  0  0  0  0  0  0
   38.8200   33.6960   40.8630 N   0  0  0  0  0  0  0  0  0  0  0  0
   39.7370   35.6050   40.4950 H   0  0  0  0  0  0  0  0  0  0  0  0
   41.4000   34.6620   38.9540 H   0  0  0  0  0  0  0  0  0  0  0  0
   41.6450   32.0600   38.2400 N   0  0  0  0  0  0  0  0  0  0  0  0
   43.0610   32.3390   38.3800 C   0  0  0  0  0  3  0  0  0  0  0  0
   43.4940   31.8130   39.2550 H   0  0  0  0  0  0  0  0  0  0  0  0
   43.8230   32.1190   37.1170 C   0  0  0  0  0  3  0  0  0  0  0  0
   44.9010   32.1620   37.3770 H   0  0  0  0  0  0  0  0  0  0  0  0
   43.5230   30.9650   36.4440 O   0  0  0  0  0  0  0  0  0  0  0  0
   42.3950   30.2980   36.8450 C   0  0  0  0  0  2  0  0  0  0  0  0
   41.2140   31.1930   37.1620 C   0  0  0  0  0  2  0  0  0  0  0  0
  1  4  1  1  0  0  0
  2  3  1  0  0  0  0
  2  5  1  0  0  0  0
  2  1  1  0  0  0  0
  3  7  1  6  0  0  0
  3  1  1  0  0  0  0
  3  8  1  0  0  0  0
  6  2  1  0  0  0  0
  8  9  1  0  0  0  0
  9 18  1  0  0  0  0
  9 10  2  0  0  0  0
 10 19  1  0  0  0  0
 11 20  1  0  0  0  0
 11 10  1  0  0  0  0
 12 11  2  0  0  0  0
 13 21  1  0  0  0  0
 13 12  1  0  0  0  0
 14 13  2  0  0  0  0
 15 16  2  0  0  0  0
 15 14  1  0  0  0  0
 16 17  1  0  0  0  0
 17  8  2  0  0  0  0
 17 12  1  0  0  0  0
 22 14  1  0  0  0  0
 23 15  1  0  0  0  0
 24 16  1  0  0  0  0
 25 31  1  0  0  0  0
 25 30  1  0  0  0  0
 26 25  2  0  0  0  0
 27 26  1  0  0  0  0
 27 28  2  0  0  0  0
 28 29  1  0  0  0  0
 29 30  2  0  0  0  0
 29  1  1  0  0  0  0
 32 26  1  0  0  0  0
 33 34  1  0  0  0  0
 33 27  1  0  0  0  0
 34 35  1  0  0  0  0
 36 37  1  0  0  0  0
 36 34  1  0  0  0  0
 38 39  1  0  0  0  0
 38 36  1  0  0  0  0
 39 40  1  0  0  0  0
 40 33  1  0  0  0  0
M  END
>  <minimizedAffinity>
-6.13315868

$$$$

 OpenBabel03252508273D

 40 44  0  0  1  0  0  0  0  0999 V2000
   34.2020   28.6400   36.5550 C   0  0  1  0  0  0  0  0  0  0  0  0
   33.1920   27.5840   36.3910 C   0  0  0  0  0  0  0  0  0  0  0  0
   32.8580   29.0330   36.9270 C   0  0  2  0  0  0  0  0  0  0  0  0
   34.6750   28.7650   35.5180 H   0  0  0  0  0  0  0  0  0  0  0  0
   32.6260   27.4120   35.4670 H   0  0  0  0  0  0  0  0  0  0  0  0
   33.1130   26.7540   37.1060 H   0  0  0  0  0  0  0  0  0  0  0  0
   32.3840   28.8000   37.9290 H   0  0  0  0  0  0  0  0  0  0  0  0
   31.9850   29.9130   36.1440 C   0  0  0  0  0  0  0  0  0  0  0  0
   32.1750   30.3430   34.8680 C   0  0  0  0  0  0  0  0  0  0  0  0
   31.3950   31.2800   34.2010 C   0  0  0  0  0  0  0  0  0  0  0  0
   30.3200   31.8210   34.9250 C   0  0  0  0  0  0  0  0  0  0  0  0
   30.1040   31.3950   36.2330 C   0  0  0  0  0  0  0  0  0  0  0  0
   28.9980   31.9120   36.8810 C   0  0  0  0  0  0  0  0  0  0  0  0
   28.6990   31.4670   38.1630 C   0  0  0  0  0  0  0  0  0  0  0  0
   29.4900   30.5200   38.7830 C   0  0  0  0  0  0  0  0  0  0  0  0
   30.5790   30.0410   38.0920 C   0  0  0  0  0  0  0  0  0  0  0  0
   30.9220   30.4610   36.8160 C   0  0  0  0  0  0  0  0  0  0  0  0
   33.0220   29.8930   34.3490 H   0  0  0  0  0  0  0  0  0  0  0  0
   31.6030   31.5720   33.1900 H   0  0  0  0  0  0  0  0  0  0  0  0
   29.6970   32.5560   34.4310 H   0  0  0  0  0  0  0  0  0  0  0  0
   28.3890   32.6540   36.3740 H   0  0  0  0  0  0  0  0  0  0  0  0
   27.8010   31.9460   38.5850 H   0  0  0  0  0  0  0  0  0  0  0  0
   29.1020   30.3030   39.7530 H   0  0  0  0  0  0  0  0  0  0  0  0
   30.9630   29.2890   38.7190 H   0  0  0  0  0  0  0  0  0  0  0  0
   36.3900   27.2590   39.1920 C   0  0  0  0  0  0  0  0  0  0  0  0
   37.1400   28.4260   39.5870 C   0  0  0  0  0  0  0  0  0  0  0  0
   36.8790   29.6420   38.9260 C   0  0  0  0  0  0  0  0  0  0  0  0
   35.9530   29.6740   37.9670 N   0  0  0  0  0  0  0  0  0  0  0  0
   35.2530   28.5410   37.6150 C   0  0  0  0  0  0  0  0  0  0  0  0
   35.4660   27.3730   38.2090 N   0  0  0  0  0  0  0  0  0  0  0  0
   36.5970   26.3230   39.7050 H   0  0  0  0  0  0  0  0  0  0  0  0
   37.8590   28.3270   40.3550 H   0  0  0  0  0  0  0  0  0  0  0  0
   37.6030   30.8070   39.2950 N   0  0  0  0  0  0  0  0  0  0  0  0
   36.9720   31.8940   40.0200 C   0  0  0  0  0  3  0  0  0  0  0  0
   36.7780   31.6170   41.0760 H   0  0  0  0  0  0  0  0  0  0  0  0
   37.6960   33.1890   39.8680 C   0  0  0  0  0  3  0  0  0  0  0  0
   37.2600   33.8930   40.6070 H   0  0  0  0  0  0  0  0  0  0  0  0
   39.0580   33.1200   39.9960 O   0  0  0  0  0  0  0  0  0  0  0  0
   39.6110   31.8660   39.9730 C   0  0  0  0  0  2  0  0  0  0  0  0
   39.0050   30.9290   38.9480 C   0  0  0  0  0  2  0  0  0  0  0  0
  1  4  1  6  0  0  0
  1  3  1  0  0  0  0
  1 29  1  0  0  0  0
  2  1  1  0  0  0  0
  2  3  1  0  0  0  0
  2  6  1  0  0  0  0
  3  7  1  1  0  0  0
  5  2  1  0  0  0  0
  8 17  1  0  0  0  0
  8  3  1  0  0  0  0
  9  8  2  0  0  0  0
 10  9  1  0  0  0  0
 10 11  2  0  0  0  0
 11 12  1  0  0  0  0
 12 17  2  0  0  0  0
 12 13  1  0  0  0  0
 13 14  2  0  0  0  0
 14 22  1  0  0  0  0
 14 15  1  0  0  0  0
 15 23  1  0  0  0  0
 16 24  1  0  0  0  0
 16 15  2  0  0  0  0
 17 16  1  0  0  0  0
 18  9  1  0  0  0  0
 19 10  1  0  0  0  0
 20 11  1  0  0  0  0
 21 13  1  0  0  0  0
 25 26  1  0  0  0  0
 25 31  1  0  0  0  0
 26 32  1  0  0  0  0
 27 33  1  0  0  0  0
 27 26  2  0  0  0  0
 28 27  1  0  0  0  0
 29 28  2  0  0  0  0
 29 30  1  0  0  0  0
 30 25  2  0  0  0  0
 33 34  1  0  0  0  0
 34 35  1  0  0  0  0
 36 38  1  0  0  0  0
 36 34  1  0  0  0  0
 36 37  1  0  0  0  0
 39 38  1  0  0  0  0
 40 33  1  0  0  0  0
 40 39  1  0  0  0  0
M  END
>  <minimizedAffinity>
-6.09199667

$$$$

 OpenBabel03252508273D

 40 44  0  0  1  0  0  0  0  0999 V2000
   39.7070   29.7960   42.7410 C   0  0  1  0  0  0  0  0  0  0  0  0
   41.1450   29.5190   42.6280 C   0  0  0  0  0  0  0  0  0  0  0  0
   40.2940   30.1870   41.4760 C   0  0  2  0  0  0  0  0  0  0  0  0
   39.6030   30.4640   43.6680 H   0  0  0  0  0  0  0  0  0  0  0  0
   41.9330   30.2190   42.9340 H   0  0  0  0  0  0  0  0  0  0  0  0
   41.5190   28.5020   42.4510 H   0  0  0  0  0  0  0  0  0  0  0  0
   40.4780   29.4740   40.6160 H   0  0  0  0  0  0  0  0  0  0  0  0
   40.5830   31.5640   41.0650 C   0  0  0  0  0  0  0  0  0  0  0  0
   41.7720   32.2200   41.1480 C   0  0  0  0  0  0  0  0  0  0  0  0
   41.9800   33.5650   40.8710 C   0  0  0  0  0  0  0  0  0  0  0  0
   40.8510   34.2980   40.4700 C   0  0  0  0  0  0  0  0  0  0  0  0
   39.6220   33.6490   40.3750 C   0  0  0  0  0  0  0  0  0  0  0  0
   38.5550   34.3990   39.9200 C   0  0  0  0  0  0  0  0  0  0  0  0
   37.3230   33.7800   39.7420 C   0  0  0  0  0  0  0  0  0  0  0  0
   37.1640   32.4350   40.0120 C   0  0  0  0  0  0  0  0  0  0  0  0
   38.2600   31.7370   40.4640 C   0  0  0  0  0  0  0  0  0  0  0  0
   39.5060   32.3140   40.6660 C   0  0  0  0  0  0  0  0  0  0  0  0
   42.6180   31.6070   41.4630 H   0  0  0  0  0  0  0  0  0  0  0  0
   42.9490   34.0180   40.9560 H   0  0  0  0  0  0  0  0  0  0  0  0
   40.9820   35.3500   40.2510 H   0  0  0  0  0  0  0  0  0  0  0  0
   38.7030   35.4550   39.7120 H   0  0  0  0  0  0  0  0  0  0  0  0
   36.5450   34.4700   39.3790 H   0  0  0  0  0  0  0  0  0  0  0  0
   36.1580   32.1430   39.8120 H   0  0  0  0  0  0  0  0  0  0  0  0
   37.9210   30.7430   40.5140 H   0  0  0  0  0  0  0  0  0  0  0  0
   36.7320   27.7880   43.6170 C   0  0  0  0  0  0  0  0  0  0  0  0
   36.9480   26.5950   42.8350 C   0  0  0  0  0  0  0  0  0  0  0  0
   38.0990   26.5270   42.0250 C   0  0  0  0  0  0  0  0  0  0  0  0
   38.9430   27.5580   42.0100 N   0  0  0  0  0  0  0  0  0  0  0  0
   38.7090   28.6830   42.7700 C   0  0  0  0  0  0  0  0  0  0  0  0
   37.6380   28.7910   43.5470 N   0  0  0  0  0  0  0  0  0  0  0  0
   35.8420   27.8350   44.2380 H   0  0  0  0  0  0  0  0  0  0  0  0
   36.2360   25.8170   42.8960 H   0  0  0  0  0  0  0  0  0  0  0  0
   38.3360   25.3630   41.2450 N   0  0  0  0  0  0  0  0  0  0  0  0
   37.3370   24.3200   41.1180 C   0  0  0  0  0  3  0  0  0  0  0  0
   36.4940   24.6420   40.4730 H   0  0  0  0  0  0  0  0  0  0  0  0
   37.9200   23.0050   40.7220 C   0  0  0  0  0  3  0  0  0  0  0  0
   37.0700   22.3400   40.4580 H   0  0  0  0  0  0  0  0  0  0  0  0
   38.8420   23.0510   39.7110 O   0  0  0  0  0  0  0  0  0  0  0  0
   39.3190   24.2910   39.3750 C   0  0  0  0  0  2  0  0  0  0  0  0
   39.6000   25.1990   40.5560 C   0  0  0  0  0  2  0  0  0  0  0  0
  1 29  1  0  0  0  0
  1  4  1  1  0  0  0
  2  1  1  0  0  0  0
  2  5  1  0  0  0  0
  3  7  1  6  0  0  0
  3  2  1  0  0  0  0
  3  1  1  0  0  0  0
  6  2  1  0  0  0  0
  8  9  1  0  0  0  0
  8  3  1  0  0  0  0
  9 18  1  0  0  0  0
 10 19  1  0  0  0  0
 10  9  2  0  0  0  0
 11 10  1  0  0  0  0
 12 11  2  0  0  0  0
 12 17  1  0  0  0  0
 13 12  1  0  0  0  0
 14 13  2  0  0  0  0
 14 15  1  0  0  0  0
 15 16  2  0  0  0  0
 16 24  1  0  0  0  0
 16 17  1  0  0  0  0
 17  8  2  0  0  0  0
 20 11  1  0  0  0  0
 21 13  1  0  0  0  0
 22 14  1  0  0  0  0
 23 15  1  0  0  0  0
 25 31  1  0  0  0  0
 26 32  1  0  0  0  0
 26 25  2  0  0  0  0
 27 26  1  0  0  0  0
 28 27  2  0  0  0  0
 28 29  1  0  0  0  0
 29 30  2  0  0  0  0
 30 25  1  0  0  0  0
 33 27  1  0  0  0  0
 34 33  1  0  0  0  0
 35 34  1  0  0  0  0
 36 34  1  0  0  0  0
 37 36  1  0  0  0  0
 38 36  1  0  0  0  0
 39 38  1  0  0  0  0
 39 40  1  0  0  0  0
 40 33  1  0  0  0  0
M  END
>  <minimizedAffinity>
-6.03410864

$$$$

 OpenBabel03252508273D

 40 44  0  0  1  0  0  0  0  0999 V2000
   34.7130   28.8360   36.8080 C   0  0  1  0  0  0  0  0  0  0  0  0
   33.8650   27.7320   37.2790 C   0  0  0  0  0  0  0  0  0  0  0  0
   33.3860   29.2380   37.2300 C   0  0  2  0  0  0  0  0  0  0  0  0
   35.0190   28.5440   35.7420 H   0  0  0  0  0  0  0  0  0  0  0  0
   33.2140   27.1350   36.6280 H   0  0  0  0  0  0  0  0  0  0  0  0
   34.0090   27.2840   38.2710 H   0  0  0  0  0  0  0  0  0  0  0  0
   33.0910   29.4180   38.3090 H   0  0  0  0  0  0  0  0  0  0  0  0
   32.2930   29.6230   36.3330 C   0  0  0  0  0  0  0  0  0  0  0  0
   32.3370   29.7440   34.9790 C   0  0  0  0  0  0  0  0  0  0  0  0
   31.3190   30.2360   34.1730 C   0  0  0  0  0  0  0  0  0  0  0  0
   30.1460   30.6400   34.8310 C   0  0  0  0  0  0  0  0  0  0  0  0
   30.0740   30.5240   36.2170 C   0  0  0  0  0  0  0  0  0  0  0  0
   28.8790   30.8770   36.8110 C   0  0  0  0  0  0  0  0  0  0  0  0
   28.7330   30.7150   38.1840 C   0  0  0  0  0  0  0  0  0  0  0  0
   29.7640   30.2040   38.9460 C   0  0  0  0  0  0  0  0  0  0  0  0
   30.9340   29.8700   38.3030 C   0  0  0  0  0  0  0  0  0  0  0  0
   31.1280   30.0230   36.9380 C   0  0  0  0  0  0  0  0  0  0  0  0
   33.2690   29.4170   34.5160 H   0  0  0  0  0  0  0  0  0  0  0  0
   31.4230   30.3030   33.1070 H   0  0  0  0  0  0  0  0  0  0  0  0
   29.3360   31.0310   34.2280 H   0  0  0  0  0  0  0  0  0  0  0  0
   28.0790   31.2750   36.1920 H   0  0  0  0  0  0  0  0  0  0  0  0
   27.7430   31.0300   38.5510 H   0  0  0  0  0  0  0  0  0  0  0  0
   29.4650   30.1490   39.9690 H   0  0  0  0  0  0  0  0  0  0  0  0
   31.5200   29.4340   39.0590 H   0  0  0  0  0  0  0  0  0  0  0  0
   37.9230   30.4350   37.6970 C   0  0  0  0  0  0  0  0  0  0  0  0
   38.0760   30.0320   39.0740 C   0  0  0  0  0  0  0  0  0  0  0  0
   37.0660   29.2380   39.6530 C   0  0  0  0  0  0  0  0  0  0  0  0
   36.0140   28.8870   38.9140 N   0  0  0  0  0  0  0  0  0  0  0  0
   35.8980   29.2870   37.6010 C   0  0  0  0  0  0  0  0  0  0  0  0
   36.8240   30.0360   37.0140 N   0  0  0  0  0  0  0  0  0  0  0  0
   38.7040   31.0480   37.2560 H   0  0  0  0  0  0  0  0  0  0  0  0
   38.9370   30.3480   39.5980 H   0  0  0  0  0  0  0  0  0  0  0  0
   37.1920   28.8270   41.0070 N   0  0  0  0  0  0  0  0  0  0  0  0
   37.5920   29.7560   42.0470 C   0  0  0  0  0  3  0  0  0  0  0  0
   36.7790   30.4710   42.2860 H   0  0  0  0  0  0  0  0  0  0  0  0
   38.1560   29.0730   43.2470 C   0  0  0  0  0  3  0  0  0  0  0  0
   38.2390   29.8390   44.0460 H   0  0  0  0  0  0  0  0  0  0  0  0
   37.4580   27.9790   43.6840 O   0  0  0  0  0  0  0  0  0  0  0  0
   36.5050   27.4820   42.8330 C   0  0  0  0  0  2  0  0  0  0  0  0
   36.9180   27.4520   41.3750 C   0  0  0  0  0  2  0  0  0  0  0  0
  1  4  1  6  0  0  0
  1  3  1  0  0  0  0
  1  2  1  0  0  0  0
  1 29  1  0  0  0  0
  2  6  1  0  0  0  0
  3  2  1  0  0  0  0
  3  7  1  1  0  0  0
  5  2  1  0  0  0  0
  8 17  1  0  0  0  0
  8  3  1  0  0  0  0
  9  8  2  0  0  0  0
 10 11  2  0  0  0  0
 10  9  1  0  0  0  0
 11 12  1  0  0  0  0
 12 13  2  0  0  0  0
 12 17  1  0  0  0  0
 13 14  1  0  0  0  0
 14 22  1  0  0  0  0
 14 15  2  0  0  0  0
 15 23  1  0  0  0  0
 16 15  1  0  0  0  0
 16 24  1  0  0  0  0
 17 16  2  0  0  0  0
 18  9  1  0  0  0  0
 19 10  1  0  0  0  0
 20 11  1  0  0  0  0
 21 13  1  0  0  0  0
 25 26  1  0  0  0  0
 26 32  1  0  0  0  0
 26 27  2  0  0  0  0
 27 33  1  0  0  0  0
 28 27  1  0  0  0  0
 29 28  2  0  0  0  0
 30 29  1  0  0  0  0
 30 25  2  0  0  0  0
 31 25  1  0  0  0  0
 33 40  1  0  0  0  0
 33 34  1  0  0  0  0
 34 35  1  0  0  0  0
 34 36  1  0  0  0  0
 36 38  1  0  0  0  0
 36 37  1  0  0  0  0
 39 38  1  0  0  0  0
 40 39  1  0  0  0  0
M  END
>  <minimizedAffinity>
-6.02228737

$$$$
