
 OpenBabel03252508533D

 42 45  0  0  1  0  0  0  0  0999 V2000
   43.2910   34.3900   40.7420 C   0  0  0  0  0  0  0  0  0  0  0  0
   43.2330   35.5830   40.2750 O   0  0  0  0  0  0  0  0  0  0  0  0
   41.9200   33.9800   40.4990 N   0  0  0  0  0  0  0  0  0  0  0  0
   41.5130   33.9900   39.1150 C   0  0  0  0  0  0  0  0  0  0  0  0
   40.7160   35.2960   38.9500 C   0  0  0  0  0  0  0  0  0  0  0  0
   39.9550   35.5030   40.2540 C   0  0  0  0  0  0  0  0  0  0  0  0
   39.6170   34.1770   40.9350 C   0  0  0  0  0  0  0  0  0  0  0  0
   40.9130   33.5640   41.4510 C   0  0  1  0  0  0  0  0  0  0  0  0
   42.3490   34.0330   38.3950 H   0  0  0  0  0  0  0  0  0  0  0  0
   40.8140   33.1610   38.8560 H   0  0  0  0  0  0  0  0  0  0  0  0
   41.4030   36.1600   38.7980 H   0  0  0  0  0  0  0  0  0  0  0  0
   40.0350   35.2470   38.0820 H   0  0  0  0  0  0  0  0  0  0  0  0
   38.9610   35.9600   40.0000 H   0  0  0  0  0  0  0  0  0  0  0  0
   40.5320   36.1140   40.9610 H   0  0  0  0  0  0  0  0  0  0  0  0
   39.1280   33.5210   40.1780 H   0  0  0  0  0  0  0  0  0  0  0  0
   38.9190   34.4360   41.7430 H   0  0  0  0  0  0  0  0  0  0  0  0
   41.1270   33.9460   42.4720 H   0  0  0  0  0  0  0  0  0  0  0  0
   40.7200   32.1570   41.5170 N   0  0  2  0  0  0  0  0  0  0  0  0
   41.9760   31.5450   41.8960 C   0  0  0  0  0  3  0  0  0  0  0  0
   41.9710   31.2060   42.9570 H   0  0  0  0  0  0  0  0  0  0  0  0
   42.3690   30.4270   40.9570 C   0  0  0  0  0  3  0  0  0  0  0  0
   43.2460   29.9170   41.4060 H   0  0  0  0  0  0  0  0  0  0  0  0
   41.3650   29.4820   40.7980 O   0  0  0  0  0  0  0  0  0  0  0  0
   40.1210   30.0420   40.5940 C   0  0  0  0  0  2  0  0  0  0  0  0
   40.2410   31.5370   40.3200 C   0  0  0  0  0  2  0  0  0  0  0  0
   44.3660   33.7640   41.2890 O   0  0  0  0  0  0  0  0  0  0  0  0
   45.6960   34.0970   41.1300 C   0  0  0  0  0  0  0  0  0  0  0  0
   46.3380   34.7250   42.1930 C   0  0  0  0  0  0  0  0  0  0  0  0
   47.6960   35.0500   41.9950 C   0  0  0  0  0  0  0  0  0  0  0  0
   48.2780   34.7360   40.8030 N   0  0  0  0  0  0  0  0  0  0  0  0
   47.6100   34.1360   39.8250 C   0  0  0  0  0  0  0  0  0  0  0  0
   46.3190   33.8110   39.9750 N   0  0  0  0  0  0  0  0  0  0  0  0
   48.1880   35.5340   42.8180 H   0  0  0  0  0  0  0  0  0  0  0  0
   48.1300   33.9120   38.8950 H   0  0  0  0  0  0  0  0  0  0  0  0
   45.6230   35.0110   43.4160 C   0  0  0  0  0  0  0  0  0  0  0  0
   44.9900   36.2370   43.6400 C   0  0  0  0  0  0  0  0  0  0  0  0
   44.4430   36.0950   44.8910 C   0  0  0  0  0  0  0  0  0  0  0  0
   44.7250   34.8670   45.3980 N   0  0  0  0  0  0  0  0  0  0  0  0
   45.4360   34.2460   44.4760 N   0  0  0  0  0  0  0  0  0  0  0  0
   44.9350   37.1040   42.9860 H   0  0  0  0  0  0  0  0  0  0  0  0
   43.8660   36.8420   45.4240 H   0  0  0  0  0  0  0  0  0  0  0  0
   44.4120   34.5200   46.3480 H   0  0  0  0  0  0  0  0  0  0  0  0
  1 26  1  0  0  0  0
  2  1  2  0  0  0  0
  3  1  1  0  0  0  0
  3  8  1  0  0  0  0
  4  3  1  0  0  0  0
  5  4  1  0  0  0  0
  5  6  1  0  0  0  0
  6  7  1  0  0  0  0
  6 14  1  0  0  0  0
  7  8  1  0  0  0  0
  7 16  1  0  0  0  0
  8 18  1  0  0  0  0
  8 17  1  1  0  0  0
  9  4  1  0  0  0  0
 10  4  1  0  0  0  0
 11  5  1  0  0  0  0
 12  5  1  0  0  0  0
 13  6  1  0  0  0  0
 15  7  1  0  0  0  0
 18 25  1  6  0  0  0
 18 19  1  0  0  0  0
 19 20  1  0  0  0  0
 21 22  1  0  0  0  0
 21 19  1  0  0  0  0
 23 21  1  0  0  0  0
 24 23  1  0  0  0  0
 25 24  1  0  0  0  0
 27 26  1  0  0  0  0
 27 28  1  0  0  0  0
 28 35  1  0  0  0  0
 29 28  2  0  0  0  0
 29 33  1  0  0  0  0
 30 29  1  0  0  0  0
 31 32  1  0  0  0  0
 31 30  2  0  0  0  0
 32 27  2  0  0  0  0
 34 31  1  0  0  0  0
 35 36  1  0  0  0  0
 35 39  2  0  0  0  0
 36 37  2  0  0  0  0
 37 38  1  0  0  0  0
 37 41  1  0  0  0  0
 38 42  1  0  0  0  0
 39 38  1  0  0  0  0
 40 36  1  0  0  0  0
M  END
>  <minimizedAffinity>
-6.51452589

>  <minimizedRMSD>
0.550103247

$$$$
