
 OpenBabel03252504223D

 31 34  0  0  1  0  0  0  0  0999 V2000
   47.0960   33.4140   39.2110 C   0  0  0  0  0  0  0  0  0  0  0  0
   48.4340   33.1010   39.3890 C   0  0  0  0  0  0  0  0  0  0  0  0
   48.9860   33.2930   40.6690 C   0  0  0  0  0  0  0  0  0  0  0  0
   48.1560   33.7740   41.6410 N   0  0  0  0  0  0  0  0  0  0  0  0
   46.8710   34.0610   41.4210 C   0  0  0  0  0  0  0  0  0  0  0  0
   46.3230   33.8850   40.2050 N   0  0  0  0  0  0  0  0  0  0  0  0
   46.0750   34.5570   42.5000 N   0  0  0  0  0  0  0  0  0  0  0  0
   45.1920   35.5870   42.4430 C   0  0  0  0  0  0  0  0  0  0  0  0
   44.6410   35.7360   43.6820 N   0  0  0  0  0  0  0  0  0  0  0  0
   45.1960   34.7990   44.4650 C   0  0  0  0  0  0  0  0  0  0  0  0
   45.0450   34.4600   45.7850 C   0  0  0  0  0  0  0  0  0  0  0  0
   45.7210   33.4740   46.3450 N   0  0  0  0  0  0  0  0  0  0  0  0
   46.6160   32.7250   45.6510 C   0  0  0  0  0  0  0  0  0  0  0  0
   46.7600   33.0580   44.3600 N   0  0  0  0  0  0  0  0  0  0  0  0
   46.1010   34.0450   43.7470 C   0  0  0  0  0  0  0  0  0  0  0  0
   49.0950   32.7280   38.6410 H   0  0  0  0  0  0  0  0  0  0  0  0
   50.0050   33.0770   40.8850 H   0  0  0  0  0  0  0  0  0  0  0  0
   44.9420   36.2010   41.5880 H   0  0  0  0  0  0  0  0  0  0  0  0
   47.1410   31.9280   46.1580 H   0  0  0  0  0  0  0  0  0  0  0  0
   44.1450   35.1560   46.6310 N   0  0  0  0  0  0  0  0  0  0  0  0
   43.1950   34.8620   47.0110 H   0  0  0  0  0  0  0  0  0  0  0  0
   44.5210   36.1030   46.8920 H   0  0  0  0  0  0  0  0  0  0  0  0
   46.4620   33.1530   37.5250 S   0  0  0  0  0  0  0  0  0  0  0  0
   47.4910   30.0320   36.4070 H   0  0  0  0  0  0  0  0  0  0  0  0
   47.0860   30.9380   36.0840 N   0  0  0  0  0  0  0  0  0  0  0  0
   47.6940   32.0810   36.7120 C   0  0  1  0  0  0  0  0  0  0  0  0
   48.4010   32.9410   35.6850 C   0  0  0  0  0  0  0  0  0  0  0  0
   47.5900   33.4630   35.1150 H   0  0  0  0  0  0  0  0  0  0  0  0
   49.2060   32.2140   34.8460 O   0  0  0  0  0  0  0  0  0  0  0  0
   48.5880   31.1410   34.2340 C   0  0  0  0  0  0  0  0  0  0  0  0
   47.1620   30.9440   34.6460 C   0  0  0  0  0  0  0  0  0  0  0  0
  1  2  2  0  0  0  0
  1  6  1  0  0  0  0
  2  3  1  0  0  0  0
  3 17  1  0  0  0  0
  3  4  2  0  0  0  0
  5  4  1  0  0  0  0
  5  7  1  0  0  0  0
  6  5  2  0  0  0  0
  7 15  1  0  0  0  0
  8  7  1  0  0  0  0
  8  9  2  0  0  0  0
  9 10  1  0  0  0  0
 10 11  1  0  0  0  0
 11 12  2  0  0  0  0
 11 20  1  0  0  0  0
 13 19  1  0  0  0  0
 13 12  1  0  0  0  0
 14 13  2  0  0  0  0
 15 14  1  0  0  0  0
 15 10  2  0  0  0  0
 16  2  1  0  0  0  0
 18  8  1  0  0  0  0
 20 22  1  0  0  0  0
 20 21  1  0  0  0  0
 23  1  1  0  0  0  0
 25 24  1  0  0  0  0
 25 26  1  0  0  0  0
 26 23  1  6  0  0  0
 27 26  1  0  0  0  0
 28 27  1  0  0  0  0
 29 27  1  0  0  0  0
 30 31  1  0  0  0  0
 30 29  1  0  0  0  0
 31 25  1  0  0  0  0
M  END
>  <minimizedAffinity>
-5.88144636

>  <minimizedRMSD>
2.48816633

$$$$
