
 OpenBabel03252500593D

 37 39  0  0  0  0  0  0  0  0999 V2000
   36.0820   28.8600   40.0830 O   0  0  0  0  0  0  0  0  0  0  0  0
   36.6960   30.1980   40.5100 P   0  0  1  0  0  0  0  0  0  0  0  0
   35.5600   31.0090   41.4690 O   0  0  0  0  0  0  0  0  0  0  0  0
   35.8410   31.9610   41.5890 H   0  0  0  0  0  0  0  0  0  0  0  0
   38.0680   29.9060   41.4550 O   0  0  0  0  0  0  0  0  0  0  0  0
   38.6960   27.9090   42.5260 C   0  0  0  0  0  0  0  0  0  0  0  0
   38.8480   28.7570   41.4490 C   0  0  0  0  0  0  0  0  0  0  0  0
   39.7630   28.4080   40.4420 C   0  0  0  0  0  0  0  0  0  0  0  0
   40.4390   27.2570   40.5930 N   0  0  0  0  0  0  0  0  0  0  0  0
   40.2780   26.4460   41.6460 C   0  0  0  0  0  0  0  0  0  0  0  0
   39.4120   26.7750   42.6020 N   0  0  0  0  0  0  0  0  0  0  0  0
   39.8510   29.1010   39.6150 H   0  0  0  0  0  0  0  0  0  0  0  0
   40.8490   25.5180   41.7280 H   0  0  0  0  0  0  0  0  0  0  0  0
   37.7660   28.2140   43.6010 C   0  0  0  0  0  0  0  0  0  0  0  0
   38.1930   28.1320   44.6180 H   0  0  0  0  0  0  0  0  0  0  0  0
   37.4360   29.2810   43.5030 H   0  0  0  0  0  0  0  0  0  0  0  0
   36.5180   27.3780   43.4350 C   0  0  0  0  0  0  0  0  0  0  0  0
   35.9640   27.4440   44.4060 H   0  0  0  0  0  0  0  0  0  0  0  0
   36.8110   26.3370   43.2930 H   0  0  0  0  0  0  0  0  0  0  0  0
   35.8700   27.7890   42.6350 H   0  0  0  0  0  0  0  0  0  0  0  0
   37.0150   31.1610   39.1500 O   0  0  0  0  0  0  0  0  0  0  0  0
   38.0660   32.0610   39.2220 C   0  0  0  0  0  0  0  0  0  0  0  0
   37.9490   33.1320   40.1010 C   0  0  0  0  0  0  0  0  0  0  0  0
   38.9450   34.0840   40.2440 C   0  0  0  0  0  0  0  0  0  0  0  0
   40.0680   33.9500   39.4910 N   0  0  0  0  0  0  0  0  0  0  0  0
   40.1750   32.9170   38.6450 C   0  0  0  0  0  0  0  0  0  0  0  0
   39.2110   32.0110   38.5180 N   0  0  0  0  0  0  0  0  0  0  0  0
   37.1010   33.3130   40.7310 H   0  0  0  0  0  0  0  0  0  0  0  0
   38.8800   34.9150   40.9110 H   0  0  0  0  0  0  0  0  0  0  0  0
   41.3250   32.7230   37.8300 N   0  0  0  0  0  0  0  0  0  0  0  0
   41.6530   31.5080   37.1390 C   0  0  0  0  0  3  0  0  0  0  0  0
   41.1040   31.4830   36.1760 H   0  0  0  0  0  0  0  0  0  0  0  0
   43.1380   31.5350   36.7970 C   0  0  0  0  0  3  0  0  0  0  0  0
   43.3830   32.3110   36.0470 H   0  0  0  0  0  0  0  0  0  0  0  0
   43.8230   31.8820   37.9780 O   0  0  0  0  0  0  0  0  0  0  0  0
   43.7000   33.2850   38.0770 C   0  0  0  0  0  2  0  0  0  0  0  0
   42.3350   33.7250   37.5790 C   0  0  0  0  0  2  0  0  0  0  0  0
  2  1  2  6  0  0  0
  2  5  1  0  0  0  0
  2  3  1  0  0  0  0
  3  4  1  0  0  0  0
  6 11  1  0  0  0  0
  6 14  1  0  0  0  0
  7  5  1  0  0  0  0
  7  6  2  0  0  0  0
  8  9  2  0  0  0  0
  8  7  1  0  0  0  0
  9 10  1  0  0  0  0
 10 13  1  0  0  0  0
 10 11  2  0  0  0  0
 12  8  1  0  0  0  0
 14 15  1  0  0  0  0
 16 14  1  0  0  0  0
 17 14  1  0  0  0  0
 17 18  1  0  0  0  0
 19 17  1  0  0  0  0
 20 17  1  0  0  0  0
 21 22  1  0  0  0  0
 21  2  1  0  0  0  0
 22 23  1  0  0  0  0
 23 24  2  0  0  0  0
 23 28  1  0  0  0  0
 24 29  1  0  0  0  0
 25 24  1  0  0  0  0
 26 25  2  0  0  0  0
 27 26  1  0  0  0  0
 27 22  2  0  0  0  0
 30 26  1  0  0  0  0
 31 30  1  0  0  0  0
 32 31  1  0  0  0  0
 33 31  1  0  0  0  0
 33 35  1  0  0  0  0
 34 33  1  0  0  0  0
 35 36  1  0  0  0  0
 37 30  1  0  0  0  0
 37 36  1  0  0  0  0
M  END
>  <minimizedAffinity>
-5.93313789

$$$$

 OpenBabel03252500593D

 37 39  0  0  0  0  0  0  0  0999 V2000
   34.5420   29.1330   39.9330 O   0  0  0  0  0  0  0  0  0  0  0  0
   35.8510   29.5490   40.6100 P   0  0  1  0  0  0  0  0  0  0  0  0
   35.5580   30.9740   41.4780 O   0  0  0  0  0  0  0  0  0  0  0  0
   36.4280   31.3830   41.7570 H   0  0  0  0  0  0  0  0  0  0  0  0
   36.3160   28.3520   41.7110 O   0  0  0  0  0  0  0  0  0  0  0  0
   38.0370   26.7530   41.7920 C   0  0  0  0  0  0  0  0  0  0  0  0
   37.6140   28.0310   42.0860 C   0  0  0  0  0  0  0  0  0  0  0  0
   38.5070   28.9030   42.7310 C   0  0  0  0  0  0  0  0  0  0  0  0
   39.7300   28.4310   43.0230 N   0  0  0  0  0  0  0  0  0  0  0  0
   40.1230   27.1850   42.7300 C   0  0  0  0  0  0  0  0  0  0  0  0
   39.2790   26.3560   42.1190 N   0  0  0  0  0  0  0  0  0  0  0  0
   38.1350   29.8980   42.9430 H   0  0  0  0  0  0  0  0  0  0  0  0
   41.1280   26.8420   42.9870 H   0  0  0  0  0  0  0  0  0  0  0  0
   37.1620   25.8020   41.1260 C   0  0  0  0  0  0  0  0  0  0  0  0
   36.2100   26.2290   40.7580 H   0  0  0  0  0  0  0  0  0  0  0  0
   37.6820   25.4090   40.2130 H   0  0  0  0  0  0  0  0  0  0  0  0
   36.9450   24.6070   42.0240 C   0  0  0  0  0  0  0  0  0  0  0  0
   36.0750   24.0460   41.5960 H   0  0  0  0  0  0  0  0  0  0  0  0
   36.6540   24.9620   43.0140 H   0  0  0  0  0  0  0  0  0  0  0  0
   37.8280   23.9380   42.0140 H   0  0  0  0  0  0  0  0  0  0  0  0
   37.0380   29.8810   39.4450 O   0  0  0  0  0  0  0  0  0  0  0  0
   37.8230   31.0100   39.6180 C   0  0  0  0  0  0  0  0  0  0  0  0
   37.2280   32.2530   39.4330 C   0  0  0  0  0  0  0  0  0  0  0  0
   37.9280   33.4390   39.5830 C   0  0  0  0  0  0  0  0  0  0  0  0
   39.2420   33.3650   39.9220 N   0  0  0  0  0  0  0  0  0  0  0  0
   39.8100   32.1650   40.0980 C   0  0  0  0  0  0  0  0  0  0  0  0
   39.1250   31.0350   39.9510 N   0  0  0  0  0  0  0  0  0  0  0  0
   36.2000   32.4030   39.1650 H   0  0  0  0  0  0  0  0  0  0  0  0
   37.4950   34.4050   39.4460 H   0  0  0  0  0  0  0  0  0  0  0  0
   41.1810   32.0220   40.4540 N   0  0  0  0  0  0  0  0  0  0  0  0
   41.7830   30.8190   40.9530 C   0  0  0  0  0  3  0  0  0  0  0  0
   42.0540   30.1700   40.0960 H   0  0  0  0  0  0  0  0  0  0  0  0
   43.0880   31.1890   41.6520 C   0  0  0  0  0  3  0  0  0  0  0  0
   43.8510   31.5650   40.9450 H   0  0  0  0  0  0  0  0  0  0  0  0
   42.7920   32.2480   42.5320 O   0  0  0  0  0  0  0  0  0  0  0  0
   42.7620   33.4040   41.7210 C   0  0  0  0  0  2  0  0  0  0  0  0
   42.1680   33.0730   40.3640 C   0  0  0  0  0  2  0  0  0  0  0  0
  2  1  2  6  0  0  0
  2  3  1  0  0  0  0
  2  5  1  0  0  0  0
  3  4  1  0  0  0  0
  5  7  1  0  0  0  0
  6  7  2  0  0  0  0
  6 11  1  0  0  0  0
  7  8  1  0  0  0  0
  8 12  1  0  0  0  0
  8  9  2  0  0  0  0
 10 13  1  0  0  0  0
 10  9  1  0  0  0  0
 11 10  2  0  0  0  0
 14  6  1  0  0  0  0
 14 17  1  0  0  0  0
 15 14  1  0  0  0  0
 16 14  1  0  0  0  0
 17 19  1  0  0  0  0
 18 17  1  0  0  0  0
 20 17  1  0  0  0  0
 21 22  1  0  0  0  0
 21  2  1  0  0  0  0
 22 27  1  0  0  0  0
 23 24  1  0  0  0  0
 23 22  2  0  0  0  0
 24 25  2  0  0  0  0
 25 26  1  0  0  0  0
 26 30  1  0  0  0  0
 27 26  2  0  0  0  0
 28 23  1  0  0  0  0
 29 24  1  0  0  0  0
 30 31  1  0  0  0  0
 31 33  1  0  0  0  0
 32 31  1  0  0  0  0
 33 35  1  0  0  0  0
 34 33  1  0  0  0  0
 36 35  1  0  0  0  0
 37 30  1  0  0  0  0
 37 36  1  0  0  0  0
M  END
>  <minimizedAffinity>
-5.79233456

$$$$

 OpenBabel03252500593D

 37 39  0  0  0  0  0  0  0  0999 V2000
   36.5680   30.8390   38.9690 O   0  0  0  0  0  0  0  0  0  0  0  0
   36.7160   30.3120   40.4000 P   0  0  1  0  0  0  0  0  0  0  0  0
   35.6230   31.1550   41.3800 O   0  0  0  0  0  0  0  0  0  0  0  0
   35.8360   30.9880   42.3430 H   0  0  0  0  0  0  0  0  0  0  0  0
   36.2980   28.6730   40.4370 O   0  0  0  0  0  0  0  0  0  0  0  0
   37.3500   26.9550   41.6480 C   0  0  0  0  0  0  0  0  0  0  0  0
   37.1750   27.5950   40.4410 C   0  0  0  0  0  0  0  0  0  0  0  0
   37.8790   27.1250   39.3210 C   0  0  0  0  0  0  0  0  0  0  0  0
   38.6890   26.0680   39.5000 N   0  0  0  0  0  0  0  0  0  0  0  0
   38.8480   25.4580   40.6810 C   0  0  0  0  0  0  0  0  0  0  0  0
   38.1800   25.9020   41.7440 N   0  0  0  0  0  0  0  0  0  0  0  0
   37.7120   27.6560   38.3920 H   0  0  0  0  0  0  0  0  0  0  0  0
   39.5170   24.6000   40.7810 H   0  0  0  0  0  0  0  0  0  0  0  0
   36.6500   27.3930   42.8440 C   0  0  0  0  0  0  0  0  0  0  0  0
   35.6740   27.8780   42.6570 H   0  0  0  0  0  0  0  0  0  0  0  0
   36.4180   26.4960   43.4780 H   0  0  0  0  0  0  0  0  0  0  0  0
   37.5700   28.2570   43.6750 C   0  0  0  0  0  0  0  0  0  0  0  0
   36.9210   28.7780   44.4240 H   0  0  0  0  0  0  0  0  0  0  0  0
   38.0070   29.0220   43.0310 H   0  0  0  0  0  0  0  0  0  0  0  0
   38.3070   27.6380   44.2230 H   0  0  0  0  0  0  0  0  0  0  0  0
   38.2810   30.6150   40.9810 O   0  0  0  0  0  0  0  0  0  0  0  0
   38.9590   31.7160   40.4840 C   0  0  0  0  0  0  0  0  0  0  0  0
   38.5960   32.9730   40.9550 C   0  0  0  0  0  0  0  0  0  0  0  0
   39.2150   34.1330   40.5190 C   0  0  0  0  0  0  0  0  0  0  0  0
   40.2080   34.0200   39.5990 N   0  0  0  0  0  0  0  0  0  0  0  0
   40.5530   32.8060   39.1490 C   0  0  0  0  0  0  0  0  0  0  0  0
   39.9510   31.7010   39.5760 N   0  0  0  0  0  0  0  0  0  0  0  0
   37.8260   33.1530   41.6790 H   0  0  0  0  0  0  0  0  0  0  0  0
   38.9550   35.1090   40.8640 H   0  0  0  0  0  0  0  0  0  0  0  0
   41.5840   32.6220   38.1850 N   0  0  0  0  0  0  0  0  0  0  0  0
   42.2170   31.3700   37.8810 C   0  0  0  0  0  3  0  0  0  0  0  0
   41.5910   30.8190   37.1510 H   0  0  0  0  0  0  0  0  0  0  0  0
   43.5460   31.6570   37.1900 C   0  0  0  0  0  3  0  0  0  0  0  0
   43.4100   32.1070   36.1890 H   0  0  0  0  0  0  0  0  0  0  0  0
   44.2160   32.6140   37.9780 O   0  0  0  0  0  0  0  0  0  0  0  0
   43.6330   33.8520   37.6310 C   0  0  0  0  0  2  0  0  0  0  0  0
   42.1480   33.6740   37.3710 C   0  0  0  0  0  2  0  0  0  0  0  0
  2  1  2  6  0  0  0
  2  5  1  0  0  0  0
  2 21  1  0  0  0  0
  2  3  1  0  0  0  0
  3  4  1  0  0  0  0
  5  7  1  0  0  0  0
  6 11  1  0  0  0  0
  6 14  1  0  0  0  0
  7  6  2  0  0  0  0
  8  9  2  0  0  0  0
  8  7  1  0  0  0  0
  9 10  1  0  0  0  0
 10 13  1  0  0  0  0
 10 11  2  0  0  0  0
 12  8  1  0  0  0  0
 14 16  1  0  0  0  0
 14 17  1  0  0  0  0
 15 14  1  0  0  0  0
 17 20  1  0  0  0  0
 17 18  1  0  0  0  0
 19 17  1  0  0  0  0
 22 23  1  0  0  0  0
 22 21  1  0  0  0  0
 23 28  1  0  0  0  0
 24 29  1  0  0  0  0
 24 23  2  0  0  0  0
 25 24  1  0  0  0  0
 26 27  1  0  0  0  0
 26 25  2  0  0  0  0
 27 22  2  0  0  0  0
 30 26  1  0  0  0  0
 31 30  1  0  0  0  0
 32 31  1  0  0  0  0
 33 31  1  0  0  0  0
 33 35  1  0  0  0  0
 34 33  1  0  0  0  0
 36 35  1  0  0  0  0
 37 36  1  0  0  0  0
 37 30  1  0  0  0  0
M  END
>  <minimizedAffinity>
-5.76650238

$$$$

 OpenBabel03252500593D

 37 39  0  0  0  0  0  0  0  0999 V2000
   42.1790   34.1610   37.3090 O   0  0  0  0  0  0  0  0  0  0  0  0
   41.4450   32.9840   37.9580 P   0  0  1  0  0  0  0  0  0  0  0  0
   40.1800   32.5290   36.9300 O   0  0  0  0  0  0  0  0  0  0  0  0
   39.5600   31.9100   37.4130 H   0  0  0  0  0  0  0  0  0  0  0  0
   42.5060   31.6730   38.0970 O   0  0  0  0  0  0  0  0  0  0  0  0
   44.6950   31.5150   37.2550 C   0  0  0  0  0  0  0  0  0  0  0  0
   43.3620   31.1940   37.1130 C   0  0  0  0  0  0  0  0  0  0  0  0
   42.9700   30.4220   36.0080 C   0  0  0  0  0  0  0  0  0  0  0  0
   43.9300   30.0400   35.1490 N   0  0  0  0  0  0  0  0  0  0  0  0
   45.2210   30.3620   35.3020 C   0  0  0  0  0  0  0  0  0  0  0  0
   45.5940   31.0940   36.3500 N   0  0  0  0  0  0  0  0  0  0  0  0
   41.9140   30.1920   35.9340 H   0  0  0  0  0  0  0  0  0  0  0  0
   45.9690   30.0300   34.5790 H   0  0  0  0  0  0  0  0  0  0  0  0
   45.1650   32.3110   38.3770 C   0  0  0  0  0  0  0  0  0  0  0  0
   44.4330   32.4310   39.1980 H   0  0  0  0  0  0  0  0  0  0  0  0
   46.0480   31.7970   38.8410 H   0  0  0  0  0  0  0  0  0  0  0  0
   45.6790   33.6380   37.8690 C   0  0  0  0  0  0  0  0  0  0  0  0
   45.7730   34.3020   38.7660 H   0  0  0  0  0  0  0  0  0  0  0  0
   44.9260   34.0760   37.2120 H   0  0  0  0  0  0  0  0  0  0  0  0
   46.6820   33.5250   37.4120 H   0  0  0  0  0  0  0  0  0  0  0  0
   40.7710   33.4550   39.4420 O   0  0  0  0  0  0  0  0  0  0  0  0
   39.6470   32.7810   39.8900 C   0  0  0  0  0  0  0  0  0  0  0  0
   38.3990   33.2860   39.5410 C   0  0  0  0  0  0  0  0  0  0  0  0
   37.2180   32.6830   39.9400 C   0  0  0  0  0  0  0  0  0  0  0  0
   37.3000   31.5590   40.6990 N   0  0  0  0  0  0  0  0  0  0  0  0
   38.5040   31.0770   41.0320 C   0  0  0  0  0  0  0  0  0  0  0  0
   39.6300   31.6660   40.6420 N   0  0  0  0  0  0  0  0  0  0  0  0
   38.2430   34.1650   38.9460 H   0  0  0  0  0  0  0  0  0  0  0  0
   36.2490   33.0510   39.6850 H   0  0  0  0  0  0  0  0  0  0  0  0
   38.6570   29.9040   41.8250 N   0  0  0  0  0  0  0  0  0  0  0  0
   39.8730   29.1580   41.9710 C   0  0  0  0  0  3  0  0  0  0  0  0
   40.4950   29.6330   42.7560 H   0  0  0  0  0  0  0  0  0  0  0  0
   39.5230   27.7620   42.4750 C   0  0  0  0  0  3  0  0  0  0  0  0
   39.1250   27.7750   43.5070 H   0  0  0  0  0  0  0  0  0  0  0  0
   38.4920   27.2760   41.6470 O   0  0  0  0  0  0  0  0  0  0  0  0
   37.3120   27.8770   42.1370 C   0  0  0  0  0  2  0  0  0  0  0  0
   37.6020   29.2930   42.6010 C   0  0  0  0  0  2  0  0  0  0  0  0
  2  1  2  6  0  0  0
  2  5  1  0  0  0  0
  2 21  1  0  0  0  0
  3  4  1  0  0  0  0
  3  2  1  0  0  0  0
  6 14  1  0  0  0  0
  7  6  1  0  0  0  0
  7  5  1  0  0  0  0
  8  7  2  0  0  0  0
  9 10  2  0  0  0  0
  9  8  1  0  0  0  0
 10 11  1  0  0  0  0
 11  6  2  0  0  0  0
 12  8  1  0  0  0  0
 13 10  1  0  0  0  0
 14 16  1  0  0  0  0
 14 15  1  0  0  0  0
 17 14  1  0  0  0  0
 17 18  1  0  0  0  0
 19 17  1  0  0  0  0
 20 17  1  0  0  0  0
 21 22  1  0  0  0  0
 22 27  1  0  0  0  0
 23 22  2  0  0  0  0
 23 24  1  0  0  0  0
 24 25  2  0  0  0  0
 25 26  1  0  0  0  0
 26 30  1  0  0  0  0
 27 26  2  0  0  0  0
 28 23  1  0  0  0  0
 29 24  1  0  0  0  0
 30 31  1  0  0  0  0
 30 37  1  0  0  0  0
 31 33  1  0  0  0  0
 31 32  1  0  0  0  0
 33 34  1  0  0  0  0
 35 36  1  0  0  0  0
 35 33  1  0  0  0  0
 36 37  1  0  0  0  0
M  END
>  <minimizedAffinity>
-5.4786973

$$$$

 OpenBabel03252500593D

 37 39  0  0  0  0  0  0  0  0999 V2000
   36.8250   27.9540   39.6920 O   0  0  0  0  0  0  0  0  0  0  0  0
   36.4750   28.6170   41.0280 P   0  0  1  0  0  0  0  0  0  0  0  0
   34.8490   29.0860   40.9650 O   0  0  0  0  0  0  0  0  0  0  0  0
   34.6470   29.7010   41.7280 H   0  0  0  0  0  0  0  0  0  0  0  0
   36.6460   27.4860   42.2750 O   0  0  0  0  0  0  0  0  0  0  0  0
   37.9490   25.5360   42.4300 C   0  0  0  0  0  0  0  0  0  0  0  0
   37.8270   26.8840   42.6900 C   0  0  0  0  0  0  0  0  0  0  0  0
   38.8820   27.5420   43.3420 C   0  0  0  0  0  0  0  0  0  0  0  0
   39.9560   26.8080   43.6760 N   0  0  0  0  0  0  0  0  0  0  0  0
   40.0580   25.4980   43.4160 C   0  0  0  0  0  0  0  0  0  0  0  0
   39.0580   24.8720   42.7970 N   0  0  0  0  0  0  0  0  0  0  0  0
   38.7450   28.6010   43.5270 H   0  0  0  0  0  0  0  0  0  0  0  0
   40.9510   24.9400   43.7050 H   0  0  0  0  0  0  0  0  0  0  0  0
   36.8930   24.7970   41.7580 C   0  0  0  0  0  0  0  0  0  0  0  0
   36.0310   24.5360   42.4000 H   0  0  0  0  0  0  0  0  0  0  0  0
   36.4690   25.4360   40.9390 H   0  0  0  0  0  0  0  0  0  0  0  0
   37.4860   23.5880   41.0740 C   0  0  0  0  0  0  0  0  0  0  0  0
   36.6240   22.9230   40.8080 H   0  0  0  0  0  0  0  0  0  0  0  0
   38.1080   23.0500   41.7910 H   0  0  0  0  0  0  0  0  0  0  0  0
   38.0040   23.8760   40.1380 H   0  0  0  0  0  0  0  0  0  0  0  0
   37.4140   30.0110   41.2590 O   0  0  0  0  0  0  0  0  0  0  0  0
   37.9480   30.6290   40.1400 C   0  0  0  0  0  0  0  0  0  0  0  0
   37.0910   31.3610   39.3260 C   0  0  0  0  0  0  0  0  0  0  0  0
   37.5310   32.0140   38.1860 C   0  0  0  0  0  0  0  0  0  0  0  0
   38.8490   31.9250   37.8680 N   0  0  0  0  0  0  0  0  0  0  0  0
   39.6700   31.2180   38.6550 C   0  0  0  0  0  0  0  0  0  0  0  0
   39.2340   30.5960   39.7470 N   0  0  0  0  0  0  0  0  0  0  0  0
   36.0400   31.4830   39.5020 H   0  0  0  0  0  0  0  0  0  0  0  0
   36.8940   32.5820   37.5450 H   0  0  0  0  0  0  0  0  0  0  0  0
   41.0590   31.0870   38.3760 N   0  0  0  0  0  0  0  0  0  0  0  0
   42.0480   30.6200   39.3050 C   0  0  0  0  0  3  0  0  0  0  0  0
   42.0560   29.5110   39.2940 H   0  0  0  0  0  0  0  0  0  0  0  0
   43.4200   31.0730   38.8160 C   0  0  0  0  0  3  0  0  0  0  0  0
   43.7170   30.5710   37.8750 H   0  0  0  0  0  0  0  0  0  0  0  0
   43.3160   32.4480   38.5270 O   0  0  0  0  0  0  0  0  0  0  0  0
   42.7100   32.5130   37.2540 C   0  0  0  0  0  2  0  0  0  0  0  0
   41.6780   31.4090   37.1110 C   0  0  0  0  0  2  0  0  0  0  0  0
  2  1  2  6  0  0  0
  2 21  1  0  0  0  0
  2  5  1  0  0  0  0
  3  2  1  0  0  0  0
  3  4  1  0  0  0  0
  5  7  1  0  0  0  0
  6  7  2  0  0  0  0
  6 11  1  0  0  0  0
  7  8  1  0  0  0  0
  8 12  1  0  0  0  0
  8  9  2  0  0  0  0
 10  9  1  0  0  0  0
 10 13  1  0  0  0  0
 11 10  2  0  0  0  0
 14 15  1  0  0  0  0
 14  6  1  0  0  0  0
 16 14  1  0  0  0  0
 17 14  1  0  0  0  0
 17 19  1  0  0  0  0
 18 17  1  0  0  0  0
 20 17  1  0  0  0  0
 22 21  1  0  0  0  0
 23 28  1  0  0  0  0
 23 22  2  0  0  0  0
 24 23  1  0  0  0  0
 25 24  2  0  0  0  0
 25 26  1  0  0  0  0
 26 27  2  0  0  0  0
 27 22  1  0  0  0  0
 29 24  1  0  0  0  0
 30 26  1  0  0  0  0
 30 31  1  0  0  0  0
 32 31  1  0  0  0  0
 33 31  1  0  0  0  0
 34 33  1  0  0  0  0
 35 33  1  0  0  0  0
 36 35  1  0  0  0  0
 37 36  1  0  0  0  0
 37 30  1  0  0  0  0
M  END
>  <minimizedAffinity>
-5.43382502

$$$$

 OpenBabel03252500593D

 37 39  0  0  0  0  0  0  0  0999 V2000
   39.0830   32.2000   41.6040 O   0  0  0  0  0  0  0  0  0  0  0  0
   38.6960   32.6360   40.1870 P   0  0  1  0  0  0  0  0  0  0  0  0
   37.3150   33.6100   40.3020 O   0  0  0  0  0  0  0  0  0  0  0  0
   36.9170   33.7380   39.3940 H   0  0  0  0  0  0  0  0  0  0  0  0
   39.9430   33.5710   39.5300 O   0  0  0  0  0  0  0  0  0  0  0  0
   42.2640   33.4100   39.1950 C   0  0  0  0  0  0  0  0  0  0  0  0
   40.9950   33.1140   38.7460 C   0  0  0  0  0  0  0  0  0  0  0  0
   40.8560   32.3860   37.5530 C   0  0  0  0  0  0  0  0  0  0  0  0
   41.9810   32.0200   36.9180 N   0  0  0  0  0  0  0  0  0  0  0  0
   43.2070   32.3170   37.3680 C   0  0  0  0  0  0  0  0  0  0  0  0
   43.3410   33.0070   38.4990 N   0  0  0  0  0  0  0  0  0  0  0  0
   39.8420   32.1750   37.2370 H   0  0  0  0  0  0  0  0  0  0  0  0
   44.0950   31.9990   36.8190 H   0  0  0  0  0  0  0  0  0  0  0  0
   42.4760   34.1600   40.4220 C   0  0  0  0  0  0  0  0  0  0  0  0
   43.1910   34.9990   40.3330 H   0  0  0  0  0  0  0  0  0  0  0  0
   41.5050   34.6290   40.7320 H   0  0  0  0  0  0  0  0  0  0  0  0
   42.8480   33.2060   41.5330 C   0  0  0  0  0  0  0  0  0  0  0  0
   43.2540   33.8360   42.3650 H   0  0  0  0  0  0  0  0  0  0  0  0
   43.6550   32.5600   41.1850 H   0  0  0  0  0  0  0  0  0  0  0  0
   41.9550   32.6680   41.9090 H   0  0  0  0  0  0  0  0  0  0  0  0
   38.3050   31.2840   39.2400 O   0  0  0  0  0  0  0  0  0  0  0  0
   37.5460   30.2800   39.8190 C   0  0  0  0  0  0  0  0  0  0  0  0
   36.1610   30.3840   39.7460 C   0  0  0  0  0  0  0  0  0  0  0  0
   35.3180   29.4320   40.2940 C   0  0  0  0  0  0  0  0  0  0  0  0
   35.8810   28.3660   40.9210 N   0  0  0  0  0  0  0  0  0  0  0  0
   37.2150   28.2720   40.9890 C   0  0  0  0  0  0  0  0  0  0  0  0
   38.0130   29.1930   40.4580 N   0  0  0  0  0  0  0  0  0  0  0  0
   35.6350   31.1890   39.2710 H   0  0  0  0  0  0  0  0  0  0  0  0
   34.2530   29.4880   40.2520 H   0  0  0  0  0  0  0  0  0  0  0  0
   37.8650   27.1800   41.6310 N   0  0  0  0  0  0  0  0  0  0  0  0
   39.2520   26.8440   41.4880 C   0  0  0  0  0  3  0  0  0  0  0  0
   39.8470   27.4650   42.1890 H   0  0  0  0  0  0  0  0  0  0  0  0
   39.4430   25.3930   41.9180 C   0  0  0  0  0  3  0  0  0  0  0  0
   39.2720   25.2500   43.0020 H   0  0  0  0  0  0  0  0  0  0  0  0
   38.4610   24.6370   41.2480 O   0  0  0  0  0  0  0  0  0  0  0  0
   37.2780   24.8270   41.9940 C   0  0  0  0  0  2  0  0  0  0  0  0
   37.2170   26.2480   42.5250 C   0  0  0  0  0  2  0  0  0  0  0  0
  2  3  1  0  0  0  0
  2  1  2  1  0  0  0
  4  3  1  0  0  0  0
  5  2  1  0  0  0  0
  6 14  1  0  0  0  0
  7  6  1  0  0  0  0
  7  5  1  0  0  0  0
  8  7  2  0  0  0  0
  9 10  2  0  0  0  0
  9  8  1  0  0  0  0
 10 11  1  0  0  0  0
 11  6  2  0  0  0  0
 12  8  1  0  0  0  0
 13 10  1  0  0  0  0
 14 16  1  0  0  0  0
 14 17  1  0  0  0  0
 15 14  1  0  0  0  0
 17 20  1  0  0  0  0
 17 18  1  0  0  0  0
 19 17  1  0  0  0  0
 21 22  1  0  0  0  0
 21  2  1  0  0  0  0
 22 27  1  0  0  0  0
 23 22  2  0  0  0  0
 23 24  1  0  0  0  0
 24 25  2  0  0  0  0
 25 26  1  0  0  0  0
 26 30  1  0  0  0  0
 27 26  2  0  0  0  0
 28 23  1  0  0  0  0
 29 24  1  0  0  0  0
 30 37  1  0  0  0  0
 31 30  1  0  0  0  0
 31 33  1  0  0  0  0
 31 32  1  0  0  0  0
 33 34  1  0  0  0  0
 35 33  1  0  0  0  0
 35 36  1  0  0  0  0
 36 37  1  0  0  0  0
M  END
>  <minimizedAffinity>
-5.36306667

$$$$

 OpenBabel03252500593D

 37 39  0  0  0  0  0  0  0  0999 V2000
   36.4280   27.4790   43.6800 O   0  0  0  0  0  0  0  0  0  0  0  0
   37.2820   28.2630   42.6780 P   0  0  1  0  0  0  0  0  0  0  0  0
   38.0590   29.5100   43.5200 O   0  0  0  0  0  0  0  0  0  0  0  0
   38.4540   30.1600   42.8700 H   0  0  0  0  0  0  0  0  0  0  0  0
   38.4700   27.2430   42.0380 O   0  0  0  0  0  0  0  0  0  0  0  0
   38.8890   24.9300   42.0530 C   0  0  0  0  0  0  0  0  0  0  0  0
   38.2660   26.0010   41.4500 C   0  0  0  0  0  0  0  0  0  0  0  0
   37.4830   25.7680   40.3080 C   0  0  0  0  0  0  0  0  0  0  0  0
   37.3910   24.5020   39.8690 N   0  0  0  0  0  0  0  0  0  0  0  0
   38.0040   23.4730   40.4670 C   0  0  0  0  0  0  0  0  0  0  0  0
   38.7470   23.6920   41.5510 N   0  0  0  0  0  0  0  0  0  0  0  0
   37.0110   26.6370   39.8660 H   0  0  0  0  0  0  0  0  0  0  0  0
   37.9010   22.4580   40.0770 H   0  0  0  0  0  0  0  0  0  0  0  0
   39.7120   25.1040   43.2380 C   0  0  0  0  0  0  0  0  0  0  0  0
   39.4520   25.9830   43.8570 H   0  0  0  0  0  0  0  0  0  0  0  0
   39.5710   24.2170   43.9110 H   0  0  0  0  0  0  0  0  0  0  0  0
   41.1700   25.0940   42.8410 C   0  0  0  0  0  0  0  0  0  0  0  0
   41.7380   25.4920   43.7210 H   0  0  0  0  0  0  0  0  0  0  0  0
   41.3120   25.7920   42.0150 H   0  0  0  0  0  0  0  0  0  0  0  0
   41.5190   24.0620   42.6400 H   0  0  0  0  0  0  0  0  0  0  0  0
   36.2980   28.9690   41.4890 O   0  0  0  0  0  0  0  0  0  0  0  0
   36.9110   29.7110   40.4930 C   0  0  0  0  0  0  0  0  0  0  0  0
   36.2470   29.8490   39.2800 C   0  0  0  0  0  0  0  0  0  0  0  0
   36.7770   30.5720   38.2230 C   0  0  0  0  0  0  0  0  0  0  0  0
   37.9910   31.1580   38.3970 N   0  0  0  0  0  0  0  0  0  0  0  0
   38.6260   31.0200   39.5670 C   0  0  0  0  0  0  0  0  0  0  0  0
   38.1050   30.3250   40.5730 N   0  0  0  0  0  0  0  0  0  0  0  0
   35.2880   29.4220   39.0580 H   0  0  0  0  0  0  0  0  0  0  0  0
   36.2870   30.6930   37.2830 H   0  0  0  0  0  0  0  0  0  0  0  0
   39.8990   31.6100   39.8110 N   0  0  0  0  0  0  0  0  0  0  0  0
   40.5010   31.7720   41.1030 C   0  0  0  0  0  3  0  0  0  0  0  0
   41.0100   30.8270   41.3840 H   0  0  0  0  0  0  0  0  0  0  0  0
   41.5850   32.8390   40.9980 C   0  0  0  0  0  3  0  0  0  0  0  0
   42.4390   32.5110   40.3750 H   0  0  0  0  0  0  0  0  0  0  0  0
   41.0070   33.9450   40.3460 O   0  0  0  0  0  0  0  0  0  0  0  0
   41.0310   33.6170   38.9730 C   0  0  0  0  0  2  0  0  0  0  0  0
   40.7730   32.1330   38.7860 C   0  0  0  0  0  2  0  0  0  0  0  0
  2  3  1  0  0  0  0
  2  1  2  1  0  0  0
  4  3  1  0  0  0  0
  5  2  1  0  0  0  0
  6 14  1  0  0  0  0
  7  5  1  0  0  0  0
  7  6  2  0  0  0  0
  8  7  1  0  0  0  0
  9  8  2  0  0  0  0
  9 10  1  0  0  0  0
 10 11  2  0  0  0  0
 11  6  1  0  0  0  0
 12  8  1  0  0  0  0
 13 10  1  0  0  0  0
 14 15  1  0  0  0  0
 14 16  1  0  0  0  0
 17 14  1  0  0  0  0
 17 18  1  0  0  0  0
 19 17  1  0  0  0  0
 20 17  1  0  0  0  0
 21  2  1  0  0  0  0
 22 27  1  0  0  0  0
 22 21  1  0  0  0  0
 23 22  2  0  0  0  0
 24 25  2  0  0  0  0
 24 23  1  0  0  0  0
 25 26  1  0  0  0  0
 26 30  1  0  0  0  0
 26 27  2  0  0  0  0
 28 23  1  0  0  0  0
 29 24  1  0  0  0  0
 30 31  1  0  0  0  0
 31 32  1  0  0  0  0
 33 31  1  0  0  0  0
 34 33  1  0  0  0  0
 35 33  1  0  0  0  0
 36 35  1  0  0  0  0
 37 36  1  0  0  0  0
 37 30  1  0  0  0  0
M  END
>  <minimizedAffinity>
-5.25059652

$$$$

 OpenBabel03252500593D

 37 39  0  0  0  0  0  0  0  0999 V2000
   37.4540   29.0450   37.1470 O   0  0  0  0  0  0  0  0  0  0  0  0
   36.8730   29.2210   38.5540 P   0  0  1  0  0  0  0  0  0  0  0  0
   35.4130   28.3670   38.6240 O   0  0  0  0  0  0  0  0  0  0  0  0
   34.9090   28.6280   39.4480 H   0  0  0  0  0  0  0  0  0  0  0  0
   37.9320   28.5420   39.6850 O   0  0  0  0  0  0  0  0  0  0  0  0
   37.3530   27.1290   41.4720 C   0  0  0  0  0  0  0  0  0  0  0  0
   37.7030   28.3920   41.0470 C   0  0  0  0  0  0  0  0  0  0  0  0
   37.8020   29.4190   42.0000 C   0  0  0  0  0  0  0  0  0  0  0  0
   37.5450   29.1010   43.2790 N   0  0  0  0  0  0  0  0  0  0  0  0
   37.2060   27.8680   43.6740 C   0  0  0  0  0  0  0  0  0  0  0  0
   37.1120   26.8930   42.7720 N   0  0  0  0  0  0  0  0  0  0  0  0
   38.0790   30.3960   41.6240 H   0  0  0  0  0  0  0  0  0  0  0  0
   37.0070   27.6540   44.7260 H   0  0  0  0  0  0  0  0  0  0  0  0
   37.2340   26.0230   40.5360 C   0  0  0  0  0  0  0  0  0  0  0  0
   36.5110   26.1880   39.7140 H   0  0  0  0  0  0  0  0  0  0  0  0
   38.2240   25.8670   40.0310 H   0  0  0  0  0  0  0  0  0  0  0  0
   36.9540   24.7490   41.2980 C   0  0  0  0  0  0  0  0  0  0  0  0
   36.6100   23.9990   40.5410 H   0  0  0  0  0  0  0  0  0  0  0  0
   36.1250   24.9280   41.9850 H   0  0  0  0  0  0  0  0  0  0  0  0
   37.8760   24.3630   41.7770 H   0  0  0  0  0  0  0  0  0  0  0  0
   36.5370   30.8570   38.8520 O   0  0  0  0  0  0  0  0  0  0  0  0
   37.6040   31.7100   39.0830 C   0  0  0  0  0  0  0  0  0  0  0  0
   37.4690   32.6700   40.0790 C   0  0  0  0  0  0  0  0  0  0  0  0
   38.4790   33.5670   40.3840 C   0  0  0  0  0  0  0  0  0  0  0  0
   39.6360   33.4920   39.6750 N   0  0  0  0  0  0  0  0  0  0  0  0
   39.7600   32.5650   38.7160 C   0  0  0  0  0  0  0  0  0  0  0  0
   38.7820   31.7100   38.4340 N   0  0  0  0  0  0  0  0  0  0  0  0
   36.5940   32.8000   40.6860 H   0  0  0  0  0  0  0  0  0  0  0  0
   38.4000   34.3140   41.1430 H   0  0  0  0  0  0  0  0  0  0  0  0
   40.9450   32.4350   37.9390 N   0  0  0  0  0  0  0  0  0  0  0  0
   41.2780   31.3030   37.1220 C   0  0  0  0  0  3  0  0  0  0  0  0
   40.7780   31.4100   36.1380 H   0  0  0  0  0  0  0  0  0  0  0  0
   42.7790   31.3250   36.8560 C   0  0  0  0  0  3  0  0  0  0  0  0
   43.0800   32.1780   36.2190 H   0  0  0  0  0  0  0  0  0  0  0  0
   43.4110   31.5070   38.1020 O   0  0  0  0  0  0  0  0  0  0  0  0
   43.3170   32.8910   38.3650 C   0  0  0  0  0  2  0  0  0  0  0  0
   41.9910   33.4290   37.8600 C   0  0  0  0  0  2  0  0  0  0  0  0
  2  1  2  6  0  0  0
  2  3  1  0  0  0  0
  2 21  1  0  0  0  0
  2  5  1  0  0  0  0
  3  4  1  0  0  0  0
  5  7  1  0  0  0  0
  6 11  1  0  0  0  0
  7  6  2  0  0  0  0
  7  8  1  0  0  0  0
  8  9  2  0  0  0  0
  9 10  1  0  0  0  0
 10 13  1  0  0  0  0
 11 10  2  0  0  0  0
 12  8  1  0  0  0  0
 14 17  1  0  0  0  0
 14  6  1  0  0  0  0
 15 14  1  0  0  0  0
 16 14  1  0  0  0  0
 17 20  1  0  0  0  0
 17 19  1  0  0  0  0
 18 17  1  0  0  0  0
 21 22  1  0  0  0  0
 22 23  1  0  0  0  0
 23 24  2  0  0  0  0
 23 28  1  0  0  0  0
 24 29  1  0  0  0  0
 25 24  1  0  0  0  0
 26 25  2  0  0  0  0
 27 26  1  0  0  0  0
 27 22  2  0  0  0  0
 30 26  1  0  0  0  0
 31 30  1  0  0  0  0
 32 31  1  0  0  0  0
 33 31  1  0  0  0  0
 33 35  1  0  0  0  0
 34 33  1  0  0  0  0
 35 36  1  0  0  0  0
 37 30  1  0  0  0  0
 37 36  1  0  0  0  0
M  END
>  <minimizedAffinity>
-5.24671888

$$$$

 OpenBabel03252500593D

 37 39  0  0  0  0  0  0  0  0999 V2000
   37.2870   29.0510   39.5420 O   0  0  0  0  0  0  0  0  0  0  0  0
   36.6770   30.1490   40.4190 P   0  0  1  0  0  0  0  0  0  0  0  0
   35.0590   29.7430   40.7090 O   0  0  0  0  0  0  0  0  0  0  0  0
   34.5790   30.5310   41.0970 H   0  0  0  0  0  0  0  0  0  0  0  0
   37.4820   30.1880   41.9060 O   0  0  0  0  0  0  0  0  0  0  0  0
   39.5910   29.3110   42.4650 C   0  0  0  0  0  0  0  0  0  0  0  0
   38.2210   29.1580   42.4740 C   0  0  0  0  0  0  0  0  0  0  0  0
   37.6780   27.9950   43.0450 C   0  0  0  0  0  0  0  0  0  0  0  0
   38.5390   27.0960   43.5510 N   0  0  0  0  0  0  0  0  0  0  0  0
   39.8670   27.2620   43.5330 C   0  0  0  0  0  0  0  0  0  0  0  0
   40.3830   28.3640   42.9920 N   0  0  0  0  0  0  0  0  0  0  0  0
   36.5980   27.9140   43.0310 H   0  0  0  0  0  0  0  0  0  0  0  0
   40.5300   26.5040   43.9570 H   0  0  0  0  0  0  0  0  0  0  0  0
   40.2140   30.4920   41.8900 C   0  0  0  0  0  0  0  0  0  0  0  0
   39.5070   31.2230   41.4560 H   0  0  0  0  0  0  0  0  0  0  0  0
   40.7550   31.0470   42.7010 H   0  0  0  0  0  0  0  0  0  0  0  0
   41.2750   30.0660   40.9020 C   0  0  0  0  0  0  0  0  0  0  0  0
   41.5310   30.9770   40.3030 H   0  0  0  0  0  0  0  0  0  0  0  0
   40.8440   29.3330   40.2190 H   0  0  0  0  0  0  0  0  0  0  0  0
   42.1910   29.7270   41.4260 H   0  0  0  0  0  0  0  0  0  0  0  0
   36.7050   31.6380   39.6060 O   0  0  0  0  0  0  0  0  0  0  0  0
   37.9090   32.3210   39.5400 C   0  0  0  0  0  0  0  0  0  0  0  0
   38.0850   33.4150   40.3800 C   0  0  0  0  0  0  0  0  0  0  0  0
   39.2520   34.1610   40.3880 C   0  0  0  0  0  0  0  0  0  0  0  0
   40.2480   33.7970   39.5390 N   0  0  0  0  0  0  0  0  0  0  0  0
   40.0730   32.7430   38.7320 C   0  0  0  0  0  0  0  0  0  0  0  0
   38.9470   32.0360   38.7350 N   0  0  0  0  0  0  0  0  0  0  0  0
   37.3540   33.7700   41.0790 H   0  0  0  0  0  0  0  0  0  0  0  0
   39.4120   35.0040   41.0230 H   0  0  0  0  0  0  0  0  0  0  0  0
   41.0780   32.3120   37.8210 N   0  0  0  0  0  0  0  0  0  0  0  0
   41.0990   31.0420   37.1540 C   0  0  0  0  0  3  0  0  0  0  0  0
   40.4610   31.0990   36.2490 H   0  0  0  0  0  0  0  0  0  0  0  0
   42.5210   30.7750   36.6730 C   0  0  0  0  0  3  0  0  0  0  0  0
   42.8310   31.4720   35.8710 H   0  0  0  0  0  0  0  0  0  0  0  0
   43.3740   31.0120   37.7680 O   0  0  0  0  0  0  0  0  0  0  0  0
   43.5280   32.4140   37.8190 C   0  0  0  0  0  2  0  0  0  0  0  0
   42.2280   33.0960   37.4340 C   0  0  0  0  0  2  0  0  0  0  0  0
  2  1  2  6  0  0  0
  2  3  1  0  0  0  0
  2  5  1  0  0  0  0
  3  4  1  0  0  0  0
  5  7  1  0  0  0  0
  6  7  2  0  0  0  0
  6 11  1  0  0  0  0
  7  8  1  0  0  0  0
  8  9  2  0  0  0  0
 10  9  1  0  0  0  0
 10 13  1  0  0  0  0
 11 10  2  0  0  0  0
 12  8  1  0  0  0  0
 14  6  1  0  0  0  0
 14 16  1  0  0  0  0
 15 14  1  0  0  0  0
 17 20  1  0  0  0  0
 17 14  1  0  0  0  0
 18 17  1  0  0  0  0
 19 17  1  0  0  0  0
 21  2  1  0  0  0  0
 22 21  1  0  0  0  0
 22 23  1  0  0  0  0
 23 24  2  0  0  0  0
 23 28  1  0  0  0  0
 24 29  1  0  0  0  0
 25 24  1  0  0  0  0
 26 27  1  0  0  0  0
 26 25  2  0  0  0  0
 27 22  2  0  0  0  0
 30 26  1  0  0  0  0
 31 30  1  0  0  0  0
 32 31  1  0  0  0  0
 33 31  1  0  0  0  0
 33 35  1  0  0  0  0
 34 33  1  0  0  0  0
 35 36  1  0  0  0  0
 37 36  1  0  0  0  0
 37 30  1  0  0  0  0
M  END
>  <minimizedAffinity>
-5.23358345

$$$$
