
 OpenBabel03252508533D

 42 45  0  0  1  0  0  0  0  0999 V2000
   43.4320   34.4700   40.7630 C   0  0  0  0  0  0  0  0  0  0  0  0
   43.3480   35.7370   40.5890 O   0  0  0  0  0  0  0  0  0  0  0  0
   42.0860   34.0920   40.3690 N   0  0  0  0  0  0  0  0  0  0  0  0
   41.7300   34.4190   39.0110 C   0  0  0  0  0  0  0  0  0  0  0  0
   40.8930   35.7050   39.1220 C   0  0  0  0  0  0  0  0  0  0  0  0
   40.0770   35.5770   40.4030 C   0  0  0  0  0  0  0  0  0  0  0  0
   39.7630   34.1180   40.7370 C   0  0  0  0  0  0  0  0  0  0  0  0
   41.0600   33.4360   41.1510 C   0  0  1  0  0  0  0  0  0  0  0  0
   42.5910   34.6530   38.3590 H   0  0  0  0  0  0  0  0  0  0  0  0
   41.0720   33.6570   38.5330 H   0  0  0  0  0  0  0  0  0  0  0  0
   41.5530   36.5980   39.2090 H   0  0  0  0  0  0  0  0  0  0  0  0
   40.2470   35.8450   38.2380 H   0  0  0  0  0  0  0  0  0  0  0  0
   39.0780   36.0540   40.2200 H   0  0  0  0  0  0  0  0  0  0  0  0
   40.6060   36.0180   41.2590 H   0  0  0  0  0  0  0  0  0  0  0  0
   39.3270   33.6480   39.8260 H   0  0  0  0  0  0  0  0  0  0  0  0
   39.0260   34.1600   41.5510 H   0  0  0  0  0  0  0  0  0  0  0  0
   41.2220   33.5710   42.2420 H   0  0  0  0  0  0  0  0  0  0  0  0
   40.9170   32.0490   40.8750 N   0  0  2  0  0  0  0  0  0  0  0  0
   39.6330   31.6160   41.3840 C   0  0  0  0  0  3  0  0  0  0  0  0
   38.8920   31.4610   40.5660 H   0  0  0  0  0  0  0  0  0  0  0  0
   39.7540   30.3920   42.2640 C   0  0  0  0  0  3  0  0  0  0  0  0
   38.7240   30.0390   42.4760 H   0  0  0  0  0  0  0  0  0  0  0  0
   40.4390   29.3540   41.6470 O   0  0  0  0  0  0  0  0  0  0  0  0
   41.5920   29.7670   41.0120 C   0  0  0  0  0  2  0  0  0  0  0  0
   41.9400   31.2000   41.4020 C   0  0  0  0  0  2  0  0  0  0  0  0
   44.5080   33.7610   41.1950 O   0  0  0  0  0  0  0  0  0  0  0  0
   45.8370   34.1180   41.0960 C   0  0  0  0  0  0  0  0  0  0  0  0
   46.4430   34.6760   42.2180 C   0  0  0  0  0  0  0  0  0  0  0  0
   47.8010   35.0280   42.0790 C   0  0  0  0  0  0  0  0  0  0  0  0
   48.4180   34.8070   40.8840 N   0  0  0  0  0  0  0  0  0  0  0  0
   47.7840   34.2700   39.8490 C   0  0  0  0  0  0  0  0  0  0  0  0
   46.4940   33.9220   39.9410 N   0  0  0  0  0  0  0  0  0  0  0  0
   48.2660   35.4580   42.9480 H   0  0  0  0  0  0  0  0  0  0  0  0
   48.3300   34.1180   38.9200 H   0  0  0  0  0  0  0  0  0  0  0  0
   45.6930   34.8670   43.4380 C   0  0  0  0  0  0  0  0  0  0  0  0
   45.0520   36.0730   43.7380 C   0  0  0  0  0  0  0  0  0  0  0  0
   44.4700   35.8350   44.9580 C   0  0  0  0  0  0  0  0  0  0  0  0
   44.7370   34.5700   45.3760 N   0  0  0  0  0  0  0  0  0  0  0  0
   45.4760   34.0220   44.4290 N   0  0  0  0  0  0  0  0  0  0  0  0
   45.0160   36.9880   43.1530 H   0  0  0  0  0  0  0  0  0  0  0  0
   43.8770   36.5390   45.5310 H   0  0  0  0  0  0  0  0  0  0  0  0
   44.3980   34.1510   46.2870 H   0  0  0  0  0  0  0  0  0  0  0  0
  1 26  1  0  0  0  0
  2  1  2  0  0  0  0
  3  1  1  0  0  0  0
  3  8  1  0  0  0  0
  4  5  1  0  0  0  0
  4  3  1  0  0  0  0
  5 11  1  0  0  0  0
  5  6  1  0  0  0  0
  6  7  1  0  0  0  0
  6 14  1  0  0  0  0
  7  8  1  0  0  0  0
  7 16  1  0  0  0  0
  8 17  1  1  0  0  0
  9  4  1  0  0  0  0
 10  4  1  0  0  0  0
 12  5  1  0  0  0  0
 13  6  1  0  0  0  0
 15  7  1  0  0  0  0
 18  8  1  0  0  0  0
 18 19  1  0  0  0  0
 18 25  1  1  0  0  0
 19 21  1  0  0  0  0
 20 19  1  0  0  0  0
 21 22  1  0  0  0  0
 23 21  1  0  0  0  0
 24 25  1  0  0  0  0
 24 23  1  0  0  0  0
 27 26  1  0  0  0  0
 27 28  1  0  0  0  0
 28 35  1  0  0  0  0
 29 28  2  0  0  0  0
 29 33  1  0  0  0  0
 30 29  1  0  0  0  0
 31 32  1  0  0  0  0
 31 30  2  0  0  0  0
 32 27  2  0  0  0  0
 34 31  1  0  0  0  0
 35 36  1  0  0  0  0
 35 39  2  0  0  0  0
 36 37  2  0  0  0  0
 37 38  1  0  0  0  0
 37 41  1  0  0  0  0
 38 42  1  0  0  0  0
 39 38  1  0  0  0  0
 40 36  1  0  0  0  0
M  END
>  <minimizedAffinity>
-6.60205841

>  <minimizedRMSD>
0.730597198

$$$$
