
 OpenBabel03252508533D

 42 45  0  0  1  0  0  0  0  0999 V2000
   43.2910   34.3900   40.7390 C   0  0  0  0  0  0  0  0  0  0  0  0
   43.2330   35.5820   40.2710 O   0  0  0  0  0  0  0  0  0  0  0  0
   41.9200   33.9780   40.4950 N   0  0  0  0  0  0  0  0  0  0  0  0
   41.5140   33.9870   39.1120 C   0  0  0  0  0  0  0  0  0  0  0  0
   40.7170   35.2920   38.9440 C   0  0  0  0  0  0  0  0  0  0  0  0
   39.9550   35.5010   40.2470 C   0  0  0  0  0  0  0  0  0  0  0  0
   39.6170   34.1760   40.9300 C   0  0  0  0  0  0  0  0  0  0  0  0
   40.9120   33.5640   41.4480 C   0  0  1  0  0  0  0  0  0  0  0  0
   42.3510   34.0290   38.3920 H   0  0  0  0  0  0  0  0  0  0  0  0
   40.8150   33.1570   38.8530 H   0  0  0  0  0  0  0  0  0  0  0  0
   41.4040   36.1560   38.7910 H   0  0  0  0  0  0  0  0  0  0  0  0
   40.0370   35.2420   38.0750 H   0  0  0  0  0  0  0  0  0  0  0  0
   38.9610   35.9570   39.9910 H   0  0  0  0  0  0  0  0  0  0  0  0
   40.5320   36.1130   40.9540 H   0  0  0  0  0  0  0  0  0  0  0  0
   39.1290   33.5190   40.1740 H   0  0  0  0  0  0  0  0  0  0  0  0
   38.9180   34.4360   41.7370 H   0  0  0  0  0  0  0  0  0  0  0  0
   41.1260   33.9480   42.4680 H   0  0  0  0  0  0  0  0  0  0  0  0
   40.7200   32.1570   41.5150 N   0  0  2  0  0  0  0  0  0  0  0  0
   41.9760   31.5450   41.8940 C   0  0  0  0  0  3  0  0  0  0  0  0
   41.9710   31.2090   42.9560 H   0  0  0  0  0  0  0  0  0  0  0  0
   42.3680   30.4260   40.9570 C   0  0  0  0  0  3  0  0  0  0  0  0
   43.2460   29.9170   41.4060 H   0  0  0  0  0  0  0  0  0  0  0  0
   41.3640   29.4820   40.8000 O   0  0  0  0  0  0  0  0  0  0  0  0
   40.1210   30.0410   40.5960 C   0  0  0  0  0  2  0  0  0  0  0  0
   40.2400   31.5360   40.3190 C   0  0  0  0  0  2  0  0  0  0  0  0
   44.3660   33.7650   41.2880 O   0  0  0  0  0  0  0  0  0  0  0  0
   45.6950   34.0970   41.1290 C   0  0  0  0  0  0  0  0  0  0  0  0
   46.3380   34.7250   42.1920 C   0  0  0  0  0  0  0  0  0  0  0  0
   47.6960   35.0490   41.9940 C   0  0  0  0  0  0  0  0  0  0  0  0
   48.2770   34.7360   40.8020 N   0  0  0  0  0  0  0  0  0  0  0  0
   47.6090   34.1360   39.8240 C   0  0  0  0  0  0  0  0  0  0  0  0
   46.3190   33.8120   39.9740 N   0  0  0  0  0  0  0  0  0  0  0  0
   48.1880   35.5330   42.8170 H   0  0  0  0  0  0  0  0  0  0  0  0
   48.1290   33.9120   38.8940 H   0  0  0  0  0  0  0  0  0  0  0  0
   45.6230   35.0110   43.4150 C   0  0  0  0  0  0  0  0  0  0  0  0
   44.9900   36.2370   43.6390 C   0  0  0  0  0  0  0  0  0  0  0  0
   44.4440   36.0950   44.8900 C   0  0  0  0  0  0  0  0  0  0  0  0
   44.7250   34.8670   45.3970 N   0  0  0  0  0  0  0  0  0  0  0  0
   45.4360   34.2460   44.4750 N   0  0  0  0  0  0  0  0  0  0  0  0
   44.9350   37.1040   42.9860 H   0  0  0  0  0  0  0  0  0  0  0  0
   43.8660   36.8420   45.4240 H   0  0  0  0  0  0  0  0  0  0  0  0
   44.4120   34.5200   46.3470 H   0  0  0  0  0  0  0  0  0  0  0  0
  1 26  1  0  0  0  0
  2  1  2  0  0  0  0
  3  1  1  0  0  0  0
  3  8  1  0  0  0  0
  4  3  1  0  0  0  0
  5  4  1  0  0  0  0
  5  6  1  0  0  0  0
  6  7  1  0  0  0  0
  6 14  1  0  0  0  0
  7  8  1  0  0  0  0
  7 16  1  0  0  0  0
  8 18  1  0  0  0  0
  8 17  1  1  0  0  0
  9  4  1  0  0  0  0
 10  4  1  0  0  0  0
 11  5  1  0  0  0  0
 12  5  1  0  0  0  0
 13  6  1  0  0  0  0
 15  7  1  0  0  0  0
 18 25  1  6  0  0  0
 18 19  1  0  0  0  0
 19 20  1  0  0  0  0
 21 22  1  0  0  0  0
 21 19  1  0  0  0  0
 23 21  1  0  0  0  0
 24 23  1  0  0  0  0
 25 24  1  0  0  0  0
 27 26  1  0  0  0  0
 27 28  1  0  0  0  0
 28 35  1  0  0  0  0
 29 28  2  0  0  0  0
 29 33  1  0  0  0  0
 30 29  1  0  0  0  0
 31 32  1  0  0  0  0
 31 30  2  0  0  0  0
 32 27  2  0  0  0  0
 34 31  1  0  0  0  0
 35 36  1  0  0  0  0
 35 39  2  0  0  0  0
 36 37  2  0  0  0  0
 37 38  1  0  0  0  0
 37 41  1  0  0  0  0
 38 42  1  0  0  0  0
 39 38  1  0  0  0  0
 40 36  1  0  0  0  0
M  END
>  <minimizedAffinity>
-6.51528883

>  <minimizedRMSD>
0.475856841

$$$$
