
 OpenBabel03252508523D

 42 45  0  0  1  0  0  0  0  0999 V2000
   43.4040   34.5130   40.7750 C   0  0  0  0  0  0  0  0  0  0  0  0
   43.3140   35.7800   40.6020 O   0  0  0  0  0  0  0  0  0  0  0  0
   42.0670   34.1280   40.3610 N   0  0  0  0  0  0  0  0  0  0  0  0
   41.7280   34.4560   38.9980 C   0  0  0  0  0  0  0  0  0  0  0  0
   40.8810   35.7370   39.1010 C   0  0  0  0  0  0  0  0  0  0  0  0
   40.0480   35.5990   40.3700 C   0  0  0  0  0  0  0  0  0  0  0  0
   39.7390   34.1380   40.6960 C   0  0  0  0  0  0  0  0  0  0  0  0
   41.0350   33.4630   41.1260 C   0  0  1  0  0  0  0  0  0  0  0  0
   42.5960   34.6980   38.3600 H   0  0  0  0  0  0  0  0  0  0  0  0
   41.0820   33.6910   38.5090 H   0  0  0  0  0  0  0  0  0  0  0  0
   41.5340   36.6340   39.2000 H   0  0  0  0  0  0  0  0  0  0  0  0
   40.2470   35.8750   38.2080 H   0  0  0  0  0  0  0  0  0  0  0  0
   39.0480   36.0700   40.1740 H   0  0  0  0  0  0  0  0  0  0  0  0
   40.5610   36.0420   41.2350 H   0  0  0  0  0  0  0  0  0  0  0  0
   39.3190   33.6670   39.7770 H   0  0  0  0  0  0  0  0  0  0  0  0
   38.9910   34.1720   41.4990 H   0  0  0  0  0  0  0  0  0  0  0  0
   41.1800   33.5960   42.2200 H   0  0  0  0  0  0  0  0  0  0  0  0
   40.9040   32.0750   40.8440 N   0  0  2  0  0  0  0  0  0  0  0  0
   39.5000   31.7310   40.9060 C   0  0  0  0  0  3  0  0  0  0  0  0
   39.0620   31.5850   39.8920 H   0  0  0  0  0  0  0  0  0  0  0  0
   39.2480   30.5370   41.7990 C   0  0  0  0  0  3  0  0  0  0  0  0
   38.1850   30.2480   41.6630 H   0  0  0  0  0  0  0  0  0  0  0  0
   40.0300   29.4410   41.4630 O   0  0  0  0  0  0  0  0  0  0  0  0
   41.3510   29.7680   41.2390 C   0  0  0  0  0  2  0  0  0  0  0  0
   41.6410   31.1940   41.6960 C   0  0  0  0  0  2  0  0  0  0  0  0
   44.4790   33.8100   41.2200 O   0  0  0  0  0  0  0  0  0  0  0  0
   45.8100   34.1480   41.0880 C   0  0  0  0  0  0  0  0  0  0  0  0
   46.4330   34.7610   42.1710 C   0  0  0  0  0  0  0  0  0  0  0  0
   47.7930   35.0920   42.0000 C   0  0  0  0  0  0  0  0  0  0  0  0
   48.3950   34.7990   40.8130 N   0  0  0  0  0  0  0  0  0  0  0  0
   47.7450   34.2130   39.8160 C   0  0  0  0  0  0  0  0  0  0  0  0
   46.4530   33.8830   39.9390 N   0  0  0  0  0  0  0  0  0  0  0  0
   48.2710   35.5640   42.8390 H   0  0  0  0  0  0  0  0  0  0  0  0
   48.2810   34.0050   38.8910 H   0  0  0  0  0  0  0  0  0  0  0  0
   45.6970   35.0260   43.3870 C   0  0  0  0  0  0  0  0  0  0  0  0
   45.0560   36.2460   43.6180 C   0  0  0  0  0  0  0  0  0  0  0  0
   44.4900   36.0840   44.8580 C   0  0  0  0  0  0  0  0  0  0  0  0
   44.7680   34.8490   45.3510 N   0  0  0  0  0  0  0  0  0  0  0  0
   45.4960   34.2450   44.4320 N   0  0  0  0  0  0  0  0  0  0  0  0
   45.0080   37.1220   42.9770 H   0  0  0  0  0  0  0  0  0  0  0  0
   43.9010   36.8200   45.3930 H   0  0  0  0  0  0  0  0  0  0  0  0
   44.4410   34.4870   46.2910 H   0  0  0  0  0  0  0  0  0  0  0  0
  1 26  1  0  0  0  0
  2  1  2  0  0  0  0
  3  1  1  0  0  0  0
  3  8  1  0  0  0  0
  4  5  1  0  0  0  0
  4  3  1  0  0  0  0
  5 11  1  0  0  0  0
  5  6  1  0  0  0  0
  6  7  1  0  0  0  0
  6 14  1  0  0  0  0
  7  8  1  0  0  0  0
  7 16  1  0  0  0  0
  8 17  1  1  0  0  0
  9  4  1  0  0  0  0
 10  4  1  0  0  0  0
 12  5  1  0  0  0  0
 13  6  1  0  0  0  0
 15  7  1  0  0  0  0
 18 19  1  0  0  0  0
 18  8  1  0  0  0  0
 18 25  1  1  0  0  0
 19 21  1  0  0  0  0
 20 19  1  0  0  0  0
 22 21  1  0  0  0  0
 23 21  1  0  0  0  0
 24 23  1  0  0  0  0
 24 25  1  0  0  0  0
 27 26  1  0  0  0  0
 27 28  1  0  0  0  0
 28 35  1  0  0  0  0
 29 28  2  0  0  0  0
 29 33  1  0  0  0  0
 30 29  1  0  0  0  0
 31 32  1  0  0  0  0
 31 30  2  0  0  0  0
 32 27  2  0  0  0  0
 34 31  1  0  0  0  0
 35 36  1  0  0  0  0
 35 39  2  0  0  0  0
 36 37  2  0  0  0  0
 37 38  1  0  0  0  0
 37 41  1  0  0  0  0
 38 42  1  0  0  0  0
 39 38  1  0  0  0  0
 40 36  1  0  0  0  0
M  END
>  <minimizedAffinity>
-6.68352747

>  <minimizedRMSD>
0.111511678

$$$$
