
 OpenBabel03242519593D

 27 29  0  0  0  0  0  0  0  0999 V2000
   40.2700   29.5740   41.5150 Br  0  0  0  0  0  0  0  0  0  0  0  0
   38.4020   29.6710   41.1340 C   0  0  0  0  0  0  0  0  0  0  0  0
   37.8280   30.7620   40.4950 C   0  0  0  0  0  0  0  0  0  0  0  0
   36.4690   30.7370   40.2660 C   0  0  0  0  0  0  0  0  0  0  0  0
   35.6640   29.6770   40.6430 C   0  0  0  0  0  0  0  0  0  0  0  0
   36.2270   28.5860   41.2790 C   0  0  0  0  0  0  0  0  0  0  0  0
   37.5840   28.6160   41.5070 C   0  0  0  0  0  0  0  0  0  0  0  0
   36.1270   31.6460   39.7580 H   0  0  0  0  0  0  0  0  0  0  0  0
   34.6280   29.7920   40.4020 H   0  0  0  0  0  0  0  0  0  0  0  0
   35.5980   27.7780   41.5650 H   0  0  0  0  0  0  0  0  0  0  0  0
   39.6650   34.0670   40.4840 C   0  0  0  0  0  0  0  0  0  0  0  0
   38.8070   33.0220   40.8670 C   0  0  0  0  0  0  0  0  0  0  0  0
   38.7070   31.8520   40.1160 C   0  0  0  0  0  0  0  0  0  0  0  0
   39.4940   31.8130   39.0110 N   0  0  0  0  0  0  0  0  0  0  0  0
   40.3130   32.8110   38.6440 C   0  0  0  0  0  0  0  0  0  0  0  0
   40.3950   33.9270   39.3780 N   0  0  0  0  0  0  0  0  0  0  0  0
   39.7070   34.9590   41.1020 H   0  0  0  0  0  0  0  0  0  0  0  0
   38.2000   33.1020   41.7600 H   0  0  0  0  0  0  0  0  0  0  0  0
   40.9120   32.7060   37.7430 H   0  0  0  0  0  0  0  0  0  0  0  0
   38.1030   27.4560   42.1690 N   0  0  0  0  0  0  0  0  0  0  0  0
   38.4330   27.3430   43.5620 C   0  0  0  0  0  3  0  0  0  0  0  0
   37.5830   26.9050   44.1570 H   0  0  0  0  0  0  0  0  0  0  0  0
   39.5950   26.4030   43.6800 C   0  0  0  0  0  3  0  0  0  0  0  0
   40.4770   26.8690   43.1620 H   0  0  0  0  0  0  0  0  0  0  0  0
   39.4050   25.1580   43.1510 O   0  0  0  0  0  0  0  0  0  0  0  0
   38.5640   25.0510   42.0810 C   0  0  0  0  0  2  0  0  0  0  0  0
   38.3000   26.3020   41.3130 C   0  0  0  0  0  2  0  0  0  0  0  0
  2  7  1  0  0  0  0
  2  1  1  0  0  0  0
  3  2  2  0  0  0  0
  4  3  1  0  0  0  0
  4  5  2  0  0  0  0
  5  6  1  0  0  0  0
  6  7  2  0  0  0  0
  6 10  1  0  0  0  0
  7 20  1  0  0  0  0
  8  4  1  0  0  0  0
  9  5  1  0  0  0  0
 11 12  1  0  0  0  0
 11 17  1  0  0  0  0
 12 18  1  0  0  0  0
 13  3  1  0  0  0  0
 13 12  2  0  0  0  0
 14 13  1  0  0  0  0
 15 14  2  0  0  0  0
 15 16  1  0  0  0  0
 16 11  2  0  0  0  0
 19 15  1  0  0  0  0
 20 21  1  0  0  0  0
 21 23  1  0  0  0  0
 21 22  1  0  0  0  0
 24 23  1  0  0  0  0
 25 23  1  0  0  0  0
 26 25  1  0  0  0  0
 27 26  1  0  0  0  0
 27 20  1  0  0  0  0
M  END
>  <minimizedAffinity>
-4.88385391

$$$$

 OpenBabel03242519593D

 27 29  0  0  0  0  0  0  0  0999 V2000
   37.9590   28.1990   39.0700 Br  0  0  0  0  0  0  0  0  0  0  0  0
   37.6860   27.9140   40.9380 C   0  0  0  0  0  0  0  0  0  0  0  0
   37.5920   26.6450   41.4920 C   0  0  0  0  0  0  0  0  0  0  0  0
   37.3940   26.5440   42.8530 C   0  0  0  0  0  0  0  0  0  0  0  0
   37.2870   27.6490   43.6780 C   0  0  0  0  0  0  0  0  0  0  0  0
   37.3800   28.9170   43.1350 C   0  0  0  0  0  0  0  0  0  0  0  0
   37.5770   29.0120   41.7770 C   0  0  0  0  0  0  0  0  0  0  0  0
   37.3360   25.5000   43.1770 H   0  0  0  0  0  0  0  0  0  0  0  0
   37.1350   27.4240   44.7130 H   0  0  0  0  0  0  0  0  0  0  0  0
   37.2950   29.7580   43.7800 H   0  0  0  0  0  0  0  0  0  0  0  0
   36.7310   23.8040   39.1500 C   0  0  0  0  0  0  0  0  0  0  0  0
   36.5980   24.8990   40.0200 C   0  0  0  0  0  0  0  0  0  0  0  0
   37.7100   25.5130   40.5920 C   0  0  0  0  0  0  0  0  0  0  0  0
   38.9050   24.9740   40.2400 N   0  0  0  0  0  0  0  0  0  0  0  0
   39.0330   23.9280   39.4090 C   0  0  0  0  0  0  0  0  0  0  0  0
   37.9530   23.3510   38.8700 N   0  0  0  0  0  0  0  0  0  0  0  0
   35.8340   23.3600   38.7310 H   0  0  0  0  0  0  0  0  0  0  0  0
   35.6200   25.2930   40.2700 H   0  0  0  0  0  0  0  0  0  0  0  0
   40.0260   23.5520   39.1750 H   0  0  0  0  0  0  0  0  0  0  0  0
   37.6630   30.3540   41.2800 N   0  0  0  0  0  0  0  0  0  0  0  0
   36.5870   31.1390   40.7460 C   0  0  0  0  0  3  0  0  0  0  0  0
   36.1270   31.8030   41.5300 H   0  0  0  0  0  0  0  0  0  0  0  0
   37.1560   32.0280   39.6810 C   0  0  0  0  0  3  0  0  0  0  0  0
   37.5410   31.3770   38.8500 H   0  0  0  0  0  0  0  0  0  0  0  0
   38.1700   32.8520   40.0780 O   0  0  0  0  0  0  0  0  0  0  0  0
   38.9800   32.4110   41.0850 C   0  0  0  0  0  2  0  0  0  0  0  0
   38.9880   30.9410   41.3390 C   0  0  0  0  0  2  0  0  0  0  0  0
  1  2  1  0  0  0  0
  2  3  2  0  0  0  0
  2  7  1  0  0  0  0
  3  4  1  0  0  0  0
  4  8  1  0  0  0  0
  4  5  2  0  0  0  0
  5  9  1  0  0  0  0
  6  5  1  0  0  0  0
  6 10  1  0  0  0  0
  7  6  2  0  0  0  0
 11 12  1  0  0  0  0
 12 18  1  0  0  0  0
 12 13  2  0  0  0  0
 13  3  1  0  0  0  0
 14 13  1  0  0  0  0
 15 14  2  0  0  0  0
 16 11  2  0  0  0  0
 16 15  1  0  0  0  0
 17 11  1  0  0  0  0
 19 15  1  0  0  0  0
 20 27  1  0  0  0  0
 20  7  1  0  0  0  0
 21 20  1  0  0  0  0
 21 22  1  0  0  0  0
 23 25  1  0  0  0  0
 23 21  1  0  0  0  0
 24 23  1  0  0  0  0
 25 26  1  0  0  0  0
 26 27  1  0  0  0  0
M  END
>  <minimizedAffinity>
-4.83526754

$$$$

 OpenBabel03242519593D

 27 29  0  0  0  0  0  0  0  0999 V2000
   38.1520   27.9600   39.0990 Br  0  0  0  0  0  0  0  0  0  0  0  0
   37.7200   27.8040   40.9510 C   0  0  0  0  0  0  0  0  0  0  0  0
   37.4260   26.5860   41.5490 C   0  0  0  0  0  0  0  0  0  0  0  0
   37.1260   26.5790   42.8940 C   0  0  0  0  0  0  0  0  0  0  0  0
   37.1080   27.7280   43.6640 C   0  0  0  0  0  0  0  0  0  0  0  0
   37.3990   28.9460   43.0780 C   0  0  0  0  0  0  0  0  0  0  0  0
   37.6970   28.9480   41.7350 C   0  0  0  0  0  0  0  0  0  0  0  0
   36.9120   25.5670   43.2550 H   0  0  0  0  0  0  0  0  0  0  0  0
   36.8590   27.5750   44.6930 H   0  0  0  0  0  0  0  0  0  0  0  0
   37.3810   29.8220   43.6800 H   0  0  0  0  0  0  0  0  0  0  0  0
   38.5880   23.4430   39.7960 C   0  0  0  0  0  0  0  0  0  0  0  0
   38.5770   24.5820   40.6190 C   0  0  0  0  0  0  0  0  0  0  0  0
   37.4570   25.4060   40.7050 C   0  0  0  0  0  0  0  0  0  0  0  0
   36.4020   25.0180   39.9440 N   0  0  0  0  0  0  0  0  0  0  0  0
   36.4120   23.9300   39.1580 C   0  0  0  0  0  0  0  0  0  0  0  0
   37.4970   23.1520   39.0880 N   0  0  0  0  0  0  0  0  0  0  0  0
   39.4860   22.8340   39.7630 H   0  0  0  0  0  0  0  0  0  0  0  0
   39.4460   24.8490   41.2080 H   0  0  0  0  0  0  0  0  0  0  0  0
   35.5260   23.6850   38.5770 H   0  0  0  0  0  0  0  0  0  0  0  0
   37.9890   30.2420   41.1910 N   0  0  0  0  0  0  0  0  0  0  0  0
   39.2910   30.8190   41.0110 C   0  0  0  0  0  3  0  0  0  0  0  0
   39.6810   30.6490   39.9680 H   0  0  0  0  0  0  0  0  0  0  0  0
   39.1640   32.3000   41.2070 C   0  0  0  0  0  3  0  0  0  0  0  0
   38.8580   32.4870   42.2730 H   0  0  0  0  0  0  0  0  0  0  0  0
   38.2660   32.9300   40.3930 O   0  0  0  0  0  0  0  0  0  0  0  0
   37.1790   32.2140   39.9830 C   0  0  0  0  0  2  0  0  0  0  0  0
   36.8260   31.0130   40.7960 C   0  0  0  0  0  2  0  0  0  0  0  0
  1  2  1  0  0  0  0
  2  3  2  0  0  0  0
  2  7  1  0  0  0  0
  3  4  1  0  0  0  0
  4  8  1  0  0  0  0
  4  5  2  0  0  0  0
  5  9  1  0  0  0  0
  6  5  1  0  0  0  0
  6 10  1  0  0  0  0
  7  6  2  0  0  0  0
 11 12  1  0  0  0  0
 12 13  2  0  0  0  0
 12 18  1  0  0  0  0
 13  3  1  0  0  0  0
 14 13  1  0  0  0  0
 15 14  2  0  0  0  0
 16 15  1  0  0  0  0
 16 11  2  0  0  0  0
 17 11  1  0  0  0  0
 19 15  1  0  0  0  0
 20  7  1  0  0  0  0
 21 20  1  0  0  0  0
 21 23  1  0  0  0  0
 22 21  1  0  0  0  0
 23 24  1  0  0  0  0
 25 23  1  0  0  0  0
 26 25  1  0  0  0  0
 26 27  1  0  0  0  0
 27 20  1  0  0  0  0
M  END
>  <minimizedAffinity>
-4.82163572

$$$$

 OpenBabel03242519593D

 27 29  0  0  0  0  0  0  0  0999 V2000
   40.5870   29.2730   40.3000 Br  0  0  0  0  0  0  0  0  0  0  0  0
   38.7990   29.8600   40.6210 C   0  0  0  0  0  0  0  0  0  0  0  0
   37.8960   29.1210   41.3750 C   0  0  0  0  0  0  0  0  0  0  0  0
   36.6270   29.6310   41.5490 C   0  0  0  0  0  0  0  0  0  0  0  0
   36.2230   30.8370   41.0070 C   0  0  0  0  0  0  0  0  0  0  0  0
   37.1150   31.5800   40.2550 C   0  0  0  0  0  0  0  0  0  0  0  0
   38.3800   31.0670   40.0840 C   0  0  0  0  0  0  0  0  0  0  0  0
   36.0050   28.9670   42.1580 H   0  0  0  0  0  0  0  0  0  0  0  0
   35.2110   31.1100   41.2220 H   0  0  0  0  0  0  0  0  0  0  0  0
   36.7920   32.5050   39.8430 H   0  0  0  0  0  0  0  0  0  0  0  0
   39.4380   26.5500   43.6790 C   0  0  0  0  0  0  0  0  0  0  0  0
   38.9950   27.7790   43.1630 C   0  0  0  0  0  0  0  0  0  0  0  0
   38.3610   27.8620   41.9260 C   0  0  0  0  0  0  0  0  0  0  0  0
   38.2110   26.6770   41.2800 N   0  0  0  0  0  0  0  0  0  0  0  0
   38.6340   25.5020   41.7720 C   0  0  0  0  0  0  0  0  0  0  0  0
   39.2420   25.4440   42.9620 N   0  0  0  0  0  0  0  0  0  0  0  0
   39.9280   26.5380   44.6480 H   0  0  0  0  0  0  0  0  0  0  0  0
   39.1390   28.6980   43.7180 H   0  0  0  0  0  0  0  0  0  0  0  0
   38.4770   24.5950   41.1940 H   0  0  0  0  0  0  0  0  0  0  0  0
   39.2530   31.8860   39.2940 N   0  0  0  0  0  0  0  0  0  0  0  0
   39.4030   31.8460   37.8670 C   0  0  0  0  0  3  0  0  0  0  0  0
   38.7540   32.6130   37.3590 H   0  0  0  0  0  0  0  0  0  0  0  0
   40.8300   32.1840   37.5500 C   0  0  0  0  0  3  0  0  0  0  0  0
   41.4840   31.3770   37.9790 H   0  0  0  0  0  0  0  0  0  0  0  0
   41.2730   33.3850   38.0250 O   0  0  0  0  0  0  0  0  0  0  0  0
   40.7180   33.8460   39.1840 C   0  0  0  0  0  2  0  0  0  0  0  0
   40.0470   32.8340   40.0510 C   0  0  0  0  0  2  0  0  0  0  0  0
  1  2  1  0  0  0  0
  2  3  1  0  0  0  0
  3  4  2  0  0  0  0
  3 13  1  0  0  0  0
  4  8  1  0  0  0  0
  5  9  1  0  0  0  0
  5  4  1  0  0  0  0
  6  5  2  0  0  0  0
  7  6  1  0  0  0  0
  7  2  2  0  0  0  0
 10  6  1  0  0  0  0
 11 17  1  0  0  0  0
 12 11  1  0  0  0  0
 12 18  1  0  0  0  0
 13 12  2  0  0  0  0
 14 15  2  0  0  0  0
 14 13  1  0  0  0  0
 15 16  1  0  0  0  0
 16 11  2  0  0  0  0
 19 15  1  0  0  0  0
 20 27  1  0  0  0  0
 20  7  1  0  0  0  0
 21 20  1  0  0  0  0
 22 21  1  0  0  0  0
 23 21  1  0  0  0  0
 23 24  1  0  0  0  0
 23 25  1  0  0  0  0
 25 26  1  0  0  0  0
 26 27  1  0  0  0  0
M  END
>  <minimizedAffinity>
-4.78572607

$$$$

 OpenBabel03242519593D

 27 29  0  0  0  0  0  0  0  0999 V2000
   38.3210   28.2730   39.1900 Br  0  0  0  0  0  0  0  0  0  0  0  0
   37.7770   28.0630   41.0080 C   0  0  0  0  0  0  0  0  0  0  0  0
   37.6860   29.1340   41.8870 C   0  0  0  0  0  0  0  0  0  0  0  0
   37.2840   28.8780   43.1810 C   0  0  0  0  0  0  0  0  0  0  0  0
   36.9700   27.6080   43.6310 C   0  0  0  0  0  0  0  0  0  0  0  0
   37.0580   26.5360   42.7620 C   0  0  0  0  0  0  0  0  0  0  0  0
   37.4610   26.7960   41.4730 C   0  0  0  0  0  0  0  0  0  0  0  0
   37.2480   29.7930   43.7820 H   0  0  0  0  0  0  0  0  0  0  0  0
   36.6730   27.5560   44.6570 H   0  0  0  0  0  0  0  0  0  0  0  0
   36.8150   25.5650   43.1210 H   0  0  0  0  0  0  0  0  0  0  0  0
   37.4380   32.5250   40.2340 C   0  0  0  0  0  0  0  0  0  0  0  0
   37.0920   31.2550   40.7240 C   0  0  0  0  0  0  0  0  0  0  0  0
   38.0230   30.4480   41.3740 C   0  0  0  0  0  0  0  0  0  0  0  0
   39.2640   30.9870   41.4910 N   0  0  0  0  0  0  0  0  0  0  0  0
   39.5950   32.2010   41.0230 C   0  0  0  0  0  0  0  0  0  0  0  0
   38.6870   32.9600   40.4010 N   0  0  0  0  0  0  0  0  0  0  0  0
   36.6760   33.1150   39.7330 H   0  0  0  0  0  0  0  0  0  0  0  0
   36.0870   30.8690   40.6050 H   0  0  0  0  0  0  0  0  0  0  0  0
   40.6110   32.5640   41.1550 H   0  0  0  0  0  0  0  0  0  0  0  0
   37.5300   25.6420   40.6260 N   0  0  0  0  0  0  0  0  0  0  0  0
   36.4940   25.1520   39.7620 C   0  0  0  0  0  3  0  0  0  0  0  0
   36.6140   25.5320   38.7090 H   0  0  0  0  0  0  0  0  0  0  0  0
   36.6080   23.6570   39.7160 C   0  0  0  0  0  3  0  0  0  0  0  0
   36.4030   23.2580   40.7470 H   0  0  0  0  0  0  0  0  0  0  0  0
   37.8160   23.1690   39.3060 O   0  0  0  0  0  0  0  0  0  0  0  0
   38.9240   23.9160   39.5840 C   0  0  0  0  0  2  0  0  0  0  0  0
   38.7900   24.9250   40.6750 C   0  0  0  0  0  2  0  0  0  0  0  0
  1  2  1  0  0  0  0
  2  7  2  0  0  0  0
  2  3  1  0  0  0  0
  3  4  2  0  0  0  0
  4  5  1  0  0  0  0
  4  8  1  0  0  0  0
  5  9  1  0  0  0  0
  6 10  1  0  0  0  0
  6  5  2  0  0  0  0
  7  6  1  0  0  0  0
 11 16  2  0  0  0  0
 11 12  1  0  0  0  0
 12 13  2  0  0  0  0
 13 14  1  0  0  0  0
 13  3  1  0  0  0  0
 15 19  1  0  0  0  0
 15 14  2  0  0  0  0
 16 15  1  0  0  0  0
 17 11  1  0  0  0  0
 18 12  1  0  0  0  0
 20 27  1  0  0  0  0
 20  7  1  0  0  0  0
 21 20  1  0  0  0  0
 22 21  1  0  0  0  0
 23 21  1  0  0  0  0
 23 24  1  0  0  0  0
 25 26  1  0  0  0  0
 25 23  1  0  0  0  0
 26 27  1  0  0  0  0
M  END
>  <minimizedAffinity>
-4.78018236

$$$$

 OpenBabel03242519593D

 27 29  0  0  0  0  0  0  0  0999 V2000
   40.5260   29.6670   40.4440 Br  0  0  0  0  0  0  0  0  0  0  0  0
   39.0470   30.8520   40.2230 C   0  0  0  0  0  0  0  0  0  0  0  0
   37.8010   30.6010   40.7820 C   0  0  0  0  0  0  0  0  0  0  0  0
   36.7960   31.5190   40.5640 C   0  0  0  0  0  0  0  0  0  0  0  0
   36.9800   32.6690   39.8180 C   0  0  0  0  0  0  0  0  0  0  0  0
   38.2170   32.9280   39.2580 C   0  0  0  0  0  0  0  0  0  0  0  0
   39.2170   32.0080   39.4770 C   0  0  0  0  0  0  0  0  0  0  0  0
   35.8610   31.2190   41.0500 H   0  0  0  0  0  0  0  0  0  0  0  0
   36.1140   33.2910   39.7310 H   0  0  0  0  0  0  0  0  0  0  0  0
   38.3460   33.8150   38.6860 H   0  0  0  0  0  0  0  0  0  0  0  0
   37.0870   27.0170   41.7520 C   0  0  0  0  0  0  0  0  0  0  0  0
   37.2260   28.1860   40.9860 C   0  0  0  0  0  0  0  0  0  0  0  0
   37.6510   29.3840   41.5570 C   0  0  0  0  0  0  0  0  0  0  0  0
   37.9120   29.3210   42.8870 N   0  0  0  0  0  0  0  0  0  0  0  0
   37.7780   28.2050   43.6210 C   0  0  0  0  0  0  0  0  0  0  0  0
   37.3690   27.0650   43.0540 N   0  0  0  0  0  0  0  0  0  0  0  0
   36.7520   26.1090   41.2600 H   0  0  0  0  0  0  0  0  0  0  0  0
   37.0050   28.1840   39.9250 H   0  0  0  0  0  0  0  0  0  0  0  0
   38.0070   28.2350   44.6830 H   0  0  0  0  0  0  0  0  0  0  0  0
   40.4730   32.3370   38.8690 N   0  0  0  0  0  0  0  0  0  0  0  0
   41.5510   33.0660   39.4750 C   0  0  0  0  0  3  0  0  0  0  0  0
   42.3180   32.3760   39.9280 H   0  0  0  0  0  0  0  0  0  0  0  0
   42.2340   33.8500   38.3950 C   0  0  0  0  0  3  0  0  0  0  0  0
   41.5030   34.6030   37.9930 H   0  0  0  0  0  0  0  0  0  0  0  0
   42.7080   33.1200   37.3430 O   0  0  0  0  0  0  0  0  0  0  0  0
   42.0360   31.9770   37.0170 C   0  0  0  0  0  2  0  0  0  0  0  0
   40.6310   31.8680   37.5060 C   0  0  0  0  0  2  0  0  0  0  0  0
  2  1  1  0  0  0  0
  2  3  1  0  0  0  0
  3 13  1  0  0  0  0
  4  3  2  0  0  0  0
  4  8  1  0  0  0  0
  5  4  1  0  0  0  0
  6  7  1  0  0  0  0
  6  5  2  0  0  0  0
  7  2  2  0  0  0  0
  9  5  1  0  0  0  0
 10  6  1  0  0  0  0
 11 16  1  0  0  0  0
 12 13  1  0  0  0  0
 12 11  2  0  0  0  0
 13 14  2  0  0  0  0
 14 15  1  0  0  0  0
 15 19  1  0  0  0  0
 16 15  2  0  0  0  0
 17 11  1  0  0  0  0
 18 12  1  0  0  0  0
 20 21  1  0  0  0  0
 20  7  1  0  0  0  0
 21 22  1  0  0  0  0
 23 21  1  0  0  0  0
 24 23  1  0  0  0  0
 25 23  1  0  0  0  0
 26 25  1  0  0  0  0
 26 27  1  0  0  0  0
 27 20  1  0  0  0  0
M  END
>  <minimizedAffinity>
-4.7635479

$$$$

 OpenBabel03242519593D

 27 29  0  0  0  0  0  0  0  0999 V2000
   39.8350   29.9130   40.8380 Br  0  0  0  0  0  0  0  0  0  0  0  0
   38.3940   30.0110   39.5910 C   0  0  0  0  0  0  0  0  0  0  0  0
   38.3190   30.9950   38.6150 C   0  0  0  0  0  0  0  0  0  0  0  0
   37.2360   30.9810   37.7620 C   0  0  0  0  0  0  0  0  0  0  0  0
   36.2330   30.0320   37.8400 C   0  0  0  0  0  0  0  0  0  0  0  0
   36.2990   29.0480   38.8090 C   0  0  0  0  0  0  0  0  0  0  0  0
   37.3810   29.0670   39.6590 C   0  0  0  0  0  0  0  0  0  0  0  0
   37.2830   31.8000   37.0350 H   0  0  0  0  0  0  0  0  0  0  0  0
   35.4540   30.1410   37.1140 H   0  0  0  0  0  0  0  0  0  0  0  0
   35.5210   28.3250   38.8590 H   0  0  0  0  0  0  0  0  0  0  0  0
   41.4520   32.8530   37.6010 C   0  0  0  0  0  0  0  0  0  0  0  0
   40.4210   31.8990   37.6310 C   0  0  0  0  0  0  0  0  0  0  0  0
   39.3920   31.9700   38.5670 C   0  0  0  0  0  0  0  0  0  0  0  0
   39.4710   33.0190   39.4250 N   0  0  0  0  0  0  0  0  0  0  0  0
   40.4560   33.9310   39.3970 C   0  0  0  0  0  0  0  0  0  0  0  0
   41.4360   33.8450   38.4910 N   0  0  0  0  0  0  0  0  0  0  0  0
   42.2320   32.7530   36.8520 H   0  0  0  0  0  0  0  0  0  0  0  0
   40.4030   31.0790   36.9230 H   0  0  0  0  0  0  0  0  0  0  0  0
   40.4510   34.7440   40.1200 H   0  0  0  0  0  0  0  0  0  0  0  0
   37.3880   28.0200   40.6380 N   0  0  0  0  0  0  0  0  0  0  0  0
   38.0660   26.7590   40.5360 C   0  0  0  0  0  3  0  0  0  0  0  0
   39.0770   26.7890   41.0320 H   0  0  0  0  0  0  0  0  0  0  0  0
   37.2400   25.7380   41.2610 C   0  0  0  0  0  3  0  0  0  0  0  0
   36.2580   25.6370   40.7240 H   0  0  0  0  0  0  0  0  0  0  0  0
   36.9770   26.0130   42.5730 O   0  0  0  0  0  0  0  0  0  0  0  0
   36.8850   27.3270   42.9340 C   0  0  0  0  0  2  0  0  0  0  0  0
   36.6220   28.3030   41.8370 C   0  0  0  0  0  2  0  0  0  0  0  0
  2  7  1  0  0  0  0
  2  1  1  0  0  0  0
  3  2  2  0  0  0  0
  4  5  2  0  0  0  0
  4  3  1  0  0  0  0
  5  6  1  0  0  0  0
  6 10  1  0  0  0  0
  6  7  2  0  0  0  0
  7 20  1  0  0  0  0
  8  4  1  0  0  0  0
  9  5  1  0  0  0  0
 11 12  2  0  0  0  0
 11 16  1  0  0  0  0
 12 13  1  0  0  0  0
 13  3  1  0  0  0  0
 13 14  2  0  0  0  0
 15 14  1  0  0  0  0
 15 19  1  0  0  0  0
 16 15  2  0  0  0  0
 17 11  1  0  0  0  0
 18 12  1  0  0  0  0
 20 27  1  0  0  0  0
 21 20  1  0  0  0  0
 21 22  1  0  0  0  0
 21 23  1  0  0  0  0
 23 25  1  0  0  0  0
 24 23  1  0  0  0  0
 25 26  1  0  0  0  0
 27 26  1  0  0  0  0
M  END
>  <minimizedAffinity>
-4.63714552

$$$$

 OpenBabel03242519593D

 27 29  0  0  0  0  0  0  0  0999 V2000
   39.6060   27.9870   39.6330 Br  0  0  0  0  0  0  0  0  0  0  0  0
   38.0620   28.9970   40.1200 C   0  0  0  0  0  0  0  0  0  0  0  0
   36.9060   28.4030   40.6090 C   0  0  0  0  0  0  0  0  0  0  0  0
   35.8440   29.2200   40.9320 C   0  0  0  0  0  0  0  0  0  0  0  0
   35.8850   30.5950   40.7910 C   0  0  0  0  0  0  0  0  0  0  0  0
   37.0320   31.1960   40.3050 C   0  0  0  0  0  0  0  0  0  0  0  0
   38.0890   30.3770   39.9830 C   0  0  0  0  0  0  0  0  0  0  0  0
   34.9900   28.6440   41.3060 H   0  0  0  0  0  0  0  0  0  0  0  0
   34.9900   31.1040   41.0800 H   0  0  0  0  0  0  0  0  0  0  0  0
   37.0510   32.2540   40.2000 H   0  0  0  0  0  0  0  0  0  0  0  0
   37.2040   24.9210   42.0520 C   0  0  0  0  0  0  0  0  0  0  0  0
   37.2110   26.3220   41.9430 C   0  0  0  0  0  0  0  0  0  0  0  0
   36.9050   26.9580   40.7420 C   0  0  0  0  0  0  0  0  0  0  0  0
   36.6050   26.1250   39.7130 N   0  0  0  0  0  0  0  0  0  0  0  0
   36.5980   24.7870   39.8170 C   0  0  0  0  0  0  0  0  0  0  0  0
   36.8960   24.1940   40.9780 N   0  0  0  0  0  0  0  0  0  0  0  0
   37.4500   24.4720   43.0100 H   0  0  0  0  0  0  0  0  0  0  0  0
   37.4570   26.9430   42.7950 H   0  0  0  0  0  0  0  0  0  0  0  0
   36.3480   24.1860   38.9460 H   0  0  0  0  0  0  0  0  0  0  0  0
   39.2460   31.0630   39.4860 N   0  0  0  0  0  0  0  0  0  0  0  0
   40.3890   31.4750   40.2500 C   0  0  0  0  0  3  0  0  0  0  0  0
   41.2180   30.7150   40.2010 H   0  0  0  0  0  0  0  0  0  0  0  0
   40.9080   32.7450   39.6440 C   0  0  0  0  0  3  0  0  0  0  0  0
   40.1200   33.5380   39.7640 H   0  0  0  0  0  0  0  0  0  0  0  0
   41.2400   32.6770   38.3210 O   0  0  0  0  0  0  0  0  0  0  0  0
   40.5420   31.8010   37.5420 C   0  0  0  0  0  2  0  0  0  0  0  0
   39.2190   31.3510   38.0650 C   0  0  0  0  0  2  0  0  0  0  0  0
  1  2  1  0  0  0  0
  2  3  1  0  0  0  0
  3 13  1  0  0  0  0
  3  4  2  0  0  0  0
  4  8  1  0  0  0  0
  5  4  1  0  0  0  0
  5  9  1  0  0  0  0
  6  5  2  0  0  0  0
  7  2  2  0  0  0  0
  7  6  1  0  0  0  0
 10  6  1  0  0  0  0
 11 17  1  0  0  0  0
 12 11  1  0  0  0  0
 12 18  1  0  0  0  0
 13 12  2  0  0  0  0
 14 15  2  0  0  0  0
 14 13  1  0  0  0  0
 15 16  1  0  0  0  0
 16 11  2  0  0  0  0
 19 15  1  0  0  0  0
 20  7  1  0  0  0  0
 20 21  1  0  0  0  0
 22 21  1  0  0  0  0
 23 24  1  0  0  0  0
 23 21  1  0  0  0  0
 25 23  1  0  0  0  0
 26 27  1  0  0  0  0
 26 25  1  0  0  0  0
 27 20  1  0  0  0  0
M  END
>  <minimizedAffinity>
-4.56119394

$$$$

 OpenBabel03242519593D

 27 29  0  0  0  0  0  0  0  0999 V2000
   40.7520   29.7030   40.5140 Br  0  0  0  0  0  0  0  0  0  0  0  0
   39.2400   30.8390   40.2550 C   0  0  0  0  0  0  0  0  0  0  0  0
   39.2990   31.9960   39.4900 C   0  0  0  0  0  0  0  0  0  0  0  0
   38.1510   32.7490   39.3640 C   0  0  0  0  0  0  0  0  0  0  0  0
   36.9550   32.3990   39.9640 C   0  0  0  0  0  0  0  0  0  0  0  0
   36.8860   31.2480   40.7270 C   0  0  0  0  0  0  0  0  0  0  0  0
   38.0340   30.5000   40.8510 C   0  0  0  0  0  0  0  0  0  0  0  0
   38.3150   33.6350   38.7410 H   0  0  0  0  0  0  0  0  0  0  0  0
   36.1460   33.0750   39.7820 H   0  0  0  0  0  0  0  0  0  0  0  0
   35.9620   30.9900   41.1840 H   0  0  0  0  0  0  0  0  0  0  0  0
   42.1310   32.2790   37.0010 C   0  0  0  0  0  0  0  0  0  0  0  0
   40.8920   31.9500   37.5760 C   0  0  0  0  0  0  0  0  0  0  0  0
   40.5720   32.3270   38.8790 C   0  0  0  0  0  0  0  0  0  0  0  0
   41.5400   33.0250   39.5260 N   0  0  0  0  0  0  0  0  0  0  0  0
   42.7240   33.3400   38.9770 C   0  0  0  0  0  0  0  0  0  0  0  0
   43.0120   32.9680   37.7250 N   0  0  0  0  0  0  0  0  0  0  0  0
   42.3330   31.9620   35.9830 H   0  0  0  0  0  0  0  0  0  0  0  0
   40.1520   31.3900   37.0170 H   0  0  0  0  0  0  0  0  0  0  0  0
   43.4490   33.9020   39.5610 H   0  0  0  0  0  0  0  0  0  0  0  0
   37.8940   29.3210   41.6550 N   0  0  0  0  0  0  0  0  0  0  0  0
   38.1800   29.2040   43.0560 C   0  0  0  0  0  3  0  0  0  0  0  0
   37.2550   29.3500   43.6830 H   0  0  0  0  0  0  0  0  0  0  0  0
   38.6760   27.8110   43.3050 C   0  0  0  0  0  3  0  0  0  0  0  0
   39.6470   27.6820   42.7530 H   0  0  0  0  0  0  0  0  0  0  0  0
   37.8350   26.8060   42.9230 O   0  0  0  0  0  0  0  0  0  0  0  0
   37.0150   27.0430   41.8570 C   0  0  0  0  0  2  0  0  0  0  0  0
   37.4150   28.1520   40.9430 C   0  0  0  0  0  2  0  0  0  0  0  0
  2  1  1  0  0  0  0
  2  7  1  0  0  0  0
  3  2  2  0  0  0  0
  4  3  1  0  0  0  0
  4  5  2  0  0  0  0
  5  6  1  0  0  0  0
  6  7  2  0  0  0  0
  6 10  1  0  0  0  0
  7 20  1  0  0  0  0
  8  4  1  0  0  0  0
  9  5  1  0  0  0  0
 11 12  2  0  0  0  0
 11 16  1  0  0  0  0
 12 13  1  0  0  0  0
 13  3  1  0  0  0  0
 13 14  2  0  0  0  0
 15 14  1  0  0  0  0
 15 19  1  0  0  0  0
 16 15  2  0  0  0  0
 17 11  1  0  0  0  0
 18 12  1  0  0  0  0
 20 21  1  0  0  0  0
 21 23  1  0  0  0  0
 21 22  1  0  0  0  0
 24 23  1  0  0  0  0
 25 23  1  0  0  0  0
 26 25  1  0  0  0  0
 27 20  1  0  0  0  0
 27 26  1  0  0  0  0
M  END
>  <minimizedAffinity>
-4.54848957

$$$$
