
 OpenBabel03252504523D

 20 21  0  0  0  0  0  0  0  0999 V2000
   47.0410   34.6530   42.0680 C   0  0  0  0  0  0  0  0  0  0  0  0
   46.3640   34.2360   41.2640 H   0  0  0  0  0  0  0  0  0  0  0  0
   47.2800   35.6780   41.6740 H   0  0  0  0  0  0  0  0  0  0  0  0
   44.5500   36.0490   44.4650 C   0  0  0  0  0  0  0  0  0  0  0  0
   45.3530   35.8860   43.3060 C   0  0  0  0  0  0  0  0  0  0  0  0
   46.2300   34.7890   43.2780 C   0  0  0  0  0  0  0  0  0  0  0  0
   46.2630   33.9500   44.3540 N   0  0  0  0  0  0  0  0  0  0  0  0
   45.4790   34.1500   45.4330 C   0  0  0  0  0  0  0  0  0  0  0  0
   44.6300   35.1940   45.4840 N   0  0  0  0  0  0  0  0  0  0  0  0
   43.8880   36.9060   44.4450 H   0  0  0  0  0  0  0  0  0  0  0  0
   45.2890   36.5740   42.4840 H   0  0  0  0  0  0  0  0  0  0  0  0
   45.5300   33.4560   46.2820 H   0  0  0  0  0  0  0  0  0  0  0  0
   48.1850   33.8750   42.1460 N   0  0  0  0  0  0  0  0  0  0  0  0
   49.4300   34.5230   42.2900 C   0  0  0  0  0  0  0  0  0  0  0  0
   49.3960   35.2760   43.1060 H   0  0  0  0  0  0  0  0  0  0  0  0
   50.5880   33.6100   42.4280 C   0  0  0  0  0  0  0  0  0  0  0  0
   50.5550   33.0640   43.4130 H   0  0  0  0  0  0  0  0  0  0  0  0
   50.5320   32.7040   41.3430 O   0  0  0  0  0  0  0  0  0  0  0  0
   49.4540   31.8680   41.6320 C   0  0  0  0  0  0  0  0  0  0  0  0
   48.1440   32.5550   41.6540 C   0  0  0  0  0  0  0  0  0  0  0  0
  1 13  1  0  0  0  0
  1  6  1  0  0  0  0
  2  1  1  0  0  0  0
  3  1  1  0  0  0  0
  4  9  1  0  0  0  0
  5  4  2  0  0  0  0
  6  5  1  0  0  0  0
  6  7  2  0  0  0  0
  7  8  1  0  0  0  0
  8  9  2  0  0  0  0
  8 12  1  0  0  0  0
 10  4  1  0  0  0  0
 11  5  1  0  0  0  0
 13 14  1  0  0  0  0
 14 16  1  0  0  0  0
 14 15  1  0  0  0  0
 16 17  1  0  0  0  0
 18 19  1  0  0  0  0
 18 16  1  0  0  0  0
 19 20  1  0  0  0  0
 20 13  1  0  0  0  0
M  END
>  <minimizedAffinity>
-3.98988152

>  <minimizedRMSD>
2.15545416

$$$$
