
 OpenBabel03252505263D

 42 45  0  0  1  0  0  0  0  0999 V2000
   39.1180   30.1870   41.4050 F   0  0  0  0  0  0  0  0  0  0  0  0
   38.0620   30.1040   40.5430 C   0  0  0  0  0  0  0  0  0  0  0  0
   37.9010   31.1250   39.6270 C   0  0  0  0  0  0  0  0  0  0  0  0
   36.8460   31.0380   38.7690 C   0  0  0  0  0  0  0  0  0  0  0  0
   35.9900   29.9510   38.8410 C   0  0  0  0  0  0  0  0  0  0  0  0
   36.1530   28.9350   39.7530 C   0  0  0  0  0  0  0  0  0  0  0  0
   37.2330   29.0350   40.6240 C   0  0  0  0  0  0  0  0  0  0  0  0
   36.6790   31.8170   38.0330 H   0  0  0  0  0  0  0  0  0  0  0  0
   35.1570   29.9350   38.1250 H   0  0  0  0  0  0  0  0  0  0  0  0
   35.4730   28.0940   39.7940 H   0  0  0  0  0  0  0  0  0  0  0  0
   37.3700   27.9680   41.5510 N   0  0  0  0  0  0  0  0  0  0  0  0
   37.4580   26.5400   41.3380 C   0  0  0  0  0  0  0  0  0  0  0  0
   38.6810   26.1510   42.1740 C   0  0  0  0  0  0  0  0  0  0  0  0
   38.7810   27.2570   43.1970 C   0  0  0  0  0  0  0  0  0  0  0  0
   37.4620   27.9760   42.9970 C   0  0  2  0  0  0  0  0  0  0  0  0
   37.7510   26.3300   40.2690 H   0  0  0  0  0  0  0  0  0  0  0  0
   36.5580   25.9860   41.6300 H   0  0  0  0  0  0  0  0  0  0  0  0
   39.6040   26.2090   41.5540 H   0  0  0  0  0  0  0  0  0  0  0  0
   38.5590   25.1650   42.6310 H   0  0  0  0  0  0  0  0  0  0  0  0
   39.6280   27.9390   43.0460 H   0  0  0  0  0  0  0  0  0  0  0  0
   38.7650   26.8370   44.2330 H   0  0  0  0  0  0  0  0  0  0  0  0
   37.5380   29.0470   43.3230 H   0  0  0  0  0  0  0  0  0  0  0  0
   36.3000   27.3480   43.6790 C   0  0  0  0  0  0  0  0  0  0  0  0
   36.5860   26.3310   44.0060 H   0  0  0  0  0  0  0  0  0  0  0  0
   35.8430   27.9690   44.4770 H   0  0  0  0  0  0  0  0  0  0  0  0
   35.4890   27.2320   42.9140 H   0  0  0  0  0  0  0  0  0  0  0  0
   39.5090   34.3230   40.4040 C   0  0  0  0  0  0  0  0  0  0  0  0
   40.6210   34.3490   39.5310 C   0  0  0  0  0  0  0  0  0  0  0  0
   40.7550   33.2410   38.7070 C   0  0  0  0  0  0  0  0  0  0  0  0
   39.8590   32.2440   38.7810 N   0  0  0  0  0  0  0  0  0  0  0  0
   38.8320   32.2400   39.6010 C   0  0  0  0  0  0  0  0  0  0  0  0
   38.6570   33.2780   40.4120 N   0  0  0  0  0  0  0  0  0  0  0  0
   39.3850   35.1860   41.0610 H   0  0  0  0  0  0  0  0  0  0  0  0
   41.3290   35.1630   39.4880 H   0  0  0  0  0  0  0  0  0  0  0  0
   41.8140   33.1100   37.7750 N   0  0  0  0  0  0  0  0  0  0  0  0
   42.1490   31.9380   37.0000 C   0  0  0  0  0  3  0  0  0  0  0  0
   41.4150   31.1230   37.0730 H   0  0  0  0  0  0  0  0  0  0  0  0
   43.5120   31.4490   37.4820 C   0  0  0  0  0  3  0  0  0  0  0  0
   44.1740   31.1460   36.6320 H   0  0  0  0  0  0  0  0  0  0  0  0
   44.1120   32.3900   38.2900 O   0  0  0  0  0  0  0  0  0  0  0  0
   44.1250   33.6720   37.7560 C   0  0  0  0  0  2  0  0  0  0  0  0
   42.7200   34.2040   37.4920 C   0  0  0  0  0  2  0  0  0  0  0  0
  2  7  1  0  0  0  0
  2  1  1  0  0  0  0
  3  2  2  0  0  0  0
  4  5  2  0  0  0  0
  4  3  1  0  0  0  0
  5  6  1  0  0  0  0
  6 10  1  0  0  0  0
  6  7  2  0  0  0  0
  7 11  1  0  0  0  0
  8  4  1  0  0  0  0
  9  5  1  0  0  0  0
 11 15  1  0  0  0  0
 12 11  1  0  0  0  0
 12 17  1  0  0  0  0
 12 13  1  0  0  0  0
 13 19  1  0  0  0  0
 13 14  1  0  0  0  0
 14 21  1  0  0  0  0
 15 14  1  0  0  0  0
 15 22  1  1  0  0  0
 15 23  1  0  0  0  0
 16 12  1  0  0  0  0
 18 13  1  0  0  0  0
 20 14  1  0  0  0  0
 23 24  1  0  0  0  0
 23 25  1  0  0  0  0
 26 23  1  0  0  0  0
 27 32  1  0  0  0  0
 27 33  1  0  0  0  0
 28 27  2  0  0  0  0
 29 30  2  0  0  0  0
 29 28  1  0  0  0  0
 30 31  1  0  0  0  0
 31  3  1  0  0  0  0
 31 32  2  0  0  0  0
 34 28  1  0  0  0  0
 35 29  1  0  0  0  0
 36 37  1  0  0  0  0
 36 38  1  0  0  0  0
 36 35  1  0  0  0  0
 38 40  1  0  0  0  0
 39 38  1  0  0  0  0
 41 40  1  0  0  0  0
 42 41  1  0  0  0  0
 42 35  1  0  0  0  0
M  END
>  <minimizedAffinity>
-6.19482374

$$$$

 OpenBabel03252505263D

 42 45  0  0  1  0  0  0  0  0999 V2000
   37.8400   28.3160   39.6640 F   0  0  0  0  0  0  0  0  0  0  0  0
   37.7430   28.1570   41.0170 C   0  0  0  0  0  0  0  0  0  0  0  0
   37.7800   29.2940   41.8000 C   0  0  0  0  0  0  0  0  0  0  0  0
   37.6820   29.1300   43.1490 C   0  0  0  0  0  0  0  0  0  0  0  0
   37.5520   27.8560   43.6790 C   0  0  0  0  0  0  0  0  0  0  0  0
   37.5150   26.7260   42.8970 C   0  0  0  0  0  0  0  0  0  0  0  0
   37.6150   26.9060   41.5210 C   0  0  0  0  0  0  0  0  0  0  0  0
   37.7080   29.9940   43.8050 H   0  0  0  0  0  0  0  0  0  0  0  0
   37.4780   27.7860   44.7730 H   0  0  0  0  0  0  0  0  0  0  0  0
   37.4130   25.7390   43.3300 H   0  0  0  0  0  0  0  0  0  0  0  0
   37.5730   25.7170   40.7460 N   0  0  0  0  0  0  0  0  0  0  0  0
   38.5340   24.6430   40.6160 C   0  0  0  0  0  0  0  0  0  0  0  0
   37.6730   23.3950   40.8270 C   0  0  0  0  0  0  0  0  0  0  0  0
   36.2790   23.8580   40.4730 C   0  0  0  0  0  0  0  0  0  0  0  0
   36.5590   25.2080   39.8460 C   0  0  2  0  0  0  0  0  0  0  0  0
   39.2490   24.6610   41.4890 H   0  0  0  0  0  0  0  0  0  0  0  0
   39.0640   24.6290   39.6560 H   0  0  0  0  0  0  0  0  0  0  0  0
   37.6500   23.1220   41.9060 H   0  0  0  0  0  0  0  0  0  0  0  0
   38.0100   22.5620   40.2030 H   0  0  0  0  0  0  0  0  0  0  0  0
   35.6020   23.9550   41.3310 H   0  0  0  0  0  0  0  0  0  0  0  0
   35.8440   23.2130   39.6690 H   0  0  0  0  0  0  0  0  0  0  0  0
   35.6650   25.8820   39.9330 H   0  0  0  0  0  0  0  0  0  0  0  0
   36.9860   25.1590   38.4220 C   0  0  0  0  0  0  0  0  0  0  0  0
   37.2510   24.1170   38.1660 H   0  0  0  0  0  0  0  0  0  0  0  0
   36.2780   25.6340   37.7120 H   0  0  0  0  0  0  0  0  0  0  0  0
   37.9230   25.7680   38.3350 H   0  0  0  0  0  0  0  0  0  0  0  0
   36.9830   32.3950   40.0210 C   0  0  0  0  0  0  0  0  0  0  0  0
   38.2110   33.0960   40.0230 C   0  0  0  0  0  0  0  0  0  0  0  0
   39.2640   32.4470   40.6500 C   0  0  0  0  0  0  0  0  0  0  0  0
   39.0690   31.2380   41.1990 N   0  0  0  0  0  0  0  0  0  0  0  0
   37.9190   30.6030   41.1860 C   0  0  0  0  0  0  0  0  0  0  0  0
   36.8770   31.1810   40.5970 N   0  0  0  0  0  0  0  0  0  0  0  0
   36.1410   32.8880   39.5320 H   0  0  0  0  0  0  0  0  0  0  0  0
   38.3440   34.0690   39.5740 H   0  0  0  0  0  0  0  0  0  0  0  0
   40.5600   33.0130   40.7400 N   0  0  0  0  0  0  0  0  0  0  0  0
   40.9610   34.3360   40.3200 C   0  0  0  0  0  3  0  0  0  0  0  0
   40.1270   34.9870   40.0160 H   0  0  0  0  0  0  0  0  0  0  0  0
   41.9330   34.1680   39.1550 C   0  0  0  0  0  3  0  0  0  0  0  0
   42.8070   34.8610   39.2340 H   0  0  0  0  0  0  0  0  0  0  0  0
   42.3290   32.8530   39.0350 O   0  0  0  0  0  0  0  0  0  0  0  0
   42.7620   32.2800   40.2240 C   0  0  0  0  0  2  0  0  0  0  0  0
   41.6770   32.2780   41.2950 C   0  0  0  0  0  2  0  0  0  0  0  0
  1  2  1  0  0  0  0
  2  7  2  0  0  0  0
  2  3  1  0  0  0  0
  3  4  2  0  0  0  0
  4  5  1  0  0  0  0
  4  8  1  0  0  0  0
  5  9  1  0  0  0  0
  6 10  1  0  0  0  0
  6  5  2  0  0  0  0
  7  6  1  0  0  0  0
 11  7  1  0  0  0  0
 12 11  1  0  0  0  0
 12 13  1  0  0  0  0
 12 16  1  0  0  0  0
 13 18  1  0  0  0  0
 14 13  1  0  0  0  0
 14 20  1  0  0  0  0
 15 22  1  1  0  0  0
 15 14  1  0  0  0  0
 15 11  1  0  0  0  0
 17 12  1  0  0  0  0
 19 13  1  0  0  0  0
 21 14  1  0  0  0  0
 23 15  1  0  0  0  0
 24 23  1  0  0  0  0
 25 23  1  0  0  0  0
 26 23  1  0  0  0  0
 27 28  2  0  0  0  0
 27 32  1  0  0  0  0
 28 29  1  0  0  0  0
 29 35  1  0  0  0  0
 29 30  2  0  0  0  0
 31 30  1  0  0  0  0
 31  3  1  0  0  0  0
 32 31  2  0  0  0  0
 33 27  1  0  0  0  0
 34 28  1  0  0  0  0
 35 42  1  0  0  0  0
 36 35  1  0  0  0  0
 37 36  1  0  0  0  0
 38 39  1  0  0  0  0
 38 36  1  0  0  0  0
 40 38  1  0  0  0  0
 40 41  1  0  0  0  0
 41 42  1  0  0  0  0
M  END
>  <minimizedAffinity>
-5.95153379

$$$$

 OpenBabel03252505263D

 42 45  0  0  1  0  0  0  0  0999 V2000
   40.2460   30.6930   41.3020 F   0  0  0  0  0  0  0  0  0  0  0  0
   39.1570   31.3240   40.7700 C   0  0  0  0  0  0  0  0  0  0  0  0
   37.9250   30.7210   40.9300 C   0  0  0  0  0  0  0  0  0  0  0  0
   36.8430   31.3540   40.3980 C   0  0  0  0  0  0  0  0  0  0  0  0
   37.0100   32.5570   39.7300 C   0  0  0  0  0  0  0  0  0  0  0  0
   38.2370   33.1560   39.5730 C   0  0  0  0  0  0  0  0  0  0  0  0
   39.3360   32.5000   40.1210 C   0  0  0  0  0  0  0  0  0  0  0  0
   35.8550   30.9170   40.4970 H   0  0  0  0  0  0  0  0  0  0  0  0
   36.1010   33.0200   39.3220 H   0  0  0  0  0  0  0  0  0  0  0  0
   38.3470   34.0960   39.0480 H   0  0  0  0  0  0  0  0  0  0  0  0
   40.5850   33.1480   39.9390 N   0  0  0  0  0  0  0  0  0  0  0  0
   41.1360   34.3260   40.5730 C   0  0  0  0  0  0  0  0  0  0  0  0
   42.5290   33.8560   41.0040 C   0  0  0  0  0  0  0  0  0  0  0  0
   42.8190   32.7000   40.0750 C   0  0  0  0  0  0  0  0  0  0  0  0
   41.6970   32.8340   39.0650 C   0  0  2  0  0  0  0  0  0  0  0  0
   40.5850   34.5380   41.5340 H   0  0  0  0  0  0  0  0  0  0  0  0
   41.1760   35.2090   39.9230 H   0  0  0  0  0  0  0  0  0  0  0  0
   42.4890   33.4310   42.0320 H   0  0  0  0  0  0  0  0  0  0  0  0
   43.2690   34.6570   40.9220 H   0  0  0  0  0  0  0  0  0  0  0  0
   42.7980   31.7140   40.5570 H   0  0  0  0  0  0  0  0  0  0  0  0
   43.7740   32.8730   39.5200 H   0  0  0  0  0  0  0  0  0  0  0  0
   41.4750   31.8460   38.5810 H   0  0  0  0  0  0  0  0  0  0  0  0
   41.9330   33.8470   38.0010 C   0  0  0  0  0  0  0  0  0  0  0  0
   42.7880   34.4810   38.2980 H   0  0  0  0  0  0  0  0  0  0  0  0
   42.0130   33.4280   36.9770 H   0  0  0  0  0  0  0  0  0  0  0  0
   41.0280   34.5070   37.9660 H   0  0  0  0  0  0  0  0  0  0  0  0
   37.5750   28.2840   43.6420 C   0  0  0  0  0  0  0  0  0  0  0  0
   37.6050   27.0410   42.9680 C   0  0  0  0  0  0  0  0  0  0  0  0
   37.7480   27.1150   41.5910 C   0  0  0  0  0  0  0  0  0  0  0  0
   37.8450   28.3140   40.9950 N   0  0  0  0  0  0  0  0  0  0  0  0
   37.8140   29.4580   41.6400 C   0  0  0  0  0  0  0  0  0  0  0  0
   37.6790   29.4430   42.9620 N   0  0  0  0  0  0  0  0  0  0  0  0
   37.4630   28.2470   44.7270 H   0  0  0  0  0  0  0  0  0  0  0  0
   37.5250   26.0870   43.4690 H   0  0  0  0  0  0  0  0  0  0  0  0
   37.7950   25.9620   40.7680 N   0  0  0  0  0  0  0  0  0  0  0  0
   36.6880   25.3420   40.0780 C   0  0  0  0  0  3  0  0  0  0  0  0
   35.7510   25.9160   40.1170 H   0  0  0  0  0  0  0  0  0  0  0  0
   36.4750   23.9660   40.7050 C   0  0  0  0  0  3  0  0  0  0  0  0
   36.2820   23.1780   39.9350 H   0  0  0  0  0  0  0  0  0  0  0  0
   37.5320   23.6340   41.5250 O   0  0  0  0  0  0  0  0  0  0  0  0
   38.7800   23.8050   40.9400 C   0  0  0  0  0  2  0  0  0  0  0  0
   39.0320   25.2500   40.5240 C   0  0  0  0  0  2  0  0  0  0  0  0
  2  3  1  0  0  0  0
  2  1  1  0  0  0  0
  3 31  1  0  0  0  0
  4  8  1  0  0  0  0
  4  3  2  0  0  0  0
  5  4  1  0  0  0  0
  6  5  2  0  0  0  0
  6  7  1  0  0  0  0
  7  2  2  0  0  0  0
  9  5  1  0  0  0  0
 10  6  1  0  0  0  0
 11  7  1  0  0  0  0
 11 12  1  0  0  0  0
 12 13  1  0  0  0  0
 12 16  1  0  0  0  0
 13 18  1  0  0  0  0
 14 20  1  0  0  0  0
 14 13  1  0  0  0  0
 15 22  1  6  0  0  0
 15 11  1  0  0  0  0
 15 14  1  0  0  0  0
 17 12  1  0  0  0  0
 19 13  1  0  0  0  0
 21 14  1  0  0  0  0
 23 24  1  0  0  0  0
 23 15  1  0  0  0  0
 25 23  1  0  0  0  0
 26 23  1  0  0  0  0
 27 33  1  0  0  0  0
 28 34  1  0  0  0  0
 28 27  1  0  0  0  0
 29 28  2  0  0  0  0
 30 29  1  0  0  0  0
 30 31  2  0  0  0  0
 31 32  1  0  0  0  0
 32 27  2  0  0  0  0
 35 29  1  0  0  0  0
 36 37  1  0  0  0  0
 36 38  1  0  0  0  0
 36 35  1  0  0  0  0
 38 40  1  0  0  0  0
 39 38  1  0  0  0  0
 41 40  1  0  0  0  0
 42 35  1  0  0  0  0
 42 41  1  0  0  0  0
M  END
>  <minimizedAffinity>
-5.8558569

$$$$

 OpenBabel03252505263D

 42 45  0  0  1  0  0  0  0  0999 V2000
   32.6220   29.3920   39.3100 F   0  0  0  0  0  0  0  0  0  0  0  0
   33.1050   29.2680   38.0380 C   0  0  0  0  0  0  0  0  0  0  0  0
   34.4390   28.9460   37.8880 C   0  0  0  0  0  0  0  0  0  0  0  0
   34.9150   28.8230   36.6170 C   0  0  0  0  0  0  0  0  0  0  0  0
   34.0630   29.0190   35.5420 C   0  0  0  0  0  0  0  0  0  0  0  0
   32.7350   29.3380   35.6950 C   0  0  0  0  0  0  0  0  0  0  0  0
   32.2600   29.4610   36.9970 C   0  0  0  0  0  0  0  0  0  0  0  0
   35.9580   28.5730   36.4500 H   0  0  0  0  0  0  0  0  0  0  0  0
   34.5040   28.9070   34.5420 H   0  0  0  0  0  0  0  0  0  0  0  0
   32.0850   29.4880   34.8420 H   0  0  0  0  0  0  0  0  0  0  0  0
   30.8840   29.7920   37.1150 N   0  0  0  0  0  0  0  0  0  0  0  0
   29.7020   29.0630   36.7090 C   0  0  0  0  0  0  0  0  0  0  0  0
   28.8340   29.1030   37.9700 C   0  0  0  0  0  0  0  0  0  0  0  0
   29.3460   30.3100   38.7190 C   0  0  0  0  0  0  0  0  0  0  0  0
   30.2350   30.9580   37.6770 C   0  0  2  0  0  0  0  0  0  0  0  0
   29.9560   27.9740   36.5590 H   0  0  0  0  0  0  0  0  0  0  0  0
   29.1910   29.4860   35.8350 H   0  0  0  0  0  0  0  0  0  0  0  0
   29.0480   28.2190   38.6120 H   0  0  0  0  0  0  0  0  0  0  0  0
   27.7710   29.1800   37.7250 H   0  0  0  0  0  0  0  0  0  0  0  0
   29.9140   30.0730   39.6280 H   0  0  0  0  0  0  0  0  0  0  0  0
   28.5130   31.0280   38.9230 H   0  0  0  0  0  0  0  0  0  0  0  0
   31.0300   31.5830   38.1630 H   0  0  0  0  0  0  0  0  0  0  0  0
   29.5170   31.7910   36.6750 C   0  0  0  0  0  0  0  0  0  0  0  0
   28.4350   31.5760   36.7450 H   0  0  0  0  0  0  0  0  0  0  0  0
   29.7690   32.8710   36.7080 H   0  0  0  0  0  0  0  0  0  0  0  0
   29.8550   31.4540   35.6600 H   0  0  0  0  0  0  0  0  0  0  0  0
   36.2190   29.5790   41.0260 C   0  0  0  0  0  0  0  0  0  0  0  0
   36.8940   28.3600   41.2680 C   0  0  0  0  0  0  0  0  0  0  0  0
   36.6940   27.3710   40.3180 C   0  0  0  0  0  0  0  0  0  0  0  0
   35.9010   27.6130   39.2610 N   0  0  0  0  0  0  0  0  0  0  0  0
   35.2830   28.7530   39.0550 C   0  0  0  0  0  0  0  0  0  0  0  0
   35.4410   29.7360   39.9360 N   0  0  0  0  0  0  0  0  0  0  0  0
   36.3640   30.3710   41.7630 H   0  0  0  0  0  0  0  0  0  0  0  0
   37.5280   28.1880   42.1260 H   0  0  0  0  0  0  0  0  0  0  0  0
   37.2970   26.0920   40.4120 N   0  0  0  0  0  0  0  0  0  0  0  0
   36.9130   24.8960   39.6980 C   0  0  0  0  0  3  0  0  0  0  0  0
   36.1520   25.0570   38.9210 H   0  0  0  0  0  0  0  0  0  0  0  0
   36.3930   23.8980   40.7300 C   0  0  0  0  0  3  0  0  0  0  0  0
   36.7660   22.8610   40.5370 H   0  0  0  0  0  0  0  0  0  0  0  0
   36.6860   24.3200   42.0080 O   0  0  0  0  0  0  0  0  0  0  0  0
   38.0120   24.6900   42.1950 C   0  0  0  0  0  2  0  0  0  0  0  0
   38.4240   25.8430   41.2860 C   0  0  0  0  0  2  0  0  0  0  0  0
  2  1  1  0  0  0  0
  3  2  1  0  0  0  0
  3 31  1  0  0  0  0
  4  3  2  0  0  0  0
  5  6  2  0  0  0  0
  5  4  1  0  0  0  0
  6  7  1  0  0  0  0
  7 11  1  0  0  0  0
  7  2  2  0  0  0  0
  8  4  1  0  0  0  0
  9  5  1  0  0  0  0
 10  6  1  0  0  0  0
 11 15  1  0  0  0  0
 12 11  1  0  0  0  0
 12 13  1  0  0  0  0
 13 18  1  0  0  0  0
 13 14  1  0  0  0  0
 14 21  1  0  0  0  0
 14 20  1  0  0  0  0
 15 22  1  1  0  0  0
 15 14  1  0  0  0  0
 16 12  1  0  0  0  0
 17 12  1  0  0  0  0
 19 13  1  0  0  0  0
 23 25  1  0  0  0  0
 23 24  1  0  0  0  0
 23 15  1  0  0  0  0
 26 23  1  0  0  0  0
 27 28  1  0  0  0  0
 27 33  1  0  0  0  0
 28 34  1  0  0  0  0
 29 35  1  0  0  0  0
 29 28  2  0  0  0  0
 30 29  1  0  0  0  0
 31 30  2  0  0  0  0
 31 32  1  0  0  0  0
 32 27  2  0  0  0  0
 35 42  1  0  0  0  0
 36 35  1  0  0  0  0
 36 38  1  0  0  0  0
 37 36  1  0  0  0  0
 38 40  1  0  0  0  0
 39 38  1  0  0  0  0
 40 41  1  0  0  0  0
 42 41  1  0  0  0  0
M  END
>  <minimizedAffinity>
-5.81946516

$$$$

 OpenBabel03252505263D

 42 45  0  0  1  0  0  0  0  0999 V2000
   39.6740   27.6790   40.5320 F   0  0  0  0  0  0  0  0  0  0  0  0
   38.8000   27.7810   41.5770 C   0  0  0  0  0  0  0  0  0  0  0  0
   38.8960   28.8950   42.3870 C   0  0  0  0  0  0  0  0  0  0  0  0
   38.0210   28.9920   43.4260 C   0  0  0  0  0  0  0  0  0  0  0  0
   37.0840   27.9920   43.6320 C   0  0  0  0  0  0  0  0  0  0  0  0
   36.9900   26.8840   42.8230 C   0  0  0  0  0  0  0  0  0  0  0  0
   37.8880   26.7960   41.7640 C   0  0  0  0  0  0  0  0  0  0  0  0
   38.0590   29.8490   44.0900 H   0  0  0  0  0  0  0  0  0  0  0  0
   36.4060   28.1240   44.4860 H   0  0  0  0  0  0  0  0  0  0  0  0
   36.2510   26.1130   43.0000 H   0  0  0  0  0  0  0  0  0  0  0  0
   37.7610   25.6390   40.9520 N   0  0  0  0  0  0  0  0  0  0  0  0
   38.6270   24.4880   40.8090 C   0  0  0  0  0  0  0  0  0  0  0  0
   37.6540   23.3150   40.9620 C   0  0  0  0  0  0  0  0  0  0  0  0
   36.3160   23.9100   40.5910 C   0  0  0  0  0  0  0  0  0  0  0  0
   36.7290   25.2490   40.0140 C   0  0  2  0  0  0  0  0  0  0  0  0
   39.3190   24.4170   41.6980 H   0  0  0  0  0  0  0  0  0  0  0  0
   39.1770   24.4550   39.8610 H   0  0  0  0  0  0  0  0  0  0  0  0
   37.5800   23.0140   42.0310 H   0  0  0  0  0  0  0  0  0  0  0  0
   37.9320   22.4750   40.3200 H   0  0  0  0  0  0  0  0  0  0  0  0
   35.6290   24.0420   41.4370 H   0  0  0  0  0  0  0  0  0  0  0  0
   35.8460   23.3310   39.7580 H   0  0  0  0  0  0  0  0  0  0  0  0
   35.8960   25.9960   40.1020 H   0  0  0  0  0  0  0  0  0  0  0  0
   37.1850   25.2040   38.5990 C   0  0  0  0  0  0  0  0  0  0  0  0
   37.3640   24.1500   38.3160 H   0  0  0  0  0  0  0  0  0  0  0  0
   36.5390   25.7610   37.8890 H   0  0  0  0  0  0  0  0  0  0  0  0
   38.1740   25.7300   38.5520 H   0  0  0  0  0  0  0  0  0  0  0  0
   41.9230   30.9390   42.6640 C   0  0  0  0  0  0  0  0  0  0  0  0
   41.7970   31.8530   41.5910 C   0  0  0  0  0  0  0  0  0  0  0  0
   40.6540   31.7100   40.8200 C   0  0  0  0  0  0  0  0  0  0  0  0
   39.7640   30.7500   41.1190 N   0  0  0  0  0  0  0  0  0  0  0  0
   39.9000   29.9110   42.1200 C   0  0  0  0  0  0  0  0  0  0  0  0
   40.9780   30.0050   42.8920 N   0  0  0  0  0  0  0  0  0  0  0  0
   42.8160   31.0350   43.2840 H   0  0  0  0  0  0  0  0  0  0  0  0
   42.5270   32.6180   41.3700 H   0  0  0  0  0  0  0  0  0  0  0  0
   40.3780   32.5450   39.7090 N   0  0  0  0  0  0  0  0  0  0  0  0
   39.6790   32.1770   38.4990 C   0  0  0  0  0  3  0  0  0  0  0  0
   39.2230   31.1760   38.5260 H   0  0  0  0  0  0  0  0  0  0  0  0
   40.6850   32.2530   37.3530 C   0  0  0  0  0  3  0  0  0  0  0  0
   40.2470   32.7300   36.4400 H   0  0  0  0  0  0  0  0  0  0  0  0
   41.8400   32.8860   37.7580 O   0  0  0  0  0  0  0  0  0  0  0  0
   41.6270   34.0950   38.4090 C   0  0  0  0  0  2  0  0  0  0  0  0
   40.7930   33.9310   39.6740 C   0  0  0  0  0  2  0  0  0  0  0  0
  1  2  1  0  0  0  0
  2  7  2  0  0  0  0
  2  3  1  0  0  0  0
  3  4  2  0  0  0  0
  4  5  1  0  0  0  0
  4  8  1  0  0  0  0
  5  9  1  0  0  0  0
  6 10  1  0  0  0  0
  6  5  2  0  0  0  0
  7  6  1  0  0  0  0
 11  7  1  0  0  0  0
 12 11  1  0  0  0  0
 12 13  1  0  0  0  0
 12 16  1  0  0  0  0
 13 18  1  0  0  0  0
 14 13  1  0  0  0  0
 14 20  1  0  0  0  0
 15 22  1  1  0  0  0
 15 14  1  0  0  0  0
 15 11  1  0  0  0  0
 17 12  1  0  0  0  0
 19 13  1  0  0  0  0
 21 14  1  0  0  0  0
 23 15  1  0  0  0  0
 24 23  1  0  0  0  0
 25 23  1  0  0  0  0
 26 23  1  0  0  0  0
 27 32  1  0  0  0  0
 27 33  1  0  0  0  0
 28 27  2  0  0  0  0
 29 30  2  0  0  0  0
 29 28  1  0  0  0  0
 30 31  1  0  0  0  0
 31  3  1  0  0  0  0
 31 32  2  0  0  0  0
 34 28  1  0  0  0  0
 35 29  1  0  0  0  0
 36 37  1  0  0  0  0
 36 35  1  0  0  0  0
 38 40  1  0  0  0  0
 38 36  1  0  0  0  0
 39 38  1  0  0  0  0
 40 41  1  0  0  0  0
 41 42  1  0  0  0  0
 42 35  1  0  0  0  0
M  END
>  <minimizedAffinity>
-5.75843096

$$$$

 OpenBabel03252505263D

 42 45  0  0  1  0  0  0  0  0999 V2000
   37.3860   31.0560   37.2410 F   0  0  0  0  0  0  0  0  0  0  0  0
   36.7160   30.5300   38.3080 C   0  0  0  0  0  0  0  0  0  0  0  0
   36.9740   31.0660   39.5540 C   0  0  0  0  0  0  0  0  0  0  0  0
   36.3020   30.5370   40.6150 C   0  0  0  0  0  0  0  0  0  0  0  0
   35.4020   29.5030   40.4130 C   0  0  0  0  0  0  0  0  0  0  0  0
   35.1470   28.9720   39.1710 C   0  0  0  0  0  0  0  0  0  0  0  0
   35.8380   29.5190   38.0950 C   0  0  0  0  0  0  0  0  0  0  0  0
   36.4730   30.9250   41.6140 H   0  0  0  0  0  0  0  0  0  0  0  0
   34.8920   29.1170   41.3060 H   0  0  0  0  0  0  0  0  0  0  0  0
   34.4400   28.1630   39.0340 H   0  0  0  0  0  0  0  0  0  0  0  0
   35.5490   28.9460   36.8290 N   0  0  0  0  0  0  0  0  0  0  0  0
   34.3540   29.0100   36.0170 C   0  0  0  0  0  0  0  0  0  0  0  0
   34.9030   29.4020   34.6420 C   0  0  0  0  0  0  0  0  0  0  0  0
   36.3430   28.9490   34.6900 C   0  0  0  0  0  0  0  0  0  0  0  0
   36.3580   28.1180   35.9570 C   0  0  2  0  0  0  0  0  0  0  0  0
   33.7170   29.8830   36.3410 H   0  0  0  0  0  0  0  0  0  0  0  0
   33.7800   28.0760   35.9870 H   0  0  0  0  0  0  0  0  0  0  0  0
   34.9240   30.5100   34.5380 H   0  0  0  0  0  0  0  0  0  0  0  0
   34.3400   28.9280   33.8330 H   0  0  0  0  0  0  0  0  0  0  0  0
   37.0740   29.7660   34.7470 H   0  0  0  0  0  0  0  0  0  0  0  0
   36.5640   28.2500   33.8450 H   0  0  0  0  0  0  0  0  0  0  0  0
   37.3900   28.0770   36.3960 H   0  0  0  0  0  0  0  0  0  0  0  0
   35.8480   26.7300   35.7990 C   0  0  0  0  0  0  0  0  0  0  0  0
   35.3270   26.6510   34.8270 H   0  0  0  0  0  0  0  0  0  0  0  0
   36.6050   25.9380   35.9730 H   0  0  0  0  0  0  0  0  0  0  0  0
   35.0800   26.5660   36.5990 H   0  0  0  0  0  0  0  0  0  0  0  0
   38.4060   34.3490   40.3200 C   0  0  0  0  0  0  0  0  0  0  0  0
   39.7690   34.1970   39.9750 C   0  0  0  0  0  0  0  0  0  0  0  0
   40.1230   32.9490   39.4880 C   0  0  0  0  0  0  0  0  0  0  0  0
   39.1910   31.9880   39.3750 N   0  0  0  0  0  0  0  0  0  0  0  0
   37.9290   32.1500   39.7030 C   0  0  0  0  0  0  0  0  0  0  0  0
   37.5360   33.3290   40.1740 N   0  0  0  0  0  0  0  0  0  0  0  0
   38.1060   35.3250   40.7060 H   0  0  0  0  0  0  0  0  0  0  0  0
   40.5010   34.9850   40.0730 H   0  0  0  0  0  0  0  0  0  0  0  0
   41.4480   32.6330   39.0970 N   0  0  0  0  0  0  0  0  0  0  0  0
   42.6470   33.3730   39.4160 C   0  0  0  0  0  3  0  0  0  0  0  0
   42.4960   34.1910   40.1360 H   0  0  0  0  0  0  0  0  0  0  0  0
   43.1950   33.9350   38.1060 C   0  0  0  0  0  3  0  0  0  0  0  0
   44.3060   33.8320   38.0370 H   0  0  0  0  0  0  0  0  0  0  0  0
   42.5580   33.3650   37.0250 O   0  0  0  0  0  0  0  0  0  0  0  0
   42.4990   31.9770   37.0680 C   0  0  0  0  0  2  0  0  0  0  0  0
   41.7490   31.4670   38.2930 C   0  0  0  0  0  2  0  0  0  0  0  0
  1  2  1  0  0  0  0
  2  3  1  0  0  0  0
  3 31  1  0  0  0  0
  3  4  2  0  0  0  0
  4  8  1  0  0  0  0
  5  4  1  0  0  0  0
  5  9  1  0  0  0  0
  6  5  2  0  0  0  0
  7  2  2  0  0  0  0
  7  6  1  0  0  0  0
 10  6  1  0  0  0  0
 11  7  1  0  0  0  0
 12 16  1  0  0  0  0
 12 11  1  0  0  0  0
 13 14  1  0  0  0  0
 13 12  1  0  0  0  0
 14 20  1  0  0  0  0
 14 15  1  0  0  0  0
 15 22  1  1  0  0  0
 15 11  1  0  0  0  0
 17 12  1  0  0  0  0
 18 13  1  0  0  0  0
 19 13  1  0  0  0  0
 21 14  1  0  0  0  0
 23 15  1  0  0  0  0
 23 25  1  0  0  0  0
 23 26  1  0  0  0  0
 24 23  1  0  0  0  0
 27 33  1  0  0  0  0
 28 34  1  0  0  0  0
 28 27  2  0  0  0  0
 29 28  1  0  0  0  0
 30 29  2  0  0  0  0
 30 31  1  0  0  0  0
 31 32  2  0  0  0  0
 32 27  1  0  0  0  0
 35 36  1  0  0  0  0
 35 29  1  0  0  0  0
 36 37  1  0  0  0  0
 38 36  1  0  0  0  0
 39 38  1  0  0  0  0
 40 41  1  0  0  0  0
 40 38  1  0  0  0  0
 41 42  1  0  0  0  0
 42 35  1  0  0  0  0
M  END
>  <minimizedAffinity>
-5.68817568

$$$$

 OpenBabel03252505263D

 42 45  0  0  1  0  0  0  0  0999 V2000
   32.8280   29.0990   38.9240 F   0  0  0  0  0  0  0  0  0  0  0  0
   33.2300   29.0910   37.6180 C   0  0  0  0  0  0  0  0  0  0  0  0
   34.5220   28.6840   37.3480 C   0  0  0  0  0  0  0  0  0  0  0  0
   34.9170   28.6780   36.0440 C   0  0  0  0  0  0  0  0  0  0  0  0
   34.0290   29.0710   35.0550 C   0  0  0  0  0  0  0  0  0  0  0  0
   32.7440   29.4740   35.3270 C   0  0  0  0  0  0  0  0  0  0  0  0
   32.3510   29.4760   36.6620 C   0  0  0  0  0  0  0  0  0  0  0  0
   35.9230   28.3680   35.7840 H   0  0  0  0  0  0  0  0  0  0  0  0
   34.4050   29.0450   34.0230 H   0  0  0  0  0  0  0  0  0  0  0  0
   32.0650   29.7770   34.5400 H   0  0  0  0  0  0  0  0  0  0  0  0
   31.0170   29.8980   36.9040 N   0  0  0  0  0  0  0  0  0  0  0  0
   29.7580   29.3460   36.4550 C   0  0  0  0  0  0  0  0  0  0  0  0
   28.9480   29.2580   37.7520 C   0  0  0  0  0  0  0  0  0  0  0  0
   29.6000   30.2840   38.6500 C   0  0  0  0  0  0  0  0  0  0  0  0
   30.5020   31.0110   37.6740 C   0  0  2  0  0  0  0  0  0  0  0  0
   29.9040   28.2770   36.1250 H   0  0  0  0  0  0  0  0  0  0  0  0
   29.2530   29.9440   35.6870 H   0  0  0  0  0  0  0  0  0  0  0  0
   29.1060   28.2680   38.2380 H   0  0  0  0  0  0  0  0  0  0  0  0
   27.8880   29.4630   37.5810 H   0  0  0  0  0  0  0  0  0  0  0  0
   30.1790   29.8580   39.4790 H   0  0  0  0  0  0  0  0  0  0  0  0
   28.8450   31.0280   39.0080 H   0  0  0  0  0  0  0  0  0  0  0  0
   31.3700   31.4820   38.2070 H   0  0  0  0  0  0  0  0  0  0  0  0
   29.8230   32.0500   36.8540 C   0  0  0  0  0  0  0  0  0  0  0  0
   28.7300   31.9190   36.9480 H   0  0  0  0  0  0  0  0  0  0  0  0
   30.1740   33.0860   37.0400 H   0  0  0  0  0  0  0  0  0  0  0  0
   30.0880   31.8510   35.7820 H   0  0  0  0  0  0  0  0  0  0  0  0
   36.5740   26.6170   39.5680 C   0  0  0  0  0  0  0  0  0  0  0  0
   37.0910   27.5510   40.4960 C   0  0  0  0  0  0  0  0  0  0  0  0
   36.6940   28.8650   40.3000 C   0  0  0  0  0  0  0  0  0  0  0  0
   35.8750   29.1690   39.2810 N   0  0  0  0  0  0  0  0  0  0  0  0
   35.4060   28.2850   38.4290 C   0  0  0  0  0  0  0  0  0  0  0  0
   35.7550   27.0110   38.5720 N   0  0  0  0  0  0  0  0  0  0  0  0
   36.8750   25.5770   39.7050 H   0  0  0  0  0  0  0  0  0  0  0  0
   37.7490   27.2840   41.3100 H   0  0  0  0  0  0  0  0  0  0  0  0
   37.1220   29.9220   41.1410 N   0  0  0  0  0  0  0  0  0  0  0  0
   36.7850   31.3220   41.0170 C   0  0  0  0  0  3  0  0  0  0  0  0
   36.0210   31.5370   40.2560 H   0  0  0  0  0  0  0  0  0  0  0  0
   38.0730   32.0700   40.6800 C   0  0  0  0  0  3  0  0  0  0  0  0
   38.1660   33.0260   41.2540 H   0  0  0  0  0  0  0  0  0  0  0  0
   39.1710   31.2570   40.8550 O   0  0  0  0  0  0  0  0  0  0  0  0
   39.2010   30.5980   42.0780 C   0  0  0  0  0  2  0  0  0  0  0  0
   37.9920   29.6900   42.2750 C   0  0  0  0  0  2  0  0  0  0  0  0
  2  1  1  0  0  0  0
  3  2  1  0  0  0  0
  3 31  1  0  0  0  0
  4  3  2  0  0  0  0
  5  6  2  0  0  0  0
  5  4  1  0  0  0  0
  6  7  1  0  0  0  0
  7 11  1  0  0  0  0
  7  2  2  0  0  0  0
  8  4  1  0  0  0  0
  9  5  1  0  0  0  0
 10  6  1  0  0  0  0
 11 15  1  0  0  0  0
 12 11  1  0  0  0  0
 12 13  1  0  0  0  0
 13 18  1  0  0  0  0
 13 14  1  0  0  0  0
 14 21  1  0  0  0  0
 14 20  1  0  0  0  0
 15 22  1  1  0  0  0
 15 14  1  0  0  0  0
 16 12  1  0  0  0  0
 17 12  1  0  0  0  0
 19 13  1  0  0  0  0
 23 24  1  0  0  0  0
 23 25  1  0  0  0  0
 23 15  1  0  0  0  0
 26 23  1  0  0  0  0
 27 33  1  0  0  0  0
 27 28  1  0  0  0  0
 28 34  1  0  0  0  0
 29 28  2  0  0  0  0
 29 35  1  0  0  0  0
 30 29  1  0  0  0  0
 31 32  1  0  0  0  0
 31 30  2  0  0  0  0
 32 27  2  0  0  0  0
 35 42  1  0  0  0  0
 36 35  1  0  0  0  0
 37 36  1  0  0  0  0
 38 40  1  0  0  0  0
 38 36  1  0  0  0  0
 38 39  1  0  0  0  0
 40 41  1  0  0  0  0
 41 42  1  0  0  0  0
M  END
>  <minimizedAffinity>
-5.63661242

$$$$

 OpenBabel03252505263D

 42 45  0  0  1  0  0  0  0  0999 V2000
   36.5310   27.8030   38.9740 F   0  0  0  0  0  0  0  0  0  0  0  0
   36.9940   29.0830   38.8510 C   0  0  0  0  0  0  0  0  0  0  0  0
   37.5620   29.6690   39.9640 C   0  0  0  0  0  0  0  0  0  0  0  0
   38.0220   30.9450   39.8360 C   0  0  0  0  0  0  0  0  0  0  0  0
   37.9070   31.5970   38.6190 C   0  0  0  0  0  0  0  0  0  0  0  0
   37.3420   31.0110   37.5120 C   0  0  0  0  0  0  0  0  0  0  0  0
   36.8760   29.7080   37.6540 C   0  0  0  0  0  0  0  0  0  0  0  0
   38.4750   31.4460   40.6850 H   0  0  0  0  0  0  0  0  0  0  0  0
   38.2950   32.6240   38.5760 H   0  0  0  0  0  0  0  0  0  0  0  0
   37.2610   31.5380   36.5690 H   0  0  0  0  0  0  0  0  0  0  0  0
   36.2980   29.1360   36.4900 N   0  0  0  0  0  0  0  0  0  0  0  0
   34.9240   29.1040   36.0390 C   0  0  0  0  0  0  0  0  0  0  0  0
   35.0370   29.5750   34.5860 C   0  0  0  0  0  0  0  0  0  0  0  0
   36.4680   29.2590   34.2180 C   0  0  0  0  0  0  0  0  0  0  0  0
   36.9020   28.4080   35.3940 C   0  0  2  0  0  0  0  0  0  0  0  0
   34.3290   29.9060   36.5640 H   0  0  0  0  0  0  0  0  0  0  0  0
   34.4460   28.1200   36.1240 H   0  0  0  0  0  0  0  0  0  0  0  0
   34.9340   30.6820   34.5310 H   0  0  0  0  0  0  0  0  0  0  0  0
   34.3150   29.0660   33.9400 H   0  0  0  0  0  0  0  0  0  0  0  0
   37.1130   30.1410   34.1110 H   0  0  0  0  0  0  0  0  0  0  0  0
   36.5050   28.6030   33.3130 H   0  0  0  0  0  0  0  0  0  0  0  0
   38.0150   28.4550   35.5310 H   0  0  0  0  0  0  0  0  0  0  0  0
   36.4890   26.9810   35.3170 C   0  0  0  0  0  0  0  0  0  0  0  0
   35.7290   26.8740   34.5210 H   0  0  0  0  0  0  0  0  0  0  0  0
   37.3300   26.2610   35.2400 H   0  0  0  0  0  0  0  0  0  0  0  0
   35.9890   26.7280   36.2870 H   0  0  0  0  0  0  0  0  0  0  0  0
   37.6590   28.9110   43.5470 C   0  0  0  0  0  0  0  0  0  0  0  0
   37.8300   27.5080   43.5780 C   0  0  0  0  0  0  0  0  0  0  0  0
   37.9040   26.8910   42.3380 C   0  0  0  0  0  0  0  0  0  0  0  0
   37.8130   27.6290   41.2200 N   0  0  0  0  0  0  0  0  0  0  0  0
   37.6540   28.9330   41.2140 C   0  0  0  0  0  0  0  0  0  0  0  0
   37.5770   29.5740   42.3750 N   0  0  0  0  0  0  0  0  0  0  0  0
   37.5990   29.4160   44.5120 H   0  0  0  0  0  0  0  0  0  0  0  0
   37.9020   26.9340   44.4900 H   0  0  0  0  0  0  0  0  0  0  0  0
   38.0740   25.4910   42.1940 N   0  0  0  0  0  0  0  0  0  0  0  0
   39.3230   24.7780   42.0570 C   0  0  0  0  0  3  0  0  0  0  0  0
   40.2180   25.3990   42.2040 H   0  0  0  0  0  0  0  0  0  0  0  0
   39.3440   24.1670   40.6580 C   0  0  0  0  0  3  0  0  0  0  0  0
   39.7350   23.1180   40.6630 H   0  0  0  0  0  0  0  0  0  0  0  0
   38.1010   24.2490   40.0690 O   0  0  0  0  0  0  0  0  0  0  0  0
   37.0620   23.7950   40.8710 C   0  0  0  0  0  2  0  0  0  0  0  0
   36.9450   24.5850   42.1700 C   0  0  0  0  0  2  0  0  0  0  0  0
  2  1  1  0  0  0  0
  2  3  1  0  0  0  0
  3 31  1  0  0  0  0
  4  3  2  0  0  0  0
  4  8  1  0  0  0  0
  5  4  1  0  0  0  0
  6  7  1  0  0  0  0
  6  5  2  0  0  0  0
  7  2  2  0  0  0  0
  9  5  1  0  0  0  0
 10  6  1  0  0  0  0
 11  7  1  0  0  0  0
 12 17  1  0  0  0  0
 12 11  1  0  0  0  0
 12 16  1  0  0  0  0
 13 12  1  0  0  0  0
 14 13  1  0  0  0  0
 14 15  1  0  0  0  0
 15 22  1  1  0  0  0
 15 11  1  0  0  0  0
 18 13  1  0  0  0  0
 19 13  1  0  0  0  0
 20 14  1  0  0  0  0
 21 14  1  0  0  0  0
 23 15  1  0  0  0  0
 23 26  1  0  0  0  0
 24 23  1  0  0  0  0
 25 23  1  0  0  0  0
 27 28  1  0  0  0  0
 27 33  1  0  0  0  0
 28 34  1  0  0  0  0
 29 28  2  0  0  0  0
 30 29  1  0  0  0  0
 31 30  2  0  0  0  0
 31 32  1  0  0  0  0
 32 27  2  0  0  0  0
 35 29  1  0  0  0  0
 36 35  1  0  0  0  0
 36 37  1  0  0  0  0
 38 39  1  0  0  0  0
 38 36  1  0  0  0  0
 40 38  1  0  0  0  0
 40 41  1  0  0  0  0
 41 42  1  0  0  0  0
 42 35  1  0  0  0  0
M  END
>  <minimizedAffinity>
-5.54677343

$$$$

 OpenBabel03252505263D

 42 45  0  0  1  0  0  0  0  0999 V2000
   36.5620   27.8360   39.4290 F   0  0  0  0  0  0  0  0  0  0  0  0
   36.8640   29.1530   39.6300 C   0  0  0  0  0  0  0  0  0  0  0  0
   36.6470   30.0260   38.5820 C   0  0  0  0  0  0  0  0  0  0  0  0
   36.9500   31.3390   38.7880 C   0  0  0  0  0  0  0  0  0  0  0  0
   37.4520   31.7450   40.0130 C   0  0  0  0  0  0  0  0  0  0  0  0
   37.6650   30.8730   41.0550 C   0  0  0  0  0  0  0  0  0  0  0  0
   37.3530   29.5350   40.8340 C   0  0  0  0  0  0  0  0  0  0  0  0
   36.7980   32.0620   37.9930 H   0  0  0  0  0  0  0  0  0  0  0  0
   37.6770   32.8150   40.1200 H   0  0  0  0  0  0  0  0  0  0  0  0
   38.0580   31.2100   42.0060 H   0  0  0  0  0  0  0  0  0  0  0  0
   37.5860   28.6660   41.9310 N   0  0  0  0  0  0  0  0  0  0  0  0
   37.1050   28.7190   43.2950 C   0  0  0  0  0  0  0  0  0  0  0  0
   36.5740   27.3000   43.5190 C   0  0  0  0  0  0  0  0  0  0  0  0
   37.3270   26.4720   42.5040 C   0  0  0  0  0  0  0  0  0  0  0  0
   38.3770   27.4560   42.0290 C   0  0  2  0  0  0  0  0  0  0  0  0
   36.1980   29.3870   43.3550 H   0  0  0  0  0  0  0  0  0  0  0  0
   37.8690   29.0010   44.0300 H   0  0  0  0  0  0  0  0  0  0  0  0
   35.4990   27.2430   43.2370 H   0  0  0  0  0  0  0  0  0  0  0  0
   36.7450   26.9640   44.5460 H   0  0  0  0  0  0  0  0  0  0  0  0
   36.7150   26.1150   41.6660 H   0  0  0  0  0  0  0  0  0  0  0  0
   37.8740   25.6360   43.0080 H   0  0  0  0  0  0  0  0  0  0  0  0
   38.7260   27.1990   40.9950 H   0  0  0  0  0  0  0  0  0  0  0  0
   39.5630   27.5810   42.9190 C   0  0  0  0  0  0  0  0  0  0  0  0
   39.3320   27.1020   43.8880 H   0  0  0  0  0  0  0  0  0  0  0  0
   40.5170   27.2460   42.4630 H   0  0  0  0  0  0  0  0  0  0  0  0
   39.7140   28.6740   43.1180 H   0  0  0  0  0  0  0  0  0  0  0  0
   36.4770   28.6980   35.1730 C   0  0  0  0  0  0  0  0  0  0  0  0
   35.0870   28.6180   34.9240 C   0  0  0  0  0  0  0  0  0  0  0  0
   34.2720   29.0350   35.9660 C   0  0  0  0  0  0  0  0  0  0  0  0
   34.8240   29.4740   37.1090 N   0  0  0  0  0  0  0  0  0  0  0  0
   36.1190   29.5400   37.3190 C   0  0  0  0  0  0  0  0  0  0  0  0
   36.9450   29.1530   36.3530 N   0  0  0  0  0  0  0  0  0  0  0  0
   37.1360   28.3750   34.3650 H   0  0  0  0  0  0  0  0  0  0  0  0
   34.6650   28.2610   33.9960 H   0  0  0  0  0  0  0  0  0  0  0  0
   32.8580   29.0170   35.8790 N   0  0  0  0  0  0  0  0  0  0  0  0
   32.0640   28.6930   34.7160 C   0  0  0  0  0  3  0  0  0  0  0  0
   32.6430   28.3090   33.8650 H   0  0  0  0  0  0  0  0  0  0  0  0
   31.3240   29.9640   34.3040 C   0  0  0  0  0  3  0  0  0  0  0  0
   30.2600   29.7590   34.0260 H   0  0  0  0  0  0  0  0  0  0  0  0
   31.4220   30.9270   35.2850 O   0  0  0  0  0  0  0  0  0  0  0  0
   31.1060   30.4740   36.5600 C   0  0  0  0  0  2  0  0  0  0  0  0
   32.0200   29.3410   37.0140 C   0  0  0  0  0  2  0  0  0  0  0  0
  1  2  1  0  0  0  0
  2  7  1  0  0  0  0
  3  4  1  0  0  0  0
  3  2  2  0  0  0  0
  4  5  2  0  0  0  0
  5  9  1  0  0  0  0
  5  6  1  0  0  0  0
  6 10  1  0  0  0  0
  7  6  2  0  0  0  0
  7 11  1  0  0  0  0
  8  4  1  0  0  0  0
 11 15  1  0  0  0  0
 11 12  1  0  0  0  0
 12 16  1  0  0  0  0
 12 13  1  0  0  0  0
 12 17  1  0  0  0  0
 13 19  1  0  0  0  0
 14 21  1  0  0  0  0
 14 13  1  0  0  0  0
 15 22  1  6  0  0  0
 15 14  1  0  0  0  0
 15 23  1  0  0  0  0
 18 13  1  0  0  0  0
 20 14  1  0  0  0  0
 23 26  1  0  0  0  0
 23 24  1  0  0  0  0
 25 23  1  0  0  0  0
 27 32  1  0  0  0  0
 28 27  2  0  0  0  0
 28 29  1  0  0  0  0
 29 30  2  0  0  0  0
 30 31  1  0  0  0  0
 31  3  1  0  0  0  0
 32 31  2  0  0  0  0
 33 27  1  0  0  0  0
 34 28  1  0  0  0  0
 35 29  1  0  0  0  0
 35 42  1  0  0  0  0
 36 35  1  0  0  0  0
 37 36  1  0  0  0  0
 38 36  1  0  0  0  0
 38 40  1  0  0  0  0
 39 38  1  0  0  0  0
 40 41  1  0  0  0  0
 41 42  1  0  0  0  0
M  END
>  <minimizedAffinity>
-5.53721523

$$$$
