
 OpenBabel03252503183D

 38 41  0  0  0  0  0  0  0  0999 V2000
   45.6010   34.1730   40.7500 C   0  0  0  0  0  0  0  0  0  0  0  0
   44.2390   34.2540   40.5830 C   0  0  0  0  0  0  0  0  0  0  0  0
   43.9620   33.5870   39.4420 N   0  0  0  0  0  0  0  0  0  0  0  0
   45.1240   33.1220   38.9390 C   0  0  0  0  0  0  0  0  0  0  0  0
   46.1340   33.4770   39.7370 N   0  0  0  0  0  0  0  0  0  0  0  0
   45.3820   32.3540   37.7610 N   0  0  0  0  0  0  0  0  0  0  0  0
   43.5160   34.7420   41.2180 H   0  0  0  0  0  0  0  0  0  0  0  0
   45.8520   32.8740   37.0140 H   0  0  0  0  0  0  0  0  0  0  0  0
   45.1660   31.3490   37.5460 H   0  0  0  0  0  0  0  0  0  0  0  0
   42.6970   33.3690   38.8000 C   0  0  0  0  0  0  0  0  0  0  0  0
   42.6930   33.8050   37.7790 H   0  0  0  0  0  0  0  0  0  0  0  0
   42.5550   32.2740   38.7430 H   0  0  0  0  0  0  0  0  0  0  0  0
   41.6680   34.0180   39.5710 N   0  0  0  0  0  0  0  0  0  0  0  0
   40.5130   33.1750   39.7000 C   0  0  0  0  0  0  0  0  0  0  0  0
   40.0700   33.0990   38.6760 H   0  0  0  0  0  0  0  0  0  0  0  0
   39.5260   33.8550   40.6200 C   0  0  0  0  0  0  0  0  0  0  0  0
   38.6390   33.2210   40.6980 H   0  0  0  0  0  0  0  0  0  0  0  0
   39.1330   35.0720   40.0560 O   0  0  0  0  0  0  0  0  0  0  0  0
   40.2510   35.8990   39.9900 C   0  0  0  0  0  0  0  0  0  0  0  0
   41.2960   35.2920   39.0610 C   0  0  0  0  0  0  0  0  0  0  0  0
   46.3880   34.7630   41.8790 C   0  0  0  0  0  0  0  0  0  0  0  0
   47.5960   35.1410   41.7750 O   0  0  0  0  0  0  0  0  0  0  0  0
   45.1710   36.1390   43.4990 C   0  0  0  0  0  0  0  0  0  0  0  0
   45.7980   34.9310   43.1540 C   0  0  0  0  0  0  0  0  0  0  0  0
   45.7720   33.9740   44.1530 C   0  0  0  0  0  0  0  0  0  0  0  0
   45.2040   34.1710   45.3450 N   0  0  0  0  0  0  0  0  0  0  0  0
   44.6100   35.3690   45.6210 C   0  0  0  0  0  0  0  0  0  0  0  0
   44.6000   36.3410   44.6930 N   0  0  0  0  0  0  0  0  0  0  0  0
   45.1340   36.9680   42.7780 H   0  0  0  0  0  0  0  0  0  0  0  0
   44.1460   35.5410   46.5850 H   0  0  0  0  0  0  0  0  0  0  0  0
   46.3870   32.7130   43.8870 C   0  0  0  0  0  0  0  0  0  0  0  0
   47.6570   32.2220   43.9740 C   0  0  0  0  0  0  0  0  0  0  0  0
   47.9390   30.9760   43.6550 C   0  0  0  0  0  0  0  0  0  0  0  0
   46.9270   30.2010   43.2390 C   0  0  0  0  0  0  0  0  0  0  0  0
   45.4690   31.3000   43.2980 S   0  0  0  0  0  0  0  0  0  0  0  0
   48.3980   32.9660   44.3310 H   0  0  0  0  0  0  0  0  0  0  0  0
   48.9200   30.5190   43.6990 H   0  0  0  0  0  0  0  0  0  0  0  0
   46.8730   29.1460   42.9150 H   0  0  0  0  0  0  0  0  0  0  0  0
  1 21  1  0  0  0  0
  2  1  2  0  0  0  0
  2  7  1  0  0  0  0
  3  2  1  0  0  0  0
  4  3  1  0  0  0  0
  4  5  2  0  0  0  0
  5  1  1  0  0  0  0
  6  4  1  0  0  0  0
  8  6  1  0  0  0  0
  9  6  1  0  0  0  0
 10  3  1  0  0  0  0
 10 13  1  0  0  0  0
 11 10  1  0  0  0  0
 12 10  1  0  0  0  0
 13 14  1  0  0  0  0
 14 16  1  0  0  0  0
 15 14  1  0  0  0  0
 16 17  1  0  0  0  0
 18 16  1  0  0  0  0
 19 18  1  0  0  0  0
 20 13  1  0  0  0  0
 20 19  1  0  0  0  0
 21 24  1  0  0  0  0
 22 21  2  0  0  0  0
 23 28  1  0  0  0  0
 24 23  2  0  0  0  0
 24 25  1  0  0  0  0
 25 26  2  0  0  0  0
 26 27  1  0  0  0  0
 27 30  1  0  0  0  0
 28 27  2  0  0  0  0
 29 23  1  0  0  0  0
 31 32  2  0  0  0  0
 31 25  1  0  0  0  0
 32 36  1  0  0  0  0
 33 37  1  0  0  0  0
 33 32  1  0  0  0  0
 34 35  1  0  0  0  0
 34 33  2  0  0  0  0
 35 31  1  0  0  0  0
 38 34  1  0  0  0  0
M  END
>  <minimizedAffinity>
-5.58512974

>  <minimizedRMSD>
1.93867731

$$$$
