
 OpenBabel03252503203D

 38 41  0  0  0  0  0  0  0  0999 V2000
   36.3820   30.2510   39.1190 C   0  0  0  0  0  0  0  0  0  0  0  0
   36.7260   31.2740   39.9710 C   0  0  0  0  0  0  0  0  0  0  0  0
   37.5750   32.0650   39.2810 N   0  0  0  0  0  0  0  0  0  0  0  0
   37.7350   31.5330   38.0520 C   0  0  0  0  0  0  0  0  0  0  0  0
   37.0060   30.4190   37.9450 N   0  0  0  0  0  0  0  0  0  0  0  0
   38.5180   31.9820   36.9430 N   0  0  0  0  0  0  0  0  0  0  0  0
   36.4000   31.4350   40.9870 H   0  0  0  0  0  0  0  0  0  0  0  0
   39.3410   31.4040   36.7480 H   0  0  0  0  0  0  0  0  0  0  0  0
   38.3810   32.8040   36.3050 H   0  0  0  0  0  0  0  0  0  0  0  0
   38.2390   33.2680   39.6980 C   0  0  0  0  0  0  0  0  0  0  0  0
   38.1020   34.0730   38.9470 H   0  0  0  0  0  0  0  0  0  0  0  0
   37.7800   33.5660   40.6590 H   0  0  0  0  0  0  0  0  0  0  0  0
   39.6480   33.0000   39.8200 N   0  0  0  0  0  0  0  0  0  0  0  0
   39.9380   32.3210   41.0510 C   0  0  0  0  0  3  0  0  0  0  0  0
   39.7360   33.0590   41.8660 H   0  0  0  0  0  0  0  0  0  0  0  0
   41.4040   31.9560   41.0620 C   0  0  0  0  0  3  0  0  0  0  0  0
   41.6260   31.4590   42.0110 H   0  0  0  0  0  0  0  0  0  0  0  0
   42.1700   33.1230   41.0020 O   0  0  0  0  0  0  0  0  0  0  0  0
   41.9220   33.7420   39.7800 C   0  0  0  0  0  2  0  0  0  0  0  0
   40.4590   34.1600   39.6930 C   0  0  0  0  0  2  0  0  0  0  0  0
   35.4570   29.1150   39.4320 C   0  0  0  0  0  0  0  0  0  0  0  0
   34.3010   29.2660   39.9370 O   0  0  0  0  0  0  0  0  0  0  0  0
   35.4230   27.1300   37.9980 C   0  0  0  0  0  0  0  0  0  0  0  0
   35.8450   27.7800   39.1680 C   0  0  0  0  0  0  0  0  0  0  0  0
   36.6440   27.0050   39.9900 C   0  0  0  0  0  0  0  0  0  0  0  0
   36.9880   25.7470   39.7060 N   0  0  0  0  0  0  0  0  0  0  0  0
   36.5450   25.1690   38.5510 C   0  0  0  0  0  0  0  0  0  0  0  0
   35.7660   25.8690   37.7090 N   0  0  0  0  0  0  0  0  0  0  0  0
   34.7840   27.6550   37.2740 H   0  0  0  0  0  0  0  0  0  0  0  0
   36.8180   24.1490   38.3100 H   0  0  0  0  0  0  0  0  0  0  0  0
   37.1200   27.5890   41.2030 C   0  0  0  0  0  0  0  0  0  0  0  0
   36.6190   27.7360   42.4640 C   0  0  0  0  0  0  0  0  0  0  0  0
   37.3070   28.3330   43.4140 C   0  0  0  0  0  0  0  0  0  0  0  0
   38.5250   28.7950   43.0980 C   0  0  0  0  0  0  0  0  0  0  0  0
   38.7240   28.3600   41.3360 S   0  0  0  0  0  0  0  0  0  0  0  0
   35.6030   27.3100   42.5920 H   0  0  0  0  0  0  0  0  0  0  0  0
   36.9740   28.4860   44.4340 H   0  0  0  0  0  0  0  0  0  0  0  0
   39.3020   29.3240   43.6800 H   0  0  0  0  0  0  0  0  0  0  0  0
  1 21  1  0  0  0  0
  1  2  2  0  0  0  0
  2  7  1  0  0  0  0
  3 10  1  0  0  0  0
  3  2  1  0  0  0  0
  4  3  1  0  0  0  0
  5  4  2  0  0  0  0
  5  1  1  0  0  0  0
  6  4  1  0  0  0  0
  8  6  1  0  0  0  0
  9  6  1  0  0  0  0
 10 13  1  0  0  0  0
 10 12  1  0  0  0  0
 11 10  1  0  0  0  0
 13 14  1  0  0  0  0
 14 16  1  0  0  0  0
 14 15  1  0  0  0  0
 16 17  1  0  0  0  0
 18 16  1  0  0  0  0
 19 18  1  0  0  0  0
 20 19  1  0  0  0  0
 20 13  1  0  0  0  0
 21 22  2  0  0  0  0
 23 24  1  0  0  0  0
 24 21  1  0  0  0  0
 24 25  2  0  0  0  0
 25 31  1  0  0  0  0
 26 25  1  0  0  0  0
 27 26  2  0  0  0  0
 28 23  2  0  0  0  0
 28 27  1  0  0  0  0
 29 23  1  0  0  0  0
 30 27  1  0  0  0  0
 31 35  1  0  0  0  0
 31 32  2  0  0  0  0
 32 36  1  0  0  0  0
 32 33  1  0  0  0  0
 33 37  1  0  0  0  0
 34 33  2  0  0  0  0
 34 38  1  0  0  0  0
 35 34  1  0  0  0  0
M  END
>  <minimizedAffinity>
-5.74285364

$$$$

 OpenBabel03252503203D

 38 41  0  0  0  0  0  0  0  0999 V2000
   37.9310   31.8280   40.6210 C   0  0  0  0  0  0  0  0  0  0  0  0
   38.6690   31.0570   41.4880 C   0  0  0  0  0  0  0  0  0  0  0  0
   37.8570   30.0500   41.8750 N   0  0  0  0  0  0  0  0  0  0  0  0
   36.6680   30.2120   41.2590 C   0  0  0  0  0  0  0  0  0  0  0  0
   36.7060   31.3020   40.4880 N   0  0  0  0  0  0  0  0  0  0  0  0
   35.4770   29.4240   41.3210 N   0  0  0  0  0  0  0  0  0  0  0  0
   39.6890   31.2030   41.8090 H   0  0  0  0  0  0  0  0  0  0  0  0
   34.7040   29.8680   41.8270 H   0  0  0  0  0  0  0  0  0  0  0  0
   35.2740   28.4700   40.9320 H   0  0  0  0  0  0  0  0  0  0  0  0
   38.1210   28.9640   42.7770 C   0  0  0  0  0  0  0  0  0  0  0  0
   39.1410   29.0480   43.2060 H   0  0  0  0  0  0  0  0  0  0  0  0
   37.3660   29.0310   43.5810 H   0  0  0  0  0  0  0  0  0  0  0  0
   38.0410   27.7260   42.0470 N   0  0  0  0  0  0  0  0  0  0  0  0
   37.3760   26.7150   42.8200 C   0  0  0  0  0  3  0  0  0  0  0  0
   38.0590   26.4780   43.6720 H   0  0  0  0  0  0  0  0  0  0  0  0
   37.2100   25.4860   41.9570 C   0  0  0  0  0  3  0  0  0  0  0  0
   36.7240   24.7110   42.5560 H   0  0  0  0  0  0  0  0  0  0  0  0
   38.4700   25.0100   41.5860 O   0  0  0  0  0  0  0  0  0  0  0  0
   39.0800   25.9750   40.7900 C   0  0  0  0  0  2  0  0  0  0  0  0
   39.3020   27.2520   41.5940 C   0  0  0  0  0  2  0  0  0  0  0  0
   38.4020   33.0680   39.9240 C   0  0  0  0  0  0  0  0  0  0  0  0
   37.7520   34.1590   39.9110 O   0  0  0  0  0  0  0  0  0  0  0  0
   40.6690   33.9390   39.6130 C   0  0  0  0  0  0  0  0  0  0  0  0
   39.6330   33.0750   39.2260 C   0  0  0  0  0  0  0  0  0  0  0  0
   39.9390   32.2720   38.1420 C   0  0  0  0  0  0  0  0  0  0  0  0
   41.1150   32.3080   37.5100 N   0  0  0  0  0  0  0  0  0  0  0  0
   42.0840   33.1720   37.9330 C   0  0  0  0  0  0  0  0  0  0  0  0
   41.8490   33.9790   38.9820 N   0  0  0  0  0  0  0  0  0  0  0  0
   40.5310   34.6210   40.4640 H   0  0  0  0  0  0  0  0  0  0  0  0
   43.0410   33.2100   37.4280 H   0  0  0  0  0  0  0  0  0  0  0  0
   38.9410   31.3600   37.6820 C   0  0  0  0  0  0  0  0  0  0  0  0
   37.7680   31.4810   36.9960 C   0  0  0  0  0  0  0  0  0  0  0  0
   37.0330   30.4300   36.6970 C   0  0  0  0  0  0  0  0  0  0  0  0
   37.4790   29.2300   37.0940 C   0  0  0  0  0  0  0  0  0  0  0  0
   39.0500   29.5990   37.9500 S   0  0  0  0  0  0  0  0  0  0  0  0
   37.5140   32.5270   36.7280 H   0  0  0  0  0  0  0  0  0  0  0  0
   36.0930   30.4500   36.1570 H   0  0  0  0  0  0  0  0  0  0  0  0
   37.0790   28.2060   36.9850 H   0  0  0  0  0  0  0  0  0  0  0  0
  1  2  2  0  0  0  0
  2  7  1  0  0  0  0
  2  3  1  0  0  0  0
  3 10  1  0  0  0  0
  4  6  1  0  0  0  0
  4  3  1  0  0  0  0
  5  1  1  0  0  0  0
  5  4  2  0  0  0  0
  6  8  1  0  0  0  0
  9  6  1  0  0  0  0
 10 11  1  0  0  0  0
 10 12  1  0  0  0  0
 13 10  1  0  0  0  0
 13 14  1  0  0  0  0
 14 15  1  0  0  0  0
 16 17  1  0  0  0  0
 16 14  1  0  0  0  0
 18 16  1  0  0  0  0
 19 18  1  0  0  0  0
 19 20  1  0  0  0  0
 20 13  1  0  0  0  0
 21  1  1  0  0  0  0
 22 21  2  0  0  0  0
 23 29  1  0  0  0  0
 24 23  1  0  0  0  0
 24 21  1  0  0  0  0
 25 24  2  0  0  0  0
 26 27  2  0  0  0  0
 26 25  1  0  0  0  0
 27 28  1  0  0  0  0
 28 23  2  0  0  0  0
 30 27  1  0  0  0  0
 31 35  1  0  0  0  0
 31 25  1  0  0  0  0
 32 31  2  0  0  0  0
 33 32  1  0  0  0  0
 33 34  2  0  0  0  0
 34 35  1  0  0  0  0
 36 32  1  0  0  0  0
 37 33  1  0  0  0  0
 38 34  1  0  0  0  0
M  END
>  <minimizedAffinity>
-5.69591141

$$$$

 OpenBabel03252503203D

 38 41  0  0  0  0  0  0  0  0999 V2000
   38.5760   31.1330   39.7820 C   0  0  0  0  0  0  0  0  0  0  0  0
   39.9090   30.8770   40.0010 C   0  0  0  0  0  0  0  0  0  0  0  0
   40.5540   31.2800   38.8860 N   0  0  0  0  0  0  0  0  0  0  0  0
   39.6370   31.7620   38.0240 C   0  0  0  0  0  0  0  0  0  0  0  0
   38.4190   31.6760   38.5670 N   0  0  0  0  0  0  0  0  0  0  0  0
   39.7950   32.3140   36.7140 N   0  0  0  0  0  0  0  0  0  0  0  0
   40.3710   30.4450   40.8750 H   0  0  0  0  0  0  0  0  0  0  0  0
   39.4480   31.7140   35.9600 H   0  0  0  0  0  0  0  0  0  0  0  0
   40.2080   33.2300   36.4100 H   0  0  0  0  0  0  0  0  0  0  0  0
   41.9570   31.2350   38.5810 C   0  0  0  0  0  0  0  0  0  0  0  0
   42.3410   32.2500   38.3490 H   0  0  0  0  0  0  0  0  0  0  0  0
   42.4640   30.8360   39.4780 H   0  0  0  0  0  0  0  0  0  0  0  0
   42.1520   30.4030   37.4220 N   0  0  0  0  0  0  0  0  0  0  0  0
   42.3100   29.0270   37.7980 C   0  0  0  0  0  3  0  0  0  0  0  0
   43.2860   28.9640   38.3380 H   0  0  0  0  0  0  0  0  0  0  0  0
   42.3830   28.1940   36.5390 C   0  0  0  0  0  3  0  0  0  0  0  0
   42.5250   27.1490   36.8280 H   0  0  0  0  0  0  0  0  0  0  0  0
   43.4960   28.5850   35.7900 O   0  0  0  0  0  0  0  0  0  0  0  0
   43.3030   29.9030   35.3850 C   0  0  0  0  0  2  0  0  0  0  0  0
   43.2360   30.8190   36.6020 C   0  0  0  0  0  2  0  0  0  0  0  0
   37.4550   30.8570   40.7370 C   0  0  0  0  0  0  0  0  0  0  0  0
   36.4960   31.6610   40.9500 O   0  0  0  0  0  0  0  0  0  0  0  0
   38.1000   29.5250   42.6880 C   0  0  0  0  0  0  0  0  0  0  0  0
   37.4180   29.6450   41.4680 C   0  0  0  0  0  0  0  0  0  0  0  0
   36.7390   28.5030   41.0820 C   0  0  0  0  0  0  0  0  0  0  0  0
   36.7280   27.3780   41.8000 N   0  0  0  0  0  0  0  0  0  0  0  0
   37.4120   27.3210   42.9800 C   0  0  0  0  0  0  0  0  0  0  0  0
   38.0910   28.3980   43.4110 N   0  0  0  0  0  0  0  0  0  0  0  0
   38.6720   30.3730   43.0880 H   0  0  0  0  0  0  0  0  0  0  0  0
   37.4100   26.4140   43.5710 H   0  0  0  0  0  0  0  0  0  0  0  0
   36.0160   28.5380   39.8510 C   0  0  0  0  0  0  0  0  0  0  0  0
   34.7640   28.9320   39.4790 C   0  0  0  0  0  0  0  0  0  0  0  0
   34.3570   28.8510   38.2300 C   0  0  0  0  0  0  0  0  0  0  0  0
   35.2220   28.3630   37.3290 C   0  0  0  0  0  0  0  0  0  0  0  0
   36.7200   27.9910   38.3050 S   0  0  0  0  0  0  0  0  0  0  0  0
   34.1490   29.3160   40.3200 H   0  0  0  0  0  0  0  0  0  0  0  0
   33.3800   29.1440   37.8630 H   0  0  0  0  0  0  0  0  0  0  0  0
   35.1530   28.1860   36.2410 H   0  0  0  0  0  0  0  0  0  0  0  0
  1  2  2  0  0  0  0
  1 21  1  0  0  0  0
  2  7  1  0  0  0  0
  3  2  1  0  0  0  0
  4  5  2  0  0  0  0
  4  3  1  0  0  0  0
  5  1  1  0  0  0  0
  6  4  1  0  0  0  0
  8  6  1  0  0  0  0
  9  6  1  0  0  0  0
 10  3  1  0  0  0  0
 10 12  1  0  0  0  0
 11 10  1  0  0  0  0
 13 14  1  0  0  0  0
 13 10  1  0  0  0  0
 14 15  1  0  0  0  0
 16 17  1  0  0  0  0
 16 14  1  0  0  0  0
 18 16  1  0  0  0  0
 19 18  1  0  0  0  0
 19 20  1  0  0  0  0
 20 13  1  0  0  0  0
 21 22  2  0  0  0  0
 21 24  1  0  0  0  0
 23 29  1  0  0  0  0
 23 28  1  0  0  0  0
 24 23  2  0  0  0  0
 25 24  1  0  0  0  0
 25 26  2  0  0  0  0
 26 27  1  0  0  0  0
 27 28  2  0  0  0  0
 27 30  1  0  0  0  0
 31 25  1  0  0  0  0
 32 31  2  0  0  0  0
 32 36  1  0  0  0  0
 33 32  1  0  0  0  0
 34 33  2  0  0  0  0
 34 35  1  0  0  0  0
 35 31  1  0  0  0  0
 37 33  1  0  0  0  0
 38 34  1  0  0  0  0
M  END
>  <minimizedAffinity>
-5.54272795

$$$$

 OpenBabel03252503203D

 38 41  0  0  0  0  0  0  0  0999 V2000
   38.6040   31.0200   39.8220 C   0  0  0  0  0  0  0  0  0  0  0  0
   39.8990   30.5870   39.9830 C   0  0  0  0  0  0  0  0  0  0  0  0
   40.5720   31.0120   38.8920 N   0  0  0  0  0  0  0  0  0  0  0  0
   39.7070   31.6790   38.1010 C   0  0  0  0  0  0  0  0  0  0  0  0
   38.4960   31.6880   38.6660 N   0  0  0  0  0  0  0  0  0  0  0  0
   39.9110   32.3280   36.8440 N   0  0  0  0  0  0  0  0  0  0  0  0
   40.3180   30.0230   40.8010 H   0  0  0  0  0  0  0  0  0  0  0  0
   39.4830   31.8480   36.0470 H   0  0  0  0  0  0  0  0  0  0  0  0
   40.4280   33.2130   36.6140 H   0  0  0  0  0  0  0  0  0  0  0  0
   41.9540   30.8290   38.5470 C   0  0  0  0  0  0  0  0  0  0  0  0
   42.4530   30.1520   39.2710 H   0  0  0  0  0  0  0  0  0  0  0  0
   41.9710   30.3800   37.5370 H   0  0  0  0  0  0  0  0  0  0  0  0
   42.6150   32.1070   38.5940 N   0  0  0  0  0  0  0  0  0  0  0  0
   43.6330   32.1950   37.5850 C   0  0  0  0  0  3  0  0  0  0  0  0
   44.4310   31.4720   37.8850 H   0  0  0  0  0  0  0  0  0  0  0  0
   44.2010   33.5960   37.6010 C   0  0  0  0  0  3  0  0  0  0  0  0
   44.9910   33.6540   36.8470 H   0  0  0  0  0  0  0  0  0  0  0  0
   44.7810   33.8440   38.8480 O   0  0  0  0  0  0  0  0  0  0  0  0
   43.7750   33.8110   39.8080 C   0  0  0  0  0  2  0  0  0  0  0  0
   43.1560   32.4190   39.8700 C   0  0  0  0  0  2  0  0  0  0  0  0
   37.4720   30.7910   40.7770 C   0  0  0  0  0  0  0  0  0  0  0  0
   36.5400   31.6300   40.9790 O   0  0  0  0  0  0  0  0  0  0  0  0
   38.0530   29.4660   42.7530 C   0  0  0  0  0  0  0  0  0  0  0  0
   37.3920   29.5900   41.5200 C   0  0  0  0  0  0  0  0  0  0  0  0
   36.6910   28.4610   41.1370 C   0  0  0  0  0  0  0  0  0  0  0  0
   36.6400   27.3440   41.8670 N   0  0  0  0  0  0  0  0  0  0  0  0
   37.3040   27.2840   43.0580 C   0  0  0  0  0  0  0  0  0  0  0  0
   38.0040   28.3480   43.4880 N   0  0  0  0  0  0  0  0  0  0  0  0
   38.6410   30.3050   43.1520 H   0  0  0  0  0  0  0  0  0  0  0  0
   37.2700   26.3840   43.6590 H   0  0  0  0  0  0  0  0  0  0  0  0
   35.9870   28.5000   39.8950 C   0  0  0  0  0  0  0  0  0  0  0  0
   34.7510   28.9200   39.5000 C   0  0  0  0  0  0  0  0  0  0  0  0
   34.3620   28.8350   38.2450 C   0  0  0  0  0  0  0  0  0  0  0  0
   35.2290   28.3170   37.3630 C   0  0  0  0  0  0  0  0  0  0  0  0
   36.7020   27.9190   38.3650 S   0  0  0  0  0  0  0  0  0  0  0  0
   34.1330   29.3270   40.3260 H   0  0  0  0  0  0  0  0  0  0  0  0
   33.3980   29.1470   37.8600 H   0  0  0  0  0  0  0  0  0  0  0  0
   35.1720   28.1300   36.2750 H   0  0  0  0  0  0  0  0  0  0  0  0
  1  2  2  0  0  0  0
  1 21  1  0  0  0  0
  2  7  1  0  0  0  0
  3  2  1  0  0  0  0
  4  5  2  0  0  0  0
  4  3  1  0  0  0  0
  5  1  1  0  0  0  0
  6  4  1  0  0  0  0
  8  6  1  0  0  0  0
  9  6  1  0  0  0  0
 10 13  1  0  0  0  0
 10  3  1  0  0  0  0
 10 11  1  0  0  0  0
 12 10  1  0  0  0  0
 13 20  1  0  0  0  0
 14 16  1  0  0  0  0
 14 15  1  0  0  0  0
 14 13  1  0  0  0  0
 16 18  1  0  0  0  0
 17 16  1  0  0  0  0
 18 19  1  0  0  0  0
 19 20  1  0  0  0  0
 21 22  2  0  0  0  0
 21 24  1  0  0  0  0
 23 29  1  0  0  0  0
 23 28  1  0  0  0  0
 24 23  2  0  0  0  0
 25 24  1  0  0  0  0
 25 26  2  0  0  0  0
 26 27  1  0  0  0  0
 27 28  2  0  0  0  0
 27 30  1  0  0  0  0
 31 25  1  0  0  0  0
 32 31  2  0  0  0  0
 32 36  1  0  0  0  0
 33 32  1  0  0  0  0
 34 33  2  0  0  0  0
 34 35  1  0  0  0  0
 35 31  1  0  0  0  0
 37 33  1  0  0  0  0
 38 34  1  0  0  0  0
M  END
>  <minimizedAffinity>
-5.5200038

$$$$

 OpenBabel03252503203D

 38 41  0  0  0  0  0  0  0  0999 V2000
   37.5480   28.8100   41.5590 C   0  0  0  0  0  0  0  0  0  0  0  0
   38.3280   28.9490   40.4360 C   0  0  0  0  0  0  0  0  0  0  0  0
   38.0450   30.1700   39.9340 N   0  0  0  0  0  0  0  0  0  0  0  0
   37.1230   30.7460   40.7330 C   0  0  0  0  0  0  0  0  0  0  0  0
   36.8130   29.9160   41.7330 N   0  0  0  0  0  0  0  0  0  0  0  0
   36.4950   32.0280   40.6500 N   0  0  0  0  0  0  0  0  0  0  0  0
   39.0300   28.2440   40.0180 H   0  0  0  0  0  0  0  0  0  0  0  0
   35.5070   31.9970   40.3830 H   0  0  0  0  0  0  0  0  0  0  0  0
   36.8880   32.9870   40.8200 H   0  0  0  0  0  0  0  0  0  0  0  0
   38.5720   30.8190   38.7670 C   0  0  0  0  0  0  0  0  0  0  0  0
   38.4960   30.1560   37.8800 H   0  0  0  0  0  0  0  0  0  0  0  0
   37.9660   31.7310   38.6100 H   0  0  0  0  0  0  0  0  0  0  0  0
   39.9630   31.1150   38.9910 N   0  0  0  0  0  0  0  0  0  0  0  0
   40.1680   32.5250   39.1670 C   0  0  0  0  0  3  0  0  0  0  0  0
   39.9520   32.9950   38.1760 H   0  0  0  0  0  0  0  0  0  0  0  0
   41.6190   32.7560   39.5220 C   0  0  0  0  0  3  0  0  0  0  0  0
   41.7760   33.8320   39.6330 H   0  0  0  0  0  0  0  0  0  0  0  0
   42.4270   32.3130   38.4720 O   0  0  0  0  0  0  0  0  0  0  0  0
   42.2620   30.9360   38.3500 C   0  0  0  0  0  2  0  0  0  0  0  0
   40.8200   30.6140   37.9730 C   0  0  0  0  0  2  0  0  0  0  0  0
   37.5090   27.6160   42.4640 C   0  0  0  0  0  0  0  0  0  0  0  0
   36.4740   27.2470   43.1010 O   0  0  0  0  0  0  0  0  0  0  0  0
   39.7120   27.2640   43.4730 C   0  0  0  0  0  0  0  0  0  0  0  0
   38.6640   26.8200   42.6520 C   0  0  0  0  0  0  0  0  0  0  0  0
   38.8800   25.5800   42.0770 C   0  0  0  0  0  0  0  0  0  0  0  0
   39.9860   24.8600   42.2800 N   0  0  0  0  0  0  0  0  0  0  0  0
   40.9710   25.3450   43.0900 C   0  0  0  0  0  0  0  0  0  0  0  0
   40.8220   26.5440   43.6790 N   0  0  0  0  0  0  0  0  0  0  0  0
   39.6430   28.2380   43.9790 H   0  0  0  0  0  0  0  0  0  0  0  0
   41.8720   24.7700   43.2620 H   0  0  0  0  0  0  0  0  0  0  0  0
   37.8630   25.0510   41.2260 C   0  0  0  0  0  0  0  0  0  0  0  0
   36.8060   24.2070   41.3970 C   0  0  0  0  0  0  0  0  0  0  0  0
   36.0080   23.8890   40.3990 C   0  0  0  0  0  0  0  0  0  0  0  0
   36.2740   24.4270   39.2000 C   0  0  0  0  0  0  0  0  0  0  0  0
   37.7520   25.4580   39.4910 S   0  0  0  0  0  0  0  0  0  0  0  0
   36.6980   23.8320   42.4360 H   0  0  0  0  0  0  0  0  0  0  0  0
   35.1520   23.2270   40.4600 H   0  0  0  0  0  0  0  0  0  0  0  0
   35.7860   24.3390   38.2120 H   0  0  0  0  0  0  0  0  0  0  0  0
  1  5  1  0  0  0  0
  1 21  1  0  0  0  0
  2  1  2  0  0  0  0
  3  2  1  0  0  0  0
  3  4  1  0  0  0  0
  4  5  2  0  0  0  0
  6  4  1  0  0  0  0
  6  9  1  0  0  0  0
  7  2  1  0  0  0  0
  8  6  1  0  0  0  0
 10 13  1  0  0  0  0
 10  3  1  0  0  0  0
 11 10  1  0  0  0  0
 12 10  1  0  0  0  0
 13 14  1  0  0  0  0
 14 16  1  0  0  0  0
 15 14  1  0  0  0  0
 16 17  1  0  0  0  0
 18 16  1  0  0  0  0
 19 18  1  0  0  0  0
 20 19  1  0  0  0  0
 20 13  1  0  0  0  0
 21 24  1  0  0  0  0
 21 22  2  0  0  0  0
 23 28  1  0  0  0  0
 23 29  1  0  0  0  0
 24 23  2  0  0  0  0
 25 26  2  0  0  0  0
 25 24  1  0  0  0  0
 26 27  1  0  0  0  0
 27 30  1  0  0  0  0
 27 28  2  0  0  0  0
 31 32  2  0  0  0  0
 31 25  1  0  0  0  0
 32 36  1  0  0  0  0
 33 37  1  0  0  0  0
 33 32  1  0  0  0  0
 34 35  1  0  0  0  0
 34 33  2  0  0  0  0
 35 31  1  0  0  0  0
 38 34  1  0  0  0  0
M  END
>  <minimizedAffinity>
-5.47337914

$$$$

 OpenBabel03252503203D

 38 41  0  0  0  0  0  0  0  0999 V2000
   38.8850   29.2400   41.0050 C   0  0  0  0  0  0  0  0  0  0  0  0
   39.2870   27.9290   41.1060 C   0  0  0  0  0  0  0  0  0  0  0  0
   38.5700   27.3960   42.1180 N   0  0  0  0  0  0  0  0  0  0  0  0
   37.7630   28.3590   42.6100 C   0  0  0  0  0  0  0  0  0  0  0  0
   37.9510   29.4940   41.9310 N   0  0  0  0  0  0  0  0  0  0  0  0
   36.8090   28.3140   43.6730 N   0  0  0  0  0  0  0  0  0  0  0  0
   40.0200   27.4070   40.5110 H   0  0  0  0  0  0  0  0  0  0  0  0
   37.0910   28.8270   44.5140 H   0  0  0  0  0  0  0  0  0  0  0  0
   35.8720   27.8420   43.7250 H   0  0  0  0  0  0  0  0  0  0  0  0
   38.5980   26.0620   42.6490 C   0  0  0  0  0  0  0  0  0  0  0  0
   39.6190   25.7970   42.9920 H   0  0  0  0  0  0  0  0  0  0  0  0
   37.8970   26.0470   43.5040 H   0  0  0  0  0  0  0  0  0  0  0  0
   38.2180   25.1420   41.6090 N   0  0  0  0  0  0  0  0  0  0  0  0
   36.8940   24.6340   41.8310 C   0  0  0  0  0  3  0  0  0  0  0  0
   36.9580   23.9920   42.7440 H   0  0  0  0  0  0  0  0  0  0  0  0
   36.5070   23.7780   40.6470 C   0  0  0  0  0  3  0  0  0  0  0  0
   35.5070   23.3740   40.8290 H   0  0  0  0  0  0  0  0  0  0  0  0
   37.3910   22.7000   40.5480 O   0  0  0  0  0  0  0  0  0  0  0  0
   38.6600   23.2040   40.2780 C   0  0  0  0  0  2  0  0  0  0  0  0
   39.1370   24.0710   41.4370 C   0  0  0  0  0  2  0  0  0  0  0  0
   39.3980   30.2470   40.0210 C   0  0  0  0  0  0  0  0  0  0  0  0
   40.3370   30.0130   39.1970 O   0  0  0  0  0  0  0  0  0  0  0  0
   39.3680   32.5850   40.7470 C   0  0  0  0  0  0  0  0  0  0  0  0
   38.8400   31.5450   39.9660 C   0  0  0  0  0  0  0  0  0  0  0  0
   37.7660   31.9180   39.1770 C   0  0  0  0  0  0  0  0  0  0  0  0
   37.2670   33.1560   39.1530 N   0  0  0  0  0  0  0  0  0  0  0  0
   37.8240   34.1250   39.9370 C   0  0  0  0  0  0  0  0  0  0  0  0
   38.8700   33.8280   40.7260 N   0  0  0  0  0  0  0  0  0  0  0  0
   40.2240   32.3980   41.4110 H   0  0  0  0  0  0  0  0  0  0  0  0
   37.4280   35.1330   39.9260 H   0  0  0  0  0  0  0  0  0  0  0  0
   37.1670   30.9220   38.3490 C   0  0  0  0  0  0  0  0  0  0  0  0
   37.3370   30.5090   37.0600 C   0  0  0  0  0  0  0  0  0  0  0  0
   36.6210   29.5300   36.5480 C   0  0  0  0  0  0  0  0  0  0  0  0
   35.7110   28.9490   37.3430 C   0  0  0  0  0  0  0  0  0  0  0  0
   35.8700   29.8400   38.9290 S   0  0  0  0  0  0  0  0  0  0  0  0
   38.1210   31.0720   36.5120 H   0  0  0  0  0  0  0  0  0  0  0  0
   36.7010   29.1510   35.5350 H   0  0  0  0  0  0  0  0  0  0  0  0
   34.9900   28.1270   37.1830 H   0  0  0  0  0  0  0  0  0  0  0  0
  1  2  2  0  0  0  0
  1  5  1  0  0  0  0
  2  3  1  0  0  0  0
  3  4  1  0  0  0  0
  3 10  1  0  0  0  0
  4  6  1  0  0  0  0
  5  4  2  0  0  0  0
  6  9  1  0  0  0  0
  6  8  1  0  0  0  0
  7  2  1  0  0  0  0
 10 11  1  0  0  0  0
 10 12  1  0  0  0  0
 13 14  1  0  0  0  0
 13 10  1  0  0  0  0
 14 15  1  0  0  0  0
 16 17  1  0  0  0  0
 16 14  1  0  0  0  0
 18 16  1  0  0  0  0
 19 18  1  0  0  0  0
 19 20  1  0  0  0  0
 20 13  1  0  0  0  0
 21  1  1  0  0  0  0
 22 21  2  0  0  0  0
 23 29  1  0  0  0  0
 24 21  1  0  0  0  0
 24 23  2  0  0  0  0
 25 24  1  0  0  0  0
 26 25  2  0  0  0  0
 26 27  1  0  0  0  0
 27 28  2  0  0  0  0
 28 23  1  0  0  0  0
 30 27  1  0  0  0  0
 31 35  1  0  0  0  0
 31 25  1  0  0  0  0
 32 31  2  0  0  0  0
 33 32  1  0  0  0  0
 33 34  2  0  0  0  0
 34 35  1  0  0  0  0
 36 32  1  0  0  0  0
 37 33  1  0  0  0  0
 38 34  1  0  0  0  0
M  END
>  <minimizedAffinity>
-5.43349504

$$$$

 OpenBabel03252503203D

 38 41  0  0  0  0  0  0  0  0999 V2000
   37.8860   29.3030   41.7640 C   0  0  0  0  0  0  0  0  0  0  0  0
   37.5400   30.3660   40.9630 C   0  0  0  0  0  0  0  0  0  0  0  0
   38.4360   31.3400   41.2290 N   0  0  0  0  0  0  0  0  0  0  0  0
   39.2930   30.8760   42.1620 C   0  0  0  0  0  0  0  0  0  0  0  0
   38.9610   29.6250   42.4940 N   0  0  0  0  0  0  0  0  0  0  0  0
   40.4200   31.5030   42.7790 N   0  0  0  0  0  0  0  0  0  0  0  0
   36.7260   30.4350   40.2580 H   0  0  0  0  0  0  0  0  0  0  0  0
   40.2770   31.7510   43.7630 H   0  0  0  0  0  0  0  0  0  0  0  0
   41.3620   31.7460   42.3830 H   0  0  0  0  0  0  0  0  0  0  0  0
   38.5330   32.6620   40.6770 C   0  0  0  0  0  0  0  0  0  0  0  0
   37.6870   32.8640   39.9880 H   0  0  0  0  0  0  0  0  0  0  0  0
   38.5010   33.3650   41.5300 H   0  0  0  0  0  0  0  0  0  0  0  0
   39.7580   32.7620   39.9270 N   0  0  0  0  0  0  0  0  0  0  0  0
   40.2740   34.1010   39.9600 C   0  0  0  0  0  3  0  0  0  0  0  0
   39.5530   34.7240   39.3760 H   0  0  0  0  0  0  0  0  0  0  0  0
   41.6170   34.1130   39.2680 C   0  0  0  0  0  3  0  0  0  0  0  0
   41.9970   35.1380   39.2740 H   0  0  0  0  0  0  0  0  0  0  0  0
   41.4520   33.7270   37.9350 O   0  0  0  0  0  0  0  0  0  0  0  0
   41.0060   32.4090   37.9170 C   0  0  0  0  0  2  0  0  0  0  0  0
   39.6390   32.3100   38.5850 C   0  0  0  0  0  2  0  0  0  0  0  0
   37.1840   27.9810   41.8260 C   0  0  0  0  0  0  0  0  0  0  0  0
   36.6200   27.5310   42.8710 O   0  0  0  0  0  0  0  0  0  0  0  0
   36.2000   27.4170   39.6560 C   0  0  0  0  0  0  0  0  0  0  0  0
   37.1190   27.1490   40.6830 C   0  0  0  0  0  0  0  0  0  0  0  0
   37.9110   26.0370   40.4610 C   0  0  0  0  0  0  0  0  0  0  0  0
   37.8180   25.2760   39.3670 N   0  0  0  0  0  0  0  0  0  0  0  0
   36.9040   25.5870   38.4020 C   0  0  0  0  0  0  0  0  0  0  0  0
   36.1040   26.6560   38.5580 N   0  0  0  0  0  0  0  0  0  0  0  0
   35.5220   28.2780   39.7310 H   0  0  0  0  0  0  0  0  0  0  0  0
   36.8190   24.9780   37.5110 H   0  0  0  0  0  0  0  0  0  0  0  0
   38.8740   25.6910   41.4560 C   0  0  0  0  0  0  0  0  0  0  0  0
   38.8830   24.8690   42.5450 C   0  0  0  0  0  0  0  0  0  0  0  0
   39.9510   24.7420   43.3040 C   0  0  0  0  0  0  0  0  0  0  0  0
   41.0370   25.4540   42.9680 C   0  0  0  0  0  0  0  0  0  0  0  0
   40.5250   26.3710   41.4750 S   0  0  0  0  0  0  0  0  0  0  0  0
   37.9230   24.3390   42.7110 H   0  0  0  0  0  0  0  0  0  0  0  0
   40.0310   24.1100   44.1810 H   0  0  0  0  0  0  0  0  0  0  0  0
   42.0450   25.5410   43.4130 H   0  0  0  0  0  0  0  0  0  0  0  0
  1 21  1  0  0  0  0
  1  5  1  0  0  0  0
  2  3  1  0  0  0  0
  2  1  2  0  0  0  0
  3  4  1  0  0  0  0
  4  5  2  0  0  0  0
  4  6  1  0  0  0  0
  6  8  1  0  0  0  0
  7  2  1  0  0  0  0
  9  6  1  0  0  0  0
 10  3  1  0  0  0  0
 10 12  1  0  0  0  0
 11 10  1  0  0  0  0
 13 14  1  0  0  0  0
 13 10  1  0  0  0  0
 15 14  1  0  0  0  0
 16 17  1  0  0  0  0
 16 14  1  0  0  0  0
 18 16  1  0  0  0  0
 19 18  1  0  0  0  0
 19 20  1  0  0  0  0
 20 13  1  0  0  0  0
 21 22  2  0  0  0  0
 23 29  1  0  0  0  0
 23 24  1  0  0  0  0
 24 21  1  0  0  0  0
 25 24  2  0  0  0  0
 25 31  1  0  0  0  0
 26 25  1  0  0  0  0
 27 28  1  0  0  0  0
 27 26  2  0  0  0  0
 28 23  2  0  0  0  0
 30 27  1  0  0  0  0
 31 35  1  0  0  0  0
 31 32  2  0  0  0  0
 32 36  1  0  0  0  0
 32 33  1  0  0  0  0
 33 37  1  0  0  0  0
 34 33  2  0  0  0  0
 34 38  1  0  0  0  0
 35 34  1  0  0  0  0
M  END
>  <minimizedAffinity>
-5.38016319

$$$$

 OpenBabel03252503203D

 38 41  0  0  0  0  0  0  0  0999 V2000
   36.7590   28.3550   41.4840 C   0  0  0  0  0  0  0  0  0  0  0  0
   37.1090   29.6670   41.6980 C   0  0  0  0  0  0  0  0  0  0  0  0
   36.7520   30.3360   40.5810 N   0  0  0  0  0  0  0  0  0  0  0  0
   36.2040   29.4520   39.7230 C   0  0  0  0  0  0  0  0  0  0  0  0
   36.2050   28.2330   40.2700 N   0  0  0  0  0  0  0  0  0  0  0  0
   35.6630   29.6440   38.4130 N   0  0  0  0  0  0  0  0  0  0  0  0
   37.5740   30.1010   42.5700 H   0  0  0  0  0  0  0  0  0  0  0  0
   36.2360   29.2540   37.6590 H   0  0  0  0  0  0  0  0  0  0  0  0
   34.7780   30.1200   38.1090 H   0  0  0  0  0  0  0  0  0  0  0  0
   36.8950   31.7310   40.2710 C   0  0  0  0  0  0  0  0  0  0  0  0
   36.3100   31.9940   39.3660 H   0  0  0  0  0  0  0  0  0  0  0  0
   36.5110   32.2900   41.1440 H   0  0  0  0  0  0  0  0  0  0  0  0
   38.2830   32.0060   40.0060 N   0  0  0  0  0  0  0  0  0  0  0  0
   38.7120   33.1910   40.6950 C   0  0  0  0  0  3  0  0  0  0  0  0
   38.1750   34.0420   40.2090 H   0  0  0  0  0  0  0  0  0  0  0  0
   40.2000   33.3540   40.4810 C   0  0  0  0  0  3  0  0  0  0  0  0
   40.5200   34.2680   40.9880 H   0  0  0  0  0  0  0  0  0  0  0  0
   40.4550   33.5100   39.1170 O   0  0  0  0  0  0  0  0  0  0  0  0
   40.0870   32.3340   38.4700 C   0  0  0  0  0  2  0  0  0  0  0  0
   38.5880   32.1010   38.6210 C   0  0  0  0  0  2  0  0  0  0  0  0
   36.9570   27.2210   42.4430 C   0  0  0  0  0  0  0  0  0  0  0  0
   36.5990   27.2570   43.6610 O   0  0  0  0  0  0  0  0  0  0  0  0
   36.8060   24.8650   41.7910 C   0  0  0  0  0  0  0  0  0  0  0  0
   37.5720   26.0200   42.0160 C   0  0  0  0  0  0  0  0  0  0  0  0
   38.9260   25.8570   41.7850 C   0  0  0  0  0  0  0  0  0  0  0  0
   39.4680   24.7050   41.3830 N   0  0  0  0  0  0  0  0  0  0  0  0
   38.6710   23.6160   41.1810 C   0  0  0  0  0  0  0  0  0  0  0  0
   37.3460   23.7090   41.3880 N   0  0  0  0  0  0  0  0  0  0  0  0
   35.7180   24.8850   41.9450 H   0  0  0  0  0  0  0  0  0  0  0  0
   39.0990   22.6760   40.8550 H   0  0  0  0  0  0  0  0  0  0  0  0
   39.7800   26.9820   41.9890 C   0  0  0  0  0  0  0  0  0  0  0  0
   40.3390   27.5840   43.0780 C   0  0  0  0  0  0  0  0  0  0  0  0
   41.1150   28.6410   42.9610 C   0  0  0  0  0  0  0  0  0  0  0  0
   41.3370   29.1100   41.7250 C   0  0  0  0  0  0  0  0  0  0  0  0
   40.3890   27.9850   40.6430 S   0  0  0  0  0  0  0  0  0  0  0  0
   40.0760   27.0970   44.0400 H   0  0  0  0  0  0  0  0  0  0  0  0
   41.5910   29.1700   43.7790 H   0  0  0  0  0  0  0  0  0  0  0  0
   41.9290   29.9600   41.3390 H   0  0  0  0  0  0  0  0  0  0  0  0
  1  2  2  0  0  0  0
  1 21  1  0  0  0  0
  2  7  1  0  0  0  0
  3  2  1  0  0  0  0
  4  5  2  0  0  0  0
  4  3  1  0  0  0  0
  5  1  1  0  0  0  0
  6  4  1  0  0  0  0
  8  6  1  0  0  0  0
  9  6  1  0  0  0  0
 10  3  1  0  0  0  0
 10 12  1  0  0  0  0
 11 10  1  0  0  0  0
 13 10  1  0  0  0  0
 13 14  1  0  0  0  0
 15 14  1  0  0  0  0
 16 14  1  0  0  0  0
 16 17  1  0  0  0  0
 18 16  1  0  0  0  0
 19 20  1  0  0  0  0
 19 18  1  0  0  0  0
 20 13  1  0  0  0  0
 21 22  2  0  0  0  0
 23 29  1  0  0  0  0
 23 24  1  0  0  0  0
 24 21  1  0  0  0  0
 25 31  1  0  0  0  0
 25 24  2  0  0  0  0
 26 25  1  0  0  0  0
 27 26  2  0  0  0  0
 27 28  1  0  0  0  0
 28 23  2  0  0  0  0
 30 27  1  0  0  0  0
 31 32  2  0  0  0  0
 32 36  1  0  0  0  0
 33 32  1  0  0  0  0
 33 37  1  0  0  0  0
 34 33  2  0  0  0  0
 35 34  1  0  0  0  0
 35 31  1  0  0  0  0
 38 34  1  0  0  0  0
M  END
>  <minimizedAffinity>
-5.37664843

$$$$

 OpenBabel03252503203D

 38 41  0  0  0  0  0  0  0  0999 V2000
   38.8760   31.7940   40.9620 C   0  0  0  0  0  0  0  0  0  0  0  0
   39.2690   30.9230   41.9510 C   0  0  0  0  0  0  0  0  0  0  0  0
   38.1860   30.1690   42.2360 N   0  0  0  0  0  0  0  0  0  0  0  0
   37.1740   30.5750   41.4430 C   0  0  0  0  0  0  0  0  0  0  0  0
   37.5910   31.5730   40.6570 N   0  0  0  0  0  0  0  0  0  0  0  0
   35.8280   30.1050   41.3440 N   0  0  0  0  0  0  0  0  0  0  0  0
   40.2370   30.8380   42.4200 H   0  0  0  0  0  0  0  0  0  0  0  0
   35.1260   30.7530   41.7130 H   0  0  0  0  0  0  0  0  0  0  0  0
   35.4510   29.2050   40.9540 H   0  0  0  0  0  0  0  0  0  0  0  0
   38.0420   29.1110   43.1960 C   0  0  0  0  0  0  0  0  0  0  0  0
   38.8640   29.1410   43.9410 H   0  0  0  0  0  0  0  0  0  0  0  0
   37.0700   29.2720   43.7000 H   0  0  0  0  0  0  0  0  0  0  0  0
   38.1040   27.8490   42.5070 N   0  0  0  0  0  0  0  0  0  0  0  0
   37.0180   26.9960   42.8990 C   0  0  0  0  0  3  0  0  0  0  0  0
   37.2060   26.7250   43.9670 H   0  0  0  0  0  0  0  0  0  0  0  0
   37.0650   25.7440   42.0530 C   0  0  0  0  0  3  0  0  0  0  0  0
   36.2500   25.0870   42.3690 H   0  0  0  0  0  0  0  0  0  0  0  0
   38.2690   25.0750   42.2870 O   0  0  0  0  0  0  0  0  0  0  0  0
   39.3090   25.8900   41.8510 C   0  0  0  0  0  2  0  0  0  0  0  0
   39.3450   27.1750   42.6690 C   0  0  0  0  0  2  0  0  0  0  0  0
   39.7340   32.8360   40.3110 C   0  0  0  0  0  0  0  0  0  0  0  0
   39.7420   34.0580   40.6560 O   0  0  0  0  0  0  0  0  0  0  0  0
   40.0950   32.2460   37.9620 C   0  0  0  0  0  0  0  0  0  0  0  0
   40.6020   32.4890   39.2490 C   0  0  0  0  0  0  0  0  0  0  0  0
   41.9750   32.3580   39.3520 C   0  0  0  0  0  0  0  0  0  0  0  0
   42.7610   32.0290   38.3240 N   0  0  0  0  0  0  0  0  0  0  0  0
   42.2090   31.8040   37.0960 C   0  0  0  0  0  0  0  0  0  0  0  0
   40.8800   31.9160   36.9290 N   0  0  0  0  0  0  0  0  0  0  0  0
   39.0160   32.3230   37.7690 H   0  0  0  0  0  0  0  0  0  0  0  0
   42.8360   31.5360   36.2540 H   0  0  0  0  0  0  0  0  0  0  0  0
   42.5750   32.5890   40.6270 C   0  0  0  0  0  0  0  0  0  0  0  0
   42.7880   31.8340   41.7430 C   0  0  0  0  0  0  0  0  0  0  0  0
   43.3910   32.3260   42.8040 C   0  0  0  0  0  0  0  0  0  0  0  0
   43.7910   33.6050   42.7500 C   0  0  0  0  0  0  0  0  0  0  0  0
   43.2850   34.1610   41.0860 S   0  0  0  0  0  0  0  0  0  0  0  0
   42.4100   30.7940   41.6570 H   0  0  0  0  0  0  0  0  0  0  0  0
   43.5940   31.7880   43.7230 H   0  0  0  0  0  0  0  0  0  0  0  0
   44.3070   34.2620   43.4740 H   0  0  0  0  0  0  0  0  0  0  0  0
  1  2  2  0  0  0  0
  2  3  1  0  0  0  0
  2  7  1  0  0  0  0
  3 10  1  0  0  0  0
  4  3  1  0  0  0  0
  5  1  1  0  0  0  0
  5  4  2  0  0  0  0
  6  4  1  0  0  0  0
  6  8  1  0  0  0  0
  9  6  1  0  0  0  0
 10 12  1  0  0  0  0
 10 11  1  0  0  0  0
 13 20  1  0  0  0  0
 13 14  1  0  0  0  0
 13 10  1  0  0  0  0
 14 15  1  0  0  0  0
 16 18  1  0  0  0  0
 16 17  1  0  0  0  0
 16 14  1  0  0  0  0
 19 18  1  0  0  0  0
 19 20  1  0  0  0  0
 21 22  2  0  0  0  0
 21  1  1  0  0  0  0
 23 24  1  0  0  0  0
 24 25  2  0  0  0  0
 24 21  1  0  0  0  0
 25 31  1  0  0  0  0
 26 25  1  0  0  0  0
 27 26  2  0  0  0  0
 28 27  1  0  0  0  0
 28 23  2  0  0  0  0
 29 23  1  0  0  0  0
 30 27  1  0  0  0  0
 31 35  1  0  0  0  0
 31 32  2  0  0  0  0
 32 33  1  0  0  0  0
 33 37  1  0  0  0  0
 34 33  2  0  0  0  0
 34 38  1  0  0  0  0
 35 34  1  0  0  0  0
 36 32  1  0  0  0  0
M  END
>  <minimizedAffinity>
-5.30866671

$$$$
