
 OpenBabel03252506453D

 41 44  0  0  1  0  0  0  0  0999 V2000
   49.4640   33.3920   41.4220 N   0  0  1  0  0  0  0  0  0  0  0  0
   50.6960   33.1080   42.1200 C   0  0  0  0  0  0  0  0  0  0  0  0
   51.3090   31.7810   41.7560 C   0  0  0  0  0  0  0  0  0  0  0  0
   50.3970   30.6790   42.2240 C   0  0  0  0  0  0  0  0  0  0  0  0
   48.9300   31.0810   42.1100 C   0  0  0  0  0  0  0  0  0  0  0  0
   48.8310   32.1560   41.0700 C   0  0  2  0  0  0  0  0  0  0  0  0
   50.4340   33.0260   43.2080 H   0  0  0  0  0  0  0  0  0  0  0  0
   51.4200   33.9470   42.0670 H   0  0  0  0  0  0  0  0  0  0  0  0
   51.6870   31.7010   40.7400 H   0  0  0  0  0  0  0  0  0  0  0  0
   52.2240   31.7010   42.4070 H   0  0  0  0  0  0  0  0  0  0  0  0
   50.6190   30.4190   43.2690 H   0  0  0  0  0  0  0  0  0  0  0  0
   50.5350   29.8150   41.5410 H   0  0  0  0  0  0  0  0  0  0  0  0
   48.6250   31.5490   43.0970 H   0  0  0  0  0  0  0  0  0  0  0  0
   48.2560   30.2730   41.9050 H   0  0  0  0  0  0  0  0  0  0  0  0
   47.7280   32.3980   41.0190 H   0  0  0  0  0  0  0  0  0  0  0  0
   47.2960   34.6730   41.9700 C   0  0  1  0  0  0  0  0  0  0  0  0
   48.4170   35.6170   41.7480 C   0  0  0  0  0  0  0  0  0  0  0  0
   48.6930   34.2550   42.2420 C   0  0  2  0  0  0  0  0  0  0  0  0
   46.7850   34.3110   41.0300 H   0  0  0  0  0  0  0  0  0  0  0  0
   48.7250   35.8770   40.7080 H   0  0  0  0  0  0  0  0  0  0  0  0
   48.5440   36.4780   42.4420 H   0  0  0  0  0  0  0  0  0  0  0  0
   48.9280   34.1900   43.3420 H   0  0  0  0  0  0  0  0  0  0  0  0
   45.5490   36.0570   43.1360 C   0  0  0  0  0  0  0  0  0  0  0  0
   46.3700   34.9220   43.0740 C   0  0  0  0  0  0  0  0  0  0  0  0
   46.2540   34.0000   44.1360 C   0  0  0  0  0  0  0  0  0  0  0  0
   45.3720   34.2580   45.1380 N   0  0  0  0  0  0  0  0  0  0  0  0
   44.6040   35.3530   45.1620 C   0  0  0  0  0  0  0  0  0  0  0  0
   44.6840   36.2740   44.1540 N   0  0  0  0  0  0  0  0  0  0  0  0
   45.6600   36.7500   42.3070 H   0  0  0  0  0  0  0  0  0  0  0  0
   46.8600   33.0920   44.1590 H   0  0  0  0  0  0  0  0  0  0  0  0
   43.9360   35.4570   46.0080 H   0  0  0  0  0  0  0  0  0  0  0  0
   49.2170   31.6620   39.7790 N   0  0  0  0  0  0  0  0  0  0  0  0
   49.5980   30.6590   39.8770 H   0  0  0  0  0  0  0  0  0  0  0  0
   47.5070   30.0060   37.6420 H   0  0  0  0  0  0  0  0  0  0  0  0
   47.8260   30.0860   38.6340 N   0  0  0  0  0  0  0  0  0  0  0  0
   48.1110   31.4900   38.8650 C   0  0  1  0  0  3  0  0  0  0  0  0
   46.8880   32.2500   39.2540 C   0  0  0  0  0  3  0  0  0  0  0  0
   46.9310   33.3090   38.9180 H   0  0  0  0  0  0  0  0  0  0  0  0
   45.8200   31.6220   38.5410 O   0  0  0  0  0  0  0  0  0  0  0  0
   45.5000   30.4880   39.2910 C   0  0  0  0  0  2  0  0  0  0  0  0
   46.7160   29.5960   39.4380 C   0  0  0  0  0  2  0  0  0  0  0  0
  1  2  1  1  0  0  0
  1 18  1  0  0  0  0
  2  7  1  0  0  0  0
  3  2  1  0  0  0  0
  3  4  1  0  0  0  0
  3 10  1  0  0  0  0
  4 11  1  0  0  0  0
  5  4  1  0  0  0  0
  5 13  1  0  0  0  0
  6 15  1  6  0  0  0
  6  1  1  0  0  0  0
  6  5  1  0  0  0  0
  8  2  1  0  0  0  0
  9  3  1  0  0  0  0
 12  4  1  0  0  0  0
 14  5  1  0  0  0  0
 16 19  1  6  0  0  0
 16 18  1  0  0  0  0
 16 24  1  0  0  0  0
 17 16  1  0  0  0  0
 17 18  1  0  0  0  0
 17 21  1  0  0  0  0
 18 22  1  1  0  0  0
 20 17  1  0  0  0  0
 23 28  1  0  0  0  0
 24 23  2  0  0  0  0
 24 25  1  0  0  0  0
 25 30  1  0  0  0  0
 25 26  2  0  0  0  0
 26 27  1  0  0  0  0
 27 31  1  0  0  0  0
 28 27  2  0  0  0  0
 29 23  1  0  0  0  0
 32 33  1  0  0  0  0
 32  6  1  0  0  0  0
 34 35  1  0  0  0  0
 35 36  1  0  0  0  0
 35 41  1  0  0  0  0
 36 37  1  0  0  0  0
 36 32  1  1  0  0  0
 38 37  1  0  0  0  0
 39 37  1  0  0  0  0
 39 40  1  0  0  0  0
 40 41  1  0  0  0  0
M  END
>  <minimizedAffinity>
-4.58183861

>  <minimizedRMSD>
0.98277241

$$$$
