
 OpenBabel03252501573D

 30 32  0  0  0  0  0  0  0  0999 V2000
   44.9610   34.6470   45.0230 C   0  0  0  0  0  0  0  0  0  0  0  0
   45.5230   34.8740   43.7590 C   0  0  0  0  0  0  0  0  0  0  0  0
   46.6920   34.1830   43.4780 C   0  0  0  0  0  0  0  0  0  0  0  0
   47.2140   33.3430   44.4260 N   0  0  0  0  0  0  0  0  0  0  0  0
   46.6240   33.1680   45.6250 C   0  0  0  0  0  0  0  0  0  0  0  0
   45.4840   33.8230   45.9370 N   0  0  0  0  0  0  0  0  0  0  0  0
   44.0460   35.1400   45.3410 H   0  0  0  0  0  0  0  0  0  0  0  0
   47.2020   32.4660   46.2140 H   0  0  0  0  0  0  0  0  0  0  0  0
   47.3270   34.3720   42.1800 C   0  0  0  0  0  0  0  0  0  0  0  0
   48.1650   35.3880   41.7730 C   0  0  0  0  0  0  0  0  0  0  0  0
   48.6630   35.3840   40.4850 C   0  0  0  0  0  0  0  0  0  0  0  0
   48.3290   34.3780   39.6110 C   0  0  0  0  0  0  0  0  0  0  0  0
   47.4900   33.3540   40.0040 C   0  0  0  0  0  0  0  0  0  0  0  0
   46.9830   33.3470   41.2980 C   0  0  0  0  0  0  0  0  0  0  0  0
   48.3470   36.1090   42.5500 H   0  0  0  0  0  0  0  0  0  0  0  0
   49.3120   36.2400   40.2910 H   0  0  0  0  0  0  0  0  0  0  0  0
   48.7670   34.4700   38.6390 H   0  0  0  0  0  0  0  0  0  0  0  0
   47.2620   32.5920   39.2760 H   0  0  0  0  0  0  0  0  0  0  0  0
   46.3380   32.5000   41.5010 H   0  0  0  0  0  0  0  0  0  0  0  0
   44.8800   35.7950   42.8300 C   0  0  0  0  0  0  0  0  0  0  0  0
   45.5600   36.5740   42.4570 H   0  0  0  0  0  0  0  0  0  0  0  0
   44.0610   36.3300   43.3530 H   0  0  0  0  0  0  0  0  0  0  0  0
   44.2530   35.0400   41.7660 N   0  0  0  0  0  0  0  0  0  0  0  0
   43.3050   35.8740   41.0450 C   0  0  0  0  0  0  0  0  0  0  0  0
   42.5810   36.3480   41.7070 H   0  0  0  0  0  0  0  0  0  0  0  0
   42.6060   35.0560   39.9880 C   0  0  0  0  0  0  0  0  0  0  0  0
   43.3230   34.7190   39.2100 H   0  0  0  0  0  0  0  0  0  0  0  0
   41.9870   33.9270   40.5170 O   0  0  0  0  0  0  0  0  0  0  0  0
   42.9830   33.1340   41.1180 C   0  0  0  0  0  0  0  0  0  0  0  0
   43.4810   33.9290   42.3060 C   0  0  0  0  0  0  0  0  0  0  0  0
  1  7  1  0  0  0  0
  1  6  1  0  0  0  0
  2  1  2  0  0  0  0
  3  2  1  0  0  0  0
  3  4  2  0  0  0  0
  4  5  1  0  0  0  0
  5  6  2  0  0  0  0
  5  8  1  0  0  0  0
  9  3  1  0  0  0  0
 10  9  1  0  0  0  0
 10 15  1  0  0  0  0
 11 10  2  0  0  0  0
 12 13  2  0  0  0  0
 12 11  1  0  0  0  0
 13 14  1  0  0  0  0
 14 19  1  0  0  0  0
 14  9  2  0  0  0  0
 16 11  1  0  0  0  0
 17 12  1  0  0  0  0
 18 13  1  0  0  0  0
 20 22  1  0  0  0  0
 20  2  1  0  0  0  0
 21 20  1  0  0  0  0
 23 30  1  0  0  0  0
 23 20  1  0  0  0  0
 24 25  1  0  0  0  0
 24 23  1  0  0  0  0
 26 28  1  0  0  0  0
 26 24  1  0  0  0  0
 27 26  1  0  0  0  0
 28 29  1  0  0  0  0
 29 30  1  0  0  0  0
M  END
>  <minimizedAffinity>
-5.02092171

>  <minimizedRMSD>
0.836382031

$$$$
