
 OpenBabel03252500283D

 42 44  0  0  1  0  0  0  0  0999 V2000
   36.3050   28.7770   40.4800 O   0  0  0  0  0  0  0  0  0  0  0  0
   36.8450   30.0280   41.0780 P   0  0  1  0  0  0  0  0  0  0  0  0
   35.5990   31.1610   41.2430 O   0  0  0  0  0  0  0  0  0  0  0  0
   35.8980   32.0790   41.0360 H   0  0  0  0  0  0  0  0  0  0  0  0
   37.4460   29.6320   42.5700 O   0  0  0  0  0  0  0  0  0  0  0  0
   38.1110   27.4700   43.3330 C   0  0  2  0  0  0  0  0  0  0  0  0
   38.3750   28.6300   42.4510 C   0  0  2  0  0  0  0  0  0  0  0  0
   39.7260   29.0600   42.7430 C   0  0  0  0  0  0  0  0  0  0  0  0
   40.4290   27.9890   43.3130 O   0  0  0  0  0  0  0  0  0  0  0  0
   39.5940   26.9230   43.2690 C   0  0  0  0  0  0  0  0  0  0  0  0
   38.1280   27.6240   44.4240 H   0  0  0  0  0  0  0  0  0  0  0  0
   38.1630   28.2090   41.4270 H   0  0  0  0  0  0  0  0  0  0  0  0
   40.0330   30.0520   42.9860 H   0  0  0  0  0  0  0  0  0  0  0  0
   40.2340   29.0120   41.7120 H   0  0  0  0  0  0  0  0  0  0  0  0
   39.7340   26.1230   43.9890 H   0  0  0  0  0  0  0  0  0  0  0  0
   39.6110   26.4870   42.2310 H   0  0  0  0  0  0  0  0  0  0  0  0
   37.3100   26.5020   42.8630 O   0  0  0  0  0  0  0  0  0  0  0  0
   37.4860   25.8140   41.7730 C   0  0  0  0  0  0  0  0  0  0  0  0
   38.3540   25.9070   41.1960 H   0  0  0  0  0  0  0  0  0  0  0  0
   36.6990   26.2720   40.9530 H   0  0  0  0  0  0  0  0  0  0  0  0
   36.9470   24.4110   41.9890 C   0  0  0  0  0  0  0  0  0  0  0  0
   35.8320   24.5070   42.0450 H   0  0  0  0  0  0  0  0  0  0  0  0
   37.3770   23.9250   42.8620 H   0  0  0  0  0  0  0  0  0  0  0  0
   37.1600   23.8650   41.0340 H   0  0  0  0  0  0  0  0  0  0  0  0
   38.0600   30.5770   40.0150 O   0  0  0  0  0  0  0  0  0  0  0  0
   40.3120   33.3690   39.8600 C   0  0  0  0  0  0  0  0  0  0  0  0
   39.4470   34.5100   39.9830 C   0  0  0  0  0  0  0  0  0  0  0  0
   38.0760   34.2330   40.1180 C   0  0  0  0  0  0  0  0  0  0  0  0
   37.6530   32.9510   40.1260 N   0  0  0  0  0  0  0  0  0  0  0  0
   38.4960   31.9140   40.0080 C   0  0  0  0  0  0  0  0  0  0  0  0
   39.8040   32.1480   39.8780 N   0  0  0  0  0  0  0  0  0  0  0  0
   39.8210   35.5240   39.9730 H   0  0  0  0  0  0  0  0  0  0  0  0
   37.3820   35.0720   40.2150 H   0  0  0  0  0  0  0  0  0  0  0  0
   41.6460   33.5790   39.7230 O   0  0  0  0  0  0  0  0  0  0  0  0
   41.3750   32.9960   42.4270 H   0  0  0  0  0  0  0  0  0  0  0  0
   42.2690   32.9460   41.9010 N   0  0  0  0  0  0  0  0  0  0  0  0
   42.4280   33.9020   40.8560 C   0  0  1  0  0  3  0  0  0  0  0  0
   43.9020   33.9220   40.4930 C   0  0  0  0  0  3  0  0  0  0  0  0
   44.1180   34.5350   39.5920 H   0  0  0  0  0  0  0  0  0  0  0  0
   44.5640   34.5360   41.5490 O   0  0  0  0  0  0  0  0  0  0  0  0
   44.3670   33.9060   42.7640 C   0  0  0  0  0  2  0  0  0  0  0  0
   43.4400   32.7330   42.7020 C   0  0  0  0  0  2  0  0  0  0  0  0
  2  1  2  6  0  0  0
  2  3  1  0  0  0  0
  2  5  1  0  0  0  0
  4  3  1  0  0  0  0
  6 11  1  1  0  0  0
  7 12  1  6  0  0  0
  7  5  1  0  0  0  0
  7  8  1  0  0  0  0
  7  6  1  0  0  0  0
  8 13  1  0  0  0  0
  8  9  1  0  0  0  0
 10  9  1  0  0  0  0
 10  6  1  0  0  0  0
 10 15  1  0  0  0  0
 14  8  1  0  0  0  0
 16 10  1  0  0  0  0
 17  6  1  0  0  0  0
 18 21  1  0  0  0  0
 18 17  1  0  0  0  0
 19 18  1  0  0  0  0
 20 18  1  0  0  0  0
 21 22  1  0  0  0  0
 21 23  1  0  0  0  0
 24 21  1  0  0  0  0
 25  2  1  0  0  0  0
 26 31  2  0  0  0  0
 26 27  1  0  0  0  0
 27 28  2  0  0  0  0
 28 29  1  0  0  0  0
 28 33  1  0  0  0  0
 30 25  1  0  0  0  0
 30 29  2  0  0  0  0
 31 30  1  0  0  0  0
 32 27  1  0  0  0  0
 34 26  1  0  0  0  0
 36 35  1  0  0  0  0
 36 42  1  0  0  0  0
 37 34  1  6  0  0  0
 37 36  1  0  0  0  0
 38 37  1  0  0  0  0
 38 40  1  0  0  0  0
 39 38  1  0  0  0  0
 40 41  1  0  0  0  0
 42 41  1  0  0  0  0
M  END
>  <minimizedAffinity>
-5.68790817

$$$$

 OpenBabel03252500283D

 42 44  0  0  1  0  0  0  0  0999 V2000
   36.0530   28.5110   40.8500 O   0  0  0  0  0  0  0  0  0  0  0  0
   36.7330   29.7800   41.2280 P   0  0  1  0  0  0  0  0  0  0  0  0
   35.5810   31.0040   41.4210 O   0  0  0  0  0  0  0  0  0  0  0  0
   35.8970   31.8730   41.0740 H   0  0  0  0  0  0  0  0  0  0  0  0
   37.5070   29.5050   42.6660 O   0  0  0  0  0  0  0  0  0  0  0  0
   38.4410   27.4280   43.3810 C   0  0  2  0  0  0  0  0  0  0  0  0
   38.5260   28.6050   42.4870 C   0  0  2  0  0  0  0  0  0  0  0  0
   39.8400   29.1750   42.6930 C   0  0  0  0  0  0  0  0  0  0  0  0
   40.6860   28.1860   43.2150 O   0  0  0  0  0  0  0  0  0  0  0  0
   39.9660   27.0390   43.2220 C   0  0  0  0  0  0  0  0  0  0  0  0
   38.5100   27.5870   44.4690 H   0  0  0  0  0  0  0  0  0  0  0  0
   38.2950   28.1600   41.4770 H   0  0  0  0  0  0  0  0  0  0  0  0
   40.0570   30.1950   42.9180 H   0  0  0  0  0  0  0  0  0  0  0  0
   40.2840   29.1760   41.6320 H   0  0  0  0  0  0  0  0  0  0  0  0
   40.2340   26.2600   43.9300 H   0  0  0  0  0  0  0  0  0  0  0  0
   39.9630   26.6020   42.1840 H   0  0  0  0  0  0  0  0  0  0  0  0
   37.7170   26.3790   42.9610 O   0  0  0  0  0  0  0  0  0  0  0  0
   38.0100   25.5830   41.9750 C   0  0  0  0  0  0  0  0  0  0  0  0
   38.9850   25.2330   41.8190 H   0  0  0  0  0  0  0  0  0  0  0  0
   37.9180   26.2570   40.9560 H   0  0  0  0  0  0  0  0  0  0  0  0
   36.8810   24.5830   41.8030 C   0  0  0  0  0  0  0  0  0  0  0  0
   36.0070   25.1600   41.4040 H   0  0  0  0  0  0  0  0  0  0  0  0
   36.6530   24.0440   42.7200 H   0  0  0  0  0  0  0  0  0  0  0  0
   37.2100   23.9100   40.9690 H   0  0  0  0  0  0  0  0  0  0  0  0
   37.8210   30.1320   39.9630 O   0  0  0  0  0  0  0  0  0  0  0  0
   40.1430   32.6100   38.7990 C   0  0  0  0  0  0  0  0  0  0  0  0
   39.9000   33.7340   39.6600 C   0  0  0  0  0  0  0  0  0  0  0  0
   38.9020   33.5600   40.6340 C   0  0  0  0  0  0  0  0  0  0  0  0
   38.2440   32.3840   40.7120 N   0  0  0  0  0  0  0  0  0  0  0  0
   38.5040   31.3590   39.8870 C   0  0  0  0  0  0  0  0  0  0  0  0
   39.4480   31.4960   38.9510 N   0  0  0  0  0  0  0  0  0  0  0  0
   40.4470   34.6630   39.5690 H   0  0  0  0  0  0  0  0  0  0  0  0
   38.6840   34.3910   41.3100 H   0  0  0  0  0  0  0  0  0  0  0  0
   41.0950   32.7240   37.8380 O   0  0  0  0  0  0  0  0  0  0  0  0
   41.0060   30.0970   36.9330 H   0  0  0  0  0  0  0  0  0  0  0  0
   41.7510   30.7790   36.6890 N   0  0  0  0  0  0  0  0  0  0  0  0
   42.0840   31.7230   37.7030 C   0  0  1  0  0  3  0  0  0  0  0  0
   43.4140   32.3430   37.3130 C   0  0  0  0  0  3  0  0  0  0  0  0
   43.7030   33.1940   37.9650 H   0  0  0  0  0  0  0  0  0  0  0  0
   44.3810   31.3630   37.5010 O   0  0  0  0  0  0  0  0  0  0  0  0
   44.1460   30.2100   36.7750 C   0  0  0  0  0  2  0  0  0  0  0  0
   42.8750   30.2330   35.9850 C   0  0  0  0  0  2  0  0  0  0  0  0
  2  1  2  6  0  0  0
  2  3  1  0  0  0  0
  2  5  1  0  0  0  0
  4  3  1  0  0  0  0
  6 11  1  1  0  0  0
  7 12  1  6  0  0  0
  7  5  1  0  0  0  0
  7  8  1  0  0  0  0
  7  6  1  0  0  0  0
  8 13  1  0  0  0  0
  8  9  1  0  0  0  0
  9 10  1  0  0  0  0
 10  6  1  0  0  0  0
 10 15  1  0  0  0  0
 14  8  1  0  0  0  0
 16 10  1  0  0  0  0
 17  6  1  0  0  0  0
 18 17  1  0  0  0  0
 19 18  1  0  0  0  0
 20 18  1  0  0  0  0
 21 18  1  0  0  0  0
 21 23  1  0  0  0  0
 22 21  1  0  0  0  0
 24 21  1  0  0  0  0
 25  2  1  0  0  0  0
 26 31  2  0  0  0  0
 26 27  1  0  0  0  0
 27 28  2  0  0  0  0
 28 29  1  0  0  0  0
 28 33  1  0  0  0  0
 30 25  1  0  0  0  0
 30 29  2  0  0  0  0
 31 30  1  0  0  0  0
 32 27  1  0  0  0  0
 34 26  1  0  0  0  0
 36 35  1  0  0  0  0
 36 37  1  0  0  0  0
 37 34  1  6  0  0  0
 38 40  1  0  0  0  0
 38 37  1  0  0  0  0
 38 39  1  0  0  0  0
 41 40  1  0  0  0  0
 42 36  1  0  0  0  0
 42 41  1  0  0  0  0
M  END
>  <minimizedAffinity>
-5.59304237

$$$$

 OpenBabel03252500283D

 42 44  0  0  1  0  0  0  0  0999 V2000
   39.0590   33.6050   40.5700 O   0  0  0  0  0  0  0  0  0  0  0  0
   38.3130   32.3590   40.2460 P   0  0  1  0  0  0  0  0  0  0  0  0
   36.6580   32.6100   40.4900 O   0  0  0  0  0  0  0  0  0  0  0  0
   36.2140   31.8210   40.8850 H   0  0  0  0  0  0  0  0  0  0  0  0
   38.6020   32.0220   38.6510 O   0  0  0  0  0  0  0  0  0  0  0  0
   40.6680   32.2860   37.4850 C   0  0  2  0  0  0  0  0  0  0  0  0
   39.8790   31.5450   38.4950 C   0  0  2  0  0  0  0  0  0  0  0  0
   39.9290   30.1520   38.1030 C   0  0  0  0  0  0  0  0  0  0  0  0
   41.0530   29.9490   37.2910 O   0  0  0  0  0  0  0  0  0  0  0  0
   41.7240   31.1270   37.2760 C   0  0  0  0  0  0  0  0  0  0  0  0
   40.3270   32.2760   36.4380 H   0  0  0  0  0  0  0  0  0  0  0  0
   40.3780   31.8400   39.4610 H   0  0  0  0  0  0  0  0  0  0  0  0
   39.0920   29.5010   37.9790 H   0  0  0  0  0  0  0  0  0  0  0  0
   40.3550   29.6410   39.0410 H   0  0  0  0  0  0  0  0  0  0  0  0
   42.3670   31.3480   36.4300 H   0  0  0  0  0  0  0  0  0  0  0  0
   42.3250   31.2170   38.2240 H   0  0  0  0  0  0  0  0  0  0  0  0
   41.3440   33.3680   37.8990 O   0  0  0  0  0  0  0  0  0  0  0  0
   42.1830   33.4240   38.8920 C   0  0  0  0  0  0  0  0  0  0  0  0
   42.3170   32.6180   39.5480 H   0  0  0  0  0  0  0  0  0  0  0  0
   41.7000   34.2080   39.7000 H   0  0  0  0  0  0  0  0  0  0  0  0
   43.4310   34.1590   38.4370 C   0  0  0  0  0  0  0  0  0  0  0  0
   43.1340   35.2300   38.3020 H   0  0  0  0  0  0  0  0  0  0  0  0
   43.8730   33.7240   37.5430 H   0  0  0  0  0  0  0  0  0  0  0  0
   44.1210   34.1400   39.3210 H   0  0  0  0  0  0  0  0  0  0  0  0
   38.9270   31.1530   41.2850 O   0  0  0  0  0  0  0  0  0  0  0  0
   38.0570   28.0950   42.9520 C   0  0  0  0  0  0  0  0  0  0  0  0
   36.7410   27.8010   42.4560 C   0  0  0  0  0  0  0  0  0  0  0  0
   36.2100   28.7200   41.5340 C   0  0  0  0  0  0  0  0  0  0  0  0
   36.9380   29.7960   41.1710 N   0  0  0  0  0  0  0  0  0  0  0  0
   38.1650   30.0330   41.6590 C   0  0  0  0  0  0  0  0  0  0  0  0
   38.6950   29.1760   42.5370 N   0  0  0  0  0  0  0  0  0  0  0  0
   36.1850   26.9280   42.7690 H   0  0  0  0  0  0  0  0  0  0  0  0
   35.2100   28.5340   41.1320 H   0  0  0  0  0  0  0  0  0  0  0  0
   38.6170   27.2430   43.8480 O   0  0  0  0  0  0  0  0  0  0  0  0
   38.8290   25.6640   41.5700 H   0  0  0  0  0  0  0  0  0  0  0  0
   39.6170   26.1880   41.9980 N   0  0  0  0  0  0  0  0  0  0  0  0
   39.5840   26.3050   43.4180 C   0  0  1  0  0  3  0  0  0  0  0  0
   40.9710   26.7370   43.8600 C   0  0  0  0  0  3  0  0  0  0  0  0
   41.0230   26.9920   44.9390 H   0  0  0  0  0  0  0  0  0  0  0  0
   41.8060   25.6410   43.6790 O   0  0  0  0  0  0  0  0  0  0  0  0
   41.8290   25.1740   42.3780 C   0  0  0  0  0  2  0  0  0  0  0  0
   40.9120   25.9050   41.4490 C   0  0  0  0  0  2  0  0  0  0  0  0
  2  3  1  0  0  0  0
  2  1  2  1  0  0  0
  2 25  1  0  0  0  0
  3  4  1  0  0  0  0
  5  2  1  0  0  0  0
  6 11  1  6  0  0  0
  6 17  1  0  0  0  0
  6  7  1  0  0  0  0
  7  5  1  0  0  0  0
  7 12  1  1  0  0  0
  8  7  1  0  0  0  0
  8 14  1  0  0  0  0
  9  8  1  0  0  0  0
 10  9  1  0  0  0  0
 10  6  1  0  0  0  0
 10 16  1  0  0  0  0
 13  8  1  0  0  0  0
 15 10  1  0  0  0  0
 17 18  1  0  0  0  0
 18 19  1  0  0  0  0
 18 20  1  0  0  0  0
 21 18  1  0  0  0  0
 21 24  1  0  0  0  0
 22 21  1  0  0  0  0
 23 21  1  0  0  0  0
 25 30  1  0  0  0  0
 26 34  1  0  0  0  0
 27 32  1  0  0  0  0
 27 26  2  0  0  0  0
 28 27  1  0  0  0  0
 29 28  2  0  0  0  0
 29 30  1  0  0  0  0
 30 31  2  0  0  0  0
 31 26  1  0  0  0  0
 33 28  1  0  0  0  0
 35 36  1  0  0  0  0
 36 37  1  0  0  0  0
 37 34  1  6  0  0  0
 37 38  1  0  0  0  0
 38 39  1  0  0  0  0
 40 38  1  0  0  0  0
 41 40  1  0  0  0  0
 42 36  1  0  0  0  0
 42 41  1  0  0  0  0
M  END
>  <minimizedAffinity>
-5.06584263

$$$$

 OpenBabel03252500283D

 42 44  0  0  1  0  0  0  0  0999 V2000
   36.0920   27.8400   41.4590 O   0  0  0  0  0  0  0  0  0  0  0  0
   37.3280   28.2900   42.1540 P   0  0  1  0  0  0  0  0  0  0  0  0
   36.9860   29.6560   43.0920 O   0  0  0  0  0  0  0  0  0  0  0  0
   37.7170   30.3200   43.0680 H   0  0  0  0  0  0  0  0  0  0  0  0
   37.8150   27.0450   43.1320 O   0  0  0  0  0  0  0  0  0  0  0  0
   39.0890   25.2650   42.1790 C   0  0  2  0  0  0  0  0  0  0  0  0
   39.0690   26.6240   42.7680 C   0  0  2  0  0  0  0  0  0  0  0  0
   40.0110   26.6020   43.8670 C   0  0  0  0  0  0  0  0  0  0  0  0
   40.9230   25.5580   43.6610 O   0  0  0  0  0  0  0  0  0  0  0  0
   40.6320   25.0370   42.4450 C   0  0  0  0  0  0  0  0  0  0  0  0
   38.7720   24.4160   42.8050 H   0  0  0  0  0  0  0  0  0  0  0  0
   39.3060   27.2770   41.8800 H   0  0  0  0  0  0  0  0  0  0  0  0
   39.8170   26.9140   44.8680 H   0  0  0  0  0  0  0  0  0  0  0  0
   40.7310   27.4570   43.5980 H   0  0  0  0  0  0  0  0  0  0  0  0
   40.9020   24.0050   42.2430 H   0  0  0  0  0  0  0  0  0  0  0  0
   41.0810   25.6940   41.6480 H   0  0  0  0  0  0  0  0  0  0  0  0
   38.8940   25.1590   40.8560 O   0  0  0  0  0  0  0  0  0  0  0  0
   37.7870   24.8230   40.2620 C   0  0  0  0  0  0  0  0  0  0  0  0
   37.7770   24.4500   39.2830 H   0  0  0  0  0  0  0  0  0  0  0  0
   37.1900   25.8700   40.0400 H   0  0  0  0  0  0  0  0  0  0  0  0
   36.8780   24.1410   41.2700 C   0  0  0  0  0  0  0  0  0  0  0  0
   36.5460   24.9390   41.9830 H   0  0  0  0  0  0  0  0  0  0  0  0
   37.3570   23.2990   41.7660 H   0  0  0  0  0  0  0  0  0  0  0  0
   35.9660   23.8480   40.6900 H   0  0  0  0  0  0  0  0  0  0  0  0
   38.4640   28.6350   40.9290 O   0  0  0  0  0  0  0  0  0  0  0  0
   38.3390   32.0050   39.7000 C   0  0  0  0  0  0  0  0  0  0  0  0
   37.9610   31.8500   38.3220 C   0  0  0  0  0  0  0  0  0  0  0  0
   37.7650   30.5300   37.8810 C   0  0  0  0  0  0  0  0  0  0  0  0
   37.9340   29.5070   38.7460 N   0  0  0  0  0  0  0  0  0  0  0  0
   38.2860   29.6970   40.0260 C   0  0  0  0  0  0  0  0  0  0  0  0
   38.4800   30.9410   40.4720 N   0  0  0  0  0  0  0  0  0  0  0  0
   37.8350   32.6930   37.6570 H   0  0  0  0  0  0  0  0  0  0  0  0
   37.4770   30.3670   36.8400 H   0  0  0  0  0  0  0  0  0  0  0  0
   38.5450   33.2590   40.1780 O   0  0  0  0  0  0  0  0  0  0  0  0
   40.2110   32.7970   42.3540 H   0  0  0  0  0  0  0  0  0  0  0  0
   40.5190   32.7770   41.3620 N   0  0  0  0  0  0  0  0  0  0  0  0
   39.8560   33.6870   40.4890 C   0  0  1  0  0  3  0  0  0  0  0  0
   40.6940   33.7820   39.2260 C   0  0  0  0  0  3  0  0  0  0  0  0
   40.1980   34.3610   38.4190 H   0  0  0  0  0  0  0  0  0  0  0  0
   41.8430   34.4890   39.5630 O   0  0  0  0  0  0  0  0  0  0  0  0
   42.5660   33.9100   40.5890 C   0  0  0  0  0  2  0  0  0  0  0  0
   41.9370   32.6790   41.1620 C   0  0  0  0  0  2  0  0  0  0  0  0
  2  1  2  6  0  0  0
  2  3  1  0  0  0  0
  2  5  1  0  0  0  0
  4  3  1  0  0  0  0
  6 10  1  0  0  0  0
  6  7  1  0  0  0  0
  6 11  1  1  0  0  0
  7 12  1  6  0  0  0
  7  5  1  0  0  0  0
  7  8  1  0  0  0  0
  8 13  1  0  0  0  0
  9  8  1  0  0  0  0
 10  9  1  0  0  0  0
 14  8  1  0  0  0  0
 15 10  1  0  0  0  0
 16 10  1  0  0  0  0
 17  6  1  0  0  0  0
 18 17  1  0  0  0  0
 18 21  1  0  0  0  0
 19 18  1  0  0  0  0
 20 18  1  0  0  0  0
 21 23  1  0  0  0  0
 21 22  1  0  0  0  0
 24 21  1  0  0  0  0
 25  2  1  0  0  0  0
 26 34  1  0  0  0  0
 26 31  1  0  0  0  0
 27 26  2  0  0  0  0
 28 27  1  0  0  0  0
 28 29  2  0  0  0  0
 29 30  1  0  0  0  0
 30 31  2  0  0  0  0
 30 25  1  0  0  0  0
 32 27  1  0  0  0  0
 33 28  1  0  0  0  0
 36 35  1  0  0  0  0
 37 34  1  6  0  0  0
 37 36  1  0  0  0  0
 38 40  1  0  0  0  0
 38 37  1  0  0  0  0
 39 38  1  0  0  0  0
 40 41  1  0  0  0  0
 41 42  1  0  0  0  0
 42 36  1  0  0  0  0
M  END
>  <minimizedAffinity>
-5.05171204

$$$$

 OpenBabel03252500283D

 42 44  0  0  1  0  0  0  0  0999 V2000
   39.3840   30.3230   38.2050 O   0  0  0  0  0  0  0  0  0  0  0  0
   38.7480   31.6570   38.0300 P   0  0  1  0  0  0  0  0  0  0  0  0
   39.1490   32.2820   36.5110 O   0  0  0  0  0  0  0  0  0  0  0  0
   39.3160   33.2550   36.5380 H   0  0  0  0  0  0  0  0  0  0  0  0
   37.1100   31.4280   38.1300 O   0  0  0  0  0  0  0  0  0  0  0  0
   36.1040   29.2830   37.8380 C   0  0  2  0  0  0  0  0  0  0  0  0
   36.8390   30.2200   38.7190 C   0  0  2  0  0  0  0  0  0  0  0  0
   36.0560   30.3330   39.9310 C   0  0  0  0  0  0  0  0  0  0  0  0
   35.2360   29.2020   40.0490 O   0  0  0  0  0  0  0  0  0  0  0  0
   35.5780   28.3810   39.0260 C   0  0  0  0  0  0  0  0  0  0  0  0
   35.0950   29.5640   37.4960 H   0  0  0  0  0  0  0  0  0  0  0  0
   37.8570   29.7400   38.7900 H   0  0  0  0  0  0  0  0  0  0  0  0
   35.7330   31.2410   40.3900 H   0  0  0  0  0  0  0  0  0  0  0  0
   36.8080   30.0310   40.7470 H   0  0  0  0  0  0  0  0  0  0  0  0
   34.8440   27.6680   38.6640 H   0  0  0  0  0  0  0  0  0  0  0  0
   36.5190   27.8270   39.3010 H   0  0  0  0  0  0  0  0  0  0  0  0
   36.8280   28.4940   37.0310 O   0  0  0  0  0  0  0  0  0  0  0  0
   37.1310   28.7280   35.7880 C   0  0  0  0  0  0  0  0  0  0  0  0
   37.5470   27.9900   35.1720 H   0  0  0  0  0  0  0  0  0  0  0  0
   38.0980   29.4800   35.8110 H   0  0  0  0  0  0  0  0  0  0  0  0
   36.0530   29.6080   35.1800 C   0  0  0  0  0  0  0  0  0  0  0  0
   36.1630   30.6160   35.6570 H   0  0  0  0  0  0  0  0  0  0  0  0
   35.0550   29.1900   35.2940 H   0  0  0  0  0  0  0  0  0  0  0  0
   36.3530   29.7410   34.1080 H   0  0  0  0  0  0  0  0  0  0  0  0
   39.3430   32.6370   39.2930 O   0  0  0  0  0  0  0  0  0  0  0  0
   39.6810   30.8100   42.3640 C   0  0  0  0  0  0  0  0  0  0  0  0
   41.0660   30.9770   42.7080 C   0  0  0  0  0  0  0  0  0  0  0  0
   41.8340   31.7460   41.8170 C   0  0  0  0  0  0  0  0  0  0  0  0
   41.2520   32.2720   40.7180 N   0  0  0  0  0  0  0  0  0  0  0  0
   39.9540   32.0920   40.4360 C   0  0  0  0  0  0  0  0  0  0  0  0
   39.1990   31.3650   41.2650 N   0  0  0  0  0  0  0  0  0  0  0  0
   41.4990   30.5400   43.5970 H   0  0  0  0  0  0  0  0  0  0  0  0
   42.8930   31.8980   42.0410 H   0  0  0  0  0  0  0  0  0  0  0  0
   38.8930   30.0730   43.1880 O   0  0  0  0  0  0  0  0  0  0  0  0
   38.7060   28.9400   40.6570 H   0  0  0  0  0  0  0  0  0  0  0  0
   38.6860   28.4020   41.5460 N   0  0  0  0  0  0  0  0  0  0  0  0
   38.0700   29.0550   42.6520 C   0  0  1  0  0  3  0  0  0  0  0  0
   37.7960   27.9910   43.7000 C   0  0  0  0  0  3  0  0  0  0  0  0
   37.4410   28.4130   44.6630 H   0  0  0  0  0  0  0  0  0  0  0  0
   36.7570   27.2090   43.2110 O   0  0  0  0  0  0  0  0  0  0  0  0
   37.0310   26.6310   41.9850 C   0  0  0  0  0  2  0  0  0  0  0  0
   38.3610   27.0110   41.4140 C   0  0  0  0  0  2  0  0  0  0  0  0
  2  5  1  0  0  0  0
  2  1  2  1  0  0  0
  2 25  1  0  0  0  0
  3  4  1  0  0  0  0
  3  2  1  0  0  0  0
  5  7  1  0  0  0  0
  6 11  1  6  0  0  0
  6  7  1  0  0  0  0
  6 10  1  0  0  0  0
  7 12  1  1  0  0  0
  7  8  1  0  0  0  0
  8  9  1  0  0  0  0
  8 13  1  0  0  0  0
  8 14  1  0  0  0  0
 10 16  1  0  0  0  0
 10  9  1  0  0  0  0
 15 10  1  0  0  0  0
 17  6  1  0  0  0  0
 18 20  1  0  0  0  0
 18 17  1  0  0  0  0
 19 18  1  0  0  0  0
 21 23  1  0  0  0  0
 21 22  1  0  0  0  0
 21 18  1  0  0  0  0
 24 21  1  0  0  0  0
 25 30  1  0  0  0  0
 26 27  1  0  0  0  0
 26 34  1  0  0  0  0
 27 32  1  0  0  0  0
 28 33  1  0  0  0  0
 28 27  2  0  0  0  0
 29 28  1  0  0  0  0
 30 29  2  0  0  0  0
 30 31  1  0  0  0  0
 31 26  2  0  0  0  0
 35 36  1  0  0  0  0
 36 37  1  0  0  0  0
 37 34  1  1  0  0  0
 37 38  1  0  0  0  0
 38 39  1  0  0  0  0
 40 38  1  0  0  0  0
 41 40  1  0  0  0  0
 42 36  1  0  0  0  0
 42 41  1  0  0  0  0
M  END
>  <minimizedAffinity>
-4.97944212

$$$$

 OpenBabel03252500283D

 42 44  0  0  1  0  0  0  0  0999 V2000
   38.3480   30.0850   41.4090 O   0  0  0  0  0  0  0  0  0  0  0  0
   37.0260   29.4070   41.5050 P   0  0  1  0  0  0  0  0  0  0  0  0
   35.8000   30.5680   41.6090 O   0  0  0  0  0  0  0  0  0  0  0  0
   35.0850   30.3020   42.2350 H   0  0  0  0  0  0  0  0  0  0  0  0
   36.8390   28.5150   40.1230 O   0  0  0  0  0  0  0  0  0  0  0  0
   36.6840   30.0020   38.2620 C   0  0  2  0  0  0  0  0  0  0  0  0
   37.5210   29.1020   39.0870 C   0  0  2  0  0  0  0  0  0  0  0  0
   38.1120   28.1480   38.1730 C   0  0  0  0  0  0  0  0  0  0  0  0
   38.1130   28.6970   36.8830 O   0  0  0  0  0  0  0  0  0  0  0  0
   37.6550   29.9660   37.0130 C   0  0  0  0  0  0  0  0  0  0  0  0
   35.8300   29.5720   37.7140 H   0  0  0  0  0  0  0  0  0  0  0  0
   38.2080   29.8230   39.6150 H   0  0  0  0  0  0  0  0  0  0  0  0
   38.0890   27.0850   38.2690 H   0  0  0  0  0  0  0  0  0  0  0  0
   39.2370   28.2750   38.3680 H   0  0  0  0  0  0  0  0  0  0  0  0
   37.1880   30.4400   36.1560 H   0  0  0  0  0  0  0  0  0  0  0  0
   38.4930   30.6220   37.3810 H   0  0  0  0  0  0  0  0  0  0  0  0
   36.5820   31.2820   38.6480 O   0  0  0  0  0  0  0  0  0  0  0  0
   37.4870   32.2070   38.5100 C   0  0  0  0  0  0  0  0  0  0  0  0
   37.7380   32.5970   37.5710 H   0  0  0  0  0  0  0  0  0  0  0  0
   38.5610   31.6690   38.7510 H   0  0  0  0  0  0  0  0  0  0  0  0
   37.3560   33.1940   39.6570 C   0  0  0  0  0  0  0  0  0  0  0  0
   37.6930   32.6530   40.5770 H   0  0  0  0  0  0  0  0  0  0  0  0
   36.3520   33.6040   39.7470 H   0  0  0  0  0  0  0  0  0  0  0  0
   38.1340   33.9770   39.4590 H   0  0  0  0  0  0  0  0  0  0  0  0
   37.0910   28.4320   42.9030 O   0  0  0  0  0  0  0  0  0  0  0  0
   38.4920   25.1430   42.5780 C   0  0  0  0  0  0  0  0  0  0  0  0
   39.7630   25.2480   43.2410 C   0  0  0  0  0  0  0  0  0  0  0  0
   40.0730   26.5070   43.7840 C   0  0  0  0  0  0  0  0  0  0  0  0
   39.1900   27.5210   43.6610 N   0  0  0  0  0  0  0  0  0  0  0  0
   38.0130   27.3790   43.0340 C   0  0  0  0  0  0  0  0  0  0  0  0
   37.6920   26.1930   42.5080 N   0  0  0  0  0  0  0  0  0  0  0  0
   40.4460   24.4130   43.3200 H   0  0  0  0  0  0  0  0  0  0  0  0
   41.0300   26.6300   44.2960 H   0  0  0  0  0  0  0  0  0  0  0  0
   38.1430   23.9500   42.0320 O   0  0  0  0  0  0  0  0  0  0  0  0
   37.6640   25.8550   40.0650 H   0  0  0  0  0  0  0  0  0  0  0  0
   37.9010   24.8610   39.8760 N   0  0  0  0  0  0  0  0  0  0  0  0
   37.4090   23.9170   40.8240 C   0  0  1  0  0  3  0  0  0  0  0  0
   37.5140   22.5460   40.1800 C   0  0  0  0  0  3  0  0  0  0  0  0
   37.2840   21.7180   40.8830 H   0  0  0  0  0  0  0  0  0  0  0  0
   36.5400   22.4960   39.1890 O   0  0  0  0  0  0  0  0  0  0  0  0
   36.6660   23.4940   38.2410 C   0  0  0  0  0  2  0  0  0  0  0  0
   37.7850   24.4520   38.5060 C   0  0  0  0  0  2  0  0  0  0  0  0
  2  1  2  6  0  0  0
  2  3  1  0  0  0  0
  2 25  1  0  0  0  0
  3  4  1  0  0  0  0
  5  2  1  0  0  0  0
  6 11  1  6  0  0  0
  6 17  1  0  0  0  0
  6  7  1  0  0  0  0
  7 12  1  1  0  0  0
  7  5  1  0  0  0  0
  8 13  1  0  0  0  0
  8 14  1  0  0  0  0
  8  7  1  0  0  0  0
  9 10  1  0  0  0  0
  9  8  1  0  0  0  0
 10 16  1  0  0  0  0
 10  6  1  0  0  0  0
 15 10  1  0  0  0  0
 18 17  1  0  0  0  0
 18 20  1  0  0  0  0
 18 21  1  0  0  0  0
 19 18  1  0  0  0  0
 21 23  1  0  0  0  0
 21 22  1  0  0  0  0
 24 21  1  0  0  0  0
 25 30  1  0  0  0  0
 26 27  1  0  0  0  0
 27 32  1  0  0  0  0
 27 28  2  0  0  0  0
 28 33  1  0  0  0  0
 29 28  1  0  0  0  0
 30 29  2  0  0  0  0
 31 26  2  0  0  0  0
 31 30  1  0  0  0  0
 34 26  1  0  0  0  0
 36 35  1  0  0  0  0
 36 37  1  0  0  0  0
 37 34  1  1  0  0  0
 38 37  1  0  0  0  0
 38 39  1  0  0  0  0
 40 38  1  0  0  0  0
 41 42  1  0  0  0  0
 41 40  1  0  0  0  0
 42 36  1  0  0  0  0
M  END
>  <minimizedAffinity>
-4.96158743

$$$$

 OpenBabel03252500283D

 42 44  0  0  1  0  0  0  0  0999 V2000
   41.7190   31.3910   37.2230 O   0  0  0  0  0  0  0  0  0  0  0  0
   40.3940   31.6960   37.8290 P   0  0  1  0  0  0  0  0  0  0  0  0
   39.4030   32.4390   36.6770 O   0  0  0  0  0  0  0  0  0  0  0  0
   38.8510   33.1600   37.0660 H   0  0  0  0  0  0  0  0  0  0  0  0
   39.7300   30.2520   38.2940 O   0  0  0  0  0  0  0  0  0  0  0  0
   37.3870   30.4400   38.7090 C   0  0  2  0  0  0  0  0  0  0  0  0
   38.4750   30.1170   37.7580 C   0  0  2  0  0  0  0  0  0  0  0  0
   38.1990   28.7830   37.2670 C   0  0  0  0  0  0  0  0  0  0  0  0
   36.8340   28.5110   37.4370 O   0  0  0  0  0  0  0  0  0  0  0  0
   36.2770   29.6560   37.9010 C   0  0  0  0  0  0  0  0  0  0  0  0
   37.2790   29.8240   39.6160 H   0  0  0  0  0  0  0  0  0  0  0  0
   38.4200   30.9720   37.0250 H   0  0  0  0  0  0  0  0  0  0  0  0
   38.8800   27.9620   37.2560 H   0  0  0  0  0  0  0  0  0  0  0  0
   38.1580   28.9370   36.1280 H   0  0  0  0  0  0  0  0  0  0  0  0
   35.3610   29.5900   38.4800 H   0  0  0  0  0  0  0  0  0  0  0  0
   36.1110   30.3580   37.0370 H   0  0  0  0  0  0  0  0  0  0  0  0
   36.9910   31.7200   38.7870 O   0  0  0  0  0  0  0  0  0  0  0  0
   36.9940   32.4660   39.8520 C   0  0  0  0  0  0  0  0  0  0  0  0
   37.3640   32.1200   40.7690 H   0  0  0  0  0  0  0  0  0  0  0  0
   35.8210   32.5820   40.1880 H   0  0  0  0  0  0  0  0  0  0  0  0
   37.3550   33.8860   39.4530 C   0  0  0  0  0  0  0  0  0  0  0  0
   36.4820   34.2820   38.8740 H   0  0  0  0  0  0  0  0  0  0  0  0
   38.2920   33.9430   38.9030 H   0  0  0  0  0  0  0  0  0  0  0  0
   37.3750   34.4640   40.4130 H   0  0  0  0  0  0  0  0  0  0  0  0
   40.7020   32.7250   39.1530 O   0  0  0  0  0  0  0  0  0  0  0  0
   40.3430   30.9920   42.2760 C   0  0  0  0  0  0  0  0  0  0  0  0
   41.6080   31.1980   42.9260 C   0  0  0  0  0  0  0  0  0  0  0  0
   42.5510   31.9570   42.2130 C   0  0  0  0  0  0  0  0  0  0  0  0
   42.2330   32.4400   40.9930 N   0  0  0  0  0  0  0  0  0  0  0  0
   41.0380   32.2250   40.4240 C   0  0  0  0  0  0  0  0  0  0  0  0
   40.1220   31.5060   41.0790 N   0  0  0  0  0  0  0  0  0  0  0  0
   41.8280   30.7950   43.9050 H   0  0  0  0  0  0  0  0  0  0  0  0
   43.5270   32.1370   42.6710 H   0  0  0  0  0  0  0  0  0  0  0  0
   39.3950   30.2620   42.9190 O   0  0  0  0  0  0  0  0  0  0  0  0
   39.3830   29.2680   40.3240 H   0  0  0  0  0  0  0  0  0  0  0  0
   39.0360   28.7500   41.1540 N   0  0  0  0  0  0  0  0  0  0  0  0
   38.4330   29.5440   42.1730 C   0  0  1  0  0  3  0  0  0  0  0  0
   37.6630   28.5970   43.0760 C   0  0  0  0  0  3  0  0  0  0  0  0
   37.2640   29.0940   43.9850 H   0  0  0  0  0  0  0  0  0  0  0  0
   36.5560   28.1680   42.3520 O   0  0  0  0  0  0  0  0  0  0  0  0
   36.8840   27.5500   41.1590 C   0  0  0  0  0  2  0  0  0  0  0  0
   38.3520   27.5210   40.8680 C   0  0  0  0  0  2  0  0  0  0  0  0
  2  1  2  6  0  0  0
  2  5  1  0  0  0  0
  2 25  1  0  0  0  0
  3  4  1  0  0  0  0
  3  2  1  0  0  0  0
  6 17  1  0  0  0  0
  6 11  1  1  0  0  0
  7 12  1  6  0  0  0
  7  5  1  0  0  0  0
  7  6  1  0  0  0  0
  8  9  1  0  0  0  0
  8  7  1  0  0  0  0
  9 10  1  0  0  0  0
 10 15  1  0  0  0  0
 10  6  1  0  0  0  0
 13  8  1  0  0  0  0
 14  8  1  0  0  0  0
 16 10  1  0  0  0  0
 17 18  1  0  0  0  0
 18 20  1  0  0  0  0
 18 19  1  0  0  0  0
 21 18  1  0  0  0  0
 21 24  1  0  0  0  0
 22 21  1  0  0  0  0
 23 21  1  0  0  0  0
 25 30  1  0  0  0  0
 26 34  1  0  0  0  0
 26 27  1  0  0  0  0
 27 32  1  0  0  0  0
 28 33  1  0  0  0  0
 28 27  2  0  0  0  0
 29 28  1  0  0  0  0
 30 29  2  0  0  0  0
 30 31  1  0  0  0  0
 31 26  2  0  0  0  0
 35 36  1  0  0  0  0
 36 37  1  0  0  0  0
 37 34  1  1  0  0  0
 37 38  1  0  0  0  0
 38 39  1  0  0  0  0
 40 38  1  0  0  0  0
 41 40  1  0  0  0  0
 42 36  1  0  0  0  0
 42 41  1  0  0  0  0
M  END
>  <minimizedAffinity>
-4.93897247

$$$$

 OpenBabel03252500283D

 42 44  0  0  1  0  0  0  0  0999 V2000
   36.7350   31.9050   39.2260 O   0  0  0  0  0  0  0  0  0  0  0  0
   36.8260   30.8430   40.2650 P   0  0  1  0  0  0  0  0  0  0  0  0
   35.5920   31.0540   41.4020 O   0  0  0  0  0  0  0  0  0  0  0  0
   35.8940   30.8630   42.3230 H   0  0  0  0  0  0  0  0  0  0  0  0
   36.6360   29.3910   39.4910 O   0  0  0  0  0  0  0  0  0  0  0  0
   36.1850   28.7240   37.2430 C   0  0  2  0  0  0  0  0  0  0  0  0
   37.0270   29.5020   38.1810 C   0  0  2  0  0  0  0  0  0  0  0  0
   38.3900   29.0750   37.9490 C   0  0  0  0  0  0  0  0  0  0  0  0
   38.4800   28.5240   36.6620 O   0  0  0  0  0  0  0  0  0  0  0  0
   37.2660   28.7060   36.0890 C   0  0  0  0  0  0  0  0  0  0  0  0
   36.1570   27.6280   37.3470 H   0  0  0  0  0  0  0  0  0  0  0  0
   36.7560   30.5660   37.9260 H   0  0  0  0  0  0  0  0  0  0  0  0
   39.0810   28.7410   38.6900 H   0  0  0  0  0  0  0  0  0  0  0  0
   38.9260   30.0620   37.7020 H   0  0  0  0  0  0  0  0  0  0  0  0
   36.9600   28.0330   35.2940 H   0  0  0  0  0  0  0  0  0  0  0  0
   37.1920   29.7660   35.7170 H   0  0  0  0  0  0  0  0  0  0  0  0
   35.0890   29.3220   36.7520 O   0  0  0  0  0  0  0  0  0  0  0  0
   33.9660   28.7430   36.4410 C   0  0  0  0  0  0  0  0  0  0  0  0
   33.2230   28.5610   37.1560 H   0  0  0  0  0  0  0  0  0  0  0  0
   34.2420   27.5750   36.1970 H   0  0  0  0  0  0  0  0  0  0  0  0
   33.5100   29.2570   35.0860 C   0  0  0  0  0  0  0  0  0  0  0  0
   34.2240   28.8330   34.3340 H   0  0  0  0  0  0  0  0  0  0  0  0
   33.4440   30.3420   35.0480 H   0  0  0  0  0  0  0  0  0  0  0  0
   32.5280   28.7500   34.8970 H   0  0  0  0  0  0  0  0  0  0  0  0
   38.3700   31.0020   40.9730 O   0  0  0  0  0  0  0  0  0  0  0  0
   38.6320   27.9790   42.8920 C   0  0  0  0  0  0  0  0  0  0  0  0
   40.0380   27.8720   43.1660 C   0  0  0  0  0  0  0  0  0  0  0  0
   40.8470   28.8980   42.6470 C   0  0  0  0  0  0  0  0  0  0  0  0
   40.2820   29.9000   41.9410 N   0  0  0  0  0  0  0  0  0  0  0  0
   38.9630   29.9610   41.7090 C   0  0  0  0  0  0  0  0  0  0  0  0
   38.1700   29.0000   42.1900 N   0  0  0  0  0  0  0  0  0  0  0  0
   40.4570   27.0540   43.7360 H   0  0  0  0  0  0  0  0  0  0  0  0
   41.9240   28.8550   42.8330 H   0  0  0  0  0  0  0  0  0  0  0  0
   37.8040   27.0140   43.3660 O   0  0  0  0  0  0  0  0  0  0  0  0
   36.1590   27.4260   41.1640 H   0  0  0  0  0  0  0  0  0  0  0  0
   36.9340   26.7350   41.1980 N   0  0  0  0  0  0  0  0  0  0  0  0
   37.1670   26.1280   42.4670 C   0  0  1  0  0  3  0  0  0  0  0  0
   38.0360   24.9080   42.2220 C   0  0  0  0  0  3  0  0  0  0  0  0
   38.3930   24.4350   43.1610 H   0  0  0  0  0  0  0  0  0  0  0  0
   37.2310   23.9650   41.5940 O   0  0  0  0  0  0  0  0  0  0  0  0
   36.6750   24.4150   40.4110 C   0  0  0  0  0  2  0  0  0  0  0  0
   37.0050   25.8370   40.0820 C   0  0  0  0  0  2  0  0  0  0  0  0
  2  1  2  6  0  0  0
  2 25  1  0  0  0  0
  2  3  1  0  0  0  0
  3  4  1  0  0  0  0
  5  2  1  0  0  0  0
  6 11  1  1  0  0  0
  6  7  1  0  0  0  0
  7 12  1  6  0  0  0
  7  5  1  0  0  0  0
  8  7  1  0  0  0  0
  8 13  1  0  0  0  0
  9  8  1  0  0  0  0
 10  9  1  0  0  0  0
 10  6  1  0  0  0  0
 14  8  1  0  0  0  0
 15 10  1  0  0  0  0
 16 10  1  0  0  0  0
 17  6  1  0  0  0  0
 18 17  1  0  0  0  0
 18 19  1  0  0  0  0
 20 18  1  0  0  0  0
 21 18  1  0  0  0  0
 22 21  1  0  0  0  0
 23 21  1  0  0  0  0
 24 21  1  0  0  0  0
 25 30  1  0  0  0  0
 26 27  1  0  0  0  0
 26 34  1  0  0  0  0
 27 32  1  0  0  0  0
 28 33  1  0  0  0  0
 28 27  2  0  0  0  0
 29 28  1  0  0  0  0
 30 29  2  0  0  0  0
 30 31  1  0  0  0  0
 31 26  2  0  0  0  0
 35 36  1  0  0  0  0
 36 37  1  0  0  0  0
 37 34  1  1  0  0  0
 38 37  1  0  0  0  0
 38 39  1  0  0  0  0
 40 38  1  0  0  0  0
 41 40  1  0  0  0  0
 42 41  1  0  0  0  0
 42 36  1  0  0  0  0
M  END
>  <minimizedAffinity>
-4.89445448

$$$$

 OpenBabel03252500283D

 42 44  0  0  1  0  0  0  0  0999 V2000
   36.5720   27.8250   43.8660 O   0  0  0  0  0  0  0  0  0  0  0  0
   37.3470   28.3870   42.7270 P   0  0  1  0  0  0  0  0  0  0  0  0
   38.2710   29.6990   43.2620 O   0  0  0  0  0  0  0  0  0  0  0  0
   38.2980   30.4320   42.6010 H   0  0  0  0  0  0  0  0  0  0  0  0
   38.3440   27.1830   42.1790 O   0  0  0  0  0  0  0  0  0  0  0  0
   40.7010   27.1080   41.8100 C   0  0  2  0  0  0  0  0  0  0  0  0
   39.5810   27.2970   42.7600 C   0  0  2  0  0  0  0  0  0  0  0  0
   39.8000   26.3550   43.8370 C   0  0  0  0  0  0  0  0  0  0  0  0
   41.1590   26.0090   43.8670 O   0  0  0  0  0  0  0  0  0  0  0  0
   41.7650   26.7830   42.9350 C   0  0  0  0  0  0  0  0  0  0  0  0
   40.8090   26.1310   41.3110 H   0  0  0  0  0  0  0  0  0  0  0  0
   39.6470   28.3970   42.9990 H   0  0  0  0  0  0  0  0  0  0  0  0
   39.0920   25.6510   44.2130 H   0  0  0  0  0  0  0  0  0  0  0  0
   39.8200   27.0320   44.7650 H   0  0  0  0  0  0  0  0  0  0  0  0
   42.6920   26.4320   42.4900 H   0  0  0  0  0  0  0  0  0  0  0  0
   41.9350   27.8100   43.3650 H   0  0  0  0  0  0  0  0  0  0  0  0
   41.1420   28.1870   41.1470 O   0  0  0  0  0  0  0  0  0  0  0  0
   41.1370   28.3570   39.8570 C   0  0  0  0  0  0  0  0  0  0  0  0
   41.8950   28.8890   39.3680 H   0  0  0  0  0  0  0  0  0  0  0  0
   40.2190   29.1340   39.6210 H   0  0  0  0  0  0  0  0  0  0  0  0
   40.6540   27.0780   39.1970 C   0  0  0  0  0  0  0  0  0  0  0  0
   39.5640   26.9910   39.4400 H   0  0  0  0  0  0  0  0  0  0  0  0
   41.2290   26.2050   39.4990 H   0  0  0  0  0  0  0  0  0  0  0  0
   40.7080   27.2790   38.0960 H   0  0  0  0  0  0  0  0  0  0  0  0
   36.1980   28.8600   41.5580 O   0  0  0  0  0  0  0  0  0  0  0  0
   37.2850   31.9500   40.0910 C   0  0  0  0  0  0  0  0  0  0  0  0
   37.1080   31.7380   38.6810 C   0  0  0  0  0  0  0  0  0  0  0  0
   36.6010   30.4820   38.3050 C   0  0  0  0  0  0  0  0  0  0  0  0
   36.3140   29.5680   39.2560 N   0  0  0  0  0  0  0  0  0  0  0  0
   36.4950   29.8090   40.5630 C   0  0  0  0  0  0  0  0  0  0  0  0
   36.9760   30.9940   40.9490 N   0  0  0  0  0  0  0  0  0  0  0  0
   37.3490   32.4940   37.9460 H   0  0  0  0  0  0  0  0  0  0  0  0
   36.4500   30.2780   37.2420 H   0  0  0  0  0  0  0  0  0  0  0  0
   37.7760   33.1450   40.5090 O   0  0  0  0  0  0  0  0  0  0  0  0
   39.2350   32.0070   42.5830 H   0  0  0  0  0  0  0  0  0  0  0  0
   39.5730   32.0960   41.6060 N   0  0  0  0  0  0  0  0  0  0  0  0
   39.1310   33.2520   40.8990 C   0  0  1  0  0  3  0  0  0  0  0  0
   40.0220   33.3960   39.6790 C   0  0  0  0  0  3  0  0  0  0  0  0
   39.6780   34.1880   38.9820 H   0  0  0  0  0  0  0  0  0  0  0  0
   41.2690   33.7990   40.1420 O   0  0  0  0  0  0  0  0  0  0  0  0
   41.8270   32.9260   41.0570 C   0  0  0  0  0  2  0  0  0  0  0  0
   40.9530   31.7610   41.4020 C   0  0  0  0  0  2  0  0  0  0  0  0
  2  3  1  0  0  0  0
  2  1  2  1  0  0  0
  4  3  1  0  0  0  0
  5  2  1  0  0  0  0
  5  7  1  0  0  0  0
  6 11  1  6  0  0  0
  6  7  1  0  0  0  0
  6 10  1  0  0  0  0
  7 12  1  1  0  0  0
  7  8  1  0  0  0  0
  8  9  1  0  0  0  0
  8 13  1  0  0  0  0
  8 14  1  0  0  0  0
 10 16  1  0  0  0  0
 10  9  1  0  0  0  0
 15 10  1  0  0  0  0
 17  6  1  0  0  0  0
 18 17  1  0  0  0  0
 19 18  1  0  0  0  0
 20 18  1  0  0  0  0
 21 22  1  0  0  0  0
 21 23  1  0  0  0  0
 21 18  1  0  0  0  0
 24 21  1  0  0  0  0
 25  2  1  0  0  0  0
 26 34  1  0  0  0  0
 26 31  1  0  0  0  0
 27 26  2  0  0  0  0
 28 27  1  0  0  0  0
 28 29  2  0  0  0  0
 29 30  1  0  0  0  0
 30 31  2  0  0  0  0
 30 25  1  0  0  0  0
 32 27  1  0  0  0  0
 33 28  1  0  0  0  0
 36 35  1  0  0  0  0
 37 34  1  6  0  0  0
 37 36  1  0  0  0  0
 38 40  1  0  0  0  0
 38 37  1  0  0  0  0
 39 38  1  0  0  0  0
 40 41  1  0  0  0  0
 41 42  1  0  0  0  0
 42 36  1  0  0  0  0
M  END
>  <minimizedAffinity>
-4.84562159

$$$$
