
 OpenBabel03252506453D

 41 44  0  0  1  0  0  0  0  0999 V2000
   49.5590   33.4500   41.5130 N   0  0  1  0  0  0  0  0  0  0  0  0
   50.7550   33.1800   42.2760 C   0  0  0  0  0  0  0  0  0  0  0  0
   51.3940   31.8550   41.9550 C   0  0  0  0  0  0  0  0  0  0  0  0
   50.4660   30.7500   42.3870 C   0  0  0  0  0  0  0  0  0  0  0  0
   49.0050   31.1420   42.1940 C   0  0  0  0  0  0  0  0  0  0  0  0
   48.9530   32.2070   41.1400 C   0  0  2  0  0  0  0  0  0  0  0  0
   50.4390   33.1060   43.3490 H   0  0  0  0  0  0  0  0  0  0  0  0
   51.4750   34.0240   42.2520 H   0  0  0  0  0  0  0  0  0  0  0  0
   51.8240   31.7680   40.9610 H   0  0  0  0  0  0  0  0  0  0  0  0
   52.2750   31.7860   42.6530 H   0  0  0  0  0  0  0  0  0  0  0  0
   50.6360   30.5010   43.4430 H   0  0  0  0  0  0  0  0  0  0  0  0
   50.6440   29.8810   41.7190 H   0  0  0  0  0  0  0  0  0  0  0  0
   48.6470   31.6160   43.1600 H   0  0  0  0  0  0  0  0  0  0  0  0
   48.3470   30.3280   41.9620 H   0  0  0  0  0  0  0  0  0  0  0  0
   47.8520   32.4410   41.0300 H   0  0  0  0  0  0  0  0  0  0  0  0
   47.3220   34.6350   41.9970 C   0  0  1  0  0  0  0  0  0  0  0  0
   48.3850   35.6270   41.7120 C   0  0  0  0  0  0  0  0  0  0  0  0
   48.7420   34.3160   42.2850 C   0  0  2  0  0  0  0  0  0  0  0  0
   46.8300   34.1880   41.0830 H   0  0  0  0  0  0  0  0  0  0  0  0
   48.6750   35.8400   40.6560 H   0  0  0  0  0  0  0  0  0  0  0  0
   48.4650   36.5340   42.3520 H   0  0  0  0  0  0  0  0  0  0  0  0
   48.9830   34.3300   43.3850 H   0  0  0  0  0  0  0  0  0  0  0  0
   45.5650   36.0310   43.1320 C   0  0  0  0  0  0  0  0  0  0  0  0
   46.3860   34.8960   43.0900 C   0  0  0  0  0  0  0  0  0  0  0  0
   46.2610   33.9860   44.1620 C   0  0  0  0  0  0  0  0  0  0  0  0
   45.3700   34.2550   45.1520 N   0  0  0  0  0  0  0  0  0  0  0  0
   44.6020   35.3510   45.1570 C   0  0  0  0  0  0  0  0  0  0  0  0
   44.6910   36.2600   44.1400 N   0  0  0  0  0  0  0  0  0  0  0  0
   45.6830   36.7150   42.2960 H   0  0  0  0  0  0  0  0  0  0  0  0
   46.8670   33.0790   44.2000 H   0  0  0  0  0  0  0  0  0  0  0  0
   43.9270   35.4640   45.9960 H   0  0  0  0  0  0  0  0  0  0  0  0
   49.4070   31.7050   39.8750 N   0  0  0  0  0  0  0  0  0  0  0  0
   49.4960   30.6320   39.9260 H   0  0  0  0  0  0  0  0  0  0  0  0
   46.7380   32.9180   38.5930 H   0  0  0  0  0  0  0  0  0  0  0  0
   47.6940   33.1110   38.9700 N   0  0  0  0  0  0  0  0  0  0  0  0
   48.4610   31.8900   38.7990 C   0  0  1  0  0  3  0  0  0  0  0  0
   49.0720   31.8020   37.4400 C   0  0  0  0  0  3  0  0  0  0  0  0
   49.1730   30.7490   37.0990 H   0  0  0  0  0  0  0  0  0  0  0  0
   48.1350   32.4420   36.5720 O   0  0  0  0  0  0  0  0  0  0  0  0
   48.3760   33.8090   36.7210 C   0  0  0  0  0  2  0  0  0  0  0  0
   48.2070   34.2150   38.1730 C   0  0  0  0  0  2  0  0  0  0  0  0
  1  2  1  1  0  0  0
  1 18  1  0  0  0  0
  2  7  1  0  0  0  0
  3  2  1  0  0  0  0
  3  4  1  0  0  0  0
  3 10  1  0  0  0  0
  4 11  1  0  0  0  0
  5  4  1  0  0  0  0
  5 13  1  0  0  0  0
  6 15  1  6  0  0  0
  6  1  1  0  0  0  0
  6  5  1  0  0  0  0
  8  2  1  0  0  0  0
  9  3  1  0  0  0  0
 12  4  1  0  0  0  0
 14  5  1  0  0  0  0
 16 19  1  6  0  0  0
 16 18  1  0  0  0  0
 16 24  1  0  0  0  0
 17 16  1  0  0  0  0
 17 18  1  0  0  0  0
 17 21  1  0  0  0  0
 18 22  1  1  0  0  0
 20 17  1  0  0  0  0
 23 28  1  0  0  0  0
 24 23  2  0  0  0  0
 24 25  1  0  0  0  0
 25 30  1  0  0  0  0
 25 26  2  0  0  0  0
 26 27  1  0  0  0  0
 27 31  1  0  0  0  0
 28 27  2  0  0  0  0
 29 23  1  0  0  0  0
 32 33  1  0  0  0  0
 32  6  1  0  0  0  0
 34 35  1  0  0  0  0
 36 35  1  0  0  0  0
 36 32  1  1  0  0  0
 37 36  1  0  0  0  0
 38 37  1  0  0  0  0
 39 40  1  0  0  0  0
 39 37  1  0  0  0  0
 40 41  1  0  0  0  0
 41 35  1  0  0  0  0
M  END
>  <minimizedAffinity>
-5.20154905

>  <minimizedRMSD>
1.64578223

$$$$
