
 OpenBabel03252505243D

 42 45  0  0  1  0  0  0  0  0999 V2000
   46.8480   33.4520   44.5750 F   0  0  0  0  0  0  0  0  0  0  0  0
   47.4900   32.2630   44.3690 C   0  0  0  0  0  0  0  0  0  0  0  0
   48.2960   32.1550   43.2530 C   0  0  0  0  0  0  0  0  0  0  0  0
   48.9330   30.9670   43.0530 C   0  0  0  0  0  0  0  0  0  0  0  0
   48.7570   29.9310   43.9560 C   0  0  0  0  0  0  0  0  0  0  0  0
   47.9550   30.0430   45.0680 C   0  0  0  0  0  0  0  0  0  0  0  0
   47.3090   31.2600   45.2620 C   0  0  0  0  0  0  0  0  0  0  0  0
   49.5760   30.8350   42.1890 H   0  0  0  0  0  0  0  0  0  0  0  0
   49.2960   28.9980   43.7420 H   0  0  0  0  0  0  0  0  0  0  0  0
   47.8300   29.2220   45.7620 H   0  0  0  0  0  0  0  0  0  0  0  0
   46.4900   31.3370   46.4190 N   0  0  0  0  0  0  0  0  0  0  0  0
   45.4350   30.4650   46.8860 C   0  0  0  0  0  0  0  0  0  0  0  0
   45.8210   30.2250   48.3490 C   0  0  0  0  0  0  0  0  0  0  0  0
   46.6840   31.4170   48.6910 C   0  0  0  0  0  0  0  0  0  0  0  0
   46.4540   32.3120   47.4900 C   0  0  2  0  0  0  0  0  0  0  0  0
   45.5220   29.4560   46.3880 H   0  0  0  0  0  0  0  0  0  0  0  0
   44.4270   30.8840   46.7830 H   0  0  0  0  0  0  0  0  0  0  0  0
   46.4760   29.3280   48.4310 H   0  0  0  0  0  0  0  0  0  0  0  0
   44.9390   30.1460   48.9910 H   0  0  0  0  0  0  0  0  0  0  0  0
   47.7500   31.1850   48.8110 H   0  0  0  0  0  0  0  0  0  0  0  0
   46.2720   31.9570   49.5790 H   0  0  0  0  0  0  0  0  0  0  0  0
   47.3210   33.0080   47.3400 H   0  0  0  0  0  0  0  0  0  0  0  0
   45.2000   33.1100   47.5380 C   0  0  0  0  0  0  0  0  0  0  0  0
   44.5540   32.7090   48.3400 H   0  0  0  0  0  0  0  0  0  0  0  0
   45.3550   34.2080   47.5860 H   0  0  0  0  0  0  0  0  0  0  0  0
   44.6640   32.9440   46.5670 H   0  0  0  0  0  0  0  0  0  0  0  0
   49.1220   35.4700   41.9350 C   0  0  0  0  0  0  0  0  0  0  0  0
   48.7040   35.3970   40.5850 C   0  0  0  0  0  0  0  0  0  0  0  0
   48.1490   34.1860   40.2000 C   0  0  0  0  0  0  0  0  0  0  0  0
   48.0440   33.1880   41.0920 N   0  0  0  0  0  0  0  0  0  0  0  0
   48.4400   33.2760   42.3420 C   0  0  0  0  0  0  0  0  0  0  0  0
   48.9780   34.4160   42.7630 N   0  0  0  0  0  0  0  0  0  0  0  0
   49.5610   36.4150   42.2580 H   0  0  0  0  0  0  0  0  0  0  0  0
   48.7980   36.2140   39.8860 H   0  0  0  0  0  0  0  0  0  0  0  0
   47.6810   33.9490   38.8840 N   0  0  0  0  0  0  0  0  0  0  0  0
   46.5210   33.1770   38.5010 C   0  0  0  0  0  0  0  0  0  0  0  0
   45.8920   32.8560   39.3450 H   0  0  0  0  0  0  0  0  0  0  0  0
   47.0220   31.9530   37.7390 C   0  0  0  0  0  0  0  0  0  0  0  0
   46.4000   31.7370   36.8340 H   0  0  0  0  0  0  0  0  0  0  0  0
   48.3570   32.0870   37.4230 O   0  0  0  0  0  0  0  0  0  0  0  0
   48.6810   33.2990   36.8270 C   0  0  0  0  0  0  0  0  0  0  0  0
   48.3580   34.4890   37.7240 C   0  0  0  0  0  0  0  0  0  0  0  0
  2  1  1  0  0  0  0
  2  7  1  0  0  0  0
  3  2  2  0  0  0  0
  4  3  1  0  0  0  0
  4  5  2  0  0  0  0
  5  6  1  0  0  0  0
  6  7  2  0  0  0  0
  6 10  1  0  0  0  0
  7 11  1  0  0  0  0
  8  4  1  0  0  0  0
  9  5  1  0  0  0  0
 11 12  1  0  0  0  0
 11 15  1  0  0  0  0
 12 13  1  0  0  0  0
 13 18  1  0  0  0  0
 13 14  1  0  0  0  0
 13 19  1  0  0  0  0
 14 20  1  0  0  0  0
 14 21  1  0  0  0  0
 15 22  1  6  0  0  0
 15 23  1  0  0  0  0
 15 14  1  0  0  0  0
 16 12  1  0  0  0  0
 17 12  1  0  0  0  0
 23 25  1  0  0  0  0
 23 24  1  0  0  0  0
 26 23  1  0  0  0  0
 27 33  1  0  0  0  0
 27 32  1  0  0  0  0
 28 27  2  0  0  0  0
 29 28  1  0  0  0  0
 29 30  2  0  0  0  0
 30 31  1  0  0  0  0
 31 32  2  0  0  0  0
 31  3  1  0  0  0  0
 34 28  1  0  0  0  0
 35 29  1  0  0  0  0
 36 35  1  0  0  0  0
 36 37  1  0  0  0  0
 38 36  1  0  0  0  0
 39 38  1  0  0  0  0
 40 38  1  0  0  0  0
 41 40  1  0  0  0  0
 41 42  1  0  0  0  0
 42 35  1  0  0  0  0
M  END
>  <minimizedAffinity>
-5.71239901

>  <minimizedRMSD>
1.05407035

$$$$
