
 OpenBabel03242523013D

 30 32  0  0  0  0  0  0  0  0999 V2000
   37.7120   33.5930   39.9200 C   0  0  0  0  0  0  0  0  0  0  0  0
   37.2040   32.3040   40.1340 C   0  0  0  0  0  0  0  0  0  0  0  0
   38.0170   31.1930   40.0490 C   0  0  0  0  0  0  0  0  0  0  0  0
   39.3230   31.4130   39.7480 N   0  0  0  0  0  0  0  0  0  0  0  0
   39.7960   32.6520   39.5460 C   0  0  0  0  0  0  0  0  0  0  0  0
   39.0140   33.7400   39.6270 N   0  0  0  0  0  0  0  0  0  0  0  0
   36.9790   34.3810   40.0150 H   0  0  0  0  0  0  0  0  0  0  0  0
   36.1560   32.1510   40.3730 H   0  0  0  0  0  0  0  0  0  0  0  0
   41.1810   32.7650   39.2380 N   0  0  0  0  0  0  0  0  0  0  0  0
   41.6350   33.8590   38.4020 C   0  0  0  0  0  3  0  0  0  0  0  0
   42.1360   34.6480   38.9830 H   0  0  0  0  0  0  0  0  0  0  0  0
   42.5600   33.3170   37.3170 C   0  0  0  0  0  3  0  0  0  0  0  0
   42.0120   32.5270   36.7940 H   0  0  0  0  0  0  0  0  0  0  0  0
   43.6530   32.7230   37.9390 O   0  0  0  0  0  0  0  0  0  0  0  0
   43.2030   31.5590   38.5580 C   0  0  0  0  0  2  0  0  0  0  0  0
   42.2140   31.8700   39.6860 C   0  0  0  0  0  2  0  0  0  0  0  0
   36.8320   29.8830   37.6400 Cl  0  0  0  0  0  0  0  0  0  0  0  0
   36.9680   29.1650   39.2150 C   0  0  0  0  0  0  0  0  0  0  0  0
   37.5200   29.8230   40.2670 C   0  0  0  0  0  0  0  0  0  0  0  0
   37.5710   29.1550   41.4560 C   0  0  0  0  0  0  0  0  0  0  0  0
   37.1100   27.9010   41.6370 C   0  0  0  0  0  0  0  0  0  0  0  0
   36.5480   27.2250   40.5770 C   0  0  0  0  0  0  0  0  0  0  0  0
   36.4840   27.8770   39.3620 C   0  0  0  0  0  0  0  0  0  0  0  0
   38.0150   29.6760   42.3170 H   0  0  0  0  0  0  0  0  0  0  0  0
   36.1620   26.2220   40.6510 H   0  0  0  0  0  0  0  0  0  0  0  0
   36.0410   27.3480   38.5170 H   0  0  0  0  0  0  0  0  0  0  0  0
   37.1640   27.1710   42.9300 C   0  0  0  0  0  0  0  0  0  0  0  0
   37.3880   25.8480   42.6550 F   0  0  0  0  0  0  0  0  0  0  0  0
   35.9920   27.3480   43.6480 F   0  0  0  0  0  0  0  0  0  0  0  0
   38.2110   27.6770   43.6790 F   0  0  0  0  0  0  0  0  0  0  0  0
  1  7  1  0  0  0  0
  1  2  1  0  0  0  0
  2  8  1  0  0  0  0
  3  2  2  0  0  0  0
  3 19  1  0  0  0  0
  4  3  1  0  0  0  0
  5  6  1  0  0  0  0
  5  4  2  0  0  0  0
  6  1  2  0  0  0  0
  9  5  1  0  0  0  0
  9 16  1  0  0  0  0
 10 11  1  0  0  0  0
 10  9  1  0  0  0  0
 12 14  1  0  0  0  0
 12 10  1  0  0  0  0
 13 12  1  0  0  0  0
 14 15  1  0  0  0  0
 15 16  1  0  0  0  0
 17 18  1  0  0  0  0
 18 23  2  0  0  0  0
 18 19  1  0  0  0  0
 19 20  2  0  0  0  0
 20 21  1  0  0  0  0
 20 24  1  0  0  0  0
 21 27  1  0  0  0  0
 22 25  1  0  0  0  0
 22 21  2  0  0  0  0
 23 22  1  0  0  0  0
 26 23  1  0  0  0  0
 27 29  1  0  0  0  0
 27 30  1  0  0  0  0
 28 27  1  0  0  0  0
M  END
>  <minimizedAffinity>
-6.06450987

$$$$

 OpenBabel03242523013D

 30 32  0  0  0  0  0  0  0  0999 V2000
   35.8090   30.4410   40.5070 C   0  0  0  0  0  0  0  0  0  0  0  0
   35.8730   29.0430   40.5870 C   0  0  0  0  0  0  0  0  0  0  0  0
   37.0240   28.4020   40.9950 C   0  0  0  0  0  0  0  0  0  0  0  0
   38.0830   29.1910   41.3130 N   0  0  0  0  0  0  0  0  0  0  0  0
   38.0080   30.5290   41.2330 C   0  0  0  0  0  0  0  0  0  0  0  0
   36.8920   31.1620   40.8370 N   0  0  0  0  0  0  0  0  0  0  0  0
   34.8550   30.8240   40.1750 H   0  0  0  0  0  0  0  0  0  0  0  0
   35.0140   28.4300   40.3280 H   0  0  0  0  0  0  0  0  0  0  0  0
   39.1780   31.2560   41.5910 N   0  0  0  0  0  0  0  0  0  0  0  0
   39.4400   32.5340   40.9570 C   0  0  0  0  0  3  0  0  0  0  0  0
   39.2250   33.3820   41.6240 H   0  0  0  0  0  0  0  0  0  0  0  0
   40.8890   32.5760   40.4810 C   0  0  0  0  0  3  0  0  0  0  0  0
   41.0410   31.6990   39.8440 H   0  0  0  0  0  0  0  0  0  0  0  0
   41.7120   32.4300   41.5930 O   0  0  0  0  0  0  0  0  0  0  0  0
   41.5820   31.1180   42.0440 C   0  0  0  0  0  2  0  0  0  0  0  0
   40.1640   30.8380   42.5500 C   0  0  0  0  0  2  0  0  0  0  0  0
   36.3710   27.2650   43.6790 Cl  0  0  0  0  0  0  0  0  0  0  0  0
   36.8470   26.3480   42.2830 C   0  0  0  0  0  0  0  0  0  0  0  0
   37.1290   26.9360   41.0920 C   0  0  0  0  0  0  0  0  0  0  0  0
   37.4940   26.1100   40.0670 C   0  0  0  0  0  0  0  0  0  0  0  0
   37.5850   24.7700   40.1740 C   0  0  0  0  0  0  0  0  0  0  0  0
   37.3010   24.1640   41.3770 C   0  0  0  0  0  0  0  0  0  0  0  0
   36.9300   24.9750   42.4320 C   0  0  0  0  0  0  0  0  0  0  0  0
   37.7260   26.5730   39.0960 H   0  0  0  0  0  0  0  0  0  0  0  0
   37.3530   23.0990   41.5330 H   0  0  0  0  0  0  0  0  0  0  0  0
   36.7020   24.5030   43.3890 H   0  0  0  0  0  0  0  0  0  0  0  0
   37.9810   23.8690   39.0610 C   0  0  0  0  0  0  0  0  0  0  0  0
   39.2470   24.2170   38.6700 F   0  0  0  0  0  0  0  0  0  0  0  0
   37.0830   23.9590   38.0080 F   0  0  0  0  0  0  0  0  0  0  0  0
   37.9750   22.5650   39.5230 F   0  0  0  0  0  0  0  0  0  0  0  0
  1  2  2  0  0  0  0
  1  6  1  0  0  0  0
  2  3  1  0  0  0  0
  3 19  1  0  0  0  0
  3  4  2  0  0  0  0
  5  4  1  0  0  0  0
  5  9  1  0  0  0  0
  6  5  2  0  0  0  0
  7  1  1  0  0  0  0
  8  2  1  0  0  0  0
  9 16  1  0  0  0  0
 10  9  1  0  0  0  0
 10 11  1  0  0  0  0
 12 10  1  0  0  0  0
 12 14  1  0  0  0  0
 13 12  1  0  0  0  0
 14 15  1  0  0  0  0
 15 16  1  0  0  0  0
 18 23  1  0  0  0  0
 18 17  1  0  0  0  0
 19 18  2  0  0  0  0
 20 21  2  0  0  0  0
 20 19  1  0  0  0  0
 21 22  1  0  0  0  0
 22 25  1  0  0  0  0
 22 23  2  0  0  0  0
 23 26  1  0  0  0  0
 24 20  1  0  0  0  0
 27 30  1  0  0  0  0
 27 21  1  0  0  0  0
 28 27  1  0  0  0  0
 29 27  1  0  0  0  0
M  END
>  <minimizedAffinity>
-5.65325117

$$$$

 OpenBabel03242523013D

 30 32  0  0  0  0  0  0  0  0999 V2000
   40.8000   32.8930   40.6730 C   0  0  0  0  0  0  0  0  0  0  0  0
   39.6370   32.1770   40.9890 C   0  0  0  0  0  0  0  0  0  0  0  0
   39.4070   30.9220   40.4660 C   0  0  0  0  0  0  0  0  0  0  0  0
   40.3590   30.4220   39.6370 N   0  0  0  0  0  0  0  0  0  0  0  0
   41.4690   31.1180   39.3440 C   0  0  0  0  0  0  0  0  0  0  0  0
   41.7020   32.3400   39.8480 N   0  0  0  0  0  0  0  0  0  0  0  0
   40.8660   33.8640   41.1440 H   0  0  0  0  0  0  0  0  0  0  0  0
   38.8880   32.5970   41.6540 H   0  0  0  0  0  0  0  0  0  0  0  0
   42.3990   30.4950   38.4650 N   0  0  0  0  0  0  0  0  0  0  0  0
   43.2220   31.3220   37.6030 C   0  0  0  0  0  3  0  0  0  0  0  0
   44.2590   31.3960   37.9620 H   0  0  0  0  0  0  0  0  0  0  0  0
   43.1810   30.7690   36.1820 C   0  0  0  0  0  3  0  0  0  0  0  0
   42.1260   30.7010   35.8950 H   0  0  0  0  0  0  0  0  0  0  0  0
   43.6890   29.4740   36.2080 O   0  0  0  0  0  0  0  0  0  0  0  0
   42.7610   28.6720   36.8690 C   0  0  0  0  0  2  0  0  0  0  0  0
   42.6150   29.0790   38.3390 C   0  0  0  0  0  2  0  0  0  0  0  0
   36.9530   31.7600   38.9850 Cl  0  0  0  0  0  0  0  0  0  0  0  0
   37.0430   30.4640   40.1370 C   0  0  0  0  0  0  0  0  0  0  0  0
   38.1980   30.1390   40.7740 C   0  0  0  0  0  0  0  0  0  0  0  0
   38.1440   29.1010   41.6590 C   0  0  0  0  0  0  0  0  0  0  0  0
   37.0270   28.3960   41.9280 C   0  0  0  0  0  0  0  0  0  0  0  0
   35.8510   28.7180   41.2880 C   0  0  0  0  0  0  0  0  0  0  0  0
   35.8760   29.7640   40.3870 C   0  0  0  0  0  0  0  0  0  0  0  0
   39.0720   28.8270   42.1820 H   0  0  0  0  0  0  0  0  0  0  0  0
   34.9230   28.1960   41.4550 H   0  0  0  0  0  0  0  0  0  0  0  0
   34.9480   30.0240   39.8750 H   0  0  0  0  0  0  0  0  0  0  0  0
   36.9650   27.2660   42.8900 C   0  0  0  0  0  0  0  0  0  0  0  0
   35.8360   27.4220   43.6490 F   0  0  0  0  0  0  0  0  0  0  0  0
   38.1040   27.2250   43.6800 F   0  0  0  0  0  0  0  0  0  0  0  0
   36.8910   26.0820   42.1770 F   0  0  0  0  0  0  0  0  0  0  0  0
  1  2  1  0  0  0  0
  1  7  1  0  0  0  0
  2  8  1  0  0  0  0
  3 19  1  0  0  0  0
  3  2  2  0  0  0  0
  4  3  1  0  0  0  0
  5  4  2  0  0  0  0
  5  6  1  0  0  0  0
  6  1  2  0  0  0  0
  9  5  1  0  0  0  0
 10 11  1  0  0  0  0
 10  9  1  0  0  0  0
 12 14  1  0  0  0  0
 12 10  1  0  0  0  0
 13 12  1  0  0  0  0
 14 15  1  0  0  0  0
 15 16  1  0  0  0  0
 16  9  1  0  0  0  0
 17 18  1  0  0  0  0
 18 23  2  0  0  0  0
 18 19  1  0  0  0  0
 19 20  2  0  0  0  0
 20 21  1  0  0  0  0
 20 24  1  0  0  0  0
 21 27  1  0  0  0  0
 22 25  1  0  0  0  0
 22 21  2  0  0  0  0
 23 22  1  0  0  0  0
 26 23  1  0  0  0  0
 27 28  1  0  0  0  0
 27 29  1  0  0  0  0
 30 27  1  0  0  0  0
M  END
>  <minimizedAffinity>
-5.63254023

$$$$

 OpenBabel03242523013D

 30 32  0  0  0  0  0  0  0  0999 V2000
   35.5080   28.2330   36.0100 C   0  0  0  0  0  0  0  0  0  0  0  0
   36.1540   28.3730   37.2470 C   0  0  0  0  0  0  0  0  0  0  0  0
   35.4950   28.8920   38.3410 C   0  0  0  0  0  0  0  0  0  0  0  0
   34.1990   29.2560   38.1590 N   0  0  0  0  0  0  0  0  0  0  0  0
   33.5930   29.1150   36.9700 C   0  0  0  0  0  0  0  0  0  0  0  0
   34.2250   28.6110   35.8990 N   0  0  0  0  0  0  0  0  0  0  0  0
   36.1280   27.8150   35.2300 H   0  0  0  0  0  0  0  0  0  0  0  0
   37.1910   28.0760   37.3700 H   0  0  0  0  0  0  0  0  0  0  0  0
   32.2330   29.5290   36.8940 N   0  0  0  0  0  0  0  0  0  0  0  0
   31.7130   30.0290   35.6360 C   0  0  0  0  0  3  0  0  0  0  0  0
   31.0740   29.2920   35.1260 H   0  0  0  0  0  0  0  0  0  0  0  0
   30.9500   31.3260   35.8830 C   0  0  0  0  0  3  0  0  0  0  0  0
   31.6320   32.0030   36.4090 H   0  0  0  0  0  0  0  0  0  0  0  0
   29.8940   31.0480   36.7450 O   0  0  0  0  0  0  0  0  0  0  0  0
   30.4360   30.7750   37.9990 C   0  0  0  0  0  2  0  0  0  0  0  0
   31.2870   29.5010   37.9770 C   0  0  0  0  0  2  0  0  0  0  0  0
   36.7700   31.5540   38.7980 Cl  0  0  0  0  0  0  0  0  0  0  0  0
   36.7400   30.2410   39.9340 C   0  0  0  0  0  0  0  0  0  0  0  0
   36.1390   29.0560   39.6560 C   0  0  0  0  0  0  0  0  0  0  0  0
   36.1820   28.0980   40.6290 C   0  0  0  0  0  0  0  0  0  0  0  0
   36.7770   28.2660   41.8270 C   0  0  0  0  0  0  0  0  0  0  0  0
   37.3890   29.4650   42.1180 C   0  0  0  0  0  0  0  0  0  0  0  0
   37.3610   30.4510   41.1520 C   0  0  0  0  0  0  0  0  0  0  0  0
   35.7000   27.1330   40.4170 H   0  0  0  0  0  0  0  0  0  0  0  0
   37.8820   29.6660   43.0550 H   0  0  0  0  0  0  0  0  0  0  0  0
   37.8430   31.4040   41.3770 H   0  0  0  0  0  0  0  0  0  0  0  0
   36.8250   27.2270   42.8870 C   0  0  0  0  0  0  0  0  0  0  0  0
   37.9480   27.4480   43.6400 F   0  0  0  0  0  0  0  0  0  0  0  0
   36.8270   25.9550   42.3350 F   0  0  0  0  0  0  0  0  0  0  0  0
   35.6980   27.3520   43.6800 F   0  0  0  0  0  0  0  0  0  0  0  0
  1  2  1  0  0  0  0
  2  8  1  0  0  0  0
  2  3  2  0  0  0  0
  3 19  1  0  0  0  0
  4  3  1  0  0  0  0
  5  4  2  0  0  0  0
  6  1  2  0  0  0  0
  6  5  1  0  0  0  0
  7  1  1  0  0  0  0
  9  5  1  0  0  0  0
  9 16  1  0  0  0  0
 10 12  1  0  0  0  0
 10  9  1  0  0  0  0
 11 10  1  0  0  0  0
 12 13  1  0  0  0  0
 12 14  1  0  0  0  0
 14 15  1  0  0  0  0
 16 15  1  0  0  0  0
 17 18  1  0  0  0  0
 18 23  1  0  0  0  0
 19 18  2  0  0  0  0
 19 20  1  0  0  0  0
 20 21  2  0  0  0  0
 21 22  1  0  0  0  0
 21 27  1  0  0  0  0
 22 25  1  0  0  0  0
 23 26  1  0  0  0  0
 23 22  2  0  0  0  0
 24 20  1  0  0  0  0
 27 28  1  0  0  0  0
 27 30  1  0  0  0  0
 29 27  1  0  0  0  0
M  END
>  <minimizedAffinity>
-5.59484148

$$$$

 OpenBabel03242523013D

 30 32  0  0  0  0  0  0  0  0999 V2000
   36.1940   30.8120   40.8560 C   0  0  0  0  0  0  0  0  0  0  0  0
   36.0510   29.4270   41.0130 C   0  0  0  0  0  0  0  0  0  0  0  0
   37.0820   28.5630   40.7050 C   0  0  0  0  0  0  0  0  0  0  0  0
   38.2310   29.1220   40.2450 N   0  0  0  0  0  0  0  0  0  0  0  0
   38.3540   30.4510   40.1000 C   0  0  0  0  0  0  0  0  0  0  0  0
   37.3570   31.2990   40.3970 N   0  0  0  0  0  0  0  0  0  0  0  0
   35.3180   31.3830   41.1300 H   0  0  0  0  0  0  0  0  0  0  0  0
   35.1230   29.0000   41.3820 H   0  0  0  0  0  0  0  0  0  0  0  0
   39.6030   30.9260   39.6110 N   0  0  0  0  0  0  0  0  0  0  0  0
   39.6400   32.1470   38.8300 C   0  0  0  0  0  3  0  0  0  0  0  0
   40.0250   33.0010   39.4080 H   0  0  0  0  0  0  0  0  0  0  0  0
   40.4810   31.9220   37.5770 C   0  0  0  0  0  3  0  0  0  0  0  0
   40.0610   31.0510   37.0630 H   0  0  0  0  0  0  0  0  0  0  0  0
   41.7700   31.5860   37.9780 O   0  0  0  0  0  0  0  0  0  0  0  0
   41.7180   30.3110   38.5380 C   0  0  0  0  0  2  0  0  0  0  0  0
   40.8790   30.2970   39.8200 C   0  0  0  0  0  2  0  0  0  0  0  0
   37.7500   27.5240   43.4250 Cl  0  0  0  0  0  0  0  0  0  0  0  0
   37.2590   26.5580   42.0670 C   0  0  0  0  0  0  0  0  0  0  0  0
   36.9700   27.1020   40.8570 C   0  0  0  0  0  0  0  0  0  0  0  0
   36.5960   26.2400   39.8660 C   0  0  0  0  0  0  0  0  0  0  0  0
   36.5000   24.9050   40.0240 C   0  0  0  0  0  0  0  0  0  0  0  0
   36.7900   24.3440   41.2470 C   0  0  0  0  0  0  0  0  0  0  0  0
   37.1720   25.1920   42.2670 C   0  0  0  0  0  0  0  0  0  0  0  0
   36.3600   26.6670   38.8800 H   0  0  0  0  0  0  0  0  0  0  0  0
   36.7340   23.2850   41.4420 H   0  0  0  0  0  0  0  0  0  0  0  0
   37.4030   24.7540   43.2400 H   0  0  0  0  0  0  0  0  0  0  0  0
   36.0930   23.9650   38.9480 C   0  0  0  0  0  0  0  0  0  0  0  0
   36.9860   22.9270   38.9380 F   0  0  0  0  0  0  0  0  0  0  0  0
   36.0490   24.6070   37.7200 F   0  0  0  0  0  0  0  0  0  0  0  0
   34.8250   23.4900   39.2320 F   0  0  0  0  0  0  0  0  0  0  0  0
  1  2  1  0  0  0  0
  1  7  1  0  0  0  0
  2  8  1  0  0  0  0
  3 19  1  0  0  0  0
  3  2  2  0  0  0  0
  4  3  1  0  0  0  0
  5  4  2  0  0  0  0
  5  6  1  0  0  0  0
  6  1  2  0  0  0  0
  9 16  1  0  0  0  0
  9  5  1  0  0  0  0
 10 11  1  0  0  0  0
 10  9  1  0  0  0  0
 12 14  1  0  0  0  0
 12 10  1  0  0  0  0
 13 12  1  0  0  0  0
 14 15  1  0  0  0  0
 15 16  1  0  0  0  0
 18 23  1  0  0  0  0
 18 17  1  0  0  0  0
 19 18  2  0  0  0  0
 20 21  2  0  0  0  0
 20 19  1  0  0  0  0
 21 22  1  0  0  0  0
 22 25  1  0  0  0  0
 22 23  2  0  0  0  0
 23 26  1  0  0  0  0
 24 20  1  0  0  0  0
 27 30  1  0  0  0  0
 27 21  1  0  0  0  0
 28 27  1  0  0  0  0
 29 27  1  0  0  0  0
M  END
>  <minimizedAffinity>
-5.54284

$$$$

 OpenBabel03242523013D

 30 32  0  0  0  0  0  0  0  0999 V2000
   39.1550   34.1210   40.1510 C   0  0  0  0  0  0  0  0  0  0  0  0
   38.2160   33.1030   40.3630 C   0  0  0  0  0  0  0  0  0  0  0  0
   38.5480   31.7760   40.1850 C   0  0  0  0  0  0  0  0  0  0  0  0
   39.8230   31.5120   39.7980 N   0  0  0  0  0  0  0  0  0  0  0  0
   40.7130   32.4970   39.5990 C   0  0  0  0  0  0  0  0  0  0  0  0
   40.3990   33.7910   39.7700 N   0  0  0  0  0  0  0  0  0  0  0  0
   38.7770   35.1190   40.3220 H   0  0  0  0  0  0  0  0  0  0  0  0
   37.2010   33.3370   40.6720 H   0  0  0  0  0  0  0  0  0  0  0  0
   42.0200   32.1050   39.1960 N   0  0  0  0  0  0  0  0  0  0  0  0
   42.8020   32.9970   38.3620 C   0  0  0  0  0  3  0  0  0  0  0  0
   43.5940   33.5100   38.9290 H   0  0  0  0  0  0  0  0  0  0  0  0
   43.3960   32.2110   37.1980 C   0  0  0  0  0  3  0  0  0  0  0  0
   42.5640   31.7100   36.6920 H   0  0  0  0  0  0  0  0  0  0  0  0
   44.2210   31.2210   37.7220 O   0  0  0  0  0  0  0  0  0  0  0  0
   43.4040   30.2740   38.3360 C   0  0  0  0  0  2  0  0  0  0  0  0
   42.6680   30.8680   39.5410 C   0  0  0  0  0  2  0  0  0  0  0  0
   38.9090   30.2620   42.7350 Cl  0  0  0  0  0  0  0  0  0  0  0  0
   37.6930   29.9460   41.5360 C   0  0  0  0  0  0  0  0  0  0  0  0
   37.5890   30.6790   40.3980 C   0  0  0  0  0  0  0  0  0  0  0  0
   36.5920   30.3340   39.5300 C   0  0  0  0  0  0  0  0  0  0  0  0
   35.7240   29.3250   39.7420 C   0  0  0  0  0  0  0  0  0  0  0  0
   35.8210   28.5760   40.8930 C   0  0  0  0  0  0  0  0  0  0  0  0
   36.8200   28.9030   41.7880 C   0  0  0  0  0  0  0  0  0  0  0  0
   36.4970   30.9190   38.6040 H   0  0  0  0  0  0  0  0  0  0  0  0
   35.1600   27.7570   41.1250 H   0  0  0  0  0  0  0  0  0  0  0  0
   36.9020   28.3140   42.7030 H   0  0  0  0  0  0  0  0  0  0  0  0
   34.6380   28.9480   38.8000 C   0  0  0  0  0  0  0  0  0  0  0  0
   34.8000   29.6850   37.6570 F   0  0  0  0  0  0  0  0  0  0  0  0
   33.3920   29.1630   39.3690 F   0  0  0  0  0  0  0  0  0  0  0  0
   34.7540   27.6010   38.5090 F   0  0  0  0  0  0  0  0  0  0  0  0
  1  7  1  0  0  0  0
  1  2  1  0  0  0  0
  2  8  1  0  0  0  0
  3  2  2  0  0  0  0
  3 19  1  0  0  0  0
  4  3  1  0  0  0  0
  5  6  1  0  0  0  0
  5  4  2  0  0  0  0
  6  1  2  0  0  0  0
  9 16  1  0  0  0  0
  9  5  1  0  0  0  0
 10 11  1  0  0  0  0
 10  9  1  0  0  0  0
 12 14  1  0  0  0  0
 12 10  1  0  0  0  0
 13 12  1  0  0  0  0
 14 15  1  0  0  0  0
 15 16  1  0  0  0  0
 18 23  1  0  0  0  0
 18 17  1  0  0  0  0
 19 18  2  0  0  0  0
 20 21  2  0  0  0  0
 20 19  1  0  0  0  0
 21 22  1  0  0  0  0
 22 25  1  0  0  0  0
 22 23  2  0  0  0  0
 23 26  1  0  0  0  0
 24 20  1  0  0  0  0
 27 29  1  0  0  0  0
 27 21  1  0  0  0  0
 28 27  1  0  0  0  0
 30 27  1  0  0  0  0
M  END
>  <minimizedAffinity>
-5.51880312

$$$$

 OpenBabel03242523013D

 30 32  0  0  0  0  0  0  0  0999 V2000
   36.9830   31.7590   39.4620 C   0  0  0  0  0  0  0  0  0  0  0  0
   36.7660   30.5080   40.0570 C   0  0  0  0  0  0  0  0  0  0  0  0
   37.8100   29.6380   40.2920 C   0  0  0  0  0  0  0  0  0  0  0  0
   39.0470   30.0540   39.9200 N   0  0  0  0  0  0  0  0  0  0  0  0
   39.2420   31.2550   39.3520 C   0  0  0  0  0  0  0  0  0  0  0  0
   38.2320   32.1090   39.1190 N   0  0  0  0  0  0  0  0  0  0  0  0
   36.0880   32.3500   39.3310 H   0  0  0  0  0  0  0  0  0  0  0  0
   35.7670   30.1950   40.3470 H   0  0  0  0  0  0  0  0  0  0  0  0
   40.5810   31.5880   39.0030 N   0  0  0  0  0  0  0  0  0  0  0  0
   40.8220   32.4640   37.8740 C   0  0  0  0  0  3  0  0  0  0  0  0
   41.1020   33.4810   38.1870 H   0  0  0  0  0  0  0  0  0  0  0  0
   41.9020   31.8570   36.9840 C   0  0  0  0  0  3  0  0  0  0  0  0
   41.5740   30.8450   36.7270 H   0  0  0  0  0  0  0  0  0  0  0  0
   43.0660   31.7380   37.7380 O   0  0  0  0  0  0  0  0  0  0  0  0
   42.8550   30.7340   38.6810 C   0  0  0  0  0  2  0  0  0  0  0  0
   41.7620   31.1260   39.6810 C   0  0  0  0  0  2  0  0  0  0  0  0
   38.3830   29.5300   43.2210 Cl  0  0  0  0  0  0  0  0  0  0  0  0
   37.8640   28.1910   42.2440 C   0  0  0  0  0  0  0  0  0  0  0  0
   37.6210   28.3160   40.9140 C   0  0  0  0  0  0  0  0  0  0  0  0
   37.2180   27.1920   40.2510 C   0  0  0  0  0  0  0  0  0  0  0  0
   37.0520   25.9900   40.8380 C   0  0  0  0  0  0  0  0  0  0  0  0
   37.2960   25.8530   42.1860 C   0  0  0  0  0  0  0  0  0  0  0  0
   37.7050   26.9740   42.8810 C   0  0  0  0  0  0  0  0  0  0  0  0
   37.0190   27.2780   39.1730 H   0  0  0  0  0  0  0  0  0  0  0  0
   37.1820   24.9220   42.7180 H   0  0  0  0  0  0  0  0  0  0  0  0
   37.8990   26.8730   43.9500 H   0  0  0  0  0  0  0  0  0  0  0  0
   36.6140   24.7650   40.1200 C   0  0  0  0  0  0  0  0  0  0  0  0
   35.8890   24.0020   40.9970 F   0  0  0  0  0  0  0  0  0  0  0  0
   37.7030   24.0670   39.6210 F   0  0  0  0  0  0  0  0  0  0  0  0
   35.8150   25.1400   39.0540 F   0  0  0  0  0  0  0  0  0  0  0  0
  1  2  1  0  0  0  0
  2  3  2  0  0  0  0
  2  8  1  0  0  0  0
  3 19  1  0  0  0  0
  4  3  1  0  0  0  0
  5  4  2  0  0  0  0
  6  5  1  0  0  0  0
  6  1  2  0  0  0  0
  7  1  1  0  0  0  0
  9  5  1  0  0  0  0
  9 16  1  0  0  0  0
 10 11  1  0  0  0  0
 10  9  1  0  0  0  0
 12 14  1  0  0  0  0
 12 10  1  0  0  0  0
 13 12  1  0  0  0  0
 14 15  1  0  0  0  0
 15 16  1  0  0  0  0
 18 23  1  0  0  0  0
 18 17  1  0  0  0  0
 19 18  2  0  0  0  0
 20 21  2  0  0  0  0
 20 19  1  0  0  0  0
 21 22  1  0  0  0  0
 22 25  1  0  0  0  0
 22 23  2  0  0  0  0
 23 26  1  0  0  0  0
 24 20  1  0  0  0  0
 27 21  1  0  0  0  0
 27 28  1  0  0  0  0
 29 27  1  0  0  0  0
 30 27  1  0  0  0  0
M  END
>  <minimizedAffinity>
-5.48409367

$$$$

 OpenBabel03242523013D

 30 32  0  0  0  0  0  0  0  0999 V2000
   40.5000   29.2660   42.7130 C   0  0  0  0  0  0  0  0  0  0  0  0
   39.9400   27.9850   42.6110 C   0  0  0  0  0  0  0  0  0  0  0  0
   39.0090   27.6870   41.6370 C   0  0  0  0  0  0  0  0  0  0  0  0
   38.6680   28.6920   40.7910 N   0  0  0  0  0  0  0  0  0  0  0  0
   39.2130   29.9150   40.8990 C   0  0  0  0  0  0  0  0  0  0  0  0
   40.1190   30.2140   41.8430 N   0  0  0  0  0  0  0  0  0  0  0  0
   41.2160   29.3760   43.5140 H   0  0  0  0  0  0  0  0  0  0  0  0
   40.2270   27.1950   43.2990 H   0  0  0  0  0  0  0  0  0  0  0  0
   38.7820   30.8910   39.9570 N   0  0  0  0  0  0  0  0  0  0  0  0
   38.7650   32.2890   40.3430 C   0  0  0  0  0  3  0  0  0  0  0  0
   39.6020   32.8530   39.9040 H   0  0  0  0  0  0  0  0  0  0  0  0
   37.4290   32.9080   39.9450 C   0  0  0  0  0  3  0  0  0  0  0  0
   36.6440   32.2910   40.3940 H   0  0  0  0  0  0  0  0  0  0  0  0
   37.3010   32.8050   38.5630 O   0  0  0  0  0  0  0  0  0  0  0  0
   37.1100   31.4590   38.2580 C   0  0  0  0  0  2  0  0  0  0  0  0
   38.3450   30.6240   38.6140 C   0  0  0  0  0  2  0  0  0  0  0  0
   36.6520   27.1910   43.4030 Cl  0  0  0  0  0  0  0  0  0  0  0  0
   37.3220   26.0570   42.2710 C   0  0  0  0  0  0  0  0  0  0  0  0
   38.3990   26.3540   41.4990 C   0  0  0  0  0  0  0  0  0  0  0  0
   38.8340   25.3800   40.6460 C   0  0  0  0  0  0  0  0  0  0  0  0
   38.2620   24.1650   40.5340 C   0  0  0  0  0  0  0  0  0  0  0  0
   37.1700   23.8540   41.3120 C   0  0  0  0  0  0  0  0  0  0  0  0
   36.7080   24.8200   42.1840 C   0  0  0  0  0  0  0  0  0  0  0  0
   39.7060   25.6070   40.0160 H   0  0  0  0  0  0  0  0  0  0  0  0
   36.6650   22.9030   41.2730 H   0  0  0  0  0  0  0  0  0  0  0  0
   35.8420   24.5820   42.8040 H   0  0  0  0  0  0  0  0  0  0  0  0
   38.7340   23.1030   39.6070 C   0  0  0  0  0  0  0  0  0  0  0  0
   40.0190   23.4060   39.2430 F   0  0  0  0  0  0  0  0  0  0  0  0
   37.9030   23.0060   38.5010 F   0  0  0  0  0  0  0  0  0  0  0  0
   38.7090   21.8920   40.2740 F   0  0  0  0  0  0  0  0  0  0  0  0
  1  7  1  0  0  0  0
  2  1  1  0  0  0  0
  2  8  1  0  0  0  0
  3  2  2  0  0  0  0
  4  5  2  0  0  0  0
  4  3  1  0  0  0  0
  5  6  1  0  0  0  0
  6  1  2  0  0  0  0
  9 10  1  0  0  0  0
  9  5  1  0  0  0  0
 11 10  1  0  0  0  0
 12 10  1  0  0  0  0
 12 13  1  0  0  0  0
 14 12  1  0  0  0  0
 15 14  1  0  0  0  0
 15 16  1  0  0  0  0
 16  9  1  0  0  0  0
 18 17  1  0  0  0  0
 19  3  1  0  0  0  0
 19 18  2  0  0  0  0
 20 19  1  0  0  0  0
 21 20  2  0  0  0  0
 21 22  1  0  0  0  0
 22 23  2  0  0  0  0
 23 18  1  0  0  0  0
 23 26  1  0  0  0  0
 24 20  1  0  0  0  0
 25 22  1  0  0  0  0
 27 30  1  0  0  0  0
 27 21  1  0  0  0  0
 28 27  1  0  0  0  0
 29 27  1  0  0  0  0
M  END
>  <minimizedAffinity>
-5.47048712

$$$$

 OpenBabel03242523013D

 30 32  0  0  0  0  0  0  0  0999 V2000
   37.6740   30.0970   42.1950 C   0  0  0  0  0  0  0  0  0  0  0  0
   37.1070   30.1570   40.9150 C   0  0  0  0  0  0  0  0  0  0  0  0
   36.9080   29.0150   40.1670 C   0  0  0  0  0  0  0  0  0  0  0  0
   37.2880   27.8410   40.7330 N   0  0  0  0  0  0  0  0  0  0  0  0
   37.8290   27.7970   41.9610 C   0  0  0  0  0  0  0  0  0  0  0  0
   38.0260   28.9030   42.6960 N   0  0  0  0  0  0  0  0  0  0  0  0
   37.7780   31.0570   42.6800 H   0  0  0  0  0  0  0  0  0  0  0  0
   36.8110   31.1080   40.4800 H   0  0  0  0  0  0  0  0  0  0  0  0
   38.1880   26.5120   42.4560 N   0  0  0  0  0  0  0  0  0  0  0  0
   39.3000   26.3930   43.3800 C   0  0  0  0  0  3  0  0  0  0  0  0
   38.9660   26.2290   44.4150 H   0  0  0  0  0  0  0  0  0  0  0  0
   40.2200   25.2650   42.9230 C   0  0  0  0  0  3  0  0  0  0  0  0
   40.4960   25.4780   41.8860 H   0  0  0  0  0  0  0  0  0  0  0  0
   39.4850   24.0840   42.9240 O   0  0  0  0  0  0  0  0  0  0  0  0
   38.5640   24.1600   41.8820 C   0  0  0  0  0  2  0  0  0  0  0  0
   37.5400   25.2740   42.1200 C   0  0  0  0  0  2  0  0  0  0  0  0
   38.8780   29.1910   37.9290 Cl  0  0  0  0  0  0  0  0  0  0  0  0
   37.1520   29.1170   37.7510 C   0  0  0  0  0  0  0  0  0  0  0  0
   36.3160   29.0370   38.8190 C   0  0  0  0  0  0  0  0  0  0  0  0
   34.9770   28.9850   38.5530 C   0  0  0  0  0  0  0  0  0  0  0  0
   34.4540   29.0070   37.3110 C   0  0  0  0  0  0  0  0  0  0  0  0
   35.2930   29.0870   36.2220 C   0  0  0  0  0  0  0  0  0  0  0  0
   36.6510   29.1420   36.4620 C   0  0  0  0  0  0  0  0  0  0  0  0
   34.2890   28.9210   39.4080 H   0  0  0  0  0  0  0  0  0  0  0  0
   34.9420   29.1090   35.2030 H   0  0  0  0  0  0  0  0  0  0  0  0
   37.3230   29.2050   35.6030 H   0  0  0  0  0  0  0  0  0  0  0  0
   32.9980   28.9500   37.0180 C   0  0  0  0  0  0  0  0  0  0  0  0
   32.6810   27.6510   36.7210 F   0  0  0  0  0  0  0  0  0  0  0  0
   32.6690   29.8030   35.9760 F   0  0  0  0  0  0  0  0  0  0  0  0
   32.3050   29.3550   38.1450 F   0  0  0  0  0  0  0  0  0  0  0  0
  1  7  1  0  0  0  0
  1  6  1  0  0  0  0
  2  1  2  0  0  0  0
  3  4  2  0  0  0  0
  3  2  1  0  0  0  0
  4  5  1  0  0  0  0
  5  9  1  0  0  0  0
  5  6  2  0  0  0  0
  8  2  1  0  0  0  0
  9 10  1  0  0  0  0
 10 11  1  0  0  0  0
 12 14  1  0  0  0  0
 12 10  1  0  0  0  0
 13 12  1  0  0  0  0
 15 16  1  0  0  0  0
 15 14  1  0  0  0  0
 16  9  1  0  0  0  0
 18 17  1  0  0  0  0
 18 19  1  0  0  0  0
 19  3  1  0  0  0  0
 20 19  2  0  0  0  0
 20 24  1  0  0  0  0
 21 20  1  0  0  0  0
 22 23  1  0  0  0  0
 22 21  2  0  0  0  0
 23 18  2  0  0  0  0
 25 22  1  0  0  0  0
 26 23  1  0  0  0  0
 27 21  1  0  0  0  0
 27 30  1  0  0  0  0
 28 27  1  0  0  0  0
 29 27  1  0  0  0  0
M  END
>  <minimizedAffinity>
-5.30804443

$$$$
