
 OpenBabel03252506453D

 41 44  0  0  1  0  0  0  0  0999 V2000
   49.3390   33.2140   41.5080 N   0  0  1  0  0  0  0  0  0  0  0  0
   50.6560   33.1130   42.0920 C   0  0  0  0  0  0  0  0  0  0  0  0
   51.3320   31.7910   41.8420 C   0  0  0  0  0  0  0  0  0  0  0  0
   50.5670   30.7100   42.5560 C   0  0  0  0  0  0  0  0  0  0  0  0
   49.0690   30.9940   42.5590 C   0  0  0  0  0  0  0  0  0  0  0  0
   48.7740   31.9010   41.4010 C   0  0  2  0  0  0  0  0  0  0  0  0
   50.5170   33.1710   43.2040 H   0  0  0  0  0  0  0  0  0  0  0  0
   51.3000   33.9820   41.8430 H   0  0  0  0  0  0  0  0  0  0  0  0
   51.6070   31.5910   40.8090 H   0  0  0  0  0  0  0  0  0  0  0  0
   52.3150   31.8650   42.3880 H   0  0  0  0  0  0  0  0  0  0  0  0
   50.9180   30.6170   43.5930 H   0  0  0  0  0  0  0  0  0  0  0  0
   50.7020   29.7680   41.9840 H   0  0  0  0  0  0  0  0  0  0  0  0
   48.8320   31.5770   43.5020 H   0  0  0  0  0  0  0  0  0  0  0  0
   48.4440   30.1230   42.5430 H   0  0  0  0  0  0  0  0  0  0  0  0
   47.6560   32.0600   41.4450 H   0  0  0  0  0  0  0  0  0  0  0  0
   47.1890   34.5390   42.0220 C   0  0  1  0  0  0  0  0  0  0  0  0
   48.3080   35.4610   41.7130 C   0  0  0  0  0  0  0  0  0  0  0  0
   48.5910   34.1330   42.2890 C   0  0  2  0  0  0  0  0  0  0  0  0
   46.6540   34.1190   41.1200 H   0  0  0  0  0  0  0  0  0  0  0  0
   48.5920   35.6500   40.6510 H   0  0  0  0  0  0  0  0  0  0  0  0
   48.4550   36.3650   42.3460 H   0  0  0  0  0  0  0  0  0  0  0  0
   48.8510   34.1380   43.3850 H   0  0  0  0  0  0  0  0  0  0  0  0
   45.5180   36.0330   43.1620 C   0  0  0  0  0  0  0  0  0  0  0  0
   46.2910   34.8640   43.1300 C   0  0  0  0  0  0  0  0  0  0  0  0
   46.1530   33.9860   44.2250 C   0  0  0  0  0  0  0  0  0  0  0  0
   45.2970   34.3150   45.2290 N   0  0  0  0  0  0  0  0  0  0  0  0
   44.5740   35.4410   45.2240 C   0  0  0  0  0  0  0  0  0  0  0  0
   44.6770   36.3220   44.1830 N   0  0  0  0  0  0  0  0  0  0  0  0
   45.6440   36.6920   42.3070 H   0  0  0  0  0  0  0  0  0  0  0  0
   46.7220   33.0550   44.2720 H   0  0  0  0  0  0  0  0  0  0  0  0
   43.9250   35.6020   46.0750 H   0  0  0  0  0  0  0  0  0  0  0  0
   49.0610   31.2550   40.1530 N   0  0  0  0  0  0  0  0  0  0  0  0
   48.3210   30.4950   39.9630 H   0  0  0  0  0  0  0  0  0  0  0  0
   50.1420   33.4220   38.0620 H   0  0  0  0  0  0  0  0  0  0  0  0
   50.2160   32.4440   38.4270 N   0  0  0  0  0  0  0  0  0  0  0  0
   48.9250   32.1190   39.0030 C   0  0  1  0  0  3  0  0  0  0  0  0
   47.9690   31.6070   37.9780 C   0  0  0  0  0  3  0  0  0  0  0  0
   46.9170   31.8610   38.2270 H   0  0  0  0  0  0  0  0  0  0  0  0
   48.3040   32.3080   36.7780 O   0  0  0  0  0  0  0  0  0  0  0  0
   49.4090   31.6360   36.2580 C   0  0  0  0  0  2  0  0  0  0  0  0
   50.5410   31.6240   37.2690 C   0  0  0  0  0  2  0  0  0  0  0  0
  1  2  1  1  0  0  0
  1 18  1  0  0  0  0
  2  7  1  0  0  0  0
  3  2  1  0  0  0  0
  3 10  1  0  0  0  0
  3  4  1  0  0  0  0
  4  5  1  0  0  0  0
  4 11  1  0  0  0  0
  5 13  1  0  0  0  0
  6 15  1  1  0  0  0
  6  1  1  0  0  0  0
  6  5  1  0  0  0  0
  8  2  1  0  0  0  0
  9  3  1  0  0  0  0
 12  4  1  0  0  0  0
 14  5  1  0  0  0  0
 16 19  1  6  0  0  0
 16 18  1  0  0  0  0
 16 24  1  0  0  0  0
 17 16  1  0  0  0  0
 17 18  1  0  0  0  0
 17 21  1  0  0  0  0
 18 22  1  1  0  0  0
 20 17  1  0  0  0  0
 23 28  1  0  0  0  0
 24 23  2  0  0  0  0
 24 25  1  0  0  0  0
 25 30  1  0  0  0  0
 25 26  2  0  0  0  0
 27 26  1  0  0  0  0
 27 31  1  0  0  0  0
 28 27  2  0  0  0  0
 29 23  1  0  0  0  0
 32  6  1  0  0  0  0
 33 32  1  0  0  0  0
 34 35  1  0  0  0  0
 35 36  1  0  0  0  0
 36 32  1  1  0  0  0
 37 38  1  0  0  0  0
 37 36  1  0  0  0  0
 39 37  1  0  0  0  0
 40 39  1  0  0  0  0
 40 41  1  0  0  0  0
 41 35  1  0  0  0  0
M  END
>  <minimizedAffinity>
-5.1843257

>  <minimizedRMSD>
1.71104109

$$$$
