
 OpenBabel03252500263D

 36 38  0  0  1  0  0  0  0  0999 V2000
   38.0430   27.2010   43.1780 C   0  0  2  0  0  0  0  0  0  0  0  0
   38.3390   28.4700   42.4790 C   0  0  2  0  0  0  0  0  0  0  0  0
   39.6890   28.8360   42.9770 C   0  0  0  0  0  0  0  0  0  0  0  0
   40.3570   27.6640   43.2780 O   0  0  0  0  0  0  0  0  0  0  0  0
   39.4810   26.6290   43.2190 C   0  0  0  0  0  0  0  0  0  0  0  0
   37.7410   27.0900   44.1740 H   0  0  0  0  0  0  0  0  0  0  0  0
   38.3130   28.2490   41.3930 H   0  0  0  0  0  0  0  0  0  0  0  0
   39.7820   29.6430   43.6890 H   0  0  0  0  0  0  0  0  0  0  0  0
   40.2490   29.2290   42.0730 H   0  0  0  0  0  0  0  0  0  0  0  0
   39.6190   25.8920   44.0180 H   0  0  0  0  0  0  0  0  0  0  0  0
   39.6640   26.0800   42.2690 H   0  0  0  0  0  0  0  0  0  0  0  0
   37.4020   29.4550   42.6920 O   0  0  0  0  0  0  0  0  0  0  0  0
   37.1370   29.3000   40.1420 O   0  0  0  0  0  0  0  0  0  0  0  0
   37.1160   30.2840   41.2780 P   0  0  1  0  0  0  0  0  0  0  0  0
   35.5840   31.0020   41.3410 O   0  0  0  0  0  0  0  0  0  0  0  0
   35.1870   31.1630   40.4670 H   0  0  0  0  0  0  0  0  0  0  0  0
   38.3180   31.4500   40.9490 O   0  0  0  0  0  0  0  0  0  0  0  0
   39.6760   31.8240   37.6730 C   0  0  0  0  0  0  0  0  0  0  0  0
   40.9370   31.1510   37.7380 C   0  0  0  0  0  0  0  0  0  0  0  0
   41.2710   30.5710   38.9740 C   0  0  0  0  0  0  0  0  0  0  0  0
   40.4020   30.6820   40.0010 N   0  0  0  0  0  0  0  0  0  0  0  0
   39.2160   31.3330   39.8910 C   0  0  0  0  0  0  0  0  0  0  0  0
   38.8700   31.8970   38.7240 N   0  0  0  0  0  0  0  0  0  0  0  0
   41.5880   31.0990   36.8710 H   0  0  0  0  0  0  0  0  0  0  0  0
   42.2170   30.0480   39.0730 H   0  0  0  0  0  0  0  0  0  0  0  0
   39.3530   32.3900   36.4650 O   0  0  0  0  0  0  0  0  0  0  0  0
   38.3750   32.5910   36.2780 H   0  0  0  0  0  0  0  0  0  0  0  0
   37.1860   26.3660   42.5020 O   0  0  0  0  0  0  0  0  0  0  0  0
   36.1790   24.2190   42.0830 H   0  0  0  0  0  0  0  0  0  0  0  0
   37.2120   24.1680   41.9190 N   0  0  0  0  0  0  0  0  0  0  0  0
   37.6250   25.5180   41.5720 C   0  0  1  0  0  3  0  0  0  0  0  0
   36.8710   25.8110   40.2710 C   0  0  0  0  0  3  0  0  0  0  0  0
   35.8150   25.4810   40.4370 H   0  0  0  0  0  0  0  0  0  0  0  0
   37.4060   25.1630   39.1860 O   0  0  0  0  0  0  0  0  0  0  0  0
   38.1180   24.0540   39.6320 C   0  0  0  0  0  2  0  0  0  0  0  0
   37.4260   23.3370   40.7590 C   0  0  0  0  0  2  0  0  0  0  0  0
  1  5  1  0  0  0  0
  1  6  1  1  0  0  0
  2  7  1  6  0  0  0
  2 12  1  0  0  0  0
  2  3  1  0  0  0  0
  2  1  1  0  0  0  0
  3  4  1  0  0  0  0
  3  8  1  0  0  0  0
  5  4  1  0  0  0  0
  5 10  1  0  0  0  0
  9  3  1  0  0  0  0
 11  5  1  0  0  0  0
 14 13  2  6  0  0  0
 14 15  1  0  0  0  0
 14 12  1  0  0  0  0
 16 15  1  0  0  0  0
 17 14  1  0  0  0  0
 18 19  2  0  0  0  0
 18 23  1  0  0  0  0
 19 20  1  0  0  0  0
 20 25  1  0  0  0  0
 20 21  2  0  0  0  0
 22 21  1  0  0  0  0
 22 17  1  0  0  0  0
 23 22  2  0  0  0  0
 24 19  1  0  0  0  0
 26 18  1  0  0  0  0
 27 26  1  0  0  0  0
 28  1  1  0  0  0  0
 30 29  1  0  0  0  0
 31 30  1  0  0  0  0
 31 28  1  1  0  0  0
 32 33  1  0  0  0  0
 32 31  1  0  0  0  0
 34 35  1  0  0  0  0
 34 32  1  0  0  0  0
 35 36  1  0  0  0  0
 36 30  1  0  0  0  0
M  END
>  <minimizedAffinity>
-5.61268473

$$$$

 OpenBabel03252500263D

 36 38  0  0  1  0  0  0  0  0999 V2000
   38.0840   26.9620   43.1130 C   0  0  2  0  0  0  0  0  0  0  0  0
   38.2490   28.2510   42.4100 C   0  0  2  0  0  0  0  0  0  0  0  0
   39.5280   28.7810   42.9500 C   0  0  0  0  0  0  0  0  0  0  0  0
   40.3210   27.7000   43.2850 O   0  0  0  0  0  0  0  0  0  0  0  0
   39.5780   26.5670   43.2080 C   0  0  0  0  0  0  0  0  0  0  0  0
   37.7640   26.8210   44.1000 H   0  0  0  0  0  0  0  0  0  0  0  0
   38.2870   28.0220   41.3270 H   0  0  0  0  0  0  0  0  0  0  0  0
   39.4990   29.5980   43.6550 H   0  0  0  0  0  0  0  0  0  0  0  0
   40.0670   29.2320   42.0600 H   0  0  0  0  0  0  0  0  0  0  0  0
   39.7760   25.8570   44.0180 H   0  0  0  0  0  0  0  0  0  0  0  0
   39.8580   26.0380   42.2700 H   0  0  0  0  0  0  0  0  0  0  0  0
   37.1930   29.1180   42.5820 O   0  0  0  0  0  0  0  0  0  0  0  0
   36.0650   28.5690   40.3410 O   0  0  0  0  0  0  0  0  0  0  0  0
   36.6910   29.7010   41.1070 P   0  0  1  0  0  0  0  0  0  0  0  0
   35.5220   30.9040   41.3410 O   0  0  0  0  0  0  0  0  0  0  0  0
   34.9160   31.0180   40.5880 H   0  0  0  0  0  0  0  0  0  0  0  0
   37.9830   30.2890   40.1600 O   0  0  0  0  0  0  0  0  0  0  0  0
   40.2160   32.9960   40.7970 C   0  0  0  0  0  0  0  0  0  0  0  0
   39.4600   34.1610   40.4520 C   0  0  0  0  0  0  0  0  0  0  0  0
   38.1500   33.9410   39.9930 C   0  0  0  0  0  0  0  0  0  0  0  0
   37.6950   32.6730   39.9090 N   0  0  0  0  0  0  0  0  0  0  0  0
   38.4500   31.5980   40.2470 C   0  0  0  0  0  0  0  0  0  0  0  0
   39.7040   31.7760   40.6880 N   0  0  0  0  0  0  0  0  0  0  0  0
   39.8910   35.1530   40.5450 H   0  0  0  0  0  0  0  0  0  0  0  0
   37.5370   34.7940   39.7200 H   0  0  0  0  0  0  0  0  0  0  0  0
   41.4950   33.2130   41.2440 O   0  0  0  0  0  0  0  0  0  0  0  0
   41.9440   32.4790   41.7840 H   0  0  0  0  0  0  0  0  0  0  0  0
   37.3570   26.0250   42.4180 O   0  0  0  0  0  0  0  0  0  0  0  0
   36.6460   23.7500   42.0720 H   0  0  0  0  0  0  0  0  0  0  0  0
   37.6820   23.8250   41.9440 N   0  0  0  0  0  0  0  0  0  0  0  0
   37.9340   25.2000   41.5440 C   0  0  1  0  0  3  0  0  0  0  0  0
   37.1980   25.3360   40.2080 C   0  0  0  0  0  3  0  0  0  0  0  0
   36.1860   24.8800   40.3570 H   0  0  0  0  0  0  0  0  0  0  0  0
   37.8500   24.7140   39.1730 O   0  0  0  0  0  0  0  0  0  0  0  0
   38.6800   23.7260   39.6940 C   0  0  0  0  0  2  0  0  0  0  0  0
   38.0420   22.9770   40.8330 C   0  0  0  0  0  2  0  0  0  0  0  0
  1  5  1  0  0  0  0
  1  6  1  1  0  0  0
  2  7  1  6  0  0  0
  2 12  1  0  0  0  0
  2  3  1  0  0  0  0
  2  1  1  0  0  0  0
  3  4  1  0  0  0  0
  3  8  1  0  0  0  0
  5  4  1  0  0  0  0
  5 10  1  0  0  0  0
  9  3  1  0  0  0  0
 11  5  1  0  0  0  0
 14 13  2  6  0  0  0
 14 15  1  0  0  0  0
 14 12  1  0  0  0  0
 16 15  1  0  0  0  0
 17 22  1  0  0  0  0
 17 14  1  0  0  0  0
 18 26  1  0  0  0  0
 19 24  1  0  0  0  0
 19 18  2  0  0  0  0
 20 19  1  0  0  0  0
 21 20  2  0  0  0  0
 21 22  1  0  0  0  0
 22 23  2  0  0  0  0
 23 18  1  0  0  0  0
 25 20  1  0  0  0  0
 26 27  1  0  0  0  0
 28  1  1  0  0  0  0
 30 29  1  0  0  0  0
 31 30  1  0  0  0  0
 31 28  1  1  0  0  0
 32 33  1  0  0  0  0
 32 31  1  0  0  0  0
 34 35  1  0  0  0  0
 34 32  1  0  0  0  0
 35 36  1  0  0  0  0
 36 30  1  0  0  0  0
M  END
>  <minimizedAffinity>
-5.53883982

$$$$

 OpenBabel03252500263D

 36 38  0  0  1  0  0  0  0  0999 V2000
   40.5560   29.0760   42.3790 C   0  0  2  0  0  0  0  0  0  0  0  0
   39.6170   28.0260   42.8260 C   0  0  2  0  0  0  0  0  0  0  0  0
   40.5040   26.8750   43.1380 C   0  0  0  0  0  0  0  0  0  0  0  0
   41.7240   27.3830   43.5410 O   0  0  0  0  0  0  0  0  0  0  0  0
   41.7460   28.7190   43.3030 C   0  0  0  0  0  0  0  0  0  0  0  0
   41.0250   29.1420   41.4450 H   0  0  0  0  0  0  0  0  0  0  0  0
   39.0880   28.4280   43.7130 H   0  0  0  0  0  0  0  0  0  0  0  0
   40.5290   26.0360   42.4580 H   0  0  0  0  0  0  0  0  0  0  0  0
   40.0850   26.4200   44.0890 H   0  0  0  0  0  0  0  0  0  0  0  0
   42.7050   29.0790   42.9140 H   0  0  0  0  0  0  0  0  0  0  0  0
   41.6010   29.2420   44.2740 H   0  0  0  0  0  0  0  0  0  0  0  0
   38.6430   27.7190   41.9040 O   0  0  0  0  0  0  0  0  0  0  0  0
   36.5250   26.9330   43.1260 O   0  0  0  0  0  0  0  0  0  0  0  0
   37.1470   28.1460   42.4930 P   0  0  1  0  0  0  0  0  0  0  0  0
   37.3250   29.3420   43.6780 O   0  0  0  0  0  0  0  0  0  0  0  0
   36.5960   29.3710   44.3230 H   0  0  0  0  0  0  0  0  0  0  0  0
   36.0840   28.6660   41.2630 O   0  0  0  0  0  0  0  0  0  0  0  0
   36.8890   31.8920   39.9750 C   0  0  0  0  0  0  0  0  0  0  0  0
   37.0900   31.6700   38.5760 C   0  0  0  0  0  0  0  0  0  0  0  0
   36.9280   30.3480   38.1250 C   0  0  0  0  0  0  0  0  0  0  0  0
   36.6010   29.3920   39.0190 N   0  0  0  0  0  0  0  0  0  0  0  0
   36.4210   29.6510   40.3390 C   0  0  0  0  0  0  0  0  0  0  0  0
   36.5680   30.9020   40.7990 N   0  0  0  0  0  0  0  0  0  0  0  0
   37.3530   32.4880   37.9120 H   0  0  0  0  0  0  0  0  0  0  0  0
   37.0700   30.1300   37.0720 H   0  0  0  0  0  0  0  0  0  0  0  0
   37.0470   33.1840   40.4120 O   0  0  0  0  0  0  0  0  0  0  0  0
   36.6200   33.4440   41.2960 H   0  0  0  0  0  0  0  0  0  0  0  0
   40.1170   30.3600   42.5940 O   0  0  0  0  0  0  0  0  0  0  0  0
   42.1160   31.6020   42.0810 H   0  0  0  0  0  0  0  0  0  0  0  0
   41.2720   32.2030   41.9320 N   0  0  0  0  0  0  0  0  0  0  0  0
   40.1800   31.2890   41.6400 C   0  0  1  0  0  3  0  0  0  0  0  0
   40.6100   30.6040   40.3390 C   0  0  0  0  0  3  0  0  0  0  0  0
   41.6810   30.3090   40.4770 H   0  0  0  0  0  0  0  0  0  0  0  0
   40.4790   31.4150   39.2400 O   0  0  0  0  0  0  0  0  0  0  0  0
   40.4990   32.7420   39.6560 C   0  0  0  0  0  2  0  0  0  0  0  0
   41.5060   32.9910   40.7450 C   0  0  0  0  0  2  0  0  0  0  0  0
  1  6  1  6  0  0  0
  1 28  1  0  0  0  0
  1  2  1  0  0  0  0
  1  5  1  0  0  0  0
  2  3  1  0  0  0  0
  2  7  1  1  0  0  0
  3  4  1  0  0  0  0
  3  9  1  0  0  0  0
  5  4  1  0  0  0  0
  5 11  1  0  0  0  0
  8  3  1  0  0  0  0
 10  5  1  0  0  0  0
 12 14  1  0  0  0  0
 12  2  1  0  0  0  0
 14 13  2  1  0  0  0
 14 15  1  0  0  0  0
 15 16  1  0  0  0  0
 17 14  1  0  0  0  0
 18 26  1  0  0  0  0
 18 23  1  0  0  0  0
 19 18  2  0  0  0  0
 20 19  1  0  0  0  0
 20 21  2  0  0  0  0
 21 22  1  0  0  0  0
 22 23  2  0  0  0  0
 22 17  1  0  0  0  0
 24 19  1  0  0  0  0
 25 20  1  0  0  0  0
 26 27  1  0  0  0  0
 30 29  1  0  0  0  0
 31 30  1  0  0  0  0
 31 28  1  1  0  0  0
 32 33  1  0  0  0  0
 32 31  1  0  0  0  0
 34 35  1  0  0  0  0
 34 32  1  0  0  0  0
 35 36  1  0  0  0  0
 36 30  1  0  0  0  0
M  END
>  <minimizedAffinity>
-5.4341979

$$$$

 OpenBabel03252500263D

 36 38  0  0  1  0  0  0  0  0999 V2000
   37.5060   26.5120   41.7420 C   0  0  2  0  0  0  0  0  0  0  0  0
   37.2870   27.9490   42.0120 C   0  0  2  0  0  0  0  0  0  0  0  0
   37.7920   28.1240   43.3980 C   0  0  0  0  0  0  0  0  0  0  0  0
   38.7960   27.1960   43.5980 O   0  0  0  0  0  0  0  0  0  0  0  0
   38.8100   26.3290   42.5540 C   0  0  0  0  0  0  0  0  0  0  0  0
   36.9250   25.7130   42.0900 H   0  0  0  0  0  0  0  0  0  0  0  0
   37.8710   28.5080   41.2540 H   0  0  0  0  0  0  0  0  0  0  0  0
   37.0810   28.2500   44.2010 H   0  0  0  0  0  0  0  0  0  0  0  0
   38.3490   29.1120   43.3940 H   0  0  0  0  0  0  0  0  0  0  0  0
   38.9810   25.2880   42.8510 H   0  0  0  0  0  0  0  0  0  0  0  0
   39.6680   26.5980   41.8990 H   0  0  0  0  0  0  0  0  0  0  0  0
   35.9790   28.3510   41.8620 O   0  0  0  0  0  0  0  0  0  0  0  0
   34.6620   29.1510   39.8070 O   0  0  0  0  0  0  0  0  0  0  0  0
   35.8670   29.4790   40.6440 P   0  0  1  0  0  0  0  0  0  0  0  0
   35.6540   31.0190   41.3160 O   0  0  0  0  0  0  0  0  0  0  0  0
   35.2070   31.6500   40.7240 H   0  0  0  0  0  0  0  0  0  0  0  0
   37.2190   29.4550   39.6030 O   0  0  0  0  0  0  0  0  0  0  0  0
   39.2590   31.9070   38.0080 C   0  0  0  0  0  0  0  0  0  0  0  0
   39.8000   32.6690   39.0910 C   0  0  0  0  0  0  0  0  0  0  0  0
   39.4130   32.2770   40.3840 C   0  0  0  0  0  0  0  0  0  0  0  0
   38.5740   31.2290   40.5220 N   0  0  0  0  0  0  0  0  0  0  0  0
   38.0850   30.5360   39.4630 C   0  0  0  0  0  0  0  0  0  0  0  0
   38.4360   30.8870   38.2170 N   0  0  0  0  0  0  0  0  0  0  0  0
   40.4720   33.5020   38.9060 H   0  0  0  0  0  0  0  0  0  0  0  0
   39.7980   32.8250   41.2380 H   0  0  0  0  0  0  0  0  0  0  0  0
   39.6380   32.2920   36.7460 O   0  0  0  0  0  0  0  0  0  0  0  0
   39.5450   31.6170   35.9930 H   0  0  0  0  0  0  0  0  0  0  0  0
   37.6880   26.2050   40.4150 O   0  0  0  0  0  0  0  0  0  0  0  0
   37.1380   26.9110   38.1790 H   0  0  0  0  0  0  0  0  0  0  0  0
   36.2740   26.5970   38.6790 N   0  0  0  0  0  0  0  0  0  0  0  0
   36.7200   25.6490   39.6870 C   0  0  1  0  0  3  0  0  0  0  0  0
   37.3360   24.5070   38.8720 C   0  0  0  0  0  3  0  0  0  0  0  0
   37.9900   24.9870   38.1010 H   0  0  0  0  0  0  0  0  0  0  0  0
   36.3940   23.7130   38.2680 O   0  0  0  0  0  0  0  0  0  0  0  0
   35.2170   24.4410   38.1270 C   0  0  0  0  0  2  0  0  0  0  0  0
   35.4660   25.8700   37.7290 C   0  0  0  0  0  2  0  0  0  0  0  0
  1  2  1  0  0  0  0
  1  6  1  1  0  0  0
  1  5  1  0  0  0  0
  2  7  1  6  0  0  0
  2  3  1  0  0  0  0
  3  4  1  0  0  0  0
  3  8  1  0  0  0  0
  5 10  1  0  0  0  0
  5  4  1  0  0  0  0
  9  3  1  0  0  0  0
 11  5  1  0  0  0  0
 12  2  1  0  0  0  0
 14 13  2  6  0  0  0
 14 15  1  0  0  0  0
 14 12  1  0  0  0  0
 16 15  1  0  0  0  0
 17 14  1  0  0  0  0
 18 23  2  0  0  0  0
 18 19  1  0  0  0  0
 19 20  2  0  0  0  0
 20 21  1  0  0  0  0
 20 25  1  0  0  0  0
 22 17  1  0  0  0  0
 22 21  2  0  0  0  0
 23 22  1  0  0  0  0
 24 19  1  0  0  0  0
 26 18  1  0  0  0  0
 27 26  1  0  0  0  0
 28  1  1  0  0  0  0
 29 30  1  0  0  0  0
 30 31  1  0  0  0  0
 31 28  1  1  0  0  0
 32 31  1  0  0  0  0
 33 32  1  0  0  0  0
 34 32  1  0  0  0  0
 35 34  1  0  0  0  0
 36 35  1  0  0  0  0
 36 30  1  0  0  0  0
M  END
>  <minimizedAffinity>
-5.43338823

$$$$

 OpenBabel03252500263D

 36 38  0  0  1  0  0  0  0  0999 V2000
   39.0070   31.4430   41.5610 C   0  0  2  0  0  0  0  0  0  0  0  0
   39.8250   31.4550   40.3300 C   0  0  2  0  0  0  0  0  0  0  0  0
   41.1440   31.9580   40.7920 C   0  0  0  0  0  0  0  0  0  0  0  0
   41.3010   31.5730   42.1110 O   0  0  0  0  0  0  0  0  0  0  0  0
   40.1240   31.0730   42.5670 C   0  0  0  0  0  0  0  0  0  0  0  0
   38.5650   32.2690   42.0280 H   0  0  0  0  0  0  0  0  0  0  0  0
   39.8560   30.4120   39.9570 H   0  0  0  0  0  0  0  0  0  0  0  0
   41.4340   32.9680   40.5450 H   0  0  0  0  0  0  0  0  0  0  0  0
   41.9150   31.3310   40.2460 H   0  0  0  0  0  0  0  0  0  0  0  0
   39.8870   31.3790   43.5920 H   0  0  0  0  0  0  0  0  0  0  0  0
   40.2120   29.9650   42.5970 H   0  0  0  0  0  0  0  0  0  0  0  0
   39.2890   32.2100   39.3120 O   0  0  0  0  0  0  0  0  0  0  0  0
   37.7580   30.6660   37.9440 O   0  0  0  0  0  0  0  0  0  0  0  0
   39.1290   31.2840   37.9390 P   0  0  1  0  0  0  0  0  0  0  0  0
   39.2710   32.2700   36.5700 O   0  0  0  0  0  0  0  0  0  0  0  0
   38.8240   31.9160   35.7810 H   0  0  0  0  0  0  0  0  0  0  0  0
   40.2530   30.0010   37.8810 O   0  0  0  0  0  0  0  0  0  0  0  0
   43.3020   31.3630   36.6320 C   0  0  0  0  0  0  0  0  0  0  0  0
   43.8440   30.3190   35.8180 C   0  0  0  0  0  0  0  0  0  0  0  0
   43.0890   29.1360   35.7370 C   0  0  0  0  0  0  0  0  0  0  0  0
   41.9260   29.0590   36.4160 N   0  0  0  0  0  0  0  0  0  0  0  0
   41.4520   30.0770   37.1780 C   0  0  0  0  0  0  0  0  0  0  0  0
   42.1500   31.2180   37.2750 N   0  0  0  0  0  0  0  0  0  0  0  0
   44.7880   30.4490   35.2970 H   0  0  0  0  0  0  0  0  0  0  0  0
   43.4590   28.3150   35.1310 H   0  0  0  0  0  0  0  0  0  0  0  0
   44.0420   32.5170   36.7100 O   0  0  0  0  0  0  0  0  0  0  0  0
   43.5690   33.3680   36.9990 H   0  0  0  0  0  0  0  0  0  0  0  0
   37.9970   30.5120   41.5630 O   0  0  0  0  0  0  0  0  0  0  0  0
   36.1950   29.4500   42.7580 H   0  0  0  0  0  0  0  0  0  0  0  0
   37.1060   29.2500   43.2320 N   0  0  0  0  0  0  0  0  0  0  0  0
   38.1220   29.3450   42.1960 C   0  0  1  0  0  3  0  0  0  0  0  0
   37.7520   28.2310   41.2140 C   0  0  0  0  0  3  0  0  0  0  0  0
   36.6490   28.3110   41.0460 H   0  0  0  0  0  0  0  0  0  0  0  0
   38.0720   26.9800   41.6800 O   0  0  0  0  0  0  0  0  0  0  0  0
   38.1470   27.0230   43.0680 C   0  0  0  0  0  2  0  0  0  0  0  0
   37.0700   27.8780   43.6780 C   0  0  0  0  0  2  0  0  0  0  0  0
  1 28  1  0  0  0  0
  1  6  1  1  0  0  0
  1  5  1  0  0  0  0
  2  7  1  6  0  0  0
  2  3  1  0  0  0  0
  2  1  1  0  0  0  0
  3  4  1  0  0  0  0
  4  5  1  0  0  0  0
  5 11  1  0  0  0  0
  5 10  1  0  0  0  0
  8  3  1  0  0  0  0
  9  3  1  0  0  0  0
 12  2  1  0  0  0  0
 14 13  2  1  0  0  0
 14 12  1  0  0  0  0
 15 14  1  0  0  0  0
 16 15  1  0  0  0  0
 17 14  1  0  0  0  0
 18 26  1  0  0  0  0
 18 23  1  0  0  0  0
 19 18  2  0  0  0  0
 20 19  1  0  0  0  0
 20 21  2  0  0  0  0
 21 22  1  0  0  0  0
 22 23  2  0  0  0  0
 22 17  1  0  0  0  0
 24 19  1  0  0  0  0
 25 20  1  0  0  0  0
 26 27  1  0  0  0  0
 29 30  1  0  0  0  0
 30 36  1  0  0  0  0
 31 28  1  6  0  0  0
 31 30  1  0  0  0  0
 32 34  1  0  0  0  0
 32 31  1  0  0  0  0
 33 32  1  0  0  0  0
 34 35  1  0  0  0  0
 35 36  1  0  0  0  0
M  END
>  <minimizedAffinity>
-5.41784239

$$$$

 OpenBabel03252500263D

 36 38  0  0  1  0  0  0  0  0999 V2000
   36.5980   30.5460   39.2180 C   0  0  2  0  0  0  0  0  0  0  0  0
   36.4330   29.5710   40.3170 C   0  0  2  0  0  0  0  0  0  0  0  0
   35.0520   29.0590   40.1230 C   0  0  0  0  0  0  0  0  0  0  0  0
   34.7660   29.1230   38.7730 O   0  0  0  0  0  0  0  0  0  0  0  0
   35.7480   29.8210   38.1470 C   0  0  0  0  0  0  0  0  0  0  0  0
   36.2090   31.5170   39.1770 H   0  0  0  0  0  0  0  0  0  0  0  0
   37.2150   28.7980   40.1770 H   0  0  0  0  0  0  0  0  0  0  0  0
   34.2750   29.3840   40.7990 H   0  0  0  0  0  0  0  0  0  0  0  0
   35.1130   27.9440   40.3230 H   0  0  0  0  0  0  0  0  0  0  0  0
   35.3760   30.5000   37.3720 H   0  0  0  0  0  0  0  0  0  0  0  0
   36.4020   29.0920   37.6190 H   0  0  0  0  0  0  0  0  0  0  0  0
   36.6380   30.1030   41.5690 O   0  0  0  0  0  0  0  0  0  0  0  0
   38.7050   29.9620   43.0880 O   0  0  0  0  0  0  0  0  0  0  0  0
   37.6410   29.1110   42.4520 P   0  0  1  0  0  0  0  0  0  0  0  0
   36.7520   28.3530   43.6770 O   0  0  0  0  0  0  0  0  0  0  0  0
   37.2880   28.0810   44.4430 H   0  0  0  0  0  0  0  0  0  0  0  0
   38.4400   27.9570   41.4810 O   0  0  0  0  0  0  0  0  0  0  0  0
   38.8620   24.5530   42.4520 C   0  0  0  0  0  0  0  0  0  0  0  0
   37.7790   23.8700   41.8130 C   0  0  0  0  0  0  0  0  0  0  0  0
   36.9140   24.6620   41.0380 C   0  0  0  0  0  0  0  0  0  0  0  0
   37.1520   25.9870   40.9470 N   0  0  0  0  0  0  0  0  0  0  0  0
   38.1930   26.5900   41.5730 C   0  0  0  0  0  0  0  0  0  0  0  0
   39.0360   25.8620   42.3200 N   0  0  0  0  0  0  0  0  0  0  0  0
   37.6480   22.7990   41.9300 H   0  0  0  0  0  0  0  0  0  0  0  0
   36.0780   24.1890   40.5330 H   0  0  0  0  0  0  0  0  0  0  0  0
   39.7060   23.7770   43.2090 O   0  0  0  0  0  0  0  0  0  0  0  0
   40.6330   24.1390   43.4120 H   0  0  0  0  0  0  0  0  0  0  0  0
   37.8960   30.7180   38.8010 O   0  0  0  0  0  0  0  0  0  0  0  0
   37.5140   31.9470   40.8370 H   0  0  0  0  0  0  0  0  0  0  0  0
   37.8300   32.5970   40.0810 N   0  0  0  0  0  0  0  0  0  0  0  0
   38.6100   31.7850   39.1600 C   0  0  1  0  0  3  0  0  0  0  0  0
   39.7920   31.3020   40.0060 C   0  0  0  0  0  3  0  0  0  0  0  0
   39.3620   30.9460   40.9760 H   0  0  0  0  0  0  0  0  0  0  0  0
   40.7240   32.2830   40.2310 O   0  0  0  0  0  0  0  0  0  0  0  0
   40.1120   33.5240   40.0930 C   0  0  0  0  0  2  0  0  0  0  0  0
   38.7280   33.5550   40.6810 C   0  0  0  0  0  2  0  0  0  0  0  0
  1  6  1  1  0  0  0
  1  2  1  0  0  0  0
  2  7  1  6  0  0  0
  2 12  1  0  0  0  0
  3  2  1  0  0  0  0
  3  9  1  0  0  0  0
  3  8  1  0  0  0  0
  4  3  1  0  0  0  0
  5  4  1  0  0  0  0
  5  1  1  0  0  0  0
 10  5  1  0  0  0  0
 11  5  1  0  0  0  0
 12 14  1  0  0  0  0
 14 13  2  1  0  0  0
 14 15  1  0  0  0  0
 15 16  1  0  0  0  0
 17 22  1  0  0  0  0
 17 14  1  0  0  0  0
 18 26  1  0  0  0  0
 19 24  1  0  0  0  0
 19 18  2  0  0  0  0
 20 19  1  0  0  0  0
 21 20  2  0  0  0  0
 21 22  1  0  0  0  0
 22 23  2  0  0  0  0
 23 18  1  0  0  0  0
 25 20  1  0  0  0  0
 26 27  1  0  0  0  0
 28  1  1  0  0  0  0
 30 36  1  0  0  0  0
 30 29  1  0  0  0  0
 31 28  1  1  0  0  0
 31 32  1  0  0  0  0
 31 30  1  0  0  0  0
 32 34  1  0  0  0  0
 32 33  1  0  0  0  0
 35 34  1  0  0  0  0
 35 36  1  0  0  0  0
M  END
>  <minimizedAffinity>
-5.38668776

$$$$

 OpenBabel03252500263D

 36 38  0  0  1  0  0  0  0  0999 V2000
   38.5870   29.5560   37.8400 C   0  0  2  0  0  0  0  0  0  0  0  0
   37.4620   29.6250   38.7960 C   0  0  2  0  0  0  0  0  0  0  0  0
   36.5200   28.5880   38.3010 C   0  0  0  0  0  0  0  0  0  0  0  0
   37.2680   27.6040   37.6820 O   0  0  0  0  0  0  0  0  0  0  0  0
   38.5490   28.0350   37.5580 C   0  0  0  0  0  0  0  0  0  0  0  0
   38.6110   29.9520   36.8700 H   0  0  0  0  0  0  0  0  0  0  0  0
   37.8810   29.3990   39.7970 H   0  0  0  0  0  0  0  0  0  0  0  0
   35.6180   28.9010   37.7960 H   0  0  0  0  0  0  0  0  0  0  0  0
   36.1260   28.0700   39.2290 H   0  0  0  0  0  0  0  0  0  0  0  0
   39.0090   27.7710   36.6000 H   0  0  0  0  0  0  0  0  0  0  0  0
   39.1580   27.5220   38.3350 H   0  0  0  0  0  0  0  0  0  0  0  0
   36.8870   30.8710   38.8930 O   0  0  0  0  0  0  0  0  0  0  0  0
   37.2120   32.9580   40.3550 O   0  0  0  0  0  0  0  0  0  0  0  0
   37.0680   31.4630   40.4370 P   0  0  1  0  0  0  0  0  0  0  0  0
   35.6860   31.1040   41.3470 O   0  0  0  0  0  0  0  0  0  0  0  0
   35.5340   31.7120   42.0910 H   0  0  0  0  0  0  0  0  0  0  0  0
   38.4710   30.8690   41.2060 O   0  0  0  0  0  0  0  0  0  0  0  0
   37.2280   28.1740   43.1840 C   0  0  0  0  0  0  0  0  0  0  0  0
   38.3950   27.4120   43.5080 C   0  0  0  0  0  0  0  0  0  0  0  0
   39.6150   27.8930   43.0010 C   0  0  0  0  0  0  0  0  0  0  0  0
   39.6110   29.0180   42.2560 N   0  0  0  0  0  0  0  0  0  0  0  0
   38.4770   29.7080   41.9750 C   0  0  0  0  0  0  0  0  0  0  0  0
   37.2980   29.2740   42.4440 N   0  0  0  0  0  0  0  0  0  0  0  0
   38.3240   26.5130   44.1130 H   0  0  0  0  0  0  0  0  0  0  0  0
   40.5270   27.3480   43.2200 H   0  0  0  0  0  0  0  0  0  0  0  0
   36.0380   27.7020   43.6790 O   0  0  0  0  0  0  0  0  0  0  0  0
   35.2590   28.3500   43.7480 H   0  0  0  0  0  0  0  0  0  0  0  0
   39.7990   29.9440   38.3590 O   0  0  0  0  0  0  0  0  0  0  0  0
   41.2350   31.1220   39.8920 H   0  0  0  0  0  0  0  0  0  0  0  0
   40.6450   31.8020   39.3600 N   0  0  0  0  0  0  0  0  0  0  0  0
   40.3170   31.1460   38.1050 C   0  0  1  0  0  3  0  0  0  0  0  0
   41.6760   30.9430   37.4290 C   0  0  0  0  0  3  0  0  0  0  0  0
   42.3610   30.5330   38.2130 H   0  0  0  0  0  0  0  0  0  0  0  0
   42.1910   32.1030   36.9080 O   0  0  0  0  0  0  0  0  0  0  0  0
   41.6230   33.1850   37.5720 C   0  0  0  0  0  2  0  0  0  0  0  0
   41.4730   32.9420   39.0490 C   0  0  0  0  0  2  0  0  0  0  0  0
  1  6  1  6  0  0  0
  1 28  1  0  0  0  0
  1  2  1  0  0  0  0
  2 12  1  0  0  0  0
  2  7  1  1  0  0  0
  3  2  1  0  0  0  0
  3  9  1  0  0  0  0
  4  3  1  0  0  0  0
  5  4  1  0  0  0  0
  5  1  1  0  0  0  0
  5 11  1  0  0  0  0
  8  3  1  0  0  0  0
 10  5  1  0  0  0  0
 12 14  1  0  0  0  0
 14 13  2  6  0  0  0
 14 17  1  0  0  0  0
 14 15  1  0  0  0  0
 15 16  1  0  0  0  0
 17 22  1  0  0  0  0
 18 19  1  0  0  0  0
 18 26  1  0  0  0  0
 19 24  1  0  0  0  0
 20 25  1  0  0  0  0
 20 19  2  0  0  0  0
 21 20  1  0  0  0  0
 22 21  2  0  0  0  0
 22 23  1  0  0  0  0
 23 18  2  0  0  0  0
 26 27  1  0  0  0  0
 30 29  1  0  0  0  0
 31 28  1  1  0  0  0
 31 30  1  0  0  0  0
 32 31  1  0  0  0  0
 32 33  1  0  0  0  0
 34 32  1  0  0  0  0
 34 35  1  0  0  0  0
 35 36  1  0  0  0  0
 36 30  1  0  0  0  0
M  END
>  <minimizedAffinity>
-5.3716197

$$$$

 OpenBabel03252500263D

 36 38  0  0  1  0  0  0  0  0999 V2000
   38.2150   29.5690   39.0260 C   0  0  2  0  0  0  0  0  0  0  0  0
   37.1790   30.5510   38.6410 C   0  0  2  0  0  0  0  0  0  0  0  0
   36.4620   29.8820   37.5250 C   0  0  0  0  0  0  0  0  0  0  0  0
   36.5380   28.5180   37.7370 O   0  0  0  0  0  0  0  0  0  0  0  0
   37.4100   28.2760   38.7480 C   0  0  0  0  0  0  0  0  0  0  0  0
   39.1120   29.3740   38.5230 H   0  0  0  0  0  0  0  0  0  0  0  0
   36.5480   30.7170   39.5360 H   0  0  0  0  0  0  0  0  0  0  0  0
   36.6290   30.2250   36.5160 H   0  0  0  0  0  0  0  0  0  0  0  0
   35.3640   30.1090   37.6930 H   0  0  0  0  0  0  0  0  0  0  0  0
   38.0550   27.4080   38.5730 H   0  0  0  0  0  0  0  0  0  0  0  0
   36.8190   28.0320   39.6580 H   0  0  0  0  0  0  0  0  0  0  0  0
   37.6820   31.7840   38.2930 O   0  0  0  0  0  0  0  0  0  0  0  0
   37.0430   34.1120   39.1710 O   0  0  0  0  0  0  0  0  0  0  0  0
   37.6460   32.8050   39.6060 P   0  0  1  0  0  0  0  0  0  0  0  0
   36.6680   32.1360   40.8160 O   0  0  0  0  0  0  0  0  0  0  0  0
   36.2860   32.7940   41.4230 H   0  0  0  0  0  0  0  0  0  0  0  0
   39.2040   33.1520   40.2090 O   0  0  0  0  0  0  0  0  0  0  0  0
   41.8530   33.2970   37.8270 C   0  0  0  0  0  0  0  0  0  0  0  0
   42.6750   32.1710   38.1480 C   0  0  0  0  0  0  0  0  0  0  0  0
   42.2490   31.3760   39.2270 C   0  0  0  0  0  0  0  0  0  0  0  0
   41.1170   31.7170   39.8790 N   0  0  0  0  0  0  0  0  0  0  0  0
   40.3710   32.7980   39.5370 C   0  0  0  0  0  0  0  0  0  0  0  0
   40.7520   33.5750   38.5130 N   0  0  0  0  0  0  0  0  0  0  0  0
   43.5740   31.9550   37.5790 H   0  0  0  0  0  0  0  0  0  0  0  0
   42.8390   30.5100   39.5080 H   0  0  0  0  0  0  0  0  0  0  0  0
   42.2720   34.0720   36.7730 O   0  0  0  0  0  0  0  0  0  0  0  0
   41.5870   34.6680   36.3180 H   0  0  0  0  0  0  0  0  0  0  0  0
   38.6100   29.6460   40.3400 O   0  0  0  0  0  0  0  0  0  0  0  0
   40.1420   28.6160   41.8880 H   0  0  0  0  0  0  0  0  0  0  0  0
   39.4020   27.9320   41.6060 N   0  0  0  0  0  0  0  0  0  0  0  0
   38.2440   28.7280   41.2350 C   0  0  1  0  0  3  0  0  0  0  0  0
   37.8650   29.4530   42.5290 C   0  0  0  0  0  3  0  0  0  0  0  0
   38.8170   29.8570   42.9550 H   0  0  0  0  0  0  0  0  0  0  0  0
   37.2480   28.6330   43.4400 O   0  0  0  0  0  0  0  0  0  0  0  0
   37.6000   27.3150   43.1690 C   0  0  0  0  0  2  0  0  0  0  0  0
   39.0470   27.1720   42.7810 C   0  0  0  0  0  2  0  0  0  0  0  0
  1  6  1  6  0  0  0
  1 28  1  0  0  0  0
  2  1  1  0  0  0  0
  2  7  1  1  0  0  0
  3  9  1  0  0  0  0
  3  4  1  0  0  0  0
  3  2  1  0  0  0  0
  4  5  1  0  0  0  0
  5  1  1  0  0  0  0
  5 11  1  0  0  0  0
  8  3  1  0  0  0  0
 10  5  1  0  0  0  0
 12  2  1  0  0  0  0
 12 14  1  0  0  0  0
 14 13  2  6  0  0  0
 14 17  1  0  0  0  0
 14 15  1  0  0  0  0
 15 16  1  0  0  0  0
 18 19  2  0  0  0  0
 18 23  1  0  0  0  0
 19 20  1  0  0  0  0
 20 25  1  0  0  0  0
 20 21  2  0  0  0  0
 22 21  1  0  0  0  0
 22 17  1  0  0  0  0
 23 22  2  0  0  0  0
 24 19  1  0  0  0  0
 26 18  1  0  0  0  0
 27 26  1  0  0  0  0
 30 29  1  0  0  0  0
 30 36  1  0  0  0  0
 31 28  1  6  0  0  0
 31 30  1  0  0  0  0
 31 32  1  0  0  0  0
 32 33  1  0  0  0  0
 32 34  1  0  0  0  0
 35 34  1  0  0  0  0
 36 35  1  0  0  0  0
M  END
>  <minimizedAffinity>
-5.27833366

$$$$

 OpenBabel03252500263D

 36 38  0  0  1  0  0  0  0  0999 V2000
   36.8040   30.4800   38.9760 C   0  0  2  0  0  0  0  0  0  0  0  0
   36.5160   29.6620   40.1720 C   0  0  2  0  0  0  0  0  0  0  0  0
   35.0880   29.2880   40.0030 C   0  0  0  0  0  0  0  0  0  0  0  0
   34.8280   29.2290   38.6460 O   0  0  0  0  0  0  0  0  0  0  0  0
   35.8900   29.7370   37.9720 C   0  0  0  0  0  0  0  0  0  0  0  0
   36.5290   31.4770   38.8170 H   0  0  0  0  0  0  0  0  0  0  0  0
   37.2060   28.7950   40.1400 H   0  0  0  0  0  0  0  0  0  0  0  0
   34.3450   29.7730   40.6180 H   0  0  0  0  0  0  0  0  0  0  0  0
   35.0180   28.2040   40.3280 H   0  0  0  0  0  0  0  0  0  0  0  0
   35.6080   30.3600   37.1160 H   0  0  0  0  0  0  0  0  0  0  0  0
   36.4630   28.8840   37.5450 H   0  0  0  0  0  0  0  0  0  0  0  0
   36.7650   30.3070   41.3620 O   0  0  0  0  0  0  0  0  0  0  0  0
   38.9220   30.2490   42.7550 O   0  0  0  0  0  0  0  0  0  0  0  0
   37.7760   29.3850   42.3090 P   0  0  1  0  0  0  0  0  0  0  0  0
   36.9380   28.8500   43.6800 O   0  0  0  0  0  0  0  0  0  0  0  0
   37.5110   28.6530   44.4410 H   0  0  0  0  0  0  0  0  0  0  0  0
   38.4480   28.0670   41.4580 O   0  0  0  0  0  0  0  0  0  0  0  0
   38.6590   24.5950   42.2420 C   0  0  0  0  0  0  0  0  0  0  0  0
   39.6480   24.5290   43.2740 C   0  0  0  0  0  0  0  0  0  0  0  0
   40.2210   25.7510   43.6670 C   0  0  0  0  0  0  0  0  0  0  0  0
   39.8130   26.8860   43.0610 N   0  0  0  0  0  0  0  0  0  0  0  0
   38.8700   26.8980   42.0850 C   0  0  0  0  0  0  0  0  0  0  0  0
   38.3060   25.7480   41.6880 N   0  0  0  0  0  0  0  0  0  0  0  0
   39.9290   23.5790   43.7190 H   0  0  0  0  0  0  0  0  0  0  0  0
   40.9760   25.7530   44.4470 H   0  0  0  0  0  0  0  0  0  0  0  0
   38.1010   23.4000   41.8600 O   0  0  0  0  0  0  0  0  0  0  0  0
   37.2050   23.4230   41.3830 H   0  0  0  0  0  0  0  0  0  0  0  0
   38.1190   30.4570   38.5750 O   0  0  0  0  0  0  0  0  0  0  0  0
   39.9590   30.5700   40.1250 H   0  0  0  0  0  0  0  0  0  0  0  0
   39.5190   31.5140   40.0210 N   0  0  0  0  0  0  0  0  0  0  0  0
   38.9070   31.5250   38.7030 C   0  0  1  0  0  3  0  0  0  0  0  0
   40.0910   31.3560   37.7460 C   0  0  0  0  0  3  0  0  0  0  0  0
   40.7170   30.5270   38.1610 H   0  0  0  0  0  0  0  0  0  0  0  0
   40.8400   32.4990   37.6170 O   0  0  0  0  0  0  0  0  0  0  0  0
   40.6460   33.2930   38.7420 C   0  0  0  0  0  2  0  0  0  0  0  0
   40.5840   32.4890   40.0120 C   0  0  0  0  0  2  0  0  0  0  0  0
  1  6  1  1  0  0  0
  1  2  1  0  0  0  0
  2  7  1  6  0  0  0
  2 12  1  0  0  0  0
  3  2  1  0  0  0  0
  3  9  1  0  0  0  0
  3  8  1  0  0  0  0
  4  3  1  0  0  0  0
  5  4  1  0  0  0  0
  5  1  1  0  0  0  0
 10  5  1  0  0  0  0
 11  5  1  0  0  0  0
 12 14  1  0  0  0  0
 14 13  2  1  0  0  0
 14 15  1  0  0  0  0
 15 16  1  0  0  0  0
 17 22  1  0  0  0  0
 17 14  1  0  0  0  0
 18 19  1  0  0  0  0
 19 20  2  0  0  0  0
 19 24  1  0  0  0  0
 20 25  1  0  0  0  0
 21 20  1  0  0  0  0
 22 21  2  0  0  0  0
 23 22  1  0  0  0  0
 23 18  2  0  0  0  0
 26 18  1  0  0  0  0
 27 26  1  0  0  0  0
 28  1  1  0  0  0  0
 30 29  1  0  0  0  0
 31 28  1  1  0  0  0
 31 30  1  0  0  0  0
 32 33  1  0  0  0  0
 32 31  1  0  0  0  0
 34 32  1  0  0  0  0
 34 35  1  0  0  0  0
 35 36  1  0  0  0  0
 36 30  1  0  0  0  0
M  END
>  <minimizedAffinity>
-5.27652073

$$$$
