
 OpenBabel03252503453D

 43 46  0  0  1  0  0  0  0  0999 V2000
   45.0600   34.8670   44.8540 C   0  0  0  0  0  0  0  0  0  0  0  0
   45.9760   34.6520   43.8230 C   0  0  0  0  0  0  0  0  0  0  0  0
   46.8440   33.5710   43.9740 C   0  0  0  0  0  0  0  0  0  0  0  0
   46.7990   32.7710   45.0650 N   0  0  0  0  0  0  0  0  0  0  0  0
   45.8930   33.0170   46.0420 C   0  0  0  0  0  0  0  0  0  0  0  0
   45.0200   34.0620   45.9440 N   0  0  0  0  0  0  0  0  0  0  0  0
   44.3480   35.6700   44.8380 H   0  0  0  0  0  0  0  0  0  0  0  0
   47.5970   33.3000   43.2790 H   0  0  0  0  0  0  0  0  0  0  0  0
   47.3220   31.8090   47.6780 C   0  0  2  0  0  0  0  0  0  0  0  0
   45.8750   32.1240   47.1970 C   0  0  1  0  0  0  0  0  0  0  0  0
   45.3790   32.6440   48.3430 O   0  0  0  0  0  0  0  0  0  0  0  0
   45.7470   31.8180   49.3690 C   0  0  0  0  0  0  0  0  0  0  0  0
   46.9320   30.9960   48.9220 C   0  0  2  0  0  0  0  0  0  0  0  0
   47.8410   31.1980   46.9410 H   0  0  0  0  0  0  0  0  0  0  0  0
   45.3710   31.1460   46.9810 H   0  0  0  0  0  0  0  0  0  0  0  0
   44.8750   31.1630   49.6560 H   0  0  0  0  0  0  0  0  0  0  0  0
   46.0340   32.3550   50.3050 H   0  0  0  0  0  0  0  0  0  0  0  0
   46.5910   29.9850   48.6760 H   0  0  0  0  0  0  0  0  0  0  0  0
   47.9310   32.9310   48.0960 O   0  0  0  0  0  0  0  0  0  0  0  0
   47.3000   33.6170   48.4110 H   0  0  0  0  0  0  0  0  0  0  0  0
   47.9430   30.9290   49.8500 O   0  0  0  0  0  0  0  0  0  0  0  0
   47.8940   31.7120   50.4820 H   0  0  0  0  0  0  0  0  0  0  0  0
   46.0080   35.5130   42.6620 C   0  0  0  0  0  0  0  0  0  0  0  0
   47.0260   35.4130   42.1960 H   0  0  0  0  0  0  0  0  0  0  0  0
   45.9030   36.5640   43.0000 H   0  0  0  0  0  0  0  0  0  0  0  0
   44.9710   35.1210   41.6990 C   0  0  0  0  0  0  0  0  0  0  0  0
   43.6680   35.5350   41.7030 C   0  0  0  0  0  0  0  0  0  0  0  0
   42.7490   35.1210   40.7700 C   0  0  0  0  0  0  0  0  0  0  0  0
   43.1550   34.2490   39.7890 C   0  0  0  0  0  0  0  0  0  0  0  0
   44.4780   33.8050   39.7560 C   0  0  0  0  0  0  0  0  0  0  0  0
   45.3930   34.2470   40.7190 C   0  0  0  0  0  0  0  0  0  0  0  0
   43.4360   36.2220   42.5140 H   0  0  0  0  0  0  0  0  0  0  0  0
   41.7730   35.5330   40.9070 H   0  0  0  0  0  0  0  0  0  0  0  0
   42.3810   33.9640   39.0900 H   0  0  0  0  0  0  0  0  0  0  0  0
   44.6240   33.1290   38.9240 H   0  0  0  0  0  0  0  0  0  0  0  0
   46.6490   33.6540   40.4200 N   0  0  0  0  0  0  0  0  0  0  0  0
   47.8250   34.3500   39.9270 C   0  0  0  0  0  3  0  0  0  0  0  0
   47.5530   35.3750   39.5740 H   0  0  0  0  0  0  0  0  0  0  0  0
   48.2490   33.5750   38.6830 C   0  0  0  0  0  3  0  0  0  0  0  0
   47.3110   33.4610   38.0700 H   0  0  0  0  0  0  0  0  0  0  0  0
   48.6700   32.3140   39.0220 O   0  0  0  0  0  0  0  0  0  0  0  0
   48.2830   31.9220   40.2800 C   0  0  0  0  0  2  0  0  0  0  0  0
   46.8310   32.2050   40.6050 C   0  0  0  0  0  2  0  0  0  0  0  0
  1  6  1  0  0  0  0
  2  3  1  0  0  0  0
  2  1  2  0  0  0  0
  3  4  2  0  0  0  0
  4  5  1  0  0  0  0
  5 10  1  0  0  0  0
  6  5  2  0  0  0  0
  7  1  1  0  0  0  0
  8  3  1  0  0  0  0
  9 14  1  6  0  0  0
  9 19  1  0  0  0  0
  9 13  1  0  0  0  0
 10 15  1  6  0  0  0
 10  9  1  0  0  0  0
 10 11  1  0  0  0  0
 11 12  1  0  0  0  0
 12 16  1  0  0  0  0
 12 17  1  0  0  0  0
 13 18  1  6  0  0  0
 13 12  1  0  0  0  0
 13 21  1  0  0  0  0
 19 20  1  0  0  0  0
 21 22  1  0  0  0  0
 23 25  1  0  0  0  0
 23  2  1  0  0  0  0
 24 23  1  0  0  0  0
 26 27  1  0  0  0  0
 26 23  1  0  0  0  0
 27 32  1  0  0  0  0
 28 33  1  0  0  0  0
 28 27  2  0  0  0  0
 29 28  1  0  0  0  0
 30 29  2  0  0  0  0
 30 31  1  0  0  0  0
 31 26  2  0  0  0  0
 34 29  1  0  0  0  0
 35 30  1  0  0  0  0
 36 43  1  0  0  0  0
 36 31  1  0  0  0  0
 37 36  1  0  0  0  0
 38 37  1  0  0  0  0
 39 41  1  0  0  0  0
 39 37  1  0  0  0  0
 40 39  1  0  0  0  0
 41 42  1  0  0  0  0
 42 43  1  0  0  0  0
M  END
>  <minimizedAffinity>
-6.92257166

>  <minimizedRMSD>
0.843855262

$$$$
