
 OpenBabel03252508433D

 30 32  0  0  0  0  0  0  0  0999 V2000
   37.3660   30.9840   38.5460 C   0  0  0  0  0  0  0  0  0  0  0  0
   36.6600   30.0600   39.3060 C   0  0  0  0  0  0  0  0  0  0  0  0
   35.9410   29.0730   38.6800 C   0  0  0  0  0  0  0  0  0  0  0  0
   35.9250   29.0110   37.3100 C   0  0  0  0  0  0  0  0  0  0  0  0
   36.6090   29.9070   36.5240 C   0  0  0  0  0  0  0  0  0  0  0  0
   37.3330   30.8990   37.1980 C   0  0  0  0  0  0  0  0  0  0  0  0
   35.3810   28.3270   39.2290 H   0  0  0  0  0  0  0  0  0  0  0  0
   35.3650   28.2430   36.8100 H   0  0  0  0  0  0  0  0  0  0  0  0
   36.6130   29.8750   35.4310 H   0  0  0  0  0  0  0  0  0  0  0  0
   37.8830   31.6230   36.5820 H   0  0  0  0  0  0  0  0  0  0  0  0
   38.3990   34.1600   40.3100 C   0  0  0  0  0  0  0  0  0  0  0  0
   37.5930   33.2420   39.6030 C   0  0  0  0  0  0  0  0  0  0  0  0
   38.0980   32.0000   39.2740 C   0  0  0  0  0  0  0  0  0  0  0  0
   39.3730   31.7420   39.6650 N   0  0  0  0  0  0  0  0  0  0  0  0
   40.1510   32.6050   40.3380 C   0  0  0  0  0  0  0  0  0  0  0  0
   39.6620   33.8240   40.6640 N   0  0  0  0  0  0  0  0  0  0  0  0
   37.9840   35.1130   40.5520 H   0  0  0  0  0  0  0  0  0  0  0  0
   36.6000   33.4900   39.3180 H   0  0  0  0  0  0  0  0  0  0  0  0
   41.1650   32.2940   40.6050 H   0  0  0  0  0  0  0  0  0  0  0  0
   36.7020   30.1280   40.7970 C   0  0  0  0  0  0  0  0  0  0  0  0
   35.6560   30.1350   41.1890 H   0  0  0  0  0  0  0  0  0  0  0  0
   37.1940   31.0870   41.0520 H   0  0  0  0  0  0  0  0  0  0  0  0
   37.4440   29.0560   41.3970 N   0  0  0  0  0  0  0  0  0  0  0  0
   38.2550   29.7140   42.4470 C   0  0  0  0  0  3  0  0  0  0  0  0
   37.5360   30.0880   43.1920 H   0  0  0  0  0  0  0  0  0  0  0  0
   39.1840   28.6500   42.9790 C   0  0  0  0  0  3  0  0  0  0  0  0
   40.0070   29.0950   43.5340 H   0  0  0  0  0  0  0  0  0  0  0  0
   38.4240   27.7300   43.6680 O   0  0  0  0  0  0  0  0  0  0  0  0
   37.0610   27.9090   43.5580 C   0  0  0  0  0  2  0  0  0  0  0  0
   36.5580   28.1760   42.1750 C   0  0  0  0  0  2  0  0  0  0  0  0
  1 13  1  0  0  0  0
  1  2  1  0  0  0  0
  2 20  1  0  0  0  0
  3  7  1  0  0  0  0
  3  2  2  0  0  0  0
  4  3  1  0  0  0  0
  5  6  1  0  0  0  0
  5  4  2  0  0  0  0
  6  1  2  0  0  0  0
  8  4  1  0  0  0  0
  9  5  1  0  0  0  0
 10  6  1  0  0  0  0
 11 17  1  0  0  0  0
 11 16  1  0  0  0  0
 12 11  2  0  0  0  0
 13 12  1  0  0  0  0
 13 14  2  0  0  0  0
 14 15  1  0  0  0  0
 15 19  1  0  0  0  0
 15 16  2  0  0  0  0
 18 12  1  0  0  0  0
 20 22  1  0  0  0  0
 20 21  1  0  0  0  0
 20 23  1  0  0  0  0
 23 30  1  0  0  0  0
 23 24  1  0  0  0  0
 24 26  1  0  0  0  0
 24 25  1  0  0  0  0
 26 27  1  0  0  0  0
 26 28  1  0  0  0  0
 29 28  1  0  0  0  0
 30 29  1  0  0  0  0
M  END
>  <minimizedAffinity>
-5.08412886

$$$$

 OpenBabel03252508433D

 30 32  0  0  0  0  0  0  0  0999 V2000
   36.9540   30.5720   38.5040 C   0  0  0  0  0  0  0  0  0  0  0  0
   36.2740   29.7610   39.4030 C   0  0  0  0  0  0  0  0  0  0  0  0
   35.4260   28.7880   38.9330 C   0  0  0  0  0  0  0  0  0  0  0  0
   35.2590   28.6310   37.5810 C   0  0  0  0  0  0  0  0  0  0  0  0
   35.9130   29.4140   36.6620 C   0  0  0  0  0  0  0  0  0  0  0  0
   36.7700   30.3950   37.1770 C   0  0  0  0  0  0  0  0  0  0  0  0
   34.8800   28.1280   39.5940 H   0  0  0  0  0  0  0  0  0  0  0  0
   34.5980   27.8740   37.2020 H   0  0  0  0  0  0  0  0  0  0  0  0
   35.7980   29.3050   35.5790 H   0  0  0  0  0  0  0  0  0  0  0  0
   37.3000   31.0290   36.4540 H   0  0  0  0  0  0  0  0  0  0  0  0
   39.9290   32.4470   39.8830 C   0  0  0  0  0  0  0  0  0  0  0  0
   39.1730   31.3970   39.3190 C   0  0  0  0  0  0  0  0  0  0  0  0
   37.8270   31.5800   39.0720 C   0  0  0  0  0  0  0  0  0  0  0  0
   37.3110   32.7920   39.3990 N   0  0  0  0  0  0  0  0  0  0  0  0
   38.0180   33.8000   39.9360 C   0  0  0  0  0  0  0  0  0  0  0  0
   39.3370   33.6280   40.1800 N   0  0  0  0  0  0  0  0  0  0  0  0
   40.9680   32.2800   40.0630 H   0  0  0  0  0  0  0  0  0  0  0  0
   39.6230   30.4650   39.0800 H   0  0  0  0  0  0  0  0  0  0  0  0
   37.5010   34.7380   40.1610 H   0  0  0  0  0  0  0  0  0  0  0  0
   36.4800   29.9310   40.8720 C   0  0  0  0  0  0  0  0  0  0  0  0
   35.4850   29.9250   41.3800 H   0  0  0  0  0  0  0  0  0  0  0  0
   36.9540   30.9230   41.0080 H   0  0  0  0  0  0  0  0  0  0  0  0
   37.3320   28.9300   41.4480 N   0  0  0  0  0  0  0  0  0  0  0  0
   38.1870   29.6800   42.3980 C   0  0  0  0  0  3  0  0  0  0  0  0
   37.5110   30.0460   43.1860 H   0  0  0  0  0  0  0  0  0  0  0  0
   39.2190   28.6950   42.8910 C   0  0  0  0  0  3  0  0  0  0  0  0
   40.0570   29.2110   43.3550 H   0  0  0  0  0  0  0  0  0  0  0  0
   38.5760   27.7660   43.6790 O   0  0  0  0  0  0  0  0  0  0  0  0
   37.1990   27.8630   43.6800 C   0  0  0  0  0  2  0  0  0  0  0  0
   36.5680   28.0390   42.3350 C   0  0  0  0  0  2  0  0  0  0  0  0
  1 13  1  0  0  0  0
  1  2  1  0  0  0  0
  2 20  1  0  0  0  0
  3  2  2  0  0  0  0
  3  7  1  0  0  0  0
  4  3  1  0  0  0  0
  5  6  1  0  0  0  0
  5  4  2  0  0  0  0
  6  1  2  0  0  0  0
  8  4  1  0  0  0  0
  9  5  1  0  0  0  0
 10  6  1  0  0  0  0
 11 17  1  0  0  0  0
 11 16  1  0  0  0  0
 12 11  2  0  0  0  0
 13 12  1  0  0  0  0
 13 14  2  0  0  0  0
 14 15  1  0  0  0  0
 15 19  1  0  0  0  0
 15 16  2  0  0  0  0
 18 12  1  0  0  0  0
 20 22  1  0  0  0  0
 20 21  1  0  0  0  0
 20 23  1  0  0  0  0
 23 30  1  0  0  0  0
 23 24  1  0  0  0  0
 24 26  1  0  0  0  0
 24 25  1  0  0  0  0
 26 27  1  0  0  0  0
 26 28  1  0  0  0  0
 28 29  1  0  0  0  0
 30 29  1  0  0  0  0
M  END
>  <minimizedAffinity>
-4.93516302

$$$$

 OpenBabel03252508433D

 30 32  0  0  0  0  0  0  0  0999 V2000
   37.5520   31.8050   39.7050 C   0  0  0  0  0  0  0  0  0  0  0  0
   38.7630   31.4140   40.2620 C   0  0  0  0  0  0  0  0  0  0  0  0
   39.6610   32.3680   40.6720 C   0  0  0  0  0  0  0  0  0  0  0  0
   39.3540   33.6960   40.5240 C   0  0  0  0  0  0  0  0  0  0  0  0
   38.1680   34.1210   39.9770 C   0  0  0  0  0  0  0  0  0  0  0  0
   37.2750   33.1200   39.5710 C   0  0  0  0  0  0  0  0  0  0  0  0
   40.6140   32.1130   41.1170 H   0  0  0  0  0  0  0  0  0  0  0  0
   40.0490   34.4510   40.8400 H   0  0  0  0  0  0  0  0  0  0  0  0
   37.9000   35.1740   39.8520 H   0  0  0  0  0  0  0  0  0  0  0  0
   36.3230   33.4460   39.1310 H   0  0  0  0  0  0  0  0  0  0  0  0
   35.6950   29.1790   37.7240 C   0  0  0  0  0  0  0  0  0  0  0  0
   36.6150   30.2070   38.0200 C   0  0  0  0  0  0  0  0  0  0  0  0
   36.6560   30.7440   39.2910 C   0  0  0  0  0  0  0  0  0  0  0  0
   35.7810   30.2300   40.1930 N   0  0  0  0  0  0  0  0  0  0  0  0
   34.9000   29.2530   39.9260 C   0  0  0  0  0  0  0  0  0  0  0  0
   34.8550   28.7220   38.6830 N   0  0  0  0  0  0  0  0  0  0  0  0
   35.6850   28.7810   36.7340 H   0  0  0  0  0  0  0  0  0  0  0  0
   37.2810   30.5770   37.2790 H   0  0  0  0  0  0  0  0  0  0  0  0
   34.2390   28.9120   40.7290 H   0  0  0  0  0  0  0  0  0  0  0  0
   39.0770   29.9650   40.4350 C   0  0  0  0  0  0  0  0  0  0  0  0
   40.1320   29.7820   40.1190 H   0  0  0  0  0  0  0  0  0  0  0  0
   38.3930   29.4150   39.7580 H   0  0  0  0  0  0  0  0  0  0  0  0
   38.8750   29.4930   41.7750 N   0  0  0  0  0  0  0  0  0  0  0  0
   38.1860   28.1930   41.6060 C   0  0  0  0  0  3  0  0  0  0  0  0
   38.9140   27.5280   41.1170 H   0  0  0  0  0  0  0  0  0  0  0  0
   37.7940   27.7490   42.9940 C   0  0  0  0  0  3  0  0  0  0  0  0
   37.0380   26.9690   42.9530 H   0  0  0  0  0  0  0  0  0  0  0  0
   38.9470   27.4310   43.6800 O   0  0  0  0  0  0  0  0  0  0  0  0
   40.1160   27.7460   43.0180 C   0  0  0  0  0  2  0  0  0  0  0  0
   40.1530   29.1040   42.3910 C   0  0  0  0  0  2  0  0  0  0  0  0
  1  2  1  0  0  0  0
  2 20  1  0  0  0  0
  2  3  2  0  0  0  0
  3  7  1  0  0  0  0
  4  3  1  0  0  0  0
  4  8  1  0  0  0  0
  5  4  2  0  0  0  0
  6  1  2  0  0  0  0
  6  5  1  0  0  0  0
  9  5  1  0  0  0  0
 10  6  1  0  0  0  0
 11 12  2  0  0  0  0
 11 16  1  0  0  0  0
 12 13  1  0  0  0  0
 13  1  1  0  0  0  0
 13 14  2  0  0  0  0
 15 14  1  0  0  0  0
 15 19  1  0  0  0  0
 16 15  2  0  0  0  0
 17 11  1  0  0  0  0
 18 12  1  0  0  0  0
 20 23  1  0  0  0  0
 21 20  1  0  0  0  0
 22 20  1  0  0  0  0
 23 30  1  0  0  0  0
 24 23  1  0  0  0  0
 24 26  1  0  0  0  0
 25 24  1  0  0  0  0
 26 28  1  0  0  0  0
 27 26  1  0  0  0  0
 29 28  1  0  0  0  0
 30 29  1  0  0  0  0
M  END
>  <minimizedAffinity>
-4.80073881

$$$$

 OpenBabel03252508433D

 30 32  0  0  0  0  0  0  0  0999 V2000
   36.7050   28.3890   41.1660 C   0  0  0  0  0  0  0  0  0  0  0  0
   37.3110   29.5170   41.7040 C   0  0  0  0  0  0  0  0  0  0  0  0
   37.9810   29.4230   42.8990 C   0  0  0  0  0  0  0  0  0  0  0  0
   38.0430   28.2180   43.5490 C   0  0  0  0  0  0  0  0  0  0  0  0
   37.4560   27.0800   43.0480 C   0  0  0  0  0  0  0  0  0  0  0  0
   36.7820   27.2130   41.8270 C   0  0  0  0  0  0  0  0  0  0  0  0
   38.4740   30.2720   43.3540 H   0  0  0  0  0  0  0  0  0  0  0  0
   38.5630   28.1330   44.4840 H   0  0  0  0  0  0  0  0  0  0  0  0
   37.4940   26.1080   43.5470 H   0  0  0  0  0  0  0  0  0  0  0  0
   36.3070   26.3130   41.4160 H   0  0  0  0  0  0  0  0  0  0  0  0
   34.1210   29.1010   38.5050 C   0  0  0  0  0  0  0  0  0  0  0  0
   34.6990   28.9710   39.7860 C   0  0  0  0  0  0  0  0  0  0  0  0
   36.0120   28.5630   39.9050 C   0  0  0  0  0  0  0  0  0  0  0  0
   36.6750   28.3080   38.7470 N   0  0  0  0  0  0  0  0  0  0  0  0
   36.1380   28.4270   37.5220 C   0  0  0  0  0  0  0  0  0  0  0  0
   34.8510   28.8270   37.3980 N   0  0  0  0  0  0  0  0  0  0  0  0
   33.1040   29.4190   38.4410 H   0  0  0  0  0  0  0  0  0  0  0  0
   34.1400   29.1830   40.6630 H   0  0  0  0  0  0  0  0  0  0  0  0
   36.7620   28.1960   36.6540 H   0  0  0  0  0  0  0  0  0  0  0  0
   37.2530   30.8200   40.9760 C   0  0  0  0  0  0  0  0  0  0  0  0
   36.8770   31.6070   41.6730 H   0  0  0  0  0  0  0  0  0  0  0  0
   36.5250   30.6840   40.1520 H   0  0  0  0  0  0  0  0  0  0  0  0
   38.5130   31.2180   40.4170 N   0  0  0  0  0  0  0  0  0  0  0  0
   38.1910   31.5930   39.0210 C   0  0  0  0  0  3  0  0  0  0  0  0
   37.5520   32.4870   39.0890 H   0  0  0  0  0  0  0  0  0  0  0  0
   39.5170   31.8450   38.3440 C   0  0  0  0  0  3  0  0  0  0  0  0
   39.4090   31.8370   37.2630 H   0  0  0  0  0  0  0  0  0  0  0  0
   40.0580   32.9920   38.8850 O   0  0  0  0  0  0  0  0  0  0  0  0
   39.3710   33.4980   39.9700 C   0  0  0  0  0  2  0  0  0  0  0  0
   38.9650   32.4910   40.9990 C   0  0  0  0  0  2  0  0  0  0  0  0
  1  2  2  0  0  0  0
  1  6  1  0  0  0  0
  2  3  1  0  0  0  0
  3  7  1  0  0  0  0
  3  4  2  0  0  0  0
  4  8  1  0  0  0  0
  5  9  1  0  0  0  0
  5  4  1  0  0  0  0
  6  5  2  0  0  0  0
 10  6  1  0  0  0  0
 11 12  1  0  0  0  0
 12 13  2  0  0  0  0
 12 18  1  0  0  0  0
 13  1  1  0  0  0  0
 14 13  1  0  0  0  0
 15 14  2  0  0  0  0
 16 15  1  0  0  0  0
 16 11  2  0  0  0  0
 17 11  1  0  0  0  0
 19 15  1  0  0  0  0
 20 21  1  0  0  0  0
 20  2  1  0  0  0  0
 22 20  1  0  0  0  0
 23 20  1  0  0  0  0
 23 30  1  0  0  0  0
 24 25  1  0  0  0  0
 24 23  1  0  0  0  0
 26 28  1  0  0  0  0
 26 24  1  0  0  0  0
 27 26  1  0  0  0  0
 28 29  1  0  0  0  0
 29 30  1  0  0  0  0
M  END
>  <minimizedAffinity>
-4.79928827

$$$$

 OpenBabel03252508433D

 30 32  0  0  0  0  0  0  0  0999 V2000
   37.5600   28.1180   40.9590 C   0  0  0  0  0  0  0  0  0  0  0  0
   38.1320   29.2150   41.5900 C   0  0  0  0  0  0  0  0  0  0  0  0
   38.0400   29.3390   42.9540 C   0  0  0  0  0  0  0  0  0  0  0  0
   37.3820   28.3790   43.6790 C   0  0  0  0  0  0  0  0  0  0  0  0
   36.8020   27.2800   43.0910 C   0  0  0  0  0  0  0  0  0  0  0  0
   36.9170   27.1870   41.6980 C   0  0  0  0  0  0  0  0  0  0  0  0
   38.4760   30.1710   43.4910 H   0  0  0  0  0  0  0  0  0  0  0  0
   37.3030   28.4650   44.7460 H   0  0  0  0  0  0  0  0  0  0  0  0
   36.2750   26.5010   43.6480 H   0  0  0  0  0  0  0  0  0  0  0  0
   36.4580   26.3150   41.2140 H   0  0  0  0  0  0  0  0  0  0  0  0
   38.7840   27.4760   37.4440 C   0  0  0  0  0  0  0  0  0  0  0  0
   38.7530   27.4730   38.8550 C   0  0  0  0  0  0  0  0  0  0  0  0
   37.6920   28.0560   39.5170 C   0  0  0  0  0  0  0  0  0  0  0  0
   36.7240   28.6080   38.7420 N   0  0  0  0  0  0  0  0  0  0  0  0
   36.7400   28.6190   37.3990 C   0  0  0  0  0  0  0  0  0  0  0  0
   37.7760   28.0480   36.7440 N   0  0  0  0  0  0  0  0  0  0  0  0
   39.6150   27.0170   36.9570 H   0  0  0  0  0  0  0  0  0  0  0  0
   39.5360   27.0280   39.4190 H   0  0  0  0  0  0  0  0  0  0  0  0
   35.9060   29.0920   36.8720 H   0  0  0  0  0  0  0  0  0  0  0  0
   38.8630   30.2430   40.7910 C   0  0  0  0  0  0  0  0  0  0  0  0
   38.8060   29.9690   39.7100 H   0  0  0  0  0  0  0  0  0  0  0  0
   39.9190   30.2040   41.1230 H   0  0  0  0  0  0  0  0  0  0  0  0
   38.3680   31.5760   40.9880 N   0  0  0  0  0  0  0  0  0  0  0  0
   39.3850   32.4420   40.3480 C   0  0  0  0  0  3  0  0  0  0  0  0
   39.3380   32.2170   39.2720 H   0  0  0  0  0  0  0  0  0  0  0  0
   38.9950   33.8600   40.6910 C   0  0  0  0  0  3  0  0  0  0  0  0
   39.8250   34.5420   40.5230 H   0  0  0  0  0  0  0  0  0  0  0  0
   37.8300   34.1540   40.0160 O   0  0  0  0  0  0  0  0  0  0  0  0
   37.2520   33.0810   39.3680 C   0  0  0  0  0  2  0  0  0  0  0  0
   37.1730   31.8180   40.1650 C   0  0  0  0  0  2  0  0  0  0  0  0
  1  2  2  0  0  0  0
  1  6  1  0  0  0  0
  2  3  1  0  0  0  0
  3  7  1  0  0  0  0
  3  4  2  0  0  0  0
  4  8  1  0  0  0  0
  5  9  1  0  0  0  0
  5  4  1  0  0  0  0
  6  5  2  0  0  0  0
 10  6  1  0  0  0  0
 11 12  1  0  0  0  0
 12 18  1  0  0  0  0
 12 13  2  0  0  0  0
 13  1  1  0  0  0  0
 14 13  1  0  0  0  0
 15 14  2  0  0  0  0
 16 15  1  0  0  0  0
 16 11  2  0  0  0  0
 17 11  1  0  0  0  0
 19 15  1  0  0  0  0
 20 23  1  0  0  0  0
 20 22  1  0  0  0  0
 20  2  1  0  0  0  0
 21 20  1  0  0  0  0
 24 26  1  0  0  0  0
 24 23  1  0  0  0  0
 25 24  1  0  0  0  0
 27 26  1  0  0  0  0
 28 26  1  0  0  0  0
 29 28  1  0  0  0  0
 29 30  1  0  0  0  0
 30 23  1  0  0  0  0
M  END
>  <minimizedAffinity>
-4.73470736

$$$$

 OpenBabel03252508433D

 30 32  0  0  0  0  0  0  0  0999 V2000
   35.9060   28.3910   40.1370 C   0  0  0  0  0  0  0  0  0  0  0  0
   36.3630   27.4460   39.2270 C   0  0  0  0  0  0  0  0  0  0  0  0
   35.6660   27.2300   38.0640 C   0  0  0  0  0  0  0  0  0  0  0  0
   34.5250   27.9480   37.8150 C   0  0  0  0  0  0  0  0  0  0  0  0
   34.0410   28.8900   38.6900 C   0  0  0  0  0  0  0  0  0  0  0  0
   34.7790   29.0840   39.8650 C   0  0  0  0  0  0  0  0  0  0  0  0
   35.9860   26.5090   37.3230 H   0  0  0  0  0  0  0  0  0  0  0  0
   33.9710   27.7870   36.9090 H   0  0  0  0  0  0  0  0  0  0  0  0
   33.1360   29.4770   38.5110 H   0  0  0  0  0  0  0  0  0  0  0  0
   34.4040   29.8340   40.5740 H   0  0  0  0  0  0  0  0  0  0  0  0
   37.3050   28.1110   43.6340 C   0  0  0  0  0  0  0  0  0  0  0  0
   36.4850   27.8580   42.5140 C   0  0  0  0  0  0  0  0  0  0  0  0
   36.6900   28.5620   41.3440 C   0  0  0  0  0  0  0  0  0  0  0  0
   37.6950   29.4750   41.3540 N   0  0  0  0  0  0  0  0  0  0  0  0
   38.4820   29.7260   42.4120 C   0  0  0  0  0  0  0  0  0  0  0  0
   38.2880   29.0400   43.5620 N   0  0  0  0  0  0  0  0  0  0  0  0
   37.1260   27.5530   44.5260 H   0  0  0  0  0  0  0  0  0  0  0  0
   35.7100   27.1330   42.5540 H   0  0  0  0  0  0  0  0  0  0  0  0
   39.2650   30.4840   42.3120 H   0  0  0  0  0  0  0  0  0  0  0  0
   37.6170   26.6840   39.5030 C   0  0  0  0  0  0  0  0  0  0  0  0
   38.0060   26.9770   40.5080 H   0  0  0  0  0  0  0  0  0  0  0  0
   38.3460   26.9910   38.7260 H   0  0  0  0  0  0  0  0  0  0  0  0
   37.4470   25.2610   39.4360 N   0  0  0  0  0  0  0  0  0  0  0  0
   38.8220   24.7220   39.5400 C   0  0  0  0  0  3  0  0  0  0  0  0
   39.1690   24.9760   40.5530 H   0  0  0  0  0  0  0  0  0  0  0  0
   38.7050   23.2370   39.2920 C   0  0  0  0  0  3  0  0  0  0  0  0
   39.6740   22.8050   39.0570 H   0  0  0  0  0  0  0  0  0  0  0  0
   38.0430   22.6790   40.3640 O   0  0  0  0  0  0  0  0  0  0  0  0
   37.5310   23.5920   41.2640 C   0  0  0  0  0  2  0  0  0  0  0  0
   36.8070   24.7520   40.6590 C   0  0  0  0  0  2  0  0  0  0  0  0
  1 13  1  0  0  0  0
  2 20  1  0  0  0  0
  2  1  2  0  0  0  0
  3  2  1  0  0  0  0
  4  3  2  0  0  0  0
  4  5  1  0  0  0  0
  5  6  2  0  0  0  0
  6  1  1  0  0  0  0
  6 10  1  0  0  0  0
  7  3  1  0  0  0  0
  8  4  1  0  0  0  0
  9  5  1  0  0  0  0
 11 17  1  0  0  0  0
 12 18  1  0  0  0  0
 12 11  2  0  0  0  0
 13 14  2  0  0  0  0
 13 12  1  0  0  0  0
 14 15  1  0  0  0  0
 15 16  2  0  0  0  0
 16 11  1  0  0  0  0
 19 15  1  0  0  0  0
 20 21  1  0  0  0  0
 22 20  1  0  0  0  0
 23 20  1  0  0  0  0
 23 24  1  0  0  0  0
 23 30  1  0  0  0  0
 24 25  1  0  0  0  0
 26 24  1  0  0  0  0
 26 28  1  0  0  0  0
 27 26  1  0  0  0  0
 28 29  1  0  0  0  0
 30 29  1  0  0  0  0
M  END
>  <minimizedAffinity>
-4.66782618

$$$$

 OpenBabel03252508433D

 30 32  0  0  0  0  0  0  0  0999 V2000
   36.8000   28.5780   40.0350 C   0  0  0  0  0  0  0  0  0  0  0  0
   36.9490   29.9190   39.7040 C   0  0  0  0  0  0  0  0  0  0  0  0
   36.4660   30.3810   38.5050 C   0  0  0  0  0  0  0  0  0  0  0  0
   35.8430   29.5120   37.6460 C   0  0  0  0  0  0  0  0  0  0  0  0
   35.6780   28.1800   37.9370 C   0  0  0  0  0  0  0  0  0  0  0  0
   36.1820   27.7450   39.1690 C   0  0  0  0  0  0  0  0  0  0  0  0
   36.5520   31.4170   38.2070 H   0  0  0  0  0  0  0  0  0  0  0  0
   35.4620   29.8620   36.7050 H   0  0  0  0  0  0  0  0  0  0  0  0
   35.1820   27.4700   37.2690 H   0  0  0  0  0  0  0  0  0  0  0  0
   36.0580   26.6820   39.4150 H   0  0  0  0  0  0  0  0  0  0  0  0
   37.2310   27.6490   43.6710 C   0  0  0  0  0  0  0  0  0  0  0  0
   36.6010   28.0600   42.4760 C   0  0  0  0  0  0  0  0  0  0  0  0
   37.3390   28.1610   41.3140 C   0  0  0  0  0  0  0  0  0  0  0  0
   38.6570   27.8490   41.4040 N   0  0  0  0  0  0  0  0  0  0  0  0
   39.2700   27.4570   42.5330 C   0  0  0  0  0  0  0  0  0  0  0  0
   38.5530   27.3560   43.6760 N   0  0  0  0  0  0  0  0  0  0  0  0
   36.6380   27.5790   44.5550 H   0  0  0  0  0  0  0  0  0  0  0  0
   35.5650   28.2940   42.4550 H   0  0  0  0  0  0  0  0  0  0  0  0
   40.3390   27.2300   42.4940 H   0  0  0  0  0  0  0  0  0  0  0  0
   37.6120   30.8570   40.6580 C   0  0  0  0  0  0  0  0  0  0  0  0
   37.9980   30.2760   41.5290 H   0  0  0  0  0  0  0  0  0  0  0  0
   36.8260   31.5570   41.0050 H   0  0  0  0  0  0  0  0  0  0  0  0
   38.6750   31.6170   40.0640 N   0  0  0  0  0  0  0  0  0  0  0  0
   38.6060   32.9330   40.7400 C   0  0  0  0  0  3  0  0  0  0  0  0
   38.8700   32.7450   41.7920 H   0  0  0  0  0  0  0  0  0  0  0  0
   39.5900   33.8220   40.0170 C   0  0  0  0  0  3  0  0  0  0  0  0
   39.4030   34.8690   40.2400 H   0  0  0  0  0  0  0  0  0  0  0  0
   40.8590   33.3650   40.2970 O   0  0  0  0  0  0  0  0  0  0  0  0
   40.9040   32.1730   40.9900 C   0  0  0  0  0  2  0  0  0  0  0  0
   39.9870   31.1030   40.4870 C   0  0  0  0  0  2  0  0  0  0  0  0
  1 13  1  0  0  0  0
  2  1  1  0  0  0  0
  2 20  1  0  0  0  0
  3  2  2  0  0  0  0
  4  5  2  0  0  0  0
  4  3  1  0  0  0  0
  5  6  1  0  0  0  0
  6 10  1  0  0  0  0
  6  1  2  0  0  0  0
  7  3  1  0  0  0  0
  8  4  1  0  0  0  0
  9  5  1  0  0  0  0
 11 16  1  0  0  0  0
 11 17  1  0  0  0  0
 12 11  2  0  0  0  0
 13 14  2  0  0  0  0
 13 12  1  0  0  0  0
 14 15  1  0  0  0  0
 15 16  2  0  0  0  0
 18 12  1  0  0  0  0
 19 15  1  0  0  0  0
 20 22  1  0  0  0  0
 20 21  1  0  0  0  0
 23 30  1  0  0  0  0
 23 20  1  0  0  0  0
 23 24  1  0  0  0  0
 24 25  1  0  0  0  0
 26 27  1  0  0  0  0
 26 28  1  0  0  0  0
 26 24  1  0  0  0  0
 28 29  1  0  0  0  0
 30 29  1  0  0  0  0
M  END
>  <minimizedAffinity>
-4.64650011

$$$$

 OpenBabel03252508433D

 30 32  0  0  0  0  0  0  0  0999 V2000
   36.5340   30.2880   38.8050 C   0  0  0  0  0  0  0  0  0  0  0  0
   36.6050   30.3050   40.1920 C   0  0  0  0  0  0  0  0  0  0  0  0
   37.0550   31.4310   40.8360 C   0  0  0  0  0  0  0  0  0  0  0  0
   37.4300   32.5270   40.1020 C   0  0  0  0  0  0  0  0  0  0  0  0
   37.3730   32.5480   38.7300 C   0  0  0  0  0  0  0  0  0  0  0  0
   36.9090   31.3820   38.1070 C   0  0  0  0  0  0  0  0  0  0  0  0
   37.1220   31.4930   41.9140 H   0  0  0  0  0  0  0  0  0  0  0  0
   37.7830   33.4130   40.5950 H   0  0  0  0  0  0  0  0  0  0  0  0
   37.6640   33.4110   38.1240 H   0  0  0  0  0  0  0  0  0  0  0  0
   36.8600   31.3850   37.0110 H   0  0  0  0  0  0  0  0  0  0  0  0
   34.3690   27.5230   37.4140 C   0  0  0  0  0  0  0  0  0  0  0  0
   34.7230   28.7500   38.0150 C   0  0  0  0  0  0  0  0  0  0  0  0
   36.0550   29.0640   38.1950 C   0  0  0  0  0  0  0  0  0  0  0  0
   36.9570   28.1440   37.7680 N   0  0  0  0  0  0  0  0  0  0  0  0
   36.6350   26.9730   37.1940 C   0  0  0  0  0  0  0  0  0  0  0  0
   35.3320   26.6590   37.0150 N   0  0  0  0  0  0  0  0  0  0  0  0
   33.3320   27.3050   37.2860 H   0  0  0  0  0  0  0  0  0  0  0  0
   33.9800   29.4390   38.3330 H   0  0  0  0  0  0  0  0  0  0  0  0
   37.4440   26.3030   36.8860 H   0  0  0  0  0  0  0  0  0  0  0  0
   36.1760   29.1110   40.9800 C   0  0  0  0  0  0  0  0  0  0  0  0
   35.4680   28.5060   40.3650 H   0  0  0  0  0  0  0  0  0  0  0  0
   35.6450   29.5000   41.8710 H   0  0  0  0  0  0  0  0  0  0  0  0
   37.2710   28.2930   41.4180 N   0  0  0  0  0  0  0  0  0  0  0  0
   37.1850   28.3260   42.8960 C   0  0  0  0  0  3  0  0  0  0  0  0
   36.2480   27.8080   43.1550 H   0  0  0  0  0  0  0  0  0  0  0  0
   38.4250   27.6270   43.3990 C   0  0  0  0  0  3  0  0  0  0  0  0
   38.6010   27.8550   44.4470 H   0  0  0  0  0  0  0  0  0  0  0  0
   38.3140   26.2890   43.0860 O   0  0  0  0  0  0  0  0  0  0  0  0
   37.2360   25.9720   42.2840 C   0  0  0  0  0  2  0  0  0  0  0  0
   37.0210   26.8760   41.1110 C   0  0  0  0  0  2  0  0  0  0  0  0
  1  2  1  0  0  0  0
  2  3  2  0  0  0  0
  2 20  1  0  0  0  0
  3  7  1  0  0  0  0
  4  8  1  0  0  0  0
  4  3  1  0  0  0  0
  5  4  2  0  0  0  0
  6  5  1  0  0  0  0
  6  1  2  0  0  0  0
  9  5  1  0  0  0  0
 10  6  1  0  0  0  0
 11 12  1  0  0  0  0
 12 13  2  0  0  0  0
 12 18  1  0  0  0  0
 13  1  1  0  0  0  0
 14 13  1  0  0  0  0
 15 14  2  0  0  0  0
 16 15  1  0  0  0  0
 16 11  2  0  0  0  0
 17 11  1  0  0  0  0
 19 15  1  0  0  0  0
 20 23  1  0  0  0  0
 20 22  1  0  0  0  0
 21 20  1  0  0  0  0
 23 24  1  0  0  0  0
 24 25  1  0  0  0  0
 24 26  1  0  0  0  0
 26 27  1  0  0  0  0
 28 26  1  0  0  0  0
 29 28  1  0  0  0  0
 30 23  1  0  0  0  0
 30 29  1  0  0  0  0
M  END
>  <minimizedAffinity>
-4.63301086

$$$$

 OpenBabel03252508433D

 30 32  0  0  0  0  0  0  0  0999 V2000
   36.4680   29.6920   38.0980 C   0  0  0  0  0  0  0  0  0  0  0  0
   35.9880   29.5430   39.3930 C   0  0  0  0  0  0  0  0  0  0  0  0
   34.6950   29.1290   39.5950 C   0  0  0  0  0  0  0  0  0  0  0  0
   33.8900   28.8690   38.5160 C   0  0  0  0  0  0  0  0  0  0  0  0
   34.3280   29.0060   37.2210 C   0  0  0  0  0  0  0  0  0  0  0  0
   35.6530   29.4290   37.0530 C   0  0  0  0  0  0  0  0  0  0  0  0
   34.2790   28.9920   40.5850 H   0  0  0  0  0  0  0  0  0  0  0  0
   32.8770   28.5450   38.6620 H   0  0  0  0  0  0  0  0  0  0  0  0
   33.7060   28.8020   36.3450 H   0  0  0  0  0  0  0  0  0  0  0  0
   36.0160   29.5440   36.0230 H   0  0  0  0  0  0  0  0  0  0  0  0
   39.5940   31.7790   37.7250 C   0  0  0  0  0  0  0  0  0  0  0  0
   38.2270   31.4590   37.8630 C   0  0  0  0  0  0  0  0  0  0  0  0
   37.8400   30.1370   37.9610 C   0  0  0  0  0  0  0  0  0  0  0  0
   38.8330   29.2110   37.9170 N   0  0  0  0  0  0  0  0  0  0  0  0
   40.1370   29.5010   37.7860 C   0  0  0  0  0  0  0  0  0  0  0  0
   40.5230   30.7940   37.6890 N   0  0  0  0  0  0  0  0  0  0  0  0
   39.8660   32.8080   37.6510 H   0  0  0  0  0  0  0  0  0  0  0  0
   37.4860   32.2190   37.8920 H   0  0  0  0  0  0  0  0  0  0  0  0
   40.8550   28.6760   37.7610 H   0  0  0  0  0  0  0  0  0  0  0  0
   36.8820   29.8110   40.5590 C   0  0  0  0  0  0  0  0  0  0  0  0
   36.6120   30.8000   41.0030 H   0  0  0  0  0  0  0  0  0  0  0  0
   37.9130   29.8600   40.1570 H   0  0  0  0  0  0  0  0  0  0  0  0
   36.8280   28.7890   41.5660 N   0  0  0  0  0  0  0  0  0  0  0  0
   37.6930   27.7090   41.0380 C   0  0  0  0  0  3  0  0  0  0  0  0
   38.7140   28.1210   41.0260 H   0  0  0  0  0  0  0  0  0  0  0  0
   37.5190   26.5430   41.9810 C   0  0  0  0  0  3  0  0  0  0  0  0
   37.8740   25.6210   41.5260 H   0  0  0  0  0  0  0  0  0  0  0  0
   38.0990   26.8800   43.1850 O   0  0  0  0  0  0  0  0  0  0  0  0
   38.5170   28.1920   43.2760 C   0  0  0  0  0  2  0  0  0  0  0  0
   37.5420   29.2130   42.7800 C   0  0  0  0  0  2  0  0  0  0  0  0
  1  2  1  0  0  0  0
  2  3  2  0  0  0  0
  2 20  1  0  0  0  0
  3  7  1  0  0  0  0
  4  8  1  0  0  0  0
  4  3  1  0  0  0  0
  5  4  2  0  0  0  0
  6  5  1  0  0  0  0
  6  1  2  0  0  0  0
  9  5  1  0  0  0  0
 10  6  1  0  0  0  0
 11 12  1  0  0  0  0
 12 18  1  0  0  0  0
 12 13  2  0  0  0  0
 13  1  1  0  0  0  0
 14 13  1  0  0  0  0
 15 14  2  0  0  0  0
 16 11  2  0  0  0  0
 16 15  1  0  0  0  0
 17 11  1  0  0  0  0
 19 15  1  0  0  0  0
 20 21  1  0  0  0  0
 20 23  1  0  0  0  0
 22 20  1  0  0  0  0
 23 30  1  0  0  0  0
 24 23  1  0  0  0  0
 24 26  1  0  0  0  0
 25 24  1  0  0  0  0
 26 28  1  0  0  0  0
 27 26  1  0  0  0  0
 28 29  1  0  0  0  0
 30 29  1  0  0  0  0
M  END
>  <minimizedAffinity>
-4.61032391

$$$$
