
 OpenBabel03252508433D

 30 32  0  0  0  0  0  0  0  0999 V2000
   46.6580   32.9750   43.4020 C   0  0  0  0  0  0  0  0  0  0  0  0
   47.1300   32.2460   44.4860 C   0  0  0  0  0  0  0  0  0  0  0  0
   47.7890   31.0600   44.2730 C   0  0  0  0  0  0  0  0  0  0  0  0
   47.9710   30.6080   42.9910 C   0  0  0  0  0  0  0  0  0  0  0  0
   47.5180   31.3000   41.8940 C   0  0  0  0  0  0  0  0  0  0  0  0
   46.8520   32.5060   42.1500 C   0  0  0  0  0  0  0  0  0  0  0  0
   48.1800   30.4610   45.0840 H   0  0  0  0  0  0  0  0  0  0  0  0
   48.4840   29.6820   42.8120 H   0  0  0  0  0  0  0  0  0  0  0  0
   47.6550   30.9610   40.8630 H   0  0  0  0  0  0  0  0  0  0  0  0
   46.4840   33.0690   41.2830 H   0  0  0  0  0  0  0  0  0  0  0  0
   45.2810   36.4900   43.2910 C   0  0  0  0  0  0  0  0  0  0  0  0
   45.9840   35.3320   42.8960 C   0  0  0  0  0  0  0  0  0  0  0  0
   45.9680   34.2130   43.7040 C   0  0  0  0  0  0  0  0  0  0  0  0
   45.2570   34.3090   44.8570 N   0  0  0  0  0  0  0  0  0  0  0  0
   44.5840   35.4030   45.2460 C   0  0  0  0  0  0  0  0  0  0  0  0
   44.5950   36.5030   44.4590 N   0  0  0  0  0  0  0  0  0  0  0  0
   45.3080   37.3420   42.6480 H   0  0  0  0  0  0  0  0  0  0  0  0
   46.5260   35.3060   41.9830 H   0  0  0  0  0  0  0  0  0  0  0  0
   44.0430   35.3720   46.1970 H   0  0  0  0  0  0  0  0  0  0  0  0
   46.9410   32.7590   45.8760 C   0  0  0  0  0  0  0  0  0  0  0  0
   46.0320   33.4070   45.9020 H   0  0  0  0  0  0  0  0  0  0  0  0
   47.8340   33.3730   46.1050 H   0  0  0  0  0  0  0  0  0  0  0  0
   46.8320   31.7190   46.8580 N   0  0  0  0  0  0  0  0  0  0  0  0
   47.5730   32.2420   48.0300 C   0  0  0  0  0  3  0  0  0  0  0  0
   46.9960   33.1100   48.3870 H   0  0  0  0  0  0  0  0  0  0  0  0
   47.6380   31.1060   49.0210 C   0  0  0  0  0  3  0  0  0  0  0  0
   48.4020   31.2900   49.7720 H   0  0  0  0  0  0  0  0  0  0  0  0
   46.3640   30.8870   49.4990 O   0  0  0  0  0  0  0  0  0  0  0  0
   45.3770   31.6070   48.8580 C   0  0  0  0  0  2  0  0  0  0  0  0
   45.4550   31.6180   47.3650 C   0  0  0  0  0  2  0  0  0  0  0  0
  1 13  1  0  0  0  0
  1  2  1  0  0  0  0
  2 20  1  0  0  0  0
  3  2  2  0  0  0  0
  3  7  1  0  0  0  0
  4  3  1  0  0  0  0
  5  6  1  0  0  0  0
  5  4  2  0  0  0  0
  6  1  2  0  0  0  0
  8  4  1  0  0  0  0
  9  5  1  0  0  0  0
 10  6  1  0  0  0  0
 11 16  1  0  0  0  0
 12 11  2  0  0  0  0
 12 13  1  0  0  0  0
 13 14  2  0  0  0  0
 14 15  1  0  0  0  0
 15 19  1  0  0  0  0
 16 15  2  0  0  0  0
 17 11  1  0  0  0  0
 18 12  1  0  0  0  0
 20 21  1  0  0  0  0
 20 22  1  0  0  0  0
 20 23  1  0  0  0  0
 23 30  1  0  0  0  0
 23 24  1  0  0  0  0
 24 25  1  0  0  0  0
 24 26  1  0  0  0  0
 26 28  1  0  0  0  0
 26 27  1  0  0  0  0
 29 28  1  0  0  0  0
 30 29  1  0  0  0  0
M  END
>  <minimizedAffinity>
-4.85046291

>  <minimizedRMSD>
5.64986706

$$$$
