
 OpenBabel03242518183D

 22 23  0  0  0  0  0  0  0  0999 V2000
   39.5790   31.1210   38.9400 C   0  0  0  0  0  0  0  0  0  0  0  0
   38.8770   31.8210   37.9400 C   0  0  0  0  0  0  0  0  0  0  0  0
   37.5240   31.9890   38.1500 C   0  0  0  0  0  0  0  0  0  0  0  0
   36.9500   31.5020   39.2550 N   0  0  0  0  0  0  0  0  0  0  0  0
   37.6500   30.8330   40.2010 C   0  0  0  0  0  0  0  0  0  0  0  0
   38.9730   30.6440   40.0360 N   0  0  0  0  0  0  0  0  0  0  0  0
   40.6440   30.9460   38.8500 H   0  0  0  0  0  0  0  0  0  0  0  0
   37.0240   32.5240   37.3720 H   0  0  0  0  0  0  0  0  0  0  0  0
   39.6560   32.2610   36.8420 N   0  0  0  0  0  0  0  0  0  0  0  0
   39.6110   31.6130   36.0230 H   0  0  0  0  0  0  0  0  0  0  0  0
   40.2620   33.1010   36.6950 H   0  0  0  0  0  0  0  0  0  0  0  0
   37.0240   30.2870   41.4300 C   0  0  0  0  0  0  0  0  0  0  0  0
   37.0650   31.0430   42.2350 H   0  0  0  0  0  0  0  0  0  0  0  0
   35.9500   30.0880   41.2360 H   0  0  0  0  0  0  0  0  0  0  0  0
   37.5900   29.0150   41.8370 N   0  0  0  0  0  0  0  0  0  0  0  0
   36.5210   28.0100   41.8720 C   0  0  0  0  0  3  0  0  0  0  0  0
   36.2780   27.7760   40.8150 H   0  0  0  0  0  0  0  0  0  0  0  0
   36.9340   26.7860   42.6500 C   0  0  0  0  0  3  0  0  0  0  0  0
   36.6280   25.9030   42.0340 H   0  0  0  0  0  0  0  0  0  0  0  0
   38.3030   26.6790   42.7960 O   0  0  0  0  0  0  0  0  0  0  0  0
   38.8970   27.7740   43.3920 C   0  0  0  0  0  2  0  0  0  0  0  0
   38.0940   29.0500   43.2090 C   0  0  0  0  0  2  0  0  0  0  0  0
  1  6  1  0  0  0  0
  2  3  1  0  0  0  0
  2  1  2  0  0  0  0
  3  4  2  0  0  0  0
  4  5  1  0  0  0  0
  5 12  1  0  0  0  0
  6  5  2  0  0  0  0
  7  1  1  0  0  0  0
  8  3  1  0  0  0  0
  9  2  1  0  0  0  0
 10  9  1  0  0  0  0
 11  9  1  0  0  0  0
 12 15  1  0  0  0  0
 12 13  1  0  0  0  0
 14 12  1  0  0  0  0
 15 16  1  0  0  0  0
 15 22  1  0  0  0  0
 16 18  1  0  0  0  0
 17 16  1  0  0  0  0
 18 20  1  0  0  0  0
 19 18  1  0  0  0  0
 20 21  1  0  0  0  0
 22 21  1  0  0  0  0
M  END
>  <minimizedAffinity>
-4.28346872

$$$$

 OpenBabel03242518183D

 22 23  0  0  0  0  0  0  0  0999 V2000
   37.7320   31.6030   37.6960 C   0  0  0  0  0  0  0  0  0  0  0  0
   39.0780   31.9280   37.9500 C   0  0  0  0  0  0  0  0  0  0  0  0
   39.4790   31.8710   39.2690 C   0  0  0  0  0  0  0  0  0  0  0  0
   38.6080   31.5210   40.2220 N   0  0  0  0  0  0  0  0  0  0  0  0
   37.3190   31.2130   39.9470 C   0  0  0  0  0  0  0  0  0  0  0  0
   36.8840   31.2570   38.6740 N   0  0  0  0  0  0  0  0  0  0  0  0
   37.3380   31.6250   36.6870 H   0  0  0  0  0  0  0  0  0  0  0  0
   40.5050   32.1230   39.4260 H   0  0  0  0  0  0  0  0  0  0  0  0
   39.8480   32.2740   36.8130 N   0  0  0  0  0  0  0  0  0  0  0  0
   39.9210   33.3080   36.6690 H   0  0  0  0  0  0  0  0  0  0  0  0
   40.3520   31.7010   36.0980 H   0  0  0  0  0  0  0  0  0  0  0  0
   36.3440   30.8250   40.9960 C   0  0  0  0  0  0  0  0  0  0  0  0
   36.4340   31.5100   41.8580 H   0  0  0  0  0  0  0  0  0  0  0  0
   35.3140   30.9450   40.6010 H   0  0  0  0  0  0  0  0  0  0  0  0
   36.4540   29.4310   41.3830 N   0  0  0  0  0  0  0  0  0  0  0  0
   37.4070   29.3230   42.4940 C   0  0  0  0  0  3  0  0  0  0  0  0
   36.8900   29.7250   43.3900 H   0  0  0  0  0  0  0  0  0  0  0  0
   37.8720   27.9020   42.6910 C   0  0  0  0  0  3  0  0  0  0  0  0
   37.8200   27.7030   43.7900 H   0  0  0  0  0  0  0  0  0  0  0  0
   37.0320   26.9770   42.1050 O   0  0  0  0  0  0  0  0  0  0  0  0
   36.8310   27.1670   40.7520 C   0  0  0  0  0  2  0  0  0  0  0  0
   37.0400   28.6100   40.3260 C   0  0  0  0  0  2  0  0  0  0  0  0
  1  2  2  0  0  0  0
  1  6  1  0  0  0  0
  2  3  1  0  0  0  0
  3  8  1  0  0  0  0
  3  4  2  0  0  0  0
  5  4  1  0  0  0  0
  5 12  1  0  0  0  0
  6  5  2  0  0  0  0
  7  1  1  0  0  0  0
  9  2  1  0  0  0  0
 10  9  1  0  0  0  0
 11  9  1  0  0  0  0
 12 15  1  0  0  0  0
 12 13  1  0  0  0  0
 14 12  1  0  0  0  0
 15 16  1  0  0  0  0
 16 18  1  0  0  0  0
 16 17  1  0  0  0  0
 18 19  1  0  0  0  0
 20 18  1  0  0  0  0
 21 20  1  0  0  0  0
 22 21  1  0  0  0  0
 22 15  1  0  0  0  0
M  END
>  <minimizedAffinity>
-4.20586348

$$$$

 OpenBabel03242518183D

 22 23  0  0  0  0  0  0  0  0999 V2000
   37.2300   31.7940   39.3710 C   0  0  0  0  0  0  0  0  0  0  0  0
   37.6090   33.0840   39.7870 C   0  0  0  0  0  0  0  0  0  0  0  0
   38.6080   33.1490   40.7370 C   0  0  0  0  0  0  0  0  0  0  0  0
   39.1610   32.0250   41.2070 N   0  0  0  0  0  0  0  0  0  0  0  0
   38.7760   30.7970   40.7880 C   0  0  0  0  0  0  0  0  0  0  0  0
   37.8040   30.6870   39.8640 N   0  0  0  0  0  0  0  0  0  0  0  0
   36.4530   31.6570   38.6300 H   0  0  0  0  0  0  0  0  0  0  0  0
   38.8710   34.1420   41.0290 H   0  0  0  0  0  0  0  0  0  0  0  0
   36.9110   34.1530   39.1750 N   0  0  0  0  0  0  0  0  0  0  0  0
   36.1160   34.5070   39.7560 H   0  0  0  0  0  0  0  0  0  0  0  0
   37.0350   34.6510   38.2640 H   0  0  0  0  0  0  0  0  0  0  0  0
   39.3820   29.5440   41.3040 C   0  0  0  0  0  0  0  0  0  0  0  0
   40.0930   29.1430   40.5610 H   0  0  0  0  0  0  0  0  0  0  0  0
   39.9700   29.7710   42.2170 H   0  0  0  0  0  0  0  0  0  0  0  0
   38.3930   28.5630   41.7090 N   0  0  0  0  0  0  0  0  0  0  0  0
   37.8140   28.9760   42.9930 C   0  0  0  0  0  3  0  0  0  0  0  0
   37.1460   29.8350   42.7730 H   0  0  0  0  0  0  0  0  0  0  0  0
   37.0850   27.8400   43.6660 C   0  0  0  0  0  3  0  0  0  0  0  0
   36.1100   28.2580   44.0210 H   0  0  0  0  0  0  0  0  0  0  0  0
   36.7570   26.8220   42.7930 O   0  0  0  0  0  0  0  0  0  0  0  0
   37.8340   26.2850   42.1160 C   0  0  0  0  0  2  0  0  0  0  0  0
   38.9920   27.2600   41.9890 C   0  0  0  0  0  2  0  0  0  0  0  0
  1  2  2  0  0  0  0
  1  6  1  0  0  0  0
  2  3  1  0  0  0  0
  3  8  1  0  0  0  0
  3  4  2  0  0  0  0
  5  4  1  0  0  0  0
  5 12  1  0  0  0  0
  6  5  2  0  0  0  0
  7  1  1  0  0  0  0
  9 10  1  0  0  0  0
  9  2  1  0  0  0  0
 11  9  1  0  0  0  0
 12 15  1  0  0  0  0
 12 14  1  0  0  0  0
 13 12  1  0  0  0  0
 15 22  1  0  0  0  0
 15 16  1  0  0  0  0
 16 18  1  0  0  0  0
 17 16  1  0  0  0  0
 18 19  1  0  0  0  0
 20 18  1  0  0  0  0
 21 20  1  0  0  0  0
 22 21  1  0  0  0  0
M  END
>  <minimizedAffinity>
-4.14207888

$$$$

 OpenBabel03242518183D

 22 23  0  0  0  0  0  0  0  0999 V2000
   37.5170   32.0840   38.5190 C   0  0  0  0  0  0  0  0  0  0  0  0
   37.8210   31.4870   37.2810 C   0  0  0  0  0  0  0  0  0  0  0  0
   37.2900   30.2320   37.0630 C   0  0  0  0  0  0  0  0  0  0  0  0
   36.5320   29.6520   38.0000 N   0  0  0  0  0  0  0  0  0  0  0  0
   36.2550   30.2500   39.1820 C   0  0  0  0  0  0  0  0  0  0  0  0
   36.7550   31.4740   39.4380 N   0  0  0  0  0  0  0  0  0  0  0  0
   37.8960   33.0670   38.7690 H   0  0  0  0  0  0  0  0  0  0  0  0
   37.5410   29.8100   36.1140 H   0  0  0  0  0  0  0  0  0  0  0  0
   38.6380   32.2560   36.4170 N   0  0  0  0  0  0  0  0  0  0  0  0
   39.6490   31.9940   36.4710 H   0  0  0  0  0  0  0  0  0  0  0  0
   38.4270   33.0270   35.7440 H   0  0  0  0  0  0  0  0  0  0  0  0
   35.4180   29.6140   40.2280 C   0  0  0  0  0  0  0  0  0  0  0  0
   34.7840   30.3790   40.7120 H   0  0  0  0  0  0  0  0  0  0  0  0
   34.7290   28.8860   39.7530 H   0  0  0  0  0  0  0  0  0  0  0  0
   36.1930   28.8510   41.1880 N   0  0  0  0  0  0  0  0  0  0  0  0
   37.0820   29.7670   41.9130 C   0  0  0  0  0  3  0  0  0  0  0  0
   36.4370   30.3430   42.6090 H   0  0  0  0  0  0  0  0  0  0  0  0
   38.1800   29.0240   42.6320 C   0  0  0  0  0  3  0  0  0  0  0  0
   38.2340   29.4590   43.6610 H   0  0  0  0  0  0  0  0  0  0  0  0
   37.8940   27.6850   42.8090 O   0  0  0  0  0  0  0  0  0  0  0  0
   37.6220   27.0020   41.6410 C   0  0  0  0  0  2  0  0  0  0  0  0
   37.1020   27.9090   40.5380 C   0  0  0  0  0  2  0  0  0  0  0  0
  1  7  1  0  0  0  0
  1  6  1  0  0  0  0
  2  1  2  0  0  0  0
  3  2  1  0  0  0  0
  3  4  2  0  0  0  0
  4  5  1  0  0  0  0
  5  6  2  0  0  0  0
  5 12  1  0  0  0  0
  8  3  1  0  0  0  0
  9 10  1  0  0  0  0
  9  2  1  0  0  0  0
 11  9  1  0  0  0  0
 12 13  1  0  0  0  0
 12 15  1  0  0  0  0
 14 12  1  0  0  0  0
 15 16  1  0  0  0  0
 16 17  1  0  0  0  0
 16 18  1  0  0  0  0
 18 20  1  0  0  0  0
 18 19  1  0  0  0  0
 21 20  1  0  0  0  0
 22 15  1  0  0  0  0
 22 21  1  0  0  0  0
M  END
>  <minimizedAffinity>
-4.13055706

$$$$

 OpenBabel03242518183D

 22 23  0  0  0  0  0  0  0  0999 V2000
   38.4790   31.4940   41.0720 C   0  0  0  0  0  0  0  0  0  0  0  0
   37.1510   31.7490   40.6790 C   0  0  0  0  0  0  0  0  0  0  0  0
   36.2190   30.7930   41.0270 C   0  0  0  0  0  0  0  0  0  0  0  0
   36.5960   29.7020   41.7020 N   0  0  0  0  0  0  0  0  0  0  0  0
   37.8810   29.4830   42.0670 C   0  0  0  0  0  0  0  0  0  0  0  0
   38.8240   30.3890   41.7470 N   0  0  0  0  0  0  0  0  0  0  0  0
   39.2710   32.1950   40.8360 H   0  0  0  0  0  0  0  0  0  0  0  0
   35.2230   31.0190   40.7130 H   0  0  0  0  0  0  0  0  0  0  0  0
   36.9450   32.9590   39.9720 N   0  0  0  0  0  0  0  0  0  0  0  0
   36.9280   32.8280   38.9340 H   0  0  0  0  0  0  0  0  0  0  0  0
   36.8090   33.9470   40.2850 H   0  0  0  0  0  0  0  0  0  0  0  0
   38.3110   28.2750   42.8140 C   0  0  0  0  0  0  0  0  0  0  0  0
   39.3040   28.4510   43.2640 H   0  0  0  0  0  0  0  0  0  0  0  0
   37.6090   28.0960   43.6540 H   0  0  0  0  0  0  0  0  0  0  0  0
   38.2750   27.0690   42.0090 N   0  0  0  0  0  0  0  0  0  0  0  0
   37.1520   26.2360   42.4550 C   0  0  0  0  0  3  0  0  0  0  0  0
   36.2290   26.7330   42.0880 H   0  0  0  0  0  0  0  0  0  0  0  0
   37.2770   24.8190   41.9540 C   0  0  0  0  0  3  0  0  0  0  0  0
   36.2700   24.5340   41.5590 H   0  0  0  0  0  0  0  0  0  0  0  0
   38.1420   24.7030   40.8840 O   0  0  0  0  0  0  0  0  0  0  0  0
   39.4160   25.1750   41.1290 C   0  0  0  0  0  2  0  0  0  0  0  0
   39.4520   26.2290   42.2230 C   0  0  0  0  0  2  0  0  0  0  0  0
  1  6  1  0  0  0  0
  2  3  1  0  0  0  0
  2  1  2  0  0  0  0
  3  4  2  0  0  0  0
  4  5  1  0  0  0  0
  5 12  1  0  0  0  0
  6  5  2  0  0  0  0
  7  1  1  0  0  0  0
  8  3  1  0  0  0  0
  9 11  1  0  0  0  0
  9  2  1  0  0  0  0
 10  9  1  0  0  0  0
 12 13  1  0  0  0  0
 12 14  1  0  0  0  0
 15 22  1  0  0  0  0
 15 16  1  0  0  0  0
 15 12  1  0  0  0  0
 17 16  1  0  0  0  0
 18 16  1  0  0  0  0
 19 18  1  0  0  0  0
 20 21  1  0  0  0  0
 20 18  1  0  0  0  0
 21 22  1  0  0  0  0
M  END
>  <minimizedAffinity>
-4.07773924

$$$$

 OpenBabel03242518183D

 22 23  0  0  0  0  0  0  0  0999 V2000
   40.6300   24.8790   43.0980 C   0  0  0  0  0  0  0  0  0  0  0  0
   41.8190   25.5650   43.4130 C   0  0  0  0  0  0  0  0  0  0  0  0
   41.6920   26.9130   43.6800 C   0  0  0  0  0  0  0  0  0  0  0  0
   40.4890   27.4960   43.6330 N   0  0  0  0  0  0  0  0  0  0  0  0
   39.3620   26.8110   43.3270 C   0  0  0  0  0  0  0  0  0  0  0  0
   39.4400   25.4950   43.0580 N   0  0  0  0  0  0  0  0  0  0  0  0
   40.6440   23.8200   42.8750 H   0  0  0  0  0  0  0  0  0  0  0  0
   42.6120   27.4010   43.9150 H   0  0  0  0  0  0  0  0  0  0  0  0
   42.9950   24.7770   43.4140 N   0  0  0  0  0  0  0  0  0  0  0  0
   43.5300   24.8420   42.5170 H   0  0  0  0  0  0  0  0  0  0  0  0
   43.4270   24.1510   44.1300 H   0  0  0  0  0  0  0  0  0  0  0  0
   38.0240   27.4490   43.2700 C   0  0  0  0  0  0  0  0  0  0  0  0
   37.2440   26.6940   43.4780 H   0  0  0  0  0  0  0  0  0  0  0  0
   37.9480   28.2120   44.0720 H   0  0  0  0  0  0  0  0  0  0  0  0
   37.7870   28.1610   42.0280 N   0  0  0  0  0  0  0  0  0  0  0  0
   37.3820   29.5360   42.3410 C   0  0  0  0  0  3  0  0  0  0  0  0
   38.2970   30.0610   42.6850 H   0  0  0  0  0  0  0  0  0  0  0  0
   36.7470   30.2120   41.1510 C   0  0  0  0  0  3  0  0  0  0  0  0
   37.2070   31.2300   41.0850 H   0  0  0  0  0  0  0  0  0  0  0  0
   37.0480   29.5900   39.9570 O   0  0  0  0  0  0  0  0  0  0  0  0
   36.7060   28.2530   39.9100 C   0  0  0  0  0  2  0  0  0  0  0  0
   36.6530   27.6120   41.2860 C   0  0  0  0  0  2  0  0  0  0  0  0
  1  2  1  0  0  0  0
  2  9  1  0  0  0  0
  2  3  2  0  0  0  0
  3  8  1  0  0  0  0
  4  3  1  0  0  0  0
  5  4  2  0  0  0  0
  6  1  2  0  0  0  0
  6  5  1  0  0  0  0
  7  1  1  0  0  0  0
  9 11  1  0  0  0  0
 10  9  1  0  0  0  0
 12  5  1  0  0  0  0
 12 13  1  0  0  0  0
 12 14  1  0  0  0  0
 15 16  1  0  0  0  0
 15 12  1  0  0  0  0
 16 17  1  0  0  0  0
 18 16  1  0  0  0  0
 19 18  1  0  0  0  0
 20 18  1  0  0  0  0
 21 20  1  0  0  0  0
 21 22  1  0  0  0  0
 22 15  1  0  0  0  0
M  END
>  <minimizedAffinity>
-4.00979567

$$$$

 OpenBabel03242518183D

 22 23  0  0  0  0  0  0  0  0999 V2000
   37.3610   29.4320   42.3930 C   0  0  0  0  0  0  0  0  0  0  0  0
   36.3810   29.6020   41.3960 C   0  0  0  0  0  0  0  0  0  0  0  0
   36.0230   28.4700   40.6940 C   0  0  0  0  0  0  0  0  0  0  0  0
   36.5980   27.2950   40.9760 N   0  0  0  0  0  0  0  0  0  0  0  0
   37.5390   27.1610   41.9410 C   0  0  0  0  0  0  0  0  0  0  0  0
   37.9180   28.2410   42.6500 N   0  0  0  0  0  0  0  0  0  0  0  0
   37.6970   30.2720   42.9880 H   0  0  0  0  0  0  0  0  0  0  0  0
   35.2780   28.6350   39.9470 H   0  0  0  0  0  0  0  0  0  0  0  0
   35.8880   30.9210   41.2440 N   0  0  0  0  0  0  0  0  0  0  0  0
   36.3590   31.4460   40.4710 H   0  0  0  0  0  0  0  0  0  0  0  0
   35.1520   31.4650   41.7490 H   0  0  0  0  0  0  0  0  0  0  0  0
   38.1840   25.8640   42.2610 C   0  0  0  0  0  0  0  0  0  0  0  0
   37.8430   25.5150   43.2520 H   0  0  0  0  0  0  0  0  0  0  0  0
   37.8550   25.1010   41.5260 H   0  0  0  0  0  0  0  0  0  0  0  0
   39.6300   25.9100   42.1580 N   0  0  0  0  0  0  0  0  0  0  0  0
   40.0140   25.6600   40.7630 C   0  0  0  0  0  3  0  0  0  0  0  0
   39.7560   26.5800   40.1990 H   0  0  0  0  0  0  0  0  0  0  0  0
   41.4740   25.3030   40.6440 C   0  0  0  0  0  3  0  0  0  0  0  0
   41.8760   25.9050   39.7910 H   0  0  0  0  0  0  0  0  0  0  0  0
   42.2110   25.6830   41.7480 O   0  0  0  0  0  0  0  0  0  0  0  0
   41.7510   25.1680   42.9430 C   0  0  0  0  0  2  0  0  0  0  0  0
   40.2710   24.8300   42.9050 C   0  0  0  0  0  2  0  0  0  0  0  0
  1  6  1  0  0  0  0
  1  7  1  0  0  0  0
  2  1  2  0  0  0  0
  3  4  2  0  0  0  0
  3  2  1  0  0  0  0
  4  5  1  0  0  0  0
  5 12  1  0  0  0  0
  5  6  2  0  0  0  0
  8  3  1  0  0  0  0
  9  2  1  0  0  0  0
  9 11  1  0  0  0  0
 10  9  1  0  0  0  0
 12 13  1  0  0  0  0
 14 12  1  0  0  0  0
 15 12  1  0  0  0  0
 15 22  1  0  0  0  0
 16 15  1  0  0  0  0
 17 16  1  0  0  0  0
 18 16  1  0  0  0  0
 18 20  1  0  0  0  0
 19 18  1  0  0  0  0
 20 21  1  0  0  0  0
 22 21  1  0  0  0  0
M  END
>  <minimizedAffinity>
-3.90938759

$$$$

 OpenBabel03242518183D

 22 23  0  0  0  0  0  0  0  0999 V2000
   38.0010   24.9630   42.0160 C   0  0  0  0  0  0  0  0  0  0  0  0
   39.0930   25.0760   42.8980 C   0  0  0  0  0  0  0  0  0  0  0  0
   39.3190   26.3280   43.4310 C   0  0  0  0  0  0  0  0  0  0  0  0
   38.5200   27.3510   43.1040 N   0  0  0  0  0  0  0  0  0  0  0  0
   37.4770   27.2130   42.2520 C   0  0  0  0  0  0  0  0  0  0  0  0
   37.2220   26.0080   41.7080 N   0  0  0  0  0  0  0  0  0  0  0  0
   37.7580   24.0140   41.5550 H   0  0  0  0  0  0  0  0  0  0  0  0
   40.1540   26.3780   44.0950 H   0  0  0  0  0  0  0  0  0  0  0  0
   39.8220   23.8830   43.1230 N   0  0  0  0  0  0  0  0  0  0  0  0
   40.6770   23.8070   42.5250 H   0  0  0  0  0  0  0  0  0  0  0  0
   39.6710   23.0710   43.7650 H   0  0  0  0  0  0  0  0  0  0  0  0
   36.5870   28.3400   41.8820 C   0  0  0  0  0  0  0  0  0  0  0  0
   35.8470   27.9990   41.1340 H   0  0  0  0  0  0  0  0  0  0  0  0
   36.0110   28.6610   42.7740 H   0  0  0  0  0  0  0  0  0  0  0  0
   37.3140   29.5150   41.4420 N   0  0  0  0  0  0  0  0  0  0  0  0
   36.3560   30.5960   41.1830 C   0  0  0  0  0  3  0  0  0  0  0  0
   36.0100   30.9510   42.1760 H   0  0  0  0  0  0  0  0  0  0  0  0
   36.9720   31.7010   40.3620 C   0  0  0  0  0  3  0  0  0  0  0  0
   36.6780   32.6610   40.8540 H   0  0  0  0  0  0  0  0  0  0  0  0
   38.3520   31.6800   40.3840 O   0  0  0  0  0  0  0  0  0  0  0  0
   38.9090   30.4870   39.9660 C   0  0  0  0  0  2  0  0  0  0  0  0
   37.9740   29.3050   40.1540 C   0  0  0  0  0  2  0  0  0  0  0  0
  1  2  1  0  0  0  0
  2  9  1  0  0  0  0
  2  3  2  0  0  0  0
  3  8  1  0  0  0  0
  4  3  1  0  0  0  0
  5  4  2  0  0  0  0
  6  1  2  0  0  0  0
  6  5  1  0  0  0  0
  7  1  1  0  0  0  0
  9 11  1  0  0  0  0
 10  9  1  0  0  0  0
 12  5  1  0  0  0  0
 12 14  1  0  0  0  0
 13 12  1  0  0  0  0
 15 12  1  0  0  0  0
 16 15  1  0  0  0  0
 16 17  1  0  0  0  0
 18 20  1  0  0  0  0
 18 19  1  0  0  0  0
 18 16  1  0  0  0  0
 21 22  1  0  0  0  0
 21 20  1  0  0  0  0
 22 15  1  0  0  0  0
M  END
>  <minimizedAffinity>
-3.90822291

$$$$

 OpenBabel03242518183D

 22 23  0  0  0  0  0  0  0  0999 V2000
   40.5560   32.3970   37.8240 C   0  0  0  0  0  0  0  0  0  0  0  0
   41.4300   33.4880   37.9920 C   0  0  0  0  0  0  0  0  0  0  0  0
   41.3400   34.1610   39.1930 C   0  0  0  0  0  0  0  0  0  0  0  0
   40.4590   33.7670   40.1190 N   0  0  0  0  0  0  0  0  0  0  0  0
   39.6300   32.7140   39.9300 C   0  0  0  0  0  0  0  0  0  0  0  0
   39.6840   32.0290   38.7720 N   0  0  0  0  0  0  0  0  0  0  0  0
   40.5630   31.8170   36.9100 H   0  0  0  0  0  0  0  0  0  0  0  0
   42.0170   34.9820   39.2860 H   0  0  0  0  0  0  0  0  0  0  0  0
   42.2920   33.7530   36.9000 N   0  0  0  0  0  0  0  0  0  0  0  0
   41.9310   34.5040   36.2680 H   0  0  0  0  0  0  0  0  0  0  0  0
   43.2100   33.3460   36.6080 H   0  0  0  0  0  0  0  0  0  0  0  0
   38.6480   32.2690   40.9500 C   0  0  0  0  0  0  0  0  0  0  0  0
   39.1230   32.2720   41.9480 H   0  0  0  0  0  0  0  0  0  0  0  0
   37.8120   32.9970   40.9950 H   0  0  0  0  0  0  0  0  0  0  0  0
   38.0400   30.9920   40.6310 N   0  0  0  0  0  0  0  0  0  0  0  0
   36.5810   31.1270   40.7190 C   0  0  0  0  0  3  0  0  0  0  0  0
   36.2670   31.7110   39.8280 H   0  0  0  0  0  0  0  0  0  0  0  0
   35.9010   29.7830   40.7920 C   0  0  0  0  0  3  0  0  0  0  0  0
   35.0440   29.8250   40.0740 H   0  0  0  0  0  0  0  0  0  0  0  0
   36.7050   28.7510   40.3510 O   0  0  0  0  0  0  0  0  0  0  0  0
   37.9110   28.6460   41.0160 C   0  0  0  0  0  2  0  0  0  0  0  0
   38.3640   29.9650   41.6190 C   0  0  0  0  0  2  0  0  0  0  0  0
  1  2  2  0  0  0  0
  1  6  1  0  0  0  0
  2  3  1  0  0  0  0
  3  8  1  0  0  0  0
  3  4  2  0  0  0  0
  5  4  1  0  0  0  0
  5 12  1  0  0  0  0
  6  5  2  0  0  0  0
  7  1  1  0  0  0  0
  9  2  1  0  0  0  0
 10  9  1  0  0  0  0
 11  9  1  0  0  0  0
 12 14  1  0  0  0  0
 12 13  1  0  0  0  0
 15 16  1  0  0  0  0
 15 12  1  0  0  0  0
 15 22  1  0  0  0  0
 16 18  1  0  0  0  0
 17 16  1  0  0  0  0
 19 18  1  0  0  0  0
 20 18  1  0  0  0  0
 20 21  1  0  0  0  0
 21 22  1  0  0  0  0
M  END
>  <minimizedAffinity>
-3.87168884

$$$$
