
 OpenBabel03252503453D

 43 46  0  0  1  0  0  0  0  0999 V2000
   45.0120   34.8960   44.9480 C   0  0  0  0  0  0  0  0  0  0  0  0
   45.9080   34.6950   43.8980 C   0  0  0  0  0  0  0  0  0  0  0  0
   46.7780   33.6110   44.0160 C   0  0  0  0  0  0  0  0  0  0  0  0
   46.7520   32.7950   45.0960 N   0  0  0  0  0  0  0  0  0  0  0  0
   45.8650   33.0290   46.0940 C   0  0  0  0  0  0  0  0  0  0  0  0
   44.9930   34.0760   46.0270 N   0  0  0  0  0  0  0  0  0  0  0  0
   44.3020   35.7000   44.9580 H   0  0  0  0  0  0  0  0  0  0  0  0
   47.5160   33.3490   43.3020 H   0  0  0  0  0  0  0  0  0  0  0  0
   47.3230   31.7990   47.6880 C   0  0  2  0  0  0  0  0  0  0  0  0
   45.8680   32.1190   47.2360 C   0  0  1  0  0  0  0  0  0  0  0  0
   45.3910   32.6220   48.3980 O   0  0  0  0  0  0  0  0  0  0  0  0
   45.7770   31.7820   49.4050 C   0  0  0  0  0  0  0  0  0  0  0  0
   46.9560   30.9680   48.9260 C   0  0  2  0  0  0  0  0  0  0  0  0
   47.8310   31.2000   46.9340 H   0  0  0  0  0  0  0  0  0  0  0  0
   45.3620   31.1430   47.0140 H   0  0  0  0  0  0  0  0  0  0  0  0
   44.9110   31.1220   49.6970 H   0  0  0  0  0  0  0  0  0  0  0  0
   46.0790   32.3060   50.3440 H   0  0  0  0  0  0  0  0  0  0  0  0
   46.6120   29.9610   48.6720 H   0  0  0  0  0  0  0  0  0  0  0  0
   47.9380   32.9170   48.1120 O   0  0  0  0  0  0  0  0  0  0  0  0
   47.3110   33.5970   48.4470 H   0  0  0  0  0  0  0  0  0  0  0  0
   47.9820   30.8900   49.8360 O   0  0  0  0  0  0  0  0  0  0  0  0
   47.9430   31.6630   50.4810 H   0  0  0  0  0  0  0  0  0  0  0  0
   45.9200   35.5730   42.7480 C   0  0  0  0  0  0  0  0  0  0  0  0
   46.9310   35.4850   42.2660 H   0  0  0  0  0  0  0  0  0  0  0  0
   45.8150   36.6180   43.1030 H   0  0  0  0  0  0  0  0  0  0  0  0
   44.8710   35.1890   41.7950 C   0  0  0  0  0  0  0  0  0  0  0  0
   43.5720   35.6150   41.8110 C   0  0  0  0  0  0  0  0  0  0  0  0
   42.6400   35.2080   40.8860 C   0  0  0  0  0  0  0  0  0  0  0  0
   43.0300   34.3330   39.9020 C   0  0  0  0  0  0  0  0  0  0  0  0
   44.3490   33.8770   39.8560 C   0  0  0  0  0  0  0  0  0  0  0  0
   45.2760   34.3110   40.8120 C   0  0  0  0  0  0  0  0  0  0  0  0
   43.3530   36.3040   42.6230 H   0  0  0  0  0  0  0  0  0  0  0  0
   41.6700   35.6290   41.0320 H   0  0  0  0  0  0  0  0  0  0  0  0
   42.2470   34.0540   39.2100 H   0  0  0  0  0  0  0  0  0  0  0  0
   44.4810   33.2000   39.0230 H   0  0  0  0  0  0  0  0  0  0  0  0
   46.5240   33.7070   40.5010 N   0  0  0  0  0  0  0  0  0  0  0  0
   47.7230   34.4030   40.0670 C   0  0  0  0  0  0  0  0  0  0  0  0
   47.4810   35.4510   39.7670 H   0  0  0  0  0  0  0  0  0  0  0  0
   48.1530   33.6890   38.7890 C   0  0  0  0  0  0  0  0  0  0  0  0
   47.2240   33.6310   38.1540 H   0  0  0  0  0  0  0  0  0  0  0  0
   48.5400   32.4010   39.0640 O   0  0  0  0  0  0  0  0  0  0  0  0
   48.1220   31.9500   40.2910 C   0  0  0  0  0  0  0  0  0  0  0  0
   46.6720   32.2470   40.6070 C   0  0  0  0  0  0  0  0  0  0  0  0
  1  7  1  0  0  0  0
  1  6  1  0  0  0  0
  2  3  1  0  0  0  0
  2  1  2  0  0  0  0
  3  4  2  0  0  0  0
  4  5  1  0  0  0  0
  5 10  1  0  0  0  0
  6  5  2  0  0  0  0
  8  3  1  0  0  0  0
  9 14  1  6  0  0  0
  9 19  1  0  0  0  0
  9 13  1  0  0  0  0
 10 15  1  6  0  0  0
 10  9  1  0  0  0  0
 10 11  1  0  0  0  0
 11 12  1  0  0  0  0
 12 16  1  0  0  0  0
 12 17  1  0  0  0  0
 13 18  1  6  0  0  0
 13 12  1  0  0  0  0
 13 21  1  0  0  0  0
 19 20  1  0  0  0  0
 21 22  1  0  0  0  0
 23 25  1  0  0  0  0
 23  2  1  0  0  0  0
 24 23  1  0  0  0  0
 26 27  1  0  0  0  0
 26 23  1  0  0  0  0
 27 32  1  0  0  0  0
 28 33  1  0  0  0  0
 28 27  2  0  0  0  0
 29 28  1  0  0  0  0
 30 29  2  0  0  0  0
 30 31  1  0  0  0  0
 31 26  2  0  0  0  0
 34 29  1  0  0  0  0
 35 30  1  0  0  0  0
 36 43  1  0  0  0  0
 36 31  1  0  0  0  0
 37 36  1  0  0  0  0
 38 37  1  0  0  0  0
 39 41  1  0  0  0  0
 39 37  1  0  0  0  0
 40 39  1  0  0  0  0
 41 42  1  0  0  0  0
 42 43  1  0  0  0  0
M  END
>  <minimizedAffinity>
-6.96158934

>  <minimizedRMSD>
0.280967921

$$$$
