
 OpenBabel03252502303D

 23 24  0  0  0  0  0  0  0  0999 V2000
   47.8170   34.7750   42.4010 C   0  0  0  0  0  0  0  0  0  0  0  0
   48.0580   33.6170   43.1750 C   0  0  0  0  0  0  0  0  0  0  0  0
   47.0980   33.2480   44.1340 C   0  0  0  0  0  0  0  0  0  0  0  0
   46.0000   34.0340   44.2480 N   0  0  0  0  0  0  0  0  0  0  0  0
   45.7840   35.1250   43.5110 C   0  0  0  0  0  0  0  0  0  0  0  0
   46.7010   35.4890   42.5860 N   0  0  0  0  0  0  0  0  0  0  0  0
   48.9590   33.0400   43.0260 H   0  0  0  0  0  0  0  0  0  0  0  0
   47.2960   32.0900   44.9360 N   0  0  0  0  0  0  0  0  0  0  0  0
   47.8120   30.9040   44.3290 C   0  0  0  0  0  3  0  0  0  0  0  0
   48.8910   31.0920   44.0630 H   0  0  0  0  0  0  0  0  0  0  0  0
   47.7610   29.7070   45.2230 C   0  0  0  0  0  3  0  0  0  0  0  0
   48.7900   29.3450   45.5040 H   0  0  0  0  0  0  0  0  0  0  0  0
   46.9910   29.8520   46.3560 O   0  0  0  0  0  0  0  0  0  0  0  0
   47.3650   30.9590   47.1110 C   0  0  0  0  0  2  0  0  0  0  0  0
   46.9590   32.1830   46.3360 C   0  0  0  0  0  2  0  0  0  0  0  0
   48.8450   35.1530   41.3900 C   0  0  0  0  0  0  0  0  0  0  0  0
   48.3790   35.0640   40.1160 F   0  0  0  0  0  0  0  0  0  0  0  0
   49.2930   36.4360   41.6810 F   0  0  0  0  0  0  0  0  0  0  0  0
   49.9690   34.3140   41.5710 F   0  0  0  0  0  0  0  0  0  0  0  0
   44.5620   35.9510   43.6790 C   0  0  0  0  0  0  0  0  0  0  0  0
   43.6190   35.6490   42.7380 F   0  0  0  0  0  0  0  0  0  0  0  0
   44.8860   37.3210   43.6420 F   0  0  0  0  0  0  0  0  0  0  0  0
   43.9890   35.7550   44.9210 F   0  0  0  0  0  0  0  0  0  0  0  0
  1  6  2  0  0  0  0
  1  2  1  0  0  0  0
  2  3  2  0  0  0  0
  3  4  1  0  0  0  0
  3  8  1  0  0  0  0
  5 20  1  0  0  0  0
  5  4  2  0  0  0  0
  6  5  1  0  0  0  0
  7  2  1  0  0  0  0
  8 15  1  0  0  0  0
  9  8  1  0  0  0  0
  9 11  1  0  0  0  0
 10  9  1  0  0  0  0
 11 12  1  0  0  0  0
 11 13  1  0  0  0  0
 13 14  1  0  0  0  0
 15 14  1  0  0  0  0
 16 19  1  0  0  0  0
 16 18  1  0  0  0  0
 16  1  1  0  0  0  0
 17 16  1  0  0  0  0
 20 23  1  0  0  0  0
 21 20  1  0  0  0  0
 22 20  1  0  0  0  0
M  END
>  <minimizedAffinity>
-5.64075899

>  <minimizedRMSD>
0.341502964

$$$$
