
 OpenBabel03252500373D

 45 48  0  0  1  0  0  0  0  0999 V2000
   35.3220   30.0240   39.8190 C   0  0  1  0  0  0  0  0  0  0  0  0
   34.9750   28.9090   39.0570 C   0  0  0  0  0  0  0  0  0  0  0  0
   35.4770   28.5900   40.4050 C   0  0  1  0  0  0  0  0  0  0  0  0
   34.5270   30.6500   40.3130 H   0  0  0  0  0  0  0  0  0  0  0  0
   35.6400   28.5550   38.2170 H   0  0  0  0  0  0  0  0  0  0  0  0
   33.9050   28.7120   38.7990 H   0  0  0  0  0  0  0  0  0  0  0  0
   34.8330   28.4740   41.2870 H   0  0  0  0  0  0  0  0  0  0  0  0
   37.1920   30.9160   38.4210 C   0  0  0  0  0  0  0  0  0  0  0  0
   36.5760   30.8310   39.7110 C   0  0  0  0  0  0  0  0  0  0  0  0
   37.1350   31.4670   40.7720 C   0  0  0  0  0  0  0  0  0  0  0  0
   38.2920   32.1750   40.5400 N   0  0  0  0  0  0  0  0  0  0  0  0
   38.8620   32.2480   39.3190 C   0  0  0  0  0  0  0  0  0  0  0  0
   38.3280   31.6180   38.2170 N   0  0  0  0  0  0  0  0  0  0  0  0
   36.7880   30.4270   37.5360 H   0  0  0  0  0  0  0  0  0  0  0  0
   36.6810   31.4080   41.7360 H   0  0  0  0  0  0  0  0  0  0  0  0
   40.0570   33.0040   39.1810 N   0  0  0  0  0  0  0  0  0  0  0  0
   40.2550   34.1310   40.0540 C   0  0  0  0  0  3  0  0  0  0  0  0
   40.0900   35.1000   39.5350 H   0  0  0  0  0  0  0  0  0  0  0  0
   41.6940   34.1610   40.5460 C   0  0  0  0  0  3  0  0  0  0  0  0
   41.9350   35.1460   40.9600 H   0  0  0  0  0  0  0  0  0  0  0  0
   42.5820   33.9300   39.4990 O   0  0  0  0  0  0  0  0  0  0  0  0
   42.3880   32.6660   38.9550 C   0  0  0  0  0  2  0  0  0  0  0  0
   41.0600   32.6650   38.1920 C   0  0  0  0  0  2  0  0  0  0  0  0
   36.8360   28.0230   40.5850 C   0  0  0  0  0  0  0  0  0  0  0  0
   36.9720   27.2170   39.8340 H   0  0  0  0  0  0  0  0  0  0  0  0
   37.5770   28.8240   40.4310 H   0  0  0  0  0  0  0  0  0  0  0  0
   36.9190   27.5460   41.9220 N   0  0  0  0  0  0  0  0  0  0  0  0
   37.3420   28.4420   42.9120 C   0  0  0  0  0  0  0  0  0  0  0  0
   38.8700   28.4110   43.1010 C   0  0  0  0  0  0  0  0  0  0  0  0
   39.1940   27.0540   43.6790 C   0  0  0  0  0  0  0  0  0  0  0  0
   38.7480   26.0410   42.6570 C   0  0  0  0  0  0  0  0  0  0  0  0
   37.3450   26.2310   42.1520 C   0  0  2  0  0  0  0  0  0  0  0  0
   36.9280   29.4490   42.9370 H   0  0  0  0  0  0  0  0  0  0  0  0
   36.9760   28.0000   43.8900 H   0  0  0  0  0  0  0  0  0  0  0  0
   39.2870   28.4760   42.0800 H   0  0  0  0  0  0  0  0  0  0  0  0
   39.2040   29.1790   43.7970 H   0  0  0  0  0  0  0  0  0  0  0  0
   40.3050   26.9220   43.7600 H   0  0  0  0  0  0  0  0  0  0  0  0
   38.6590   26.8680   44.6150 H   0  0  0  0  0  0  0  0  0  0  0  0
   39.4070   26.0290   41.7670 H   0  0  0  0  0  0  0  0  0  0  0  0
   38.8000   25.0050   43.0860 H   0  0  0  0  0  0  0  0  0  0  0  0
   36.6690   25.7730   42.9150 H   0  0  0  0  0  0  0  0  0  0  0  0
   37.2110   25.3600   40.9110 C   0  0  0  0  0  0  0  0  0  0  0  0
   37.4950   24.3350   41.2130 H   0  0  0  0  0  0  0  0  0  0  0  0
   36.1780   25.4150   40.5040 H   0  0  0  0  0  0  0  0  0  0  0  0
   37.9150   25.7380   40.1510 H   0  0  0  0  0  0  0  0  0  0  0  0
  1  4  1  1  0  0  0
  1  3  1  0  0  0  0
  2  1  1  0  0  0  0
  2  3  1  0  0  0  0
  3 24  1  0  0  0  0
  3  7  1  1  0  0  0
  5  2  1  0  0  0  0
  6  2  1  0  0  0  0
  8  9  1  0  0  0  0
  9  1  1  0  0  0  0
  9 10  2  0  0  0  0
 10 15  1  0  0  0  0
 11 10  1  0  0  0  0
 12 11  2  0  0  0  0
 13  8  2  0  0  0  0
 13 12  1  0  0  0  0
 14  8  1  0  0  0  0
 16 12  1  0  0  0  0
 16 17  1  0  0  0  0
 17 19  1  0  0  0  0
 18 17  1  0  0  0  0
 19 20  1  0  0  0  0
 21 19  1  0  0  0  0
 22 21  1  0  0  0  0
 23 22  1  0  0  0  0
 23 16  1  0  0  0  0
 24 27  1  0  0  0  0
 25 24  1  0  0  0  0
 26 24  1  0  0  0  0
 27 32  1  0  0  0  0
 27 28  1  0  0  0  0
 28 33  1  0  0  0  0
 28 29  1  0  0  0  0
 28 34  1  0  0  0  0
 29 30  1  0  0  0  0
 29 36  1  0  0  0  0
 30 37  1  0  0  0  0
 30 38  1  0  0  0  0
 31 40  1  0  0  0  0
 31 30  1  0  0  0  0
 32 31  1  0  0  0  0
 32 41  1  1  0  0  0
 35 29  1  0  0  0  0
 39 31  1  0  0  0  0
 42 43  1  0  0  0  0
 42 32  1  0  0  0  0
 44 42  1  0  0  0  0
 45 42  1  0  0  0  0
M  END
>  <minimizedAffinity>
-5.82968998

$$$$

 OpenBabel03252500373D

 45 48  0  0  1  0  0  0  0  0999 V2000
   35.8180   30.1890   40.3100 C   0  0  1  0  0  0  0  0  0  0  0  0
   35.0960   29.1440   39.7360 C   0  0  0  0  0  0  0  0  0  0  0  0
   35.7760   28.7920   40.9950 C   0  0  1  0  0  0  0  0  0  0  0  0
   35.2900   31.0060   40.8770 H   0  0  0  0  0  0  0  0  0  0  0  0
   35.4890   28.6020   38.8270 H   0  0  0  0  0  0  0  0  0  0  0  0
   33.9780   29.1830   39.6970 H   0  0  0  0  0  0  0  0  0  0  0  0
   35.3110   28.8740   41.9860 H   0  0  0  0  0  0  0  0  0  0  0  0
   37.8740   31.5150   40.8230 C   0  0  0  0  0  0  0  0  0  0  0  0
   37.1680   30.6810   39.8980 C   0  0  0  0  0  0  0  0  0  0  0  0
   37.7300   30.3710   38.7010 C   0  0  0  0  0  0  0  0  0  0  0  0
   38.9770   30.8900   38.4410 N   0  0  0  0  0  0  0  0  0  0  0  0
   39.6320   31.6750   39.3230 C   0  0  0  0  0  0  0  0  0  0  0  0
   39.0990   32.0130   40.5460 N   0  0  0  0  0  0  0  0  0  0  0  0
   37.4720   31.7960   41.7960 H   0  0  0  0  0  0  0  0  0  0  0  0
   37.2090   29.7510   38.0060 H   0  0  0  0  0  0  0  0  0  0  0  0
   40.9160   32.1620   38.9620 N   0  0  0  0  0  0  0  0  0  0  0  0
   41.7290   31.3600   38.0840 C   0  0  0  0  0  3  0  0  0  0  0  0
   42.5490   30.8430   38.6260 H   0  0  0  0  0  0  0  0  0  0  0  0
   42.4040   32.2440   37.0470 C   0  0  0  0  0  3  0  0  0  0  0  0
   43.2330   31.7100   36.5720 H   0  0  0  0  0  0  0  0  0  0  0  0
   42.9410   33.3840   37.6400 O   0  0  0  0  0  0  0  0  0  0  0  0
   41.9410   34.1600   38.2150 C   0  0  0  0  0  2  0  0  0  0  0  0
   41.4130   33.4310   39.4550 C   0  0  0  0  0  2  0  0  0  0  0  0
   36.9900   27.9400   40.9790 C   0  0  0  0  0  0  0  0  0  0  0  0
   36.7760   27.0530   40.3470 H   0  0  0  0  0  0  0  0  0  0  0  0
   37.8260   28.5220   40.5590 H   0  0  0  0  0  0  0  0  0  0  0  0
   37.2790   27.5940   42.3270 N   0  0  0  0  0  0  0  0  0  0  0  0
   38.0350   28.4960   43.0870 C   0  0  0  0  0  0  0  0  0  0  0  0
   39.5450   28.2120   42.9830 C   0  0  0  0  0  0  0  0  0  0  0  0
   39.7700   26.8840   43.6680 C   0  0  0  0  0  0  0  0  0  0  0  0
   38.9670   25.8690   42.8980 C   0  0  0  0  0  0  0  0  0  0  0  0
   37.5350   26.2540   42.6500 C   0  0  2  0  0  0  0  0  0  0  0  0
   37.7960   29.5580   43.0540 H   0  0  0  0  0  0  0  0  0  0  0  0
   37.8210   28.2290   44.1680 H   0  0  0  0  0  0  0  0  0  0  0  0
   39.7410   28.0960   41.9020 H   0  0  0  0  0  0  0  0  0  0  0  0
   40.1330   28.9740   43.4910 H   0  0  0  0  0  0  0  0  0  0  0  0
   40.8390   26.5650   43.5520 H   0  0  0  0  0  0  0  0  0  0  0  0
   39.4230   26.8940   44.7050 H   0  0  0  0  0  0  0  0  0  0  0  0
   39.4120   25.6480   41.9080 H   0  0  0  0  0  0  0  0  0  0  0  0
   38.9480   24.8900   43.4460 H   0  0  0  0  0  0  0  0  0  0  0  0
   36.9730   26.0060   43.5830 H   0  0  0  0  0  0  0  0  0  0  0  0
   37.0090   25.3000   41.5880 C   0  0  0  0  0  0  0  0  0  0  0  0
   37.1880   24.2760   41.9660 H   0  0  0  0  0  0  0  0  0  0  0  0
   35.9350   25.4960   41.3820 H   0  0  0  0  0  0  0  0  0  0  0  0
   37.5870   25.4660   40.6620 H   0  0  0  0  0  0  0  0  0  0  0  0
  1  4  1  1  0  0  0
  1  3  1  0  0  0  0
  2  1  1  0  0  0  0
  2  3  1  0  0  0  0
  3  7  1  1  0  0  0
  5  2  1  0  0  0  0
  6  2  1  0  0  0  0
  8 14  1  0  0  0  0
  9  1  1  0  0  0  0
  9  8  2  0  0  0  0
 10  9  1  0  0  0  0
 11 10  2  0  0  0  0
 11 12  1  0  0  0  0
 12 13  2  0  0  0  0
 13  8  1  0  0  0  0
 15 10  1  0  0  0  0
 16 12  1  0  0  0  0
 16 23  1  0  0  0  0
 17 18  1  0  0  0  0
 17 16  1  0  0  0  0
 19 21  1  0  0  0  0
 19 17  1  0  0  0  0
 20 19  1  0  0  0  0
 21 22  1  0  0  0  0
 22 23  1  0  0  0  0
 24  3  1  0  0  0  0
 24 27  1  0  0  0  0
 25 24  1  0  0  0  0
 26 24  1  0  0  0  0
 27 32  1  0  0  0  0
 27 28  1  0  0  0  0
 28 34  1  0  0  0  0
 29 28  1  0  0  0  0
 29 36  1  0  0  0  0
 29 30  1  0  0  0  0
 30 38  1  0  0  0  0
 31 40  1  0  0  0  0
 31 30  1  0  0  0  0
 32 31  1  0  0  0  0
 32 41  1  1  0  0  0
 33 28  1  0  0  0  0
 35 29  1  0  0  0  0
 37 30  1  0  0  0  0
 39 31  1  0  0  0  0
 42 43  1  0  0  0  0
 42 32  1  0  0  0  0
 44 42  1  0  0  0  0
 45 42  1  0  0  0  0
M  END
>  <minimizedAffinity>
-5.74439144

$$$$

 OpenBabel03252500373D

 45 48  0  0  1  0  0  0  0  0999 V2000
   37.6730   28.4310   43.6780 C   0  0  1  0  0  0  0  0  0  0  0  0
   36.5020   27.6880   43.5410 C   0  0  0  0  0  0  0  0  0  0  0  0
   37.7380   26.9230   43.2960 C   0  0  1  0  0  0  0  0  0  0  0  0
   38.0800   28.6750   44.6990 H   0  0  0  0  0  0  0  0  0  0  0  0
   35.8430   27.8120   42.6330 H   0  0  0  0  0  0  0  0  0  0  0  0
   35.8700   27.4570   44.4350 H   0  0  0  0  0  0  0  0  0  0  0  0
   38.2750   26.3620   44.0720 H   0  0  0  0  0  0  0  0  0  0  0  0
   37.3580   29.9470   41.7160 C   0  0  0  0  0  0  0  0  0  0  0  0
   38.2510   29.3880   42.6860 C   0  0  0  0  0  0  0  0  0  0  0  0
   39.5640   29.7330   42.6750 C   0  0  0  0  0  0  0  0  0  0  0  0
   39.9710   30.6220   41.7070 N   0  0  0  0  0  0  0  0  0  0  0  0
   39.1180   31.1420   40.7990 C   0  0  0  0  0  0  0  0  0  0  0  0
   37.7810   30.8200   40.7750 N   0  0  0  0  0  0  0  0  0  0  0  0
   36.2970   29.7070   41.6780 H   0  0  0  0  0  0  0  0  0  0  0  0
   40.2360   29.3200   43.3950 H   0  0  0  0  0  0  0  0  0  0  0  0
   39.6350   32.0530   39.8390 N   0  0  0  0  0  0  0  0  0  0  0  0
   40.7600   32.8710   40.2110 C   0  0  0  0  0  3  0  0  0  0  0  0
   40.4650   33.9220   40.4190 H   0  0  0  0  0  0  0  0  0  0  0  0
   41.7580   32.9350   39.0660 C   0  0  0  0  0  3  0  0  0  0  0  0
   42.4550   33.7660   39.2130 H   0  0  0  0  0  0  0  0  0  0  0  0
   41.1110   33.1560   37.8540 O   0  0  0  0  0  0  0  0  0  0  0  0
   40.2490   32.1080   37.5550 C   0  0  0  0  0  2  0  0  0  0  0  0
   39.0570   32.1700   38.5160 C   0  0  0  0  0  2  0  0  0  0  0  0
   38.1220   26.5420   41.9150 C   0  0  0  0  0  0  0  0  0  0  0  0
   38.2560   27.4740   41.3280 H   0  0  0  0  0  0  0  0  0  0  0  0
   39.0630   25.9700   41.9540 H   0  0  0  0  0  0  0  0  0  0  0  0
   37.0830   25.7170   41.4020 N   0  0  0  0  0  0  0  0  0  0  0  0
   36.9780   24.4120   41.9000 C   0  0  0  0  0  0  0  0  0  0  0  0
   37.8040   23.4120   41.0680 C   0  0  0  0  0  0  0  0  0  0  0  0
   37.1350   23.3380   39.7160 C   0  0  0  0  0  0  0  0  0  0  0  0
   37.2060   24.7250   39.1320 C   0  0  0  0  0  0  0  0  0  0  0  0
   36.7350   25.8190   40.0490 C   0  0  2  0  0  0  0  0  0  0  0  0
   37.0500   24.2380   42.9720 H   0  0  0  0  0  0  0  0  0  0  0  0
   35.9160   24.0880   41.6680 H   0  0  0  0  0  0  0  0  0  0  0  0
   38.7960   23.8830   40.9540 H   0  0  0  0  0  0  0  0  0  0  0  0
   37.8010   22.4190   41.5160 H   0  0  0  0  0  0  0  0  0  0  0  0
   37.7360   22.6950   39.0210 H   0  0  0  0  0  0  0  0  0  0  0  0
   36.0840   23.0430   39.7930 H   0  0  0  0  0  0  0  0  0  0  0  0
   38.2350   24.9940   38.8210 H   0  0  0  0  0  0  0  0  0  0  0  0
   36.5820   24.7900   38.2020 H   0  0  0  0  0  0  0  0  0  0  0  0
   35.6200   25.8360   39.9750 H   0  0  0  0  0  0  0  0  0  0  0  0
   37.2040   27.1300   39.4340 C   0  0  0  0  0  0  0  0  0  0  0  0
   36.8180   27.1500   38.3980 H   0  0  0  0  0  0  0  0  0  0  0  0
   36.8520   27.9940   40.0380 H   0  0  0  0  0  0  0  0  0  0  0  0
   38.3080   27.1270   39.4250 H   0  0  0  0  0  0  0  0  0  0  0  0
  1  4  1  1  0  0  0
  2  1  1  0  0  0  0
  2  6  1  0  0  0  0
  3  2  1  0  0  0  0
  3  1  1  0  0  0  0
  3  7  1  1  0  0  0
  5  2  1  0  0  0  0
  8  9  1  0  0  0  0
  9  1  1  0  0  0  0
 10  9  2  0  0  0  0
 10 15  1  0  0  0  0
 11 10  1  0  0  0  0
 12 11  2  0  0  0  0
 13 12  1  0  0  0  0
 13  8  2  0  0  0  0
 14  8  1  0  0  0  0
 16 17  1  0  0  0  0
 16 12  1  0  0  0  0
 17 18  1  0  0  0  0
 19 20  1  0  0  0  0
 19 17  1  0  0  0  0
 21 19  1  0  0  0  0
 22 21  1  0  0  0  0
 22 23  1  0  0  0  0
 23 16  1  0  0  0  0
 24 26  1  0  0  0  0
 24  3  1  0  0  0  0
 25 24  1  0  0  0  0
 27 28  1  0  0  0  0
 27 24  1  0  0  0  0
 28 33  1  0  0  0  0
 29 36  1  0  0  0  0
 29 28  1  0  0  0  0
 30 38  1  0  0  0  0
 30 29  1  0  0  0  0
 31 30  1  0  0  0  0
 31 32  1  0  0  0  0
 32 41  1  6  0  0  0
 32 27  1  0  0  0  0
 34 28  1  0  0  0  0
 35 29  1  0  0  0  0
 37 30  1  0  0  0  0
 39 31  1  0  0  0  0
 40 31  1  0  0  0  0
 42 44  1  0  0  0  0
 42 32  1  0  0  0  0
 43 42  1  0  0  0  0
 45 42  1  0  0  0  0
M  END
>  <minimizedAffinity>
-5.70903206

$$$$

 OpenBabel03252500373D

 45 48  0  0  1  0  0  0  0  0999 V2000
   36.9360   31.8700   39.5640 C   0  0  1  0  0  0  0  0  0  0  0  0
   36.2940   30.6320   39.5600 C   0  0  0  0  0  0  0  0  0  0  0  0
   36.8430   31.0260   40.8700 C   0  0  1  0  0  0  0  0  0  0  0  0
   36.3380   32.8240   39.5790 H   0  0  0  0  0  0  0  0  0  0  0  0
   36.7890   29.7280   39.1000 H   0  0  0  0  0  0  0  0  0  0  0  0
   35.1860   30.5690   39.4160 H   0  0  0  0  0  0  0  0  0  0  0  0
   36.2760   31.5750   41.6320 H   0  0  0  0  0  0  0  0  0  0  0  0
   38.7950   31.3960   37.9640 C   0  0  0  0  0  0  0  0  0  0  0  0
   38.3130   32.1690   39.0680 C   0  0  0  0  0  0  0  0  0  0  0  0
   39.1030   33.1250   39.6210 C   0  0  0  0  0  0  0  0  0  0  0  0
   40.3520   33.3010   39.0740 N   0  0  0  0  0  0  0  0  0  0  0  0
   40.7950   32.5650   38.0310 C   0  0  0  0  0  0  0  0  0  0  0  0
   40.0270   31.5870   37.4420 N   0  0  0  0  0  0  0  0  0  0  0  0
   38.2070   30.6170   37.4820 H   0  0  0  0  0  0  0  0  0  0  0  0
   38.7500   33.7050   40.4450 H   0  0  0  0  0  0  0  0  0  0  0  0
   42.1010   32.8220   37.5370 N   0  0  0  0  0  0  0  0  0  0  0  0
   42.6250   34.1580   37.6520 C   0  0  0  0  0  3  0  0  0  0  0  0
   42.6150   34.6990   36.6820 H   0  0  0  0  0  0  0  0  0  0  0  0
   44.0800   34.1110   38.0900 C   0  0  0  0  0  3  0  0  0  0  0  0
   44.5670   35.0730   37.9010 H   0  0  0  0  0  0  0  0  0  0  0  0
   44.7850   33.1500   37.3700 O   0  0  0  0  0  0  0  0  0  0  0  0
   44.2710   31.8800   37.6050 C   0  0  0  0  0  2  0  0  0  0  0  0
   42.9010   31.7780   36.9270 C   0  0  0  0  0  2  0  0  0  0  0  0
   38.0660   30.3720   41.3970 C   0  0  0  0  0  0  0  0  0  0  0  0
   38.9140   30.6510   40.7380 H   0  0  0  0  0  0  0  0  0  0  0  0
   38.2420   30.7260   42.4260 H   0  0  0  0  0  0  0  0  0  0  0  0
   37.8210   28.9720   41.4100 N   0  0  0  0  0  0  0  0  0  0  0  0
   36.9580   28.4670   42.3910 C   0  0  0  0  0  0  0  0  0  0  0  0
   37.7160   28.0650   43.6710 C   0  0  0  0  0  0  0  0  0  0  0  0
   38.5720   26.8780   43.2970 C   0  0  0  0  0  0  0  0  0  0  0  0
   39.5190   27.3590   42.2290 C   0  0  0  0  0  0  0  0  0  0  0  0
   38.8650   28.0920   41.0910 C   0  0  2  0  0  0  0  0  0  0  0  0
   36.0180   28.9760   42.5930 H   0  0  0  0  0  0  0  0  0  0  0  0
   36.6140   27.4600   41.9980 H   0  0  0  0  0  0  0  0  0  0  0  0
   38.3710   28.9240   43.8980 H   0  0  0  0  0  0  0  0  0  0  0  0
   37.0320   27.7690   44.4650 H   0  0  0  0  0  0  0  0  0  0  0  0
   39.2250   26.5840   44.1600 H   0  0  0  0  0  0  0  0  0  0  0  0
   37.9760   26.0530   42.8940 H   0  0  0  0  0  0  0  0  0  0  0  0
   40.2980   28.0330   42.6350 H   0  0  0  0  0  0  0  0  0  0  0  0
   40.0730   26.4930   41.7790 H   0  0  0  0  0  0  0  0  0  0  0  0
   38.4650   27.3120   40.3980 H   0  0  0  0  0  0  0  0  0  0  0  0
   39.9830   28.7860   40.3250 C   0  0  0  0  0  0  0  0  0  0  0  0
   40.7140   28.0010   40.0550 H   0  0  0  0  0  0  0  0  0  0  0  0
   39.5780   29.3160   39.4370 H   0  0  0  0  0  0  0  0  0  0  0  0
   40.4530   29.5220   40.9990 H   0  0  0  0  0  0  0  0  0  0  0  0
  1  4  1  6  0  0  0
  1  3  1  0  0  0  0
  2  1  1  0  0  0  0
  2  3  1  0  0  0  0
  3 24  1  0  0  0  0
  3  7  1  1  0  0  0
  5  2  1  0  0  0  0
  6  2  1  0  0  0  0
  8  9  1  0  0  0  0
  9  1  1  0  0  0  0
  9 10  2  0  0  0  0
 10 15  1  0  0  0  0
 11 10  1  0  0  0  0
 12 11  2  0  0  0  0
 13  8  2  0  0  0  0
 13 12  1  0  0  0  0
 14  8  1  0  0  0  0
 16 17  1  0  0  0  0
 16 12  1  0  0  0  0
 17 19  1  0  0  0  0
 18 17  1  0  0  0  0
 20 19  1  0  0  0  0
 21 22  1  0  0  0  0
 21 19  1  0  0  0  0
 23 16  1  0  0  0  0
 23 22  1  0  0  0  0
 24 27  1  0  0  0  0
 24 26  1  0  0  0  0
 25 24  1  0  0  0  0
 27 28  1  0  0  0  0
 28 33  1  0  0  0  0
 28 29  1  0  0  0  0
 29 35  1  0  0  0  0
 29 36  1  0  0  0  0
 30 29  1  0  0  0  0
 30 37  1  0  0  0  0
 31 39  1  0  0  0  0
 31 30  1  0  0  0  0
 32 41  1  6  0  0  0
 32 27  1  0  0  0  0
 32 31  1  0  0  0  0
 34 28  1  0  0  0  0
 38 30  1  0  0  0  0
 40 31  1  0  0  0  0
 42 45  1  0  0  0  0
 42 32  1  0  0  0  0
 43 42  1  0  0  0  0
 44 42  1  0  0  0  0
M  END
>  <minimizedAffinity>
-5.70020676

$$$$

 OpenBabel03252500373D

 45 48  0  0  1  0  0  0  0  0999 V2000
   37.5020   28.4250   43.6720 C   0  0  1  0  0  0  0  0  0  0  0  0
   36.4850   27.5070   43.4130 C   0  0  0  0  0  0  0  0  0  0  0  0
   37.8390   26.9270   43.4110 C   0  0  1  0  0  0  0  0  0  0  0  0
   37.7030   28.7750   44.7230 H   0  0  0  0  0  0  0  0  0  0  0  0
   35.9680   27.4870   42.4100 H   0  0  0  0  0  0  0  0  0  0  0  0
   35.7580   27.2270   44.2160 H   0  0  0  0  0  0  0  0  0  0  0  0
   38.3200   26.4910   44.2970 H   0  0  0  0  0  0  0  0  0  0  0  0
   37.2470   29.8750   41.6530 C   0  0  0  0  0  0  0  0  0  0  0  0
   38.0890   29.4090   42.7130 C   0  0  0  0  0  0  0  0  0  0  0  0
   39.3660   29.8620   42.8120 C   0  0  0  0  0  0  0  0  0  0  0  0
   39.7860   30.7650   41.8630 N   0  0  0  0  0  0  0  0  0  0  0  0
   38.9810   31.1970   40.8690 C   0  0  0  0  0  0  0  0  0  0  0  0
   37.6820   30.7640   40.7320 N   0  0  0  0  0  0  0  0  0  0  0  0
   36.2170   29.5470   41.5240 H   0  0  0  0  0  0  0  0  0  0  0  0
   39.9990   29.5180   43.5990 H   0  0  0  0  0  0  0  0  0  0  0  0
   39.5090   32.1310   39.9380 N   0  0  0  0  0  0  0  0  0  0  0  0
   40.5250   33.0460   40.3890 C   0  0  0  0  0  3  0  0  0  0  0  0
   40.1280   34.0720   40.5430 H   0  0  0  0  0  0  0  0  0  0  0  0
   41.6150   33.1720   39.3380 C   0  0  0  0  0  3  0  0  0  0  0  0
   42.2260   34.0610   39.5270 H   0  0  0  0  0  0  0  0  0  0  0  0
   41.0660   33.3180   38.0670 O   0  0  0  0  0  0  0  0  0  0  0  0
   40.3230   32.1970   37.7170 C   0  0  0  0  0  2  0  0  0  0  0  0
   39.0480   32.1770   38.5650 C   0  0  0  0  0  2  0  0  0  0  0  0
   38.4880   26.5420   42.1340 C   0  0  0  0  0  0  0  0  0  0  0  0
   37.6900   26.2500   41.4200 H   0  0  0  0  0  0  0  0  0  0  0  0
   39.0550   27.4050   41.7500 H   0  0  0  0  0  0  0  0  0  0  0  0
   39.3820   25.4740   42.4220 N   0  0  0  0  0  0  0  0  0  0  0  0
   40.0000   25.4590   43.6800 C   0  0  0  0  0  0  0  0  0  0  0  0
   41.3440   26.2120   43.6680 C   0  0  0  0  0  0  0  0  0  0  0  0
   42.2730   25.3980   42.7980 C   0  0  0  0  0  0  0  0  0  0  0  0
   41.6510   25.3690   41.4270 C   0  0  0  0  0  0  0  0  0  0  0  0
   40.2010   24.9740   41.4010 C   0  0  2  0  0  0  0  0  0  0  0  0
   39.4070   25.6550   44.5720 H   0  0  0  0  0  0  0  0  0  0  0  0
   40.3340   24.3870   43.8350 H   0  0  0  0  0  0  0  0  0  0  0  0
   41.1310   27.1730   43.1670 H   0  0  0  0  0  0  0  0  0  0  0  0
   41.7710   26.2850   44.6670 H   0  0  0  0  0  0  0  0  0  0  0  0
   43.2500   25.9350   42.6680 H   0  0  0  0  0  0  0  0  0  0  0  0
   42.3790   24.3710   43.1590 H   0  0  0  0  0  0  0  0  0  0  0  0
   41.7220   26.3480   40.9150 H   0  0  0  0  0  0  0  0  0  0  0  0
   42.1960   24.6420   40.7670 H   0  0  0  0  0  0  0  0  0  0  0  0
   40.1750   23.8580   41.4480 H   0  0  0  0  0  0  0  0  0  0  0  0
   39.6780   25.3380   40.0190 C   0  0  0  0  0  0  0  0  0  0  0  0
   40.3410   24.8380   39.2890 H   0  0  0  0  0  0  0  0  0  0  0  0
   38.6150   25.0330   39.9090 H   0  0  0  0  0  0  0  0  0  0  0  0
   39.7500   26.4330   39.9040 H   0  0  0  0  0  0  0  0  0  0  0  0
  1  4  1  1  0  0  0
  2  1  1  0  0  0  0
  2  6  1  0  0  0  0
  3  2  1  0  0  0  0
  3  1  1  0  0  0  0
  3  7  1  1  0  0  0
  5  2  1  0  0  0  0
  8  9  1  0  0  0  0
  9 10  2  0  0  0  0
  9  1  1  0  0  0  0
 10 15  1  0  0  0  0
 11 10  1  0  0  0  0
 12 11  2  0  0  0  0
 13 12  1  0  0  0  0
 13  8  2  0  0  0  0
 14  8  1  0  0  0  0
 16 17  1  0  0  0  0
 16 12  1  0  0  0  0
 17 18  1  0  0  0  0
 19 20  1  0  0  0  0
 19 17  1  0  0  0  0
 21 19  1  0  0  0  0
 22 21  1  0  0  0  0
 22 23  1  0  0  0  0
 23 16  1  0  0  0  0
 24 27  1  0  0  0  0
 24  3  1  0  0  0  0
 25 24  1  0  0  0  0
 26 24  1  0  0  0  0
 27 28  1  0  0  0  0
 28 34  1  0  0  0  0
 28 33  1  0  0  0  0
 29 28  1  0  0  0  0
 29 36  1  0  0  0  0
 30 38  1  0  0  0  0
 30 29  1  0  0  0  0
 31 30  1  0  0  0  0
 32 31  1  0  0  0  0
 32 41  1  1  0  0  0
 32 27  1  0  0  0  0
 35 29  1  0  0  0  0
 37 30  1  0  0  0  0
 39 31  1  0  0  0  0
 40 31  1  0  0  0  0
 42 32  1  0  0  0  0
 43 42  1  0  0  0  0
 44 42  1  0  0  0  0
 45 42  1  0  0  0  0
M  END
>  <minimizedAffinity>
-5.69737577

$$$$

 OpenBabel03252500373D

 45 48  0  0  1  0  0  0  0  0999 V2000
   38.3190   32.7640   39.7990 C   0  0  1  0  0  0  0  0  0  0  0  0
   37.0030   32.4330   39.4780 C   0  0  0  0  0  0  0  0  0  0  0  0
   37.5270   31.7480   40.6730 C   0  0  1  0  0  0  0  0  0  0  0  0
   38.5560   33.7390   40.3100 H   0  0  0  0  0  0  0  0  0  0  0  0
   36.7760   31.7480   38.6110 H   0  0  0  0  0  0  0  0  0  0  0  0
   36.1870   33.1920   39.5820 H   0  0  0  0  0  0  0  0  0  0  0  0
   37.4230   32.1340   41.6960 H   0  0  0  0  0  0  0  0  0  0  0  0
   40.7570   32.2290   39.9330 C   0  0  0  0  0  0  0  0  0  0  0  0
   39.5600   32.2460   39.1460 C   0  0  0  0  0  0  0  0  0  0  0  0
   39.5870   31.8060   37.8630 C   0  0  0  0  0  0  0  0  0  0  0  0
   40.7940   31.3560   37.3790 N   0  0  0  0  0  0  0  0  0  0  0  0
   41.9150   31.3450   38.1310 C   0  0  0  0  0  0  0  0  0  0  0  0
   41.9310   31.7830   39.4360 N   0  0  0  0  0  0  0  0  0  0  0  0
   40.7940   32.5710   40.9660 H   0  0  0  0  0  0  0  0  0  0  0  0
   38.6990   31.8160   37.2710 H   0  0  0  0  0  0  0  0  0  0  0  0
   43.1140   30.8620   37.5410 N   0  0  0  0  0  0  0  0  0  0  0  0
   43.0120   29.8540   36.5180 C   0  0  0  0  0  3  0  0  0  0  0  0
   43.2950   28.8460   36.8910 H   0  0  0  0  0  0  0  0  0  0  0  0
   43.9750   30.1660   35.3830 C   0  0  0  0  0  3  0  0  0  0  0  0
   44.1240   29.2810   34.7550 H   0  0  0  0  0  0  0  0  0  0  0  0
   45.2250   30.5290   35.8780 O   0  0  0  0  0  0  0  0  0  0  0  0
   45.1380   31.6890   36.6380 C   0  0  0  0  0  2  0  0  0  0  0  0
   44.4130   31.3580   37.9460 C   0  0  0  0  0  2  0  0  0  0  0  0
   37.8850   30.3090   40.6160 C   0  0  0  0  0  0  0  0  0  0  0  0
   37.3560   29.8600   39.7500 H   0  0  0  0  0  0  0  0  0  0  0  0
   38.9770   30.2210   40.4920 H   0  0  0  0  0  0  0  0  0  0  0  0
   37.4970   29.7310   41.8550 N   0  0  0  0  0  0  0  0  0  0  0  0
   38.4710   29.6090   42.8550 C   0  0  0  0  0  0  0  0  0  0  0  0
   39.2110   28.2610   42.7750 C   0  0  0  0  0  0  0  0  0  0  0  0
   38.1940   27.2020   43.1300 C   0  0  0  0  0  0  0  0  0  0  0  0
   37.1090   27.2920   42.0900 C   0  0  0  0  0  0  0  0  0  0  0  0
   36.5730   28.6770   41.8570 C   0  0  2  0  0  0  0  0  0  0  0  0
   39.1310   30.4480   43.0660 H   0  0  0  0  0  0  0  0  0  0  0  0
   37.8920   29.5000   43.8240 H   0  0  0  0  0  0  0  0  0  0  0  0
   39.4910   28.1500   41.7120 H   0  0  0  0  0  0  0  0  0  0  0  0
   40.0330   28.2120   43.4870 H   0  0  0  0  0  0  0  0  0  0  0  0
   38.6400   26.1800   43.0040 H   0  0  0  0  0  0  0  0  0  0  0  0
   37.7520   27.3710   44.1160 H   0  0  0  0  0  0  0  0  0  0  0  0
   37.4420   26.9110   41.1040 H   0  0  0  0  0  0  0  0  0  0  0  0
   36.2340   26.6510   42.3810 H   0  0  0  0  0  0  0  0  0  0  0  0
   35.8260   28.8680   42.6670 H   0  0  0  0  0  0  0  0  0  0  0  0
   35.7700   28.6180   40.5660 C   0  0  0  0  0  0  0  0  0  0  0  0
   35.0230   27.8120   40.6940 H   0  0  0  0  0  0  0  0  0  0  0  0
   35.3020   29.6030   40.3500 H   0  0  0  0  0  0  0  0  0  0  0  0
   36.4610   28.3630   39.7450 H   0  0  0  0  0  0  0  0  0  0  0  0
  1  4  1  1  0  0  0
  1  3  1  0  0  0  0
  2  6  1  0  0  0  0
  2  1  1  0  0  0  0
  2  3  1  0  0  0  0
  3  7  1  1  0  0  0
  5  2  1  0  0  0  0
  8 14  1  0  0  0  0
  9  1  1  0  0  0  0
  9  8  2  0  0  0  0
 10  9  1  0  0  0  0
 11 10  2  0  0  0  0
 11 12  1  0  0  0  0
 12 13  2  0  0  0  0
 13  8  1  0  0  0  0
 15 10  1  0  0  0  0
 16 23  1  0  0  0  0
 16 12  1  0  0  0  0
 17 18  1  0  0  0  0
 17 16  1  0  0  0  0
 19 21  1  0  0  0  0
 19 17  1  0  0  0  0
 20 19  1  0  0  0  0
 21 22  1  0  0  0  0
 22 23  1  0  0  0  0
 24  3  1  0  0  0  0
 24 27  1  0  0  0  0
 25 24  1  0  0  0  0
 26 24  1  0  0  0  0
 27 32  1  0  0  0  0
 27 28  1  0  0  0  0
 28 33  1  0  0  0  0
 28 34  1  0  0  0  0
 29 28  1  0  0  0  0
 29 30  1  0  0  0  0
 29 36  1  0  0  0  0
 30 38  1  0  0  0  0
 31 40  1  0  0  0  0
 31 30  1  0  0  0  0
 32 31  1  0  0  0  0
 32 41  1  1  0  0  0
 35 29  1  0  0  0  0
 37 30  1  0  0  0  0
 39 31  1  0  0  0  0
 42 43  1  0  0  0  0
 42 32  1  0  0  0  0
 44 42  1  0  0  0  0
 45 42  1  0  0  0  0
M  END
>  <minimizedAffinity>
-5.46593237

$$$$

 OpenBabel03252500373D

 45 48  0  0  1  0  0  0  0  0999 V2000
   36.9490   31.2170   38.5170 C   0  0  1  0  0  0  0  0  0  0  0  0
   36.6890   30.1400   37.6700 C   0  0  0  0  0  0  0  0  0  0  0  0
   36.5090   29.8430   39.1020 C   0  0  1  0  0  0  0  0  0  0  0  0
   36.1950   32.0440   38.6400 H   0  0  0  0  0  0  0  0  0  0  0  0
   37.5330   29.5750   37.1790 H   0  0  0  0  0  0  0  0  0  0  0  0
   35.8020   30.1590   36.9880 H   0  0  0  0  0  0  0  0  0  0  0  0
   35.5550   29.9510   39.6350 H   0  0  0  0  0  0  0  0  0  0  0  0
   39.3810   31.5340   38.0370 C   0  0  0  0  0  0  0  0  0  0  0  0
   38.2900   31.7180   38.9460 C   0  0  0  0  0  0  0  0  0  0  0  0
   38.5010   32.3240   40.1430 C   0  0  0  0  0  0  0  0  0  0  0  0
   39.7830   32.7370   40.4200 N   0  0  0  0  0  0  0  0  0  0  0  0
   40.8030   32.5580   39.5540 C   0  0  0  0  0  0  0  0  0  0  0  0
   40.6330   31.9490   38.3310 N   0  0  0  0  0  0  0  0  0  0  0  0
   39.2710   31.0550   37.0660 H   0  0  0  0  0  0  0  0  0  0  0  0
   37.6920   32.4640   40.8260 H   0  0  0  0  0  0  0  0  0  0  0  0
   42.0920   33.0200   39.9320 N   0  0  0  0  0  0  0  0  0  0  0  0
   42.1800   34.1610   40.8050 C   0  0  0  0  0  3  0  0  0  0  0  0
   42.4780   35.0840   40.2630 H   0  0  0  0  0  0  0  0  0  0  0  0
   43.2510   33.9290   41.8580 C   0  0  0  0  0  3  0  0  0  0  0  0
   43.5300   34.8760   42.3330 H   0  0  0  0  0  0  0  0  0  0  0  0
   44.4070   33.4050   41.2850 O   0  0  0  0  0  0  0  0  0  0  0  0
   44.1550   32.1640   40.7130 C   0  0  0  0  0  2  0  0  0  0  0  0
   43.2990   32.3720   39.4600 C   0  0  0  0  0  2  0  0  0  0  0  0
   37.5020   29.0130   39.8260 C   0  0  0  0  0  0  0  0  0  0  0  0
   37.7010   28.1080   39.2140 H   0  0  0  0  0  0  0  0  0  0  0  0
   38.4250   29.6000   39.9610 H   0  0  0  0  0  0  0  0  0  0  0  0
   36.9440   28.7020   41.0960 N   0  0  0  0  0  0  0  0  0  0  0  0
   37.1940   29.5850   42.1550 C   0  0  0  0  0  0  0  0  0  0  0  0
   38.4680   29.2050   42.9320 C   0  0  0  0  0  0  0  0  0  0  0  0
   38.1650   27.8930   43.6190 C   0  0  0  0  0  0  0  0  0  0  0  0
   37.8750   26.9000   42.5240 C   0  0  0  0  0  0  0  0  0  0  0  0
   36.8740   27.3630   41.5030 C   0  0  2  0  0  0  0  0  0  0  0  0
   37.0940   30.6570   41.9950 H   0  0  0  0  0  0  0  0  0  0  0  0
   36.3820   29.3730   42.9180 H   0  0  0  0  0  0  0  0  0  0  0  0
   39.2370   29.0360   42.1580 H   0  0  0  0  0  0  0  0  0  0  0  0
   38.7140   29.9490   43.6880 H   0  0  0  0  0  0  0  0  0  0  0  0
   39.0830   27.5050   44.1330 H   0  0  0  0  0  0  0  0  0  0  0  0
   37.2900   27.9640   44.2710 H   0  0  0  0  0  0  0  0  0  0  0  0
   38.7880   26.6150   41.9660 H   0  0  0  0  0  0  0  0  0  0  0  0
   37.4760   25.9460   42.9590 H   0  0  0  0  0  0  0  0  0  0  0  0
   35.8630   27.1840   41.9460 H   0  0  0  0  0  0  0  0  0  0  0  0
   36.9800   26.4020   40.3270 C   0  0  0  0  0  0  0  0  0  0  0  0
   36.8370   25.3840   40.7370 H   0  0  0  0  0  0  0  0  0  0  0  0
   36.2330   26.6560   39.5450 H   0  0  0  0  0  0  0  0  0  0  0  0
   37.9930   26.4970   39.8990 H   0  0  0  0  0  0  0  0  0  0  0  0
  1  4  1  1  0  0  0
  1  9  1  0  0  0  0
  1  3  1  0  0  0  0
  2  1  1  0  0  0  0
  2  3  1  0  0  0  0
  3  7  1  1  0  0  0
  3 24  1  0  0  0  0
  5  2  1  0  0  0  0
  6  2  1  0  0  0  0
  8 13  2  0  0  0  0
  8  9  1  0  0  0  0
  9 10  2  0  0  0  0
 10 11  1  0  0  0  0
 10 15  1  0  0  0  0
 12 16  1  0  0  0  0
 12 11  2  0  0  0  0
 13 12  1  0  0  0  0
 14  8  1  0  0  0  0
 16 17  1  0  0  0  0
 17 19  1  0  0  0  0
 18 17  1  0  0  0  0
 19 20  1  0  0  0  0
 21 19  1  0  0  0  0
 22 21  1  0  0  0  0
 23 16  1  0  0  0  0
 23 22  1  0  0  0  0
 24 26  1  0  0  0  0
 24 27  1  0  0  0  0
 25 24  1  0  0  0  0
 27 32  1  0  0  0  0
 27 28  1  0  0  0  0
 28 34  1  0  0  0  0
 28 29  1  0  0  0  0
 29 30  1  0  0  0  0
 29 36  1  0  0  0  0
 30 37  1  0  0  0  0
 30 38  1  0  0  0  0
 31 40  1  0  0  0  0
 31 30  1  0  0  0  0
 32 41  1  1  0  0  0
 32 31  1  0  0  0  0
 33 28  1  0  0  0  0
 35 29  1  0  0  0  0
 39 31  1  0  0  0  0
 42 43  1  0  0  0  0
 42 32  1  0  0  0  0
 44 42  1  0  0  0  0
 45 42  1  0  0  0  0
M  END
>  <minimizedAffinity>
-5.40142822

$$$$

 OpenBabel03252500373D

 45 48  0  0  1  0  0  0  0  0999 V2000
   37.0450   31.4520   39.4050 C   0  0  1  0  0  0  0  0  0  0  0  0
   37.3050   32.7560   39.8260 C   0  0  0  0  0  0  0  0  0  0  0  0
   38.2590   32.2400   38.8290 C   0  0  1  0  0  0  0  0  0  0  0  0
   36.2250   31.2430   38.6620 H   0  0  0  0  0  0  0  0  0  0  0  0
   37.7550   32.9550   40.8420 H   0  0  0  0  0  0  0  0  0  0  0  0
   36.6080   33.5880   39.5540 H   0  0  0  0  0  0  0  0  0  0  0  0
   38.1410   32.3690   37.7450 H   0  0  0  0  0  0  0  0  0  0  0  0
   37.3610   30.2450   41.5700 C   0  0  0  0  0  0  0  0  0  0  0  0
   37.3660   30.1910   40.1390 C   0  0  0  0  0  0  0  0  0  0  0  0
   37.6580   29.0250   39.5070 C   0  0  0  0  0  0  0  0  0  0  0  0
   37.9390   27.9350   40.2980 N   0  0  0  0  0  0  0  0  0  0  0  0
   37.9300   28.0000   41.6460 C   0  0  0  0  0  0  0  0  0  0  0  0
   37.6400   29.1600   42.3270 N   0  0  0  0  0  0  0  0  0  0  0  0
   37.1350   31.1510   42.1300 H   0  0  0  0  0  0  0  0  0  0  0  0
   37.6640   28.9780   38.4400 H   0  0  0  0  0  0  0  0  0  0  0  0
   38.2340   26.8190   42.3760 N   0  0  0  0  0  0  0  0  0  0  0  0
   37.8980   25.5480   41.7870 C   0  0  0  0  0  3  0  0  0  0  0  0
   36.9990   25.0930   42.2550 H   0  0  0  0  0  0  0  0  0  0  0  0
   39.0310   24.5580   42.0070 C   0  0  0  0  0  3  0  0  0  0  0  0
   38.6820   23.5350   41.8340 H   0  0  0  0  0  0  0  0  0  0  0  0
   39.4940   24.6150   43.3190 O   0  0  0  0  0  0  0  0  0  0  0  0
   40.0180   25.8690   43.6050 C   0  0  0  0  0  2  0  0  0  0  0  0
   38.8630   26.8730   43.6790 C   0  0  0  0  0  2  0  0  0  0  0  0
   39.6320   31.8520   39.2350 C   0  0  0  0  0  0  0  0  0  0  0  0
   39.5590   30.9360   39.8560 H   0  0  0  0  0  0  0  0  0  0  0  0
   40.2280   31.6600   38.3290 H   0  0  0  0  0  0  0  0  0  0  0  0
   40.1860   32.9520   39.9460 N   0  0  0  0  0  0  0  0  0  0  0  0
   40.5820   34.0760   39.2090 C   0  0  0  0  0  0  0  0  0  0  0  0
   42.0540   33.9810   38.7630 C   0  0  0  0  0  0  0  0  0  0  0  0
   42.8800   34.0660   40.0250 C   0  0  0  0  0  0  0  0  0  0  0  0
   42.4860   32.8820   40.8690 C   0  0  0  0  0  0  0  0  0  0  0  0
   41.0050   32.7060   41.0560 C   0  0  2  0  0  0  0  0  0  0  0  0
   39.9250   34.4690   38.4350 H   0  0  0  0  0  0  0  0  0  0  0  0
   40.6190   34.9270   39.9570 H   0  0  0  0  0  0  0  0  0  0  0  0
   42.1580   32.9690   38.3320 H   0  0  0  0  0  0  0  0  0  0  0  0
   42.3280   34.8050   38.1070 H   0  0  0  0  0  0  0  0  0  0  0  0
   43.9650   33.9110   39.7880 H   0  0  0  0  0  0  0  0  0  0  0  0
   42.6770   34.9820   40.5870 H   0  0  0  0  0  0  0  0  0  0  0  0
   42.8700   31.9290   40.4560 H   0  0  0  0  0  0  0  0  0  0  0  0
   42.9330   32.9690   41.8950 H   0  0  0  0  0  0  0  0  0  0  0  0
   40.7030   33.4030   41.8750 H   0  0  0  0  0  0  0  0  0  0  0  0
   40.8040   31.3050   41.6150 C   0  0  0  0  0  0  0  0  0  0  0  0
   41.4300   31.2350   42.5250 H   0  0  0  0  0  0  0  0  0  0  0  0
   39.7290   31.1160   41.8220 H   0  0  0  0  0  0  0  0  0  0  0  0
   41.1550   30.5810   40.8600 H   0  0  0  0  0  0  0  0  0  0  0  0
  1  4  1  6  0  0  0
  1  2  1  0  0  0  0
  1  9  1  0  0  0  0
  2  5  1  0  0  0  0
  3  7  1  6  0  0  0
  3 24  1  0  0  0  0
  3  1  1  0  0  0  0
  3  2  1  0  0  0  0
  6  2  1  0  0  0  0
  8 14  1  0  0  0  0
  8 13  1  0  0  0  0
  9  8  2  0  0  0  0
 10  9  1  0  0  0  0
 10 11  2  0  0  0  0
 11 12  1  0  0  0  0
 12 13  2  0  0  0  0
 12 16  1  0  0  0  0
 15 10  1  0  0  0  0
 16 23  1  0  0  0  0
 17 19  1  0  0  0  0
 17 18  1  0  0  0  0
 17 16  1  0  0  0  0
 19 21  1  0  0  0  0
 20 19  1  0  0  0  0
 21 22  1  0  0  0  0
 22 23  1  0  0  0  0
 24 25  1  0  0  0  0
 24 27  1  0  0  0  0
 26 24  1  0  0  0  0
 27 32  1  0  0  0  0
 28 27  1  0  0  0  0
 28 34  1  0  0  0  0
 29 28  1  0  0  0  0
 29 30  1  0  0  0  0
 30 38  1  0  0  0  0
 30 31  1  0  0  0  0
 31 32  1  0  0  0  0
 31 40  1  0  0  0  0
 32 42  1  0  0  0  0
 32 41  1  1  0  0  0
 33 28  1  0  0  0  0
 35 29  1  0  0  0  0
 36 29  1  0  0  0  0
 37 30  1  0  0  0  0
 39 31  1  0  0  0  0
 42 44  1  0  0  0  0
 42 43  1  0  0  0  0
 45 42  1  0  0  0  0
M  END
>  <minimizedAffinity>
-5.30151796

$$$$

 OpenBabel03252500373D

 45 48  0  0  1  0  0  0  0  0999 V2000
   37.2150   31.4740   39.2350 C   0  0  1  0  0  0  0  0  0  0  0  0
   37.3130   32.7870   39.6950 C   0  0  0  0  0  0  0  0  0  0  0  0
   38.4370   32.3560   38.8460 C   0  0  1  0  0  0  0  0  0  0  0  0
   36.5290   31.2170   38.3790 H   0  0  0  0  0  0  0  0  0  0  0  0
   37.5940   33.0030   40.7660 H   0  0  0  0  0  0  0  0  0  0  0  0
   36.6030   33.5700   39.3270 H   0  0  0  0  0  0  0  0  0  0  0  0
   38.4700   32.4920   37.7570 H   0  0  0  0  0  0  0  0  0  0  0  0
   37.4210   30.2970   41.4300 C   0  0  0  0  0  0  0  0  0  0  0  0
   37.5180   30.2280   40.0030 C   0  0  0  0  0  0  0  0  0  0  0  0
   37.8760   29.0640   39.4040 C   0  0  0  0  0  0  0  0  0  0  0  0
   38.1310   27.9890   40.2240 N   0  0  0  0  0  0  0  0  0  0  0  0
   38.0360   28.0680   41.5690 C   0  0  0  0  0  0  0  0  0  0  0  0
   37.6770   29.2280   42.2160 N   0  0  0  0  0  0  0  0  0  0  0  0
   37.1390   31.2040   41.9630 H   0  0  0  0  0  0  0  0  0  0  0  0
   37.9500   29.0050   38.3410 H   0  0  0  0  0  0  0  0  0  0  0  0
   38.3210   26.9030   42.3300 N   0  0  0  0  0  0  0  0  0  0  0  0
   38.0530   25.6180   41.7370 C   0  0  0  0  0  3  0  0  0  0  0  0
   37.1360   25.1460   42.1530 H   0  0  0  0  0  0  0  0  0  0  0  0
   39.1920   24.6580   42.0390 C   0  0  0  0  0  3  0  0  0  0  0  0
   38.8780   23.6250   41.8570 H   0  0  0  0  0  0  0  0  0  0  0  0
   39.5690   24.7390   43.3770 O   0  0  0  0  0  0  0  0  0  0  0  0
   40.0460   26.0090   43.6800 C   0  0  0  0  0  2  0  0  0  0  0  0
   38.8660   26.9850   43.6700 C   0  0  0  0  0  2  0  0  0  0  0  0
   39.7620   32.0640   39.4460 C   0  0  0  0  0  0  0  0  0  0  0  0
   39.7600   32.4580   40.4840 H   0  0  0  0  0  0  0  0  0  0  0  0
   39.9180   30.9730   39.4470 H   0  0  0  0  0  0  0  0  0  0  0  0
   40.7420   32.6870   38.6260 N   0  0  0  0  0  0  0  0  0  0  0  0
   40.8420   32.2670   37.2930 C   0  0  0  0  0  0  0  0  0  0  0  0
   41.8440   31.1080   37.1290 C   0  0  0  0  0  0  0  0  0  0  0  0
   43.2070   31.6850   37.4310 C   0  0  0  0  0  0  0  0  0  0  0  0
   43.1560   32.1680   38.8570 C   0  0  0  0  0  0  0  0  0  0  0  0
   41.9770   33.0400   39.1850 C   0  0  2  0  0  0  0  0  0  0  0  0
   39.9380   32.1380   36.7010 H   0  0  0  0  0  0  0  0  0  0  0  0
   41.3720   33.1120   36.7530 H   0  0  0  0  0  0  0  0  0  0  0  0
   41.5760   30.3840   37.9200 H   0  0  0  0  0  0  0  0  0  0  0  0
   41.8430   30.7180   36.1130 H   0  0  0  0  0  0  0  0  0  0  0  0
   43.9810   30.8740   37.4210 H   0  0  0  0  0  0  0  0  0  0  0  0
   43.4460   32.5320   36.7810 H   0  0  0  0  0  0  0  0  0  0  0  0
   43.1420   31.3290   39.5810 H   0  0  0  0  0  0  0  0  0  0  0  0
   44.0760   32.7620   39.1000 H   0  0  0  0  0  0  0  0  0  0  0  0
   42.2370   34.0690   38.8360 H   0  0  0  0  0  0  0  0  0  0  0  0
   41.9140   33.1270   40.7040 C   0  0  0  0  0  0  0  0  0  0  0  0
   42.9040   33.4840   41.0410 H   0  0  0  0  0  0  0  0  0  0  0  0
   41.0870   33.7970   41.0240 H   0  0  0  0  0  0  0  0  0  0  0  0
   41.7250   32.1130   41.0960 H   0  0  0  0  0  0  0  0  0  0  0  0
  1  4  1  6  0  0  0
  1  2  1  0  0  0  0
  1  9  1  0  0  0  0
  2  5  1  0  0  0  0
  3  7  1  6  0  0  0
  3  1  1  0  0  0  0
  3 24  1  0  0  0  0
  3  2  1  0  0  0  0
  6  2  1  0  0  0  0
  8 14  1  0  0  0  0
  8 13  1  0  0  0  0
  9  8  2  0  0  0  0
 10  9  1  0  0  0  0
 10 11  2  0  0  0  0
 11 12  1  0  0  0  0
 12 13  2  0  0  0  0
 12 16  1  0  0  0  0
 15 10  1  0  0  0  0
 16 23  1  0  0  0  0
 17 19  1  0  0  0  0
 17 18  1  0  0  0  0
 17 16  1  0  0  0  0
 19 21  1  0  0  0  0
 20 19  1  0  0  0  0
 21 22  1  0  0  0  0
 23 22  1  0  0  0  0
 24 26  1  0  0  0  0
 24 25  1  0  0  0  0
 27 32  1  0  0  0  0
 27 24  1  0  0  0  0
 28 27  1  0  0  0  0
 29 28  1  0  0  0  0
 29 30  1  0  0  0  0
 29 35  1  0  0  0  0
 30 31  1  0  0  0  0
 31 40  1  0  0  0  0
 31 32  1  0  0  0  0
 31 39  1  0  0  0  0
 32 41  1  6  0  0  0
 32 42  1  0  0  0  0
 33 28  1  0  0  0  0
 34 28  1  0  0  0  0
 36 29  1  0  0  0  0
 37 30  1  0  0  0  0
 38 30  1  0  0  0  0
 42 44  1  0  0  0  0
 42 43  1  0  0  0  0
 42 45  1  0  0  0  0
M  END
>  <minimizedAffinity>
-5.26843691

$$$$
