
 OpenBabel03252507233D

 46 49  0  0  1  0  0  0  0  0999 V2000
   39.2180   29.6820   40.2530 C   0  0  0  0  0  0  0  0  0  0  0  0
   39.8250   29.2290   39.2390 O   0  0  0  0  0  0  0  0  0  0  0  0
   38.8410   28.8760   41.3560 N   0  0  0  0  0  0  0  0  0  0  0  0
   38.9580   29.1260   42.8040 C   0  0  0  0  0  0  0  0  0  0  0  0
   37.6160   28.8930   43.4700 C   0  0  0  0  0  0  0  0  0  0  0  0
   37.2090   27.4500   43.3350 C   0  0  0  0  0  0  0  0  0  0  0  0
   38.0980   26.7690   42.3170 C   0  0  0  0  0  0  0  0  0  0  0  0
   38.2580   27.5880   41.0850 C   0  0  2  0  0  0  0  0  0  0  0  0
   39.7750   28.5410   43.2410 H   0  0  0  0  0  0  0  0  0  0  0  0
   39.1390   30.2350   42.8950 H   0  0  0  0  0  0  0  0  0  0  0  0
   37.6400   29.2600   44.5130 H   0  0  0  0  0  0  0  0  0  0  0  0
   36.8670   29.4790   42.8780 H   0  0  0  0  0  0  0  0  0  0  0  0
   36.1270   27.3420   43.1090 H   0  0  0  0  0  0  0  0  0  0  0  0
   37.4070   26.9700   44.3350 H   0  0  0  0  0  0  0  0  0  0  0  0
   39.1030   26.6630   42.8040 H   0  0  0  0  0  0  0  0  0  0  0  0
   37.7470   25.7540   42.0960 H   0  0  0  0  0  0  0  0  0  0  0  0
   37.2090   27.8010   40.7020 H   0  0  0  0  0  0  0  0  0  0  0  0
   39.9120   31.9930   40.6900 C   0  0  0  0  0  0  0  0  0  0  0  0
   38.8960   31.0920   40.2830 C   0  0  0  0  0  0  0  0  0  0  0  0
   37.6570   31.5750   39.9340 C   0  0  0  0  0  0  0  0  0  0  0  0
   37.4480   32.9000   39.9910 N   0  0  0  0  0  0  0  0  0  0  0  0
   38.4070   33.7860   40.3780 C   0  0  0  0  0  0  0  0  0  0  0  0
   39.6280   33.3060   40.7210 N   0  0  0  0  0  0  0  0  0  0  0  0
   40.8910   31.6600   40.9700 H   0  0  0  0  0  0  0  0  0  0  0  0
   38.0770   34.8130   40.3700 H   0  0  0  0  0  0  0  0  0  0  0  0
   36.6300   30.6240   39.5240 C   0  0  0  0  0  0  0  0  0  0  0  0
   35.7580   30.1340   40.4350 C   0  0  0  0  0  0  0  0  0  0  0  0
   34.7870   29.2340   40.0260 C   0  0  0  0  0  0  0  0  0  0  0  0
   34.6680   28.8100   38.7110 C   0  0  0  0  0  0  0  0  0  0  0  0
   35.5860   29.3450   37.8260 C   0  0  0  0  0  0  0  0  0  0  0  0
   36.5240   30.2170   38.2400 N   0  0  0  0  0  0  0  0  0  0  0  0
   35.7450   30.3850   41.4840 H   0  0  0  0  0  0  0  0  0  0  0  0
   34.0520   28.8030   40.7010 H   0  0  0  0  0  0  0  0  0  0  0  0
   33.9330   28.1130   38.3400 H   0  0  0  0  0  0  0  0  0  0  0  0
   35.5900   29.0880   36.7600 H   0  0  0  0  0  0  0  0  0  0  0  0
   38.9750   26.8080   40.0380 C   0  0  0  0  0  0  0  0  0  0  0  0
   39.5150   27.4240   39.3230 H   0  0  0  0  0  0  0  0  0  0  0  0
   38.1730   26.2420   39.4720 H   0  0  0  0  0  0  0  0  0  0  0  0
   39.8620   25.7860   40.5470 N   0  0  0  0  0  0  0  0  0  0  0  0
   39.7100   24.5590   39.8590 C   0  0  0  0  0  3  0  0  0  0  0  0
   38.6740   24.3620   39.5630 H   0  0  0  0  0  0  0  0  0  0  0  0
   40.6760   24.3620   38.7020 C   0  0  0  0  0  3  0  0  0  0  0  0
   40.4730   23.3310   38.3190 H   0  0  0  0  0  0  0  0  0  0  0  0
   41.9660   24.3710   39.1660 O   0  0  0  0  0  0  0  0  0  0  0  0
   42.2260   25.1980   40.2300 C   0  0  0  0  0  2  0  0  0  0  0  0
   41.2020   26.2810   40.4110 C   0  0  0  0  0  2  0  0  0  0  0  0
  1 19  1  0  0  0  0
  1  3  1  0  0  0  0
  2  1  2  0  0  0  0
  3  4  1  0  0  0  0
  4 10  1  0  0  0  0
  4  9  1  0  0  0  0
  4  5  1  0  0  0  0
  5 11  1  0  0  0  0
  6  5  1  0  0  0  0
  6 14  1  0  0  0  0
  7 15  1  0  0  0  0
  7  6  1  0  0  0  0
  8 17  1  6  0  0  0
  8  3  1  0  0  0  0
  8  7  1  0  0  0  0
 12  5  1  0  0  0  0
 13  6  1  0  0  0  0
 16  7  1  0  0  0  0
 18 23  1  0  0  0  0
 18 24  1  0  0  0  0
 19 18  2  0  0  0  0
 20 21  2  0  0  0  0
 20 19  1  0  0  0  0
 21 22  1  0  0  0  0
 22 23  2  0  0  0  0
 25 22  1  0  0  0  0
 26 20  1  0  0  0  0
 26 27  1  0  0  0  0
 27 32  1  0  0  0  0
 28 27  2  0  0  0  0
 28 33  1  0  0  0  0
 29 28  1  0  0  0  0
 30 31  1  0  0  0  0
 30 29  2  0  0  0  0
 31 26  2  0  0  0  0
 34 29  1  0  0  0  0
 35 30  1  0  0  0  0
 36 39  1  0  0  0  0
 36  8  1  0  0  0  0
 37 36  1  0  0  0  0
 38 36  1  0  0  0  0
 40 39  1  0  0  0  0
 41 40  1  0  0  0  0
 42 44  1  0  0  0  0
 42 40  1  0  0  0  0
 43 42  1  0  0  0  0
 44 45  1  0  0  0  0
 45 46  1  0  0  0  0
 46 39  1  0  0  0  0
M  END
>  <minimizedAffinity>
-5.84802151

$$$$

 OpenBabel03252507233D

 46 49  0  0  1  0  0  0  0  0999 V2000
   39.0100   29.1560   40.4470 C   0  0  0  0  0  0  0  0  0  0  0  0
   39.5850   28.6430   39.4440 O   0  0  0  0  0  0  0  0  0  0  0  0
   38.5070   28.3900   41.5290 N   0  0  0  0  0  0  0  0  0  0  0  0
   38.6130   28.6090   42.9830 C   0  0  0  0  0  0  0  0  0  0  0  0
   37.2340   28.5340   43.6100 C   0  0  0  0  0  0  0  0  0  0  0  0
   36.6600   27.1530   43.4450 C   0  0  0  0  0  0  0  0  0  0  0  0
   37.4890   26.3790   42.4420 C   0  0  0  0  0  0  0  0  0  0  0  0
   37.7810   27.1850   41.2260 C   0  0  2  0  0  0  0  0  0  0  0  0
   39.3410   27.9260   43.4340 H   0  0  0  0  0  0  0  0  0  0  0  0
   38.9240   29.6880   43.0940 H   0  0  0  0  0  0  0  0  0  0  0  0
   37.2740   28.8850   44.6580 H   0  0  0  0  0  0  0  0  0  0  0  0
   36.5790   29.2130   43.0060 H   0  0  0  0  0  0  0  0  0  0  0  0
   35.5800   27.1800   43.1890 H   0  0  0  0  0  0  0  0  0  0  0  0
   36.7710   26.6430   44.4430 H   0  0  0  0  0  0  0  0  0  0  0  0
   38.4590   26.1480   42.9540 H   0  0  0  0  0  0  0  0  0  0  0  0
   37.0240   25.4170   42.1990 H   0  0  0  0  0  0  0  0  0  0  0  0
   36.7760   27.5280   40.8180 H   0  0  0  0  0  0  0  0  0  0  0  0
   39.9530   31.3590   40.9690 C   0  0  0  0  0  0  0  0  0  0  0  0
   38.8600   30.5940   40.4870 C   0  0  0  0  0  0  0  0  0  0  0  0
   37.7110   31.2290   40.0800 C   0  0  0  0  0  0  0  0  0  0  0  0
   37.6610   32.5690   40.1520 N   0  0  0  0  0  0  0  0  0  0  0  0
   38.6970   33.3260   40.6100 C   0  0  0  0  0  0  0  0  0  0  0  0
   39.8290   32.6960   41.0100 N   0  0  0  0  0  0  0  0  0  0  0  0
   40.8660   30.9050   41.2960 H   0  0  0  0  0  0  0  0  0  0  0  0
   38.4950   34.3860   40.6040 H   0  0  0  0  0  0  0  0  0  0  0  0
   36.6020   30.4160   39.5950 C   0  0  0  0  0  0  0  0  0  0  0  0
   35.6510   29.9840   40.4540 C   0  0  0  0  0  0  0  0  0  0  0  0
   34.6030   29.2160   39.9740 C   0  0  0  0  0  0  0  0  0  0  0  0
   34.4840   28.8680   38.6370 C   0  0  0  0  0  0  0  0  0  0  0  0
   35.4840   29.3380   37.8060 C   0  0  0  0  0  0  0  0  0  0  0  0
   36.4960   30.0820   38.2900 N   0  0  0  0  0  0  0  0  0  0  0  0
   35.6300   30.1880   41.5140 H   0  0  0  0  0  0  0  0  0  0  0  0
   33.8030   28.8380   40.6060 H   0  0  0  0  0  0  0  0  0  0  0  0
   33.6910   28.2740   38.2120 H   0  0  0  0  0  0  0  0  0  0  0  0
   35.4960   29.1310   36.7300 H   0  0  0  0  0  0  0  0  0  0  0  0
   38.4260   26.3340   40.1880 C   0  0  0  0  0  0  0  0  0  0  0  0
   39.3790   25.9090   40.4990 H   0  0  0  0  0  0  0  0  0  0  0  0
   38.6240   27.0190   39.3070 H   0  0  0  0  0  0  0  0  0  0  0  0
   37.5870   25.2820   39.6620 N   0  0  0  0  0  0  0  0  0  0  0  0
   36.5170   25.7930   38.8880 C   0  0  0  0  0  3  0  0  0  0  0  0
   36.1240   26.7380   39.2770 H   0  0  0  0  0  0  0  0  0  0  0  0
   36.7990   25.8680   37.3960 C   0  0  0  0  0  3  0  0  0  0  0  0
   35.8440   26.2190   36.9320 H   0  0  0  0  0  0  0  0  0  0  0  0
   37.0470   24.6130   36.9050 O   0  0  0  0  0  0  0  0  0  0  0  0
   37.6920   23.7440   37.7490 C   0  0  0  0  0  2  0  0  0  0  0  0
   38.4230   24.4280   38.8680 C   0  0  0  0  0  2  0  0  0  0  0  0
  1 19  1  0  0  0  0
  1  3  1  0  0  0  0
  2  1  2  0  0  0  0
  3  4  1  0  0  0  0
  4 10  1  0  0  0  0
  4  9  1  0  0  0  0
  4  5  1  0  0  0  0
  5 11  1  0  0  0  0
  6  5  1  0  0  0  0
  6 14  1  0  0  0  0
  7 15  1  0  0  0  0
  7  6  1  0  0  0  0
  8 17  1  6  0  0  0
  8  3  1  0  0  0  0
  8  7  1  0  0  0  0
 12  5  1  0  0  0  0
 13  6  1  0  0  0  0
 16  7  1  0  0  0  0
 18 23  1  0  0  0  0
 18 24  1  0  0  0  0
 19 18  2  0  0  0  0
 20 21  2  0  0  0  0
 20 19  1  0  0  0  0
 21 22  1  0  0  0  0
 22 23  2  0  0  0  0
 25 22  1  0  0  0  0
 26 20  1  0  0  0  0
 26 27  1  0  0  0  0
 27 32  1  0  0  0  0
 28 27  2  0  0  0  0
 28 33  1  0  0  0  0
 29 28  1  0  0  0  0
 30 31  1  0  0  0  0
 30 29  2  0  0  0  0
 31 26  2  0  0  0  0
 34 29  1  0  0  0  0
 35 30  1  0  0  0  0
 36 37  1  0  0  0  0
 36  8  1  0  0  0  0
 38 36  1  0  0  0  0
 39 36  1  0  0  0  0
 40 41  1  0  0  0  0
 40 39  1  0  0  0  0
 42 40  1  0  0  0  0
 43 42  1  0  0  0  0
 44 42  1  0  0  0  0
 44 45  1  0  0  0  0
 45 46  1  0  0  0  0
 46 39  1  0  0  0  0
M  END
>  <minimizedAffinity>
-5.81714153

$$$$

 OpenBabel03252507233D

 46 49  0  0  1  0  0  0  0  0999 V2000
   39.3760   28.3150   40.4840 C   0  0  0  0  0  0  0  0  0  0  0  0
   39.8440   27.5520   39.5900 O   0  0  0  0  0  0  0  0  0  0  0  0
   38.6500   27.8420   41.6060 N   0  0  0  0  0  0  0  0  0  0  0  0
   38.7480   28.2130   43.0290 C   0  0  0  0  0  0  0  0  0  0  0  0
   37.3700   28.5610   43.5590 C   0  0  0  0  0  0  0  0  0  0  0  0
   36.4720   27.3540   43.5110 C   0  0  0  0  0  0  0  0  0  0  0  0
   37.1180   26.2780   42.6650 C   0  0  0  0  0  0  0  0  0  0  0  0
   37.6560   26.8240   41.3890 C   0  0  2  0  0  0  0  0  0  0  0  0
   39.2590   27.4340   43.6060 H   0  0  0  0  0  0  0  0  0  0  0  0
   39.3170   29.1870   43.0390 H   0  0  0  0  0  0  0  0  0  0  0  0
   37.4540   29.0220   44.5600 H   0  0  0  0  0  0  0  0  0  0  0  0
   36.9330   29.2970   42.8360 H   0  0  0  0  0  0  0  0  0  0  0  0
   35.4450   27.6130   43.1760 H   0  0  0  0  0  0  0  0  0  0  0  0
   36.4080   26.9640   44.5660 H   0  0  0  0  0  0  0  0  0  0  0  0
   37.9760   25.8820   43.2680 H   0  0  0  0  0  0  0  0  0  0  0  0
   36.4350   25.4370   42.4990 H   0  0  0  0  0  0  0  0  0  0  0  0
   36.7890   27.3490   40.8740 H   0  0  0  0  0  0  0  0  0  0  0  0
   40.8780   30.2440   40.6760 C   0  0  0  0  0  0  0  0  0  0  0  0
   39.5930   29.7390   40.3490 C   0  0  0  0  0  0  0  0  0  0  0  0
   38.6100   30.6000   39.9220 C   0  0  0  0  0  0  0  0  0  0  0  0
   38.9040   31.9070   39.8270 N   0  0  0  0  0  0  0  0  0  0  0  0
   40.1280   32.4170   40.1340 C   0  0  0  0  0  0  0  0  0  0  0  0
   41.0950   31.5650   40.5550 N   0  0  0  0  0  0  0  0  0  0  0  0
   41.6720   29.6090   41.0130 H   0  0  0  0  0  0  0  0  0  0  0  0
   40.1980   33.4860   40.0040 H   0  0  0  0  0  0  0  0  0  0  0  0
   37.2980   30.0520   39.5980 C   0  0  0  0  0  0  0  0  0  0  0  0
   37.0460   29.5890   38.3530 C   0  0  0  0  0  0  0  0  0  0  0  0
   35.7940   29.0690   38.0660 C   0  0  0  0  0  0  0  0  0  0  0  0
   34.7790   29.0010   39.0080 C   0  0  0  0  0  0  0  0  0  0  0  0
   35.0960   29.4880   40.2630 C   0  0  0  0  0  0  0  0  0  0  0  0
   36.3170   29.9910   40.5250 N   0  0  0  0  0  0  0  0  0  0  0  0
   37.7490   29.5850   37.5340 H   0  0  0  0  0  0  0  0  0  0  0  0
   35.5230   28.6760   37.0890 H   0  0  0  0  0  0  0  0  0  0  0  0
   33.7900   28.6070   38.8380 H   0  0  0  0  0  0  0  0  0  0  0  0
   34.3780   29.4840   41.0910 H   0  0  0  0  0  0  0  0  0  0  0  0
   38.1080   25.7150   40.5050 C   0  0  0  0  0  0  0  0  0  0  0  0
   39.1790   25.5280   40.5460 H   0  0  0  0  0  0  0  0  0  0  0  0
   37.8530   26.0390   39.4490 H   0  0  0  0  0  0  0  0  0  0  0  0
   37.4020   24.4680   40.6920 N   0  0  0  0  0  0  0  0  0  0  0  0
   36.4400   24.2440   39.6780 C   0  0  0  0  0  3  0  0  0  0  0  0
   35.9540   25.1650   39.3410 H   0  0  0  0  0  0  0  0  0  0  0  0
   36.9410   23.4090   38.5090 C   0  0  0  0  0  3  0  0  0  0  0  0
   36.0520   23.2680   37.8440 H   0  0  0  0  0  0  0  0  0  0  0  0
   37.3120   22.1650   38.9510 O   0  0  0  0  0  0  0  0  0  0  0  0
   37.8590   22.1030   40.2080 C   0  0  0  0  0  2  0  0  0  0  0  0
   38.3830   23.4210   40.6990 C   0  0  0  0  0  2  0  0  0  0  0  0
  1  3  1  0  0  0  0
  2  1  2  0  0  0  0
  3  4  1  0  0  0  0
  4 10  1  0  0  0  0
  4  5  1  0  0  0  0
  4  9  1  0  0  0  0
  5 11  1  0  0  0  0
  6  5  1  0  0  0  0
  6 14  1  0  0  0  0
  7 15  1  0  0  0  0
  7  6  1  0  0  0  0
  8 17  1  6  0  0  0
  8  3  1  0  0  0  0
  8  7  1  0  0  0  0
 12  5  1  0  0  0  0
 13  6  1  0  0  0  0
 16  7  1  0  0  0  0
 18 24  1  0  0  0  0
 19  1  1  0  0  0  0
 19 18  2  0  0  0  0
 20 19  1  0  0  0  0
 21 20  2  0  0  0  0
 21 22  1  0  0  0  0
 22 23  2  0  0  0  0
 23 18  1  0  0  0  0
 25 22  1  0  0  0  0
 26 20  1  0  0  0  0
 26 31  1  0  0  0  0
 27 26  2  0  0  0  0
 28 27  1  0  0  0  0
 28 29  2  0  0  0  0
 29 30  1  0  0  0  0
 30 31  2  0  0  0  0
 30 35  1  0  0  0  0
 32 27  1  0  0  0  0
 33 28  1  0  0  0  0
 34 29  1  0  0  0  0
 36 37  1  0  0  0  0
 36 39  1  0  0  0  0
 36  8  1  0  0  0  0
 38 36  1  0  0  0  0
 39 46  1  0  0  0  0
 40 39  1  0  0  0  0
 41 40  1  0  0  0  0
 42 44  1  0  0  0  0
 42 40  1  0  0  0  0
 43 42  1  0  0  0  0
 44 45  1  0  0  0  0
 45 46  1  0  0  0  0
M  END
>  <minimizedAffinity>
-5.60354996

$$$$

 OpenBabel03252507233D

 46 49  0  0  1  0  0  0  0  0999 V2000
   37.7950   26.8450   39.7200 C   0  0  0  0  0  0  0  0  0  0  0  0
   38.4580   27.2580   38.7250 O   0  0  0  0  0  0  0  0  0  0  0  0
   37.5830   27.6210   40.8880 N   0  0  0  0  0  0  0  0  0  0  0  0
   36.3590   27.8380   41.6790 C   0  0  0  0  0  0  0  0  0  0  0  0
   36.6430   27.5560   43.1420 C   0  0  0  0  0  0  0  0  0  0  0  0
   37.6540   28.5350   43.6760 C   0  0  0  0  0  0  0  0  0  0  0  0
   38.2970   29.2740   42.5220 C   0  0  0  0  0  0  0  0  0  0  0  0
   38.7010   28.3500   41.4270 C   0  0  2  0  0  0  0  0  0  0  0  0
   35.9400   28.8330   41.4940 H   0  0  0  0  0  0  0  0  0  0  0  0
   35.6540   27.0180   41.3570 H   0  0  0  0  0  0  0  0  0  0  0  0
   35.6970   27.5270   43.7140 H   0  0  0  0  0  0  0  0  0  0  0  0
   37.1400   26.5520   43.1770 H   0  0  0  0  0  0  0  0  0  0  0  0
   38.3930   28.0460   44.3450 H   0  0  0  0  0  0  0  0  0  0  0  0
   37.0770   29.2880   44.2820 H   0  0  0  0  0  0  0  0  0  0  0  0
   37.5140   29.9710   42.1250 H   0  0  0  0  0  0  0  0  0  0  0  0
   39.1310   29.8990   42.8640 H   0  0  0  0  0  0  0  0  0  0  0  0
   39.3770   27.5680   41.9000 H   0  0  0  0  0  0  0  0  0  0  0  0
   36.0830   25.3230   38.8450 C   0  0  0  0  0  0  0  0  0  0  0  0
   37.2280   25.5160   39.6590 C   0  0  0  0  0  0  0  0  0  0  0  0
   37.7570   24.4540   40.3530 C   0  0  0  0  0  0  0  0  0  0  0  0
   37.1640   23.2550   40.2360 N   0  0  0  0  0  0  0  0  0  0  0  0
   36.0640   23.0430   39.4610 C   0  0  0  0  0  0  0  0  0  0  0  0
   35.5450   24.0930   38.7780 N   0  0  0  0  0  0  0  0  0  0  0  0
   35.6380   26.1230   38.2880 H   0  0  0  0  0  0  0  0  0  0  0  0
   35.7120   22.0240   39.4770 H   0  0  0  0  0  0  0  0  0  0  0  0
   38.9320   24.6830   41.1860 C   0  0  0  0  0  0  0  0  0  0  0  0
   38.8200   24.6700   42.5340 C   0  0  0  0  0  0  0  0  0  0  0  0
   39.9490   24.8860   43.3090 C   0  0  0  0  0  0  0  0  0  0  0  0
   41.2000   25.1170   42.7570 C   0  0  0  0  0  0  0  0  0  0  0  0
   41.2530   25.1180   41.3750 C   0  0  0  0  0  0  0  0  0  0  0  0
   40.1470   24.9070   40.6380 N   0  0  0  0  0  0  0  0  0  0  0  0
   37.9060   24.5020   43.0820 H   0  0  0  0  0  0  0  0  0  0  0  0
   39.9340   24.8870   44.3950 H   0  0  0  0  0  0  0  0  0  0  0  0
   42.1080   25.2910   43.3120 H   0  0  0  0  0  0  0  0  0  0  0  0
   42.1860   25.2850   40.8250 H   0  0  0  0  0  0  0  0  0  0  0  0
   39.4970   29.0820   40.4040 C   0  0  0  0  0  0  0  0  0  0  0  0
   39.3990   28.6770   39.3990 H   0  0  0  0  0  0  0  0  0  0  0  0
   40.5800   28.9700   40.7180 H   0  0  0  0  0  0  0  0  0  0  0  0
   39.2660   30.5080   40.3650 N   0  0  0  0  0  0  0  0  0  0  0  0
   40.4760   31.2420   40.3310 C   0  0  0  0  0  3  0  0  0  0  0  0
   41.2710   30.7790   40.9230 H   0  0  0  0  0  0  0  0  0  0  0  0
   40.9500   31.6100   38.9340 C   0  0  0  0  0  3  0  0  0  0  0  0
   41.8630   32.2380   39.0880 H   0  0  0  0  0  0  0  0  0  0  0  0
   40.0170   32.4030   38.3190 O   0  0  0  0  0  0  0  0  0  0  0  0
   38.7040   32.1480   38.6240 C   0  0  0  0  0  2  0  0  0  0  0  0
   38.4770   30.7790   39.1970 C   0  0  0  0  0  2  0  0  0  0  0  0
  1  3  1  0  0  0  0
  2  1  2  0  0  0  0
  3  8  1  0  0  0  0
  3  4  1  0  0  0  0
  4  5  1  0  0  0  0
  5 12  1  0  0  0  0
  5  6  1  0  0  0  0
  5 11  1  0  0  0  0
  6 14  1  0  0  0  0
  6 13  1  0  0  0  0
  7 16  1  0  0  0  0
  7  6  1  0  0  0  0
  8 17  1  1  0  0  0
  8  7  1  0  0  0  0
  9  4  1  0  0  0  0
 10  4  1  0  0  0  0
 15  7  1  0  0  0  0
 18 19  1  0  0  0  0
 19  1  1  0  0  0  0
 19 20  2  0  0  0  0
 20 26  1  0  0  0  0
 21 20  1  0  0  0  0
 22 25  1  0  0  0  0
 22 21  2  0  0  0  0
 23 18  2  0  0  0  0
 23 22  1  0  0  0  0
 24 18  1  0  0  0  0
 26 27  1  0  0  0  0
 27 32  1  0  0  0  0
 27 28  2  0  0  0  0
 28 33  1  0  0  0  0
 29 28  1  0  0  0  0
 29 34  1  0  0  0  0
 30 29  2  0  0  0  0
 31 26  2  0  0  0  0
 31 30  1  0  0  0  0
 35 30  1  0  0  0  0
 36 38  1  0  0  0  0
 36  8  1  0  0  0  0
 37 36  1  0  0  0  0
 39 36  1  0  0  0  0
 40 39  1  0  0  0  0
 40 41  1  0  0  0  0
 42 43  1  0  0  0  0
 42 40  1  0  0  0  0
 44 45  1  0  0  0  0
 44 42  1  0  0  0  0
 45 46  1  0  0  0  0
 46 39  1  0  0  0  0
M  END
>  <minimizedAffinity>
-5.42977476

$$$$

 OpenBabel03252507233D

 46 49  0  0  1  0  0  0  0  0999 V2000
   38.4160   28.2040   39.2510 C   0  0  0  0  0  0  0  0  0  0  0  0
   39.2770   27.8420   38.3970 O   0  0  0  0  0  0  0  0  0  0  0  0
   37.7950   29.4780   39.2340 N   0  0  0  0  0  0  0  0  0  0  0  0
   36.3810   29.8510   39.4190 C   0  0  0  0  0  0  0  0  0  0  0  0
   36.2760   30.9360   40.4730 C   0  0  0  0  0  0  0  0  0  0  0  0
   36.9710   32.1870   40.0070 C   0  0  0  0  0  0  0  0  0  0  0  0
   37.8180   31.8690   38.7930 C   0  0  0  0  0  0  0  0  0  0  0  0
   38.6200   30.6310   38.9850 C   0  0  2  0  0  0  0  0  0  0  0  0
   35.9140   30.1170   38.4640 H   0  0  0  0  0  0  0  0  0  0  0  0
   35.8980   28.9450   39.8860 H   0  0  0  0  0  0  0  0  0  0  0  0
   35.2180   31.0870   40.7580 H   0  0  0  0  0  0  0  0  0  0  0  0
   36.8590   30.5710   41.3570 H   0  0  0  0  0  0  0  0  0  0  0  0
   37.5470   32.6710   40.8240 H   0  0  0  0  0  0  0  0  0  0  0  0
   36.1610   32.8970   39.6800 H   0  0  0  0  0  0  0  0  0  0  0  0
   37.0990   31.6980   37.9500 H   0  0  0  0  0  0  0  0  0  0  0  0
   38.4410   32.7250   38.5070 H   0  0  0  0  0  0  0  0  0  0  0  0
   39.2260   30.7840   39.9340 H   0  0  0  0  0  0  0  0  0  0  0  0
   37.2030   26.1890   39.9460 C   0  0  0  0  0  0  0  0  0  0  0  0
   38.0530   27.2700   40.2940 C   0  0  0  0  0  0  0  0  0  0  0  0
   38.5000   27.3960   41.5880 C   0  0  0  0  0  0  0  0  0  0  0  0
   38.1110   26.4800   42.4900 N   0  0  0  0  0  0  0  0  0  0  0  0
   37.2970   25.4330   42.1810 C   0  0  0  0  0  0  0  0  0  0  0  0
   36.8590   25.3120   40.9040 N   0  0  0  0  0  0  0  0  0  0  0  0
   36.8330   26.0530   38.9500 H   0  0  0  0  0  0  0  0  0  0  0  0
   37.0800   24.7910   43.0200 H   0  0  0  0  0  0  0  0  0  0  0  0
   39.3680   28.5200   41.9170 C   0  0  0  0  0  0  0  0  0  0  0  0
   38.8700   29.5900   42.5770 C   0  0  0  0  0  0  0  0  0  0  0  0
   39.7120   30.6470   42.8850 C   0  0  0  0  0  0  0  0  0  0  0  0
   41.0560   30.6550   42.5430 C   0  0  0  0  0  0  0  0  0  0  0  0
   41.5080   29.5350   41.8710 C   0  0  0  0  0  0  0  0  0  0  0  0
   40.6770   28.5180   41.5790 N   0  0  0  0  0  0  0  0  0  0  0  0
   37.8460   29.7040   42.8980 H   0  0  0  0  0  0  0  0  0  0  0  0
   39.3820   31.5370   43.4150 H   0  0  0  0  0  0  0  0  0  0  0  0
   41.7530   31.4500   42.7570 H   0  0  0  0  0  0  0  0  0  0  0  0
   42.5510   29.4240   41.5520 H   0  0  0  0  0  0  0  0  0  0  0  0
   39.5770   30.4580   37.8570 C   0  0  0  0  0  0  0  0  0  0  0  0
   39.2520   30.9250   36.9290 H   0  0  0  0  0  0  0  0  0  0  0  0
   39.6440   29.3410   37.6780 H   0  0  0  0  0  0  0  0  0  0  0  0
   40.9310   30.8710   38.1460 N   0  0  0  0  0  0  0  0  0  0  0  0
   41.8740   29.8650   37.8260 C   0  0  0  0  0  3  0  0  0  0  0  0
   41.5000   28.8540   38.0200 H   0  0  0  0  0  0  0  0  0  0  0  0
   42.4790   29.9880   36.4370 C   0  0  0  0  0  3  0  0  0  0  0  0
   43.2420   29.1730   36.3730 H   0  0  0  0  0  0  0  0  0  0  0  0
   43.1530   31.1770   36.3260 O   0  0  0  0  0  0  0  0  0  0  0  0
   42.6270   32.2420   37.0140 C   0  0  0  0  0  2  0  0  0  0  0  0
   41.1840   32.0620   37.3860 C   0  0  0  0  0  2  0  0  0  0  0  0
  1 19  1  0  0  0  0
  2  1  2  0  0  0  0
  3  1  1  0  0  0  0
  3  4  1  0  0  0  0
  4 10  1  0  0  0  0
  4  5  1  0  0  0  0
  5 11  1  0  0  0  0
  5 12  1  0  0  0  0
  6  5  1  0  0  0  0
  6 13  1  0  0  0  0
  7  8  1  0  0  0  0
  7  6  1  0  0  0  0
  8  3  1  0  0  0  0
  8 17  1  1  0  0  0
  9  4  1  0  0  0  0
 14  6  1  0  0  0  0
 15  7  1  0  0  0  0
 16  7  1  0  0  0  0
 18 19  2  0  0  0  0
 18 23  1  0  0  0  0
 19 20  1  0  0  0  0
 20 26  1  0  0  0  0
 20 21  2  0  0  0  0
 22 21  1  0  0  0  0
 22 25  1  0  0  0  0
 23 22  2  0  0  0  0
 24 18  1  0  0  0  0
 26 27  1  0  0  0  0
 27 28  2  0  0  0  0
 27 32  1  0  0  0  0
 28 33  1  0  0  0  0
 29 34  1  0  0  0  0
 29 28  1  0  0  0  0
 30 29  2  0  0  0  0
 31 30  1  0  0  0  0
 31 26  2  0  0  0  0
 35 30  1  0  0  0  0
 36 39  1  0  0  0  0
 36  8  1  0  0  0  0
 37 36  1  0  0  0  0
 38 36  1  0  0  0  0
 40 41  1  0  0  0  0
 40 39  1  0  0  0  0
 42 40  1  0  0  0  0
 43 42  1  0  0  0  0
 44 42  1  0  0  0  0
 44 45  1  0  0  0  0
 45 46  1  0  0  0  0
 46 39  1  0  0  0  0
M  END
>  <minimizedAffinity>
-5.34455442

$$$$

 OpenBabel03252507233D

 46 49  0  0  1  0  0  0  0  0999 V2000
   39.1090   28.9690   39.7100 C   0  0  0  0  0  0  0  0  0  0  0  0
   40.3690   29.0770   39.6700 O   0  0  0  0  0  0  0  0  0  0  0  0
   38.3870   28.7350   40.9070 N   0  0  0  0  0  0  0  0  0  0  0  0
   37.1510   29.3590   41.4120 C   0  0  0  0  0  0  0  0  0  0  0  0
   36.1570   28.2800   41.7960 C   0  0  0  0  0  0  0  0  0  0  0  0
   36.6950   27.4560   42.9350 C   0  0  0  0  0  0  0  0  0  0  0  0
   38.1670   27.7540   43.1210 C   0  0  0  0  0  0  0  0  0  0  0  0
   38.9000   27.7540   41.8260 C   0  0  2  0  0  0  0  0  0  0  0  0
   37.3670   30.0670   42.2190 H   0  0  0  0  0  0  0  0  0  0  0  0
   36.6940   29.8690   40.5160 H   0  0  0  0  0  0  0  0  0  0  0  0
   35.1650   28.7280   41.9910 H   0  0  0  0  0  0  0  0  0  0  0  0
   36.0940   27.5860   40.9180 H   0  0  0  0  0  0  0  0  0  0  0  0
   36.4830   26.3740   42.8010 H   0  0  0  0  0  0  0  0  0  0  0  0
   36.1570   27.8060   43.8610 H   0  0  0  0  0  0  0  0  0  0  0  0
   38.2220   28.7840   43.5580 H   0  0  0  0  0  0  0  0  0  0  0  0
   38.6210   27.0760   43.8530 H   0  0  0  0  0  0  0  0  0  0  0  0
   38.6980   26.7450   41.3420 H   0  0  0  0  0  0  0  0  0  0  0  0
   38.0210   27.8950   37.7910 C   0  0  0  0  0  0  0  0  0  0  0  0
   38.3740   29.0900   38.4700 C   0  0  0  0  0  0  0  0  0  0  0  0
   38.0140   30.3060   37.9390 C   0  0  0  0  0  0  0  0  0  0  0  0
   37.3310   30.3220   36.7830 N   0  0  0  0  0  0  0  0  0  0  0  0
   36.9800   29.1900   36.1130 C   0  0  0  0  0  0  0  0  0  0  0  0
   37.3370   27.9920   36.6390 N   0  0  0  0  0  0  0  0  0  0  0  0
   38.2810   26.9270   38.1690 H   0  0  0  0  0  0  0  0  0  0  0  0
   36.4360   29.3770   35.2000 H   0  0  0  0  0  0  0  0  0  0  0  0
   38.3950   31.5170   38.6560 C   0  0  0  0  0  0  0  0  0  0  0  0
   37.4740   32.1960   39.3780 C   0  0  0  0  0  0  0  0  0  0  0  0
   37.8560   33.3430   40.0550 C   0  0  0  0  0  0  0  0  0  0  0  0
   39.1540   33.8300   40.0260 C   0  0  0  0  0  0  0  0  0  0  0  0
   40.0510   33.0940   39.2730 C   0  0  0  0  0  0  0  0  0  0  0  0
   39.6630   31.9830   38.6200 N   0  0  0  0  0  0  0  0  0  0  0  0
   36.4360   31.9200   39.4800 H   0  0  0  0  0  0  0  0  0  0  0  0
   37.1710   33.9350   40.6560 H   0  0  0  0  0  0  0  0  0  0  0  0
   39.5030   34.7150   40.5330 H   0  0  0  0  0  0  0  0  0  0  0  0
   41.1050   33.3780   39.1770 H   0  0  0  0  0  0  0  0  0  0  0  0
   40.3660   27.8580   42.0660 C   0  0  0  0  0  0  0  0  0  0  0  0
   40.6440   28.6540   42.7530 H   0  0  0  0  0  0  0  0  0  0  0  0
   40.8280   28.0930   41.0580 H   0  0  0  0  0  0  0  0  0  0  0  0
   40.9980   26.6270   42.4870 N   0  0  0  0  0  0  0  0  0  0  0  0
   41.6970   26.0000   41.4280 C   0  0  0  0  0  3  0  0  0  0  0  0
   41.2000   26.1190   40.4600 H   0  0  0  0  0  0  0  0  0  0  0  0
   43.1740   26.3510   41.3540 C   0  0  0  0  0  3  0  0  0  0  0  0
   43.5860   25.7260   40.5220 H   0  0  0  0  0  0  0  0  0  0  0  0
   43.8060   25.9540   42.5040 O   0  0  0  0  0  0  0  0  0  0  0  0
   43.0720   26.0320   43.6610 C   0  0  0  0  0  2  0  0  0  0  0  0
   41.8920   26.9550   43.5610 C   0  0  0  0  0  2  0  0  0  0  0  0
  1  3  1  0  0  0  0
  2  1  2  0  0  0  0
  3  4  1  0  0  0  0
  3  8  1  0  0  0  0
  4  5  1  0  0  0  0
  4  9  1  0  0  0  0
  5 11  1  0  0  0  0
  5  6  1  0  0  0  0
  6  7  1  0  0  0  0
  6 14  1  0  0  0  0
  7 15  1  0  0  0  0
  7 16  1  0  0  0  0
  8 17  1  6  0  0  0
  8 36  1  0  0  0  0
  8  7  1  0  0  0  0
 10  4  1  0  0  0  0
 12  5  1  0  0  0  0
 13  6  1  0  0  0  0
 18 24  1  0  0  0  0
 18 19  1  0  0  0  0
 19  1  1  0  0  0  0
 20 19  2  0  0  0  0
 20 26  1  0  0  0  0
 21 20  1  0  0  0  0
 22 23  1  0  0  0  0
 22 21  2  0  0  0  0
 23 18  2  0  0  0  0
 25 22  1  0  0  0  0
 26 27  1  0  0  0  0
 27 32  1  0  0  0  0
 27 28  2  0  0  0  0
 28 33  1  0  0  0  0
 29 28  1  0  0  0  0
 29 34  1  0  0  0  0
 30 29  2  0  0  0  0
 31 26  2  0  0  0  0
 31 30  1  0  0  0  0
 35 30  1  0  0  0  0
 36 39  1  0  0  0  0
 36 37  1  0  0  0  0
 38 36  1  0  0  0  0
 39 46  1  0  0  0  0
 40 39  1  0  0  0  0
 41 40  1  0  0  0  0
 42 40  1  0  0  0  0
 42 44  1  0  0  0  0
 43 42  1  0  0  0  0
 44 45  1  0  0  0  0
 46 45  1  0  0  0  0
M  END
>  <minimizedAffinity>
-5.25012732

$$$$

 OpenBabel03252507233D

 46 49  0  0  1  0  0  0  0  0999 V2000
   38.2340   27.8130   38.8570 C   0  0  0  0  0  0  0  0  0  0  0  0
   39.4390   27.7560   38.4740 O   0  0  0  0  0  0  0  0  0  0  0  0
   37.6200   29.0060   39.3130 N   0  0  0  0  0  0  0  0  0  0  0  0
   36.2960   29.5750   39.0050 C   0  0  0  0  0  0  0  0  0  0  0  0
   35.5720   29.9060   40.2960 C   0  0  0  0  0  0  0  0  0  0  0  0
   36.3120   30.9780   41.0490 C   0  0  0  0  0  0  0  0  0  0  0  0
   37.6910   31.1550   40.4500 C   0  0  0  0  0  0  0  0  0  0  0  0
   38.3640   29.8490   40.2120 C   0  0  2  0  0  0  0  0  0  0  0  0
   36.3800   30.4220   38.3160 H   0  0  0  0  0  0  0  0  0  0  0  0
   35.7100   28.7230   38.5540 H   0  0  0  0  0  0  0  0  0  0  0  0
   34.5140   30.1490   40.0860 H   0  0  0  0  0  0  0  0  0  0  0  0
   35.6310   28.9860   40.9320 H   0  0  0  0  0  0  0  0  0  0  0  0
   36.3350   30.7770   42.1420 H   0  0  0  0  0  0  0  0  0  0  0  0
   35.7420   31.9350   40.8810 H   0  0  0  0  0  0  0  0  0  0  0  0
   37.5360   31.6570   39.4600 H   0  0  0  0  0  0  0  0  0  0  0  0
   38.3040   31.8320   41.0550 H   0  0  0  0  0  0  0  0  0  0  0  0
   38.3680   29.3030   41.2100 H   0  0  0  0  0  0  0  0  0  0  0  0
   36.9570   26.1630   37.5670 C   0  0  0  0  0  0  0  0  0  0  0  0
   37.4500   26.5980   38.8240 C   0  0  0  0  0  0  0  0  0  0  0  0
   37.1740   25.8660   39.9550 C   0  0  0  0  0  0  0  0  0  0  0  0
   36.4370   24.7500   39.8300 N   0  0  0  0  0  0  0  0  0  0  0  0
   35.9530   24.3110   38.6350 C   0  0  0  0  0  0  0  0  0  0  0  0
   36.2280   25.0350   37.5220 N   0  0  0  0  0  0  0  0  0  0  0  0
   37.1490   26.7020   36.6620 H   0  0  0  0  0  0  0  0  0  0  0  0
   35.3810   23.3990   38.7080 H   0  0  0  0  0  0  0  0  0  0  0  0
   37.6890   26.3410   41.2340 C   0  0  0  0  0  0  0  0  0  0  0  0
   36.8660   26.9680   42.1050 C   0  0  0  0  0  0  0  0  0  0  0  0
   37.3730   27.4080   43.3170 C   0  0  0  0  0  0  0  0  0  0  0  0
   38.7000   27.2320   43.6800 C   0  0  0  0  0  0  0  0  0  0  0  0
   39.4930   26.5850   42.7490 C   0  0  0  0  0  0  0  0  0  0  0  0
   38.9840   26.1640   41.5770 N   0  0  0  0  0  0  0  0  0  0  0  0
   35.8180   27.1640   41.9420 H   0  0  0  0  0  0  0  0  0  0  0  0
   36.7710   27.9160   44.0660 H   0  0  0  0  0  0  0  0  0  0  0  0
   39.1450   27.5550   44.6070 H   0  0  0  0  0  0  0  0  0  0  0  0
   40.5560   26.3850   42.9240 H   0  0  0  0  0  0  0  0  0  0  0  0
   39.7800   30.0660   39.8060 C   0  0  0  0  0  0  0  0  0  0  0  0
   40.1720   29.2940   39.1480 H   0  0  0  0  0  0  0  0  0  0  0  0
   40.3820   30.0420   40.7650 H   0  0  0  0  0  0  0  0  0  0  0  0
   40.0500   31.3630   39.2280 N   0  0  0  0  0  0  0  0  0  0  0  0
   41.1750   31.9850   39.8210 C   0  0  0  0  0  3  0  0  0  0  0  0
   41.2630   31.7740   40.8920 H   0  0  0  0  0  0  0  0  0  0  0  0
   42.4850   31.7470   39.0870 C   0  0  0  0  0  3  0  0  0  0  0  0
   43.2460   32.3560   39.6360 H   0  0  0  0  0  0  0  0  0  0  0  0
   42.4060   32.2550   37.8160 O   0  0  0  0  0  0  0  0  0  0  0  0
   41.1790   32.1830   37.2060 C   0  0  0  0  0  2  0  0  0  0  0  0
   40.2620   31.1670   37.8230 C   0  0  0  0  0  2  0  0  0  0  0  0
  1  3  1  0  0  0  0
  2  1  2  0  0  0  0
  3  8  1  0  0  0  0
  4  3  1  0  0  0  0
  4  5  1  0  0  0  0
  5 12  1  0  0  0  0
  5  6  1  0  0  0  0
  6 13  1  0  0  0  0
  7  6  1  0  0  0  0
  7 16  1  0  0  0  0
  8  7  1  0  0  0  0
  8 17  1  1  0  0  0
  9  4  1  0  0  0  0
 10  4  1  0  0  0  0
 11  5  1  0  0  0  0
 14  6  1  0  0  0  0
 15  7  1  0  0  0  0
 18 19  1  0  0  0  0
 19  1  1  0  0  0  0
 19 20  2  0  0  0  0
 20 26  1  0  0  0  0
 21 20  1  0  0  0  0
 22 25  1  0  0  0  0
 22 21  2  0  0  0  0
 23 18  2  0  0  0  0
 23 22  1  0  0  0  0
 24 18  1  0  0  0  0
 26 31  2  0  0  0  0
 26 27  1  0  0  0  0
 27 28  2  0  0  0  0
 28 29  1  0  0  0  0
 28 33  1  0  0  0  0
 29 34  1  0  0  0  0
 30 35  1  0  0  0  0
 30 29  2  0  0  0  0
 31 30  1  0  0  0  0
 32 27  1  0  0  0  0
 36  8  1  0  0  0  0
 36 38  1  0  0  0  0
 37 36  1  0  0  0  0
 39 36  1  0  0  0  0
 39 40  1  0  0  0  0
 40 41  1  0  0  0  0
 42 43  1  0  0  0  0
 42 40  1  0  0  0  0
 44 42  1  0  0  0  0
 45 44  1  0  0  0  0
 45 46  1  0  0  0  0
 46 39  1  0  0  0  0
M  END
>  <minimizedAffinity>
-5.23531771

$$$$

 OpenBabel03252507233D

 46 49  0  0  1  0  0  0  0  0999 V2000
   39.4450   27.6700   39.2210 C   0  0  0  0  0  0  0  0  0  0  0  0
   40.5780   28.2160   39.3530 O   0  0  0  0  0  0  0  0  0  0  0  0
   38.2600   28.3980   38.9450 N   0  0  0  0  0  0  0  0  0  0  0  0
   37.1730   28.1220   37.9890 C   0  0  0  0  0  0  0  0  0  0  0  0
   35.8380   28.1850   38.7050 C   0  0  0  0  0  0  0  0  0  0  0  0
   35.5860   29.5770   39.2200 C   0  0  0  0  0  0  0  0  0  0  0  0
   36.8660   30.3810   39.1430 C   0  0  0  0  0  0  0  0  0  0  0  0
   38.0320   29.6200   39.6700 C   0  0  2  0  0  0  0  0  0  0  0  0
   37.2370   28.7810   37.1160 H   0  0  0  0  0  0  0  0  0  0  0  0
   37.3000   27.0370   37.7070 H   0  0  0  0  0  0  0  0  0  0  0  0
   35.0370   27.7930   38.0510 H   0  0  0  0  0  0  0  0  0  0  0  0
   35.9390   27.5350   39.6130 H   0  0  0  0  0  0  0  0  0  0  0  0
   35.1380   29.5690   40.2360 H   0  0  0  0  0  0  0  0  0  0  0  0
   34.8460   30.0470   38.5130 H   0  0  0  0  0  0  0  0  0  0  0  0
   37.0400   30.5840   38.0540 H   0  0  0  0  0  0  0  0  0  0  0  0
   36.7540   31.3560   39.6310 H   0  0  0  0  0  0  0  0  0  0  0  0
   37.7570   29.3020   40.7260 H   0  0  0  0  0  0  0  0  0  0  0  0
   39.8200   25.4360   38.2810 C   0  0  0  0  0  0  0  0  0  0  0  0
   39.3590   26.2330   39.3600 C   0  0  0  0  0  0  0  0  0  0  0  0
   38.8530   25.6280   40.4860 C   0  0  0  0  0  0  0  0  0  0  0  0
   38.8120   24.2860   40.5270 N   0  0  0  0  0  0  0  0  0  0  0  0
   39.2490   23.4990   39.5050 C   0  0  0  0  0  0  0  0  0  0  0  0
   39.7470   24.0990   38.3960 N   0  0  0  0  0  0  0  0  0  0  0  0
   40.2210   25.8660   37.3860 H   0  0  0  0  0  0  0  0  0  0  0  0
   39.1460   22.4420   39.6980 H   0  0  0  0  0  0  0  0  0  0  0  0
   38.3810   26.4730   41.5770 C   0  0  0  0  0  0  0  0  0  0  0  0
   37.0560   26.5850   41.8230 C   0  0  0  0  0  0  0  0  0  0  0  0
   36.6270   27.3900   42.8670 C   0  0  0  0  0  0  0  0  0  0  0  0
   37.5060   28.0910   43.6780 C   0  0  0  0  0  0  0  0  0  0  0  0
   38.8470   27.9370   43.3800 C   0  0  0  0  0  0  0  0  0  0  0  0
   39.2460   27.1520   42.3620 N   0  0  0  0  0  0  0  0  0  0  0  0
   36.2740   26.0910   41.2660 H   0  0  0  0  0  0  0  0  0  0  0  0
   35.5800   27.5240   43.1230 H   0  0  0  0  0  0  0  0  0  0  0  0
   37.2260   28.7290   44.5010 H   0  0  0  0  0  0  0  0  0  0  0  0
   39.6360   28.4380   43.9530 H   0  0  0  0  0  0  0  0  0  0  0  0
   39.2260   30.5040   39.7570 C   0  0  0  0  0  0  0  0  0  0  0  0
   40.1720   29.9670   39.7550 H   0  0  0  0  0  0  0  0  0  0  0  0
   39.1380   31.0460   40.7480 H   0  0  0  0  0  0  0  0  0  0  0  0
   39.2760   31.5520   38.7620 N   0  0  0  0  0  0  0  0  0  0  0  0
   39.4810   32.8270   39.3420 C   0  0  0  0  0  3  0  0  0  0  0  0
   38.9800   32.9390   40.3100 H   0  0  0  0  0  0  0  0  0  0  0  0
   40.9360   33.2640   39.4040 C   0  0  0  0  0  3  0  0  0  0  0  0
   40.9150   34.3040   39.8170 H   0  0  0  0  0  0  0  0  0  0  0  0
   41.4520   33.3460   38.1370 O   0  0  0  0  0  0  0  0  0  0  0  0
   40.9790   32.4350   37.2260 C   0  0  0  0  0  2  0  0  0  0  0  0
   40.3430   31.2300   37.8580 C   0  0  0  0  0  2  0  0  0  0  0  0
  1  2  2  0  0  0  0
  1 19  1  0  0  0  0
  3  1  1  0  0  0  0
  3  8  1  0  0  0  0
  4  5  1  0  0  0  0
  4  3  1  0  0  0  0
  5  6  1  0  0  0  0
  5 12  1  0  0  0  0
  6 13  1  0  0  0  0
  7  6  1  0  0  0  0
  7 16  1  0  0  0  0
  7  8  1  0  0  0  0
  8 36  1  0  0  0  0
  8 17  1  1  0  0  0
  9  4  1  0  0  0  0
 10  4  1  0  0  0  0
 11  5  1  0  0  0  0
 14  6  1  0  0  0  0
 15  7  1  0  0  0  0
 18 23  2  0  0  0  0
 18 19  1  0  0  0  0
 19 20  2  0  0  0  0
 20 21  1  0  0  0  0
 20 26  1  0  0  0  0
 22 25  1  0  0  0  0
 22 21  2  0  0  0  0
 23 22  1  0  0  0  0
 24 18  1  0  0  0  0
 26 27  2  0  0  0  0
 26 31  1  0  0  0  0
 27 28  1  0  0  0  0
 28 33  1  0  0  0  0
 28 29  2  0  0  0  0
 29 34  1  0  0  0  0
 30 29  1  0  0  0  0
 30 35  1  0  0  0  0
 31 30  2  0  0  0  0
 32 27  1  0  0  0  0
 36 38  1  0  0  0  0
 37 36  1  0  0  0  0
 39 40  1  0  0  0  0
 39 36  1  0  0  0  0
 40 42  1  0  0  0  0
 40 41  1  0  0  0  0
 42 43  1  0  0  0  0
 44 42  1  0  0  0  0
 45 46  1  0  0  0  0
 45 44  1  0  0  0  0
 46 39  1  0  0  0  0
M  END
>  <minimizedAffinity>
-5.22594833

$$$$

 OpenBabel03252507233D

 46 49  0  0  1  0  0  0  0  0999 V2000
   37.8200   27.6740   39.4230 C   0  0  0  0  0  0  0  0  0  0  0  0
   38.3280   28.4610   38.5730 O   0  0  0  0  0  0  0  0  0  0  0  0
   37.5040   28.0620   40.7490 N   0  0  0  0  0  0  0  0  0  0  0  0
   36.3020   27.7950   41.5590 C   0  0  0  0  0  0  0  0  0  0  0  0
   36.7120   27.2220   42.9020 C   0  0  0  0  0  0  0  0  0  0  0  0
   37.5130   28.2320   43.6790 C   0  0  0  0  0  0  0  0  0  0  0  0
   37.9230   29.3630   42.7600 C   0  0  0  0  0  0  0  0  0  0  0  0
   38.4620   28.8590   41.4680 C   0  0  2  0  0  0  0  0  0  0  0  0
   35.6690   28.6860   41.6340 H   0  0  0  0  0  0  0  0  0  0  0  0
   35.7760   26.9480   41.0310 H   0  0  0  0  0  0  0  0  0  0  0  0
   35.8240   26.8400   43.4390 H   0  0  0  0  0  0  0  0  0  0  0  0
   37.4140   26.3780   42.6810 H   0  0  0  0  0  0  0  0  0  0  0  0
   38.3720   27.7660   44.2050 H   0  0  0  0  0  0  0  0  0  0  0  0
   36.8170   28.6600   44.4540 H   0  0  0  0  0  0  0  0  0  0  0  0
   36.9900   29.9470   42.5500 H   0  0  0  0  0  0  0  0  0  0  0  0
   38.6180   30.0490   43.2580 H   0  0  0  0  0  0  0  0  0  0  0  0
   39.3140   28.1520   41.7280 H   0  0  0  0  0  0  0  0  0  0  0  0
   38.3410   25.2830   39.5890 C   0  0  0  0  0  0  0  0  0  0  0  0
   37.5510   26.3120   39.0160 C   0  0  0  0  0  0  0  0  0  0  0  0
   36.5690   25.9920   38.1080 C   0  0  0  0  0  0  0  0  0  0  0  0
   36.3900   24.6990   37.7910 N   0  0  0  0  0  0  0  0  0  0  0  0
   37.1350   23.6930   38.3260 C   0  0  0  0  0  0  0  0  0  0  0  0
   38.1020   24.0130   39.2220 N   0  0  0  0  0  0  0  0  0  0  0  0
   39.1160   25.4880   40.3000 H   0  0  0  0  0  0  0  0  0  0  0  0
   36.8640   22.7130   37.9650 H   0  0  0  0  0  0  0  0  0  0  0  0
   35.7760   27.0710   37.5320 C   0  0  0  0  0  0  0  0  0  0  0  0
   34.7170   27.5700   38.2090 C   0  0  0  0  0  0  0  0  0  0  0  0
   33.9780   28.5980   37.6470 C   0  0  0  0  0  0  0  0  0  0  0  0
   34.2800   29.1440   36.4080 C   0  0  0  0  0  0  0  0  0  0  0  0
   35.3720   28.5940   35.7630 C   0  0  0  0  0  0  0  0  0  0  0  0
   36.0790   27.5950   36.3240 N   0  0  0  0  0  0  0  0  0  0  0  0
   34.3820   27.2330   39.1780 H   0  0  0  0  0  0  0  0  0  0  0  0
   33.1180   29.0490   38.1350 H   0  0  0  0  0  0  0  0  0  0  0  0
   33.7380   29.9420   35.9260 H   0  0  0  0  0  0  0  0  0  0  0  0
   35.7100   28.9450   34.7810 H   0  0  0  0  0  0  0  0  0  0  0  0
   39.0310   29.9840   40.6740 C   0  0  0  0  0  0  0  0  0  0  0  0
   38.9270   29.8590   39.5980 H   0  0  0  0  0  0  0  0  0  0  0  0
   40.1380   30.0030   40.9150 H   0  0  0  0  0  0  0  0  0  0  0  0
   38.5450   31.2930   41.0480 N   0  0  0  0  0  0  0  0  0  0  0  0
   39.5960   32.2310   41.1850 C   0  0  0  0  0  3  0  0  0  0  0  0
   40.5100   31.7890   41.5950 H   0  0  0  0  0  0  0  0  0  0  0  0
   39.8760   33.0500   39.9340 C   0  0  0  0  0  3  0  0  0  0  0  0
   40.6710   33.7780   40.2300 H   0  0  0  0  0  0  0  0  0  0  0  0
   38.7660   33.7810   39.6000 O   0  0  0  0  0  0  0  0  0  0  0  0
   37.5510   33.2000   39.8620 C   0  0  0  0  0  2  0  0  0  0  0  0
   37.6230   31.7100   40.0320 C   0  0  0  0  0  2  0  0  0  0  0  0
  1  3  1  0  0  0  0
  2  1  2  0  0  0  0
  3  8  1  0  0  0  0
  3  4  1  0  0  0  0
  4  9  1  0  0  0  0
  4  5  1  0  0  0  0
  5 11  1  0  0  0  0
  5  6  1  0  0  0  0
  6 13  1  0  0  0  0
  6 14  1  0  0  0  0
  7 16  1  0  0  0  0
  7  6  1  0  0  0  0
  8 17  1  1  0  0  0
  8  7  1  0  0  0  0
 10  4  1  0  0  0  0
 12  5  1  0  0  0  0
 15  7  1  0  0  0  0
 18 24  1  0  0  0  0
 19  1  1  0  0  0  0
 19 18  2  0  0  0  0
 20 19  1  0  0  0  0
 21 20  2  0  0  0  0
 21 22  1  0  0  0  0
 22 23  2  0  0  0  0
 23 18  1  0  0  0  0
 25 22  1  0  0  0  0
 26 20  1  0  0  0  0
 26 27  1  0  0  0  0
 27 32  1  0  0  0  0
 28 33  1  0  0  0  0
 28 27  2  0  0  0  0
 29 28  1  0  0  0  0
 30 31  1  0  0  0  0
 30 29  2  0  0  0  0
 31 26  2  0  0  0  0
 34 29  1  0  0  0  0
 35 30  1  0  0  0  0
 36 38  1  0  0  0  0
 36 39  1  0  0  0  0
 36  8  1  0  0  0  0
 37 36  1  0  0  0  0
 39 40  1  0  0  0  0
 40 41  1  0  0  0  0
 42 43  1  0  0  0  0
 42 40  1  0  0  0  0
 44 45  1  0  0  0  0
 44 42  1  0  0  0  0
 45 46  1  0  0  0  0
 46 39  1  0  0  0  0
M  END
>  <minimizedAffinity>
-5.20029259

$$$$
