
 OpenBabel03252503453D

 43 46  0  0  1  0  0  0  0  0999 V2000
   45.1340   34.7810   44.7860 C   0  0  0  0  0  0  0  0  0  0  0  0
   46.0560   34.5410   43.7670 C   0  0  0  0  0  0  0  0  0  0  0  0
   46.9150   33.4560   43.9430 C   0  0  0  0  0  0  0  0  0  0  0  0
   46.8540   32.6750   45.0470 N   0  0  0  0  0  0  0  0  0  0  0  0
   45.9420   32.9450   46.0130 C   0  0  0  0  0  0  0  0  0  0  0  0
   45.0790   33.9950   45.8890 N   0  0  0  0  0  0  0  0  0  0  0  0
   44.4290   35.5890   44.7510 H   0  0  0  0  0  0  0  0  0  0  0  0
   47.6700   33.1670   43.2590 H   0  0  0  0  0  0  0  0  0  0  0  0
   47.3470   31.7690   47.6920 C   0  0  2  0  0  0  0  0  0  0  0  0
   45.9070   32.0710   47.1820 C   0  0  1  0  0  0  0  0  0  0  0  0
   45.3910   32.6100   48.3110 O   0  0  0  0  0  0  0  0  0  0  0  0
   45.7440   31.8030   49.3570 C   0  0  0  0  0  0  0  0  0  0  0  0
   46.9380   30.9770   48.9430 C   0  0  2  0  0  0  0  0  0  0  0  0
   47.8800   31.1480   46.9750 H   0  0  0  0  0  0  0  0  0  0  0  0
   45.4100   31.0880   46.9750 H   0  0  0  0  0  0  0  0  0  0  0  0
   44.8690   31.1500   49.6400 H   0  0  0  0  0  0  0  0  0  0  0  0
   46.0130   32.3570   50.2880 H   0  0  0  0  0  0  0  0  0  0  0  0
   46.6040   29.9610   48.7090 H   0  0  0  0  0  0  0  0  0  0  0  0
   47.9460   32.9000   48.1010 O   0  0  0  0  0  0  0  0  0  0  0  0
   47.3080   33.5900   48.3940 H   0  0  0  0  0  0  0  0  0  0  0  0
   47.9340   30.9290   49.8890 O   0  0  0  0  0  0  0  0  0  0  0  0
   47.8730   31.7220   50.5070 H   0  0  0  0  0  0  0  0  0  0  0  0
   46.1050   35.3830   42.5920 C   0  0  0  0  0  0  0  0  0  0  0  0
   47.0720   35.1670   42.0620 H   0  0  0  0  0  0  0  0  0  0  0  0
   46.1390   36.4420   42.9180 H   0  0  0  0  0  0  0  0  0  0  0  0
   44.9700   35.0980   41.7060 C   0  0  0  0  0  0  0  0  0  0  0  0
   43.7220   35.6510   41.7890 C   0  0  0  0  0  0  0  0  0  0  0  0
   42.7030   35.3310   40.9250 C   0  0  0  0  0  0  0  0  0  0  0  0
   42.9460   34.4140   39.9320 C   0  0  0  0  0  0  0  0  0  0  0  0
   44.2090   33.8290   39.8180 C   0  0  0  0  0  0  0  0  0  0  0  0
   45.2280   34.1760   40.7130 C   0  0  0  0  0  0  0  0  0  0  0  0
   43.6210   36.3650   42.6030 H   0  0  0  0  0  0  0  0  0  0  0  0
   41.7890   35.8480   41.1200 H   0  0  0  0  0  0  0  0  0  0  0  0
   42.1010   34.2090   39.2900 H   0  0  0  0  0  0  0  0  0  0  0  0
   44.2240   33.1350   38.9880 H   0  0  0  0  0  0  0  0  0  0  0  0
   46.3910   33.4480   40.3400 N   0  0  0  0  0  0  0  0  0  0  0  0
   46.5450   32.0050   40.3880 C   0  0  0  0  0  3  0  0  0  0  0  0
   45.7240   31.5440   40.9880 H   0  0  0  0  0  0  0  0  0  0  0  0
   47.8270   31.7720   41.1820 C   0  0  0  0  0  3  0  0  0  0  0  0
   47.7210   32.4010   42.1090 H   0  0  0  0  0  0  0  0  0  0  0  0
   48.9140   32.2470   40.4900 O   0  0  0  0  0  0  0  0  0  0  0  0
   48.5880   33.1120   39.4760 C   0  0  0  0  0  2  0  0  0  0  0  0
   47.5780   34.1740   39.8590 C   0  0  0  0  0  2  0  0  0  0  0  0
  1  6  1  0  0  0  0
  2  3  1  0  0  0  0
  2  1  2  0  0  0  0
  3  4  2  0  0  0  0
  4  5  1  0  0  0  0
  5 10  1  0  0  0  0
  6  5  2  0  0  0  0
  7  1  1  0  0  0  0
  8  3  1  0  0  0  0
  9 14  1  6  0  0  0
  9 19  1  0  0  0  0
  9 13  1  0  0  0  0
 10 15  1  6  0  0  0
 10  9  1  0  0  0  0
 10 11  1  0  0  0  0
 11 12  1  0  0  0  0
 12 16  1  0  0  0  0
 12 17  1  0  0  0  0
 13 18  1  6  0  0  0
 13 12  1  0  0  0  0
 13 21  1  0  0  0  0
 19 20  1  0  0  0  0
 21 22  1  0  0  0  0
 23 25  1  0  0  0  0
 23  2  1  0  0  0  0
 24 23  1  0  0  0  0
 26 27  1  0  0  0  0
 26 23  1  0  0  0  0
 27 32  1  0  0  0  0
 28 33  1  0  0  0  0
 28 27  2  0  0  0  0
 29 28  1  0  0  0  0
 30 29  2  0  0  0  0
 30 31  1  0  0  0  0
 31 26  2  0  0  0  0
 34 29  1  0  0  0  0
 35 30  1  0  0  0  0
 36 37  1  0  0  0  0
 36 31  1  0  0  0  0
 37 38  1  0  0  0  0
 37 39  1  0  0  0  0
 39 40  1  0  0  0  0
 41 39  1  0  0  0  0
 42 43  1  0  0  0  0
 42 41  1  0  0  0  0
 43 36  1  0  0  0  0
M  END
>  <minimizedAffinity>
-6.87063456

>  <minimizedRMSD>
0.379066169

$$$$
