
 OpenBabel03252503453D

 43 46  0  0  1  0  0  0  0  0999 V2000
   45.0130   34.8930   44.9430 C   0  0  0  0  0  0  0  0  0  0  0  0
   45.9120   34.6950   43.8950 C   0  0  0  0  0  0  0  0  0  0  0  0
   46.7850   33.6140   44.0160 C   0  0  0  0  0  0  0  0  0  0  0  0
   46.7590   32.7970   45.0960 N   0  0  0  0  0  0  0  0  0  0  0  0
   45.8680   33.0290   46.0920 C   0  0  0  0  0  0  0  0  0  0  0  0
   44.9930   34.0730   46.0220 N   0  0  0  0  0  0  0  0  0  0  0  0
   44.2990   35.6950   44.9510 H   0  0  0  0  0  0  0  0  0  0  0  0
   47.5260   33.3540   43.3050 H   0  0  0  0  0  0  0  0  0  0  0  0
   47.3260   31.8000   47.6870 C   0  0  2  0  0  0  0  0  0  0  0  0
   45.8710   32.1180   47.2330 C   0  0  1  0  0  0  0  0  0  0  0  0
   45.3920   32.6210   48.3950 O   0  0  0  0  0  0  0  0  0  0  0  0
   45.7780   31.7820   49.4030 C   0  0  0  0  0  0  0  0  0  0  0  0
   46.9580   30.9690   48.9250 C   0  0  2  0  0  0  0  0  0  0  0  0
   47.8350   31.2010   46.9330 H   0  0  0  0  0  0  0  0  0  0  0  0
   45.3650   31.1420   47.0120 H   0  0  0  0  0  0  0  0  0  0  0  0
   44.9120   31.1210   49.6950 H   0  0  0  0  0  0  0  0  0  0  0  0
   46.0790   32.3060   50.3420 H   0  0  0  0  0  0  0  0  0  0  0  0
   46.6150   29.9610   48.6700 H   0  0  0  0  0  0  0  0  0  0  0  0
   47.9400   32.9170   48.1110 O   0  0  0  0  0  0  0  0  0  0  0  0
   47.3120   33.5980   48.4460 H   0  0  0  0  0  0  0  0  0  0  0  0
   47.9840   30.8910   49.8360 O   0  0  0  0  0  0  0  0  0  0  0  0
   47.9440   31.6640   50.4800 H   0  0  0  0  0  0  0  0  0  0  0  0
   45.9240   35.5730   42.7460 C   0  0  0  0  0  0  0  0  0  0  0  0
   46.9350   35.4830   42.2630 H   0  0  0  0  0  0  0  0  0  0  0  0
   45.8210   36.6180   43.1010 H   0  0  0  0  0  0  0  0  0  0  0  0
   44.8740   35.1900   41.7930 C   0  0  0  0  0  0  0  0  0  0  0  0
   43.5760   35.6170   41.8090 C   0  0  0  0  0  0  0  0  0  0  0  0
   42.6430   35.2110   40.8850 C   0  0  0  0  0  0  0  0  0  0  0  0
   43.0320   34.3360   39.9010 C   0  0  0  0  0  0  0  0  0  0  0  0
   44.3500   33.8790   39.8550 C   0  0  0  0  0  0  0  0  0  0  0  0
   45.2780   34.3120   40.8100 C   0  0  0  0  0  0  0  0  0  0  0  0
   43.3580   36.3070   42.6220 H   0  0  0  0  0  0  0  0  0  0  0  0
   41.6740   35.6340   41.0320 H   0  0  0  0  0  0  0  0  0  0  0  0
   42.2480   34.0580   39.2100 H   0  0  0  0  0  0  0  0  0  0  0  0
   44.4810   33.2010   39.0220 H   0  0  0  0  0  0  0  0  0  0  0  0
   46.5260   33.7060   40.4990 N   0  0  0  0  0  0  0  0  0  0  0  0
   47.7260   34.4000   40.0640 C   0  0  0  0  0  3  0  0  0  0  0  0
   47.4830   35.4490   39.7640 H   0  0  0  0  0  0  0  0  0  0  0  0
   48.1530   33.6860   38.7860 C   0  0  0  0  0  3  0  0  0  0  0  0
   47.2250   33.6280   38.1520 H   0  0  0  0  0  0  0  0  0  0  0  0
   48.5390   32.3970   39.0610 O   0  0  0  0  0  0  0  0  0  0  0  0
   48.1220   31.9470   40.2890 C   0  0  0  0  0  2  0  0  0  0  0  0
   46.6710   32.2450   40.6060 C   0  0  0  0  0  2  0  0  0  0  0  0
  1  7  1  0  0  0  0
  1  6  1  0  0  0  0
  2  3  1  0  0  0  0
  2  1  2  0  0  0  0
  3  4  2  0  0  0  0
  4  5  1  0  0  0  0
  5 10  1  0  0  0  0
  6  5  2  0  0  0  0
  8  3  1  0  0  0  0
  9 14  1  6  0  0  0
  9 19  1  0  0  0  0
  9 13  1  0  0  0  0
 10 15  1  6  0  0  0
 10  9  1  0  0  0  0
 10 11  1  0  0  0  0
 11 12  1  0  0  0  0
 12 16  1  0  0  0  0
 12 17  1  0  0  0  0
 13 18  1  6  0  0  0
 13 12  1  0  0  0  0
 13 21  1  0  0  0  0
 19 20  1  0  0  0  0
 21 22  1  0  0  0  0
 23 25  1  0  0  0  0
 23  2  1  0  0  0  0
 24 23  1  0  0  0  0
 26 27  1  0  0  0  0
 26 23  1  0  0  0  0
 27 32  1  0  0  0  0
 28 33  1  0  0  0  0
 28 27  2  0  0  0  0
 29 28  1  0  0  0  0
 30 29  2  0  0  0  0
 30 31  1  0  0  0  0
 31 26  2  0  0  0  0
 34 29  1  0  0  0  0
 35 30  1  0  0  0  0
 36 43  1  0  0  0  0
 36 31  1  0  0  0  0
 37 36  1  0  0  0  0
 38 37  1  0  0  0  0
 39 41  1  0  0  0  0
 39 37  1  0  0  0  0
 40 39  1  0  0  0  0
 41 42  1  0  0  0  0
 42 43  1  0  0  0  0
M  END
>  <minimizedAffinity>
-6.95732498

>  <minimizedRMSD>
0.337133378

$$$$
