
 OpenBabel03252508433D

 30 32  0  0  0  0  0  0  0  0999 V2000
   46.6590   32.9750   43.4030 C   0  0  0  0  0  0  0  0  0  0  0  0
   47.1310   32.2460   44.4870 C   0  0  0  0  0  0  0  0  0  0  0  0
   47.7900   31.0600   44.2740 C   0  0  0  0  0  0  0  0  0  0  0  0
   47.9730   30.6080   42.9920 C   0  0  0  0  0  0  0  0  0  0  0  0
   47.5200   31.3010   41.8950 C   0  0  0  0  0  0  0  0  0  0  0  0
   46.8530   32.5060   42.1510 C   0  0  0  0  0  0  0  0  0  0  0  0
   48.1800   30.4610   45.0850 H   0  0  0  0  0  0  0  0  0  0  0  0
   48.4860   29.6830   42.8130 H   0  0  0  0  0  0  0  0  0  0  0  0
   47.6580   30.9620   40.8640 H   0  0  0  0  0  0  0  0  0  0  0  0
   46.4850   33.0690   41.2840 H   0  0  0  0  0  0  0  0  0  0  0  0
   45.2800   36.4900   43.2920 C   0  0  0  0  0  0  0  0  0  0  0  0
   45.9830   35.3320   42.8960 C   0  0  0  0  0  0  0  0  0  0  0  0
   45.9690   34.2130   43.7040 C   0  0  0  0  0  0  0  0  0  0  0  0
   45.2580   34.3090   44.8570 N   0  0  0  0  0  0  0  0  0  0  0  0
   44.5850   35.4030   45.2470 C   0  0  0  0  0  0  0  0  0  0  0  0
   44.5940   36.5030   44.4590 N   0  0  0  0  0  0  0  0  0  0  0  0
   45.3070   37.3410   42.6480 H   0  0  0  0  0  0  0  0  0  0  0  0
   46.5260   35.3060   41.9830 H   0  0  0  0  0  0  0  0  0  0  0  0
   44.0430   35.3720   46.1970 H   0  0  0  0  0  0  0  0  0  0  0  0
   46.9410   32.7590   45.8760 C   0  0  0  0  0  0  0  0  0  0  0  0
   46.0310   33.4070   45.9020 H   0  0  0  0  0  0  0  0  0  0  0  0
   47.8340   33.3730   46.1070 H   0  0  0  0  0  0  0  0  0  0  0  0
   46.8320   31.7190   46.8590 N   0  0  0  0  0  0  0  0  0  0  0  0
   47.5730   32.2420   48.0300 C   0  0  0  0  0  0  0  0  0  0  0  0
   46.9960   33.1090   48.3870 H   0  0  0  0  0  0  0  0  0  0  0  0
   47.6370   31.1050   49.0210 C   0  0  0  0  0  0  0  0  0  0  0  0
   48.4000   31.2890   49.7730 H   0  0  0  0  0  0  0  0  0  0  0  0
   46.3630   30.8860   49.4990 O   0  0  0  0  0  0  0  0  0  0  0  0
   45.3750   31.6070   48.8590 C   0  0  0  0  0  0  0  0  0  0  0  0
   45.4540   31.6180   47.3650 C   0  0  0  0  0  0  0  0  0  0  0  0
  1 13  1  0  0  0  0
  1  2  1  0  0  0  0
  2 20  1  0  0  0  0
  3  2  2  0  0  0  0
  3  7  1  0  0  0  0
  4  3  1  0  0  0  0
  5  6  1  0  0  0  0
  5  4  2  0  0  0  0
  6  1  2  0  0  0  0
  8  4  1  0  0  0  0
  9  5  1  0  0  0  0
 10  6  1  0  0  0  0
 11 16  1  0  0  0  0
 12 11  2  0  0  0  0
 12 13  1  0  0  0  0
 13 14  2  0  0  0  0
 14 15  1  0  0  0  0
 15 19  1  0  0  0  0
 16 15  2  0  0  0  0
 17 11  1  0  0  0  0
 18 12  1  0  0  0  0
 20 21  1  0  0  0  0
 20 22  1  0  0  0  0
 20 23  1  0  0  0  0
 23 30  1  0  0  0  0
 23 24  1  0  0  0  0
 24 25  1  0  0  0  0
 24 26  1  0  0  0  0
 26 28  1  0  0  0  0
 26 27  1  0  0  0  0
 29 28  1  0  0  0  0
 30 29  1  0  0  0  0
M  END
>  <minimizedAffinity>
-4.85112333

>  <minimizedRMSD>
5.5903039

$$$$
