
 OpenBabel03242511413D

 33 35  0  0  0  0  0  0  0  0999 V2000
   46.2240   31.9460   47.2540 C   0  0  0  0  0  0  0  0  0  0  0  0
   45.6930   32.3910   48.4340 C   0  0  0  0  0  0  0  0  0  0  0  0
   45.1560   31.6000   49.4030 C   0  0  0  0  0  0  0  0  0  0  0  0
   45.1520   30.2560   49.1610 C   0  0  0  0  0  0  0  0  0  0  0  0
   45.6830   29.7540   47.9720 C   0  0  0  0  0  0  0  0  0  0  0  0
   46.2280   30.6020   47.0050 C   0  0  0  0  0  0  0  0  0  0  0  0
   45.7660   33.4850   48.4860 H   0  0  0  0  0  0  0  0  0  0  0  0
   44.8010   32.1700   50.2440 H   0  0  0  0  0  0  0  0  0  0  0  0
   44.6890   29.7360   50.0200 H   0  0  0  0  0  0  0  0  0  0  0  0
   45.5390   28.6650   48.0680 H   0  0  0  0  0  0  0  0  0  0  0  0
   46.6150   29.6060   46.0380 N   0  0  0  0  0  0  0  0  0  0  0  0
   47.7920   29.0890   45.3690 C   0  0  0  0  0  3  0  0  0  0  0  0
   48.7370   29.3820   45.8900 H   0  0  0  0  0  0  0  0  0  0  0  0
   47.7360   27.6040   45.2810 C   0  0  0  0  0  3  0  0  0  0  0  0
   48.2910   27.2170   44.3720 H   0  0  0  0  0  0  0  0  0  0  0  0
   46.4870   27.0370   45.2460 O   0  0  0  0  0  0  0  0  0  0  0  0
   45.5750   27.9050   44.6460 C   0  0  0  0  0  2  0  0  0  0  0  0
   45.3250   28.9890   45.6750 C   0  0  0  0  0  2  0  0  0  0  0  0
   46.8060   32.6890   46.1160 C   0  0  0  0  0  0  0  0  0  0  0  0
   47.7970   32.2410   45.8490 H   0  0  0  0  0  0  0  0  0  0  0  0
   46.9850   33.7080   46.4360 H   0  0  0  0  0  0  0  0  0  0  0  0
   45.9480   32.5850   44.8740 C   0  0  0  0  0  0  0  0  0  0  0  0
   44.9340   32.2670   45.2970 H   0  0  0  0  0  0  0  0  0  0  0  0
   46.3480   31.9630   44.1040 H   0  0  0  0  0  0  0  0  0  0  0  0
   44.5760   35.9940   44.8080 C   0  0  0  0  0  0  0  0  0  0  0  0
   44.9930   36.4660   43.5390 C   0  0  0  0  0  0  0  0  0  0  0  0
   45.7580   35.5820   42.7600 C   0  0  0  0  0  0  0  0  0  0  0  0
   46.0570   34.3630   43.2250 N   0  0  0  0  0  0  0  0  0  0  0  0
   45.6190   33.9740   44.4590 C   0  0  0  0  0  0  0  0  0  0  0  0
   44.9020   34.7570   45.2340 N   0  0  0  0  0  0  0  0  0  0  0  0
   43.9830   36.5910   45.4930 H   0  0  0  0  0  0  0  0  0  0  0  0
   44.6930   37.4680   43.2660 H   0  0  0  0  0  0  0  0  0  0  0  0
   46.0700   35.9550   41.7940 H   0  0  0  0  0  0  0  0  0  0  0  0
  1  2  1  0  0  0  0
  2  7  1  0  0  0  0
  2  3  2  0  0  0  0
  3  8  1  0  0  0  0
  4  3  1  0  0  0  0
  4  9  1  0  0  0  0
  5 10  1  0  0  0  0
  5  4  2  0  0  0  0
  6  1  2  0  0  0  0
  6  5  1  0  0  0  0
 11  6  1  0  0  0  0
 12 13  1  0  0  0  0
 12 11  1  0  0  0  0
 14 12  1  0  0  0  0
 15 14  1  0  0  0  0
 16 14  1  0  0  0  0
 17 16  1  0  0  0  0
 17 18  1  0  0  0  0
 18 11  1  0  0  0  0
 19 21  1  0  0  0  0
 19  1  1  0  0  0  0
 20 19  1  0  0  0  0
 22 23  1  0  0  0  0
 22 19  1  0  0  0  0
 24 22  1  0  0  0  0
 25 30  1  0  0  0  0
 25 31  1  0  0  0  0
 26 25  2  0  0  0  0
 27 28  2  0  0  0  0
 27 26  1  0  0  0  0
 28 29  1  0  0  0  0
 29 22  1  0  0  0  0
 29 30  2  0  0  0  0
 32 26  1  0  0  0  0
 33 27  1  0  0  0  0
M  END
>  <minimizedAffinity>
-4.80617619

>  <minimizedRMSD>
0.623476505

$$$$
