
 OpenBabel03242518453D

 44 47  0  0  1  0  0  0  0  0999 V2000
   47.3940   32.8900   44.3920 C   0  0  2  0  0  0  0  0  0  0  0  0
   47.3310   33.3040   42.9670 C   0  0  1  0  0  0  0  0  0  0  0  0
   47.2810   32.1080   42.0170 C   0  0  0  0  0  0  0  0  0  0  0  0
   48.4000   31.3470   42.3710 O   0  0  0  0  0  0  0  0  0  0  0  0
   48.2160   30.7020   43.5740 C   0  0  0  0  0  0  0  0  0  0  0  0
   47.2260   31.3620   44.4810 C   0  0  1  0  0  0  0  0  0  0  0  0
   48.3830   33.1160   44.8300 H   0  0  0  0  0  0  0  0  0  0  0  0
   48.2770   33.8560   42.7220 H   0  0  0  0  0  0  0  0  0  0  0  0
   47.4100   32.4170   40.9800 H   0  0  0  0  0  0  0  0  0  0  0  0
   46.3410   31.5390   42.1400 H   0  0  0  0  0  0  0  0  0  0  0  0
   49.2060   30.7530   44.1080 H   0  0  0  0  0  0  0  0  0  0  0  0
   47.9820   29.6290   43.4770 H   0  0  0  0  0  0  0  0  0  0  0  0
   46.1770   31.1900   44.1730 H   0  0  0  0  0  0  0  0  0  0  0  0
   44.9940   36.1230   42.8310 C   0  0  0  0  0  0  0  0  0  0  0  0
   43.9730   35.6830   41.9340 C   0  0  0  0  0  0  0  0  0  0  0  0
   44.1460   34.3820   41.3980 C   0  0  0  0  0  0  0  0  0  0  0  0
   45.2310   33.6600   41.7530 N   0  0  0  0  0  0  0  0  0  0  0  0
   46.1620   34.1340   42.6060 C   0  0  0  0  0  0  0  0  0  0  0  0
   46.0460   35.3670   43.1470 N   0  0  0  0  0  0  0  0  0  0  0  0
   43.1370   36.3050   41.6930 H   0  0  0  0  0  0  0  0  0  0  0  0
   43.4090   34.0030   40.7190 H   0  0  0  0  0  0  0  0  0  0  0  0
   44.8400   37.3680   43.3530 O   0  0  0  0  0  0  0  0  0  0  0  0
   45.3400   38.1570   42.9560 H   0  0  0  0  0  0  0  0  0  0  0  0
   46.4160   33.4790   45.1970 O   0  0  0  0  0  0  0  0  0  0  0  0
   45.6140   32.8910   45.2260 H   0  0  0  0  0  0  0  0  0  0  0  0
   47.3820   31.0250   45.8070 O   0  0  0  0  0  0  0  0  0  0  0  0
   46.7450   28.4000   45.7410 F   0  0  0  0  0  0  0  0  0  0  0  0
   46.3180   29.2740   46.6740 C   0  0  0  0  0  0  0  0  0  0  0  0
   46.5910   30.6200   46.7870 C   0  0  0  0  0  0  0  0  0  0  0  0
   46.0030   31.2530   47.8700 C   0  0  0  0  0  0  0  0  0  0  0  0
   45.1940   30.6590   48.8110 C   0  0  0  0  0  0  0  0  0  0  0  0
   44.9550   29.3270   48.6530 C   0  0  0  0  0  0  0  0  0  0  0  0
   45.4980   28.6110   47.6020 C   0  0  0  0  0  0  0  0  0  0  0  0
   46.2690   32.3260   47.8920 H   0  0  0  0  0  0  0  0  0  0  0  0
   44.8100   31.2950   49.6030 H   0  0  0  0  0  0  0  0  0  0  0  0
   44.3120   28.8600   49.4040 H   0  0  0  0  0  0  0  0  0  0  0  0
   45.1520   27.2300   47.5810 N   0  0  0  0  0  0  0  0  0  0  0  0
   45.9370   26.1480   48.1440 C   0  0  0  0  0  3  0  0  0  0  0  0
   46.9880   26.3850   48.3140 H   0  0  0  0  0  0  0  0  0  0  0  0
   45.8700   25.0350   47.0890 C   0  0  0  0  0  3  0  0  0  0  0  0
   46.5730   24.2250   47.2670 H   0  0  0  0  0  0  0  0  0  0  0  0
   44.5700   24.5910   47.1220 O   0  0  0  0  0  0  0  0  0  0  0  0
   43.6460   25.4890   46.6630 C   0  0  0  0  0  3  0  0  0  0  0  0
   43.9090   26.9230   46.9350 C   0  0  0  0  0  3  0  0  0  0  0  0
  1  6  1  0  0  0  0
  1  7  1  1  0  0  0
  1 24  1  0  0  0  0
  2  8  1  6  0  0  0
  2  1  1  0  0  0  0
  3 10  1  0  0  0  0
  3  4  1  0  0  0  0
  3  2  1  0  0  0  0
  4  5  1  0  0  0  0
  5 11  1  0  0  0  0
  5  6  1  0  0  0  0
  6 13  1  6  0  0  0
  6 26  1  0  0  0  0
  9  3  1  0  0  0  0
 12  5  1  0  0  0  0
 14 19  1  0  0  0  0
 14 22  1  0  0  0  0
 15 14  2  0  0  0  0
 16 17  2  0  0  0  0
 16 15  1  0  0  0  0
 17 18  1  0  0  0  0
 18  2  1  0  0  0  0
 18 19  2  0  0  0  0
 20 15  1  0  0  0  0
 21 16  1  0  0  0  0
 23 22  1  0  0  0  0
 24 25  1  0  0  0  0
 26 29  1  0  0  0  0
 27 28  1  0  0  0  0
 28 29  2  0  0  0  0
 28 33  1  0  0  0  0
 29 30  1  0  0  0  0
 30 34  1  0  0  0  0
 30 31  2  0  0  0  0
 31 35  1  0  0  0  0
 32 31  1  0  0  0  0
 32 36  1  0  0  0  0
 33 32  2  0  0  0  0
 37 33  1  0  0  0  0
 37 38  1  0  0  0  0
 38 39  1  0  0  0  0
 40 42  1  0  0  0  0
 40 41  1  0  0  0  0
 40 38  1  0  0  0  0
 43 44  2  0  0  0  0
 43 42  1  0  0  0  0
 44 37  1  0  0  0  0
M  END
>  <minimizedAffinity>
-5.29836512

>  <minimizedRMSD>
1.23812306

$$$$
