
 OpenBabel03242518453D

 44 47  0  0  1  0  0  0  0  0999 V2000
   47.4810   32.9610   44.3840 C   0  0  2  0  0  0  0  0  0  0  0  0
   47.3770   33.3500   42.9550 C   0  0  1  0  0  0  0  0  0  0  0  0
   47.2980   32.1380   42.0270 C   0  0  0  0  0  0  0  0  0  0  0  0
   48.4250   31.3800   42.3620 O   0  0  0  0  0  0  0  0  0  0  0  0
   48.2750   30.7570   43.5810 C   0  0  0  0  0  0  0  0  0  0  0  0
   47.3120   31.4340   44.5050 C   0  0  1  0  0  0  0  0  0  0  0  0
   48.4830   33.1910   44.7900 H   0  0  0  0  0  0  0  0  0  0  0  0
   48.3170   33.8960   42.6730 H   0  0  0  0  0  0  0  0  0  0  0  0
   47.3970   32.4290   40.9820 H   0  0  0  0  0  0  0  0  0  0  0  0
   46.3600   31.5740   42.1880 H   0  0  0  0  0  0  0  0  0  0  0  0
   49.2800   30.8140   44.0850 H   0  0  0  0  0  0  0  0  0  0  0  0
   48.0350   29.6830   43.5090 H   0  0  0  0  0  0  0  0  0  0  0  0
   46.2550   31.2600   44.2310 H   0  0  0  0  0  0  0  0  0  0  0  0
   45.0370   36.1670   42.8490 C   0  0  0  0  0  0  0  0  0  0  0  0
   43.9950   35.7200   41.9790 C   0  0  0  0  0  0  0  0  0  0  0  0
   44.1570   34.4150   41.4490 C   0  0  0  0  0  0  0  0  0  0  0  0
   45.2500   33.6950   41.7860 N   0  0  0  0  0  0  0  0  0  0  0  0
   46.2000   34.1770   42.6140 C   0  0  0  0  0  0  0  0  0  0  0  0
   46.0950   35.4140   43.1470 N   0  0  0  0  0  0  0  0  0  0  0  0
   43.1540   36.3390   41.7520 H   0  0  0  0  0  0  0  0  0  0  0  0
   43.4050   34.0300   40.7910 H   0  0  0  0  0  0  0  0  0  0  0  0
   44.8940   37.4160   43.3650 O   0  0  0  0  0  0  0  0  0  0  0  0
   45.3850   38.2020   42.9500 H   0  0  0  0  0  0  0  0  0  0  0  0
   46.5280   33.5660   45.2070 O   0  0  0  0  0  0  0  0  0  0  0  0
   45.7260   32.9800   45.2700 H   0  0  0  0  0  0  0  0  0  0  0  0
   47.5060   31.1200   45.8310 O   0  0  0  0  0  0  0  0  0  0  0  0
   46.2970   28.7080   45.6810 F   0  0  0  0  0  0  0  0  0  0  0  0
   46.1590   29.5790   46.7010 C   0  0  0  0  0  0  0  0  0  0  0  0
   46.7340   30.8200   46.8620 C   0  0  0  0  0  0  0  0  0  0  0  0
   46.3990   31.4800   48.0340 C   0  0  0  0  0  0  0  0  0  0  0  0
   45.5630   31.0020   49.0180 C   0  0  0  0  0  0  0  0  0  0  0  0
   45.0210   29.7710   48.8100 C   0  0  0  0  0  0  0  0  0  0  0  0
   45.2960   29.0380   47.6700 C   0  0  0  0  0  0  0  0  0  0  0  0
   46.8980   32.4640   48.0900 H   0  0  0  0  0  0  0  0  0  0  0  0
   45.4020   31.6420   49.8800 H   0  0  0  0  0  0  0  0  0  0  0  0
   44.3570   29.3970   49.5950 H   0  0  0  0  0  0  0  0  0  0  0  0
   44.6500   27.7710   47.6050 N   0  0  0  0  0  0  0  0  0  0  0  0
   44.8010   26.6900   48.5600 C   0  0  0  0  0  3  0  0  0  0  0  0
   45.6950   26.7510   49.1840 H   0  0  0  0  0  0  0  0  0  0  0  0
   44.9150   25.4270   47.6970 C   0  0  0  0  0  3  0  0  0  0  0  0
   45.2340   24.5480   48.2520 H   0  0  0  0  0  0  0  0  0  0  0  0
   43.6670   25.2530   47.1530 O   0  0  0  0  0  0  0  0  0  0  0  0
   43.3020   26.2040   46.2390 C   0  0  0  0  0  3  0  0  0  0  0  0
   43.7810   27.5860   46.4800 C   0  0  0  0  0  3  0  0  0  0  0  0
  1  6  1  0  0  0  0
  1  7  1  1  0  0  0
  1 24  1  0  0  0  0
  2  8  1  6  0  0  0
  2  1  1  0  0  0  0
  3 10  1  0  0  0  0
  3  4  1  0  0  0  0
  3  2  1  0  0  0  0
  4  5  1  0  0  0  0
  5 11  1  0  0  0  0
  5  6  1  0  0  0  0
  6 13  1  6  0  0  0
  6 26  1  0  0  0  0
  9  3  1  0  0  0  0
 12  5  1  0  0  0  0
 14 19  1  0  0  0  0
 14 22  1  0  0  0  0
 15 14  2  0  0  0  0
 16 17  2  0  0  0  0
 16 15  1  0  0  0  0
 17 18  1  0  0  0  0
 18  2  1  0  0  0  0
 18 19  2  0  0  0  0
 20 15  1  0  0  0  0
 21 16  1  0  0  0  0
 23 22  1  0  0  0  0
 24 25  1  0  0  0  0
 26 29  1  0  0  0  0
 27 28  1  0  0  0  0
 28 29  2  0  0  0  0
 28 33  1  0  0  0  0
 29 30  1  0  0  0  0
 30 34  1  0  0  0  0
 30 31  2  0  0  0  0
 31 35  1  0  0  0  0
 32 31  1  0  0  0  0
 32 36  1  0  0  0  0
 33 32  2  0  0  0  0
 37 33  1  0  0  0  0
 37 38  1  0  0  0  0
 38 39  1  0  0  0  0
 40 41  1  0  0  0  0
 40 38  1  0  0  0  0
 42 40  1  0  0  0  0
 43 44  2  0  0  0  0
 43 42  1  0  0  0  0
 44 37  1  0  0  0  0
M  END
>  <minimizedAffinity>
-5.494205

>  <minimizedRMSD>
0.935630023

$$$$
