
 OpenBabel03242518453D

 44 47  0  0  1  0  0  0  0  0999 V2000
   47.4220   32.9300   44.3850 C   0  0  2  0  0  0  0  0  0  0  0  0
   47.3580   33.3470   42.9600 C   0  0  1  0  0  0  0  0  0  0  0  0
   47.3180   32.1530   42.0070 C   0  0  0  0  0  0  0  0  0  0  0  0
   48.4420   31.3990   42.3600 O   0  0  0  0  0  0  0  0  0  0  0  0
   48.2610   30.7500   43.5610 C   0  0  0  0  0  0  0  0  0  0  0  0
   47.2650   31.3990   44.4690 C   0  0  1  0  0  0  0  0  0  0  0  0
   48.4090   33.1610   44.8250 H   0  0  0  0  0  0  0  0  0  0  0  0
   48.3000   33.9070   42.7190 H   0  0  0  0  0  0  0  0  0  0  0  0
   47.4460   32.4660   40.9710 H   0  0  0  0  0  0  0  0  0  0  0  0
   46.3810   31.5770   42.1280 H   0  0  0  0  0  0  0  0  0  0  0  0
   49.2500   30.8070   44.0970 H   0  0  0  0  0  0  0  0  0  0  0  0
   48.0340   29.6760   43.4610 H   0  0  0  0  0  0  0  0  0  0  0  0
   46.2180   31.2210   44.1600 H   0  0  0  0  0  0  0  0  0  0  0  0
   45.0040   36.1520   42.8250 C   0  0  0  0  0  0  0  0  0  0  0  0
   43.9840   35.7050   41.9310 C   0  0  0  0  0  0  0  0  0  0  0  0
   44.1630   34.4040   41.3960 C   0  0  0  0  0  0  0  0  0  0  0  0
   45.2530   33.6880   41.7510 N   0  0  0  0  0  0  0  0  0  0  0  0
   46.1830   34.1700   42.6010 C   0  0  0  0  0  0  0  0  0  0  0  0
   46.0610   35.4030   43.1400 N   0  0  0  0  0  0  0  0  0  0  0  0
   43.1440   36.3210   41.6900 H   0  0  0  0  0  0  0  0  0  0  0  0
   43.4270   34.0190   40.7200 H   0  0  0  0  0  0  0  0  0  0  0  0
   44.8440   37.3970   43.3450 O   0  0  0  0  0  0  0  0  0  0  0  0
   45.3390   38.1880   42.9450 H   0  0  0  0  0  0  0  0  0  0  0  0
   46.4390   33.5090   45.1910 O   0  0  0  0  0  0  0  0  0  0  0  0
   45.6410   32.9150   45.2170 H   0  0  0  0  0  0  0  0  0  0  0  0
   47.4220   31.0600   45.7940 O   0  0  0  0  0  0  0  0  0  0  0  0
   46.5560   28.5140   45.5330 F   0  0  0  0  0  0  0  0  0  0  0  0
   46.2410   29.3350   46.5550 C   0  0  0  0  0  0  0  0  0  0  0  0
   46.6350   30.6380   46.7700 C   0  0  0  0  0  0  0  0  0  0  0  0
   46.1440   31.2210   47.9270 C   0  0  0  0  0  0  0  0  0  0  0  0
   45.3190   30.6160   48.8490 C   0  0  0  0  0  0  0  0  0  0  0  0
   44.9600   29.3280   48.5890 C   0  0  0  0  0  0  0  0  0  0  0  0
   45.4000   28.6640   47.4590 C   0  0  0  0  0  0  0  0  0  0  0  0
   46.5030   32.2610   48.0280 H   0  0  0  0  0  0  0  0  0  0  0  0
   45.0220   31.2090   49.7070 H   0  0  0  0  0  0  0  0  0  0  0  0
   44.3050   28.8530   49.3250 H   0  0  0  0  0  0  0  0  0  0  0  0
   44.9340   27.3240   47.3350 N   0  0  0  0  0  0  0  0  0  0  0  0
   43.7720   26.8950   46.5790 C   0  0  0  0  0  3  0  0  0  0  0  0
   43.0530   27.6860   46.3580 H   0  0  0  0  0  0  0  0  0  0  0  0
   43.0800   25.8710   47.4890 C   0  0  0  0  0  3  0  0  0  0  0  0
   42.0820   25.5990   47.1550 H   0  0  0  0  0  0  0  0  0  0  0  0
   43.9200   24.7830   47.5050 O   0  0  0  0  0  0  0  0  0  0  0  0
   45.1110   24.9900   48.1460 C   0  0  0  0  0  3  0  0  0  0  0  0
   45.7090   26.3420   48.0350 C   0  0  0  0  0  3  0  0  0  0  0  0
  1  6  1  0  0  0  0
  1  7  1  1  0  0  0
  1 24  1  0  0  0  0
  2  8  1  6  0  0  0
  2  1  1  0  0  0  0
  3 10  1  0  0  0  0
  3  4  1  0  0  0  0
  3  2  1  0  0  0  0
  4  5  1  0  0  0  0
  5 11  1  0  0  0  0
  5  6  1  0  0  0  0
  6 13  1  6  0  0  0
  6 26  1  0  0  0  0
  9  3  1  0  0  0  0
 12  5  1  0  0  0  0
 14 19  1  0  0  0  0
 14 22  1  0  0  0  0
 15 14  2  0  0  0  0
 16 17  2  0  0  0  0
 16 15  1  0  0  0  0
 17 18  1  0  0  0  0
 18  2  1  0  0  0  0
 18 19  2  0  0  0  0
 20 15  1  0  0  0  0
 21 16  1  0  0  0  0
 23 22  1  0  0  0  0
 24 25  1  0  0  0  0
 26 29  1  0  0  0  0
 27 28  1  0  0  0  0
 28 29  2  0  0  0  0
 28 33  1  0  0  0  0
 29 30  1  0  0  0  0
 30 34  1  0  0  0  0
 30 31  2  0  0  0  0
 31 35  1  0  0  0  0
 32 31  1  0  0  0  0
 32 36  1  0  0  0  0
 33 32  2  0  0  0  0
 37 33  1  0  0  0  0
 37 44  1  0  0  0  0
 38 37  1  0  0  0  0
 38 40  1  0  0  0  0
 39 38  1  0  0  0  0
 40 42  1  0  0  0  0
 41 40  1  0  0  0  0
 42 43  1  0  0  0  0
 44 43  2  0  0  0  0
M  END
>  <minimizedAffinity>
-5.55074358

>  <minimizedRMSD>
1.35805237

$$$$
