
 OpenBabel03242510103D

 27 29  0  0  0  0  0  0  0  0999 V2000
   40.5220   29.7080   40.6050 Br  0  0  0  0  0  0  0  0  0  0  0  0
   39.0750   30.9170   40.2790 C   0  0  0  0  0  0  0  0  0  0  0  0
   37.8240   30.6440   40.7650 C   0  0  0  0  0  0  0  0  0  0  0  0
   36.7560   31.5130   40.5370 C   0  0  0  0  0  0  0  0  0  0  0  0
   37.0000   32.6510   39.8090 C   0  0  0  0  0  0  0  0  0  0  0  0
   38.2710   32.8850   39.3400 C   0  0  0  0  0  0  0  0  0  0  0  0
   39.3250   32.0480   39.5530 C   0  0  0  0  0  0  0  0  0  0  0  0
   35.7800   31.2420   40.9490 H   0  0  0  0  0  0  0  0  0  0  0  0
   36.1810   33.3380   39.6220 H   0  0  0  0  0  0  0  0  0  0  0  0
   38.4140   33.8040   38.7670 H   0  0  0  0  0  0  0  0  0  0  0  0
   37.0460   27.1570   41.5810 C   0  0  0  0  0  0  0  0  0  0  0  0
   37.2260   27.0930   42.9750 C   0  0  0  0  0  0  0  0  0  0  0  0
   37.6210   28.2800   43.6230 C   0  0  0  0  0  0  0  0  0  0  0  0
   37.8030   29.3980   42.8750 N   0  0  0  0  0  0  0  0  0  0  0  0
   37.6200   29.4190   41.5320 C   0  0  0  0  0  0  0  0  0  0  0  0
   37.2420   28.2880   40.9120 N   0  0  0  0  0  0  0  0  0  0  0  0
   36.7430   26.2890   41.0100 H   0  0  0  0  0  0  0  0  0  0  0  0
   37.0530   26.1510   43.4600 H   0  0  0  0  0  0  0  0  0  0  0  0
   37.7590   28.2360   44.6820 H   0  0  0  0  0  0  0  0  0  0  0  0
   40.5950   32.4000   39.0160 N   0  0  0  0  0  0  0  0  0  0  0  0
   41.6700   33.1070   39.6850 C   0  0  0  0  0  3  0  0  0  0  0  0
   41.2200   33.7020   40.5320 H   0  0  0  0  0  0  0  0  0  0  0  0
   42.3860   34.0900   38.8160 C   0  0  0  0  0  3  0  0  0  0  0  0
   43.4900   33.8930   38.9280 H   0  0  0  0  0  0  0  0  0  0  0  0
   42.0940   33.9370   37.4810 O   0  0  0  0  0  0  0  0  0  0  0  0
   42.1140   32.5990   37.1500 C   0  0  0  0  0  2  0  0  0  0  0  0
   40.7930   31.9770   37.6210 C   0  0  0  0  0  2  0  0  0  0  0  0
  2  1  1  0  0  0  0
  2  3  1  0  0  0  0
  3 15  1  0  0  0  0
  4  3  2  0  0  0  0
  4  8  1  0  0  0  0
  5  4  1  0  0  0  0
  6  7  1  0  0  0  0
  6  5  2  0  0  0  0
  7  2  2  0  0  0  0
  9  5  1  0  0  0  0
 10  6  1  0  0  0  0
 11 12  1  0  0  0  0
 12 18  1  0  0  0  0
 12 13  2  0  0  0  0
 13 19  1  0  0  0  0
 14 13  1  0  0  0  0
 15 14  2  0  0  0  0
 16 15  1  0  0  0  0
 16 11  2  0  0  0  0
 17 11  1  0  0  0  0
 20  7  1  0  0  0  0
 20 21  1  0  0  0  0
 21 22  1  0  0  0  0
 23 24  1  0  0  0  0
 23 21  1  0  0  0  0
 25 23  1  0  0  0  0
 26 25  1  0  0  0  0
 26 27  1  0  0  0  0
 27 20  1  0  0  0  0
M  END
>  <minimizedAffinity>
-4.99351835

$$$$

 OpenBabel03242510103D

 27 29  0  0  0  0  0  0  0  0999 V2000
   38.3620   28.2400   39.2530 Br  0  0  0  0  0  0  0  0  0  0  0  0
   37.8190   27.9950   41.0710 C   0  0  0  0  0  0  0  0  0  0  0  0
   37.7180   29.0710   41.9120 C   0  0  0  0  0  0  0  0  0  0  0  0
   37.3240   28.9130   43.2410 C   0  0  0  0  0  0  0  0  0  0  0  0
   37.0420   27.6420   43.6800 C   0  0  0  0  0  0  0  0  0  0  0  0
   37.1580   26.5910   42.8010 C   0  0  0  0  0  0  0  0  0  0  0  0
   37.5410   26.7270   41.5010 C   0  0  0  0  0  0  0  0  0  0  0  0
   37.2610   29.8080   43.8660 H   0  0  0  0  0  0  0  0  0  0  0  0
   36.7340   27.5000   44.7100 H   0  0  0  0  0  0  0  0  0  0  0  0
   36.9220   25.6010   43.1970 H   0  0  0  0  0  0  0  0  0  0  0  0
   37.3280   32.3410   40.3040 C   0  0  0  0  0  0  0  0  0  0  0  0
   38.6070   32.9180   40.4090 C   0  0  0  0  0  0  0  0  0  0  0  0
   39.6030   32.1520   41.0460 C   0  0  0  0  0  0  0  0  0  0  0  0
   39.2740   30.9210   41.5150 N   0  0  0  0  0  0  0  0  0  0  0  0
   38.0290   30.4000   41.3950 C   0  0  0  0  0  0  0  0  0  0  0  0
   37.0780   31.1290   40.7870 N   0  0  0  0  0  0  0  0  0  0  0  0
   36.5090   32.8650   39.8280 H   0  0  0  0  0  0  0  0  0  0  0  0
   38.7480   33.9000   40.0010 H   0  0  0  0  0  0  0  0  0  0  0  0
   40.5760   32.5860   41.1280 H   0  0  0  0  0  0  0  0  0  0  0  0
   37.6240   25.5620   40.6880 N   0  0  0  0  0  0  0  0  0  0  0  0
   36.5980   25.0190   39.8180 C   0  0  0  0  0  3  0  0  0  0  0  0
   35.5980   25.3940   40.1830 H   0  0  0  0  0  0  0  0  0  0  0  0
   36.5160   23.5270   39.8310 C   0  0  0  0  0  3  0  0  0  0  0  0
   36.5140   23.1830   38.7570 H   0  0  0  0  0  0  0  0  0  0  0  0
   37.6030   22.9350   40.4300 O   0  0  0  0  0  0  0  0  0  0  0  0
   38.7620   23.5460   40.0000 C   0  0  0  0  0  2  0  0  0  0  0  0
   38.9150   24.8630   40.7740 C   0  0  0  0  0  2  0  0  0  0  0  0
  1  2  1  0  0  0  0
  2  7  2  0  0  0  0
  2  3  1  0  0  0  0
  3  4  2  0  0  0  0
  4  5  1  0  0  0  0
  4  8  1  0  0  0  0
  5  9  1  0  0  0  0
  6 10  1  0  0  0  0
  6  5  2  0  0  0  0
  7  6  1  0  0  0  0
 11 12  2  0  0  0  0
 11 16  1  0  0  0  0
 12 13  1  0  0  0  0
 13 19  1  0  0  0  0
 13 14  2  0  0  0  0
 15 14  1  0  0  0  0
 15  3  1  0  0  0  0
 16 15  2  0  0  0  0
 17 11  1  0  0  0  0
 18 12  1  0  0  0  0
 20 27  1  0  0  0  0
 20  7  1  0  0  0  0
 21 23  1  0  0  0  0
 21 22  1  0  0  0  0
 21 20  1  0  0  0  0
 23 25  1  0  0  0  0
 24 23  1  0  0  0  0
 26 25  1  0  0  0  0
 26 27  1  0  0  0  0
M  END
>  <minimizedAffinity>
-4.86924028

$$$$

 OpenBabel03242510103D

 27 29  0  0  0  0  0  0  0  0999 V2000
   38.2440   27.7730   39.1120 Br  0  0  0  0  0  0  0  0  0  0  0  0
   37.8260   27.8930   40.9760 C   0  0  0  0  0  0  0  0  0  0  0  0
   37.5360   26.7630   41.6920 C   0  0  0  0  0  0  0  0  0  0  0  0
   37.2270   26.8310   43.0520 C   0  0  0  0  0  0  0  0  0  0  0  0
   37.2240   28.0670   43.6480 C   0  0  0  0  0  0  0  0  0  0  0  0
   37.5200   29.1760   42.8890 C   0  0  0  0  0  0  0  0  0  0  0  0
   37.8230   29.1280   41.5620 C   0  0  0  0  0  0  0  0  0  0  0  0
   37.0040   25.8950   43.5720 H   0  0  0  0  0  0  0  0  0  0  0  0
   36.9860   28.1390   44.7040 H   0  0  0  0  0  0  0  0  0  0  0  0
   37.5040   30.1360   43.4090 H   0  0  0  0  0  0  0  0  0  0  0  0
   38.7130   23.5350   40.4180 C   0  0  0  0  0  0  0  0  0  0  0  0
   37.6020   23.0280   39.7190 C   0  0  0  0  0  0  0  0  0  0  0  0
   36.4410   23.8270   39.6980 C   0  0  0  0  0  0  0  0  0  0  0  0
   36.4630   25.0190   40.3460 N   0  0  0  0  0  0  0  0  0  0  0  0
   37.5540   25.4730   41.0090 C   0  0  0  0  0  0  0  0  0  0  0  0
   38.6620   24.7130   41.0290 N   0  0  0  0  0  0  0  0  0  0  0  0
   39.6410   22.9830   40.4800 H   0  0  0  0  0  0  0  0  0  0  0  0
   37.7020   22.0700   39.2450 H   0  0  0  0  0  0  0  0  0  0  0  0
   35.5950   23.4450   39.1690 H   0  0  0  0  0  0  0  0  0  0  0  0
   38.1130   30.3460   40.8840 N   0  0  0  0  0  0  0  0  0  0  0  0
   39.4200   30.8820   40.5560 C   0  0  0  0  0  3  0  0  0  0  0  0
   40.1710   30.4270   41.2650 H   0  0  0  0  0  0  0  0  0  0  0  0
   39.5300   32.3630   40.7230 C   0  0  0  0  0  3  0  0  0  0  0  0
   39.9820   32.7740   39.7750 H   0  0  0  0  0  0  0  0  0  0  0  0
   38.3080   32.9780   40.8720 O   0  0  0  0  0  0  0  0  0  0  0  0
   37.4130   32.4630   39.9580 C   0  0  0  0  0  2  0  0  0  0  0  0
   36.9200   31.1110   40.4920 C   0  0  0  0  0  2  0  0  0  0  0  0
  1  2  1  0  0  0  0
  2  7  2  0  0  0  0
  2  3  1  0  0  0  0
  3  4  2  0  0  0  0
  4  8  1  0  0  0  0
  4  5  1  0  0  0  0
  5  9  1  0  0  0  0
  6 10  1  0  0  0  0
  6  5  2  0  0  0  0
  7  6  1  0  0  0  0
 11 17  1  0  0  0  0
 11 16  1  0  0  0  0
 12 11  2  0  0  0  0
 13 12  1  0  0  0  0
 13 14  2  0  0  0  0
 14 15  1  0  0  0  0
 15 16  2  0  0  0  0
 15  3  1  0  0  0  0
 18 12  1  0  0  0  0
 19 13  1  0  0  0  0
 20  7  1  0  0  0  0
 21 23  1  0  0  0  0
 21 20  1  0  0  0  0
 21 22  1  0  0  0  0
 23 25  1  0  0  0  0
 24 23  1  0  0  0  0
 26 27  1  0  0  0  0
 26 25  1  0  0  0  0
 27 20  1  0  0  0  0
M  END
>  <minimizedAffinity>
-4.82772541

$$$$

 OpenBabel03242510103D

 27 29  0  0  0  0  0  0  0  0999 V2000
   38.0960   28.2670   39.1470 Br  0  0  0  0  0  0  0  0  0  0  0  0
   37.6310   27.9810   40.9810 C   0  0  0  0  0  0  0  0  0  0  0  0
   37.4460   26.7110   41.4560 C   0  0  0  0  0  0  0  0  0  0  0  0
   37.1060   26.4820   42.7900 C   0  0  0  0  0  0  0  0  0  0  0  0
   36.9630   27.5730   43.6110 C   0  0  0  0  0  0  0  0  0  0  0  0
   37.1590   28.8310   43.0920 C   0  0  0  0  0  0  0  0  0  0  0  0
   37.4900   29.0720   41.7930 C   0  0  0  0  0  0  0  0  0  0  0  0
   36.9700   25.4460   43.1130 H   0  0  0  0  0  0  0  0  0  0  0  0
   36.6990   27.4140   44.6510 H   0  0  0  0  0  0  0  0  0  0  0  0
   37.0340   29.6650   43.7850 H   0  0  0  0  0  0  0  0  0  0  0  0
   36.6730   24.1050   38.9980 C   0  0  0  0  0  0  0  0  0  0  0  0
   37.9050   23.4540   38.8030 C   0  0  0  0  0  0  0  0  0  0  0  0
   39.0060   23.9370   39.5400 C   0  0  0  0  0  0  0  0  0  0  0  0
   38.8130   24.9850   40.3810 N   0  0  0  0  0  0  0  0  0  0  0  0
   37.6100   25.5860   40.5400 C   0  0  0  0  0  0  0  0  0  0  0  0
   36.5590   25.1270   39.8390 N   0  0  0  0  0  0  0  0  0  0  0  0
   35.7810   23.7940   38.4700 H   0  0  0  0  0  0  0  0  0  0  0  0
   37.9360   22.6350   38.1110 H   0  0  0  0  0  0  0  0  0  0  0  0
   39.9430   23.4450   39.3960 H   0  0  0  0  0  0  0  0  0  0  0  0
   37.6660   30.4210   41.3730 N   0  0  0  0  0  0  0  0  0  0  0  0
   36.6790   31.2880   40.7580 C   0  0  0  0  0  3  0  0  0  0  0  0
   35.8930   30.6350   40.2780 H   0  0  0  0  0  0  0  0  0  0  0  0
   37.2250   32.1550   39.6700 C   0  0  0  0  0  3  0  0  0  0  0  0
   36.8830   33.2090   39.8790 H   0  0  0  0  0  0  0  0  0  0  0  0
   38.6000   32.1860   39.6480 O   0  0  0  0  0  0  0  0  0  0  0  0
   39.0840   32.3250   40.9320 C   0  0  0  0  0  2  0  0  0  0  0  0
   39.0170   30.9500   41.6110 C   0  0  0  0  0  2  0  0  0  0  0  0
  1  2  1  0  0  0  0
  2  3  2  0  0  0  0
  2  7  1  0  0  0  0
  3  4  1  0  0  0  0
  4  8  1  0  0  0  0
  4  5  2  0  0  0  0
  5  9  1  0  0  0  0
  6  5  1  0  0  0  0
  6 10  1  0  0  0  0
  7  6  2  0  0  0  0
 11 16  1  0  0  0  0
 12 11  2  0  0  0  0
 12 13  1  0  0  0  0
 13 14  2  0  0  0  0
 14 15  1  0  0  0  0
 15  3  1  0  0  0  0
 16 15  2  0  0  0  0
 17 11  1  0  0  0  0
 18 12  1  0  0  0  0
 19 13  1  0  0  0  0
 20 27  1  0  0  0  0
 20  7  1  0  0  0  0
 21 20  1  0  0  0  0
 22 21  1  0  0  0  0
 23 24  1  0  0  0  0
 23 21  1  0  0  0  0
 25 23  1  0  0  0  0
 25 26  1  0  0  0  0
 26 27  1  0  0  0  0
M  END
>  <minimizedAffinity>
-4.74552059

$$$$

 OpenBabel03242510103D

 27 29  0  0  0  0  0  0  0  0999 V2000
   40.2820   29.3470   40.8160 Br  0  0  0  0  0  0  0  0  0  0  0  0
   38.3690   29.3450   40.8180 C   0  0  0  0  0  0  0  0  0  0  0  0
   37.6800   28.2790   41.3320 C   0  0  0  0  0  0  0  0  0  0  0  0
   36.2850   28.2580   41.3410 C   0  0  0  0  0  0  0  0  0  0  0  0
   35.6240   29.3420   40.8190 C   0  0  0  0  0  0  0  0  0  0  0  0
   36.3560   30.3910   40.3140 C   0  0  0  0  0  0  0  0  0  0  0  0
   37.7170   30.4270   40.2960 C   0  0  0  0  0  0  0  0  0  0  0  0
   35.7890   27.3800   41.7640 H   0  0  0  0  0  0  0  0  0  0  0  0
   34.5390   29.3440   40.8180 H   0  0  0  0  0  0  0  0  0  0  0  0
   35.7840   31.2300   39.9100 H   0  0  0  0  0  0  0  0  0  0  0  0
   39.2820   24.9950   41.6060 C   0  0  0  0  0  0  0  0  0  0  0  0
   39.8510   25.0070   42.8930 C   0  0  0  0  0  0  0  0  0  0  0  0
   39.6670   26.1750   43.6610 C   0  0  0  0  0  0  0  0  0  0  0  0
   38.9640   27.2020   43.1200 N   0  0  0  0  0  0  0  0  0  0  0  0
   38.4320   27.1510   41.8750 C   0  0  0  0  0  0  0  0  0  0  0  0
   38.6050   26.0390   41.1410 N   0  0  0  0  0  0  0  0  0  0  0  0
   39.3790   24.1360   40.9540 H   0  0  0  0  0  0  0  0  0  0  0  0
   40.3870   24.1340   43.2130 H   0  0  0  0  0  0  0  0  0  0  0  0
   40.0970   26.1890   44.6390 H   0  0  0  0  0  0  0  0  0  0  0  0
   38.3620   31.5710   39.7450 N   0  0  0  0  0  0  0  0  0  0  0  0
   38.8760   31.7290   38.3970 C   0  0  0  0  0  3  0  0  0  0  0  0
   39.0740   30.7000   37.9780 H   0  0  0  0  0  0  0  0  0  0  0  0
   40.1730   32.4690   38.3240 C   0  0  0  0  0  3  0  0  0  0  0  0
   40.0560   33.2710   37.5400 H   0  0  0  0  0  0  0  0  0  0  0  0
   40.4910   33.1110   39.4980 O   0  0  0  0  0  0  0  0  0  0  0  0
   39.3750   33.7480   39.9980 C   0  0  0  0  0  2  0  0  0  0  0  0
   38.4990   32.6920   40.6860 C   0  0  0  0  0  2  0  0  0  0  0  0
  1  2  1  0  0  0  0
  2  3  1  0  0  0  0
  3  4  2  0  0  0  0
  3 15  1  0  0  0  0
  4  8  1  0  0  0  0
  5  4  1  0  0  0  0
  6  5  2  0  0  0  0
  7  6  1  0  0  0  0
  7  2  2  0  0  0  0
  9  5  1  0  0  0  0
 10  6  1  0  0  0  0
 11 12  1  0  0  0  0
 12 18  1  0  0  0  0
 12 13  2  0  0  0  0
 13 19  1  0  0  0  0
 14 13  1  0  0  0  0
 15 14  2  0  0  0  0
 16 11  2  0  0  0  0
 16 15  1  0  0  0  0
 17 11  1  0  0  0  0
 20  7  1  0  0  0  0
 20 27  1  0  0  0  0
 21 20  1  0  0  0  0
 22 21  1  0  0  0  0
 23 21  1  0  0  0  0
 23 25  1  0  0  0  0
 24 23  1  0  0  0  0
 25 26  1  0  0  0  0
 26 27  1  0  0  0  0
M  END
>  <minimizedAffinity>
-4.71027994

$$$$

 OpenBabel03242510103D

 27 29  0  0  0  0  0  0  0  0999 V2000
   40.7670   30.2030   40.7070 Br  0  0  0  0  0  0  0  0  0  0  0  0
   39.0940   30.4650   39.8150 C   0  0  0  0  0  0  0  0  0  0  0  0
   39.0000   31.3450   38.7710 C   0  0  0  0  0  0  0  0  0  0  0  0
   37.7890   31.5500   38.1080 C   0  0  0  0  0  0  0  0  0  0  0  0
   36.6950   30.8390   38.5360 C   0  0  0  0  0  0  0  0  0  0  0  0
   36.8360   29.9660   39.5890 C   0  0  0  0  0  0  0  0  0  0  0  0
   38.0090   29.7540   40.2470 C   0  0  0  0  0  0  0  0  0  0  0  0
   37.7730   32.2660   37.2810 H   0  0  0  0  0  0  0  0  0  0  0  0
   35.7450   30.9860   38.0330 H   0  0  0  0  0  0  0  0  0  0  0  0
   35.9370   29.4250   39.8920 H   0  0  0  0  0  0  0  0  0  0  0  0
   41.5540   33.9630   38.5420 C   0  0  0  0  0  0  0  0  0  0  0  0
   42.4500   33.4710   37.5750 C   0  0  0  0  0  0  0  0  0  0  0  0
   42.1500   32.2170   37.0060 C   0  0  0  0  0  0  0  0  0  0  0  0
   41.0310   31.5680   37.4200 N   0  0  0  0  0  0  0  0  0  0  0  0
   40.1930   32.0760   38.3550 C   0  0  0  0  0  0  0  0  0  0  0  0
   40.4770   33.2720   38.8990 N   0  0  0  0  0  0  0  0  0  0  0  0
   41.7140   34.9180   39.0260 H   0  0  0  0  0  0  0  0  0  0  0  0
   43.3020   34.0740   37.3290 H   0  0  0  0  0  0  0  0  0  0  0  0
   42.8270   31.8390   36.2710 H   0  0  0  0  0  0  0  0  0  0  0  0
   38.0300   28.8230   41.3230 N   0  0  0  0  0  0  0  0  0  0  0  0
   38.3450   27.4080   41.2590 C   0  0  0  0  0  3  0  0  0  0  0  0
   38.1630   27.0590   40.2010 H   0  0  0  0  0  0  0  0  0  0  0  0
   37.4880   26.5530   42.1360 C   0  0  0  0  0  3  0  0  0  0  0  0
   38.1770   25.8860   42.7280 H   0  0  0  0  0  0  0  0  0  0  0  0
   36.7640   27.2810   43.0510 O   0  0  0  0  0  0  0  0  0  0  0  0
   37.5680   28.2440   43.6220 C   0  0  0  0  0  2  0  0  0  0  0  0
   37.6860   29.4080   42.6280 C   0  0  0  0  0  2  0  0  0  0  0  0
  2  7  1  0  0  0  0
  2  1  1  0  0  0  0
  3  2  2  0  0  0  0
  4  5  2  0  0  0  0
  4  3  1  0  0  0  0
  5  6  1  0  0  0  0
  6 10  1  0  0  0  0
  6  7  2  0  0  0  0
  7 20  1  0  0  0  0
  8  4  1  0  0  0  0
  9  5  1  0  0  0  0
 11 16  1  0  0  0  0
 11 17  1  0  0  0  0
 12 11  2  0  0  0  0
 13 14  2  0  0  0  0
 13 12  1  0  0  0  0
 14 15  1  0  0  0  0
 15  3  1  0  0  0  0
 15 16  2  0  0  0  0
 18 12  1  0  0  0  0
 19 13  1  0  0  0  0
 20 27  1  0  0  0  0
 21 20  1  0  0  0  0
 21 23  1  0  0  0  0
 22 21  1  0  0  0  0
 23 24  1  0  0  0  0
 23 25  1  0  0  0  0
 25 26  1  0  0  0  0
 27 26  1  0  0  0  0
M  END
>  <minimizedAffinity>
-4.69825602

$$$$

 OpenBabel03242510103D

 27 29  0  0  0  0  0  0  0  0999 V2000
   38.6530   28.2530   39.3340 Br  0  0  0  0  0  0  0  0  0  0  0  0
   38.0160   27.9850   41.1190 C   0  0  0  0  0  0  0  0  0  0  0  0
   37.8210   29.0560   41.9500 C   0  0  0  0  0  0  0  0  0  0  0  0
   37.3580   28.8810   43.2550 C   0  0  0  0  0  0  0  0  0  0  0  0
   37.1050   27.6000   43.6790 C   0  0  0  0  0  0  0  0  0  0  0  0
   37.3160   26.5550   42.8110 C   0  0  0  0  0  0  0  0  0  0  0  0
   37.7670   26.7070   41.5350 C   0  0  0  0  0  0  0  0  0  0  0  0
   37.2210   29.7730   43.8730 H   0  0  0  0  0  0  0  0  0  0  0  0
   36.7450   27.4450   44.6910 H   0  0  0  0  0  0  0  0  0  0  0  0
   37.1000   25.5550   43.1960 H   0  0  0  0  0  0  0  0  0  0  0  0
   37.3740   32.3230   40.3520 C   0  0  0  0  0  0  0  0  0  0  0  0
   38.6320   32.9370   40.4910 C   0  0  0  0  0  0  0  0  0  0  0  0
   39.6350   32.1970   41.1490 C   0  0  0  0  0  0  0  0  0  0  0  0
   39.3310   30.9540   41.6020 N   0  0  0  0  0  0  0  0  0  0  0  0
   38.1060   30.3970   41.4480 C   0  0  0  0  0  0  0  0  0  0  0  0
   37.1480   31.1010   40.8210 N   0  0  0  0  0  0  0  0  0  0  0  0
   36.5510   32.8250   39.8590 H   0  0  0  0  0  0  0  0  0  0  0  0
   38.7540   33.9260   40.0920 H   0  0  0  0  0  0  0  0  0  0  0  0
   40.5920   32.6600   41.2570 H   0  0  0  0  0  0  0  0  0  0  0  0
   37.9460   25.5460   40.7320 N   0  0  0  0  0  0  0  0  0  0  0  0
   39.1540   24.7570   40.5780 C   0  0  0  0  0  3  0  0  0  0  0  0
   40.0340   25.4140   40.8420 H   0  0  0  0  0  0  0  0  0  0  0  0
   39.3940   24.2760   39.1840 C   0  0  0  0  0  3  0  0  0  0  0  0
   39.6100   23.1710   39.2440 H   0  0  0  0  0  0  0  0  0  0  0  0
   38.2930   24.4160   38.3720 O   0  0  0  0  0  0  0  0  0  0  0  0
   37.1620   24.0060   39.0450 C   0  0  0  0  0  2  0  0  0  0  0  0
   36.7420   25.1380   39.9930 C   0  0  0  0  0  2  0  0  0  0  0  0
  1  2  1  0  0  0  0
  2  7  2  0  0  0  0
  2  3  1  0  0  0  0
  3  4  2  0  0  0  0
  4  5  1  0  0  0  0
  4  8  1  0  0  0  0
  5  9  1  0  0  0  0
  6 10  1  0  0  0  0
  6  5  2  0  0  0  0
  7  6  1  0  0  0  0
 11 12  2  0  0  0  0
 11 16  1  0  0  0  0
 12 13  1  0  0  0  0
 13 19  1  0  0  0  0
 13 14  2  0  0  0  0
 15 14  1  0  0  0  0
 15  3  1  0  0  0  0
 16 15  2  0  0  0  0
 17 11  1  0  0  0  0
 18 12  1  0  0  0  0
 20  7  1  0  0  0  0
 21 20  1  0  0  0  0
 21 22  1  0  0  0  0
 23 24  1  0  0  0  0
 23 21  1  0  0  0  0
 25 26  1  0  0  0  0
 25 23  1  0  0  0  0
 26 27  1  0  0  0  0
 27 20  1  0  0  0  0
M  END
>  <minimizedAffinity>
-4.65696955

$$$$

 OpenBabel03242510103D

 27 29  0  0  0  0  0  0  0  0999 V2000
   40.5600   29.4470   40.6300 Br  0  0  0  0  0  0  0  0  0  0  0  0
   38.7590   30.0930   40.6520 C   0  0  0  0  0  0  0  0  0  0  0  0
   38.4330   31.2510   40.0000 C   0  0  0  0  0  0  0  0  0  0  0  0
   37.1250   31.7380   40.0050 C   0  0  0  0  0  0  0  0  0  0  0  0
   36.1750   31.0180   40.6860 C   0  0  0  0  0  0  0  0  0  0  0  0
   36.5470   29.8600   41.3280 C   0  0  0  0  0  0  0  0  0  0  0  0
   37.8190   29.3700   41.3340 C   0  0  0  0  0  0  0  0  0  0  0  0
   36.9230   32.6680   39.4670 H   0  0  0  0  0  0  0  0  0  0  0  0
   35.1530   31.3810   40.7020 H   0  0  0  0  0  0  0  0  0  0  0  0
   35.7560   29.3230   41.8560 H   0  0  0  0  0  0  0  0  0  0  0  0
   41.0780   33.6800   39.2730 C   0  0  0  0  0  0  0  0  0  0  0  0
   41.4660   33.3660   37.9570 C   0  0  0  0  0  0  0  0  0  0  0  0
   40.7930   32.2980   37.3300 C   0  0  0  0  0  0  0  0  0  0  0  0
   39.8260   31.6460   38.0230 N   0  0  0  0  0  0  0  0  0  0  0  0
   39.4810   31.9780   39.2900 C   0  0  0  0  0  0  0  0  0  0  0  0
   40.1210   32.9970   39.8900 N   0  0  0  0  0  0  0  0  0  0  0  0
   41.5460   34.4860   39.8230 H   0  0  0  0  0  0  0  0  0  0  0  0
   42.2460   33.9530   37.5110 H   0  0  0  0  0  0  0  0  0  0  0  0
   41.0850   32.0570   36.3310 H   0  0  0  0  0  0  0  0  0  0  0  0
   38.0800   28.1600   42.0350 N   0  0  0  0  0  0  0  0  0  0  0  0
   38.5090   28.0150   43.4140 C   0  0  0  0  0  3  0  0  0  0  0  0
   39.0050   28.9790   43.7270 H   0  0  0  0  0  0  0  0  0  0  0  0
   39.5190   26.9340   43.6260 C   0  0  0  0  0  3  0  0  0  0  0  0
   39.1560   26.3030   44.4870 H   0  0  0  0  0  0  0  0  0  0  0  0
   39.6380   26.0920   42.5460 O   0  0  0  0  0  0  0  0  0  0  0  0
   38.3870   25.7650   42.0680 C   0  0  0  0  0  2  0  0  0  0  0  0
   37.8800   26.9460   41.2290 C   0  0  0  0  0  2  0  0  0  0  0  0
  1  2  1  0  0  0  0
  2  7  1  0  0  0  0
  3  4  1  0  0  0  0
  3  2  2  0  0  0  0
  4  5  2  0  0  0  0
  5  9  1  0  0  0  0
  5  6  1  0  0  0  0
  6  7  2  0  0  0  0
  6 10  1  0  0  0  0
  7 20  1  0  0  0  0
  8  4  1  0  0  0  0
 11 17  1  0  0  0  0
 11 16  1  0  0  0  0
 12 11  2  0  0  0  0
 13 12  1  0  0  0  0
 13 14  2  0  0  0  0
 14 15  1  0  0  0  0
 15 16  2  0  0  0  0
 15  3  1  0  0  0  0
 18 12  1  0  0  0  0
 19 13  1  0  0  0  0
 20 21  1  0  0  0  0
 21 23  1  0  0  0  0
 21 22  1  0  0  0  0
 23 24  1  0  0  0  0
 25 23  1  0  0  0  0
 26 25  1  0  0  0  0
 27 20  1  0  0  0  0
 27 26  1  0  0  0  0
M  END
>  <minimizedAffinity>
-4.65357733

$$$$

 OpenBabel03242510103D

 27 29  0  0  0  0  0  0  0  0999 V2000
   39.5700   27.8570   39.6280 Br  0  0  0  0  0  0  0  0  0  0  0  0
   38.0670   28.9600   40.0590 C   0  0  0  0  0  0  0  0  0  0  0  0
   36.9150   28.3990   40.5410 C   0  0  0  0  0  0  0  0  0  0  0  0
   35.8080   29.1870   40.8600 C   0  0  0  0  0  0  0  0  0  0  0  0
   35.9120   30.5430   40.6750 C   0  0  0  0  0  0  0  0  0  0  0  0
   37.0880   31.0630   40.1880 C   0  0  0  0  0  0  0  0  0  0  0  0
   38.1770   30.3100   39.8710 C   0  0  0  0  0  0  0  0  0  0  0  0
   34.9150   28.6830   41.2410 H   0  0  0  0  0  0  0  0  0  0  0  0
   35.0610   31.1710   40.9180 H   0  0  0  0  0  0  0  0  0  0  0  0
   37.1200   32.1470   40.0590 H   0  0  0  0  0  0  0  0  0  0  0  0
   36.4330   24.8380   39.8240 C   0  0  0  0  0  0  0  0  0  0  0  0
   36.7430   24.2070   41.0430 C   0  0  0  0  0  0  0  0  0  0  0  0
   37.1210   25.0410   42.1150 C   0  0  0  0  0  0  0  0  0  0  0  0
   37.1630   26.3820   41.9100 N   0  0  0  0  0  0  0  0  0  0  0  0
   36.8580   26.9510   40.7190 C   0  0  0  0  0  0  0  0  0  0  0  0
   36.4970   26.1580   39.6960 N   0  0  0  0  0  0  0  0  0  0  0  0
   36.1340   24.2680   38.9540 H   0  0  0  0  0  0  0  0  0  0  0  0
   36.6740   23.1370   41.0860 H   0  0  0  0  0  0  0  0  0  0  0  0
   37.3570   24.5660   43.0430 H   0  0  0  0  0  0  0  0  0  0  0  0
   39.3390   30.9650   39.3750 N   0  0  0  0  0  0  0  0  0  0  0  0
   40.5110   31.3720   40.1270 C   0  0  0  0  0  3  0  0  0  0  0  0
   40.2090   31.4800   41.2090 H   0  0  0  0  0  0  0  0  0  0  0  0
   41.0700   32.6950   39.7130 C   0  0  0  0  0  3  0  0  0  0  0  0
   42.1780   32.5540   39.5560 H   0  0  0  0  0  0  0  0  0  0  0  0
   40.5590   33.1420   38.5180 O   0  0  0  0  0  0  0  0  0  0  0  0
   40.5240   32.1070   37.6080 C   0  0  0  0  0  2  0  0  0  0  0  0
   39.3010   31.2380   37.9300 C   0  0  0  0  0  2  0  0  0  0  0  0
  1  2  1  0  0  0  0
  2  3  1  0  0  0  0
  3 15  1  0  0  0  0
  3  4  2  0  0  0  0
  4  8  1  0  0  0  0
  5  4  1  0  0  0  0
  5  9  1  0  0  0  0
  6  5  2  0  0  0  0
  7  2  2  0  0  0  0
  7  6  1  0  0  0  0
 10  6  1  0  0  0  0
 11 12  1  0  0  0  0
 12 18  1  0  0  0  0
 12 13  2  0  0  0  0
 13 19  1  0  0  0  0
 14 13  1  0  0  0  0
 15 14  2  0  0  0  0
 16 11  2  0  0  0  0
 16 15  1  0  0  0  0
 17 11  1  0  0  0  0
 20  7  1  0  0  0  0
 20 21  1  0  0  0  0
 21 22  1  0  0  0  0
 23 21  1  0  0  0  0
 24 23  1  0  0  0  0
 25 23  1  0  0  0  0
 26 27  1  0  0  0  0
 26 25  1  0  0  0  0
 27 20  1  0  0  0  0
M  END
>  <minimizedAffinity>
-4.63705349

$$$$
