
 OpenBabel03242510083D

 27 29  0  0  0  0  0  0  0  0999 V2000
   44.7570   32.9690   41.1850 Br  0  0  0  0  0  0  0  0  0  0  0  0
   46.3980   33.9200   40.9270 C   0  0  0  0  0  0  0  0  0  0  0  0
   46.8850   34.7350   41.9130 C   0  0  0  0  0  0  0  0  0  0  0  0
   48.0790   35.4370   41.7440 C   0  0  0  0  0  0  0  0  0  0  0  0
   48.7500   35.2840   40.5560 C   0  0  0  0  0  0  0  0  0  0  0  0
   48.2240   34.4550   39.5930 C   0  0  0  0  0  0  0  0  0  0  0  0
   47.0600   33.7630   39.7420 C   0  0  0  0  0  0  0  0  0  0  0  0
   48.4190   36.0740   42.5660 H   0  0  0  0  0  0  0  0  0  0  0  0
   49.6800   35.8220   40.4060 H   0  0  0  0  0  0  0  0  0  0  0  0
   48.7950   34.3670   38.6660 H   0  0  0  0  0  0  0  0  0  0  0  0
   45.6290   34.0500   45.2870 C   0  0  0  0  0  0  0  0  0  0  0  0
   44.7100   35.0900   45.5180 C   0  0  0  0  0  0  0  0  0  0  0  0
   44.5370   36.0310   44.4830 C   0  0  0  0  0  0  0  0  0  0  0  0
   45.2560   35.8790   43.3420 N   0  0  0  0  0  0  0  0  0  0  0  0
   46.1320   34.8620   43.1570 C   0  0  0  0  0  0  0  0  0  0  0  0
   46.2990   33.9640   44.1430 N   0  0  0  0  0  0  0  0  0  0  0  0
   45.8190   33.2880   46.0320 H   0  0  0  0  0  0  0  0  0  0  0  0
   44.1990   35.1070   46.4620 H   0  0  0  0  0  0  0  0  0  0  0  0
   43.8400   36.8230   44.6540 H   0  0  0  0  0  0  0  0  0  0  0  0
   46.6180   32.9350   38.6720 N   0  0  0  0  0  0  0  0  0  0  0  0
   45.6910   33.2850   37.6120 C   0  0  0  0  0  0  0  0  0  0  0  0
   45.0530   34.1420   37.9760 H   0  0  0  0  0  0  0  0  0  0  0  0
   44.7460   32.1870   37.2420 C   0  0  0  0  0  0  0  0  0  0  0  0
   44.7790   32.0820   36.1200 H   0  0  0  0  0  0  0  0  0  0  0  0
   45.1140   30.9670   37.7600 O   0  0  0  0  0  0  0  0  0  0  0  0
   46.4700   30.7790   37.5940 C   0  0  0  0  0  0  0  0  0  0  0  0
   47.1930   31.5820   38.6840 C   0  0  0  0  0  0  0  0  0  0  0  0
  2  1  1  0  0  0  0
  2  3  1  0  0  0  0
  3 15  1  0  0  0  0
  4  3  2  0  0  0  0
  4  8  1  0  0  0  0
  5  4  1  0  0  0  0
  6  7  1  0  0  0  0
  6  5  2  0  0  0  0
  7  2  2  0  0  0  0
  9  5  1  0  0  0  0
 10  6  1  0  0  0  0
 11 12  1  0  0  0  0
 11 17  1  0  0  0  0
 12 18  1  0  0  0  0
 13 19  1  0  0  0  0
 13 12  2  0  0  0  0
 14 13  1  0  0  0  0
 15 14  2  0  0  0  0
 15 16  1  0  0  0  0
 16 11  2  0  0  0  0
 20 27  1  0  0  0  0
 20  7  1  0  0  0  0
 21 22  1  0  0  0  0
 21 20  1  0  0  0  0
 23 21  1  0  0  0  0
 23 25  1  0  0  0  0
 24 23  1  0  0  0  0
 26 25  1  0  0  0  0
 26 27  1  0  0  0  0
M  END
>  <minimizedAffinity>
-5.2915988

>  <minimizedRMSD>
0.917651474

$$$$
