
 OpenBabel03242511433D

 33 35  0  0  0  0  0  0  0  0999 V2000
   36.2240   30.0710   39.1910 C   0  0  0  0  0  0  0  0  0  0  0  0
   35.7500   29.4680   38.0580 C   0  0  0  0  0  0  0  0  0  0  0  0
   36.2450   29.6510   36.8030 C   0  0  0  0  0  0  0  0  0  0  0  0
   37.3000   30.5090   36.6830 C   0  0  0  0  0  0  0  0  0  0  0  0
   37.8200   31.1480   37.8100 C   0  0  0  0  0  0  0  0  0  0  0  0
   37.2830   30.9290   39.0800 C   0  0  0  0  0  0  0  0  0  0  0  0
   34.9080   28.8110   38.3100 H   0  0  0  0  0  0  0  0  0  0  0  0
   35.7140   29.0730   36.0670 H   0  0  0  0  0  0  0  0  0  0  0  0
   37.5990   30.5670   35.6190 H   0  0  0  0  0  0  0  0  0  0  0  0
   38.6420   31.7590   37.4000 H   0  0  0  0  0  0  0  0  0  0  0  0
   38.1590   31.7880   39.8350 N   0  0  0  0  0  0  0  0  0  0  0  0
   39.2910   31.7230   40.7380 C   0  0  0  0  0  3  0  0  0  0  0  0
   39.8090   30.7340   40.6970 H   0  0  0  0  0  0  0  0  0  0  0  0
   40.2780   32.7910   40.4190 C   0  0  0  0  0  3  0  0  0  0  0  0
   40.8550   33.1160   41.3400 H   0  0  0  0  0  0  0  0  0  0  0  0
   39.7830   33.9340   39.8460 O   0  0  0  0  0  0  0  0  0  0  0  0
   38.4720   34.1610   40.2650 C   0  0  0  0  0  2  0  0  0  0  0  0
   37.6390   33.1340   39.5260 C   0  0  0  0  0  2  0  0  0  0  0  0
   35.7670   29.9860   40.5930 C   0  0  0  0  0  0  0  0  0  0  0  0
   34.7640   30.4750   40.6870 H   0  0  0  0  0  0  0  0  0  0  0  0
   36.4600   30.5460   41.2090 H   0  0  0  0  0  0  0  0  0  0  0  0
   35.5800   28.5530   41.0410 C   0  0  0  0  0  0  0  0  0  0  0  0
   35.8630   27.9590   40.1050 H   0  0  0  0  0  0  0  0  0  0  0  0
   34.6230   28.3350   41.4600 H   0  0  0  0  0  0  0  0  0  0  0  0
   38.4760   28.8280   43.2870 C   0  0  0  0  0  0  0  0  0  0  0  0
   38.9170   27.4850   43.3830 C   0  0  0  0  0  0  0  0  0  0  0  0
   38.1730   26.5270   42.6740 C   0  0  0  0  0  0  0  0  0  0  0  0
   37.1080   26.9010   41.9550 N   0  0  0  0  0  0  0  0  0  0  0  0
   36.7410   28.2160   41.9080 C   0  0  0  0  0  0  0  0  0  0  0  0
   37.3970   29.1570   42.5500 N   0  0  0  0  0  0  0  0  0  0  0  0
   38.9750   29.6490   43.7930 H   0  0  0  0  0  0  0  0  0  0  0  0
   39.7910   27.2980   43.9910 H   0  0  0  0  0  0  0  0  0  0  0  0
   38.5200   25.5060   42.7550 H   0  0  0  0  0  0  0  0  0  0  0  0
  1 19  1  0  0  0  0
  2  7  1  0  0  0  0
  2  1  2  0  0  0  0
  3  2  1  0  0  0  0
  4  3  2  0  0  0  0
  4  5  1  0  0  0  0
  5  6  2  0  0  0  0
  6  1  1  0  0  0  0
  6 11  1  0  0  0  0
  8  3  1  0  0  0  0
  9  4  1  0  0  0  0
 10  5  1  0  0  0  0
 11 12  1  0  0  0  0
 13 12  1  0  0  0  0
 14 12  1  0  0  0  0
 14 15  1  0  0  0  0
 16 17  1  0  0  0  0
 16 14  1  0  0  0  0
 18 11  1  0  0  0  0
 18 17  1  0  0  0  0
 19 20  1  0  0  0  0
 19 22  1  0  0  0  0
 19 21  1  0  0  0  0
 22 24  1  0  0  0  0
 22 29  1  0  0  0  0
 23 22  1  0  0  0  0
 25 26  1  0  0  0  0
 25 31  1  0  0  0  0
 26 32  1  0  0  0  0
 27 33  1  0  0  0  0
 27 26  2  0  0  0  0
 28 27  1  0  0  0  0
 29 28  2  0  0  0  0
 29 30  1  0  0  0  0
 30 25  2  0  0  0  0
M  END
>  <minimizedAffinity>
-5.27323008

$$$$

 OpenBabel03242511433D

 33 35  0  0  0  0  0  0  0  0999 V2000
   36.7970   29.2340   41.0110 C   0  0  0  0  0  0  0  0  0  0  0  0
   35.8240   28.5560   40.3280 C   0  0  0  0  0  0  0  0  0  0  0  0
   35.4130   28.8350   39.0610 C   0  0  0  0  0  0  0  0  0  0  0  0
   36.0310   29.8800   38.4350 C   0  0  0  0  0  0  0  0  0  0  0  0
   37.0300   30.6010   39.0900 C   0  0  0  0  0  0  0  0  0  0  0  0
   37.4230   30.2790   40.3910 C   0  0  0  0  0  0  0  0  0  0  0  0
   35.4220   27.7490   40.9540 H   0  0  0  0  0  0  0  0  0  0  0  0
   34.6360   28.1680   38.7280 H   0  0  0  0  0  0  0  0  0  0  0  0
   35.6030   29.9970   37.4220 H   0  0  0  0  0  0  0  0  0  0  0  0
   37.3260   31.3590   38.3460 H   0  0  0  0  0  0  0  0  0  0  0  0
   38.4380   31.2860   40.5650 N   0  0  0  0  0  0  0  0  0  0  0  0
   39.8400   31.4210   40.9040 C   0  0  0  0  0  3  0  0  0  0  0  0
   40.3960   30.4560   40.8000 H   0  0  0  0  0  0  0  0  0  0  0  0
   40.4940   32.4410   40.0390 C   0  0  0  0  0  3  0  0  0  0  0  0
   41.3610   32.9450   40.5700 H   0  0  0  0  0  0  0  0  0  0  0  0
   39.6930   33.4460   39.5600 O   0  0  0  0  0  0  0  0  0  0  0  0
   38.6530   33.7060   40.4540 C   0  0  0  0  0  2  0  0  0  0  0  0
   37.7010   32.5370   40.3020 C   0  0  0  0  0  2  0  0  0  0  0  0
   37.3130   29.0570   42.3840 C   0  0  0  0  0  0  0  0  0  0  0  0
   36.9580   29.9030   43.0270 H   0  0  0  0  0  0  0  0  0  0  0  0
   38.3950   29.1100   42.3470 H   0  0  0  0  0  0  0  0  0  0  0  0
   36.7900   27.7910   43.0270 C   0  0  0  0  0  0  0  0  0  0  0  0
   36.0810   27.3810   42.2290 H   0  0  0  0  0  0  0  0  0  0  0  0
   36.3710   27.9230   44.0000 H   0  0  0  0  0  0  0  0  0  0  0  0
   38.7050   24.7650   42.2020 C   0  0  0  0  0  0  0  0  0  0  0  0
   39.9020   24.9510   42.9370 C   0  0  0  0  0  0  0  0  0  0  0  0
   40.0050   26.1390   43.6800 C   0  0  0  0  0  0  0  0  0  0  0  0
   39.0030   27.0270   43.6700 N   0  0  0  0  0  0  0  0  0  0  0  0
   37.8770   26.7800   42.9370 C   0  0  0  0  0  0  0  0  0  0  0  0
   37.7230   25.6880   42.2230 N   0  0  0  0  0  0  0  0  0  0  0  0
   38.5180   23.8860   41.5930 H   0  0  0  0  0  0  0  0  0  0  0  0
   40.6440   24.1680   42.8720 H   0  0  0  0  0  0  0  0  0  0  0  0
   40.9230   26.2700   44.2360 H   0  0  0  0  0  0  0  0  0  0  0  0
  1 19  1  0  0  0  0
  2  7  1  0  0  0  0
  2  1  2  0  0  0  0
  3  2  1  0  0  0  0
  4  3  2  0  0  0  0
  4  5  1  0  0  0  0
  5  6  2  0  0  0  0
  6 11  1  0  0  0  0
  6  1  1  0  0  0  0
  8  3  1  0  0  0  0
  9  4  1  0  0  0  0
 10  5  1  0  0  0  0
 11 12  1  0  0  0  0
 13 12  1  0  0  0  0
 14 15  1  0  0  0  0
 14 12  1  0  0  0  0
 16 14  1  0  0  0  0
 16 17  1  0  0  0  0
 18 17  1  0  0  0  0
 18 11  1  0  0  0  0
 19 22  1  0  0  0  0
 19 20  1  0  0  0  0
 21 19  1  0  0  0  0
 22 24  1  0  0  0  0
 23 22  1  0  0  0  0
 25 30  2  0  0  0  0
 25 26  1  0  0  0  0
 26 27  2  0  0  0  0
 27 33  1  0  0  0  0
 28 27  1  0  0  0  0
 29 22  1  0  0  0  0
 29 28  2  0  0  0  0
 30 29  1  0  0  0  0
 31 25  1  0  0  0  0
 32 26  1  0  0  0  0
M  END
>  <minimizedAffinity>
-5.22350359

$$$$

 OpenBabel03242511433D

 33 35  0  0  0  0  0  0  0  0999 V2000
   39.0670   31.7890   40.7270 C   0  0  0  0  0  0  0  0  0  0  0  0
   39.4290   33.1020   40.8560 C   0  0  0  0  0  0  0  0  0  0  0  0
   38.7410   34.1610   40.3490 C   0  0  0  0  0  0  0  0  0  0  0  0
   37.6000   33.8720   39.6570 C   0  0  0  0  0  0  0  0  0  0  0  0
   37.1890   32.5480   39.4990 C   0  0  0  0  0  0  0  0  0  0  0  0
   37.9240   31.4910   40.0390 C   0  0  0  0  0  0  0  0  0  0  0  0
   40.3600   33.1780   41.4330 H   0  0  0  0  0  0  0  0  0  0  0  0
   39.2130   35.1010   40.5760 H   0  0  0  0  0  0  0  0  0  0  0  0
   37.1450   34.8150   39.3000 H   0  0  0  0  0  0  0  0  0  0  0  0
   36.2600   32.6370   38.9120 H   0  0  0  0  0  0  0  0  0  0  0  0
   37.0870   30.4010   39.6050 N   0  0  0  0  0  0  0  0  0  0  0  0
   36.9930   29.4060   38.5560 C   0  0  0  0  0  3  0  0  0  0  0  0
   37.9620   29.2710   38.0130 H   0  0  0  0  0  0  0  0  0  0  0  0
   36.5730   28.0920   39.1150 C   0  0  0  0  0  3  0  0  0  0  0  0
   35.9980   27.4780   38.3530 H   0  0  0  0  0  0  0  0  0  0  0  0
   35.8050   28.1240   40.2500 O   0  0  0  0  0  0  0  0  0  0  0  0
   35.0350   29.2880   40.2840 C   0  0  0  0  0  2  0  0  0  0  0  0
   36.0110   30.3970   40.6150 C   0  0  0  0  0  2  0  0  0  0  0  0
   39.7300   30.5540   41.1970 C   0  0  0  0  0  0  0  0  0  0  0  0
   40.8410   30.6770   41.1180 H   0  0  0  0  0  0  0  0  0  0  0  0
   39.4450   29.7460   40.5360 H   0  0  0  0  0  0  0  0  0  0  0  0
   39.4400   30.2770   42.6560 C   0  0  0  0  0  0  0  0  0  0  0  0
   38.5500   30.9620   42.8680 H   0  0  0  0  0  0  0  0  0  0  0  0
   40.2780   30.3840   43.3080 H   0  0  0  0  0  0  0  0  0  0  0  0
   38.5100   26.7770   42.0280 C   0  0  0  0  0  0  0  0  0  0  0  0
   37.3560   26.6180   42.8340 C   0  0  0  0  0  0  0  0  0  0  0  0
   36.9560   27.7360   43.5850 C   0  0  0  0  0  0  0  0  0  0  0  0
   37.6530   28.8760   43.5170 N   0  0  0  0  0  0  0  0  0  0  0  0
   38.7570   28.9570   42.7160 C   0  0  0  0  0  0  0  0  0  0  0  0
   39.1800   27.9450   41.9920 N   0  0  0  0  0  0  0  0  0  0  0  0
   38.9100   25.9800   41.4080 H   0  0  0  0  0  0  0  0  0  0  0  0
   36.8710   25.6520   42.8110 H   0  0  0  0  0  0  0  0  0  0  0  0
   36.0740   27.6020   44.1970 H   0  0  0  0  0  0  0  0  0  0  0  0
  1  2  1  0  0  0  0
  1 19  1  0  0  0  0
  2  7  1  0  0  0  0
  3  8  1  0  0  0  0
  3  2  2  0  0  0  0
  4  3  1  0  0  0  0
  5  4  2  0  0  0  0
  5  6  1  0  0  0  0
  6  1  2  0  0  0  0
  9  4  1  0  0  0  0
 10  5  1  0  0  0  0
 11  6  1  0  0  0  0
 11 18  1  0  0  0  0
 12 14  1  0  0  0  0
 12 11  1  0  0  0  0
 13 12  1  0  0  0  0
 14 16  1  0  0  0  0
 15 14  1  0  0  0  0
 16 17  1  0  0  0  0
 17 18  1  0  0  0  0
 19 22  1  0  0  0  0
 20 19  1  0  0  0  0
 21 19  1  0  0  0  0
 22 29  1  0  0  0  0
 22 23  1  0  0  0  0
 22 24  1  0  0  0  0
 25 26  1  0  0  0  0
 26 27  2  0  0  0  0
 27 33  1  0  0  0  0
 28 27  1  0  0  0  0
 29 28  2  0  0  0  0
 30 25  2  0  0  0  0
 30 29  1  0  0  0  0
 31 25  1  0  0  0  0
 32 26  1  0  0  0  0
M  END
>  <minimizedAffinity>
-5.16627502

$$$$

 OpenBabel03242511433D

 33 35  0  0  0  0  0  0  0  0999 V2000
   36.7400   26.3460   39.3940 C   0  0  0  0  0  0  0  0  0  0  0  0
   36.1270   25.2270   38.8980 C   0  0  0  0  0  0  0  0  0  0  0  0
   35.9560   24.0590   39.5750 C   0  0  0  0  0  0  0  0  0  0  0  0
   36.4420   24.0160   40.8500 C   0  0  0  0  0  0  0  0  0  0  0  0
   37.0740   25.1320   41.4010 C   0  0  0  0  0  0  0  0  0  0  0  0
   37.2260   26.3120   40.6710 C   0  0  0  0  0  0  0  0  0  0  0  0
   35.7910   25.4110   37.8690 H   0  0  0  0  0  0  0  0  0  0  0  0
   35.4470   23.3160   38.9850 H   0  0  0  0  0  0  0  0  0  0  0  0
   36.2410   23.0160   41.2790 H   0  0  0  0  0  0  0  0  0  0  0  0
   37.3480   24.7950   42.4150 H   0  0  0  0  0  0  0  0  0  0  0  0
   37.9040   27.0980   41.6710 N   0  0  0  0  0  0  0  0  0  0  0  0
   39.2320   27.5470   42.0350 C   0  0  0  0  0  3  0  0  0  0  0  0
   39.9580   27.4530   41.1900 H   0  0  0  0  0  0  0  0  0  0  0  0
   39.2030   28.9670   42.4810 C   0  0  0  0  0  3  0  0  0  0  0  0
   40.0240   29.1870   43.2320 H   0  0  0  0  0  0  0  0  0  0  0  0
   38.0320   29.4110   43.0410 O   0  0  0  0  0  0  0  0  0  0  0  0
   37.3690   28.3610   43.6780 C   0  0  0  0  0  2  0  0  0  0  0  0
   36.8010   27.5160   42.5570 C   0  0  0  0  0  2  0  0  0  0  0  0
   37.0150   27.6540   38.7650 C   0  0  0  0  0  0  0  0  0  0  0  0
   37.2670   27.5010   37.6840 H   0  0  0  0  0  0  0  0  0  0  0  0
   37.8870   28.0820   39.2440 H   0  0  0  0  0  0  0  0  0  0  0  0
   35.8040   28.5600   38.7900 C   0  0  0  0  0  0  0  0  0  0  0  0
   35.3580   28.3520   39.8220 H   0  0  0  0  0  0  0  0  0  0  0  0
   35.1400   28.4440   37.9630 H   0  0  0  0  0  0  0  0  0  0  0  0
   37.3050   31.8730   38.2590 C   0  0  0  0  0  0  0  0  0  0  0  0
   37.2840   32.4300   39.5610 C   0  0  0  0  0  0  0  0  0  0  0  0
   36.7260   31.6350   40.5760 C   0  0  0  0  0  0  0  0  0  0  0  0
   36.2490   30.4170   40.2900 N   0  0  0  0  0  0  0  0  0  0  0  0
   36.3040   29.9440   39.0100 C   0  0  0  0  0  0  0  0  0  0  0  0
   36.8130   30.6420   38.0190 N   0  0  0  0  0  0  0  0  0  0  0  0
   37.7120   32.3980   37.4000 H   0  0  0  0  0  0  0  0  0  0  0  0
   37.6970   33.4220   39.6770 H   0  0  0  0  0  0  0  0  0  0  0  0
   36.7150   32.0720   41.5650 H   0  0  0  0  0  0  0  0  0  0  0  0
  1  6  1  0  0  0  0
  2  1  2  0  0  0  0
  2  3  1  0  0  0  0
  3  4  2  0  0  0  0
  4  9  1  0  0  0  0
  4  5  1  0  0  0  0
  5 10  1  0  0  0  0
  6  5  2  0  0  0  0
  6 11  1  0  0  0  0
  7  2  1  0  0  0  0
  8  3  1  0  0  0  0
 11 12  1  0  0  0  0
 11 18  1  0  0  0  0
 12 14  1  0  0  0  0
 13 12  1  0  0  0  0
 14 16  1  0  0  0  0
 14 15  1  0  0  0  0
 16 17  1  0  0  0  0
 18 17  1  0  0  0  0
 19 22  1  0  0  0  0
 19 21  1  0  0  0  0
 19  1  1  0  0  0  0
 20 19  1  0  0  0  0
 22 29  1  0  0  0  0
 22 23  1  0  0  0  0
 24 22  1  0  0  0  0
 25 26  1  0  0  0  0
 26 32  1  0  0  0  0
 26 27  2  0  0  0  0
 27 33  1  0  0  0  0
 28 27  1  0  0  0  0
 29 28  2  0  0  0  0
 30 25  2  0  0  0  0
 30 29  1  0  0  0  0
 31 25  1  0  0  0  0
M  END
>  <minimizedAffinity>
-5.02593613

$$$$

 OpenBabel03242511433D

 33 35  0  0  0  0  0  0  0  0999 V2000
   36.8620   28.0010   41.4980 C   0  0  0  0  0  0  0  0  0  0  0  0
   36.9930   28.8190   42.5870 C   0  0  0  0  0  0  0  0  0  0  0  0
   37.7710   28.5630   43.6740 C   0  0  0  0  0  0  0  0  0  0  0  0
   38.4710   27.3900   43.6600 C   0  0  0  0  0  0  0  0  0  0  0  0
   38.3710   26.5240   42.5710 C   0  0  0  0  0  0  0  0  0  0  0  0
   37.5610   26.8270   41.4750 C   0  0  0  0  0  0  0  0  0  0  0  0
   36.3760   29.7170   42.4560 H   0  0  0  0  0  0  0  0  0  0  0  0
   37.7190   29.3480   44.4080 H   0  0  0  0  0  0  0  0  0  0  0  0
   39.0540   27.3070   44.5960 H   0  0  0  0  0  0  0  0  0  0  0  0
   39.0340   25.6870   42.8480 H   0  0  0  0  0  0  0  0  0  0  0  0
   37.8240   25.6540   40.6810 N   0  0  0  0  0  0  0  0  0  0  0  0
   38.5040   25.2490   39.4670 C   0  0  0  0  0  3  0  0  0  0  0  0
   39.2430   26.0130   39.1200 H   0  0  0  0  0  0  0  0  0  0  0  0
   39.2160   23.9570   39.6700 C   0  0  0  0  0  3  0  0  0  0  0  0
   39.2930   23.3660   38.7050 H   0  0  0  0  0  0  0  0  0  0  0  0
   38.6900   23.1070   40.6080 O   0  0  0  0  0  0  0  0  0  0  0  0
   37.3080   23.2780   40.7000 C   0  0  0  0  0  2  0  0  0  0  0  0
   37.1220   24.5930   41.4280 C   0  0  0  0  0  2  0  0  0  0  0  0
   36.0380   28.1430   40.2790 C   0  0  0  0  0  0  0  0  0  0  0  0
   35.1780   27.4270   40.3270 H   0  0  0  0  0  0  0  0  0  0  0  0
   36.6470   27.8640   39.4270 H   0  0  0  0  0  0  0  0  0  0  0  0
   35.4310   29.5240   40.1640 C   0  0  0  0  0  0  0  0  0  0  0  0
   35.7380   30.0150   41.1500 H   0  0  0  0  0  0  0  0  0  0  0  0
   34.3870   29.5370   39.9410 H   0  0  0  0  0  0  0  0  0  0  0  0
   37.4970   32.1710   38.6710 C   0  0  0  0  0  0  0  0  0  0  0  0
   37.7590   31.6610   37.3760 C   0  0  0  0  0  0  0  0  0  0  0  0
   37.2200   30.3980   37.0770 C   0  0  0  0  0  0  0  0  0  0  0  0
   36.5000   29.7400   37.9950 N   0  0  0  0  0  0  0  0  0  0  0  0
   36.2870   30.2960   39.2250 C   0  0  0  0  0  0  0  0  0  0  0  0
   36.7670   31.4720   39.5620 N   0  0  0  0  0  0  0  0  0  0  0  0
   37.8640   33.1350   39.0090 H   0  0  0  0  0  0  0  0  0  0  0  0
   38.3510   32.2780   36.7150 H   0  0  0  0  0  0  0  0  0  0  0  0
   37.4270   30.0190   36.0860 H   0  0  0  0  0  0  0  0  0  0  0  0
  1  2  1  0  0  0  0
  2  3  2  0  0  0  0
  3  8  1  0  0  0  0
  4  3  1  0  0  0  0
  4  9  1  0  0  0  0
  5 10  1  0  0  0  0
  5  4  2  0  0  0  0
  6  1  2  0  0  0  0
  6  5  1  0  0  0  0
  7  2  1  0  0  0  0
 11 18  1  0  0  0  0
 11  6  1  0  0  0  0
 12 14  1  0  0  0  0
 12 11  1  0  0  0  0
 13 12  1  0  0  0  0
 14 16  1  0  0  0  0
 15 14  1  0  0  0  0
 16 17  1  0  0  0  0
 17 18  1  0  0  0  0
 19 20  1  0  0  0  0
 19  1  1  0  0  0  0
 21 19  1  0  0  0  0
 22 19  1  0  0  0  0
 22 23  1  0  0  0  0
 24 22  1  0  0  0  0
 25 31  1  0  0  0  0
 25 30  1  0  0  0  0
 26 25  2  0  0  0  0
 27 26  1  0  0  0  0
 27 28  2  0  0  0  0
 28 29  1  0  0  0  0
 29 30  2  0  0  0  0
 29 22  1  0  0  0  0
 32 26  1  0  0  0  0
 33 27  1  0  0  0  0
M  END
>  <minimizedAffinity>
-5.01392841

$$$$

 OpenBabel03242511433D

 33 35  0  0  0  0  0  0  0  0999 V2000
   36.3340   28.7280   41.4380 C   0  0  0  0  0  0  0  0  0  0  0  0
   36.3900   27.7840   42.4270 C   0  0  0  0  0  0  0  0  0  0  0  0
   37.3340   27.7250   43.4060 C   0  0  0  0  0  0  0  0  0  0  0  0
   38.2960   28.6930   43.3840 C   0  0  0  0  0  0  0  0  0  0  0  0
   38.2810   29.6790   42.3960 C   0  0  0  0  0  0  0  0  0  0  0  0
   37.2910   29.7040   41.4120 C   0  0  0  0  0  0  0  0  0  0  0  0
   35.5580   27.0770   42.3150 H   0  0  0  0  0  0  0  0  0  0  0  0
   37.1780   26.8960   44.0740 H   0  0  0  0  0  0  0  0  0  0  0  0
   38.9950   28.5270   44.2260 H   0  0  0  0  0  0  0  0  0  0  0  0
   39.1600   30.2980   42.6400 H   0  0  0  0  0  0  0  0  0  0  0  0
   37.7300   30.8730   40.6940 N   0  0  0  0  0  0  0  0  0  0  0  0
   37.3030   32.2220   40.3770 C   0  0  0  0  0  3  0  0  0  0  0  0
   36.4850   32.5770   41.0520 H   0  0  0  0  0  0  0  0  0  0  0  0
   38.4460   33.1710   40.4750 C   0  0  0  0  0  3  0  0  0  0  0  0
   38.3200   34.0510   39.7710 H   0  0  0  0  0  0  0  0  0  0  0  0
   39.6940   32.6550   40.2370 O   0  0  0  0  0  0  0  0  0  0  0  0
   39.6180   31.5900   39.3400 C   0  0  0  0  0  2  0  0  0  0  0  0
   39.0270   30.4450   40.1370 C   0  0  0  0  0  2  0  0  0  0  0  0
   35.3930   28.8890   40.3100 C   0  0  0  0  0  0  0  0  0  0  0  0
   35.3020   29.9760   40.0550 H   0  0  0  0  0  0  0  0  0  0  0  0
   34.4170   28.5490   40.6340 H   0  0  0  0  0  0  0  0  0  0  0  0
   35.8890   28.2020   39.0570 C   0  0  0  0  0  0  0  0  0  0  0  0
   35.5590   27.1190   39.2170 H   0  0  0  0  0  0  0  0  0  0  0  0
   36.9260   28.3480   38.8460 H   0  0  0  0  0  0  0  0  0  0  0  0
   32.8610   29.0940   37.1750 C   0  0  0  0  0  0  0  0  0  0  0  0
   33.3410   29.1760   35.8450 C   0  0  0  0  0  0  0  0  0  0  0  0
   34.7120   28.9360   35.6560 C   0  0  0  0  0  0  0  0  0  0  0  0
   35.4950   28.6480   36.7030 N   0  0  0  0  0  0  0  0  0  0  0  0
   34.9620   28.5840   37.9590 C   0  0  0  0  0  0  0  0  0  0  0  0
   33.6870   28.8000   38.1970 N   0  0  0  0  0  0  0  0  0  0  0  0
   31.8200   29.2600   37.4370 H   0  0  0  0  0  0  0  0  0  0  0  0
   32.6190   29.4150   35.0760 H   0  0  0  0  0  0  0  0  0  0  0  0
   35.0660   29.0030   34.6350 H   0  0  0  0  0  0  0  0  0  0  0  0
  1  2  1  0  0  0  0
  2  3  2  0  0  0  0
  3  8  1  0  0  0  0
  4  3  1  0  0  0  0
  4  9  1  0  0  0  0
  5 10  1  0  0  0  0
  5  4  2  0  0  0  0
  6  1  2  0  0  0  0
  6  5  1  0  0  0  0
  7  2  1  0  0  0  0
 11  6  1  0  0  0  0
 12 14  1  0  0  0  0
 12 11  1  0  0  0  0
 12 13  1  0  0  0  0
 15 14  1  0  0  0  0
 16 14  1  0  0  0  0
 17 18  1  0  0  0  0
 17 16  1  0  0  0  0
 18 11  1  0  0  0  0
 19 21  1  0  0  0  0
 19  1  1  0  0  0  0
 20 19  1  0  0  0  0
 22 23  1  0  0  0  0
 22 19  1  0  0  0  0
 24 22  1  0  0  0  0
 25 31  1  0  0  0  0
 25 30  1  0  0  0  0
 26 25  2  0  0  0  0
 27 26  1  0  0  0  0
 27 28  2  0  0  0  0
 28 29  1  0  0  0  0
 29 30  2  0  0  0  0
 29 22  1  0  0  0  0
 32 26  1  0  0  0  0
 33 27  1  0  0  0  0
M  END
>  <minimizedAffinity>
-4.96800518

$$$$

 OpenBabel03242511433D

 33 35  0  0  0  0  0  0  0  0999 V2000
   36.3480   30.0100   39.9820 C   0  0  0  0  0  0  0  0  0  0  0  0
   36.8000   31.0610   40.7330 C   0  0  0  0  0  0  0  0  0  0  0  0
   37.3300   32.2120   40.2360 C   0  0  0  0  0  0  0  0  0  0  0  0
   37.4100   32.3090   38.8760 C   0  0  0  0  0  0  0  0  0  0  0  0
   36.9610   31.2640   38.0680 C   0  0  0  0  0  0  0  0  0  0  0  0
   36.4220   30.1010   38.6200 C   0  0  0  0  0  0  0  0  0  0  0  0
   36.6720   30.8390   41.8000 H   0  0  0  0  0  0  0  0  0  0  0  0
   37.6170   32.8990   41.0140 H   0  0  0  0  0  0  0  0  0  0  0  0
   37.8580   33.2850   38.6100 H   0  0  0  0  0  0  0  0  0  0  0  0
   37.1540   31.6310   37.0460 H   0  0  0  0  0  0  0  0  0  0  0  0
   36.1300   29.3970   37.3970 N   0  0  0  0  0  0  0  0  0  0  0  0
   35.0080   28.8850   36.6370 C   0  0  0  0  0  3  0  0  0  0  0  0
   34.0370   29.3380   36.9560 H   0  0  0  0  0  0  0  0  0  0  0  0
   35.1970   29.1420   35.1820 C   0  0  0  0  0  3  0  0  0  0  0  0
   34.6820   28.3560   34.5480 H   0  0  0  0  0  0  0  0  0  0  0  0
   36.4920   29.2190   34.7360 O   0  0  0  0  0  0  0  0  0  0  0  0
   37.3250   28.4190   35.5190 C   0  0  0  0  0  2  0  0  0  0  0  0
   37.4720   29.1660   36.8280 C   0  0  0  0  0  2  0  0  0  0  0  0
   35.7850   28.7060   40.3880 C   0  0  0  0  0  0  0  0  0  0  0  0
   34.8830   28.4800   39.7640 H   0  0  0  0  0  0  0  0  0  0  0  0
   35.4560   28.7860   41.4170 H   0  0  0  0  0  0  0  0  0  0  0  0
   36.7570   27.5700   40.1500 C   0  0  0  0  0  0  0  0  0  0  0  0
   37.5700   28.0670   39.5180 H   0  0  0  0  0  0  0  0  0  0  0  0
   36.3210   26.6860   39.7400 H   0  0  0  0  0  0  0  0  0  0  0  0
   37.7800   27.6950   43.6780 C   0  0  0  0  0  0  0  0  0  0  0  0
   39.0380   27.0440   43.6540 C   0  0  0  0  0  0  0  0  0  0  0  0
   39.4750   26.5670   42.4070 C   0  0  0  0  0  0  0  0  0  0  0  0
   38.7150   26.7360   41.3180 N   0  0  0  0  0  0  0  0  0  0  0  0
   37.5110   27.3750   41.4170 C   0  0  0  0  0  0  0  0  0  0  0  0
   37.0490   27.8420   42.5550 N   0  0  0  0  0  0  0  0  0  0  0  0
   37.3440   28.1020   44.5850 H   0  0  0  0  0  0  0  0  0  0  0  0
   39.5670   26.9640   44.5930 H   0  0  0  0  0  0  0  0  0  0  0  0
   40.4370   26.0720   42.4020 H   0  0  0  0  0  0  0  0  0  0  0  0
  1 19  1  0  0  0  0
  1  2  1  0  0  0  0
  2  7  1  0  0  0  0
  3  2  2  0  0  0  0
  3  8  1  0  0  0  0
  4  3  1  0  0  0  0
  5  6  1  0  0  0  0
  5  4  2  0  0  0  0
  6  1  2  0  0  0  0
  9  4  1  0  0  0  0
 10  5  1  0  0  0  0
 11  6  1  0  0  0  0
 12 13  1  0  0  0  0
 12 11  1  0  0  0  0
 14 12  1  0  0  0  0
 15 14  1  0  0  0  0
 16 14  1  0  0  0  0
 16 17  1  0  0  0  0
 17 18  1  0  0  0  0
 18 11  1  0  0  0  0
 19 21  1  0  0  0  0
 20 19  1  0  0  0  0
 22 19  1  0  0  0  0
 22 29  1  0  0  0  0
 23 22  1  0  0  0  0
 24 22  1  0  0  0  0
 25 31  1  0  0  0  0
 26 25  1  0  0  0  0
 26 32  1  0  0  0  0
 27 26  2  0  0  0  0
 28 29  2  0  0  0  0
 28 27  1  0  0  0  0
 29 30  1  0  0  0  0
 30 25  2  0  0  0  0
 33 27  1  0  0  0  0
M  END
>  <minimizedAffinity>
-4.90063763

$$$$

 OpenBabel03242511433D

 33 35  0  0  0  0  0  0  0  0999 V2000
   36.7930   29.0060   40.1160 C   0  0  0  0  0  0  0  0  0  0  0  0
   36.0540   28.0850   39.4250 C   0  0  0  0  0  0  0  0  0  0  0  0
   35.6410   28.2150   38.1350 C   0  0  0  0  0  0  0  0  0  0  0  0
   36.0020   29.3650   37.4930 C   0  0  0  0  0  0  0  0  0  0  0  0
   36.7570   30.3340   38.1540 C   0  0  0  0  0  0  0  0  0  0  0  0
   37.1620   30.1580   39.4790 C   0  0  0  0  0  0  0  0  0  0  0  0
   35.8410   27.2200   40.0670 H   0  0  0  0  0  0  0  0  0  0  0  0
   35.0720   27.3650   37.8010 H   0  0  0  0  0  0  0  0  0  0  0  0
   35.6020   29.3420   36.4610 H   0  0  0  0  0  0  0  0  0  0  0  0
   36.8840   31.1220   37.3940 H   0  0  0  0  0  0  0  0  0  0  0  0
   37.8820   31.3940   39.6510 N   0  0  0  0  0  0  0  0  0  0  0  0
   37.7390   32.7010   40.2600 C   0  0  0  0  0  3  0  0  0  0  0  0
   36.9200   32.7260   41.0210 H   0  0  0  0  0  0  0  0  0  0  0  0
   39.0100   33.1170   40.9140 C   0  0  0  0  0  3  0  0  0  0  0  0
   39.1260   34.2450   40.9230 H   0  0  0  0  0  0  0  0  0  0  0  0
   40.1680   32.6090   40.3850 O   0  0  0  0  0  0  0  0  0  0  0  0
   40.0160   32.3730   39.0180 C   0  0  0  0  0  2  0  0  0  0  0  0
   39.1420   31.1390   38.9270 C   0  0  0  0  0  2  0  0  0  0  0  0
   37.2780   29.0040   41.5120 C   0  0  0  0  0  0  0  0  0  0  0  0
   36.9940   29.9680   42.0050 H   0  0  0  0  0  0  0  0  0  0  0  0
   38.3600   28.9550   41.4940 H   0  0  0  0  0  0  0  0  0  0  0  0
   36.6350   27.9060   42.3320 C   0  0  0  0  0  0  0  0  0  0  0  0
   36.0770   27.2970   41.5410 H   0  0  0  0  0  0  0  0  0  0  0  0
   36.0500   28.2470   43.1570 H   0  0  0  0  0  0  0  0  0  0  0  0
   39.7380   26.4290   43.6360 C   0  0  0  0  0  0  0  0  0  0  0  0
   39.6680   25.0980   43.1550 C   0  0  0  0  0  0  0  0  0  0  0  0
   38.5270   24.7590   42.4090 C   0  0  0  0  0  0  0  0  0  0  0  0
   37.5750   25.6730   42.1830 N   0  0  0  0  0  0  0  0  0  0  0  0
   37.7110   26.9390   42.6770 C   0  0  0  0  0  0  0  0  0  0  0  0
   38.7540   27.3140   43.3830 N   0  0  0  0  0  0  0  0  0  0  0  0
   40.5720   26.8000   44.2230 H   0  0  0  0  0  0  0  0  0  0  0  0
   40.4950   24.4450   43.3970 H   0  0  0  0  0  0  0  0  0  0  0  0
   38.4860   23.7400   42.0480 H   0  0  0  0  0  0  0  0  0  0  0  0
  1 19  1  0  0  0  0
  2  7  1  0  0  0  0
  2  1  2  0  0  0  0
  3  2  1  0  0  0  0
  4  3  2  0  0  0  0
  4  5  1  0  0  0  0
  5  6  2  0  0  0  0
  6 11  1  0  0  0  0
  6  1  1  0  0  0  0
  8  3  1  0  0  0  0
  9  4  1  0  0  0  0
 10  5  1  0  0  0  0
 11 12  1  0  0  0  0
 12 14  1  0  0  0  0
 12 13  1  0  0  0  0
 14 15  1  0  0  0  0
 16 14  1  0  0  0  0
 17 16  1  0  0  0  0
 18 17  1  0  0  0  0
 18 11  1  0  0  0  0
 19 20  1  0  0  0  0
 19 22  1  0  0  0  0
 21 19  1  0  0  0  0
 22 29  1  0  0  0  0
 22 24  1  0  0  0  0
 23 22  1  0  0  0  0
 25 31  1  0  0  0  0
 26 32  1  0  0  0  0
 26 25  2  0  0  0  0
 27 26  1  0  0  0  0
 28 27  2  0  0  0  0
 28 29  1  0  0  0  0
 29 30  2  0  0  0  0
 30 25  1  0  0  0  0
 33 27  1  0  0  0  0
M  END
>  <minimizedAffinity>
-4.88916397

$$$$

 OpenBabel03242511433D

 33 35  0  0  0  0  0  0  0  0999 V2000
   36.9680   26.3940   42.0190 C   0  0  0  0  0  0  0  0  0  0  0  0
   37.0610   25.0290   41.9850 C   0  0  0  0  0  0  0  0  0  0  0  0
   36.8850   24.2560   40.8790 C   0  0  0  0  0  0  0  0  0  0  0  0
   36.5910   24.9110   39.7170 C   0  0  0  0  0  0  0  0  0  0  0  0
   36.4870   26.3030   39.7010 C   0  0  0  0  0  0  0  0  0  0  0  0
   36.6790   27.0580   40.8590 C   0  0  0  0  0  0  0  0  0  0  0  0
   37.3000   24.6470   42.9860 H   0  0  0  0  0  0  0  0  0  0  0  0
   37.0070   23.2080   41.0900 H   0  0  0  0  0  0  0  0  0  0  0  0
   36.4720   24.1690   38.9050 H   0  0  0  0  0  0  0  0  0  0  0  0
   36.2480   26.5280   38.6480 H   0  0  0  0  0  0  0  0  0  0  0  0
   36.4720   28.3690   40.2990 N   0  0  0  0  0  0  0  0  0  0  0  0
   35.5300   29.4690   40.3340 C   0  0  0  0  0  3  0  0  0  0  0  0
   34.8460   29.4130   41.2160 H   0  0  0  0  0  0  0  0  0  0  0  0
   36.2470   30.7740   40.3700 C   0  0  0  0  0  3  0  0  0  0  0  0
   35.6390   31.5990   39.8840 H   0  0  0  0  0  0  0  0  0  0  0  0
   37.4890   30.8090   39.7890 O   0  0  0  0  0  0  0  0  0  0  0  0
   37.5630   29.8870   38.7440 C   0  0  0  0  0  2  0  0  0  0  0  0
   37.6440   28.5330   39.4170 C   0  0  0  0  0  2  0  0  0  0  0  0
   37.1050   27.3430   43.1430 C   0  0  0  0  0  0  0  0  0  0  0  0
   36.4690   27.0000   43.9980 H   0  0  0  0  0  0  0  0  0  0  0  0
   36.7240   28.3050   42.8210 H   0  0  0  0  0  0  0  0  0  0  0  0
   38.5230   27.3970   43.6680 C   0  0  0  0  0  0  0  0  0  0  0  0
   38.9890   26.4500   43.2280 H   0  0  0  0  0  0  0  0  0  0  0  0
   38.6050   27.5090   44.7260 H   0  0  0  0  0  0  0  0  0  0  0  0
   40.8690   29.0350   41.3610 C   0  0  0  0  0  0  0  0  0  0  0  0
   40.5560   30.4060   41.5290 C   0  0  0  0  0  0  0  0  0  0  0  0
   39.5210   30.7080   42.4300 C   0  0  0  0  0  0  0  0  0  0  0  0
   38.8850   29.7240   43.0780 N   0  0  0  0  0  0  0  0  0  0  0  0
   39.2420   28.4230   42.8660 C   0  0  0  0  0  0  0  0  0  0  0  0
   40.2010   28.0790   42.0360 N   0  0  0  0  0  0  0  0  0  0  0  0
   41.6500   28.6870   40.6910 H   0  0  0  0  0  0  0  0  0  0  0  0
   41.1360   31.1150   40.9550 H   0  0  0  0  0  0  0  0  0  0  0  0
   39.2910   31.7590   42.5490 H   0  0  0  0  0  0  0  0  0  0  0  0
  1 19  1  0  0  0  0
  2  1  1  0  0  0  0
  2  7  1  0  0  0  0
  3  8  1  0  0  0  0
  3  2  2  0  0  0  0
  4  3  1  0  0  0  0
  5  4  2  0  0  0  0
  5  6  1  0  0  0  0
  6  1  2  0  0  0  0
  9  4  1  0  0  0  0
 10  5  1  0  0  0  0
 11 12  1  0  0  0  0
 11  6  1  0  0  0  0
 12 14  1  0  0  0  0
 12 13  1  0  0  0  0
 15 14  1  0  0  0  0
 16 14  1  0  0  0  0
 17 18  1  0  0  0  0
 17 16  1  0  0  0  0
 18 11  1  0  0  0  0
 19 22  1  0  0  0  0
 19 20  1  0  0  0  0
 21 19  1  0  0  0  0
 22 24  1  0  0  0  0
 23 22  1  0  0  0  0
 25 26  2  0  0  0  0
 25 30  1  0  0  0  0
 26 27  1  0  0  0  0
 27 33  1  0  0  0  0
 27 28  2  0  0  0  0
 29 28  1  0  0  0  0
 29 22  1  0  0  0  0
 30 29  2  0  0  0  0
 31 25  1  0  0  0  0
 32 26  1  0  0  0  0
M  END
>  <minimizedAffinity>
-4.88419724

$$$$
