
 OpenBabel03242511413D

 33 35  0  0  0  0  0  0  0  0999 V2000
   46.2290   32.0030   47.2720 C   0  0  0  0  0  0  0  0  0  0  0  0
   45.4330   32.3800   48.3200 C   0  0  0  0  0  0  0  0  0  0  0  0
   44.9000   31.5370   49.2460 C   0  0  0  0  0  0  0  0  0  0  0  0
   45.1930   30.2110   49.1040 C   0  0  0  0  0  0  0  0  0  0  0  0
   46.0020   29.7780   48.0530 C   0  0  0  0  0  0  0  0  0  0  0  0
   46.5300   30.6780   47.1250 C   0  0  0  0  0  0  0  0  0  0  0  0
   45.2870   33.4680   48.3040 H   0  0  0  0  0  0  0  0  0  0  0  0
   44.3070   32.0580   49.9780 H   0  0  0  0  0  0  0  0  0  0  0  0
   44.6990   29.6440   49.9150 H   0  0  0  0  0  0  0  0  0  0  0  0
   46.0530   28.6860   48.2040 H   0  0  0  0  0  0  0  0  0  0  0  0
   47.2560   29.7410   46.3050 N   0  0  0  0  0  0  0  0  0  0  0  0
   48.6120   29.3900   45.9330 C   0  0  0  0  0  3  0  0  0  0  0  0
   49.3680   29.8150   46.6400 H   0  0  0  0  0  0  0  0  0  0  0  0
   48.7790   27.9120   45.8880 C   0  0  0  0  0  3  0  0  0  0  0  0
   49.5730   27.6030   45.1400 H   0  0  0  0  0  0  0  0  0  0  0  0
   47.6590   27.1760   45.5970 O   0  0  0  0  0  0  0  0  0  0  0  0
   46.7970   27.9060   44.7790 C   0  0  0  0  0  2  0  0  0  0  0  0
   46.1770   28.9480   45.6870 C   0  0  0  0  0  2  0  0  0  0  0  0
   46.8430   32.8010   46.1900 C   0  0  0  0  0  0  0  0  0  0  0  0
   47.8820   32.4300   45.9990 H   0  0  0  0  0  0  0  0  0  0  0  0
   46.9210   33.8260   46.5300 H   0  0  0  0  0  0  0  0  0  0  0  0
   46.0940   32.6510   44.8840 C   0  0  0  0  0  0  0  0  0  0  0  0
   45.0770   32.2530   45.2220 H   0  0  0  0  0  0  0  0  0  0  0  0
   46.5990   32.0720   44.1420 H   0  0  0  0  0  0  0  0  0  0  0  0
   44.5420   35.9800   44.7770 C   0  0  0  0  0  0  0  0  0  0  0  0
   44.9490   36.4670   43.5110 C   0  0  0  0  0  0  0  0  0  0  0  0
   45.7700   35.6210   42.7470 C   0  0  0  0  0  0  0  0  0  0  0  0
   46.1280   34.4220   43.2230 N   0  0  0  0  0  0  0  0  0  0  0  0
   45.6960   34.0180   44.4550 C   0  0  0  0  0  0  0  0  0  0  0  0
   44.9280   34.7660   45.2150 N   0  0  0  0  0  0  0  0  0  0  0  0
   43.9080   36.5490   45.4510 H   0  0  0  0  0  0  0  0  0  0  0  0
   44.5980   37.4500   43.2270 H   0  0  0  0  0  0  0  0  0  0  0  0
   46.0740   36.0040   41.7820 H   0  0  0  0  0  0  0  0  0  0  0  0
  1  2  1  0  0  0  0
  2  3  2  0  0  0  0
  3  8  1  0  0  0  0
  4  3  1  0  0  0  0
  4  9  1  0  0  0  0
  5 10  1  0  0  0  0
  5  4  2  0  0  0  0
  6  1  2  0  0  0  0
  6  5  1  0  0  0  0
  7  2  1  0  0  0  0
 11  6  1  0  0  0  0
 12 11  1  0  0  0  0
 12 13  1  0  0  0  0
 14 12  1  0  0  0  0
 15 14  1  0  0  0  0
 16 14  1  0  0  0  0
 17 16  1  0  0  0  0
 17 18  1  0  0  0  0
 18 11  1  0  0  0  0
 19 21  1  0  0  0  0
 19  1  1  0  0  0  0
 20 19  1  0  0  0  0
 22 23  1  0  0  0  0
 22 19  1  0  0  0  0
 24 22  1  0  0  0  0
 25 30  1  0  0  0  0
 25 31  1  0  0  0  0
 26 25  2  0  0  0  0
 27 28  2  0  0  0  0
 27 26  1  0  0  0  0
 28 29  1  0  0  0  0
 29 22  1  0  0  0  0
 29 30  2  0  0  0  0
 32 26  1  0  0  0  0
 33 27  1  0  0  0  0
M  END
>  <minimizedAffinity>
-4.71904135

>  <minimizedRMSD>
1.69079852

$$$$
