
 OpenBabel03242517433D

 22 23  0  0  1  0  0  0  0  0999 V2000
   41.8900   35.2770   39.1890 C   0  0  2  0  0  3  0  0  0  0  0  0
   42.4210   35.2980   40.6090 C   0  0  1  0  0  3  0  0  0  0  0  0
   41.4010   34.9300   41.5130 O   0  0  0  0  0  0  0  0  0  0  0  0
   41.1770   33.5640   41.2530 C   0  0  0  0  0  2  0  0  0  0  0  0
   40.4120   33.4240   39.9520 C   0  0  2  0  0  3  0  0  0  0  0  0
   41.3150   33.9240   38.8370 C   0  0  1  0  0  3  0  0  0  0  0  0
   42.9230   35.5900   38.3270 O   0  0  0  0  0  0  0  0  0  0  0  0
   42.8490   35.1090   37.4490 H   0  0  0  0  0  0  0  0  0  0  0  0
   39.2460   34.1850   40.0080 O   0  0  0  0  0  0  0  0  0  0  0  0
   39.1290   34.5130   40.9260 H   0  0  0  0  0  0  0  0  0  0  0  0
   40.6260   34.0330   37.6480 O   0  0  0  0  0  0  0  0  0  0  0  0
   40.6510   33.1350   37.2030 H   0  0  0  0  0  0  0  0  0  0  0  0
   43.7930   34.1620   40.8580 S   0  0  0  0  0  0  0  0  0  0  0  0
   44.3260   35.5390   43.2220 C   0  0  0  0  0  0  0  0  0  0  0  0
   44.3860   34.3210   42.5370 C   0  0  0  0  0  0  0  0  0  0  0  0
   44.9200   33.2090   43.1880 C   0  0  0  0  0  0  0  0  0  0  0  0
   45.3570   33.3850   44.4760 N   0  0  0  0  0  0  0  0  0  0  0  0
   45.2780   34.5660   45.0920 C   0  0  0  0  0  0  0  0  0  0  0  0
   44.7700   35.6640   44.4960 N   0  0  0  0  0  0  0  0  0  0  0  0
   43.9210   36.4220   42.7440 H   0  0  0  0  0  0  0  0  0  0  0  0
   44.9600   32.2750   42.6460 H   0  0  0  0  0  0  0  0  0  0  0  0
   45.6820   34.4580   46.0940 H   0  0  0  0  0  0  0  0  0  0  0  0
  1  7  1  6  0  0  0
  1  2  1  0  0  0  0
  2 13  1  6  0  0  0
  2  3  1  0  0  0  0
  4  3  1  0  0  0  0
  5  9  1  1  0  0  0
  5  4  1  0  0  0  0
  6 11  1  6  0  0  0
  6  1  1  0  0  0  0
  6  5  1  0  0  0  0
  8  7  1  0  0  0  0
  9 10  1  0  0  0  0
 12 11  1  0  0  0  0
 13 15  1  0  0  0  0
 14 19  1  0  0  0  0
 15 16  1  0  0  0  0
 15 14  2  0  0  0  0
 16 17  2  0  0  0  0
 17 18  1  0  0  0  0
 18 22  1  0  0  0  0
 19 18  2  0  0  0  0
 20 14  1  0  0  0  0
 21 16  1  0  0  0  0
M  END
>  <minimizedAffinity>
-4.61670732

>  <minimizedRMSD>
1.80660689

$$$$
