
 OpenBabel03242522513D

 29 30  0  0  1  0  0  0  0  0999 V2000
   47.2770   31.7110   48.1760 O   0  0  0  0  0  0  0  0  0  0  0  0
   44.8820   30.8270   47.5990 O   0  0  0  0  0  0  0  0  0  0  0  0
   45.6480   31.9210   48.3770 P   0  0  1  0  0  0  0  0  0  0  0  0
   45.1850   31.7430   49.9830 O   0  0  0  0  0  0  0  0  0  0  0  0
   44.6840   32.5160   50.3470 H   0  0  0  0  0  0  0  0  0  0  0  0
   45.1690   33.4260   47.7880 O   0  0  0  0  0  0  0  0  0  0  0  0
   46.6650   33.4340   44.4780 C   0  0  0  0  0  0  0  0  0  0  0  0
   46.3890   33.1000   45.8150 C   0  0  0  0  0  0  0  0  0  0  0  0
   45.4020   33.7890   46.4790 C   0  0  0  0  0  0  0  0  0  0  0  0
   44.7450   34.7600   45.8030 N   0  0  0  0  0  0  0  0  0  0  0  0
   45.0050   35.0820   44.5310 C   0  0  0  0  0  0  0  0  0  0  0  0
   45.9780   34.4080   43.8630 N   0  0  0  0  0  0  0  0  0  0  0  0
   47.4200   32.9520   43.8710 H   0  0  0  0  0  0  0  0  0  0  0  0
   47.0130   32.3120   46.1480 H   0  0  0  0  0  0  0  0  0  0  0  0
   44.4660   35.8560   44.0250 H   0  0  0  0  0  0  0  0  0  0  0  0
   48.0020   30.6520   47.7450 C   0  0  0  0  0  0  0  0  0  0  0  0
   49.1010   30.5040   48.3840 O   0  0  0  0  0  0  0  0  0  0  0  0
   47.7550   29.3880   45.6310 C   0  0  2  0  0  3  0  0  0  0  0  0
   48.4280   29.4620   46.9840 C   0  0  2  0  0  3  0  0  0  0  0  0
   48.2630   28.2930   47.7160 O   0  0  0  0  0  0  0  0  0  0  0  0
   47.1210   27.5840   47.4300 C   0  0  0  0  0  2  0  0  0  0  0  0
   46.9480   27.1670   46.0050 C   0  0  2  0  0  3  0  0  0  0  0  0
   47.9580   27.9460   45.1800 C   0  0  1  0  0  3  0  0  0  0  0  0
   48.3960   30.2640   44.7250 O   0  0  0  0  0  0  0  0  0  0  0  0
   49.0630   29.7450   44.2030 H   0  0  0  0  0  0  0  0  0  0  0  0
   45.6880   27.5940   45.5270 O   0  0  0  0  0  0  0  0  0  0  0  0
   44.9570   27.3400   46.1280 H   0  0  0  0  0  0  0  0  0  0  0  0
   47.7440   27.7780   43.8220 O   0  0  0  0  0  0  0  0  0  0  0  0
   47.5650   28.6300   43.3800 H   0  0  0  0  0  0  0  0  0  0  0  0
  1  3  1  0  0  0  0
  3  2  2  6  0  0  0
  3  4  1  0  0  0  0
  4  5  1  0  0  0  0
  6  3  1  0  0  0  0
  7  8  1  0  0  0  0
  8 14  1  0  0  0  0
  8  9  2  0  0  0  0
  9  6  1  0  0  0  0
 10  9  1  0  0  0  0
 11 10  2  0  0  0  0
 12  7  2  0  0  0  0
 12 11  1  0  0  0  0
 13  7  1  0  0  0  0
 15 11  1  0  0  0  0
 16  1  1  0  0  0  0
 16 17  2  0  0  0  0
 18 24  1  6  0  0  0
 18 19  1  0  0  0  0
 19 20  1  0  0  0  0
 19 16  1  1  0  0  0
 21 20  1  0  0  0  0
 22 26  1  6  0  0  0
 22 21  1  0  0  0  0
 23 28  1  6  0  0  0
 23 18  1  0  0  0  0
 23 22  1  0  0  0  0
 25 24  1  0  0  0  0
 26 27  1  0  0  0  0
 29 28  1  0  0  0  0
M  END
>  <minimizedAffinity>
-4.25983572

>  <minimizedRMSD>
1.86809194

$$$$
