
 OpenBabel03252507463D

 40 42  0  0  1  0  0  0  0  0999 V2000
   48.7060   33.9920   41.6100 C   0  0  0  0  0  0  0  0  0  0  0  0
   48.8320   32.6260   41.4550 C   0  0  0  0  0  0  0  0  0  0  0  0
   49.9660   31.9500   41.8830 C   0  0  0  0  0  0  0  0  0  0  0  0
   50.9510   32.7090   42.4680 N   0  0  0  0  0  0  0  0  0  0  0  0
   50.7910   34.0380   42.6020 C   0  0  0  0  0  0  0  0  0  0  0  0
   49.6990   34.6610   42.1850 N   0  0  0  0  0  0  0  0  0  0  0  0
   50.0690   30.8820   41.7640 H   0  0  0  0  0  0  0  0  0  0  0  0
   51.5430   34.6710   43.0570 H   0  0  0  0  0  0  0  0  0  0  0  0
   47.4610   34.6150   41.1210 C   0  0  0  0  0  0  0  0  0  0  0  0
   46.8990   33.9230   40.4580 H   0  0  0  0  0  0  0  0  0  0  0  0
   47.6730   35.5250   40.5140 H   0  0  0  0  0  0  0  0  0  0  0  0
   46.5100   34.9710   42.2350 C   0  0  0  0  0  0  0  0  0  0  0  0
   46.7600   35.9950   42.5920 H   0  0  0  0  0  0  0  0  0  0  0  0
   46.6730   34.2430   43.0550 H   0  0  0  0  0  0  0  0  0  0  0  0
   45.0750   34.8590   41.8670 C   0  0  0  0  0  0  0  0  0  0  0  0
   44.1520   35.8500   42.3140 C   0  0  0  0  0  0  0  0  0  0  0  0
   42.5540   35.2720   41.6120 S   0  0  0  0  0  0  0  0  0  0  0  0
   43.4160   33.7660   40.8230 C   0  0  0  0  0  0  0  0  0  0  0  0
   44.4960   33.9240   41.1470 N   0  0  0  0  0  0  0  0  0  0  0  0
   44.3640   36.7150   42.9150 H   0  0  0  0  0  0  0  0  0  0  0  0
   42.7350   32.8100   40.0670 O   0  0  0  0  0  0  0  0  0  0  0  0
   41.9320   32.0980   37.6470 O   0  0  0  0  0  0  0  0  0  0  0  0
   42.1050   33.3020   38.5690 P   0  0  0  0  0  0  0  0  0  0  0  0
   40.6100   34.0270   38.8430 O   0  0  0  0  0  0  0  0  0  0  0  0
   40.0610   33.8870   38.0440 H   0  0  0  0  0  0  0  0  0  0  0  0
   43.1470   34.4480   37.8680 O   0  0  0  0  0  0  0  0  0  0  0  0
   43.0260   34.5620   36.9120 H   0  0  0  0  0  0  0  0  0  0  0  0
   47.4990   31.6800   40.6760 S   0  0  0  0  0  0  0  0  0  0  0  0
   49.0240   32.2840   38.5520 C   0  0  2  0  0  3  0  0  0  0  0  0
   47.9170   31.3160   38.9800 C   0  0  2  0  0  3  0  0  0  0  0  0
   46.7670   31.5120   38.2140 O   0  0  0  0  0  0  0  0  0  0  0  0
   46.5800   32.8900   38.1010 C   0  0  0  0  0  2  0  0  0  0  0  0
   47.4250   33.3410   36.9320 C   0  0  2  0  0  3  0  0  0  0  0  0
   48.8100   32.7550   37.1320 C   0  0  1  0  0  3  0  0  0  0  0  0
   50.2550   31.6300   38.5860 O   0  0  0  0  0  0  0  0  0  0  0  0
   50.9230   32.2470   38.2500 H   0  0  0  0  0  0  0  0  0  0  0  0
   47.4430   34.7330   36.8310 O   0  0  0  0  0  0  0  0  0  0  0  0
   48.2300   35.0470   36.3270 H   0  0  0  0  0  0  0  0  0  0  0  0
   49.7610   33.7280   36.8670 O   0  0  0  0  0  0  0  0  0  0  0  0
   50.2120   34.0930   37.6500 H   0  0  0  0  0  0  0  0  0  0  0  0
  1  6  1  0  0  0  0
  2  1  2  0  0  0  0
  2  3  1  0  0  0  0
  3  4  2  0  0  0  0
  4  5  1  0  0  0  0
  5  8  1  0  0  0  0
  6  5  2  0  0  0  0
  7  3  1  0  0  0  0
  9  1  1  0  0  0  0
  9 12  1  0  0  0  0
 10  9  1  0  0  0  0
 11  9  1  0  0  0  0
 12 13  1  0  0  0  0
 12 14  1  0  0  0  0
 15 12  1  0  0  0  0
 15 16  2  0  0  0  0
 16 20  1  0  0  0  0
 17 16  1  0  0  0  0
 18 19  2  0  0  0  0
 18 17  1  0  0  0  0
 19 15  1  0  0  0  0
 21 18  1  0  0  0  0
 22 23  2  0  0  0  0
 23 24  1  0  0  0  0
 23 21  1  0  0  0  0
 25 24  1  0  0  0  0
 26 23  1  0  0  0  0
 27 26  1  0  0  0  0
 28  2  1  0  0  0  0
 29 35  1  6  0  0  0
 29 30  1  0  0  0  0
 30 28  1  1  0  0  0
 31 30  1  0  0  0  0
 32 31  1  0  0  0  0
 33 37  1  1  0  0  0
 33 34  1  0  0  0  0
 33 32  1  0  0  0  0
 34 39  1  1  0  0  0
 34 29  1  0  0  0  0
 36 35  1  0  0  0  0
 38 37  1  0  0  0  0
 39 40  1  0  0  0  0
M  END
>  <minimizedAffinity>
-5.58677626

>  <minimizedRMSD>
2.21445584

$$$$
