
 OpenBabel03252502243D

 37 39  0  0  1  0  0  0  0  0999 V2000
   47.0240   34.6760   42.2050 N   0  0  0  0  0  0  0  0  0  0  0  0
   48.4680   34.7750   42.3080 C   0  0  0  0  0  0  0  0  0  0  0  0
   48.8690   35.6460   41.1010 C   0  0  0  0  0  0  0  0  0  0  0  0
   48.6070   34.8530   39.8410 C   0  0  0  0  0  0  0  0  0  0  0  0
   47.3100   34.1120   39.8400 C   0  0  0  0  0  0  0  0  0  0  0  0
   46.3740   34.4510   40.9600 C   0  0  1  0  0  0  0  0  0  0  0  0
   48.8170   35.1990   43.2430 H   0  0  0  0  0  0  0  0  0  0  0  0
   48.8790   33.7710   42.0650 H   0  0  0  0  0  0  0  0  0  0  0  0
   48.1830   36.5370   41.1370 H   0  0  0  0  0  0  0  0  0  0  0  0
   49.9220   35.9330   41.1270 H   0  0  0  0  0  0  0  0  0  0  0  0
   48.7290   35.5410   38.9810 H   0  0  0  0  0  0  0  0  0  0  0  0
   49.4500   34.1140   39.7680 H   0  0  0  0  0  0  0  0  0  0  0  0
   47.4910   33.0050   39.8910 H   0  0  0  0  0  0  0  0  0  0  0  0
   46.8310   34.2830   38.8540 H   0  0  0  0  0  0  0  0  0  0  0  0
   45.8570   35.4050   40.6980 H   0  0  0  0  0  0  0  0  0  0  0  0
   44.5220   35.8870   44.7110 C   0  0  0  0  0  0  0  0  0  0  0  0
   45.2810   35.8610   43.5290 C   0  0  0  0  0  0  0  0  0  0  0  0
   46.2010   34.8040   43.3660 C   0  0  0  0  0  0  0  0  0  0  0  0
   46.2850   33.8900   44.3630 N   0  0  0  0  0  0  0  0  0  0  0  0
   45.5360   33.9500   45.4870 C   0  0  0  0  0  0  0  0  0  0  0  0
   44.6430   34.9700   45.6520 N   0  0  0  0  0  0  0  0  0  0  0  0
   43.8150   36.6900   44.8480 H   0  0  0  0  0  0  0  0  0  0  0  0
   45.1990   36.5990   42.7470 H   0  0  0  0  0  0  0  0  0  0  0  0
   45.6310   33.2010   46.2630 H   0  0  0  0  0  0  0  0  0  0  0  0
   45.4660   33.3890   41.0990 O   0  0  0  0  0  0  0  0  0  0  0  0
   43.6290   33.1290   39.5330 C   0  0  2  0  0  3  0  0  0  0  0  0
   44.1740   33.7200   40.7830 C   0  0  1  0  0  3  0  0  0  0  0  0
   43.2530   33.5930   41.7970 O   0  0  0  0  0  0  0  0  0  0  0  0
   43.3850   32.2810   42.3120 C   0  0  0  0  0  2  0  0  0  0  0  0
   43.2270   31.2810   41.1990 C   0  0  1  0  0  3  0  0  0  0  0  0
   42.7600   31.9490   39.9170 C   0  0  2  0  0  3  0  0  0  0  0  0
   44.6040   32.6370   38.6730 O   0  0  0  0  0  0  0  0  0  0  0  0
   44.2090   32.4170   37.8060 H   0  0  0  0  0  0  0  0  0  0  0  0
   44.4440   30.6470   41.0030 O   0  0  0  0  0  0  0  0  0  0  0  0
   44.3550   29.9610   40.2750 H   0  0  0  0  0  0  0  0  0  0  0  0
   42.7940   31.0160   38.8850 O   0  0  0  0  0  0  0  0  0  0  0  0
   42.4290   31.4180   38.0770 H   0  0  0  0  0  0  0  0  0  0  0  0
  1  2  1  0  0  0  0
  1 18  1  0  0  0  0
  2  7  1  0  0  0  0
  3 10  1  0  0  0  0
  3  9  1  0  0  0  0
  3  2  1  0  0  0  0
  4  3  1  0  0  0  0
  5  4  1  0  0  0  0
  5 13  1  0  0  0  0
  5  6  1  0  0  0  0
  6 15  1  6  0  0  0
  6 25  1  0  0  0  0
  6  1  1  0  0  0  0
  8  2  1  0  0  0  0
 11  4  1  0  0  0  0
 12  4  1  0  0  0  0
 14  5  1  0  0  0  0
 16 22  1  0  0  0  0
 16 21  1  0  0  0  0
 17 16  2  0  0  0  0
 18 17  1  0  0  0  0
 18 19  2  0  0  0  0
 19 20  1  0  0  0  0
 20 21  2  0  0  0  0
 20 24  1  0  0  0  0
 23 17  1  0  0  0  0
 26 32  1  6  0  0  0
 26 31  1  0  0  0  0
 26 27  1  0  0  0  0
 27 25  1  1  0  0  0
 27 28  1  0  0  0  0
 28 29  1  0  0  0  0
 30 34  1  6  0  0  0
 30 29  1  0  0  0  0
 31 36  1  6  0  0  0
 31 30  1  0  0  0  0
 33 32  1  0  0  0  0
 35 34  1  0  0  0  0
 37 36  1  0  0  0  0
M  END
>  <minimizedAffinity>
-5.23171711

>  <minimizedRMSD>
0.30044499

$$$$
