
 OpenBabel03252504193D

 41 43  0  0  1  0  0  0  0  0999 V2000
   40.1250   29.8330   40.3470 F   0  0  0  0  0  0  0  0  0  0  0  0
   39.0450   30.6730   40.2190 C   0  0  0  0  0  0  0  0  0  0  0  0
   37.7790   30.1690   40.2770 C   0  0  0  0  0  0  0  0  0  0  0  0
   36.7400   31.0800   40.1370 C   0  0  0  0  0  0  0  0  0  0  0  0
   36.9880   32.4160   39.9520 C   0  0  0  0  0  0  0  0  0  0  0  0
   38.3070   32.8720   39.9000 C   0  0  0  0  0  0  0  0  0  0  0  0
   39.3730   31.9910   40.0360 C   0  0  0  0  0  0  0  0  0  0  0  0
   35.7260   30.6850   40.1830 H   0  0  0  0  0  0  0  0  0  0  0  0
   36.1570   33.0950   39.8470 H   0  0  0  0  0  0  0  0  0  0  0  0
   38.4880   33.9340   39.7520 H   0  0  0  0  0  0  0  0  0  0  0  0
   37.8530   26.8440   41.7870 C   0  0  0  0  0  0  0  0  0  0  0  0
   37.0820   26.0650   40.9120 C   0  0  0  0  0  0  0  0  0  0  0  0
   36.5350   26.7080   39.7910 C   0  0  0  0  0  0  0  0  0  0  0  0
   36.7660   28.0230   39.6000 N   0  0  0  0  0  0  0  0  0  0  0  0
   37.5220   28.7390   40.4770 C   0  0  0  0  0  0  0  0  0  0  0  0
   38.0520   28.1460   41.5500 N   0  0  0  0  0  0  0  0  0  0  0  0
   35.9380   26.1160   39.1100 H   0  0  0  0  0  0  0  0  0  0  0  0
   36.8830   24.6420   41.1980 C   0  0  0  0  0  0  0  0  0  0  0  0
   36.4170   24.4640   42.4870 F   0  0  0  0  0  0  0  0  0  0  0  0
   35.8760   24.1610   40.3490 F   0  0  0  0  0  0  0  0  0  0  0  0
   37.9790   23.8620   41.0350 F   0  0  0  0  0  0  0  0  0  0  0  0
   38.3810   26.2270   42.8660 O   0  0  0  0  0  0  0  0  0  0  0  0
   39.7290   25.7950   43.0190 C   0  0  0  0  0  0  0  0  0  0  0  0
   40.4110   26.8070   43.6800 F   0  0  0  0  0  0  0  0  0  0  0  0
   39.7610   24.6000   43.6800 F   0  0  0  0  0  0  0  0  0  0  0  0
   40.3180   25.7140   41.7740 F   0  0  0  0  0  0  0  0  0  0  0  0
   40.7890   32.4730   39.9830 C   0  0  0  0  0  0  0  0  0  0  0  0
   41.4190   31.5440   40.1110 H   0  0  0  0  0  0  0  0  0  0  0  0
   41.0320   33.1240   40.8350 H   0  0  0  0  0  0  0  0  0  0  0  0
   40.9790   32.0970   37.5240 C   0  0  2  0  0  3  0  0  0  0  0  0
   41.1240   33.0860   38.6360 C   0  0  2  0  0  3  0  0  0  0  0  0
   42.3480   33.7280   38.6660 O   0  0  0  0  0  0  0  0  0  0  0  0
   43.4220   32.8680   38.6890 C   0  0  0  0  0  2  0  0  0  0  0  0
   43.5100   32.1860   37.3660 C   0  0  2  0  0  3  0  0  0  0  0  0
   42.2110   31.8590   36.7150 C   0  0  1  0  0  3  0  0  0  0  0  0
   39.9490   32.4550   36.6520 O   0  0  0  0  0  0  0  0  0  0  0  0
   40.2160   33.1560   36.0110 H   0  0  0  0  0  0  0  0  0  0  0  0
   44.2700   31.0090   37.5670 O   0  0  0  0  0  0  0  0  0  0  0  0
   44.2080   30.7200   38.5140 H   0  0  0  0  0  0  0  0  0  0  0  0
   42.2620   30.5330   36.2690 O   0  0  0  0  0  0  0  0  0  0  0  0
   41.3330   30.3640   35.9090 H   0  0  0  0  0  0  0  0  0  0  0  0
  2  3  1  0  0  0  0
  2  1  1  0  0  0  0
  3 15  1  0  0  0  0
  4  8  1  0  0  0  0
  4  3  2  0  0  0  0
  5  4  1  0  0  0  0
  6  5  2  0  0  0  0
  6  7  1  0  0  0  0
  7  2  2  0  0  0  0
  9  5  1  0  0  0  0
 10  6  1  0  0  0  0
 11 22  1  0  0  0  0
 12 18  1  0  0  0  0
 12 11  2  0  0  0  0
 13 12  1  0  0  0  0
 14 13  2  0  0  0  0
 14 15  1  0  0  0  0
 15 16  2  0  0  0  0
 16 11  1  0  0  0  0
 17 13  1  0  0  0  0
 18 19  1  0  0  0  0
 20 18  1  0  0  0  0
 21 18  1  0  0  0  0
 22 23  1  0  0  0  0
 23 25  1  0  0  0  0
 23 24  1  0  0  0  0
 26 23  1  0  0  0  0
 27  7  1  0  0  0  0
 27 28  1  0  0  0  0
 27 29  1  0  0  0  0
 30 36  1  6  0  0  0
 30 31  1  0  0  0  0
 31 32  1  0  0  0  0
 31 27  1  1  0  0  0
 32 33  1  0  0  0  0
 34 38  1  1  0  0  0
 34 33  1  0  0  0  0
 35 40  1  1  0  0  0
 35 34  1  0  0  0  0
 35 30  1  0  0  0  0
 37 36  1  0  0  0  0
 38 39  1  0  0  0  0
 41 40  1  0  0  0  0
M  END
>  <minimizedAffinity>
-6.89331532

$$$$

 OpenBabel03252504193D

 41 43  0  0  1  0  0  0  0  0999 V2000
   35.8090   30.0620   37.3180 F   0  0  0  0  0  0  0  0  0  0  0  0
   35.6380   28.7050   37.4540 C   0  0  0  0  0  0  0  0  0  0  0  0
   34.4470   28.1310   37.1190 C   0  0  0  0  0  0  0  0  0  0  0  0
   34.3510   26.7550   37.2860 C   0  0  0  0  0  0  0  0  0  0  0  0
   35.4080   26.0230   37.7640 C   0  0  0  0  0  0  0  0  0  0  0  0
   36.6020   26.6680   38.0920 C   0  0  0  0  0  0  0  0  0  0  0  0
   36.7370   28.0420   37.9380 C   0  0  0  0  0  0  0  0  0  0  0  0
   33.4030   26.2890   37.0200 H   0  0  0  0  0  0  0  0  0  0  0  0
   35.2980   24.9570   37.8810 H   0  0  0  0  0  0  0  0  0  0  0  0
   37.4310   26.0750   38.4690 H   0  0  0  0  0  0  0  0  0  0  0  0
   31.4300   30.1880   37.0840 C   0  0  0  0  0  0  0  0  0  0  0  0
   31.1940   30.4100   35.7190 C   0  0  0  0  0  0  0  0  0  0  0  0
   32.0970   29.8350   34.8100 C   0  0  0  0  0  0  0  0  0  0  0  0
   33.1340   29.1080   35.2720 N   0  0  0  0  0  0  0  0  0  0  0  0
   33.3230   28.9200   36.6070 C   0  0  0  0  0  0  0  0  0  0  0  0
   32.4750   29.4580   37.4890 N   0  0  0  0  0  0  0  0  0  0  0  0
   31.9250   30.0000   33.7540 H   0  0  0  0  0  0  0  0  0  0  0  0
   30.0420   31.2130   35.3060 C   0  0  0  0  0  0  0  0  0  0  0  0
   30.0970   32.4720   35.8730 F   0  0  0  0  0  0  0  0  0  0  0  0
   30.1160   31.4060   33.9190 F   0  0  0  0  0  0  0  0  0  0  0  0
   28.8320   30.6760   35.5930 F   0  0  0  0  0  0  0  0  0  0  0  0
   30.5620   30.7390   37.9600 O   0  0  0  0  0  0  0  0  0  0  0  0
   29.6420   30.0410   38.7930 C   0  0  0  0  0  0  0  0  0  0  0  0
   28.6990   30.9640   39.2230 F   0  0  0  0  0  0  0  0  0  0  0  0
   29.0980   28.9930   38.1060 F   0  0  0  0  0  0  0  0  0  0  0  0
   30.2950   29.6290   39.9360 F   0  0  0  0  0  0  0  0  0  0  0  0
   38.0140   28.7410   38.2850 C   0  0  0  0  0  0  0  0  0  0  0  0
   37.9140   29.7740   37.8400 H   0  0  0  0  0  0  0  0  0  0  0  0
   38.8810   28.2790   37.7890 H   0  0  0  0  0  0  0  0  0  0  0  0
   36.8750   29.1210   40.4710 C   0  0  2  0  0  3  0  0  0  0  0  0
   38.1830   28.8900   39.7850 C   0  0  2  0  0  3  0  0  0  0  0  0
   39.1560   29.8240   40.0920 O   0  0  0  0  0  0  0  0  0  0  0  0
   38.7600   31.1240   39.8750 C   0  0  0  0  0  2  0  0  0  0  0  0
   37.7220   31.4770   40.8860 C   0  0  2  0  0  3  0  0  0  0  0  0
   36.7810   30.3850   41.2610 C   0  0  1  0  0  3  0  0  0  0  0  0
   36.5430   28.0580   41.3140 O   0  0  0  0  0  0  0  0  0  0  0  0
   37.0170   28.0910   42.1780 H   0  0  0  0  0  0  0  0  0  0  0  0
   37.0090   32.5830   40.3640 O   0  0  0  0  0  0  0  0  0  0  0  0
   37.0720   32.5940   39.3740 H   0  0  0  0  0  0  0  0  0  0  0  0
   35.4780   30.8940   41.2270 O   0  0  0  0  0  0  0  0  0  0  0  0
   34.8990   30.0880   41.4180 H   0  0  0  0  0  0  0  0  0  0  0  0
  1  2  1  0  0  0  0
  2  7  1  0  0  0  0
  3  4  1  0  0  0  0
  3  2  2  0  0  0  0
  4  5  2  0  0  0  0
  5  9  1  0  0  0  0
  5  6  1  0  0  0  0
  6 10  1  0  0  0  0
  7  6  2  0  0  0  0
  7 27  1  0  0  0  0
  8  4  1  0  0  0  0
 11 16  1  0  0  0  0
 11 22  1  0  0  0  0
 12 11  2  0  0  0  0
 13 14  2  0  0  0  0
 13 12  1  0  0  0  0
 14 15  1  0  0  0  0
 15  3  1  0  0  0  0
 15 16  2  0  0  0  0
 17 13  1  0  0  0  0
 18 21  1  0  0  0  0
 18 12  1  0  0  0  0
 18 19  1  0  0  0  0
 20 18  1  0  0  0  0
 22 23  1  0  0  0  0
 23 24  1  0  0  0  0
 23 26  1  0  0  0  0
 25 23  1  0  0  0  0
 28 27  1  0  0  0  0
 29 27  1  0  0  0  0
 30 35  1  0  0  0  0
 30 36  1  1  0  0  0
 31 27  1  6  0  0  0
 31 32  1  0  0  0  0
 31 30  1  0  0  0  0
 33 32  1  0  0  0  0
 33 34  1  0  0  0  0
 34 38  1  6  0  0  0
 34 35  1  0  0  0  0
 35 40  1  6  0  0  0
 36 37  1  0  0  0  0
 39 38  1  0  0  0  0
 40 41  1  0  0  0  0
M  END
>  <minimizedAffinity>
-6.71934652

$$$$

 OpenBabel03252504193D

 41 43  0  0  1  0  0  0  0  0999 V2000
   39.9020   29.4460   40.3180 F   0  0  0  0  0  0  0  0  0  0  0  0
   38.7640   30.2150   40.3710 C   0  0  0  0  0  0  0  0  0  0  0  0
   37.5450   29.6190   40.5140 C   0  0  0  0  0  0  0  0  0  0  0  0
   36.4420   30.4630   40.5590 C   0  0  0  0  0  0  0  0  0  0  0  0
   36.5860   31.8240   40.4630 C   0  0  0  0  0  0  0  0  0  0  0  0
   37.8600   32.3740   40.3170 C   0  0  0  0  0  0  0  0  0  0  0  0
   38.9870   31.5640   40.2700 C   0  0  0  0  0  0  0  0  0  0  0  0
   35.4660   29.9950   40.6730 H   0  0  0  0  0  0  0  0  0  0  0  0
   35.7080   32.4480   40.5020 H   0  0  0  0  0  0  0  0  0  0  0  0
   37.9590   33.4550   40.2430 H   0  0  0  0  0  0  0  0  0  0  0  0
   36.9390   26.1510   39.5420 C   0  0  0  0  0  0  0  0  0  0  0  0
   37.1130   25.4360   40.7360 C   0  0  0  0  0  0  0  0  0  0  0  0
   37.4440   26.1740   41.8840 C   0  0  0  0  0  0  0  0  0  0  0  0
   37.5800   27.5130   41.7990 N   0  0  0  0  0  0  0  0  0  0  0  0
   37.4010   28.1640   40.6170 C   0  0  0  0  0  0  0  0  0  0  0  0
   37.0850   27.4810   39.5130 N   0  0  0  0  0  0  0  0  0  0  0  0
   37.5820   25.6320   42.8110 H   0  0  0  0  0  0  0  0  0  0  0  0
   36.9460   23.9820   40.7380 C   0  0  0  0  0  0  0  0  0  0  0  0
   37.4460   23.4350   41.9040 F   0  0  0  0  0  0  0  0  0  0  0  0
   35.5730   23.6980   40.7300 F   0  0  0  0  0  0  0  0  0  0  0  0
   37.5150   23.3340   39.6920 F   0  0  0  0  0  0  0  0  0  0  0  0
   36.6190   25.4440   38.4370 O   0  0  0  0  0  0  0  0  0  0  0  0
   35.3770   25.4760   37.7420 C   0  0  0  0  0  0  0  0  0  0  0  0
   35.6680   25.5410   36.3870 F   0  0  0  0  0  0  0  0  0  0  0  0
   34.6270   24.3860   38.0820 F   0  0  0  0  0  0  0  0  0  0  0  0
   34.7310   26.6600   38.0310 F   0  0  0  0  0  0  0  0  0  0  0  0
   40.3570   32.1470   40.1150 C   0  0  0  0  0  0  0  0  0  0  0  0
   41.0190   31.2730   39.8410 H   0  0  0  0  0  0  0  0  0  0  0  0
   40.7460   32.5360   41.0670 H   0  0  0  0  0  0  0  0  0  0  0  0
   41.0510   32.5740   37.7570 C   0  0  2  0  0  3  0  0  0  0  0  0
   40.4150   33.1530   38.9800 C   0  0  2  0  0  3  0  0  0  0  0  0
   40.9720   34.3490   39.3950 O   0  0  0  0  0  0  0  0  0  0  0  0
   42.3330   34.2860   39.5850 C   0  0  0  0  0  2  0  0  0  0  0  0
   42.9900   34.1330   38.2550 C   0  0  2  0  0  3  0  0  0  0  0  0
   42.2600   33.2950   37.2620 C   0  0  1  0  0  3  0  0  0  0  0  0
   40.1400   32.4790   36.7020 O   0  0  0  0  0  0  0  0  0  0  0  0
   40.0000   33.3390   36.2390 H   0  0  0  0  0  0  0  0  0  0  0  0
   44.2780   33.5990   38.4980 O   0  0  0  0  0  0  0  0  0  0  0  0
   44.2850   33.1030   39.3560 H   0  0  0  0  0  0  0  0  0  0  0  0
   43.1700   32.4000   36.6870 O   0  0  0  0  0  0  0  0  0  0  0  0
   42.5960   31.8240   36.0870 H   0  0  0  0  0  0  0  0  0  0  0  0
  1  2  1  0  0  0  0
  2  3  1  0  0  0  0
  3  4  2  0  0  0  0
  3 15  1  0  0  0  0
  4  8  1  0  0  0  0
  5  9  1  0  0  0  0
  5  4  1  0  0  0  0
  6  5  2  0  0  0  0
  7  6  1  0  0  0  0
  7  2  2  0  0  0  0
 10  6  1  0  0  0  0
 11 12  1  0  0  0  0
 12 18  1  0  0  0  0
 12 13  2  0  0  0  0
 13 17  1  0  0  0  0
 14 13  1  0  0  0  0
 15 14  2  0  0  0  0
 16 11  2  0  0  0  0
 16 15  1  0  0  0  0
 18 19  1  0  0  0  0
 20 18  1  0  0  0  0
 21 18  1  0  0  0  0
 22 11  1  0  0  0  0
 23 26  1  0  0  0  0
 23 25  1  0  0  0  0
 23 22  1  0  0  0  0
 24 23  1  0  0  0  0
 27  7  1  0  0  0  0
 27 29  1  0  0  0  0
 28 27  1  0  0  0  0
 30 36  1  6  0  0  0
 30 31  1  0  0  0  0
 31 32  1  0  0  0  0
 31 27  1  1  0  0  0
 32 33  1  0  0  0  0
 34 38  1  1  0  0  0
 34 33  1  0  0  0  0
 35 40  1  1  0  0  0
 35 30  1  0  0  0  0
 35 34  1  0  0  0  0
 37 36  1  0  0  0  0
 38 39  1  0  0  0  0
 41 40  1  0  0  0  0
M  END
>  <minimizedAffinity>
-6.43878174

$$$$

 OpenBabel03252504193D

 41 43  0  0  1  0  0  0  0  0999 V2000
   39.1350   28.8000   39.1420 F   0  0  0  0  0  0  0  0  0  0  0  0
   38.1440   29.5350   39.7480 C   0  0  0  0  0  0  0  0  0  0  0  0
   36.9120   28.9830   39.9470 C   0  0  0  0  0  0  0  0  0  0  0  0
   35.9630   29.7880   40.5630 C   0  0  0  0  0  0  0  0  0  0  0  0
   36.2620   31.0700   40.9490 C   0  0  0  0  0  0  0  0  0  0  0  0
   37.5410   31.5790   40.7170 C   0  0  0  0  0  0  0  0  0  0  0  0
   38.5170   30.8050   40.1040 C   0  0  0  0  0  0  0  0  0  0  0  0
   34.9770   29.3550   40.7260 H   0  0  0  0  0  0  0  0  0  0  0  0
   35.5000   31.6660   41.4250 H   0  0  0  0  0  0  0  0  0  0  0  0
   37.7640   32.5970   41.0280 H   0  0  0  0  0  0  0  0  0  0  0  0
   36.5930   25.3470   40.0710 C   0  0  0  0  0  0  0  0  0  0  0  0
   36.0440   25.0190   38.8230 C   0  0  0  0  0  0  0  0  0  0  0  0
   35.7850   26.0770   37.9360 C   0  0  0  0  0  0  0  0  0  0  0  0
   36.0680   27.3410   38.3090 N   0  0  0  0  0  0  0  0  0  0  0  0
   36.6010   27.6120   39.5330 C   0  0  0  0  0  0  0  0  0  0  0  0
   36.8550   26.6190   40.3910 N   0  0  0  0  0  0  0  0  0  0  0  0
   35.3610   25.8350   36.9710 H   0  0  0  0  0  0  0  0  0  0  0  0
   35.7690   23.6170   38.5010 C   0  0  0  0  0  0  0  0  0  0  0  0
   35.0280   23.5200   37.3380 F   0  0  0  0  0  0  0  0  0  0  0  0
   36.9900   22.9790   38.2400 F   0  0  0  0  0  0  0  0  0  0  0  0
   35.1270   22.9180   39.4680 F   0  0  0  0  0  0  0  0  0  0  0  0
   36.8430   24.3310   40.9250 O   0  0  0  0  0  0  0  0  0  0  0  0
   38.1180   23.7700   41.2220 C   0  0  0  0  0  0  0  0  0  0  0  0
   39.0250   24.3220   40.3290 F   0  0  0  0  0  0  0  0  0  0  0  0
   38.4350   24.0030   42.5290 F   0  0  0  0  0  0  0  0  0  0  0  0
   38.0940   22.4220   40.9260 F   0  0  0  0  0  0  0  0  0  0  0  0
   39.8910   31.3430   39.8530 C   0  0  0  0  0  0  0  0  0  0  0  0
   40.4310   30.5230   39.2950 H   0  0  0  0  0  0  0  0  0  0  0  0
   40.4500   31.4910   40.7890 H   0  0  0  0  0  0  0  0  0  0  0  0
   40.6610   32.3780   37.7180 C   0  0  2  0  0  3  0  0  0  0  0  0
   39.8600   32.5740   38.9660 C   0  0  2  0  0  3  0  0  0  0  0  0
   40.1870   33.7150   39.6750 O   0  0  0  0  0  0  0  0  0  0  0  0
   41.5250   33.8080   39.9820 C   0  0  0  0  0  2  0  0  0  0  0  0
   42.2840   34.0510   38.7210 C   0  0  2  0  0  3  0  0  0  0  0  0
   41.7670   33.3580   37.5080 C   0  0  1  0  0  3  0  0  0  0  0  0
   39.8480   32.3900   36.5810 O   0  0  0  0  0  0  0  0  0  0  0  0
   39.6020   33.3020   36.2970 H   0  0  0  0  0  0  0  0  0  0  0  0
   43.6230   33.6670   38.9740 O   0  0  0  0  0  0  0  0  0  0  0  0
   43.6540   32.9990   39.7060 H   0  0  0  0  0  0  0  0  0  0  0  0
   42.8460   32.7530   36.8520 O   0  0  0  0  0  0  0  0  0  0  0  0
   42.4130   32.2480   36.0910 H   0  0  0  0  0  0  0  0  0  0  0  0
  1  2  1  0  0  0  0
  2  3  2  0  0  0  0
  2  7  1  0  0  0  0
  3  4  1  0  0  0  0
  4  8  1  0  0  0  0
  4  5  2  0  0  0  0
  5  9  1  0  0  0  0
  6  5  1  0  0  0  0
  6 10  1  0  0  0  0
  7  6  2  0  0  0  0
 11 16  1  0  0  0  0
 11 22  1  0  0  0  0
 12 11  2  0  0  0  0
 13 14  2  0  0  0  0
 13 12  1  0  0  0  0
 14 15  1  0  0  0  0
 15  3  1  0  0  0  0
 15 16  2  0  0  0  0
 17 13  1  0  0  0  0
 18 12  1  0  0  0  0
 18 21  1  0  0  0  0
 19 18  1  0  0  0  0
 20 18  1  0  0  0  0
 22 23  1  0  0  0  0
 23 25  1  0  0  0  0
 24 23  1  0  0  0  0
 26 23  1  0  0  0  0
 27  7  1  0  0  0  0
 27 29  1  0  0  0  0
 28 27  1  0  0  0  0
 30 36  1  6  0  0  0
 30 31  1  0  0  0  0
 31 32  1  0  0  0  0
 31 27  1  1  0  0  0
 32 33  1  0  0  0  0
 34 38  1  1  0  0  0
 34 33  1  0  0  0  0
 35 40  1  1  0  0  0
 35 30  1  0  0  0  0
 35 34  1  0  0  0  0
 37 36  1  0  0  0  0
 38 39  1  0  0  0  0
 41 40  1  0  0  0  0
M  END
>  <minimizedAffinity>
-6.42478752

$$$$

 OpenBabel03252504193D

 41 43  0  0  1  0  0  0  0  0999 V2000
   40.1320   30.2460   40.8440 F   0  0  0  0  0  0  0  0  0  0  0  0
   39.0370   31.0220   40.5450 C   0  0  0  0  0  0  0  0  0  0  0  0
   37.7820   30.4950   40.6400 C   0  0  0  0  0  0  0  0  0  0  0  0
   36.7270   31.3400   40.3200 C   0  0  0  0  0  0  0  0  0  0  0  0
   36.9490   32.6360   39.9300 C   0  0  0  0  0  0  0  0  0  0  0  0
   38.2570   33.1180   39.8510 C   0  0  0  0  0  0  0  0  0  0  0  0
   39.3390   32.3040   40.1640 C   0  0  0  0  0  0  0  0  0  0  0  0
   35.7220   30.9260   40.3930 H   0  0  0  0  0  0  0  0  0  0  0  0
   36.1070   33.2640   39.6890 H   0  0  0  0  0  0  0  0  0  0  0  0
   38.4180   34.1480   39.5410 H   0  0  0  0  0  0  0  0  0  0  0  0
   37.6260   26.8480   40.5060 C   0  0  0  0  0  0  0  0  0  0  0  0
   37.1470   26.4900   41.7740 C   0  0  0  0  0  0  0  0  0  0  0  0
   36.8780   27.5300   42.6780 C   0  0  0  0  0  0  0  0  0  0  0  0
   37.0860   28.8080   42.3010 N   0  0  0  0  0  0  0  0  0  0  0  0
   37.5530   29.1080   41.0580 C   0  0  0  0  0  0  0  0  0  0  0  0
   37.8150   28.1330   40.1830 N   0  0  0  0  0  0  0  0  0  0  0  0
   36.5080   27.2650   43.6590 H   0  0  0  0  0  0  0  0  0  0  0  0
   36.9490   25.0750   42.0980 C   0  0  0  0  0  0  0  0  0  0  0  0
   38.1600   24.4600   42.3520 F   0  0  0  0  0  0  0  0  0  0  0  0
   36.2150   24.9960   43.2900 F   0  0  0  0  0  0  0  0  0  0  0  0
   36.2990   24.3520   41.1550 F   0  0  0  0  0  0  0  0  0  0  0  0
   37.8850   25.8490   39.6350 O   0  0  0  0  0  0  0  0  0  0  0  0
   37.2350   25.6240   38.3890 C   0  0  0  0  0  0  0  0  0  0  0  0
   37.3890   24.2780   38.0850 F   0  0  0  0  0  0  0  0  0  0  0  0
   35.9280   26.0130   38.4690 F   0  0  0  0  0  0  0  0  0  0  0  0
   37.9170   26.2990   37.3980 F   0  0  0  0  0  0  0  0  0  0  0  0
   40.7430   32.8130   40.0830 C   0  0  0  0  0  0  0  0  0  0  0  0
   41.3950   31.9030   40.2310 H   0  0  0  0  0  0  0  0  0  0  0  0
   40.9800   33.4940   40.9140 H   0  0  0  0  0  0  0  0  0  0  0  0
   41.1260   32.3350   37.6650 C   0  0  2  0  0  3  0  0  0  0  0  0
   41.0530   33.3960   38.7160 C   0  0  2  0  0  3  0  0  0  0  0  0
   42.1580   34.2260   38.7600 O   0  0  0  0  0  0  0  0  0  0  0  0
   43.3490   33.5500   38.8880 C   0  0  0  0  0  2  0  0  0  0  0  0
   43.6170   32.8170   37.6170 C   0  0  2  0  0  3  0  0  0  0  0  0
   42.4220   32.2510   36.9300 C   0  0  1  0  0  3  0  0  0  0  0  0
   40.1020   32.4740   36.7250 O   0  0  0  0  0  0  0  0  0  0  0  0
   40.2910   33.1710   36.0530 H   0  0  0  0  0  0  0  0  0  0  0  0
   44.5390   31.7900   37.9280 O   0  0  0  0  0  0  0  0  0  0  0  0
   44.4710   31.5480   38.8870 H   0  0  0  0  0  0  0  0  0  0  0  0
   42.7040   30.9270   36.5730 O   0  0  0  0  0  0  0  0  0  0  0  0
   41.8340   30.5920   36.1830 H   0  0  0  0  0  0  0  0  0  0  0  0
  2  3  1  0  0  0  0
  2  1  1  0  0  0  0
  3 15  1  0  0  0  0
  4  8  1  0  0  0  0
  4  3  2  0  0  0  0
  5  4  1  0  0  0  0
  6  5  2  0  0  0  0
  6  7  1  0  0  0  0
  7  2  2  0  0  0  0
  9  5  1  0  0  0  0
 10  6  1  0  0  0  0
 11 12  1  0  0  0  0
 12 18  1  0  0  0  0
 12 13  2  0  0  0  0
 13 17  1  0  0  0  0
 14 13  1  0  0  0  0
 15 14  2  0  0  0  0
 16 11  2  0  0  0  0
 16 15  1  0  0  0  0
 18 19  1  0  0  0  0
 18 20  1  0  0  0  0
 21 18  1  0  0  0  0
 22 11  1  0  0  0  0
 23 25  1  0  0  0  0
 23 22  1  0  0  0  0
 24 23  1  0  0  0  0
 26 23  1  0  0  0  0
 27  7  1  0  0  0  0
 27 28  1  0  0  0  0
 27 29  1  0  0  0  0
 30 36  1  6  0  0  0
 30 31  1  0  0  0  0
 31 32  1  0  0  0  0
 31 27  1  1  0  0  0
 32 33  1  0  0  0  0
 34 38  1  1  0  0  0
 34 33  1  0  0  0  0
 35 40  1  1  0  0  0
 35 34  1  0  0  0  0
 35 30  1  0  0  0  0
 37 36  1  0  0  0  0
 38 39  1  0  0  0  0
 41 40  1  0  0  0  0
M  END
>  <minimizedAffinity>
-6.42084932

$$$$

 OpenBabel03252504193D

 41 43  0  0  1  0  0  0  0  0999 V2000
   40.1160   29.3420   40.2370 F   0  0  0  0  0  0  0  0  0  0  0  0
   39.1680   30.3360   40.2770 C   0  0  0  0  0  0  0  0  0  0  0  0
   37.8650   30.0470   39.9960 C   0  0  0  0  0  0  0  0  0  0  0  0
   36.9660   31.1050   40.0550 C   0  0  0  0  0  0  0  0  0  0  0  0
   37.3810   32.3710   40.3810 C   0  0  0  0  0  0  0  0  0  0  0  0
   38.7300   32.6050   40.6570 C   0  0  0  0  0  0  0  0  0  0  0  0
   39.6580   31.5730   40.6090 C   0  0  0  0  0  0  0  0  0  0  0  0
   35.9240   30.8820   39.8320 H   0  0  0  0  0  0  0  0  0  0  0  0
   36.6570   33.1680   40.4170 H   0  0  0  0  0  0  0  0  0  0  0  0
   39.0450   33.6140   40.9140 H   0  0  0  0  0  0  0  0  0  0  0  0
   37.5650   26.4080   40.0840 C   0  0  0  0  0  0  0  0  0  0  0  0
   36.6570   26.1250   39.0540 C   0  0  0  0  0  0  0  0  0  0  0  0
   36.1490   27.2140   38.3270 C   0  0  0  0  0  0  0  0  0  0  0  0
   36.5450   28.4640   38.6390 N   0  0  0  0  0  0  0  0  0  0  0  0
   37.4290   28.6910   39.6490 C   0  0  0  0  0  0  0  0  0  0  0  0
   37.9240   27.6690   40.3530 N   0  0  0  0  0  0  0  0  0  0  0  0
   35.4480   27.0060   37.5290 H   0  0  0  0  0  0  0  0  0  0  0  0
   36.2830   24.7350   38.7830 C   0  0  0  0  0  0  0  0  0  0  0  0
   37.4080   23.9380   38.6840 F   0  0  0  0  0  0  0  0  0  0  0  0
   35.5590   24.2530   39.8830 F   0  0  0  0  0  0  0  0  0  0  0  0
   35.5340   24.5450   37.6700 F   0  0  0  0  0  0  0  0  0  0  0  0
   38.0550   25.3630   40.7840 O   0  0  0  0  0  0  0  0  0  0  0  0
   37.8090   25.0740   42.1570 C   0  0  0  0  0  0  0  0  0  0  0  0
   37.6580   23.6990   42.2640 F   0  0  0  0  0  0  0  0  0  0  0  0
   38.8260   25.5680   42.9240 F   0  0  0  0  0  0  0  0  0  0  0  0
   36.5860   25.6020   42.5150 F   0  0  0  0  0  0  0  0  0  0  0  0
   41.1050   31.8150   40.9050 C   0  0  0  0  0  0  0  0  0  0  0  0
   41.5590   30.7870   41.0120 H   0  0  0  0  0  0  0  0  0  0  0  0
   41.2460   32.3120   41.8760 H   0  0  0  0  0  0  0  0  0  0  0  0
   40.8370   32.9560   38.7030 C   0  0  2  0  0  3  0  0  0  0  0  0
   41.8040   32.5200   39.7580 C   0  0  2  0  0  3  0  0  0  0  0  0
   42.8660   31.7750   39.2790 O   0  0  0  0  0  0  0  0  0  0  0  0
   42.4810   30.6770   38.5440 C   0  0  0  0  0  2  0  0  0  0  0  0
   41.8880   31.1510   37.2610 C   0  0  2  0  0  3  0  0  0  0  0  0
   41.0910   32.4070   37.3380 C   0  0  1  0  0  3  0  0  0  0  0  0
   40.7760   34.3480   38.6070 O   0  0  0  0  0  0  0  0  0  0  0  0
   41.5270   34.7300   38.0950 H   0  0  0  0  0  0  0  0  0  0  0  0
   41.0910   30.0920   36.7670 O   0  0  0  0  0  0  0  0  0  0  0  0
   40.7980   29.5080   37.5130 H   0  0  0  0  0  0  0  0  0  0  0  0
   39.8860   32.2080   36.6530 O   0  0  0  0  0  0  0  0  0  0  0  0
   39.3750   33.0660   36.8090 H   0  0  0  0  0  0  0  0  0  0  0  0
  1  2  1  0  0  0  0
  2  7  1  0  0  0  0
  3  4  1  0  0  0  0
  3  2  2  0  0  0  0
  4  5  2  0  0  0  0
  5  9  1  0  0  0  0
  5  6  1  0  0  0  0
  6 10  1  0  0  0  0
  7  6  2  0  0  0  0
  7 27  1  0  0  0  0
  8  4  1  0  0  0  0
 11 16  1  0  0  0  0
 11 22  1  0  0  0  0
 12 11  2  0  0  0  0
 13 14  2  0  0  0  0
 13 12  1  0  0  0  0
 14 15  1  0  0  0  0
 15  3  1  0  0  0  0
 15 16  2  0  0  0  0
 17 13  1  0  0  0  0
 18 12  1  0  0  0  0
 18 20  1  0  0  0  0
 19 18  1  0  0  0  0
 21 18  1  0  0  0  0
 22 23  1  0  0  0  0
 23 24  1  0  0  0  0
 23 26  1  0  0  0  0
 23 25  1  0  0  0  0
 27 28  1  0  0  0  0
 27 29  1  0  0  0  0
 30 36  1  6  0  0  0
 30 31  1  0  0  0  0
 31 27  1  1  0  0  0
 32 31  1  0  0  0  0
 33 32  1  0  0  0  0
 34 38  1  1  0  0  0
 34 35  1  0  0  0  0
 34 33  1  0  0  0  0
 35 40  1  1  0  0  0
 35 30  1  0  0  0  0
 37 36  1  0  0  0  0
 38 39  1  0  0  0  0
 40 41  1  0  0  0  0
M  END
>  <minimizedAffinity>
-6.27736568

$$$$

 OpenBabel03252504193D

 41 43  0  0  1  0  0  0  0  0999 V2000
   38.7080   27.9610   39.8970 F   0  0  0  0  0  0  0  0  0  0  0  0
   38.1800   28.0310   41.1640 C   0  0  0  0  0  0  0  0  0  0  0  0
   37.3010   27.0790   41.5890 C   0  0  0  0  0  0  0  0  0  0  0  0
   36.8100   27.2180   42.8810 C   0  0  0  0  0  0  0  0  0  0  0  0
   37.1980   28.2650   43.6790 C   0  0  0  0  0  0  0  0  0  0  0  0
   38.1010   29.2090   43.1870 C   0  0  0  0  0  0  0  0  0  0  0  0
   38.6150   29.1030   41.9000 C   0  0  0  0  0  0  0  0  0  0  0  0
   36.1070   26.4620   43.2280 H   0  0  0  0  0  0  0  0  0  0  0  0
   36.7970   28.3420   44.6770 H   0  0  0  0  0  0  0  0  0  0  0  0
   38.4000   30.0330   43.8300 H   0  0  0  0  0  0  0  0  0  0  0  0
   36.1670   25.2540   38.6360 C   0  0  0  0  0  0  0  0  0  0  0  0
   36.1140   23.9210   39.0690 C   0  0  0  0  0  0  0  0  0  0  0  0
   36.4770   23.6630   40.4000 C   0  0  0  0  0  0  0  0  0  0  0  0
   36.8550   24.6840   41.1960 N   0  0  0  0  0  0  0  0  0  0  0  0
   36.8910   25.9630   40.7310 C   0  0  0  0  0  0  0  0  0  0  0  0
   36.5500   26.2300   39.4670 N   0  0  0  0  0  0  0  0  0  0  0  0
   36.4390   22.6380   40.7450 H   0  0  0  0  0  0  0  0  0  0  0  0
   35.6910   22.8750   38.1350 C   0  0  0  0  0  0  0  0  0  0  0  0
   35.7700   21.6300   38.7300 F   0  0  0  0  0  0  0  0  0  0  0  0
   34.3360   23.0780   37.8340 F   0  0  0  0  0  0  0  0  0  0  0  0
   36.3790   22.8290   36.9690 F   0  0  0  0  0  0  0  0  0  0  0  0
   35.8190   25.5050   37.3550 O   0  0  0  0  0  0  0  0  0  0  0  0
   34.7220   26.3010   36.9170 C   0  0  0  0  0  0  0  0  0  0  0  0
   34.7000   26.2380   35.5310 F   0  0  0  0  0  0  0  0  0  0  0  0
   33.5670   25.8600   37.4970 F   0  0  0  0  0  0  0  0  0  0  0  0
   34.9800   27.6230   37.2160 F   0  0  0  0  0  0  0  0  0  0  0  0
   39.5840   30.1100   41.3660 C   0  0  0  0  0  0  0  0  0  0  0  0
   39.7430   29.8200   40.2860 H   0  0  0  0  0  0  0  0  0  0  0  0
   40.5680   30.0280   41.8500 H   0  0  0  0  0  0  0  0  0  0  0  0
   38.0000   31.7240   40.3140 C   0  0  2  0  0  3  0  0  0  0  0  0
   39.0100   31.5140   41.3960 C   0  0  2  0  0  3  0  0  0  0  0  0
   40.0110   32.4680   41.4270 O   0  0  0  0  0  0  0  0  0  0  0  0
   40.6660   32.6190   40.2260 C   0  0  0  0  0  2  0  0  0  0  0  0
   39.7280   33.2490   39.2530 C   0  0  2  0  0  3  0  0  0  0  0  0
   38.3020   32.8340   39.3630 C   0  0  1  0  0  3  0  0  0  0  0  0
   36.7230   31.9370   40.8390 O   0  0  0  0  0  0  0  0  0  0  0  0
   36.5910   32.8610   41.1600 H   0  0  0  0  0  0  0  0  0  0  0  0
   40.2280   32.9550   37.9610 O   0  0  0  0  0  0  0  0  0  0  0  0
   40.7790   32.1310   37.9880 H   0  0  0  0  0  0  0  0  0  0  0  0
   37.8300   32.5290   38.0800 O   0  0  0  0  0  0  0  0  0  0  0  0
   36.8920   32.1910   38.2420 H   0  0  0  0  0  0  0  0  0  0  0  0
  1  2  1  0  0  0  0
  2  3  2  0  0  0  0
  2  7  1  0  0  0  0
  3  4  1  0  0  0  0
  4  8  1  0  0  0  0
  4  5  2  0  0  0  0
  5  9  1  0  0  0  0
  6  5  1  0  0  0  0
  6 10  1  0  0  0  0
  7  6  2  0  0  0  0
 11 12  2  0  0  0  0
 11 16  1  0  0  0  0
 12 13  1  0  0  0  0
 13 17  1  0  0  0  0
 13 14  2  0  0  0  0
 15 14  1  0  0  0  0
 15  3  1  0  0  0  0
 16 15  2  0  0  0  0
 18 19  1  0  0  0  0
 18 12  1  0  0  0  0
 20 18  1  0  0  0  0
 21 18  1  0  0  0  0
 22 11  1  0  0  0  0
 23 26  1  0  0  0  0
 23 22  1  0  0  0  0
 23 25  1  0  0  0  0
 24 23  1  0  0  0  0
 27 29  1  0  0  0  0
 27  7  1  0  0  0  0
 28 27  1  0  0  0  0
 30 36  1  1  0  0  0
 30 31  1  0  0  0  0
 31 27  1  6  0  0  0
 31 32  1  0  0  0  0
 33 32  1  0  0  0  0
 34 38  1  6  0  0  0
 34 35  1  0  0  0  0
 34 33  1  0  0  0  0
 35 40  1  6  0  0  0
 35 30  1  0  0  0  0
 36 37  1  0  0  0  0
 38 39  1  0  0  0  0
 40 41  1  0  0  0  0
M  END
>  <minimizedAffinity>
-6.15750694

$$$$

 OpenBabel03252504193D

 41 43  0  0  1  0  0  0  0  0999 V2000
   38.5740   27.2010   39.7590 F   0  0  0  0  0  0  0  0  0  0  0  0
   37.7810   26.1150   40.0430 C   0  0  0  0  0  0  0  0  0  0  0  0
   36.8110   25.7310   39.1640 C   0  0  0  0  0  0  0  0  0  0  0  0
   36.0500   24.6250   39.5220 C   0  0  0  0  0  0  0  0  0  0  0  0
   36.2730   23.9620   40.7020 C   0  0  0  0  0  0  0  0  0  0  0  0
   37.2800   24.4050   41.5620 C   0  0  0  0  0  0  0  0  0  0  0  0
   38.0630   25.5060   41.2380 C   0  0  0  0  0  0  0  0  0  0  0  0
   35.2730   24.3120   38.8250 H   0  0  0  0  0  0  0  0  0  0  0  0
   35.6630   23.1080   40.9480 H   0  0  0  0  0  0  0  0  0  0  0  0
   37.4460   23.8690   42.4940 H   0  0  0  0  0  0  0  0  0  0  0  0
   36.3530   28.4870   36.8110 C   0  0  0  0  0  0  0  0  0  0  0  0
   36.1510   27.8440   35.5820 C   0  0  0  0  0  0  0  0  0  0  0  0
   36.1760   26.4400   35.5790 C   0  0  0  0  0  0  0  0  0  0  0  0
   36.3880   25.7760   36.7330 N   0  0  0  0  0  0  0  0  0  0  0  0
   36.5800   26.4440   37.9040 C   0  0  0  0  0  0  0  0  0  0  0  0
   36.5600   27.7800   37.9280 N   0  0  0  0  0  0  0  0  0  0  0  0
   36.0210   25.9340   34.6350 H   0  0  0  0  0  0  0  0  0  0  0  0
   35.9270   28.6450   34.3760 C   0  0  0  0  0  0  0  0  0  0  0  0
   37.0790   29.3170   34.0160 F   0  0  0  0  0  0  0  0  0  0  0  0
   35.6370   27.7720   33.3170 F   0  0  0  0  0  0  0  0  0  0  0  0
   34.9220   29.5500   34.4630 F   0  0  0  0  0  0  0  0  0  0  0  0
   36.3290   29.8370   36.8170 O   0  0  0  0  0  0  0  0  0  0  0  0
   37.3350   30.6990   37.3400 C   0  0  0  0  0  0  0  0  0  0  0  0
   37.3850   31.8150   36.5160 F   0  0  0  0  0  0  0  0  0  0  0  0
   37.0560   31.0010   38.6420 F   0  0  0  0  0  0  0  0  0  0  0  0
   38.5650   30.0900   37.2010 F   0  0  0  0  0  0  0  0  0  0  0  0
   39.1460   25.9850   42.1540 C   0  0  0  0  0  0  0  0  0  0  0  0
   39.8510   26.5690   41.4930 H   0  0  0  0  0  0  0  0  0  0  0  0
   39.7340   25.1500   42.5630 H   0  0  0  0  0  0  0  0  0  0  0  0
   37.3110   27.5450   42.8050 C   0  0  2  0  0  3  0  0  0  0  0  0
   38.6090   26.9260   43.2160 C   0  0  2  0  0  3  0  0  0  0  0  0
   39.5700   27.8370   43.6150 O   0  0  0  0  0  0  0  0  0  0  0  0
   39.8180   28.8180   42.6830 C   0  0  0  0  0  2  0  0  0  0  0  0
   38.6240   29.7080   42.6040 C   0  0  2  0  0  3  0  0  0  0  0  0
   37.3020   29.0370   42.7560 C   0  0  1  0  0  3  0  0  0  0  0  0
   36.2620   27.1310   43.6280 O   0  0  0  0  0  0  0  0  0  0  0  0
   36.2360   27.6150   44.4870 H   0  0  0  0  0  0  0  0  0  0  0  0
   38.6970   30.3730   41.3560 O   0  0  0  0  0  0  0  0  0  0  0  0
   39.2290   29.8370   40.7140 H   0  0  0  0  0  0  0  0  0  0  0  0
   36.4550   29.4940   41.7390 O   0  0  0  0  0  0  0  0  0  0  0  0
   35.6140   28.9480   41.8620 H   0  0  0  0  0  0  0  0  0  0  0  0
  1  2  1  0  0  0  0
  2  7  1  0  0  0  0
  3  4  1  0  0  0  0
  3  2  2  0  0  0  0
  4  5  2  0  0  0  0
  5  9  1  0  0  0  0
  5  6  1  0  0  0  0
  6 10  1  0  0  0  0
  7  6  2  0  0  0  0
  7 27  1  0  0  0  0
  8  4  1  0  0  0  0
 11 22  1  0  0  0  0
 11 16  1  0  0  0  0
 12 11  2  0  0  0  0
 13 12  1  0  0  0  0
 13 14  2  0  0  0  0
 14 15  1  0  0  0  0
 15 16  2  0  0  0  0
 15  3  1  0  0  0  0
 17 13  1  0  0  0  0
 18 21  1  0  0  0  0
 18 12  1  0  0  0  0
 19 18  1  0  0  0  0
 20 18  1  0  0  0  0
 22 23  1  0  0  0  0
 23 25  1  0  0  0  0
 24 23  1  0  0  0  0
 26 23  1  0  0  0  0
 27 29  1  0  0  0  0
 28 27  1  0  0  0  0
 30 31  1  0  0  0  0
 30 36  1  1  0  0  0
 31 27  1  6  0  0  0
 31 32  1  0  0  0  0
 33 32  1  0  0  0  0
 34 38  1  6  0  0  0
 34 33  1  0  0  0  0
 34 35  1  0  0  0  0
 35 40  1  6  0  0  0
 35 30  1  0  0  0  0
 36 37  1  0  0  0  0
 39 38  1  0  0  0  0
 40 41  1  0  0  0  0
M  END
>  <minimizedAffinity>
-6.0710597

$$$$

 OpenBabel03252504193D

 41 43  0  0  1  0  0  0  0  0999 V2000
   36.0170   30.3760   37.8440 F   0  0  0  0  0  0  0  0  0  0  0  0
   36.0130   29.0180   38.0640 C   0  0  0  0  0  0  0  0  0  0  0  0
   34.9990   28.2510   37.5710 C   0  0  0  0  0  0  0  0  0  0  0  0
   35.0650   26.8890   37.8370 C   0  0  0  0  0  0  0  0  0  0  0  0
   36.1030   26.3560   38.5580 C   0  0  0  0  0  0  0  0  0  0  0  0
   37.1120   27.1940   39.0380 C   0  0  0  0  0  0  0  0  0  0  0  0
   37.0810   28.5610   38.7920 C   0  0  0  0  0  0  0  0  0  0  0  0
   34.2600   26.2690   37.4470 H   0  0  0  0  0  0  0  0  0  0  0  0
   36.1220   25.2940   38.7460 H   0  0  0  0  0  0  0  0  0  0  0  0
   37.9280   26.7580   39.6080 H   0  0  0  0  0  0  0  0  0  0  0  0
   31.6470   29.4280   36.7280 C   0  0  0  0  0  0  0  0  0  0  0  0
   31.7800   29.8970   35.4130 C   0  0  0  0  0  0  0  0  0  0  0  0
   33.0500   29.7990   34.8220 C   0  0  0  0  0  0  0  0  0  0  0  0
   34.0720   29.2700   35.5240 N   0  0  0  0  0  0  0  0  0  0  0  0
   33.8940   28.8280   36.8000 C   0  0  0  0  0  0  0  0  0  0  0  0
   32.6940   28.9110   37.3810 N   0  0  0  0  0  0  0  0  0  0  0  0
   33.1640   30.1590   33.8080 H   0  0  0  0  0  0  0  0  0  0  0  0
   30.6150   30.4570   34.7240 C   0  0  0  0  0  0  0  0  0  0  0  0
   30.3010   31.7030   35.2320 F   0  0  0  0  0  0  0  0  0  0  0  0
   30.9560   30.6590   33.3790 F   0  0  0  0  0  0  0  0  0  0  0  0
   29.4980   29.6920   34.7650 F   0  0  0  0  0  0  0  0  0  0  0  0
   30.4260   29.5200   37.2990 O   0  0  0  0  0  0  0  0  0  0  0  0
   30.0670   30.3510   38.3980 C   0  0  0  0  0  0  0  0  0  0  0  0
   30.6360   29.7940   39.5340 F   0  0  0  0  0  0  0  0  0  0  0  0
   30.4730   31.6340   38.1630 F   0  0  0  0  0  0  0  0  0  0  0  0
   28.7040   30.2670   38.5970 F   0  0  0  0  0  0  0  0  0  0  0  0
   38.1590   29.4660   39.3010 C   0  0  0  0  0  0  0  0  0  0  0  0
   38.2880   30.2490   38.4990 H   0  0  0  0  0  0  0  0  0  0  0  0
   39.1260   28.9470   39.3780 H   0  0  0  0  0  0  0  0  0  0  0  0
   38.0090   31.6390   40.5170 C   0  0  2  0  0  3  0  0  0  0  0  0
   37.7470   30.1680   40.5810 C   0  0  2  0  0  3  0  0  0  0  0  0
   38.2840   29.5460   41.6930 O   0  0  0  0  0  0  0  0  0  0  0  0
   39.6320   29.7680   41.8510 C   0  0  0  0  0  2  0  0  0  0  0  0
   39.8370   31.1980   42.2210 C   0  0  2  0  0  3  0  0  0  0  0  0
   38.9140   32.1740   41.5750 C   0  0  1  0  0  3  0  0  0  0  0  0
   36.8200   32.3730   40.5490 O   0  0  0  0  0  0  0  0  0  0  0  0
   36.4530   32.4650   41.4600 H   0  0  0  0  0  0  0  0  0  0  0  0
   41.1810   31.5100   41.9070 O   0  0  0  0  0  0  0  0  0  0  0  0
   41.5150   30.9030   41.1970 H   0  0  0  0  0  0  0  0  0  0  0  0
   39.6760   33.2410   41.0820 O   0  0  0  0  0  0  0  0  0  0  0  0
   39.0000   33.8180   40.6010 H   0  0  0  0  0  0  0  0  0  0  0  0
  1  2  1  0  0  0  0
  2  7  1  0  0  0  0
  3  4  1  0  0  0  0
  3  2  2  0  0  0  0
  4  5  2  0  0  0  0
  5  9  1  0  0  0  0
  5  6  1  0  0  0  0
  6 10  1  0  0  0  0
  7  6  2  0  0  0  0
  7 27  1  0  0  0  0
  8  4  1  0  0  0  0
 11 22  1  0  0  0  0
 11 16  1  0  0  0  0
 12 11  2  0  0  0  0
 13 12  1  0  0  0  0
 13 14  2  0  0  0  0
 14 15  1  0  0  0  0
 15 16  2  0  0  0  0
 15  3  1  0  0  0  0
 17 13  1  0  0  0  0
 18 21  1  0  0  0  0
 18 19  1  0  0  0  0
 18 12  1  0  0  0  0
 20 18  1  0  0  0  0
 22 23  1  0  0  0  0
 23 26  1  0  0  0  0
 23 24  1  0  0  0  0
 25 23  1  0  0  0  0
 27 29  1  0  0  0  0
 28 27  1  0  0  0  0
 30 36  1  1  0  0  0
 30 31  1  0  0  0  0
 30 35  1  0  0  0  0
 31 27  1  6  0  0  0
 31 32  1  0  0  0  0
 32 33  1  0  0  0  0
 33 34  1  0  0  0  0
 34 38  1  6  0  0  0
 35 40  1  6  0  0  0
 35 34  1  0  0  0  0
 36 37  1  0  0  0  0
 39 38  1  0  0  0  0
 41 40  1  0  0  0  0
M  END
>  <minimizedAffinity>
-6.06610203

$$$$
