
 OpenBabel03242522523D

 29 30  0  0  1  0  0  0  0  0999 V2000
   38.0080   30.2990   39.9220 O   0  0  0  0  0  0  0  0  0  0  0  0
   37.6830   29.8900   42.4870 O   0  0  0  0  0  0  0  0  0  0  0  0
   36.9440   29.9140   41.1280 P   0  0  1  0  0  0  0  0  0  0  0  0
   35.7350   31.0690   41.2910 O   0  0  0  0  0  0  0  0  0  0  0  0
   34.8160   30.7030   41.2360 H   0  0  0  0  0  0  0  0  0  0  0  0
   36.2730   28.3910   40.8620 O   0  0  0  0  0  0  0  0  0  0  0  0
   37.7740   25.3490   42.1640 C   0  0  0  0  0  0  0  0  0  0  0  0
   37.0020   26.5200   42.0700 C   0  0  0  0  0  0  0  0  0  0  0  0
   37.0470   27.2510   40.9060 C   0  0  0  0  0  0  0  0  0  0  0  0
   37.8380   26.7990   39.9070 N   0  0  0  0  0  0  0  0  0  0  0  0
   38.5750   25.6850   39.9910 C   0  0  0  0  0  0  0  0  0  0  0  0
   38.5400   24.9530   41.1360 N   0  0  0  0  0  0  0  0  0  0  0  0
   37.8070   24.7070   43.0340 H   0  0  0  0  0  0  0  0  0  0  0  0
   36.4540   26.6880   42.9610 H   0  0  0  0  0  0  0  0  0  0  0  0
   39.1920   25.3550   39.1810 H   0  0  0  0  0  0  0  0  0  0  0  0
   38.4460   31.4910   39.4540 C   0  0  0  0  0  0  0  0  0  0  0  0
   37.5140   32.1960   38.9310 O   0  0  0  0  0  0  0  0  0  0  0  0
   40.2660   32.2750   37.9690 C   0  0  2  0  0  3  0  0  0  0  0  0
   39.3270   32.6210   39.1040 C   0  0  2  0  0  3  0  0  0  0  0  0
   40.0050   33.1130   40.2130 O   0  0  0  0  0  0  0  0  0  0  0  0
   41.2950   32.6600   40.3540 C   0  0  0  0  0  2  0  0  0  0  0  0
   42.2110   32.9220   39.2030 C   0  0  2  0  0  3  0  0  0  0  0  0
   41.3490   33.3460   38.0260 C   0  0  1  0  0  3  0  0  0  0  0  0
   39.5810   32.3550   36.7340 O   0  0  0  0  0  0  0  0  0  0  0  0
   39.7490   33.2510   36.3390 H   0  0  0  0  0  0  0  0  0  0  0  0
   42.8200   31.7170   38.7860 O   0  0  0  0  0  0  0  0  0  0  0  0
   43.2190   31.2250   39.5350 H   0  0  0  0  0  0  0  0  0  0  0  0
   42.0860   33.4200   36.8560 O   0  0  0  0  0  0  0  0  0  0  0  0
   41.7350   32.8150   36.1740 H   0  0  0  0  0  0  0  0  0  0  0  0
  1  3  1  0  0  0  0
  3  4  1  0  0  0  0
  3  2  2  1  0  0  0
  5  4  1  0  0  0  0
  6  9  1  0  0  0  0
  6  3  1  0  0  0  0
  7 13  1  0  0  0  0
  8  7  1  0  0  0  0
  8 14  1  0  0  0  0
  9  8  2  0  0  0  0
 10 11  2  0  0  0  0
 10  9  1  0  0  0  0
 11 12  1  0  0  0  0
 12  7  2  0  0  0  0
 15 11  1  0  0  0  0
 16  1  1  0  0  0  0
 17 16  2  0  0  0  0
 18 24  1  6  0  0  0
 18 23  1  0  0  0  0
 18 19  1  0  0  0  0
 19 16  1  1  0  0  0
 19 20  1  0  0  0  0
 20 21  1  0  0  0  0
 22 26  1  6  0  0  0
 22 21  1  0  0  0  0
 23 28  1  6  0  0  0
 23 22  1  0  0  0  0
 25 24  1  0  0  0  0
 26 27  1  0  0  0  0
 29 28  1  0  0  0  0
M  END
>  <minimizedAffinity>
-5.78233147

$$$$

 OpenBabel03242522523D

 29 30  0  0  1  0  0  0  0  0999 V2000
   38.3410   30.4490   40.3540 O   0  0  0  0  0  0  0  0  0  0  0  0
   37.2380   29.5120   42.5350 O   0  0  0  0  0  0  0  0  0  0  0  0
   36.9390   29.9700   41.0890 P   0  0  1  0  0  0  0  0  0  0  0  0
   35.8420   31.2350   41.2330 O   0  0  0  0  0  0  0  0  0  0  0  0
   34.9520   31.0450   40.8420 H   0  0  0  0  0  0  0  0  0  0  0  0
   36.2450   28.6790   40.2560 O   0  0  0  0  0  0  0  0  0  0  0  0
   33.8550   28.9560   37.5330 C   0  0  0  0  0  0  0  0  0  0  0  0
   34.3960   28.8060   38.8220 C   0  0  0  0  0  0  0  0  0  0  0  0
   35.7630   28.8320   38.9740 C   0  0  0  0  0  0  0  0  0  0  0  0
   36.5180   29.0030   37.8650 N   0  0  0  0  0  0  0  0  0  0  0  0
   36.0080   29.1460   36.6360 C   0  0  0  0  0  0  0  0  0  0  0  0
   34.6590   29.1220   36.4720 N   0  0  0  0  0  0  0  0  0  0  0  0
   32.7970   28.9500   37.3100 H   0  0  0  0  0  0  0  0  0  0  0  0
   33.6320   28.6890   39.5450 H   0  0  0  0  0  0  0  0  0  0  0  0
   36.6350   29.2800   35.7780 H   0  0  0  0  0  0  0  0  0  0  0  0
   38.6840   31.6010   39.7310 C   0  0  0  0  0  0  0  0  0  0  0  0
   37.7130   32.1260   39.0820 O   0  0  0  0  0  0  0  0  0  0  0  0
   40.3920   32.3710   38.1130 C   0  0  2  0  0  3  0  0  0  0  0  0
   39.4680   32.7530   39.2480 C   0  0  2  0  0  3  0  0  0  0  0  0
   40.1430   33.3910   40.2810 O   0  0  0  0  0  0  0  0  0  0  0  0
   41.4670   33.0450   40.4130 C   0  0  0  0  0  2  0  0  0  0  0  0
   42.3230   33.2630   39.2070 C   0  0  2  0  0  3  0  0  0  0  0  0
   41.3950   33.5160   38.0320 C   0  0  1  0  0  3  0  0  0  0  0  0
   39.6630   32.2890   36.9040 O   0  0  0  0  0  0  0  0  0  0  0  0
   39.7530   33.1540   36.4240 H   0  0  0  0  0  0  0  0  0  0  0  0
   43.0060   32.0710   38.8770 O   0  0  0  0  0  0  0  0  0  0  0  0
   43.4630   31.6790   39.6500 H   0  0  0  0  0  0  0  0  0  0  0  0
   42.0860   33.5330   36.8320 O   0  0  0  0  0  0  0  0  0  0  0  0
   41.7590   32.8460   36.2210 H   0  0  0  0  0  0  0  0  0  0  0  0
  1  3  1  0  0  0  0
  3  4  1  0  0  0  0
  3  2  2  1  0  0  0
  5  4  1  0  0  0  0
  6  3  1  0  0  0  0
  7  8  1  0  0  0  0
  8  9  2  0  0  0  0
  8 14  1  0  0  0  0
  9  6  1  0  0  0  0
 10  9  1  0  0  0  0
 11 10  2  0  0  0  0
 12 11  1  0  0  0  0
 12  7  2  0  0  0  0
 13  7  1  0  0  0  0
 15 11  1  0  0  0  0
 16  1  1  0  0  0  0
 17 16  2  0  0  0  0
 18 24  1  6  0  0  0
 18 19  1  0  0  0  0
 19 16  1  1  0  0  0
 19 20  1  0  0  0  0
 20 21  1  0  0  0  0
 22 26  1  6  0  0  0
 22 21  1  0  0  0  0
 23 28  1  6  0  0  0
 23 18  1  0  0  0  0
 23 22  1  0  0  0  0
 25 24  1  0  0  0  0
 26 27  1  0  0  0  0
 29 28  1  0  0  0  0
M  END
>  <minimizedAffinity>
-5.53986549

$$$$

 OpenBabel03242522523D

 29 30  0  0  1  0  0  0  0  0999 V2000
   36.2510   28.3860   41.2650 O   0  0  0  0  0  0  0  0  0  0  0  0
   36.5770   30.0370   39.2600 O   0  0  0  0  0  0  0  0  0  0  0  0
   36.6630   29.9190   40.7990 P   0  0  1  0  0  0  0  0  0  0  0  0
   35.5920   31.0670   41.4000 O   0  0  0  0  0  0  0  0  0  0  0  0
   36.0260   31.7940   41.9150 H   0  0  0  0  0  0  0  0  0  0  0  0
   38.2400   30.2790   41.2720 O   0  0  0  0  0  0  0  0  0  0  0  0
   40.8180   32.7690   40.6730 C   0  0  0  0  0  0  0  0  0  0  0  0
   40.1860   31.5460   40.9600 C   0  0  0  0  0  0  0  0  0  0  0  0
   38.8120   31.5000   40.9850 C   0  0  0  0  0  0  0  0  0  0  0  0
   38.1380   32.6440   40.7300 N   0  0  0  0  0  0  0  0  0  0  0  0
   38.7340   33.8100   40.4560 C   0  0  0  0  0  0  0  0  0  0  0  0
   40.0910   33.8700   40.4280 N   0  0  0  0  0  0  0  0  0  0  0  0
   41.8900   32.9070   40.6290 H   0  0  0  0  0  0  0  0  0  0  0  0
   40.8980   30.7790   41.1240 H   0  0  0  0  0  0  0  0  0  0  0  0
   38.1690   34.6990   40.2580 H   0  0  0  0  0  0  0  0  0  0  0  0
   36.8100   27.5360   42.1580 C   0  0  0  0  0  0  0  0  0  0  0  0
   36.8600   28.0170   43.3430 O   0  0  0  0  0  0  0  0  0  0  0  0
   38.9410   26.3190   42.4840 C   0  0  2  0  0  3  0  0  0  0  0  0
   37.4520   26.3460   42.7470 C   0  0  2  0  0  3  0  0  0  0  0  0
   36.8280   25.1700   42.3490 O   0  0  0  0  0  0  0  0  0  0  0  0
   37.4440   24.5060   41.3150 C   0  0  0  0  0  2  0  0  0  0  0  0
   38.8700   24.1220   41.5410 C   0  0  2  0  0  3  0  0  0  0  0  0
   39.3540   24.8790   42.7650 C   0  0  1  0  0  3  0  0  0  0  0  0
   39.6050   27.1890   43.3800 O   0  0  0  0  0  0  0  0  0  0  0  0
   39.9310   26.6560   44.1520 H   0  0  0  0  0  0  0  0  0  0  0  0
   39.6730   24.6000   40.4800 O   0  0  0  0  0  0  0  0  0  0  0  0
   39.3080   24.3610   39.6030 H   0  0  0  0  0  0  0  0  0  0  0  0
   40.7220   24.7430   42.9390 O   0  0  0  0  0  0  0  0  0  0  0  0
   41.1730   25.6080   42.9180 H   0  0  0  0  0  0  0  0  0  0  0  0
  1 16  1  0  0  0  0
  3  2  2  6  0  0  0
  3  1  1  0  0  0  0
  3  6  1  0  0  0  0
  3  4  1  0  0  0  0
  4  5  1  0  0  0  0
  7  8  1  0  0  0  0
  8  9  2  0  0  0  0
  8 14  1  0  0  0  0
  9  6  1  0  0  0  0
 10  9  1  0  0  0  0
 11 10  2  0  0  0  0
 12 11  1  0  0  0  0
 12  7  2  0  0  0  0
 13  7  1  0  0  0  0
 15 11  1  0  0  0  0
 16 17  2  0  0  0  0
 18 19  1  0  0  0  0
 18 23  1  0  0  0  0
 18 24  1  1  0  0  0
 19 16  1  6  0  0  0
 20 19  1  0  0  0  0
 21 22  1  0  0  0  0
 21 20  1  0  0  0  0
 22 26  1  6  0  0  0
 22 23  1  0  0  0  0
 23 28  1  6  0  0  0
 24 25  1  0  0  0  0
 27 26  1  0  0  0  0
 29 28  1  0  0  0  0
M  END
>  <minimizedAffinity>
-5.40007496

$$$$

 OpenBabel03242522523D

 29 30  0  0  1  0  0  0  0  0999 V2000
   37.3950   30.2400   41.5910 O   0  0  0  0  0  0  0  0  0  0  0  0
   35.2440   29.0200   40.7330 O   0  0  0  0  0  0  0  0  0  0  0  0
   36.7120   28.7950   41.1630 P   0  0  1  0  0  0  0  0  0  0  0  0
   37.4730   28.1110   39.8300 O   0  0  0  0  0  0  0  0  0  0  0  0
   37.7950   27.1850   39.9800 H   0  0  0  0  0  0  0  0  0  0  0  0
   36.7250   27.7250   42.4650 O   0  0  0  0  0  0  0  0  0  0  0  0
   39.7530   26.1250   43.6780 C   0  0  0  0  0  0  0  0  0  0  0  0
   38.7170   27.0590   43.5030 C   0  0  0  0  0  0  0  0  0  0  0  0
   37.7180   26.7780   42.6020 C   0  0  0  0  0  0  0  0  0  0  0  0
   37.7870   25.6070   41.9270 N   0  0  0  0  0  0  0  0  0  0  0  0
   38.7700   24.7150   42.0900 C   0  0  0  0  0  0  0  0  0  0  0  0
   39.7650   24.9810   42.9780 N   0  0  0  0  0  0  0  0  0  0  0  0
   40.5820   26.2530   44.3620 H   0  0  0  0  0  0  0  0  0  0  0  0
   38.8530   27.9020   44.1300 H   0  0  0  0  0  0  0  0  0  0  0  0
   38.7950   23.7970   41.5400 H   0  0  0  0  0  0  0  0  0  0  0  0
   38.4300   30.9370   41.0670 C   0  0  0  0  0  0  0  0  0  0  0  0
   39.1940   31.4450   41.9590 O   0  0  0  0  0  0  0  0  0  0  0  0
   38.7530   31.6280   38.7110 C   0  0  2  0  0  3  0  0  0  0  0  0
   39.3520   31.5620   40.0990 C   0  0  2  0  0  3  0  0  0  0  0  0
   40.6000   30.9510   40.1030 O   0  0  0  0  0  0  0  0  0  0  0  0
   40.8000   30.0300   39.1030 C   0  0  0  0  0  2  0  0  0  0  0  0
   40.6260   30.5310   37.7050 C   0  0  2  0  0  3  0  0  0  0  0  0
   39.9420   31.8850   37.7930 C   0  0  1  0  0  3  0  0  0  0  0  0
   37.8450   32.7090   38.6290 O   0  0  0  0  0  0  0  0  0  0  0  0
   38.3220   33.4920   38.2470 H   0  0  0  0  0  0  0  0  0  0  0  0
   39.7120   29.7100   37.0070 O   0  0  0  0  0  0  0  0  0  0  0  0
   39.9350   28.7590   37.0860 H   0  0  0  0  0  0  0  0  0  0  0  0
   39.5580   32.3420   36.5430 O   0  0  0  0  0  0  0  0  0  0  0  0
   38.5940   32.4840   36.4940 H   0  0  0  0  0  0  0  0  0  0  0  0
  3  2  2  6  0  0  0
  3  1  1  0  0  0  0
  3  6  1  0  0  0  0
  4  5  1  0  0  0  0
  4  3  1  0  0  0  0
  6  9  1  0  0  0  0
  7 13  1  0  0  0  0
  8  7  1  0  0  0  0
  8 14  1  0  0  0  0
  9  8  2  0  0  0  0
 10 11  2  0  0  0  0
 10  9  1  0  0  0  0
 11 12  1  0  0  0  0
 12  7  2  0  0  0  0
 15 11  1  0  0  0  0
 16  1  1  0  0  0  0
 16 17  2  0  0  0  0
 18 24  1  1  0  0  0
 18 19  1  0  0  0  0
 19 20  1  0  0  0  0
 19 16  1  1  0  0  0
 21 20  1  0  0  0  0
 22 26  1  6  0  0  0
 22 23  1  0  0  0  0
 22 21  1  0  0  0  0
 23 28  1  6  0  0  0
 23 18  1  0  0  0  0
 25 24  1  0  0  0  0
 26 27  1  0  0  0  0
 29 28  1  0  0  0  0
M  END
>  <minimizedAffinity>
-5.36240721

$$$$

 OpenBabel03242522523D

 29 30  0  0  1  0  0  0  0  0999 V2000
   36.7290   29.9360   41.2250 O   0  0  0  0  0  0  0  0  0  0  0  0
   38.5870   28.3630   42.1870 O   0  0  0  0  0  0  0  0  0  0  0  0
   37.0830   28.4410   41.8390 P   0  0  1  0  0  0  0  0  0  0  0  0
   36.2690   28.1450   43.2790 O   0  0  0  0  0  0  0  0  0  0  0  0
   35.7320   27.3130   43.2760 H   0  0  0  0  0  0  0  0  0  0  0  0
   36.7360   27.2400   40.7080 O   0  0  0  0  0  0  0  0  0  0  0  0
   37.7150   23.8660   41.6340 C   0  0  0  0  0  0  0  0  0  0  0  0
   37.0380   25.0970   41.6070 C   0  0  0  0  0  0  0  0  0  0  0  0
   37.4300   26.0490   40.6950 C   0  0  0  0  0  0  0  0  0  0  0  0
   38.4540   25.7440   39.8660 N   0  0  0  0  0  0  0  0  0  0  0  0
   39.1020   24.5730   39.8880 C   0  0  0  0  0  0  0  0  0  0  0  0
   38.7250   23.6240   40.7850 N   0  0  0  0  0  0  0  0  0  0  0  0
   37.4830   23.0550   42.3120 H   0  0  0  0  0  0  0  0  0  0  0  0
   36.2690   25.1260   42.3350 H   0  0  0  0  0  0  0  0  0  0  0  0
   39.9100   24.3640   39.2160 H   0  0  0  0  0  0  0  0  0  0  0  0
   37.5110   30.8830   40.6540 C   0  0  0  0  0  0  0  0  0  0  0  0
   37.0110   32.0590   40.7340 O   0  0  0  0  0  0  0  0  0  0  0  0
   38.3950   31.5950   38.4540 C   0  0  2  0  0  3  0  0  0  0  0  0
   38.6270   31.5400   39.9480 C   0  0  2  0  0  3  0  0  0  0  0  0
   39.8520   30.9670   40.2680 O   0  0  0  0  0  0  0  0  0  0  0  0
   40.3240   30.0560   39.3530 C   0  0  0  0  0  2  0  0  0  0  0  0
   40.4930   30.5590   37.9550 C   0  0  2  0  0  3  0  0  0  0  0  0
   39.7680   31.8910   37.8640 C   0  0  1  0  0  3  0  0  0  0  0  0
   37.5050   32.6490   38.1430 O   0  0  0  0  0  0  0  0  0  0  0  0
   38.0390   33.4480   37.8910 H   0  0  0  0  0  0  0  0  0  0  0  0
   39.8100   29.7150   37.0520 O   0  0  0  0  0  0  0  0  0  0  0  0
   40.0330   28.7700   37.1870 H   0  0  0  0  0  0  0  0  0  0  0  0
   39.6980   32.3430   36.5560 O   0  0  0  0  0  0  0  0  0  0  0  0
   38.7740   32.4560   36.2660 H   0  0  0  0  0  0  0  0  0  0  0  0
  1  3  1  0  0  0  0
  3  2  2  1  0  0  0
  3  4  1  0  0  0  0
  5  4  1  0  0  0  0
  6  3  1  0  0  0  0
  7 13  1  0  0  0  0
  8  7  1  0  0  0  0
  8 14  1  0  0  0  0
  9  6  1  0  0  0  0
  9  8  2  0  0  0  0
 10 11  2  0  0  0  0
 10  9  1  0  0  0  0
 11 12  1  0  0  0  0
 12  7  2  0  0  0  0
 15 11  1  0  0  0  0
 16 17  2  0  0  0  0
 16  1  1  0  0  0  0
 18 24  1  1  0  0  0
 18 19  1  0  0  0  0
 19 20  1  0  0  0  0
 19 16  1  1  0  0  0
 21 20  1  0  0  0  0
 22 26  1  6  0  0  0
 22 21  1  0  0  0  0
 23 28  1  6  0  0  0
 23 22  1  0  0  0  0
 23 18  1  0  0  0  0
 25 24  1  0  0  0  0
 26 27  1  0  0  0  0
 29 28  1  0  0  0  0
M  END
>  <minimizedAffinity>
-5.35295391

$$$$

 OpenBabel03242522523D

 29 30  0  0  1  0  0  0  0  0999 V2000
   38.5120   28.3020   40.8260 O   0  0  0  0  0  0  0  0  0  0  0  0
   39.2860   28.9220   43.2480 O   0  0  0  0  0  0  0  0  0  0  0  0
   38.0720   28.4530   42.4140 P   0  0  1  0  0  0  0  0  0  0  0  0
   36.8920   29.6290   42.6300 O   0  0  0  0  0  0  0  0  0  0  0  0
   36.0810   29.3060   43.0990 H   0  0  0  0  0  0  0  0  0  0  0  0
   37.5490   26.9720   43.0260 O   0  0  0  0  0  0  0  0  0  0  0  0
   37.0210   23.9280   41.1150 C   0  0  0  0  0  0  0  0  0  0  0  0
   36.7790   25.1390   41.7850 C   0  0  0  0  0  0  0  0  0  0  0  0
   37.8360   25.7890   42.3790 C   0  0  0  0  0  0  0  0  0  0  0  0
   39.0600   25.2210   42.2840 N   0  0  0  0  0  0  0  0  0  0  0  0
   39.2950   24.0690   41.6470 C   0  0  0  0  0  0  0  0  0  0  0  0
   38.2600   23.4160   41.0560 N   0  0  0  0  0  0  0  0  0  0  0  0
   36.2590   23.3430   40.6160 H   0  0  0  0  0  0  0  0  0  0  0  0
   35.7560   25.4050   41.7370 H   0  0  0  0  0  0  0  0  0  0  0  0
   40.2770   23.6460   41.5900 H   0  0  0  0  0  0  0  0  0  0  0  0
   37.9500   28.7740   39.6880 C   0  0  0  0  0  0  0  0  0  0  0  0
   37.5950   27.8430   38.8840 O   0  0  0  0  0  0  0  0  0  0  0  0
   38.5350   30.4830   37.9950 C   0  0  2  0  0  3  0  0  0  0  0  0
   37.4290   29.6930   38.6590 C   0  0  2  0  0  3  0  0  0  0  0  0
   36.4250   30.5140   39.1580 O   0  0  0  0  0  0  0  0  0  0  0  0
   36.8320   31.7760   39.5200 C   0  0  0  0  0  2  0  0  0  0  0  0
   37.4880   32.5860   38.4490 C   0  0  2  0  0  3  0  0  0  0  0  0
   37.8210   31.6400   37.3080 C   0  0  1  0  0  3  0  0  0  0  0  0
   39.1870   29.6830   37.0290 O   0  0  0  0  0  0  0  0  0  0  0  0
   38.7860   29.8730   36.1410 H   0  0  0  0  0  0  0  0  0  0  0  0
   38.7400   33.0610   38.9000 O   0  0  0  0  0  0  0  0  0  0  0  0
   38.6770   33.4980   39.7750 H   0  0  0  0  0  0  0  0  0  0  0  0
   38.6090   32.2570   36.3490 O   0  0  0  0  0  0  0  0  0  0  0  0
   39.4620   31.7960   36.2380 H   0  0  0  0  0  0  0  0  0  0  0  0
  1  3  1  0  0  0  0
  3  4  1  0  0  0  0
  3  6  1  0  0  0  0
  3  2  2  1  0  0  0
  4  5  1  0  0  0  0
  7  8  1  0  0  0  0
  8  9  2  0  0  0  0
  9  6  1  0  0  0  0
 10  9  1  0  0  0  0
 11 10  2  0  0  0  0
 12  7  2  0  0  0  0
 12 11  1  0  0  0  0
 13  7  1  0  0  0  0
 14  8  1  0  0  0  0
 15 11  1  0  0  0  0
 16  1  1  0  0  0  0
 17 16  2  0  0  0  0
 18 24  1  6  0  0  0
 18 19  1  0  0  0  0
 19 20  1  0  0  0  0
 19 16  1  1  0  0  0
 20 21  1  0  0  0  0
 22 26  1  1  0  0  0
 22 21  1  0  0  0  0
 23 28  1  6  0  0  0
 23 18  1  0  0  0  0
 23 22  1  0  0  0  0
 25 24  1  0  0  0  0
 26 27  1  0  0  0  0
 29 28  1  0  0  0  0
M  END
>  <minimizedAffinity>
-5.31207275

$$$$

 OpenBabel03242522523D

 29 30  0  0  1  0  0  0  0  0999 V2000
   36.9170   26.9070   42.0680 O   0  0  0  0  0  0  0  0  0  0  0  0
   36.7660   24.4440   41.1960 O   0  0  0  0  0  0  0  0  0  0  0  0
   37.7560   25.5650   41.5870 P   0  0  1  0  0  0  0  0  0  0  0  0
   38.6740   25.8580   40.2100 O   0  0  0  0  0  0  0  0  0  0  0  0
   39.6350   25.6390   40.3110 H   0  0  0  0  0  0  0  0  0  0  0  0
   38.7330   24.9980   42.8380 O   0  0  0  0  0  0  0  0  0  0  0  0
   41.3300   27.3960   43.6800 C   0  0  0  0  0  0  0  0  0  0  0  0
   40.0660   26.8250   43.4520 C   0  0  0  0  0  0  0  0  0  0  0  0
   39.9950   25.5120   43.0490 C   0  0  0  0  0  0  0  0  0  0  0  0
   41.1560   24.8360   42.8930 N   0  0  0  0  0  0  0  0  0  0  0  0
   42.3610   25.3750   43.1080 C   0  0  0  0  0  0  0  0  0  0  0  0
   42.4460   26.6710   43.5060 N   0  0  0  0  0  0  0  0  0  0  0  0
   41.4910   28.4170   43.9990 H   0  0  0  0  0  0  0  0  0  0  0  0
   39.2930   27.5240   43.6370 H   0  0  0  0  0  0  0  0  0  0  0  0
   43.2620   24.8110   42.9750 H   0  0  0  0  0  0  0  0  0  0  0  0
   37.1030   28.2240   41.8150 C   0  0  0  0  0  0  0  0  0  0  0  0
   36.9350   28.5250   40.5820 O   0  0  0  0  0  0  0  0  0  0  0  0
   36.7980   30.5000   40.8880 C   0  0  2  0  0  3  0  0  0  0  0  0
   37.3890   29.6590   41.9990 C   0  0  2  0  0  3  0  0  0  0  0  0
   38.7470   29.8990   42.1720 O   0  0  0  0  0  0  0  0  0  0  0  0
   39.4140   30.3120   41.0430 C   0  0  0  0  0  2  0  0  0  0  0  0
   38.8900   31.5490   40.3880 C   0  0  2  0  0  3  0  0  0  0  0  0
   37.5250   31.8350   40.9900 C   0  0  1  0  0  3  0  0  0  0  0  0
   35.4150   30.6900   41.1110 O   0  0  0  0  0  0  0  0  0  0  0  0
   35.2880   31.5620   41.5710 H   0  0  0  0  0  0  0  0  0  0  0  0
   38.6350   31.3010   39.0210 O   0  0  0  0  0  0  0  0  0  0  0  0
   39.3990   30.8810   38.5720 H   0  0  0  0  0  0  0  0  0  0  0  0
   36.8710   32.8490   40.3080 O   0  0  0  0  0  0  0  0  0  0  0  0
   36.0220   32.5410   39.9380 H   0  0  0  0  0  0  0  0  0  0  0  0
  3  2  2  6  0  0  0
  3  1  1  0  0  0  0
  3  6  1  0  0  0  0
  4  5  1  0  0  0  0
  4  3  1  0  0  0  0
  6  9  1  0  0  0  0
  7 13  1  0  0  0  0
  8 14  1  0  0  0  0
  8  7  2  0  0  0  0
  9  8  1  0  0  0  0
 10  9  2  0  0  0  0
 10 11  1  0  0  0  0
 11 12  2  0  0  0  0
 12  7  1  0  0  0  0
 15 11  1  0  0  0  0
 16  1  1  0  0  0  0
 17 16  2  0  0  0  0
 18 23  1  0  0  0  0
 18 24  1  1  0  0  0
 18 19  1  0  0  0  0
 19 16  1  6  0  0  0
 19 20  1  0  0  0  0
 21 20  1  0  0  0  0
 22 26  1  6  0  0  0
 22 23  1  0  0  0  0
 22 21  1  0  0  0  0
 23 28  1  6  0  0  0
 24 25  1  0  0  0  0
 27 26  1  0  0  0  0
 29 28  1  0  0  0  0
M  END
>  <minimizedAffinity>
-5.29553127

$$$$

 OpenBabel03242522523D

 29 30  0  0  1  0  0  0  0  0999 V2000
   37.6490   25.3510   42.2030 O   0  0  0  0  0  0  0  0  0  0  0  0
   39.7610   24.1520   43.1780 O   0  0  0  0  0  0  0  0  0  0  0  0
   38.9550   24.3880   41.8810 P   0  0  1  0  0  0  0  0  0  0  0  0
   38.4930   22.8610   41.3510 O   0  0  0  0  0  0  0  0  0  0  0  0
   38.8910   22.5980   40.4820 H   0  0  0  0  0  0  0  0  0  0  0  0
   39.9690   25.1230   40.7520 O   0  0  0  0  0  0  0  0  0  0  0  0
   42.1770   27.7440   41.9550 C   0  0  0  0  0  0  0  0  0  0  0  0
   41.0180   27.0580   41.5520 C   0  0  0  0  0  0  0  0  0  0  0  0
   41.1320   25.7520   41.1390 C   0  0  0  0  0  0  0  0  0  0  0  0
   42.3640   25.1930   41.1440 N   0  0  0  0  0  0  0  0  0  0  0  0
   43.4700   25.8420   41.5270 C   0  0  0  0  0  0  0  0  0  0  0  0
   43.3720   27.1340   41.9370 N   0  0  0  0  0  0  0  0  0  0  0  0
   42.1920   28.7710   42.2960 H   0  0  0  0  0  0  0  0  0  0  0  0
   40.1630   27.6780   41.6280 H   0  0  0  0  0  0  0  0  0  0  0  0
   44.4310   25.3690   41.5190 H   0  0  0  0  0  0  0  0  0  0  0  0
   37.3730   26.6340   41.8700 C   0  0  0  0  0  0  0  0  0  0  0  0
   36.4270   27.1390   42.5700 O   0  0  0  0  0  0  0  0  0  0  0  0
   36.4300   28.9230   41.8120 C   0  0  2  0  0  3  0  0  0  0  0  0
   37.4150   27.9490   41.2030 C   0  0  2  0  0  3  0  0  0  0  0  0
   37.2600   27.8380   39.8270 O   0  0  0  0  0  0  0  0  0  0  0  0
   35.9890   28.0810   39.3630 C   0  0  0  0  0  2  0  0  0  0  0  0
   35.4120   29.4180   39.7040 C   0  0  2  0  0  3  0  0  0  0  0  0
   36.2970   30.0320   40.7750 C   0  0  1  0  0  3  0  0  0  0  0  0
   36.9550   29.4530   43.0130 O   0  0  0  0  0  0  0  0  0  0  0  0
   37.3890   30.3230   42.8090 H   0  0  0  0  0  0  0  0  0  0  0  0
   34.1530   29.2560   40.3260 O   0  0  0  0  0  0  0  0  0  0  0  0
   33.5620   28.6630   39.8170 H   0  0  0  0  0  0  0  0  0  0  0  0
   35.7350   31.1840   41.3000 O   0  0  0  0  0  0  0  0  0  0  0  0
   35.5850   31.1040   42.2600 H   0  0  0  0  0  0  0  0  0  0  0  0
  3  1  1  0  0  0  0
  3  2  2  1  0  0  0
  4  3  1  0  0  0  0
  5  4  1  0  0  0  0
  6  9  1  0  0  0  0
  6  3  1  0  0  0  0
  7 13  1  0  0  0  0
  8 14  1  0  0  0  0
  8  7  2  0  0  0  0
  9 10  2  0  0  0  0
  9  8  1  0  0  0  0
 10 11  1  0  0  0  0
 11 12  2  0  0  0  0
 12  7  1  0  0  0  0
 15 11  1  0  0  0  0
 16  1  1  0  0  0  0
 16 17  2  0  0  0  0
 18 24  1  1  0  0  0
 19 18  1  0  0  0  0
 19 16  1  1  0  0  0
 20 19  1  0  0  0  0
 21 22  1  0  0  0  0
 21 20  1  0  0  0  0
 22 26  1  1  0  0  0
 22 23  1  0  0  0  0
 23 28  1  1  0  0  0
 23 18  1  0  0  0  0
 25 24  1  0  0  0  0
 27 26  1  0  0  0  0
 28 29  1  0  0  0  0
M  END
>  <minimizedAffinity>
-5.27569914

$$$$

 OpenBabel03242522523D

 29 30  0  0  1  0  0  0  0  0999 V2000
   38.5110   28.0950   41.1850 O   0  0  0  0  0  0  0  0  0  0  0  0
   38.4970   25.4790   41.2880 O   0  0  0  0  0  0  0  0  0  0  0  0
   37.5880   26.7290   41.3200 P   0  0  1  0  0  0  0  0  0  0  0  0
   36.7780   26.6610   42.7910 O   0  0  0  0  0  0  0  0  0  0  0  0
   35.7970   26.5450   42.7070 H   0  0  0  0  0  0  0  0  0  0  0  0
   36.4960   26.6240   40.0400 O   0  0  0  0  0  0  0  0  0  0  0  0
   35.3330   29.4180   38.0310 C   0  0  0  0  0  0  0  0  0  0  0  0
   35.4020   28.4340   39.0320 C   0  0  0  0  0  0  0  0  0  0  0  0
   36.4730   27.5720   39.0390 C   0  0  0  0  0  0  0  0  0  0  0  0
   37.4090   27.7200   38.0740 N   0  0  0  0  0  0  0  0  0  0  0  0
   37.3480   28.6540   37.1190 C   0  0  0  0  0  0  0  0  0  0  0  0
   36.2950   29.5130   37.1000 N   0  0  0  0  0  0  0  0  0  0  0  0
   34.5340   30.1420   37.9400 H   0  0  0  0  0  0  0  0  0  0  0  0
   34.5720   28.4960   39.6860 H   0  0  0  0  0  0  0  0  0  0  0  0
   38.1070   28.7440   36.3690 H   0  0  0  0  0  0  0  0  0  0  0  0
   38.2630   29.3850   41.5090 C   0  0  0  0  0  0  0  0  0  0  0  0
   37.4660   29.5070   42.5040 O   0  0  0  0  0  0  0  0  0  0  0  0
   37.2980   31.4310   40.5020 C   0  0  2  0  0  3  0  0  0  0  0  0
   38.2800   30.8610   41.5010 C   0  0  2  0  0  3  0  0  0  0  0  0
   39.5620   31.3630   41.3220 O   0  0  0  0  0  0  0  0  0  0  0  0
   39.8640   31.7430   40.0350 C   0  0  0  0  0  2  0  0  0  0  0  0
   38.9640   32.7710   39.4290 C   0  0  2  0  0  3  0  0  0  0  0  0
   37.7370   32.8780   40.3160 C   0  0  1  0  0  3  0  0  0  0  0  0
   35.9890   31.3930   41.0350 O   0  0  0  0  0  0  0  0  0  0  0  0
   35.7890   32.2780   41.4400 H   0  0  0  0  0  0  0  0  0  0  0  0
   38.4710   32.3090   38.1870 O   0  0  0  0  0  0  0  0  0  0  0  0
   39.1870   31.9820   37.6030 H   0  0  0  0  0  0  0  0  0  0  0  0
   36.7530   33.6610   39.7330 O   0  0  0  0  0  0  0  0  0  0  0  0
   35.9270   33.1590   39.6050 H   0  0  0  0  0  0  0  0  0  0  0  0
  1  3  1  0  0  0  0
  1 16  1  0  0  0  0
  3  2  2  6  0  0  0
  3  4  1  0  0  0  0
  5  4  1  0  0  0  0
  6  3  1  0  0  0  0
  7  8  1  0  0  0  0
  8  9  2  0  0  0  0
  8 14  1  0  0  0  0
  9  6  1  0  0  0  0
 10  9  1  0  0  0  0
 11 10  2  0  0  0  0
 12 11  1  0  0  0  0
 12  7  2  0  0  0  0
 13  7  1  0  0  0  0
 15 11  1  0  0  0  0
 16 17  2  0  0  0  0
 18 24  1  1  0  0  0
 18 19  1  0  0  0  0
 19 16  1  6  0  0  0
 20 19  1  0  0  0  0
 21 20  1  0  0  0  0
 22 26  1  6  0  0  0
 22 21  1  0  0  0  0
 22 23  1  0  0  0  0
 23 28  1  6  0  0  0
 23 18  1  0  0  0  0
 24 25  1  0  0  0  0
 27 26  1  0  0  0  0
 29 28  1  0  0  0  0
M  END
>  <minimizedAffinity>
-5.18484926

$$$$
