
 OpenBabel03252508463D

 48 50  0  0  1  0  0  0  0  0999 V2000
   42.7150   31.3970   42.6150 N   0  0  0  0  0  0  0  0  0  0  0  0
   42.9470   31.7600   43.5800 H   0  0  0  0  0  0  0  0  0  0  0  0
   42.9840   32.4360   41.6750 C   0  0  0  0  0  0  0  0  0  0  0  0
   43.4140   32.0620   40.7150 H   0  0  0  0  0  0  0  0  0  0  0  0
   41.9920   32.8990   41.4190 H   0  0  0  0  0  0  0  0  0  0  0  0
   43.5940   34.8500   41.8650 C   0  0  0  0  0  0  0  0  0  0  0  0
   43.8500   33.5330   42.1870 C   0  0  0  0  0  0  0  0  0  0  0  0
   44.9350   33.2560   43.0000 C   0  0  0  0  0  0  0  0  0  0  0  0
   45.7280   34.2670   43.4670 C   0  0  0  0  0  0  0  0  0  0  0  0
   45.4820   35.5830   43.1520 C   0  0  0  0  0  0  0  0  0  0  0  0
   44.3920   35.8160   42.3410 C   0  0  0  0  0  0  0  0  0  0  0  0
   45.1380   32.2140   43.2550 H   0  0  0  0  0  0  0  0  0  0  0  0
   46.5560   33.9630   44.0960 H   0  0  0  0  0  0  0  0  0  0  0  0
   46.1230   36.3770   43.5320 H   0  0  0  0  0  0  0  0  0  0  0  0
   44.1410   36.8370   42.0530 H   0  0  0  0  0  0  0  0  0  0  0  0
   40.1410   35.6340   40.5420 C   0  0  0  0  0  0  0  0  0  0  0  0
   41.1850   35.4320   41.4630 C   0  0  0  0  0  0  0  0  0  0  0  0
   42.4370   35.0840   41.0050 C   0  0  0  0  0  0  0  0  0  0  0  0
   42.5910   34.9510   39.6560 N   0  0  0  0  0  0  0  0  0  0  0  0
   41.5770   35.1490   38.7780 C   0  0  0  0  0  0  0  0  0  0  0  0
   40.3630   35.4880   39.2350 N   0  0  0  0  0  0  0  0  0  0  0  0
   39.1610   35.9100   40.9570 H   0  0  0  0  0  0  0  0  0  0  0  0
   41.0790   35.5330   42.5260 H   0  0  0  0  0  0  0  0  0  0  0  0
   41.7560   35.0290   37.7090 H   0  0  0  0  0  0  0  0  0  0  0  0
   41.0480   30.9900   42.6940 S   0  0  0  0  0  0  0  0  0  0  0  0
   40.1890   32.2000   42.4630 O   0  0  0  0  0  0  0  0  0  0  0  0
   39.6080   32.5470   43.1620 H   0  0  0  0  0  0  0  0  0  0  0  0
   40.7130   30.3400   43.9980 O   0  0  0  0  0  0  0  0  0  0  0  0
   40.8250   30.8230   44.8410 H   0  0  0  0  0  0  0  0  0  0  0  0
   40.7690   29.8840   41.4610 O   0  0  0  0  0  0  0  0  0  0  0  0
   39.3920   29.7170   41.3230 C   0  0  0  0  0  0  0  0  0  0  0  0
   39.2100   29.6470   40.2310 H   0  0  0  0  0  0  0  0  0  0  0  0
   38.7980   30.5380   41.7430 H   0  0  0  0  0  0  0  0  0  0  0  0
   39.0120   28.3700   41.9220 C   0  0  0  0  0  0  0  0  0  0  0  0
   39.8070   27.6470   41.6890 H   0  0  0  0  0  0  0  0  0  0  0  0
   38.8640   28.4690   43.0260 H   0  0  0  0  0  0  0  0  0  0  0  0
   37.7540   26.7380   40.5140 C   0  0  2  0  0  3  0  0  0  0  0  0
   37.6770   27.9780   41.3310 C   0  0  2  0  0  3  0  0  0  0  0  0
   37.2180   29.0910   40.6340 O   0  0  0  0  0  0  0  0  0  0  0  0
   36.1510   28.8400   39.8090 C   0  0  0  0  0  2  0  0  0  0  0  0
   36.5190   27.9170   38.6740 C   0  0  1  0  0  3  0  0  0  0  0  0
   37.5900   26.9440   39.0290 C   0  0  2  0  0  3  0  0  0  0  0  0
   36.7900   25.7900   40.9400 O   0  0  0  0  0  0  0  0  0  0  0  0
   36.4490   26.0120   41.8290 H   0  0  0  0  0  0  0  0  0  0  0  0
   35.4070   27.2340   38.1800 O   0  0  0  0  0  0  0  0  0  0  0  0
   35.7520   26.5200   37.5850 H   0  0  0  0  0  0  0  0  0  0  0  0
   37.2540   25.6690   38.5170 O   0  0  0  0  0  0  0  0  0  0  0  0
   37.9800   25.0700   38.8860 H   0  0  0  0  0  0  0  0  0  0  0  0
  1 25  1  0  0  0  0
  1  2  1  0  0  0  0
  3  7  1  0  0  0  0
  3  1  1  0  0  0  0
  4  3  1  0  0  0  0
  5  3  1  0  0  0  0
  6  7  2  0  0  0  0
  6 11  1  0  0  0  0
  7  8  1  0  0  0  0
  8 12  1  0  0  0  0
  8  9  2  0  0  0  0
  9 13  1  0  0  0  0
 10  9  1  0  0  0  0
 10 14  1  0  0  0  0
 11 10  2  0  0  0  0
 15 11  1  0  0  0  0
 16 22  1  0  0  0  0
 16 17  1  0  0  0  0
 17 23  1  0  0  0  0
 18 17  2  0  0  0  0
 18  6  1  0  0  0  0
 19 18  1  0  0  0  0
 20 21  1  0  0  0  0
 20 19  2  0  0  0  0
 21 16  2  0  0  0  0
 24 20  1  0  0  0  0
 25 28  1  0  0  0  0
 26 25  1  0  0  0  0
 26 27  1  0  0  0  0
 28 29  1  0  0  0  0
 30 25  1  0  0  0  0
 31 30  1  0  0  0  0
 31 33  1  0  0  0  0
 31 34  1  0  0  0  0
 32 31  1  0  0  0  0
 34 36  1  0  0  0  0
 35 34  1  0  0  0  0
 37 43  1  1  0  0  0
 37 38  1  0  0  0  0
 38 34  1  6  0  0  0
 39 38  1  0  0  0  0
 40 39  1  0  0  0  0
 41 45  1  1  0  0  0
 41 42  1  0  0  0  0
 41 40  1  0  0  0  0
 42 47  1  6  0  0  0
 42 37  1  0  0  0  0
 43 44  1  0  0  0  0
 46 45  1  0  0  0  0
 47 48  1  0  0  0  0
M  END
>  <minimizedAffinity>
-5.37572718

>  <minimizedRMSD>
1.95236063

$$$$
