
 OpenBabel03242518283D

 24 25  0  0  1  0  0  0  0  0999 V2000
   46.5150   34.9110   41.9580 O   0  0  0  0  0  0  0  0  0  0  0  0
   45.1740   35.0730   43.8870 C   0  0  1  0  0  0  0  0  0  0  0  0
   46.4890   34.5410   43.3300 C   0  0  1  0  0  0  0  0  0  0  0  0
   46.3740   33.1610   43.3860 O   0  0  0  0  0  0  0  0  0  0  0  0
   46.3260   32.6550   44.6620 C   0  0  0  0  0  0  0  0  0  0  0  0
   45.7300   33.4890   45.7090 C   0  0  2  0  0  0  0  0  0  0  0  0
   45.2770   34.8580   45.3700 C   0  0  2  0  0  0  0  0  0  0  0  0
   44.9550   36.4030   43.5650 O   0  0  0  0  0  0  0  0  0  0  0  0
   45.1380   36.5960   42.6300 H   0  0  0  0  0  0  0  0  0  0  0  0
   46.6270   33.6000   46.7890 O   0  0  0  0  0  0  0  0  0  0  0  0
   46.2270   34.2410   47.4370 H   0  0  0  0  0  0  0  0  0  0  0  0
   44.0080   35.1760   45.8980 O   0  0  0  0  0  0  0  0  0  0  0  0
   43.4340   34.3850   45.6920 H   0  0  0  0  0  0  0  0  0  0  0  0
   47.6980   34.7600   41.2170 C   0  0  0  0  0  0  0  0  0  0  0  0
   48.7630   35.0560   41.7960 O   0  0  0  0  0  0  0  0  0  0  0  0
   47.5220   34.2820   39.8870 C   0  0  0  0  0  0  0  0  0  0  0  0
   46.4010   33.4530   39.7380 C   0  0  0  0  0  0  0  0  0  0  0  0
   46.1570   32.9410   38.4590 C   0  0  0  0  0  0  0  0  0  0  0  0
   47.0030   33.2680   37.4460 N   0  0  0  0  0  0  0  0  0  0  0  0
   48.0800   34.0800   37.6460 C   0  0  0  0  0  0  0  0  0  0  0  0
   48.3150   34.5690   38.8680 N   0  0  0  0  0  0  0  0  0  0  0  0
   45.7110   33.1750   40.5200 H   0  0  0  0  0  0  0  0  0  0  0  0
   45.3070   32.2910   38.2640 H   0  0  0  0  0  0  0  0  0  0  0  0
   48.7050   34.2890   36.7790 H   0  0  0  0  0  0  0  0  0  0  0  0
  2  8  1  1  0  0  0
  2  7  1  0  0  0  0
  3  1  1  6  0  0  0
  3  4  1  0  0  0  0
  3  2  1  0  0  0  0
  4  5  1  0  0  0  0
  5  6  1  0  0  0  0
  6 10  1  1  0  0  0
  7  6  1  0  0  0  0
  7 12  1  1  0  0  0
  9  8  1  0  0  0  0
 10 11  1  0  0  0  0
 13 12  1  0  0  0  0
 14 15  2  0  0  0  0
 14  1  1  0  0  0  0
 16 14  1  0  0  0  0
 17 16  1  0  0  0  0
 17 22  1  0  0  0  0
 18 17  2  0  0  0  0
 19 20  2  0  0  0  0
 19 18  1  0  0  0  0
 20 21  1  0  0  0  0
 21 16  2  0  0  0  0
 23 18  1  0  0  0  0
 24 20  1  0  0  0  0
M  END
>  <minimizedAffinity>
-5.26195049

>  <minimizedRMSD>
6.56336355

$$$$
