
 OpenBabel03242523303D

 25 26  0  0  1  0  0  0  0  0999 V2000
   47.0640   32.0310   45.1020 S   0  0  0  0  0  0  0  0  0  0  0  0
   47.1180   30.5100   47.4220 C   0  0  1  0  0  3  0  0  0  0  0  0
   47.2960   30.4700   45.9360 C   0  0  2  0  0  3  0  0  0  0  0  0
   48.4710   29.8500   45.5410 O   0  0  0  0  0  0  0  0  0  0  0  0
   48.5000   28.4960   45.8510 C   0  0  0  0  0  2  0  0  0  0  0  0
   47.5140   28.0730   46.8880 C   0  0  1  0  0  3  0  0  0  0  0  0
   47.4100   29.1260   47.9670 C   0  0  1  0  0  3  0  0  0  0  0  0
   47.9830   31.4070   48.0540 O   0  0  0  0  0  0  0  0  0  0  0  0
   48.9040   31.1960   47.8020 H   0  0  0  0  0  0  0  0  0  0  0  0
   46.2920   27.6480   46.3910 O   0  0  0  0  0  0  0  0  0  0  0  0
   45.9450   26.8370   46.8340 H   0  0  0  0  0  0  0  0  0  0  0  0
   48.6380   29.1120   48.6320 O   0  0  0  0  0  0  0  0  0  0  0  0
   48.5290   29.2070   49.6230 H   0  0  0  0  0  0  0  0  0  0  0  0
   45.8880   33.1430   45.9000 C   0  0  0  0  0  0  0  0  0  0  0  0
   46.3660   33.6390   46.7970 H   0  0  0  0  0  0  0  0  0  0  0  0
   44.9930   32.5940   46.2630 H   0  0  0  0  0  0  0  0  0  0  0  0
   44.4950   36.2330   44.3970 C   0  0  0  0  0  0  0  0  0  0  0  0
   45.1270   36.2220   43.1660 C   0  0  0  0  0  0  0  0  0  0  0  0
   46.0150   35.1740   42.8510 C   0  0  0  0  0  0  0  0  0  0  0  0
   46.2350   34.1820   43.7790 N   0  0  0  0  0  0  0  0  0  0  0  0
   45.5910   34.2410   44.9690 C   0  0  0  0  0  0  0  0  0  0  0  0
   44.7420   35.2470   45.2630 N   0  0  0  0  0  0  0  0  0  0  0  0
   43.8400   37.0730   44.5310 H   0  0  0  0  0  0  0  0  0  0  0  0
   45.0650   36.9180   42.3290 H   0  0  0  0  0  0  0  0  0  0  0  0
   46.5580   35.0780   41.9180 H   0  0  0  0  0  0  0  0  0  0  0  0
  1 14  1  0  0  0  0
  2  7  1  0  0  0  0
  2  8  1  1  0  0  0
  3  1  1  1  0  0  0
  3  2  1  0  0  0  0
  4  5  1  0  0  0  0
  4  3  1  0  0  0  0
  5  6  1  0  0  0  0
  6 10  1  6  0  0  0
  6  7  1  0  0  0  0
  7 12  1  6  0  0  0
  9  8  1  0  0  0  0
 10 11  1  0  0  0  0
 12 13  1  0  0  0  0
 14 16  1  0  0  0  0
 14 15  1  0  0  0  0
 17 23  1  0  0  0  0
 17 22  1  0  0  0  0
 18 17  2  0  0  0  0
 19 18  1  0  0  0  0
 19 20  2  0  0  0  0
 20 21  1  0  0  0  0
 21 22  2  0  0  0  0
 21 14  1  0  0  0  0
 24 18  1  0  0  0  0
 25 19  1  0  0  0  0
M  END
>  <minimizedAffinity>
-3.91771388

>  <minimizedRMSD>
0.975023746

$$$$
