
 OpenBabel03242522513D

 29 30  0  0  1  0  0  0  0  0999 V2000
   48.1340   32.0660   48.7930 O   0  0  0  0  0  0  0  0  0  0  0  0
   46.7990   29.8620   48.3350 O   0  0  0  0  0  0  0  0  0  0  0  0
   46.6420   31.3720   48.6260 P   0  0  1  0  0  0  0  0  0  0  0  0
   45.7420   31.4680   50.0420 O   0  0  0  0  0  0  0  0  0  0  0  0
   44.8530   31.8910   49.9280 H   0  0  0  0  0  0  0  0  0  0  0  0
   45.8020   32.0750   47.3440 O   0  0  0  0  0  0  0  0  0  0  0  0
   47.6370   31.3170   44.3010 C   0  0  0  0  0  0  0  0  0  0  0  0
   47.0120   31.1730   45.5520 C   0  0  0  0  0  0  0  0  0  0  0  0
   46.3990   32.2670   46.1170 C   0  0  0  0  0  0  0  0  0  0  0  0
   46.4320   33.4320   45.4310 N   0  0  0  0  0  0  0  0  0  0  0  0
   47.0250   33.5750   44.2410 C   0  0  0  0  0  0  0  0  0  0  0  0
   47.6340   32.5020   43.6710 N   0  0  0  0  0  0  0  0  0  0  0  0
   48.1440   30.5190   43.7750 H   0  0  0  0  0  0  0  0  0  0  0  0
   47.1000   30.1800   45.9100 H   0  0  0  0  0  0  0  0  0  0  0  0
   47.0320   34.5130   43.7240 H   0  0  0  0  0  0  0  0  0  0  0  0
   49.3250   31.5570   49.1880 C   0  0  0  0  0  0  0  0  0  0  0  0
   50.1650   32.4600   49.5310 O   0  0  0  0  0  0  0  0  0  0  0  0
   49.8570   29.3210   50.1070 C   0  0  2  0  0  3  0  0  0  0  0  0
   50.4010   30.6040   49.5200 C   0  0  2  0  0  3  0  0  0  0  0  0
   51.3740   31.1790   50.3270 O   0  0  0  0  0  0  0  0  0  0  0  0
   51.2530   30.9050   51.6680 C   0  0  0  0  0  2  0  0  0  0  0  0
   51.2540   29.4570   52.0430 C   0  0  2  0  0  3  0  0  0  0  0  0
   51.0600   28.6590   50.7660 C   0  0  1  0  0  3  0  0  0  0  0  0
   49.3610   28.4890   49.0750 O   0  0  0  0  0  0  0  0  0  0  0  0
   50.0710   27.8420   48.8250 H   0  0  0  0  0  0  0  0  0  0  0  0
   50.1170   29.1620   52.8290 O   0  0  0  0  0  0  0  0  0  0  0  0
   50.0090   29.7860   53.5760 H   0  0  0  0  0  0  0  0  0  0  0  0
   50.8490   27.3160   51.0330 O   0  0  0  0  0  0  0  0  0  0  0  0
   49.9870   27.0150   50.6890 H   0  0  0  0  0  0  0  0  0  0  0  0
  1 16  1  0  0  0  0
  3  2  2  6  0  0  0
  3  1  1  0  0  0  0
  3  4  1  0  0  0  0
  5  4  1  0  0  0  0
  6  3  1  0  0  0  0
  7  8  1  0  0  0  0
  8 14  1  0  0  0  0
  8  9  2  0  0  0  0
  9  6  1  0  0  0  0
 10  9  1  0  0  0  0
 11 10  2  0  0  0  0
 12 11  1  0  0  0  0
 12  7  2  0  0  0  0
 13  7  1  0  0  0  0
 15 11  1  0  0  0  0
 16 17  2  0  0  0  0
 18 24  1  6  0  0  0
 18 23  1  0  0  0  0
 19 16  1  1  0  0  0
 19 18  1  0  0  0  0
 19 20  1  0  0  0  0
 20 21  1  0  0  0  0
 21 22  1  0  0  0  0
 22 26  1  1  0  0  0
 23 28  1  1  0  0  0
 23 22  1  0  0  0  0
 25 24  1  0  0  0  0
 26 27  1  0  0  0  0
 29 28  1  0  0  0  0
M  END
>  <minimizedAffinity>
-5.08049011

>  <minimizedRMSD>
1.78665817

$$$$
