
 OpenBabel03242510483D

 25 26  0  0  1  0  0  0  0  0999 V2000
   37.3100   29.7880   40.2510 O   0  0  0  0  0  0  0  0  0  0  0  0
   37.2210   26.6270   41.9500 C   0  0  0  0  0  0  0  0  0  0  0  0
   37.2680   26.9870   43.3090 C   0  0  0  0  0  0  0  0  0  0  0  0
   37.3310   28.3450   43.6190 C   0  0  0  0  0  0  0  0  0  0  0  0
   37.3430   29.2410   42.5940 N   0  0  0  0  0  0  0  0  0  0  0  0
   37.2980   28.8770   41.3060 C   0  0  0  0  0  0  0  0  0  0  0  0
   37.2370   27.5690   40.9840 N   0  0  0  0  0  0  0  0  0  0  0  0
   37.2550   26.2280   44.0840 H   0  0  0  0  0  0  0  0  0  0  0  0
   37.3690   28.6760   44.6540 H   0  0  0  0  0  0  0  0  0  0  0  0
   37.1540   25.1670   41.6270 C   0  0  0  0  0  0  0  0  0  0  0  0
   38.4060   24.6140   41.5410 F   0  0  0  0  0  0  0  0  0  0  0  0
   36.3880   24.5470   42.5890 F   0  0  0  0  0  0  0  0  0  0  0  0
   36.4520   25.0030   40.4130 F   0  0  0  0  0  0  0  0  0  0  0  0
   37.8730   32.1660   40.2070 C   0  0  1  0  0  3  0  0  0  0  0  0
   38.3490   30.7510   40.2390 C   0  0  2  0  0  3  0  0  0  0  0  0
   39.2070   30.4690   39.1560 O   0  0  0  0  0  0  0  0  0  0  0  0
   38.3570   30.4700   38.0270 C   0  0  0  0  0  2  0  0  0  0  0  0
   37.9340   31.8860   37.6990 C   0  0  1  0  0  3  0  0  0  0  0  0
   38.1220   32.8170   38.8620 C   0  0  1  0  0  3  0  0  0  0  0  0
   36.5380   32.2790   40.5990 O   0  0  0  0  0  0  0  0  0  0  0  0
   36.5170   32.3310   41.5870 H   0  0  0  0  0  0  0  0  0  0  0  0
   38.7820   32.3110   36.6650 O   0  0  0  0  0  0  0  0  0  0  0  0
   39.4110   33.0210   36.9500 H   0  0  0  0  0  0  0  0  0  0  0  0
   37.1820   33.8590   38.7310 O   0  0  0  0  0  0  0  0  0  0  0  0
   36.2940   33.4050   38.6040 H   0  0  0  0  0  0  0  0  0  0  0  0
  1  6  1  0  0  0  0
  2  3  1  0  0  0  0
  3  4  2  0  0  0  0
  3  8  1  0  0  0  0
  4  9  1  0  0  0  0
  5  4  1  0  0  0  0
  6  5  2  0  0  0  0
  7  6  1  0  0  0  0
  7  2  2  0  0  0  0
 10  2  1  0  0  0  0
 10 12  1  0  0  0  0
 11 10  1  0  0  0  0
 13 10  1  0  0  0  0
 14 15  1  0  0  0  0
 14 20  1  6  0  0  0
 15  1  1  6  0  0  0
 16 15  1  0  0  0  0
 17 16  1  0  0  0  0
 18 22  1  6  0  0  0
 18 17  1  0  0  0  0
 18 19  1  0  0  0  0
 19 24  1  6  0  0  0
 19 14  1  0  0  0  0
 20 21  1  0  0  0  0
 22 23  1  0  0  0  0
 25 24  1  0  0  0  0
M  END
>  <minimizedAffinity>
-5.94699955

$$$$

 OpenBabel03242510483D

 25 26  0  0  1  0  0  0  0  0999 V2000
   36.4240   29.0230   39.5890 O   0  0  0  0  0  0  0  0  0  0  0  0
   36.9390   25.6280   40.6350 C   0  0  0  0  0  0  0  0  0  0  0  0
   36.5490   24.8790   39.5100 C   0  0  0  0  0  0  0  0  0  0  0  0
   36.1060   25.5770   38.3870 C   0  0  0  0  0  0  0  0  0  0  0  0
   36.0760   26.9360   38.4420 N   0  0  0  0  0  0  0  0  0  0  0  0
   36.4510   27.6310   39.5240 C   0  0  0  0  0  0  0  0  0  0  0  0
   36.8830   26.9760   40.6210 N   0  0  0  0  0  0  0  0  0  0  0  0
   36.5950   23.7950   39.5230 H   0  0  0  0  0  0  0  0  0  0  0  0
   35.7940   25.0450   37.4910 H   0  0  0  0  0  0  0  0  0  0  0  0
   37.4130   24.8700   41.8350 C   0  0  0  0  0  0  0  0  0  0  0  0
   36.3880   24.6350   42.7160 F   0  0  0  0  0  0  0  0  0  0  0  0
   37.9940   23.6980   41.4050 F   0  0  0  0  0  0  0  0  0  0  0  0
   38.4450   25.6060   42.4570 F   0  0  0  0  0  0  0  0  0  0  0  0
   37.1640   30.9810   40.8520 C   0  0  1  0  0  3  0  0  0  0  0  0
   37.5080   29.6620   40.2430 C   0  0  2  0  0  3  0  0  0  0  0  0
   38.5750   29.7760   39.3290 O   0  0  0  0  0  0  0  0  0  0  0  0
   38.0240   30.4740   38.2320 C   0  0  0  0  0  2  0  0  0  0  0  0
   37.8020   31.9260   38.6010 C   0  0  1  0  0  3  0  0  0  0  0  0
   37.7780   32.1350   40.0870 C   0  0  1  0  0  3  0  0  0  0  0  0
   35.7870   31.1410   41.0150 O   0  0  0  0  0  0  0  0  0  0  0  0
   35.5330   30.7170   41.8730 H   0  0  0  0  0  0  0  0  0  0  0  0
   38.9040   32.6260   38.0840 O   0  0  0  0  0  0  0  0  0  0  0  0
   39.5000   32.9820   38.7920 H   0  0  0  0  0  0  0  0  0  0  0  0
   36.9800   33.2690   40.3460 O   0  0  0  0  0  0  0  0  0  0  0  0
   36.1160   33.1050   39.8580 H   0  0  0  0  0  0  0  0  0  0  0  0
  2 10  1  0  0  0  0
  3  8  1  0  0  0  0
  3  2  2  0  0  0  0
  4  5  2  0  0  0  0
  4  3  1  0  0  0  0
  5  6  1  0  0  0  0
  6  1  1  0  0  0  0
  6  7  2  0  0  0  0
  7  2  1  0  0  0  0
  9  4  1  0  0  0  0
 10 13  1  0  0  0  0
 10 11  1  0  0  0  0
 12 10  1  0  0  0  0
 14 20  1  6  0  0  0
 15  1  1  6  0  0  0
 15 14  1  0  0  0  0
 16 15  1  0  0  0  0
 17 18  1  0  0  0  0
 17 16  1  0  0  0  0
 18 22  1  6  0  0  0
 18 19  1  0  0  0  0
 19 24  1  6  0  0  0
 19 14  1  0  0  0  0
 20 21  1  0  0  0  0
 22 23  1  0  0  0  0
 25 24  1  0  0  0  0
M  END
>  <minimizedAffinity>
-5.66034126

$$$$

 OpenBabel03242510483D

 25 26  0  0  1  0  0  0  0  0999 V2000
   37.9870   29.9720   41.5160 O   0  0  0  0  0  0  0  0  0  0  0  0
   37.9910   26.4320   42.1090 C   0  0  0  0  0  0  0  0  0  0  0  0
   39.0440   26.2570   43.0250 C   0  0  0  0  0  0  0  0  0  0  0  0
   39.7470   27.3910   43.4290 C   0  0  0  0  0  0  0  0  0  0  0  0
   39.3780   28.5970   42.9170 N   0  0  0  0  0  0  0  0  0  0  0  0
   38.3720   28.7420   42.0440 C   0  0  0  0  0  0  0  0  0  0  0  0
   37.6770   27.6580   41.6410 N   0  0  0  0  0  0  0  0  0  0  0  0
   39.2930   25.2700   43.4010 H   0  0  0  0  0  0  0  0  0  0  0  0
   40.5700   27.3110   44.1360 H   0  0  0  0  0  0  0  0  0  0  0  0
   37.2410   25.2090   41.6810 C   0  0  0  0  0  0  0  0  0  0  0  0
   36.4200   24.7500   42.6790 F   0  0  0  0  0  0  0  0  0  0  0  0
   36.5340   25.5130   40.5390 F   0  0  0  0  0  0  0  0  0  0  0  0
   38.1710   24.2160   41.3050 F   0  0  0  0  0  0  0  0  0  0  0  0
   39.6070   31.7050   40.9250 C   0  0  1  0  0  3  0  0  0  0  0  0
   38.8030   30.5220   40.4950 C   0  0  2  0  0  3  0  0  0  0  0  0
   37.9860   30.8270   39.3870 O   0  0  0  0  0  0  0  0  0  0  0  0
   36.9940   31.6870   39.9080 C   0  0  0  0  0  2  0  0  0  0  0  0
   37.5920   33.0450   40.2090 C   0  0  1  0  0  3  0  0  0  0  0  0
   39.0880   32.9930   40.3200 C   0  0  1  0  0  3  0  0  0  0  0  0
   39.7140   31.7900   42.3150 O   0  0  0  0  0  0  0  0  0  0  0  0
   40.4700   31.2160   42.5950 H   0  0  0  0  0  0  0  0  0  0  0  0
   37.2680   33.8580   39.1120 O   0  0  0  0  0  0  0  0  0  0  0  0
   38.0600   34.1050   38.5690 H   0  0  0  0  0  0  0  0  0  0  0  0
   39.4890   34.0380   41.1770 O   0  0  0  0  0  0  0  0  0  0  0  0
   38.9300   33.9350   42.0060 H   0  0  0  0  0  0  0  0  0  0  0  0
  1  6  1  0  0  0  0
  2  3  1  0  0  0  0
  3  8  1  0  0  0  0
  3  4  2  0  0  0  0
  4  9  1  0  0  0  0
  5  4  1  0  0  0  0
  6  5  2  0  0  0  0
  7  6  1  0  0  0  0
  7  2  2  0  0  0  0
 10  2  1  0  0  0  0
 10 11  1  0  0  0  0
 12 10  1  0  0  0  0
 13 10  1  0  0  0  0
 14 20  1  1  0  0  0
 15 14  1  0  0  0  0
 15  1  1  1  0  0  0
 16 17  1  0  0  0  0
 16 15  1  0  0  0  0
 17 18  1  0  0  0  0
 18 22  1  6  0  0  0
 18 19  1  0  0  0  0
 19 14  1  0  0  0  0
 19 24  1  1  0  0  0
 20 21  1  0  0  0  0
 23 22  1  0  0  0  0
 24 25  1  0  0  0  0
M  END
>  <minimizedAffinity>
-5.5305829

$$$$

 OpenBabel03242510483D

 25 26  0  0  1  0  0  0  0  0999 V2000
   38.8680   29.8230   40.4890 O   0  0  0  0  0  0  0  0  0  0  0  0
   37.4740   26.8460   41.9290 C   0  0  0  0  0  0  0  0  0  0  0  0
   37.1840   27.2290   43.2510 C   0  0  0  0  0  0  0  0  0  0  0  0
   37.4820   28.5380   43.6270 C   0  0  0  0  0  0  0  0  0  0  0  0
   38.0350   29.3670   42.6990 N   0  0  0  0  0  0  0  0  0  0  0  0
   38.3040   28.9820   41.4450 C   0  0  0  0  0  0  0  0  0  0  0  0
   38.0230   27.7200   41.0590 N   0  0  0  0  0  0  0  0  0  0  0  0
   36.7430   26.5250   43.9480 H   0  0  0  0  0  0  0  0  0  0  0  0
   37.2780   28.8850   44.6370 H   0  0  0  0  0  0  0  0  0  0  0  0
   37.1500   25.4390   41.5340 C   0  0  0  0  0  0  0  0  0  0  0  0
   36.4660   24.7850   42.5260 F   0  0  0  0  0  0  0  0  0  0  0  0
   36.4340   25.4740   40.3580 F   0  0  0  0  0  0  0  0  0  0  0  0
   38.3530   24.7650   41.2310 F   0  0  0  0  0  0  0  0  0  0  0  0
   38.2500   30.9750   38.4230 C   0  0  1  0  0  3  0  0  0  0  0  0
   38.0150   30.7810   39.8850 C   0  0  2  0  0  3  0  0  0  0  0  0
   38.1330   31.9940   40.5940 O   0  0  0  0  0  0  0  0  0  0  0  0
   39.5140   32.2910   40.5520 C   0  0  0  0  0  2  0  0  0  0  0  0
   39.9070   32.7310   39.1580 C   0  0  1  0  0  3  0  0  0  0  0  0
   38.9000   32.3110   38.1260 C   0  0  1  0  0  3  0  0  0  0  0  0
   38.9620   29.9150   37.8600 O   0  0  0  0  0  0  0  0  0  0  0  0
   38.3130   29.2050   37.6270 H   0  0  0  0  0  0  0  0  0  0  0  0
   39.9310   34.1340   39.1910 O   0  0  0  0  0  0  0  0  0  0  0  0
   39.2060   34.5450   38.6530 H   0  0  0  0  0  0  0  0  0  0  0  0
   39.5800   32.1720   36.8990 O   0  0  0  0  0  0  0  0  0  0  0  0
   40.3650   31.5740   37.0930 H   0  0  0  0  0  0  0  0  0  0  0  0
  1  6  1  0  0  0  0
  2  3  1  0  0  0  0
  3  4  2  0  0  0  0
  3  8  1  0  0  0  0
  4  9  1  0  0  0  0
  5  4  1  0  0  0  0
  6  5  2  0  0  0  0
  7  6  1  0  0  0  0
  7  2  2  0  0  0  0
 10  2  1  0  0  0  0
 10 11  1  0  0  0  0
 12 10  1  0  0  0  0
 13 10  1  0  0  0  0
 14 20  1  1  0  0  0
 14 15  1  0  0  0  0
 15  1  1  1  0  0  0
 15 16  1  0  0  0  0
 17 16  1  0  0  0  0
 18 22  1  1  0  0  0
 18 17  1  0  0  0  0
 19 24  1  6  0  0  0
 19 14  1  0  0  0  0
 19 18  1  0  0  0  0
 21 20  1  0  0  0  0
 23 22  1  0  0  0  0
 24 25  1  0  0  0  0
M  END
>  <minimizedAffinity>
-5.42067385

$$$$

 OpenBabel03242510483D

 25 26  0  0  1  0  0  0  0  0999 V2000
   36.7980   28.8360   40.2240 O   0  0  0  0  0  0  0  0  0  0  0  0
   36.5350   25.2570   40.1920 C   0  0  0  0  0  0  0  0  0  0  0  0
   37.0080   24.8850   41.4640 C   0  0  0  0  0  0  0  0  0  0  0  0
   37.4180   25.9000   42.3260 C   0  0  0  0  0  0  0  0  0  0  0  0
   37.3380   27.1880   41.8920 N   0  0  0  0  0  0  0  0  0  0  0  0
   36.8840   27.5210   40.6760 C   0  0  0  0  0  0  0  0  0  0  0  0
   36.4820   26.5540   39.8260 N   0  0  0  0  0  0  0  0  0  0  0  0
   37.0490   23.8400   41.7560 H   0  0  0  0  0  0  0  0  0  0  0  0
   37.7910   25.6660   43.3200 H   0  0  0  0  0  0  0  0  0  0  0  0
   36.0960   24.1590   39.2730 C   0  0  0  0  0  0  0  0  0  0  0  0
   35.1010   23.4020   39.8350 F   0  0  0  0  0  0  0  0  0  0  0  0
   35.6960   24.7260   38.0840 F   0  0  0  0  0  0  0  0  0  0  0  0
   37.2150   23.3580   38.9590 F   0  0  0  0  0  0  0  0  0  0  0  0
   37.2520   31.0990   41.0300 C   0  0  1  0  0  3  0  0  0  0  0  0
   37.7820   29.7460   40.6880 C   0  0  2  0  0  3  0  0  0  0  0  0
   38.8090   29.8200   39.7250 O   0  0  0  0  0  0  0  0  0  0  0  0
   38.1470   30.1890   38.5330 C   0  0  0  0  0  2  0  0  0  0  0  0
   37.7150   31.6380   38.6080 C   0  0  1  0  0  3  0  0  0  0  0  0
   37.6770   32.1460   40.0210 C   0  0  1  0  0  3  0  0  0  0  0  0
   35.8680   31.0900   41.2150 O   0  0  0  0  0  0  0  0  0  0  0  0
   35.6920   30.8210   42.1520 H   0  0  0  0  0  0  0  0  0  0  0  0
   38.6930   32.3670   37.9140 O   0  0  0  0  0  0  0  0  0  0  0  0
   39.2380   32.9440   38.5080 H   0  0  0  0  0  0  0  0  0  0  0  0
   36.7220   33.1810   40.0770 O   0  0  0  0  0  0  0  0  0  0  0  0
   35.8870   32.7980   39.6690 H   0  0  0  0  0  0  0  0  0  0  0  0
  1  6  1  0  0  0  0
  2  3  1  0  0  0  0
  3  8  1  0  0  0  0
  3  4  2  0  0  0  0
  4  9  1  0  0  0  0
  5  4  1  0  0  0  0
  6  5  2  0  0  0  0
  7  2  2  0  0  0  0
  7  6  1  0  0  0  0
 10 11  1  0  0  0  0
 10  2  1  0  0  0  0
 12 10  1  0  0  0  0
 13 10  1  0  0  0  0
 14 20  1  6  0  0  0
 15  1  1  6  0  0  0
 15 14  1  0  0  0  0
 16 15  1  0  0  0  0
 17 18  1  0  0  0  0
 17 16  1  0  0  0  0
 18 22  1  6  0  0  0
 18 19  1  0  0  0  0
 19 24  1  6  0  0  0
 19 14  1  0  0  0  0
 20 21  1  0  0  0  0
 22 23  1  0  0  0  0
 25 24  1  0  0  0  0
M  END
>  <minimizedAffinity>
-5.37902832

$$$$

 OpenBabel03242510483D

 25 26  0  0  1  0  0  0  0  0999 V2000
   38.0910   29.5320   40.2280 O   0  0  0  0  0  0  0  0  0  0  0  0
   38.7090   26.7980   42.4700 C   0  0  0  0  0  0  0  0  0  0  0  0
   38.1060   27.2180   43.6690 C   0  0  0  0  0  0  0  0  0  0  0  0
   37.4830   28.4650   43.6800 C   0  0  0  0  0  0  0  0  0  0  0  0
   37.4950   29.2030   42.5360 N   0  0  0  0  0  0  0  0  0  0  0  0
   38.0760   28.7840   41.4040 C   0  0  0  0  0  0  0  0  0  0  0  0
   38.6830   27.5800   41.3710 N   0  0  0  0  0  0  0  0  0  0  0  0
   38.1280   26.5860   44.5510 H   0  0  0  0  0  0  0  0  0  0  0  0
   37.0020   28.8360   44.5810 H   0  0  0  0  0  0  0  0  0  0  0  0
   39.3750   25.4570   42.4670 C   0  0  0  0  0  0  0  0  0  0  0  0
   40.2510   25.3340   41.4190 F   0  0  0  0  0  0  0  0  0  0  0  0
   40.0040   25.2850   43.6800 F   0  0  0  0  0  0  0  0  0  0  0  0
   38.3800   24.4570   42.4040 F   0  0  0  0  0  0  0  0  0  0  0  0
   38.3130   31.9670   40.2020 C   0  0  1  0  0  3  0  0  0  0  0  0
   38.9830   30.6330   40.1730 C   0  0  2  0  0  3  0  0  0  0  0  0
   39.8000   30.4880   39.0320 O   0  0  0  0  0  0  0  0  0  0  0  0
   38.8870   30.3850   37.9590 C   0  0  0  0  0  2  0  0  0  0  0  0
   38.2490   31.7320   37.6900 C   0  0  1  0  0  3  0  0  0  0  0  0
   38.3810   32.6640   38.8600 C   0  0  1  0  0  3  0  0  0  0  0  0
   37.0030   31.8860   40.6790 O   0  0  0  0  0  0  0  0  0  0  0  0
   37.0400   31.9200   41.6680 H   0  0  0  0  0  0  0  0  0  0  0  0
   38.9600   32.2860   36.6140 O   0  0  0  0  0  0  0  0  0  0  0  0
   39.5020   33.0740   36.8750 H   0  0  0  0  0  0  0  0  0  0  0  0
   37.2970   33.5660   38.8110 O   0  0  0  0  0  0  0  0  0  0  0  0
   36.4760   32.9930   38.7290 H   0  0  0  0  0  0  0  0  0  0  0  0
  1  6  1  0  0  0  0
  2  3  1  0  0  0  0
  3  4  2  0  0  0  0
  3  8  1  0  0  0  0
  4  9  1  0  0  0  0
  5  4  1  0  0  0  0
  6  5  2  0  0  0  0
  7  6  1  0  0  0  0
  7  2  2  0  0  0  0
 10  2  1  0  0  0  0
 10 12  1  0  0  0  0
 11 10  1  0  0  0  0
 13 10  1  0  0  0  0
 14 20  1  6  0  0  0
 15 14  1  0  0  0  0
 15  1  1  6  0  0  0
 16 15  1  0  0  0  0
 17 16  1  0  0  0  0
 18 22  1  6  0  0  0
 18 17  1  0  0  0  0
 18 19  1  0  0  0  0
 19 24  1  1  0  0  0
 19 14  1  0  0  0  0
 20 21  1  0  0  0  0
 22 23  1  0  0  0  0
 25 24  1  0  0  0  0
M  END
>  <minimizedAffinity>
-5.35061836

$$$$

 OpenBabel03242510483D

 25 26  0  0  1  0  0  0  0  0999 V2000
   38.4120   29.8870   39.8590 O   0  0  0  0  0  0  0  0  0  0  0  0
   37.2090   26.8020   41.2430 C   0  0  0  0  0  0  0  0  0  0  0  0
   36.7120   26.1150   40.1210 C   0  0  0  0  0  0  0  0  0  0  0  0
   36.8050   26.7440   38.8810 C   0  0  0  0  0  0  0  0  0  0  0  0
   37.3670   27.9820   38.8250 N   0  0  0  0  0  0  0  0  0  0  0  0
   37.8340   28.6210   39.9070 C   0  0  0  0  0  0  0  0  0  0  0  0
   37.7550   28.0290   41.1170 N   0  0  0  0  0  0  0  0  0  0  0  0
   36.2730   25.1270   40.2260 H   0  0  0  0  0  0  0  0  0  0  0  0
   36.4350   26.2560   37.9820 H   0  0  0  0  0  0  0  0  0  0  0  0
   37.1060   26.1180   42.5710 C   0  0  0  0  0  0  0  0  0  0  0  0
   36.5940   24.8520   42.4440 F   0  0  0  0  0  0  0  0  0  0  0  0
   38.3550   26.1070   43.1490 F   0  0  0  0  0  0  0  0  0  0  0  0
   36.2950   26.9000   43.4220 F   0  0  0  0  0  0  0  0  0  0  0  0
   37.3130   32.0220   40.3160 C   0  0  1  0  0  3  0  0  0  0  0  0
   38.0150   30.8180   40.8520 C   0  0  2  0  0  3  0  0  0  0  0  0
   39.1510   31.1750   41.6090 O   0  0  0  0  0  0  0  0  0  0  0  0
   40.0720   31.6550   40.6520 C   0  0  0  0  0  2  0  0  0  0  0  0
   39.6290   33.0090   40.1400 C   0  0  1  0  0  3  0  0  0  0  0  0
   38.1730   33.2660   40.4040 C   0  0  1  0  0  3  0  0  0  0  0  0
   36.8290   31.8160   39.0230 O   0  0  0  0  0  0  0  0  0  0  0  0
   35.9460   31.3760   39.0980 H   0  0  0  0  0  0  0  0  0  0  0  0
   40.3720   33.9550   40.8630 O   0  0  0  0  0  0  0  0  0  0  0  0
   39.8150   34.4870   41.4880 H   0  0  0  0  0  0  0  0  0  0  0  0
   37.7100   34.1550   39.4130 O   0  0  0  0  0  0  0  0  0  0  0  0
   37.9860   33.7480   38.5370 H   0  0  0  0  0  0  0  0  0  0  0  0
  1  6  1  0  0  0  0
  2 10  1  0  0  0  0
  3  8  1  0  0  0  0
  3  2  2  0  0  0  0
  4  3  1  0  0  0  0
  5  4  2  0  0  0  0
  5  6  1  0  0  0  0
  6  7  2  0  0  0  0
  7  2  1  0  0  0  0
  9  4  1  0  0  0  0
 10 12  1  0  0  0  0
 10 13  1  0  0  0  0
 11 10  1  0  0  0  0
 14 20  1  6  0  0  0
 14 19  1  0  0  0  0
 14 15  1  0  0  0  0
 15  1  1  6  0  0  0
 15 16  1  0  0  0  0
 17 16  1  0  0  0  0
 18 19  1  0  0  0  0
 18 17  1  0  0  0  0
 18 22  1  1  0  0  0
 19 24  1  6  0  0  0
 20 21  1  0  0  0  0
 22 23  1  0  0  0  0
 25 24  1  0  0  0  0
M  END
>  <minimizedAffinity>
-5.32370186

$$$$

 OpenBabel03242510483D

 25 26  0  0  1  0  0  0  0  0999 V2000
   40.2390   30.7630   38.7760 O   0  0  0  0  0  0  0  0  0  0  0  0
   37.9860   29.7600   41.3840 C   0  0  0  0  0  0  0  0  0  0  0  0
   36.9130   30.6610   41.2520 C   0  0  0  0  0  0  0  0  0  0  0  0
   36.9910   31.6180   40.2410 C   0  0  0  0  0  0  0  0  0  0  0  0
   38.0950   31.6280   39.4440 N   0  0  0  0  0  0  0  0  0  0  0  0
   39.1060   30.7610   39.5880 C   0  0  0  0  0  0  0  0  0  0  0  0
   39.0510   29.8260   40.5590 N   0  0  0  0  0  0  0  0  0  0  0  0
   36.0580   30.6060   41.9170 H   0  0  0  0  0  0  0  0  0  0  0  0
   36.1890   32.3380   40.0960 H   0  0  0  0  0  0  0  0  0  0  0  0
   37.8930   28.7360   42.4720 C   0  0  0  0  0  0  0  0  0  0  0  0
   38.7730   27.7040   42.2650 F   0  0  0  0  0  0  0  0  0  0  0  0
   38.1170   29.3630   43.6770 F   0  0  0  0  0  0  0  0  0  0  0  0
   36.5670   28.2550   42.5290 F   0  0  0  0  0  0  0  0  0  0  0  0
   41.4530   32.8790   38.6210 C   0  0  1  0  0  3  0  0  0  0  0  0
   41.3540   31.5160   39.2230 C   0  0  2  0  0  3  0  0  0  0  0  0
   42.5230   30.7610   38.9910 O   0  0  0  0  0  0  0  0  0  0  0  0
   42.4890   30.4790   37.6080 C   0  0  0  0  0  2  0  0  0  0  0  0
   42.7920   31.7330   36.8150 C   0  0  1  0  0  3  0  0  0  0  0  0
   42.5930   32.9790   37.6290 C   0  0  1  0  0  3  0  0  0  0  0  0
   40.2420   33.2970   38.0650 O   0  0  0  0  0  0  0  0  0  0  0  0
   39.6980   33.6940   38.7910 H   0  0  0  0  0  0  0  0  0  0  0  0
   44.1510   31.6530   36.4750 O   0  0  0  0  0  0  0  0  0  0  0  0
   44.7060   32.3290   36.9420 H   0  0  0  0  0  0  0  0  0  0  0  0
   42.2700   34.0230   36.7380 O   0  0  0  0  0  0  0  0  0  0  0  0
   41.5110   33.6740   36.1790 H   0  0  0  0  0  0  0  0  0  0  0  0
  1  6  1  0  0  0  0
  2 10  1  0  0  0  0
  3  2  1  0  0  0  0
  3  8  1  0  0  0  0
  4  3  2  0  0  0  0
  5  6  2  0  0  0  0
  5  4  1  0  0  0  0
  6  7  1  0  0  0  0
  7  2  2  0  0  0  0
  9  4  1  0  0  0  0
 10 13  1  0  0  0  0
 10 12  1  0  0  0  0
 11 10  1  0  0  0  0
 14 20  1  6  0  0  0
 14 15  1  0  0  0  0
 15  1  1  6  0  0  0
 16 15  1  0  0  0  0
 17 16  1  0  0  0  0
 18 22  1  1  0  0  0
 18 17  1  0  0  0  0
 18 19  1  0  0  0  0
 19 24  1  6  0  0  0
 19 14  1  0  0  0  0
 20 21  1  0  0  0  0
 22 23  1  0  0  0  0
 25 24  1  0  0  0  0
M  END
>  <minimizedAffinity>
-5.21204042

$$$$

 OpenBabel03242510483D

 25 26  0  0  1  0  0  0  0  0999 V2000
   38.1660   29.6200   39.8860 O   0  0  0  0  0  0  0  0  0  0  0  0
   37.5860   26.8210   42.0570 C   0  0  0  0  0  0  0  0  0  0  0  0
   37.4440   27.4160   43.3230 C   0  0  0  0  0  0  0  0  0  0  0  0
   37.5540   28.8030   43.4040 C   0  0  0  0  0  0  0  0  0  0  0  0
   37.7910   29.5010   42.2600 N   0  0  0  0  0  0  0  0  0  0  0  0
   37.9240   28.9140   41.0620 C   0  0  0  0  0  0  0  0  0  0  0  0
   37.8210   27.5730   40.9610 N   0  0  0  0  0  0  0  0  0  0  0  0
   37.2550   26.8080   44.2020 H   0  0  0  0  0  0  0  0  0  0  0  0
   37.4520   29.3120   44.3600 H   0  0  0  0  0  0  0  0  0  0  0  0
   37.4660   25.3300   41.9790 C   0  0  0  0  0  0  0  0  0  0  0  0
   36.3710   24.8790   42.6700 F   0  0  0  0  0  0  0  0  0  0  0  0
   37.4150   24.9700   40.6510 F   0  0  0  0  0  0  0  0  0  0  0  0
   38.6500   24.7540   42.4890 F   0  0  0  0  0  0  0  0  0  0  0  0
   38.7060   31.7880   38.8940 C   0  0  1  0  0  3  0  0  0  0  0  0
   38.9450   30.8000   39.9880 C   0  0  2  0  0  3  0  0  0  0  0  0
   40.3040   30.4320   40.0650 O   0  0  0  0  0  0  0  0  0  0  0  0
   40.5220   29.6520   38.9070 C   0  0  0  0  0  2  0  0  0  0  0  0
   40.5310   30.5380   37.6790 C   0  0  1  0  0  3  0  0  0  0  0  0
   39.8750   31.8640   37.9340 C   0  0  1  0  0  3  0  0  0  0  0  0
   37.5010   31.5530   38.2280 O   0  0  0  0  0  0  0  0  0  0  0  0
   36.7810   31.9980   38.7410 H   0  0  0  0  0  0  0  0  0  0  0  0
   41.8830   30.7750   37.3870 O   0  0  0  0  0  0  0  0  0  0  0  0
   42.1520   31.7170   37.5430 H   0  0  0  0  0  0  0  0  0  0  0  0
   39.3650   32.3310   36.7040 O   0  0  0  0  0  0  0  0  0  0  0  0
   38.8170   31.5730   36.3370 H   0  0  0  0  0  0  0  0  0  0  0  0
  1  6  1  0  0  0  0
  2  3  1  0  0  0  0
  3  4  2  0  0  0  0
  3  8  1  0  0  0  0
  4  9  1  0  0  0  0
  5  4  1  0  0  0  0
  6  5  2  0  0  0  0
  7  6  1  0  0  0  0
  7  2  2  0  0  0  0
 10  2  1  0  0  0  0
 10 13  1  0  0  0  0
 10 11  1  0  0  0  0
 12 10  1  0  0  0  0
 14 20  1  6  0  0  0
 14 15  1  0  0  0  0
 15  1  1  6  0  0  0
 15 16  1  0  0  0  0
 17 16  1  0  0  0  0
 18 22  1  1  0  0  0
 18 19  1  0  0  0  0
 18 17  1  0  0  0  0
 19 24  1  6  0  0  0
 19 14  1  0  0  0  0
 20 21  1  0  0  0  0
 22 23  1  0  0  0  0
 25 24  1  0  0  0  0
M  END
>  <minimizedAffinity>
-5.16155434

$$$$
