
 OpenBabel03252508033D

 45 48  0  0  1  0  0  0  0  0999 V2000
   41.4870   33.3590   41.3900 C   0  0  0  0  0  0  0  0  0  0  0  0
   42.5480   34.2360   41.2490 C   0  0  0  0  0  0  0  0  0  0  0  0
   42.2800   35.5550   40.9000 C   0  0  0  0  0  0  0  0  0  0  0  0
   40.9920   35.9970   40.6960 C   0  0  0  0  0  0  0  0  0  0  0  0
   39.9360   35.1380   40.8320 C   0  0  0  0  0  0  0  0  0  0  0  0
   40.2000   33.8440   41.1740 C   0  0  0  0  0  0  0  0  0  0  0  0
   43.0480   36.3170   40.7630 H   0  0  0  0  0  0  0  0  0  0  0  0
   40.7900   37.0130   40.4290 H   0  0  0  0  0  0  0  0  0  0  0  0
   38.9340   35.4490   40.6790 H   0  0  0  0  0  0  0  0  0  0  0  0
   39.3660   33.1610   41.2820 H   0  0  0  0  0  0  0  0  0  0  0  0
   41.7340   31.7380   41.7160 S   0  0  0  0  0  0  0  0  0  0  0  0
   41.7700   31.0500   40.3950 O   0  0  0  0  0  0  0  0  0  0  0  0
   40.4670   31.2590   42.5200 O   0  0  0  0  0  0  0  0  0  0  0  0
   42.1260   29.3870   42.7240 C   0  0  2  0  0  3  0  0  0  0  0  0
   42.7470   30.7720   42.5650 C   0  0  1  0  0  3  0  0  0  0  0  0
   43.9980   30.4430   41.9760 O   0  0  0  0  0  0  0  0  0  0  0  0
   44.7160   29.5290   42.7090 C   0  0  0  0  0  2  0  0  0  0  0  0
   44.2600   28.1690   42.2070 C   0  0  1  0  0  3  0  0  0  0  0  0
   42.7780   28.2990   41.9270 C   0  0  2  0  0  3  0  0  0  0  0  0
   40.7770   29.3980   42.2870 O   0  0  0  0  0  0  0  0  0  0  0  0
   40.6310   28.9040   41.4660 H   0  0  0  0  0  0  0  0  0  0  0  0
   44.8800   27.8810   40.9910 O   0  0  0  0  0  0  0  0  0  0  0  0
   44.8230   26.8850   40.8660 H   0  0  0  0  0  0  0  0  0  0  0  0
   42.5260   28.4530   40.5830 O   0  0  0  0  0  0  0  0  0  0  0  0
   43.3120   28.4180   40.0100 H   0  0  0  0  0  0  0  0  0  0  0  0
   43.9480   33.8340   41.4520 C   0  0  0  0  0  0  0  0  0  0  0  0
   44.6770   33.2850   40.5630 O   0  0  0  0  0  0  0  0  0  0  0  0
   44.4260   34.1240   42.7680 C   0  0  0  0  0  0  0  0  0  0  0  0
   44.2500   35.4700   43.2190 C   0  0  0  0  0  0  0  0  0  0  0  0
   44.6920   35.7670   44.5110 C   0  0  0  0  0  0  0  0  0  0  0  0
   45.2540   34.7690   45.2440 N   0  0  0  0  0  0  0  0  0  0  0  0
   45.3990   33.4930   44.7620 C   0  0  0  0  0  0  0  0  0  0  0  0
   44.9880   33.2450   43.5760 N   0  0  0  0  0  0  0  0  0  0  0  0
   43.8220   36.2870   42.6960 H   0  0  0  0  0  0  0  0  0  0  0  0
   44.6050   36.7630   44.9490 H   0  0  0  0  0  0  0  0  0  0  0  0
   46.0000   32.4680   45.6390 C   0  0  1  0  0  0  0  0  0  0  0  0
   46.9280   32.9070   46.7480 C   0  0  0  0  0  0  0  0  0  0  0  0
   45.5220   32.4930   47.0440 C   0  0  1  0  0  0  0  0  0  0  0  0
   46.2120   31.4830   45.2160 H   0  0  0  0  0  0  0  0  0  0  0  0
   47.2490   33.9630   46.7920 H   0  0  0  0  0  0  0  0  0  0  0  0
   47.7190   32.2200   47.0970 H   0  0  0  0  0  0  0  0  0  0  0  0
   45.3470   31.5640   47.6090 H   0  0  0  0  0  0  0  0  0  0  0  0
   44.7150   33.6020   47.5200 N   0  0  0  0  0  0  0  0  0  0  0  0
   43.9320   33.2790   48.1440 H   0  0  0  0  0  0  0  0  0  0  0  0
   45.2580   34.2770   48.1220 H   0  0  0  0  0  0  0  0  0  0  0  0
  1 11  1  0  0  0  0
  2  1  1  0  0  0  0
  2 26  1  0  0  0  0
  3  2  2  0  0  0  0
  4  5  2  0  0  0  0
  4  3  1  0  0  0  0
  5  6  1  0  0  0  0
  6 10  1  0  0  0  0
  6  1  2  0  0  0  0
  7  3  1  0  0  0  0
  8  4  1  0  0  0  0
  9  5  1  0  0  0  0
 11 13  2  0  0  0  0
 12 11  2  0  0  0  0
 14 20  1  6  0  0  0
 15 11  1  6  0  0  0
 15 14  1  0  0  0  0
 16 15  1  0  0  0  0
 16 17  1  0  0  0  0
 18 22  1  6  0  0  0
 18 17  1  0  0  0  0
 19 24  1  6  0  0  0
 19 18  1  0  0  0  0
 19 14  1  0  0  0  0
 21 20  1  0  0  0  0
 23 22  1  0  0  0  0
 25 24  1  0  0  0  0
 26 28  1  0  0  0  0
 27 26  2  0  0  0  0
 28 29  2  0  0  0  0
 28 33  1  0  0  0  0
 29 30  1  0  0  0  0
 30 35  1  0  0  0  0
 30 31  2  0  0  0  0
 32 31  1  0  0  0  0
 32 36  1  0  0  0  0
 33 32  2  0  0  0  0
 34 29  1  0  0  0  0
 36 39  1  6  0  0  0
 36 37  1  0  0  0  0
 36 38  1  0  0  0  0
 37 40  1  0  0  0  0
 37 38  1  0  0  0  0
 37 41  1  0  0  0  0
 38 43  1  0  0  0  0
 38 42  1  1  0  0  0
 43 45  1  0  0  0  0
 43 44  1  0  0  0  0
M  END
>  <minimizedAffinity>
-5.85041523

>  <minimizedRMSD>
0.881022096

$$$$
