
 OpenBabel03252502243D

 37 39  0  0  1  0  0  0  0  0999 V2000
   47.0100   34.6990   42.2630 N   0  0  0  0  0  0  0  0  0  0  0  0
   48.4560   34.7360   42.3800 C   0  0  0  0  0  0  0  0  0  0  0  0
   48.9040   35.6160   41.1970 C   0  0  0  0  0  0  0  0  0  0  0  0
   48.6200   34.8650   39.9170 C   0  0  0  0  0  0  0  0  0  0  0  0
   47.2940   34.1780   39.8880 C   0  0  0  0  0  0  0  0  0  0  0  0
   46.3630   34.5290   41.0080 C   0  0  1  0  0  0  0  0  0  0  0  0
   48.8130   35.1230   43.3270 H   0  0  0  0  0  0  0  0  0  0  0  0
   48.8270   33.7210   42.1170 H   0  0  0  0  0  0  0  0  0  0  0  0
   48.2540   36.5340   41.2480 H   0  0  0  0  0  0  0  0  0  0  0  0
   49.9670   35.8590   41.2380 H   0  0  0  0  0  0  0  0  0  0  0  0
   48.7780   35.5670   39.0740 H   0  0  0  0  0  0  0  0  0  0  0  0
   49.4330   34.0930   39.8340 H   0  0  0  0  0  0  0  0  0  0  0  0
   47.4290   33.0630   39.9140 H   0  0  0  0  0  0  0  0  0  0  0  0
   46.8310   34.3910   38.9020 H   0  0  0  0  0  0  0  0  0  0  0  0
   45.8870   35.5090   40.7640 H   0  0  0  0  0  0  0  0  0  0  0  0
   44.5220   35.9430   44.7670 C   0  0  0  0  0  0  0  0  0  0  0  0
   45.2890   35.9110   43.5890 C   0  0  0  0  0  0  0  0  0  0  0  0
   46.1820   34.8340   43.4200 C   0  0  0  0  0  0  0  0  0  0  0  0
   46.2370   33.9060   44.4070 N   0  0  0  0  0  0  0  0  0  0  0  0
   45.4810   33.9720   45.5260 C   0  0  0  0  0  0  0  0  0  0  0  0
   44.6140   35.0120   45.6970 N   0  0  0  0  0  0  0  0  0  0  0  0
   43.8350   36.7620   44.9090 H   0  0  0  0  0  0  0  0  0  0  0  0
   45.2300   36.6600   42.8160 H   0  0  0  0  0  0  0  0  0  0  0  0
   45.5520   33.2110   46.2930 H   0  0  0  0  0  0  0  0  0  0  0  0
   45.4100   33.5030   41.1150 O   0  0  0  0  0  0  0  0  0  0  0  0
   43.4690   33.7830   39.6840 C   0  0  2  0  0  3  0  0  0  0  0  0
   44.1140   33.9370   41.0150 C   0  0  1  0  0  3  0  0  0  0  0  0
   43.2560   33.5090   42.0010 O   0  0  0  0  0  0  0  0  0  0  0  0
   43.3720   32.0990   42.0640 C   0  0  0  0  0  2  0  0  0  0  0  0
   43.1050   31.5060   40.7070 C   0  0  1  0  0  3  0  0  0  0  0  0
   42.5820   32.5550   39.7390 C   0  0  2  0  0  3  0  0  0  0  0  0
   44.3670   33.5730   38.6450 O   0  0  0  0  0  0  0  0  0  0  0  0
   43.9090   33.6470   37.7840 H   0  0  0  0  0  0  0  0  0  0  0  0
   44.2820   30.9490   40.2330 O   0  0  0  0  0  0  0  0  0  0  0  0
   44.1220   30.5320   39.3330 H   0  0  0  0  0  0  0  0  0  0  0  0
   42.5140   31.9970   38.4660 O   0  0  0  0  0  0  0  0  0  0  0  0
   42.1150   32.6400   37.8550 H   0  0  0  0  0  0  0  0  0  0  0  0
  1  2  1  0  0  0  0
  1 18  1  0  0  0  0
  2  7  1  0  0  0  0
  3 10  1  0  0  0  0
  3  9  1  0  0  0  0
  3  2  1  0  0  0  0
  4  3  1  0  0  0  0
  5 13  1  0  0  0  0
  5  4  1  0  0  0  0
  5  6  1  0  0  0  0
  6 15  1  6  0  0  0
  6 25  1  0  0  0  0
  6  1  1  0  0  0  0
  8  2  1  0  0  0  0
 11  4  1  0  0  0  0
 12  4  1  0  0  0  0
 14  5  1  0  0  0  0
 16 22  1  0  0  0  0
 16 21  1  0  0  0  0
 17 16  2  0  0  0  0
 18 17  1  0  0  0  0
 18 19  2  0  0  0  0
 19 20  1  0  0  0  0
 20 21  2  0  0  0  0
 20 24  1  0  0  0  0
 23 17  1  0  0  0  0
 26 32  1  6  0  0  0
 26 31  1  0  0  0  0
 26 27  1  0  0  0  0
 27 25  1  6  0  0  0
 27 28  1  0  0  0  0
 28 29  1  0  0  0  0
 30 34  1  6  0  0  0
 30 29  1  0  0  0  0
 31 36  1  6  0  0  0
 31 30  1  0  0  0  0
 33 32  1  0  0  0  0
 35 34  1  0  0  0  0
 37 36  1  0  0  0  0
M  END
>  <minimizedAffinity>
-5.51147699

>  <minimizedRMSD>
1.10747039

$$$$
