
 OpenBabel03252509003D

 48 50  0  0  1  0  0  0  0  0999 V2000
   47.1220   34.0680   42.9150 N   0  0  0  0  0  0  0  0  0  0  0  0
   46.7160   35.3650   42.5060 C   0  0  0  0  0  0  0  0  0  0  0  0
   45.2800   35.7210   42.8240 C   0  0  0  0  0  0  0  0  0  0  0  0
   44.7480   35.1020   44.0820 C   0  0  0  0  0  0  0  0  0  0  0  0
   45.8180   34.3340   44.8210 C   0  0  0  0  0  0  0  0  0  0  0  0
   46.3240   33.3020   43.7500 C   0  0  2  0  0  0  0  0  0  0  0  0
   46.8740   35.6100   41.4530 H   0  0  0  0  0  0  0  0  0  0  0  0
   47.3480   36.1050   43.0770 H   0  0  0  0  0  0  0  0  0  0  0  0
   44.6440   35.4920   41.9330 H   0  0  0  0  0  0  0  0  0  0  0  0
   45.1980   36.8330   42.9270 H   0  0  0  0  0  0  0  0  0  0  0  0
   44.2340   35.8430   44.7410 H   0  0  0  0  0  0  0  0  0  0  0  0
   43.9710   34.3620   43.7930 H   0  0  0  0  0  0  0  0  0  0  0  0
   46.6500   34.9420   45.1770 H   0  0  0  0  0  0  0  0  0  0  0  0
   45.3070   33.7220   45.5780 H   0  0  0  0  0  0  0  0  0  0  0  0
   45.4080   32.8400   43.3420 H   0  0  0  0  0  0  0  0  0  0  0  0
   47.9900   33.4040   41.9870 C   0  0  0  0  0  0  0  0  0  0  0  0
   48.7720   34.1080   41.6770 H   0  0  0  0  0  0  0  0  0  0  0  0
   48.4740   32.5580   42.5370 H   0  0  0  0  0  0  0  0  0  0  0  0
   47.1640   32.8310   40.8760 C   0  0  0  0  0  0  0  0  0  0  0  0
   46.1840   33.3480   40.8110 H   0  0  0  0  0  0  0  0  0  0  0  0
   46.9460   31.7690   40.9900 H   0  0  0  0  0  0  0  0  0  0  0  0
   49.2970   32.3160   37.8280 C   0  0  0  0  0  0  0  0  0  0  0  0
   48.6440   32.0910   39.0550 C   0  0  0  0  0  0  0  0  0  0  0  0
   47.8480   33.0820   39.5800 C   0  0  0  0  0  0  0  0  0  0  0  0
   47.7370   34.2250   38.8860 N   0  0  0  0  0  0  0  0  0  0  0  0
   48.3660   34.4270   37.7180 C   0  0  0  0  0  0  0  0  0  0  0  0
   49.1450   33.4860   37.1780 N   0  0  0  0  0  0  0  0  0  0  0  0
   49.8950   31.4910   37.4910 H   0  0  0  0  0  0  0  0  0  0  0  0
   48.7560   31.1550   39.5870 H   0  0  0  0  0  0  0  0  0  0  0  0
   48.1760   35.4040   37.2780 H   0  0  0  0  0  0  0  0  0  0  0  0
   47.0810   32.4350   44.5310 O   0  0  0  0  0  0  0  0  0  0  0  0
   45.1110   30.7560   43.9320 O   0  0  0  0  0  0  0  0  0  0  0  0
   46.2600   31.0120   44.8990 P   0  0  2  0  0  0  0  0  0  0  0  0
   45.5130   31.2780   46.4170 O   0  0  0  0  0  0  0  0  0  0  0  0
   44.6180   31.6810   46.2820 H   0  0  0  0  0  0  0  0  0  0  0  0
   47.2650   29.6960   45.0550 O   0  0  0  0  0  0  0  0  0  0  0  0
   48.8960   28.3940   43.9920 C   0  0  2  0  0  3  0  0  0  0  0  0
   47.4970   29.0000   43.8860 C   0  0  2  0  0  3  0  0  0  0  0  0
   47.4240   29.8980   42.8220 O   0  0  0  0  0  0  0  0  0  0  0  0
   47.9510   29.3470   41.6570 C   0  0  0  0  0  2  0  0  0  0  0  0
   49.4420   29.1350   41.7380 C   0  0  1  0  0  3  0  0  0  0  0  0
   49.8390   29.2720   43.2040 C   0  0  1  0  0  3  0  0  0  0  0  0
   48.8360   27.0920   43.4680 O   0  0  0  0  0  0  0  0  0  0  0  0
   47.8870   26.8310   43.2610 H   0  0  0  0  0  0  0  0  0  0  0  0
   49.7920   27.8450   41.2980 O   0  0  0  0  0  0  0  0  0  0  0  0
   50.6890   27.6790   41.6900 H   0  0  0  0  0  0  0  0  0  0  0  0
   49.5540   30.6040   43.5390 O   0  0  0  0  0  0  0  0  0  0  0  0
   50.2830   31.0150   44.0680 H   0  0  0  0  0  0  0  0  0  0  0  0
  1  6  1  0  0  0  0
  2  3  1  0  0  0  0
  2  1  1  0  0  0  0
  2  8  1  0  0  0  0
  3 10  1  0  0  0  0
  3  4  1  0  0  0  0
  4 11  1  0  0  0  0
  4  5  1  0  0  0  0
  5 13  1  0  0  0  0
  5 14  1  0  0  0  0
  6 15  1  6  0  0  0
  6 31  1  0  0  0  0
  6  5  1  0  0  0  0
  7  2  1  0  0  0  0
  9  3  1  0  0  0  0
 12  4  1  0  0  0  0
 16 18  1  0  0  0  0
 16  1  1  0  0  0  0
 17 16  1  0  0  0  0
 19 21  1  0  0  0  0
 19 16  1  0  0  0  0
 20 19  1  0  0  0  0
 22 23  1  0  0  0  0
 23 24  2  0  0  0  0
 23 29  1  0  0  0  0
 24 19  1  0  0  0  0
 25 24  1  0  0  0  0
 26 25  2  0  0  0  0
 27 26  1  0  0  0  0
 27 22  2  0  0  0  0
 28 22  1  0  0  0  0
 30 26  1  0  0  0  0
 31 33  1  0  0  0  0
 33 32  2  6  0  0  0
 33 36  1  0  0  0  0
 33 34  1  0  0  0  0
 35 34  1  0  0  0  0
 37 43  1  6  0  0  0
 38 37  1  0  0  0  0
 38 36  1  1  0  0  0
 39 38  1  0  0  0  0
 40 41  1  0  0  0  0
 40 39  1  0  0  0  0
 41 45  1  1  0  0  0
 41 42  1  0  0  0  0
 42 47  1  1  0  0  0
 42 37  1  0  0  0  0
 44 43  1  0  0  0  0
 45 46  1  0  0  0  0
 47 48  1  0  0  0  0
M  END
>  <minimizedAffinity>
-3.77462125

>  <minimizedRMSD>
1.26137936

$$$$
