
 OpenBabel03252508003D

 32 34  0  0  1  0  0  0  0  0999 V2000
   46.6040   34.7420   43.1150 C   0  0  0  0  0  0  0  0  0  0  0  0
   45.5760   35.7270   43.2420 C   0  0  0  0  0  0  0  0  0  0  0  0
   44.7230   35.6020   44.3440 C   0  0  0  0  0  0  0  0  0  0  0  0
   44.9220   34.5760   45.2020 N   0  0  0  0  0  0  0  0  0  0  0  0
   45.9340   33.6620   45.0150 C   0  0  0  0  0  0  0  0  0  0  0  0
   46.7640   33.7380   43.9910 N   0  0  0  0  0  0  0  0  0  0  0  0
   45.4760   36.5230   42.5160 H   0  0  0  0  0  0  0  0  0  0  0  0
   43.9290   36.3120   44.4960 H   0  0  0  0  0  0  0  0  0  0  0  0
   46.1020   32.5680   46.0190 C   0  0  1  0  0  0  0  0  0  0  0  0
   46.8270   32.8660   47.3130 C   0  0  0  0  0  0  0  0  0  0  0  0
   45.3270   32.7630   47.2610 C   0  0  1  0  0  0  0  0  0  0  0  0
   46.2510   31.5390   45.6520 H   0  0  0  0  0  0  0  0  0  0  0  0
   47.3140   33.8720   47.3140 H   0  0  0  0  0  0  0  0  0  0  0  0
   47.4340   32.0760   47.7630 H   0  0  0  0  0  0  0  0  0  0  0  0
   44.9290   31.9210   47.8500 H   0  0  0  0  0  0  0  0  0  0  0  0
   44.6710   34.0230   47.5230 N   0  0  0  0  0  0  0  0  0  0  0  0
   45.2610   34.8340   47.6530 H   0  0  0  0  0  0  0  0  0  0  0  0
   43.7140   34.1150   47.2110 H   0  0  0  0  0  0  0  0  0  0  0  0
   47.4600   34.9250   41.9690 C   0  0  0  0  0  0  0  0  0  0  0  0
   48.4500   35.7400   41.9570 O   0  0  0  0  0  0  0  0  0  0  0  0
   47.7280   32.7610   40.9600 C   0  0  1  0  0  3  0  0  0  0  0  0
   47.2680   34.1790   40.6920 C   0  0  2  0  0  3  0  0  0  0  0  0
   48.0600   34.8110   39.7400 O   0  0  0  0  0  0  0  0  0  0  0  0
   48.1460   34.0970   38.5560 C   0  0  0  0  0  2  0  0  0  0  0  0
   48.7410   32.7310   38.7340 C   0  0  1  0  0  3  0  0  0  0  0  0
   47.8890   31.9620   39.7030 C   0  0  1  0  0  3  0  0  0  0  0  0
   48.9440   32.7870   41.6350 O   0  0  0  0  0  0  0  0  0  0  0  0
   49.7140   32.9900   41.0410 H   0  0  0  0  0  0  0  0  0  0  0  0
   48.6420   32.0630   37.5050 O   0  0  0  0  0  0  0  0  0  0  0  0
   49.4950   31.6160   37.2860 H   0  0  0  0  0  0  0  0  0  0  0  0
   48.5780   30.7850   40.0730 O   0  0  0  0  0  0  0  0  0  0  0  0
   49.1740   30.9550   40.8570 H   0  0  0  0  0  0  0  0  0  0  0  0
  1  2  2  0  0  0  0
  1  6  1  0  0  0  0
  2  3  1  0  0  0  0
  3  8  1  0  0  0  0
  3  4  2  0  0  0  0
  5  4  1  0  0  0  0
  5  9  1  0  0  0  0
  6  5  2  0  0  0  0
  7  2  1  0  0  0  0
  9 12  1  6  0  0  0
  9 11  1  0  0  0  0
  9 10  1  0  0  0  0
 10 13  1  0  0  0  0
 10 14  1  0  0  0  0
 11 10  1  0  0  0  0
 11 16  1  0  0  0  0
 11 15  1  1  0  0  0
 16 17  1  0  0  0  0
 18 16  1  0  0  0  0
 19  1  1  0  0  0  0
 20 19  2  0  0  0  0
 21 27  1  6  0  0  0
 22 21  1  0  0  0  0
 22 19  1  1  0  0  0
 23 22  1  0  0  0  0
 24 25  1  0  0  0  0
 24 23  1  0  0  0  0
 25 29  1  6  0  0  0
 25 26  1  0  0  0  0
 26 31  1  1  0  0  0
 26 21  1  0  0  0  0
 28 27  1  0  0  0  0
 30 29  1  0  0  0  0
 31 32  1  0  0  0  0
M  END
>  <minimizedAffinity>
-5.81612158

>  <minimizedRMSD>
1.75213861

$$$$
