
 OpenBabel03252505433D

 45 48  0  0  1  0  0  0  0  0999 V2000
   42.6420   34.7990   40.2690 C   0  0  0  0  0  0  0  0  0  0  0  0
   42.4840   35.1000   38.9360 C   0  0  0  0  0  0  0  0  0  0  0  0
   41.2880   34.9770   38.2780 C   0  0  0  0  0  0  0  0  0  0  0  0
   40.2200   34.5350   38.9890 N   0  0  0  0  0  0  0  0  0  0  0  0
   40.3610   34.2320   40.3120 C   0  0  0  0  0  0  0  0  0  0  0  0
   41.5440   34.3590   40.9480 N   0  0  0  0  0  0  0  0  0  0  0  0
   43.3270   35.4470   38.3780 H   0  0  0  0  0  0  0  0  0  0  0  0
   41.1690   35.2170   37.2230 H   0  0  0  0  0  0  0  0  0  0  0  0
   43.9510   34.6450   42.3620 C   0  0  1  0  0  0  0  0  0  0  0  0
   44.1580   36.1230   41.8840 C   0  0  0  0  0  0  0  0  0  0  0  0
   43.9820   34.9240   40.9570 C   0  0  2  0  0  0  0  0  0  0  0  0
   42.9710   34.5470   42.9050 H   0  0  0  0  0  0  0  0  0  0  0  0
   45.1770   36.5330   42.0010 H   0  0  0  0  0  0  0  0  0  0  0  0
   43.2910   36.7930   41.9280 H   0  0  0  0  0  0  0  0  0  0  0  0
   44.8000   34.7930   40.2520 H   0  0  0  0  0  0  0  0  0  0  0  0
   45.0940   34.1040   43.1280 C   0  0  0  0  0  0  0  0  0  0  0  0
   46.3400   34.0230   42.4690 C   0  0  0  0  0  0  0  0  0  0  0  0
   47.4290   33.5200   43.1660 C   0  0  0  0  0  0  0  0  0  0  0  0
   47.2380   33.1330   44.4540 N   0  0  0  0  0  0  0  0  0  0  0  0
   46.0450   33.2240   45.0450 C   0  0  0  0  0  0  0  0  0  0  0  0
   45.0020   33.7090   44.3630 N   0  0  0  0  0  0  0  0  0  0  0  0
   46.4350   34.3500   41.4320 H   0  0  0  0  0  0  0  0  0  0  0  0
   48.4200   33.4390   42.6900 H   0  0  0  0  0  0  0  0  0  0  0  0
   46.0410   32.7480   46.4720 C   0  0  0  0  0  0  0  0  0  0  0  0
   45.0730   33.4020   47.2200 F   0  0  0  0  0  0  0  0  0  0  0  0
   47.2790   33.0900   47.0650 F   0  0  0  0  0  0  0  0  0  0  0  0
   45.9460   31.3840   46.5070 F   0  0  0  0  0  0  0  0  0  0  0  0
   39.2210   33.7430   41.1100 C   0  0  0  0  0  0  0  0  0  0  0  0
   38.4720   34.5850   41.1220 H   0  0  0  0  0  0  0  0  0  0  0  0
   39.5110   33.5110   42.1330 H   0  0  0  0  0  0  0  0  0  0  0  0
   38.5290   32.5850   40.4500 C   0  0  0  0  0  0  0  0  0  0  0  0
   37.4370   32.6310   40.5610 H   0  0  0  0  0  0  0  0  0  0  0  0
   38.8170   32.5920   39.3610 H   0  0  0  0  0  0  0  0  0  0  0  0
   37.8540   30.2700   41.0810 C   0  0  1  0  0  3  0  0  0  0  0  0
   38.9850   31.2770   41.0030 C   0  0  1  0  0  3  0  0  0  0  0  0
   40.0980   30.7250   40.4370 O   0  0  0  0  0  0  0  0  0  0  0  0
   40.0530   29.3410   40.3350 C   0  0  0  0  0  2  0  0  0  0  0  0
   39.6050   28.6590   41.5860 C   0  0  2  0  0  3  0  0  0  0  0  0
   38.2880   29.1960   42.0570 C   0  0  2  0  0  3  0  0  0  0  0  0
   36.6750   30.9000   41.4700 O   0  0  0  0  0  0  0  0  0  0  0  0
   35.9690   30.5920   40.8400 H   0  0  0  0  0  0  0  0  0  0  0  0
   40.5900   28.6200   42.5680 O   0  0  0  0  0  0  0  0  0  0  0  0
   40.3580   29.1380   43.3810 H   0  0  0  0  0  0  0  0  0  0  0  0
   37.3060   28.2230   42.2220 O   0  0  0  0  0  0  0  0  0  0  0  0
   36.6760   28.5520   42.9350 H   0  0  0  0  0  0  0  0  0  0  0  0
  1  6  1  0  0  0  0
  1 11  1  0  0  0  0
  2  1  2  0  0  0  0
  3  2  1  0  0  0  0
  3  4  2  0  0  0  0
  4  5  1  0  0  0  0
  5  6  2  0  0  0  0
  5 28  1  0  0  0  0
  7  2  1  0  0  0  0
  8  3  1  0  0  0  0
  9 12  1  1  0  0  0
  9 16  1  0  0  0  0
 10 14  1  0  0  0  0
 10 13  1  0  0  0  0
 10  9  1  0  0  0  0
 11 15  1  6  0  0  0
 11 10  1  0  0  0  0
 11  9  1  0  0  0  0
 16 21  1  0  0  0  0
 17 16  2  0  0  0  0
 17 18  1  0  0  0  0
 18 19  2  0  0  0  0
 19 20  1  0  0  0  0
 20 24  1  0  0  0  0
 21 20  2  0  0  0  0
 22 17  1  0  0  0  0
 23 18  1  0  0  0  0
 24 27  1  0  0  0  0
 24 26  1  0  0  0  0
 24 25  1  0  0  0  0
 28 29  1  0  0  0  0
 28 30  1  0  0  0  0
 31 32  1  0  0  0  0
 31 28  1  0  0  0  0
 33 31  1  0  0  0  0
 34 40  1  1  0  0  0
 34 39  1  0  0  0  0
 35 31  1  6  0  0  0
 35 34  1  0  0  0  0
 36 35  1  0  0  0  0
 37 36  1  0  0  0  0
 37 38  1  0  0  0  0
 38 39  1  0  0  0  0
 38 42  1  1  0  0  0
 39 44  1  6  0  0  0
 41 40  1  0  0  0  0
 42 43  1  0  0  0  0
 44 45  1  0  0  0  0
M  END
>  <minimizedAffinity>
-6.64007282

>  <minimizedRMSD>
1.6520437

$$$$
