
 OpenBabel03252505283D

 27 28  0  0  1  0  0  0  0  0999 V2000
   44.5430   35.1880   45.4580 O   0  0  0  0  0  0  0  0  0  0  0  0
   45.3620   34.3280   44.4910 P   0  0  1  0  0  0  0  0  0  0  0  0
   44.4200   33.1980   43.7060 O   0  0  0  0  0  0  0  0  0  0  0  0
   43.4920   33.5340   43.6630 H   0  0  0  0  0  0  0  0  0  0  0  0
   46.0960   35.4000   43.4090 O   0  0  0  0  0  0  0  0  0  0  0  0
   46.6300   33.9040   40.2310 C   0  0  0  0  0  0  0  0  0  0  0  0
   47.9430   34.2930   39.8640 C   0  0  0  0  0  0  0  0  0  0  0  0
   48.6340   35.1070   40.7860 C   0  0  0  0  0  0  0  0  0  0  0  0
   48.0120   35.4580   41.9400 N   0  0  0  0  0  0  0  0  0  0  0  0
   46.7590   35.0580   42.2390 C   0  0  0  0  0  0  0  0  0  0  0  0
   46.0670   34.2810   41.3820 N   0  0  0  0  0  0  0  0  0  0  0  0
   46.0800   33.2750   39.5310 H   0  0  0  0  0  0  0  0  0  0  0  0
   48.4000   33.9890   38.9320 H   0  0  0  0  0  0  0  0  0  0  0  0
   49.6410   35.4400   40.5700 H   0  0  0  0  0  0  0  0  0  0  0  0
   46.5030   33.5320   45.4480 O   0  0  0  0  0  0  0  0  0  0  0  0
   45.7450   32.7290   47.5650 C   0  0  2  0  0  3  0  0  0  0  0  0
   45.8170   32.4660   46.0720 C   0  0  2  0  0  3  0  0  0  0  0  0
   46.4910   31.3180   45.7380 O   0  0  0  0  0  0  0  0  0  0  0  0
   45.9870   30.1710   46.3090 C   0  0  0  0  0  2  0  0  0  0  0  0
   45.6780   30.3170   47.7720 C   0  0  2  0  0  3  0  0  0  0  0  0
   46.4290   31.5620   48.2500 C   0  0  1  0  0  3  0  0  0  0  0  0
   44.4280   32.7450   48.0340 O   0  0  0  0  0  0  0  0  0  0  0  0
   43.7730   32.3930   47.3900 H   0  0  0  0  0  0  0  0  0  0  0  0
   45.9890   29.2140   48.5370 O   0  0  0  0  0  0  0  0  0  0  0  0
   45.5440   29.3680   49.4230 H   0  0  0  0  0  0  0  0  0  0  0  0
   47.7370   31.5000   47.7900 O   0  0  0  0  0  0  0  0  0  0  0  0
   48.0960   32.4080   47.6150 H   0  0  0  0  0  0  0  0  0  0  0  0
  2 15  1  0  0  0  0
  2  1  2  1  0  0  0
  3  2  1  0  0  0  0
  4  3  1  0  0  0  0
  5  2  1  0  0  0  0
  6 11  1  0  0  0  0
  7  6  2  0  0  0  0
  7  8  1  0  0  0  0
  8  9  2  0  0  0  0
  9 10  1  0  0  0  0
 10  5  1  0  0  0  0
 11 10  2  0  0  0  0
 12  6  1  0  0  0  0
 13  7  1  0  0  0  0
 14  8  1  0  0  0  0
 16 22  1  1  0  0  0
 16 21  1  0  0  0  0
 17 15  1  6  0  0  0
 17 16  1  0  0  0  0
 18 17  1  0  0  0  0
 18 19  1  0  0  0  0
 19 20  1  0  0  0  0
 20 21  1  0  0  0  0
 20 24  1  1  0  0  0
 21 26  1  6  0  0  0
 23 22  1  0  0  0  0
 24 25  1  0  0  0  0
 27 26  1  0  0  0  0
M  END
>  <minimizedAffinity>
-5.73376608

>  <minimizedRMSD>
3.47199678

$$$$
