
 OpenBabel03242522503D

 29 30  0  0  1  0  0  0  0  0999 V2000
   47.4330   32.0290   48.2580 O   0  0  0  0  0  0  0  0  0  0  0  0
   45.2720   30.7210   47.5720 O   0  0  0  0  0  0  0  0  0  0  0  0
   45.7800   31.9780   48.3140 P   0  0  1  0  0  0  0  0  0  0  0  0
   45.2090   31.8370   49.8880 O   0  0  0  0  0  0  0  0  0  0  0  0
   44.5590   32.5390   50.1470 H   0  0  0  0  0  0  0  0  0  0  0  0
   45.1210   33.3380   47.5670 O   0  0  0  0  0  0  0  0  0  0  0  0
   46.9150   33.3120   44.4080 C   0  0  0  0  0  0  0  0  0  0  0  0
   46.5090   32.9840   45.7130 C   0  0  0  0  0  0  0  0  0  0  0  0
   45.4810   33.6960   46.2850 C   0  0  0  0  0  0  0  0  0  0  0  0
   44.9110   34.6800   45.5540 N   0  0  0  0  0  0  0  0  0  0  0  0
   45.2940   34.9960   44.3110 C   0  0  0  0  0  0  0  0  0  0  0  0
   46.3090   34.3010   43.7340 N   0  0  0  0  0  0  0  0  0  0  0  0
   47.7110   32.8120   43.8720 H   0  0  0  0  0  0  0  0  0  0  0  0
   47.0830   32.1830   46.1010 H   0  0  0  0  0  0  0  0  0  0  0  0
   44.8200   35.7820   43.7590 H   0  0  0  0  0  0  0  0  0  0  0  0
   48.3750   31.1420   48.6570 C   0  0  0  0  0  0  0  0  0  0  0  0
   49.3910   31.7010   49.1990 O   0  0  0  0  0  0  0  0  0  0  0  0
   50.1220   30.0240   50.0090 C   0  0  2  0  0  3  0  0  0  0  0  0
   49.0890   29.8770   48.9130 C   0  0  2  0  0  3  0  0  0  0  0  0
   49.6310   29.3420   47.7520 O   0  0  0  0  0  0  0  0  0  0  0  0
   50.9660   29.6020   47.5590 C   0  0  0  0  0  2  0  0  0  0  0  0
   51.8850   29.1520   48.6480 C   0  0  2  0  0  3  0  0  0  0  0  0
   51.0250   28.8070   49.8520 C   0  0  1  0  0  3  0  0  0  0  0  0
   49.4900   29.9900   51.2750 O   0  0  0  0  0  0  0  0  0  0  0  0
   49.5400   29.0620   51.6250 H   0  0  0  0  0  0  0  0  0  0  0  0
   52.6890   30.2310   49.0780 O   0  0  0  0  0  0  0  0  0  0  0  0
   53.1230   30.6920   48.3300 H   0  0  0  0  0  0  0  0  0  0  0  0
   51.7960   28.5680   50.9770 O   0  0  0  0  0  0  0  0  0  0  0  0
   51.5750   29.1860   51.6990 H   0  0  0  0  0  0  0  0  0  0  0  0
  1  3  1  0  0  0  0
  1 16  1  0  0  0  0
  3  2  2  6  0  0  0
  3  4  1  0  0  0  0
  4  5  1  0  0  0  0
  6  3  1  0  0  0  0
  7  8  1  0  0  0  0
  8 14  1  0  0  0  0
  8  9  2  0  0  0  0
  9  6  1  0  0  0  0
 10  9  1  0  0  0  0
 11 10  2  0  0  0  0
 12 11  1  0  0  0  0
 12  7  2  0  0  0  0
 13  7  1  0  0  0  0
 15 11  1  0  0  0  0
 16 17  2  0  0  0  0
 18 24  1  1  0  0  0
 19 16  1  6  0  0  0
 19 18  1  0  0  0  0
 20 19  1  0  0  0  0
 21 20  1  0  0  0  0
 21 22  1  0  0  0  0
 22 26  1  1  0  0  0
 22 23  1  0  0  0  0
 23 18  1  0  0  0  0
 23 28  1  1  0  0  0
 24 25  1  0  0  0  0
 27 26  1  0  0  0  0
 28 29  1  0  0  0  0
M  END
>  <minimizedAffinity>
-5.10612059

>  <minimizedRMSD>
1.18423653

$$$$
