
 OpenBabel03242522503D

 29 30  0  0  1  0  0  0  0  0999 V2000
   47.3860   31.7200   48.3410 O   0  0  0  0  0  0  0  0  0  0  0  0
   45.0990   30.6110   47.7170 O   0  0  0  0  0  0  0  0  0  0  0  0
   45.7380   31.8330   48.4160 P   0  0  1  0  0  0  0  0  0  0  0  0
   45.1770   31.7930   50.0000 O   0  0  0  0  0  0  0  0  0  0  0  0
   44.6030   32.5620   50.2450 H   0  0  0  0  0  0  0  0  0  0  0  0
   45.2040   33.2300   47.6370 O   0  0  0  0  0  0  0  0  0  0  0  0
   47.0450   33.0270   44.5110 C   0  0  0  0  0  0  0  0  0  0  0  0
   46.6160   32.7690   45.8250 C   0  0  0  0  0  0  0  0  0  0  0  0
   45.5870   33.5190   46.3450 C   0  0  0  0  0  0  0  0  0  0  0  0
   45.0380   34.4700   45.5550 N   0  0  0  0  0  0  0  0  0  0  0  0
   45.4420   34.7190   44.3050 C   0  0  0  0  0  0  0  0  0  0  0  0
   46.4580   33.9860   43.7790 N   0  0  0  0  0  0  0  0  0  0  0  0
   47.8440   32.4940   44.0130 H   0  0  0  0  0  0  0  0  0  0  0  0
   47.1760   31.9840   46.2620 H   0  0  0  0  0  0  0  0  0  0  0  0
   44.9850   35.4800   43.7060 H   0  0  0  0  0  0  0  0  0  0  0  0
   48.2350   30.7150   48.6590 C   0  0  0  0  0  0  0  0  0  0  0  0
   48.6750   30.7930   49.8590 O   0  0  0  0  0  0  0  0  0  0  0  0
   50.4510   29.8040   48.0350 C   0  0  2  0  0  3  0  0  0  0  0  0
   49.0670   29.5000   48.5650 C   0  0  2  0  0  3  0  0  0  0  0  0
   48.4380   28.4960   47.8410 O   0  0  0  0  0  0  0  0  0  0  0  0
   48.8290   28.3930   46.5280 C   0  0  0  0  0  2  0  0  0  0  0  0
   50.2900   28.1710   46.2960 C   0  0  2  0  0  3  0  0  0  0  0  0
   51.0030   28.4500   47.6060 C   0  0  1  0  0  3  0  0  0  0  0  0
   51.2550   30.3420   49.0680 O   0  0  0  0  0  0  0  0  0  0  0  0
   51.7850   29.6040   49.4700 H   0  0  0  0  0  0  0  0  0  0  0  0
   50.7890   29.1420   45.3990 O   0  0  0  0  0  0  0  0  0  0  0  0
   50.2430   29.2140   44.5880 H   0  0  0  0  0  0  0  0  0  0  0  0
   52.3790   28.4640   47.4440 O   0  0  0  0  0  0  0  0  0  0  0  0
   52.7600   29.3250   47.6980 H   0  0  0  0  0  0  0  0  0  0  0  0
  1  3  1  0  0  0  0
  1 16  1  0  0  0  0
  3  2  2  6  0  0  0
  3  4  1  0  0  0  0
  4  5  1  0  0  0  0
  6  3  1  0  0  0  0
  7  8  1  0  0  0  0
  8 14  1  0  0  0  0
  8  9  2  0  0  0  0
  9  6  1  0  0  0  0
 10  9  1  0  0  0  0
 11 10  2  0  0  0  0
 12 11  1  0  0  0  0
 12  7  2  0  0  0  0
 13  7  1  0  0  0  0
 15 11  1  0  0  0  0
 16 17  2  0  0  0  0
 18 19  1  0  0  0  0
 18 24  1  1  0  0  0
 19 16  1  6  0  0  0
 20 19  1  0  0  0  0
 21 20  1  0  0  0  0
 22 26  1  6  0  0  0
 22 21  1  0  0  0  0
 22 23  1  0  0  0  0
 23 28  1  6  0  0  0
 23 18  1  0  0  0  0
 24 25  1  0  0  0  0
 27 26  1  0  0  0  0
 28 29  1  0  0  0  0
M  END
>  <minimizedAffinity>
-4.57205582

>  <minimizedRMSD>
0.991389692

$$$$
