
 OpenBabel03252507463D

 40 42  0  0  1  0  0  0  0  0999 V2000
   48.8090   33.7720   41.4190 C   0  0  0  0  0  0  0  0  0  0  0  0
   48.7310   32.4100   41.2020 C   0  0  0  0  0  0  0  0  0  0  0  0
   49.7470   31.5540   41.6020 C   0  0  0  0  0  0  0  0  0  0  0  0
   50.8290   32.1290   42.2250 N   0  0  0  0  0  0  0  0  0  0  0  0
   50.8680   33.4600   42.4190 C   0  0  0  0  0  0  0  0  0  0  0  0
   49.8860   34.2570   42.0270 N   0  0  0  0  0  0  0  0  0  0  0  0
   49.6900   30.4880   41.4340 H   0  0  0  0  0  0  0  0  0  0  0  0
   51.7010   33.9520   42.9050 H   0  0  0  0  0  0  0  0  0  0  0  0
   47.6770   34.5950   40.9550 C   0  0  0  0  0  0  0  0  0  0  0  0
   46.9710   33.9980   40.3390 H   0  0  0  0  0  0  0  0  0  0  0  0
   48.0220   35.4340   40.3080 H   0  0  0  0  0  0  0  0  0  0  0  0
   46.8540   35.1500   42.0910 C   0  0  0  0  0  0  0  0  0  0  0  0
   47.1630   36.2050   42.2610 H   0  0  0  0  0  0  0  0  0  0  0  0
   47.0850   34.5460   42.9910 H   0  0  0  0  0  0  0  0  0  0  0  0
   45.3860   35.0390   41.8870 C   0  0  0  0  0  0  0  0  0  0  0  0
   44.4970   35.6440   42.8240 C   0  0  0  0  0  0  0  0  0  0  0  0
   42.8390   35.2330   42.1420 S   0  0  0  0  0  0  0  0  0  0  0  0
   43.6410   34.3000   40.6860 C   0  0  0  0  0  0  0  0  0  0  0  0
   44.7500   34.4300   40.9120 N   0  0  0  0  0  0  0  0  0  0  0  0
   44.7570   36.1990   43.7060 H   0  0  0  0  0  0  0  0  0  0  0  0
   42.8980   33.6750   39.6830 O   0  0  0  0  0  0  0  0  0  0  0  0
   40.9620   33.8190   37.8830 O   0  0  0  0  0  0  0  0  0  0  0  0
   41.9560   34.6650   38.6760 P   0  0  0  0  0  0  0  0  0  0  0  0
   41.1210   35.7560   39.6500 O   0  0  0  0  0  0  0  0  0  0  0  0
   40.2850   35.9840   39.1930 H   0  0  0  0  0  0  0  0  0  0  0  0
   42.9730   35.5350   37.6280 O   0  0  0  0  0  0  0  0  0  0  0  0
   42.5230   35.8920   36.8450 H   0  0  0  0  0  0  0  0  0  0  0  0
   47.2800   31.7110   40.3760 S   0  0  0  0  0  0  0  0  0  0  0  0
   49.2110   30.4330   39.0210 C   0  0  2  0  0  3  0  0  0  0  0  0
   47.7660   30.9110   38.8570 C   0  0  2  0  0  3  0  0  0  0  0  0
   47.6720   31.8580   37.8350 O   0  0  0  0  0  0  0  0  0  0  0  0
   48.7550   32.7250   37.9810 C   0  0  0  0  0  2  0  0  0  0  0  0
   49.9180   32.0800   37.2630 C   0  0  2  0  0  3  0  0  0  0  0  0
   49.9960   30.6440   37.7470 C   0  0  1  0  0  3  0  0  0  0  0  0
   49.2240   29.0650   39.2880 O   0  0  0  0  0  0  0  0  0  0  0  0
   50.1510   28.7830   39.3230 H   0  0  0  0  0  0  0  0  0  0  0  0
   51.1010   32.7850   37.4840 O   0  0  0  0  0  0  0  0  0  0  0  0
   51.8940   32.2170   37.3340 H   0  0  0  0  0  0  0  0  0  0  0  0
   51.3200   30.3240   38.0140 O   0  0  0  0  0  0  0  0  0  0  0  0
   51.5500   30.2600   38.9590 H   0  0  0  0  0  0  0  0  0  0  0  0
  1  6  1  0  0  0  0
  2  1  2  0  0  0  0
  2  3  1  0  0  0  0
  3  4  2  0  0  0  0
  4  5  1  0  0  0  0
  5  8  1  0  0  0  0
  6  5  2  0  0  0  0
  7  3  1  0  0  0  0
  9  1  1  0  0  0  0
  9 12  1  0  0  0  0
 10  9  1  0  0  0  0
 11  9  1  0  0  0  0
 12 13  1  0  0  0  0
 12 14  1  0  0  0  0
 15 12  1  0  0  0  0
 15 16  2  0  0  0  0
 16 20  1  0  0  0  0
 17 16  1  0  0  0  0
 18 19  2  0  0  0  0
 18 17  1  0  0  0  0
 19 15  1  0  0  0  0
 21 18  1  0  0  0  0
 22 23  2  0  0  0  0
 23 24  1  0  0  0  0
 23 21  1  0  0  0  0
 25 24  1  0  0  0  0
 26 23  1  0  0  0  0
 27 26  1  0  0  0  0
 28  2  1  0  0  0  0
 29 35  1  6  0  0  0
 30 29  1  0  0  0  0
 30 28  1  1  0  0  0
 31 32  1  0  0  0  0
 31 30  1  0  0  0  0
 33 37  1  1  0  0  0
 33 34  1  0  0  0  0
 33 32  1  0  0  0  0
 34 39  1  1  0  0  0
 34 29  1  0  0  0  0
 35 36  1  0  0  0  0
 38 37  1  0  0  0  0
 39 40  1  0  0  0  0
M  END
>  <minimizedAffinity>
-5.03764343

>  <minimizedRMSD>
1.52785885

$$$$
