
 OpenBabel03252509003D

 48 50  0  0  1  0  0  0  0  0999 V2000
   47.1290   34.0820   43.0910 N   0  0  0  0  0  0  0  0  0  0  0  0
   46.7210   35.3590   42.6260 C   0  0  0  0  0  0  0  0  0  0  0  0
   45.2660   35.6980   42.8630 C   0  0  0  0  0  0  0  0  0  0  0  0
   44.6840   35.1060   44.1130 C   0  0  0  0  0  0  0  0  0  0  0  0
   45.7300   34.3790   44.9240 C   0  0  0  0  0  0  0  0  0  0  0  0
   46.3040   33.3270   43.9100 C   0  0  2  0  0  0  0  0  0  0  0  0
   46.9260   35.5770   41.5740 H   0  0  0  0  0  0  0  0  0  0  0  0
   47.3130   36.1270   43.2040 H   0  0  0  0  0  0  0  0  0  0  0  0
   44.6780   35.4320   41.9510 H   0  0  0  0  0  0  0  0  0  0  0  0
   45.1610   36.8110   42.9300 H   0  0  0  0  0  0  0  0  0  0  0  0
   44.1270   35.8570   44.7240 H   0  0  0  0  0  0  0  0  0  0  0  0
   43.9350   34.3450   43.8090 H   0  0  0  0  0  0  0  0  0  0  0  0
   46.5340   35.0130   45.3020 H   0  0  0  0  0  0  0  0  0  0  0  0
   45.1940   33.7800   45.6740 H   0  0  0  0  0  0  0  0  0  0  0  0
   45.4170   32.8360   43.4730 H   0  0  0  0  0  0  0  0  0  0  0  0
   48.0510   33.4070   42.2260 C   0  0  0  0  0  0  0  0  0  0  0  0
   48.7870   34.1370   41.8640 H   0  0  0  0  0  0  0  0  0  0  0  0
   48.5870   32.6460   42.8470 H   0  0  0  0  0  0  0  0  0  0  0  0
   47.2800   32.6890   41.1620 C   0  0  0  0  0  0  0  0  0  0  0  0
   46.2420   33.0760   41.1020 H   0  0  0  0  0  0  0  0  0  0  0  0
   47.2010   31.6140   41.3240 H   0  0  0  0  0  0  0  0  0  0  0  0
   49.3120   32.2630   38.0310 C   0  0  0  0  0  0  0  0  0  0  0  0
   48.7200   32.0120   39.2840 C   0  0  0  0  0  0  0  0  0  0  0  0
   47.9000   32.9670   39.8390 C   0  0  0  0  0  0  0  0  0  0  0  0
   47.7080   34.1010   39.1480 N   0  0  0  0  0  0  0  0  0  0  0  0
   48.2790   34.3280   37.9550 C   0  0  0  0  0  0  0  0  0  0  0  0
   49.0800   33.4220   37.3860 N   0  0  0  0  0  0  0  0  0  0  0  0
   49.9340   31.4660   37.6730 H   0  0  0  0  0  0  0  0  0  0  0  0
   48.8970   31.0850   39.8130 H   0  0  0  0  0  0  0  0  0  0  0  0
   48.0260   35.2930   37.5210 H   0  0  0  0  0  0  0  0  0  0  0  0
   47.0370   32.4960   44.7510 O   0  0  0  0  0  0  0  0  0  0  0  0
   45.2540   30.6960   43.9520 O   0  0  0  0  0  0  0  0  0  0  0  0
   46.2680   31.0270   45.0410 P   0  0  2  0  0  0  0  0  0  0  0  0
   45.3390   31.2530   46.4610 O   0  0  0  0  0  0  0  0  0  0  0  0
   44.4420   31.5990   46.2210 H   0  0  0  0  0  0  0  0  0  0  0  0
   47.3270   29.7760   45.3240 O   0  0  0  0  0  0  0  0  0  0  0  0
   48.4830   29.2420   43.3580 C   0  0  2  0  0  3  0  0  0  0  0  0
   48.5630   29.9150   44.7280 C   0  0  2  0  0  3  0  0  0  0  0  0
   49.5110   29.2890   45.5360 O   0  0  0  0  0  0  0  0  0  0  0  0
   50.7150   29.1130   44.8600 C   0  0  0  0  0  2  0  0  0  0  0  0
   50.6090   28.1140   43.7330 C   0  0  1  0  0  3  0  0  0  0  0  0
   49.1250   27.8800   43.4790 C   0  0  1  0  0  3  0  0  0  0  0  0
   49.1650   30.0600   42.4420 O   0  0  0  0  0  0  0  0  0  0  0  0
   49.4360   30.9300   42.8680 H   0  0  0  0  0  0  0  0  0  0  0  0
   51.1910   28.6190   42.5560 O   0  0  0  0  0  0  0  0  0  0  0  0
   50.7900   28.0800   41.8260 H   0  0  0  0  0  0  0  0  0  0  0  0
   48.6390   27.2880   44.6540 O   0  0  0  0  0  0  0  0  0  0  0  0
   48.0370   26.5250   44.4610 H   0  0  0  0  0  0  0  0  0  0  0  0
  1  6  1  0  0  0  0
  2  3  1  0  0  0  0
  2  1  1  0  0  0  0
  2  8  1  0  0  0  0
  3 10  1  0  0  0  0
  3  4  1  0  0  0  0
  4 11  1  0  0  0  0
  4  5  1  0  0  0  0
  5 13  1  0  0  0  0
  5 14  1  0  0  0  0
  6 15  1  6  0  0  0
  6 31  1  0  0  0  0
  6  5  1  0  0  0  0
  7  2  1  0  0  0  0
  9  3  1  0  0  0  0
 12  4  1  0  0  0  0
 16 18  1  0  0  0  0
 16  1  1  0  0  0  0
 17 16  1  0  0  0  0
 19 21  1  0  0  0  0
 19 16  1  0  0  0  0
 20 19  1  0  0  0  0
 22 23  1  0  0  0  0
 23 29  1  0  0  0  0
 23 24  2  0  0  0  0
 24 19  1  0  0  0  0
 25 24  1  0  0  0  0
 26 25  2  0  0  0  0
 27 26  1  0  0  0  0
 27 22  2  0  0  0  0
 28 22  1  0  0  0  0
 30 26  1  0  0  0  0
 31 33  1  0  0  0  0
 33 32  2  6  0  0  0
 33 36  1  0  0  0  0
 33 34  1  0  0  0  0
 35 34  1  0  0  0  0
 37 43  1  6  0  0  0
 37 42  1  0  0  0  0
 37 38  1  0  0  0  0
 38 36  1  1  0  0  0
 38 39  1  0  0  0  0
 40 39  1  0  0  0  0
 41 45  1  6  0  0  0
 41 40  1  0  0  0  0
 42 41  1  0  0  0  0
 42 47  1  1  0  0  0
 43 44  1  0  0  0  0
 46 45  1  0  0  0  0
 48 47  1  0  0  0  0
M  END
>  <minimizedAffinity>
-3.92571378

>  <minimizedRMSD>
0.887162924

$$$$
