
 OpenBabel03252508463D

 48 50  0  0  1  0  0  0  0  0999 V2000
   42.7020   31.5350   42.5670 N   0  0  0  0  0  0  0  0  0  0  0  0
   42.8810   31.9080   43.5400 H   0  0  0  0  0  0  0  0  0  0  0  0
   43.0470   32.5570   41.6330 C   0  0  0  0  0  0  0  0  0  0  0  0
   43.5220   32.1620   40.7030 H   0  0  0  0  0  0  0  0  0  0  0  0
   42.0810   33.0380   41.3150 H   0  0  0  0  0  0  0  0  0  0  0  0
   43.6560   34.9660   41.8830 C   0  0  0  0  0  0  0  0  0  0  0  0
   43.9050   33.6420   42.1820 C   0  0  0  0  0  0  0  0  0  0  0  0
   44.9770   33.3470   43.0060 C   0  0  0  0  0  0  0  0  0  0  0  0
   45.7630   34.3470   43.5070 C   0  0  0  0  0  0  0  0  0  0  0  0
   45.5230   35.6700   43.2150 C   0  0  0  0  0  0  0  0  0  0  0  0
   44.4470   35.9210   42.3910 C   0  0  0  0  0  0  0  0  0  0  0  0
   45.1740   32.3000   43.2430 H   0  0  0  0  0  0  0  0  0  0  0  0
   46.5800   34.0290   44.1420 H   0  0  0  0  0  0  0  0  0  0  0  0
   46.1590   36.4550   43.6220 H   0  0  0  0  0  0  0  0  0  0  0  0
   44.2020   36.9480   42.1210 H   0  0  0  0  0  0  0  0  0  0  0  0
   40.2320   35.8050   40.5190 C   0  0  0  0  0  0  0  0  0  0  0  0
   41.2620   35.5860   41.4520 C   0  0  0  0  0  0  0  0  0  0  0  0
   42.5130   35.2190   41.0090 C   0  0  0  0  0  0  0  0  0  0  0  0
   42.6820   35.0860   39.6620 N   0  0  0  0  0  0  0  0  0  0  0  0
   41.6820   35.3000   38.7720 C   0  0  0  0  0  0  0  0  0  0  0  0
   40.4680   35.6570   39.2150 N   0  0  0  0  0  0  0  0  0  0  0  0
   39.2520   36.0960   40.9220 H   0  0  0  0  0  0  0  0  0  0  0  0
   41.1440   35.6870   42.5140 H   0  0  0  0  0  0  0  0  0  0  0  0
   41.8720   35.1790   37.7050 H   0  0  0  0  0  0  0  0  0  0  0  0
   41.0270   31.1590   42.5490 S   0  0  0  0  0  0  0  0  0  0  0  0
   40.1970   32.4080   42.4670 O   0  0  0  0  0  0  0  0  0  0  0  0
   39.6030   32.6680   43.1930 H   0  0  0  0  0  0  0  0  0  0  0  0
   40.6440   30.3430   43.7430 O   0  0  0  0  0  0  0  0  0  0  0  0
   40.7420   30.7030   44.6470 H   0  0  0  0  0  0  0  0  0  0  0  0
   40.7600   30.2390   41.1690 O   0  0  0  0  0  0  0  0  0  0  0  0
   39.5720   29.5290   41.3350 C   0  0  0  0  0  0  0  0  0  0  0  0
   38.8930   29.8960   40.5370 H   0  0  0  0  0  0  0  0  0  0  0  0
   39.1000   29.6730   42.3140 H   0  0  0  0  0  0  0  0  0  0  0  0
   39.8480   28.0610   41.0420 C   0  0  0  0  0  0  0  0  0  0  0  0
   40.0900   27.9570   39.9740 H   0  0  0  0  0  0  0  0  0  0  0  0
   40.6850   27.6920   41.6860 H   0  0  0  0  0  0  0  0  0  0  0  0
   38.8230   25.8140   41.3990 C   0  0  2  0  0  3  0  0  0  0  0  0
   38.6120   27.2860   41.4370 C   0  0  2  0  0  3  0  0  0  0  0  0
   37.5890   27.7360   40.6110 O   0  0  0  0  0  0  0  0  0  0  0  0
   36.4560   26.9610   40.6370 C   0  0  0  0  0  2  0  0  0  0  0  0
   36.7040   25.5830   40.0730 C   0  0  1  0  0  3  0  0  0  0  0  0
   38.0960   25.0970   40.2890 C   0  0  2  0  0  3  0  0  0  0  0  0
   38.4520   25.2170   42.6300 O   0  0  0  0  0  0  0  0  0  0  0  0
   38.3860   25.8870   43.3390 H   0  0  0  0  0  0  0  0  0  0  0  0
   35.7960   24.6490   40.5740 O   0  0  0  0  0  0  0  0  0  0  0  0
   36.1360   23.7540   40.3160 H   0  0  0  0  0  0  0  0  0  0  0  0
   38.0620   23.7410   40.6900 O   0  0  0  0  0  0  0  0  0  0  0  0
   39.0290   23.5370   40.9010 H   0  0  0  0  0  0  0  0  0  0  0  0
  1  2  1  0  0  0  0
  3  7  1  0  0  0  0
  3  1  1  0  0  0  0
  4  3  1  0  0  0  0
  5  3  1  0  0  0  0
  6  7  2  0  0  0  0
  6 11  1  0  0  0  0
  7  8  1  0  0  0  0
  8 12  1  0  0  0  0
  8  9  2  0  0  0  0
  9 13  1  0  0  0  0
 10  9  1  0  0  0  0
 10 14  1  0  0  0  0
 11 10  2  0  0  0  0
 15 11  1  0  0  0  0
 16 22  1  0  0  0  0
 16 17  1  0  0  0  0
 17 23  1  0  0  0  0
 18 17  2  0  0  0  0
 18  6  1  0  0  0  0
 19 18  1  0  0  0  0
 20 21  1  0  0  0  0
 20 19  2  0  0  0  0
 21 16  2  0  0  0  0
 24 20  1  0  0  0  0
 25  1  1  0  0  0  0
 25 28  1  0  0  0  0
 26 25  1  0  0  0  0
 26 27  1  0  0  0  0
 28 29  1  0  0  0  0
 30 31  1  0  0  0  0
 30 25  1  0  0  0  0
 31 33  1  0  0  0  0
 32 31  1  0  0  0  0
 34 31  1  0  0  0  0
 34 36  1  0  0  0  0
 35 34  1  0  0  0  0
 37 38  1  0  0  0  0
 37 43  1  1  0  0  0
 38 34  1  6  0  0  0
 39 40  1  0  0  0  0
 39 38  1  0  0  0  0
 41 42  1  0  0  0  0
 41 45  1  1  0  0  0
 41 40  1  0  0  0  0
 42 47  1  1  0  0  0
 42 37  1  0  0  0  0
 43 44  1  0  0  0  0
 46 45  1  0  0  0  0
 47 48  1  0  0  0  0
M  END
>  <minimizedAffinity>
-5.32738018

>  <minimizedRMSD>
1.09275222

$$$$
