
 OpenBabel03252500283D

 46 48  0  0  1  0  0  0  0  0999 V2000
   46.9960   33.4440   46.1870 O   0  0  0  0  0  0  0  0  0  0  0  0
   45.5530   33.0840   46.2140 P   0  0  1  0  0  0  0  0  0  0  0  0
   45.2280   32.0110   44.9440 O   0  0  0  0  0  0  0  0  0  0  0  0
   45.7900   32.3020   44.1820 H   0  0  0  0  0  0  0  0  0  0  0  0
   45.2570   32.3450   47.6580 O   0  0  0  0  0  0  0  0  0  0  0  0
   47.3100   31.1290   47.7710 C   0  0  2  0  0  0  0  0  0  0  0  0
   45.8300   31.1020   47.6780 C   0  0  2  0  0  0  0  0  0  0  0  0
   45.5080   30.2960   46.5210 C   0  0  0  0  0  0  0  0  0  0  0  0
   46.5960   29.4570   46.2390 O   0  0  0  0  0  0  0  0  0  0  0  0
   47.4860   29.6520   47.2390 C   0  0  0  0  0  0  0  0  0  0  0  0
   47.8780   31.5810   46.9410 H   0  0  0  0  0  0  0  0  0  0  0  0
   45.5320   30.6980   48.6930 H   0  0  0  0  0  0  0  0  0  0  0  0
   44.8190   29.4850   46.9540 H   0  0  0  0  0  0  0  0  0  0  0  0
   44.8730   30.5840   45.7110 H   0  0  0  0  0  0  0  0  0  0  0  0
   47.1520   29.0500   48.1290 H   0  0  0  0  0  0  0  0  0  0  0  0
   48.5340   29.4360   47.0550 H   0  0  0  0  0  0  0  0  0  0  0  0
   47.8490   31.1840   49.0020 O   0  0  0  0  0  0  0  0  0  0  0  0
   49.1030   31.4280   49.2720 C   0  0  0  0  0  0  0  0  0  0  0  0
   49.5180   32.4070   49.3350 H   0  0  0  0  0  0  0  0  0  0  0  0
   49.6620   31.0350   48.2690 H   0  0  0  0  0  0  0  0  0  0  0  0
   49.6020   30.3690   50.2480 C   0  0  0  0  0  0  0  0  0  0  0  0
   50.6380   30.5980   50.5780 H   0  0  0  0  0  0  0  0  0  0  0  0
   49.5950   29.3670   49.7810 H   0  0  0  0  0  0  0  0  0  0  0  0
   48.9260   30.4120   51.1260 H   0  0  0  0  0  0  0  0  0  0  0  0
   44.7030   34.5550   46.0350 O   0  0  0  0  0  0  0  0  0  0  0  0
   45.2160   37.2350   43.7150 C   0  0  0  0  0  0  0  0  0  0  0  0
   44.6910   36.7370   42.4810 C   0  0  0  0  0  0  0  0  0  0  0  0
   44.1640   35.4420   42.5270 C   0  0  0  0  0  0  0  0  0  0  0  0
   44.1770   34.7530   43.6840 N   0  0  0  0  0  0  0  0  0  0  0  0
   44.6840   35.2620   44.8220 C   0  0  0  0  0  0  0  0  0  0  0  0
   45.2010   36.4990   44.8390 N   0  0  0  0  0  0  0  0  0  0  0  0
   44.6980   37.3120   41.5880 H   0  0  0  0  0  0  0  0  0  0  0  0
   43.7550   35.0240   41.6130 H   0  0  0  0  0  0  0  0  0  0  0  0
   45.7480   38.5040   43.7340 O   0  0  0  0  0  0  0  0  0  0  0  0
   45.3500   39.6010   45.8230 C   0  0  1  0  0  3  0  0  0  0  0  0
   45.0710   39.5890   44.3510 C   0  0  1  0  0  3  0  0  0  0  0  0
   45.4690   40.7770   43.7670 O   0  0  0  0  0  0  0  0  0  0  0  0
   44.6010   41.8250   44.0820 C   0  0  0  0  0  2  0  0  0  0  0  0
   44.0160   41.6200   45.4750 C   0  0  1  0  0  3  0  0  0  0  0  0
   45.0500   40.9790   46.3610 C   0  0  1  0  0  3  0  0  0  0  0  0
   44.5930   38.6300   46.5040 O   0  0  0  0  0  0  0  0  0  0  0  0
   45.2030   38.0770   47.0780 H   0  0  0  0  0  0  0  0  0  0  0  0
   43.6300   42.8560   45.9530 O   0  0  0  0  0  0  0  0  0  0  0  0
   43.5800   42.7880   46.9350 H   0  0  0  0  0  0  0  0  0  0  0  0
   44.6080   40.8830   47.6670 O   0  0  0  0  0  0  0  0  0  0  0  0
   45.1540   41.3930   48.3230 H   0  0  0  0  0  0  0  0  0  0  0  0
  2  1  2  6  0  0  0
  2  5  1  0  0  0  0
  3  2  1  0  0  0  0
  4  3  1  0  0  0  0
  5  7  1  0  0  0  0
  6 11  1  6  0  0  0
  6 17  1  0  0  0  0
  7  6  1  0  0  0  0
  7 12  1  1  0  0  0
  8 13  1  0  0  0  0
  8  7  1  0  0  0  0
  9  8  1  0  0  0  0
  9 10  1  0  0  0  0
 10  6  1  0  0  0  0
 10 15  1  0  0  0  0
 14  8  1  0  0  0  0
 16 10  1  0  0  0  0
 17 18  1  0  0  0  0
 18 19  1  0  0  0  0
 18 21  1  0  0  0  0
 20 18  1  0  0  0  0
 21 22  1  0  0  0  0
 21 24  1  0  0  0  0
 23 21  1  0  0  0  0
 25  2  1  0  0  0  0
 26 34  1  0  0  0  0
 26 31  1  0  0  0  0
 27 28  1  0  0  0  0
 27 26  2  0  0  0  0
 28 29  2  0  0  0  0
 29 30  1  0  0  0  0
 30 31  2  0  0  0  0
 30 25  1  0  0  0  0
 32 27  1  0  0  0  0
 33 28  1  0  0  0  0
 35 40  1  0  0  0  0
 35 41  1  1  0  0  0
 36 34  1  6  0  0  0
 36 35  1  0  0  0  0
 37 38  1  0  0  0  0
 37 36  1  0  0  0  0
 38 39  1  0  0  0  0
 39 43  1  1  0  0  0
 39 40  1  0  0  0  0
 40 45  1  1  0  0  0
 41 42  1  0  0  0  0
 43 44  1  0  0  0  0
 45 46  1  0  0  0  0
M  END
>  <minimizedAffinity>
-2.07690001

>  <minimizedRMSD>
1.26111376

$$$$
