
 OpenBabel03252505433D

 45 48  0  0  1  0  0  0  0  0999 V2000
   42.5890   34.5890   40.3310 C   0  0  0  0  0  0  0  0  0  0  0  0
   42.3810   34.8450   38.9960 C   0  0  0  0  0  0  0  0  0  0  0  0
   41.1690   34.6690   38.3800 C   0  0  0  0  0  0  0  0  0  0  0  0
   40.1370   34.2200   39.1370 N   0  0  0  0  0  0  0  0  0  0  0  0
   40.3270   33.9610   40.4640 C   0  0  0  0  0  0  0  0  0  0  0  0
   41.5260   34.1400   41.0580 N   0  0  0  0  0  0  0  0  0  0  0  0
   43.1960   35.1970   38.4010 H   0  0  0  0  0  0  0  0  0  0  0  0
   41.0100   34.8730   37.3230 H   0  0  0  0  0  0  0  0  0  0  0  0
   43.9500   34.6130   42.3970 C   0  0  1  0  0  0  0  0  0  0  0  0
   44.1430   36.0440   41.7900 C   0  0  0  0  0  0  0  0  0  0  0  0
   43.9460   34.7710   40.9730 C   0  0  2  0  0  0  0  0  0  0  0  0
   42.9850   34.5620   42.9700 H   0  0  0  0  0  0  0  0  0  0  0  0
   45.1630   36.4620   41.8460 H   0  0  0  0  0  0  0  0  0  0  0  0
   43.2760   36.7160   41.7980 H   0  0  0  0  0  0  0  0  0  0  0  0
   44.7460   34.5800   40.2610 H   0  0  0  0  0  0  0  0  0  0  0  0
   45.1130   34.1380   43.1770 C   0  0  0  0  0  0  0  0  0  0  0  0
   46.3780   34.1800   42.5510 C   0  0  0  0  0  0  0  0  0  0  0  0
   47.4860   33.7420   43.2630 C   0  0  0  0  0  0  0  0  0  0  0  0
   47.2930   33.2950   44.5310 N   0  0  0  0  0  0  0  0  0  0  0  0
   46.0820   33.2710   45.0900 C   0  0  0  0  0  0  0  0  0  0  0  0
   45.0210   33.6940   44.3950 N   0  0  0  0  0  0  0  0  0  0  0  0
   46.4730   34.5500   41.5290 H   0  0  0  0  0  0  0  0  0  0  0  0
   48.4920   33.7570   42.8130 H   0  0  0  0  0  0  0  0  0  0  0  0
   46.0800   32.7450   46.4990 C   0  0  0  0  0  0  0  0  0  0  0  0
   45.1130   33.3740   47.2710 F   0  0  0  0  0  0  0  0  0  0  0  0
   47.3180   33.0660   47.1030 F   0  0  0  0  0  0  0  0  0  0  0  0
   45.9840   31.3810   46.4880 F   0  0  0  0  0  0  0  0  0  0  0  0
   39.2270   33.4660   41.3120 C   0  0  0  0  0  0  0  0  0  0  0  0
   38.5350   34.3430   41.4600 H   0  0  0  0  0  0  0  0  0  0  0  0
   39.5830   33.1270   42.2830 H   0  0  0  0  0  0  0  0  0  0  0  0
   38.4130   32.4110   40.6180 C   0  0  0  0  0  0  0  0  0  0  0  0
   37.3400   32.5010   40.8340 H   0  0  0  0  0  0  0  0  0  0  0  0
   38.6040   32.5080   39.5120 H   0  0  0  0  0  0  0  0  0  0  0  0
   37.6730   30.0690   41.0410 C   0  0  1  0  0  3  0  0  0  0  0  0
   38.8400   31.0360   41.0050 C   0  0  1  0  0  3  0  0  0  0  0  0
   39.8980   30.5070   40.3260 O   0  0  0  0  0  0  0  0  0  0  0  0
   39.7890   29.1430   40.0830 C   0  0  0  0  0  2  0  0  0  0  0  0
   39.3770   28.3500   41.2790 C   0  0  2  0  0  3  0  0  0  0  0  0
   38.1090   28.8830   41.8750 C   0  0  2  0  0  3  0  0  0  0  0  0
   36.5430   30.6980   41.5580 O   0  0  0  0  0  0  0  0  0  0  0  0
   35.7940   30.4850   40.9380 H   0  0  0  0  0  0  0  0  0  0  0  0
   40.4070   28.1710   42.1960 O   0  0  0  0  0  0  0  0  0  0  0  0
   40.2390   28.6070   43.0710 H   0  0  0  0  0  0  0  0  0  0  0  0
   37.0970   27.9340   41.9910 O   0  0  0  0  0  0  0  0  0  0  0  0
   36.5170   28.2100   42.7680 H   0  0  0  0  0  0  0  0  0  0  0  0
  1 11  1  0  0  0  0
  1  6  1  0  0  0  0
  2  1  2  0  0  0  0
  3  2  1  0  0  0  0
  3  4  2  0  0  0  0
  4  5  1  0  0  0  0
  5  6  2  0  0  0  0
  5 28  1  0  0  0  0
  7  2  1  0  0  0  0
  8  3  1  0  0  0  0
  9 12  1  1  0  0  0
  9 16  1  0  0  0  0
 10 14  1  0  0  0  0
 10 13  1  0  0  0  0
 10  9  1  0  0  0  0
 11 15  1  6  0  0  0
 11 10  1  0  0  0  0
 11  9  1  0  0  0  0
 16 21  1  0  0  0  0
 17 16  2  0  0  0  0
 17 18  1  0  0  0  0
 18 19  2  0  0  0  0
 19 20  1  0  0  0  0
 20 24  1  0  0  0  0
 21 20  2  0  0  0  0
 22 17  1  0  0  0  0
 23 18  1  0  0  0  0
 24 26  1  0  0  0  0
 24 25  1  0  0  0  0
 27 24  1  0  0  0  0
 28 29  1  0  0  0  0
 28 30  1  0  0  0  0
 31 32  1  0  0  0  0
 31 28  1  0  0  0  0
 33 31  1  0  0  0  0
 34 40  1  1  0  0  0
 34 39  1  0  0  0  0
 35 31  1  6  0  0  0
 35 34  1  0  0  0  0
 36 35  1  0  0  0  0
 37 36  1  0  0  0  0
 37 38  1  0  0  0  0
 38 39  1  0  0  0  0
 38 42  1  1  0  0  0
 39 44  1  6  0  0  0
 41 40  1  0  0  0  0
 42 43  1  0  0  0  0
 44 45  1  0  0  0  0
M  END
>  <minimizedAffinity>
-6.71793747

>  <minimizedRMSD>
2.05498981

$$$$
