
 OpenBabel03252508473D

 48 50  0  0  1  0  0  0  0  0999 V2000
   42.4600   31.8680   42.5800 N   0  0  0  0  0  0  0  0  0  0  0  0
   42.4670   32.4440   43.4660 H   0  0  0  0  0  0  0  0  0  0  0  0
   43.1640   32.5950   41.5760 C   0  0  0  0  0  0  0  0  0  0  0  0
   43.8530   31.9580   40.9700 H   0  0  0  0  0  0  0  0  0  0  0  0
   42.3880   32.9870   40.8620 H   0  0  0  0  0  0  0  0  0  0  0  0
   43.5560   35.0570   41.7200 C   0  0  0  0  0  0  0  0  0  0  0  0
   43.9230   33.7740   42.0740 C   0  0  0  0  0  0  0  0  0  0  0  0
   45.0170   33.6110   42.9050 C   0  0  0  0  0  0  0  0  0  0  0  0
   45.7110   34.6970   43.3590 C   0  0  0  0  0  0  0  0  0  0  0  0
   45.3540   35.9800   43.0140 C   0  0  0  0  0  0  0  0  0  0  0  0
   44.2590   36.0990   42.1840 C   0  0  0  0  0  0  0  0  0  0  0  0
   45.3070   32.5970   43.1840 H   0  0  0  0  0  0  0  0  0  0  0  0
   46.5540   34.4800   44.0040 H   0  0  0  0  0  0  0  0  0  0  0  0
   45.9180   36.8350   43.3840 H   0  0  0  0  0  0  0  0  0  0  0  0
   43.9240   37.0880   41.8720 H   0  0  0  0  0  0  0  0  0  0  0  0
   40.0900   35.6230   40.3250 C   0  0  0  0  0  0  0  0  0  0  0  0
   41.1370   35.5470   41.2600 C   0  0  0  0  0  0  0  0  0  0  0  0
   42.3950   35.1700   40.8420 C   0  0  0  0  0  0  0  0  0  0  0  0
   42.5510   34.8870   39.5170 N   0  0  0  0  0  0  0  0  0  0  0  0
   41.5330   34.9640   38.6250 C   0  0  0  0  0  0  0  0  0  0  0  0
   40.3140   35.3320   39.0430 N   0  0  0  0  0  0  0  0  0  0  0  0
   39.1050   35.9270   40.7070 H   0  0  0  0  0  0  0  0  0  0  0  0
   41.0300   35.7660   42.3050 H   0  0  0  0  0  0  0  0  0  0  0  0
   41.7140   34.7270   37.5760 H   0  0  0  0  0  0  0  0  0  0  0  0
   40.7950   31.6670   42.2080 S   0  0  0  0  0  0  0  0  0  0  0  0
   39.9780   32.7900   42.7800 O   0  0  0  0  0  0  0  0  0  0  0  0
   39.3130   32.6290   43.4710 H   0  0  0  0  0  0  0  0  0  0  0  0
   40.2910   30.3440   42.6880 O   0  0  0  0  0  0  0  0  0  0  0  0
   40.2940   30.1230   43.6410 H   0  0  0  0  0  0  0  0  0  0  0  0
   40.6730   31.7070   40.5330 O   0  0  0  0  0  0  0  0  0  0  0  0
   39.3450   31.9630   40.1940 C   0  0  0  0  0  0  0  0  0  0  0  0
   39.3280   33.0130   39.8360 H   0  0  0  0  0  0  0  0  0  0  0  0
   38.6420   31.8470   41.0270 H   0  0  0  0  0  0  0  0  0  0  0  0
   38.9770   31.0850   39.0060 C   0  0  0  0  0  0  0  0  0  0  0  0
   38.8470   31.7270   38.1230 H   0  0  0  0  0  0  0  0  0  0  0  0
   39.7730   30.3170   38.8360 H   0  0  0  0  0  0  0  0  0  0  0  0
   37.6360   30.0340   40.8290 C   0  0  2  0  0  3  0  0  0  0  0  0
   37.7160   30.3390   39.3750 C   0  0  2  0  0  3  0  0  0  0  0  0
   37.6740   29.2150   38.5560 O   0  0  0  0  0  0  0  0  0  0  0  0
   36.7440   28.2770   38.9290 C   0  0  0  0  0  2  0  0  0  0  0  0
   37.0750   27.6530   40.2630 C   0  0  1  0  0  3  0  0  0  0  0  0
   37.7960   28.5780   41.1840 C   0  0  2  0  0  3  0  0  0  0  0  0
   36.4090   30.4900   41.3740 O   0  0  0  0  0  0  0  0  0  0  0  0
   35.9780   31.1350   40.7780 H   0  0  0  0  0  0  0  0  0  0  0  0
   35.9380   27.1510   40.8960 O   0  0  0  0  0  0  0  0  0  0  0  0
   36.1990   26.9400   41.8270 H   0  0  0  0  0  0  0  0  0  0  0  0
   37.2580   28.4560   42.4860 O   0  0  0  0  0  0  0  0  0  0  0  0
   37.7370   29.1780   43.0060 H   0  0  0  0  0  0  0  0  0  0  0  0
  1  2  1  0  0  0  0
  3  7  1  0  0  0  0
  3  1  1  0  0  0  0
  4  3  1  0  0  0  0
  5  3  1  0  0  0  0
  6  7  2  0  0  0  0
  6 11  1  0  0  0  0
  7  8  1  0  0  0  0
  8 12  1  0  0  0  0
  8  9  2  0  0  0  0
  9 13  1  0  0  0  0
 10  9  1  0  0  0  0
 10 14  1  0  0  0  0
 11 10  2  0  0  0  0
 15 11  1  0  0  0  0
 16 22  1  0  0  0  0
 16 17  1  0  0  0  0
 17 23  1  0  0  0  0
 18 17  2  0  0  0  0
 18  6  1  0  0  0  0
 19 18  1  0  0  0  0
 20 21  1  0  0  0  0
 20 19  2  0  0  0  0
 21 16  2  0  0  0  0
 24 20  1  0  0  0  0
 25  1  1  0  0  0  0
 25 28  1  0  0  0  0
 25 26  1  0  0  0  0
 26 27  1  0  0  0  0
 28 29  1  0  0  0  0
 30 25  1  0  0  0  0
 31 30  1  0  0  0  0
 31 33  1  0  0  0  0
 32 31  1  0  0  0  0
 34 31  1  0  0  0  0
 35 34  1  0  0  0  0
 36 34  1  0  0  0  0
 37 42  1  0  0  0  0
 37 43  1  6  0  0  0
 38 34  1  1  0  0  0
 38 37  1  0  0  0  0
 39 40  1  0  0  0  0
 39 38  1  0  0  0  0
 40 41  1  0  0  0  0
 41 45  1  1  0  0  0
 41 42  1  0  0  0  0
 42 47  1  1  0  0  0
 44 43  1  0  0  0  0
 45 46  1  0  0  0  0
 47 48  1  0  0  0  0
M  END
>  <minimizedAffinity>
-6.30988312

>  <minimizedRMSD>
2.84561038

$$$$
