
 OpenBabel03242521433D

 41 43  0  0  1  0  0  0  0  0999 V2000
   45.1980   35.8000   44.1250 C   0  0  0  0  0  0  0  0  0  0  0  0
   46.1490   35.0210   43.4690 C   0  0  0  0  0  0  0  0  0  0  0  0
   46.6110   33.8390   44.0740 C   0  0  0  0  0  0  0  0  0  0  0  0
   46.0960   33.5290   45.2700 N   0  0  0  0  0  0  0  0  0  0  0  0
   45.1740   34.2980   45.8920 C   0  0  0  0  0  0  0  0  0  0  0  0
   44.7220   35.4330   45.3250 N   0  0  0  0  0  0  0  0  0  0  0  0
   46.4930   35.3630   42.5120 H   0  0  0  0  0  0  0  0  0  0  0  0
   44.8150   33.9720   46.8540 H   0  0  0  0  0  0  0  0  0  0  0  0
   48.6130   33.8710   42.6140 C   0  0  2  0  0  0  0  0  0  0  0  0
   47.6030   33.0590   43.3480 C   0  0  2  0  0  0  0  0  0  0  0  0
   47.0590   32.2820   42.2840 O   0  0  0  0  0  0  0  0  0  0  0  0
   48.1980   31.7620   41.7030 C   0  0  0  0  0  0  0  0  0  0  0  0
   49.3400   32.7130   41.8970 C   0  0  1  0  0  0  0  0  0  0  0  0
   48.1840   34.4540   41.7700 H   0  0  0  0  0  0  0  0  0  0  0  0
   48.0760   32.3220   43.9970 H   0  0  0  0  0  0  0  0  0  0  0  0
   48.0360   31.4540   40.6550 H   0  0  0  0  0  0  0  0  0  0  0  0
   48.4540   30.8310   42.2610 H   0  0  0  0  0  0  0  0  0  0  0  0
   50.1480   32.3380   42.5380 H   0  0  0  0  0  0  0  0  0  0  0  0
   49.4170   34.6380   43.3980 O   0  0  0  0  0  0  0  0  0  0  0  0
   50.2720   34.8560   42.9150 H   0  0  0  0  0  0  0  0  0  0  0  0
   49.8970   33.1970   40.7190 O   0  0  0  0  0  0  0  0  0  0  0  0
   50.5870   32.6120   40.3650 H   0  0  0  0  0  0  0  0  0  0  0  0
   44.7270   37.0670   43.4560 C   0  0  0  0  0  0  0  0  0  0  0  0
   45.2850   37.2260   42.5340 H   0  0  0  0  0  0  0  0  0  0  0  0
   43.6360   36.9680   43.2730 H   0  0  0  0  0  0  0  0  0  0  0  0
   45.2840   39.4820   44.0710 C   0  0  0  0  0  0  0  0  0  0  0  0
   45.4220   39.7740   42.8500 O   0  0  0  0  0  0  0  0  0  0  0  0
   44.9880   38.1440   44.4070 N   0  0  0  0  0  0  0  0  0  0  0  0
   44.9520   37.9040   45.4250 H   0  0  0  0  0  0  0  0  0  0  0  0
   44.6600   41.7630   44.8870 C   0  0  2  0  0  3  0  0  0  0  0  0
   45.4240   40.5030   45.1680 C   0  0  1  0  0  3  0  0  0  0  0  0
   45.1260   39.9480   46.4000 O   0  0  0  0  0  0  0  0  0  0  0  0
   44.2190   40.6290   47.1630 C   0  0  0  0  0  2  0  0  0  0  0  0
   44.5050   42.1050   47.2850 C   0  0  2  0  0  3  0  0  0  0  0  0
   45.0430   42.7110   46.0310 C   0  0  2  0  0  3  0  0  0  0  0  0
   43.2810   41.5960   44.8870 O   0  0  0  0  0  0  0  0  0  0  0  0
   42.8670   42.4890   44.9520 H   0  0  0  0  0  0  0  0  0  0  0  0
   45.4040   42.3880   48.3060 O   0  0  0  0  0  0  0  0  0  0  0  0
   46.1210   41.7040   48.2990 H   0  0  0  0  0  0  0  0  0  0  0  0
   44.4630   43.9350   45.7200 O   0  0  0  0  0  0  0  0  0  0  0  0
   45.1580   44.6560   45.7230 H   0  0  0  0  0  0  0  0  0  0  0  0
  1  6  1  0  0  0  0
  2  3  1  0  0  0  0
  2  1  2  0  0  0  0
  3  4  2  0  0  0  0
  4  5  1  0  0  0  0
  5  8  1  0  0  0  0
  6  5  2  0  0  0  0
  7  2  1  0  0  0  0
  9 14  1  6  0  0  0
  9 10  1  0  0  0  0
  9 19  1  0  0  0  0
 10 15  1  1  0  0  0
 10  3  1  0  0  0  0
 11 10  1  0  0  0  0
 12 13  1  0  0  0  0
 12 17  1  0  0  0  0
 12 11  1  0  0  0  0
 13 18  1  1  0  0  0
 13  9  1  0  0  0  0
 16 12  1  0  0  0  0
 20 19  1  0  0  0  0
 21 13  1  0  0  0  0
 22 21  1  0  0  0  0
 23  1  1  0  0  0  0
 23 28  1  0  0  0  0
 24 23  1  0  0  0  0
 25 23  1  0  0  0  0
 26 28  1  0  0  0  0
 27 26  2  0  0  0  0
 28 29  1  0  0  0  0
 30 36  1  1  0  0  0
 30 31  1  0  0  0  0
 30 35  1  0  0  0  0
 31 26  1  6  0  0  0
 31 32  1  0  0  0  0
 32 33  1  0  0  0  0
 33 34  1  0  0  0  0
 34 38  1  1  0  0  0
 35 40  1  6  0  0  0
 35 34  1  0  0  0  0
 36 37  1  0  0  0  0
 39 38  1  0  0  0  0
 40 41  1  0  0  0  0
M  END
>  <minimizedAffinity>
-2.94447732

>  <minimizedRMSD>
0.65741086

$$$$
