
 OpenBabel03242521443D

 41 43  0  0  1  0  0  0  0  0999 V2000
   45.1980   35.8020   44.1210 C   0  0  0  0  0  0  0  0  0  0  0  0
   46.1490   35.0220   43.4650 C   0  0  0  0  0  0  0  0  0  0  0  0
   46.6090   33.8400   44.0690 C   0  0  0  0  0  0  0  0  0  0  0  0
   46.0930   33.5300   45.2660 N   0  0  0  0  0  0  0  0  0  0  0  0
   45.1720   34.2990   45.8880 C   0  0  0  0  0  0  0  0  0  0  0  0
   44.7210   35.4350   45.3210 N   0  0  0  0  0  0  0  0  0  0  0  0
   46.4930   35.3640   42.5090 H   0  0  0  0  0  0  0  0  0  0  0  0
   44.8120   33.9730   46.8500 H   0  0  0  0  0  0  0  0  0  0  0  0
   48.6130   33.8710   42.6120 C   0  0  2  0  0  0  0  0  0  0  0  0
   47.6010   33.0590   43.3440 C   0  0  2  0  0  0  0  0  0  0  0  0
   47.0570   32.2840   42.2780 O   0  0  0  0  0  0  0  0  0  0  0  0
   48.1950   31.7640   41.6980 C   0  0  0  0  0  0  0  0  0  0  0  0
   49.3390   32.7120   41.8940 C   0  0  1  0  0  0  0  0  0  0  0  0
   48.1860   34.4550   41.7690 H   0  0  0  0  0  0  0  0  0  0  0  0
   48.0720   32.3210   43.9920 H   0  0  0  0  0  0  0  0  0  0  0  0
   48.0340   31.4570   40.6490 H   0  0  0  0  0  0  0  0  0  0  0  0
   48.4500   30.8310   42.2540 H   0  0  0  0  0  0  0  0  0  0  0  0
   50.1460   32.3350   42.5360 H   0  0  0  0  0  0  0  0  0  0  0  0
   49.4170   34.6350   43.3980 O   0  0  0  0  0  0  0  0  0  0  0  0
   50.2730   34.8530   42.9160 H   0  0  0  0  0  0  0  0  0  0  0  0
   49.8980   33.1970   40.7170 O   0  0  0  0  0  0  0  0  0  0  0  0
   50.5870   32.6110   40.3630 H   0  0  0  0  0  0  0  0  0  0  0  0
   44.7280   37.0700   43.4530 C   0  0  0  0  0  0  0  0  0  0  0  0
   45.2870   37.2280   42.5310 H   0  0  0  0  0  0  0  0  0  0  0  0
   43.6370   36.9710   43.2680 H   0  0  0  0  0  0  0  0  0  0  0  0
   45.2850   39.4840   44.0690 C   0  0  0  0  0  0  0  0  0  0  0  0
   45.4240   39.7770   42.8490 O   0  0  0  0  0  0  0  0  0  0  0  0
   44.9890   38.1460   44.4040 N   0  0  0  0  0  0  0  0  0  0  0  0
   44.9530   37.9050   45.4230 H   0  0  0  0  0  0  0  0  0  0  0  0
   44.6590   41.7630   44.8870 C   0  0  2  0  0  3  0  0  0  0  0  0
   45.4250   40.5050   45.1680 C   0  0  1  0  0  3  0  0  0  0  0  0
   45.1280   39.9490   46.3990 O   0  0  0  0  0  0  0  0  0  0  0  0
   44.2200   40.6300   47.1620 C   0  0  0  0  0  2  0  0  0  0  0  0
   44.5040   42.1050   47.2850 C   0  0  2  0  0  3  0  0  0  0  0  0
   45.0420   42.7110   46.0310 C   0  0  2  0  0  3  0  0  0  0  0  0
   43.2810   41.5960   44.8870 O   0  0  0  0  0  0  0  0  0  0  0  0
   42.8650   42.4890   44.9520 H   0  0  0  0  0  0  0  0  0  0  0  0
   45.4030   42.3880   48.3060 O   0  0  0  0  0  0  0  0  0  0  0  0
   46.1200   41.7040   48.2990 H   0  0  0  0  0  0  0  0  0  0  0  0
   44.4610   43.9350   45.7200 O   0  0  0  0  0  0  0  0  0  0  0  0
   45.1570   44.6570   45.7240 H   0  0  0  0  0  0  0  0  0  0  0  0
  1  6  1  0  0  0  0
  2  3  1  0  0  0  0
  2  1  2  0  0  0  0
  3  4  2  0  0  0  0
  4  5  1  0  0  0  0
  5  8  1  0  0  0  0
  6  5  2  0  0  0  0
  7  2  1  0  0  0  0
  9 14  1  6  0  0  0
  9 10  1  0  0  0  0
  9 19  1  0  0  0  0
 10 15  1  1  0  0  0
 10  3  1  0  0  0  0
 11 10  1  0  0  0  0
 12 13  1  0  0  0  0
 12 17  1  0  0  0  0
 12 11  1  0  0  0  0
 13 18  1  1  0  0  0
 13  9  1  0  0  0  0
 16 12  1  0  0  0  0
 20 19  1  0  0  0  0
 21 13  1  0  0  0  0
 22 21  1  0  0  0  0
 23  1  1  0  0  0  0
 23 28  1  0  0  0  0
 24 23  1  0  0  0  0
 25 23  1  0  0  0  0
 26 28  1  0  0  0  0
 27 26  2  0  0  0  0
 28 29  1  0  0  0  0
 30 36  1  1  0  0  0
 30 31  1  0  0  0  0
 30 35  1  0  0  0  0
 31 26  1  6  0  0  0
 31 32  1  0  0  0  0
 32 33  1  0  0  0  0
 33 34  1  0  0  0  0
 34 38  1  1  0  0  0
 35 40  1  6  0  0  0
 35 34  1  0  0  0  0
 36 37  1  0  0  0  0
 39 38  1  0  0  0  0
 40 41  1  0  0  0  0
M  END
>  <minimizedAffinity>
-2.94274163

>  <minimizedRMSD>
0.77526772

$$$$
