
 OpenBabel03252508463D

 48 50  0  0  1  0  0  0  0  0999 V2000
   42.7090   31.5280   42.6040 N   0  0  0  0  0  0  0  0  0  0  0  0
   42.8610   31.9170   43.5750 H   0  0  0  0  0  0  0  0  0  0  0  0
   43.0550   32.5410   41.6620 C   0  0  0  0  0  0  0  0  0  0  0  0
   43.5290   32.1390   40.7340 H   0  0  0  0  0  0  0  0  0  0  0  0
   42.0900   33.0220   41.3410 H   0  0  0  0  0  0  0  0  0  0  0  0
   43.6700   34.9510   41.8930 C   0  0  0  0  0  0  0  0  0  0  0  0
   43.9170   33.6280   42.2020 C   0  0  0  0  0  0  0  0  0  0  0  0
   44.9890   33.3370   43.0270 C   0  0  0  0  0  0  0  0  0  0  0  0
   45.7770   34.3390   43.5190 C   0  0  0  0  0  0  0  0  0  0  0  0
   45.5400   35.6600   43.2190 C   0  0  0  0  0  0  0  0  0  0  0  0
   44.4630   35.9080   42.3940 C   0  0  0  0  0  0  0  0  0  0  0  0
   45.1840   32.2910   43.2710 H   0  0  0  0  0  0  0  0  0  0  0  0
   46.5950   34.0230   44.1560 H   0  0  0  0  0  0  0  0  0  0  0  0
   46.1780   36.4470   43.6190 H   0  0  0  0  0  0  0  0  0  0  0  0
   44.2200   36.9330   42.1160 H   0  0  0  0  0  0  0  0  0  0  0  0
   40.2440   35.7810   40.5290 C   0  0  0  0  0  0  0  0  0  0  0  0
   41.2740   35.5660   41.4620 C   0  0  0  0  0  0  0  0  0  0  0  0
   42.5270   35.2000   41.0200 C   0  0  0  0  0  0  0  0  0  0  0  0
   42.6950   35.0640   39.6720 N   0  0  0  0  0  0  0  0  0  0  0  0
   41.6940   35.2750   38.7830 C   0  0  0  0  0  0  0  0  0  0  0  0
   40.4800   35.6310   39.2250 N   0  0  0  0  0  0  0  0  0  0  0  0
   39.2630   36.0710   40.9310 H   0  0  0  0  0  0  0  0  0  0  0  0
   41.1570   35.6690   42.5240 H   0  0  0  0  0  0  0  0  0  0  0  0
   41.8850   35.1520   37.7160 H   0  0  0  0  0  0  0  0  0  0  0  0
   41.0410   31.1210   42.5570 S   0  0  0  0  0  0  0  0  0  0  0  0
   40.1980   32.3400   42.3110 O   0  0  0  0  0  0  0  0  0  0  0  0
   39.5710   32.6630   42.9820 H   0  0  0  0  0  0  0  0  0  0  0  0
   40.6200   30.4270   43.8130 O   0  0  0  0  0  0  0  0  0  0  0  0
   40.6740   30.8800   44.6780 H   0  0  0  0  0  0  0  0  0  0  0  0
   40.8450   30.0600   41.2710 O   0  0  0  0  0  0  0  0  0  0  0  0
   39.9920   29.0330   41.6720 C   0  0  0  0  0  0  0  0  0  0  0  0
   39.1980   28.9880   40.8990 H   0  0  0  0  0  0  0  0  0  0  0  0
   39.5380   29.1900   42.6580 H   0  0  0  0  0  0  0  0  0  0  0  0
   40.7580   27.7190   41.5980 C   0  0  0  0  0  0  0  0  0  0  0  0
   40.4710   27.1990   40.6710 H   0  0  0  0  0  0  0  0  0  0  0  0
   41.8590   27.9140   41.6280 H   0  0  0  0  0  0  0  0  0  0  0  0
   41.2730   27.2870   44.0000 C   0  0  2  0  0  3  0  0  0  0  0  0
   40.4140   26.9300   42.8390 C   0  0  2  0  0  3  0  0  0  0  0  0
   40.4760   25.5880   42.4790 O   0  0  0  0  0  0  0  0  0  0  0  0
   40.4580   24.7160   43.5380 C   0  0  0  0  0  2  0  0  0  0  0  0
   41.6930   24.8440   44.3950 C   0  0  1  0  0  3  0  0  0  0  0  0
   42.2580   26.2230   44.4140 C   0  0  2  0  0  3  0  0  0  0  0  0
   40.4850   27.6250   45.1290 O   0  0  0  0  0  0  0  0  0  0  0  0
   39.5610   27.8140   44.8680 H   0  0  0  0  0  0  0  0  0  0  0  0
   41.4630   24.4120   45.7020 O   0  0  0  0  0  0  0  0  0  0  0  0
   42.2420   24.7030   46.2400 H   0  0  0  0  0  0  0  0  0  0  0  0
   42.6290   26.5600   45.7370 O   0  0  0  0  0  0  0  0  0  0  0  0
   42.9050   27.5290   45.6620 H   0  0  0  0  0  0  0  0  0  0  0  0
  1  2  1  0  0  0  0
  3  7  1  0  0  0  0
  3  1  1  0  0  0  0
  4  3  1  0  0  0  0
  5  3  1  0  0  0  0
  6  7  2  0  0  0  0
  6 11  1  0  0  0  0
  7  8  1  0  0  0  0
  8 12  1  0  0  0  0
  8  9  2  0  0  0  0
  9 13  1  0  0  0  0
 10  9  1  0  0  0  0
 10 14  1  0  0  0  0
 11 10  2  0  0  0  0
 15 11  1  0  0  0  0
 16 22  1  0  0  0  0
 16 17  1  0  0  0  0
 17 23  1  0  0  0  0
 18 17  2  0  0  0  0
 18  6  1  0  0  0  0
 19 18  1  0  0  0  0
 20 21  1  0  0  0  0
 20 19  2  0  0  0  0
 21 16  2  0  0  0  0
 24 20  1  0  0  0  0
 25  1  1  0  0  0  0
 25 28  1  0  0  0  0
 26 25  1  0  0  0  0
 26 27  1  0  0  0  0
 28 29  1  0  0  0  0
 30 31  1  0  0  0  0
 30 25  1  0  0  0  0
 31 33  1  0  0  0  0
 32 31  1  0  0  0  0
 34 36  1  0  0  0  0
 34 31  1  0  0  0  0
 35 34  1  0  0  0  0
 37 42  1  0  0  0  0
 37 43  1  1  0  0  0
 38 34  1  6  0  0  0
 38 37  1  0  0  0  0
 39 38  1  0  0  0  0
 39 40  1  0  0  0  0
 40 41  1  0  0  0  0
 41 42  1  0  0  0  0
 41 45  1  1  0  0  0
 42 47  1  1  0  0  0
 44 43  1  0  0  0  0
 45 46  1  0  0  0  0
 48 47  1  0  0  0  0
M  END
>  <minimizedAffinity>
-5.39801979

>  <minimizedRMSD>
1.48961842

$$$$
