
 OpenBabel03252508473D

 48 50  0  0  1  0  0  0  0  0999 V2000
   42.7890   31.5460   42.6290 N   0  0  0  0  0  0  0  0  0  0  0  0
   42.8910   31.9680   43.5930 H   0  0  0  0  0  0  0  0  0  0  0  0
   43.1330   32.5450   41.6720 C   0  0  0  0  0  0  0  0  0  0  0  0
   43.6340   32.1320   40.7630 H   0  0  0  0  0  0  0  0  0  0  0  0
   42.1660   32.9980   41.3200 H   0  0  0  0  0  0  0  0  0  0  0  0
   43.6650   34.9750   41.8950 C   0  0  0  0  0  0  0  0  0  0  0  0
   43.9610   33.6620   42.2030 C   0  0  0  0  0  0  0  0  0  0  0  0
   45.0490   33.4100   43.0200 C   0  0  0  0  0  0  0  0  0  0  0  0
   45.8060   34.4390   43.5050 C   0  0  0  0  0  0  0  0  0  0  0  0
   45.5200   35.7510   43.2050 C   0  0  0  0  0  0  0  0  0  0  0  0
   44.4290   35.9600   42.3890 C   0  0  0  0  0  0  0  0  0  0  0  0
   45.2820   32.3720   43.2630 H   0  0  0  0  0  0  0  0  0  0  0  0
   46.6380   34.1530   44.1360 H   0  0  0  0  0  0  0  0  0  0  0  0
   46.1340   36.5600   43.5990 H   0  0  0  0  0  0  0  0  0  0  0  0
   44.1490   36.9760   42.1120 H   0  0  0  0  0  0  0  0  0  0  0  0
   40.2010   35.6760   40.5580 C   0  0  0  0  0  0  0  0  0  0  0  0
   41.2450   35.4970   41.4830 C   0  0  0  0  0  0  0  0  0  0  0  0
   42.5080   35.1830   41.0300 C   0  0  0  0  0  0  0  0  0  0  0  0
   42.6720   35.0610   39.6810 N   0  0  0  0  0  0  0  0  0  0  0  0
   41.6580   35.2370   38.7990 C   0  0  0  0  0  0  0  0  0  0  0  0
   40.4340   35.5420   39.2510 N   0  0  0  0  0  0  0  0  0  0  0  0
   39.2120   35.9250   40.9680 H   0  0  0  0  0  0  0  0  0  0  0  0
   41.1300   35.5900   42.5460 H   0  0  0  0  0  0  0  0  0  0  0  0
   41.8460   35.1270   37.7300 H   0  0  0  0  0  0  0  0  0  0  0  0
   41.1390   31.0780   42.5350 S   0  0  0  0  0  0  0  0  0  0  0  0
   40.2480   32.2790   42.3970 O   0  0  0  0  0  0  0  0  0  0  0  0
   39.6060   32.5130   43.0900 H   0  0  0  0  0  0  0  0  0  0  0  0
   40.7440   30.2540   43.7190 O   0  0  0  0  0  0  0  0  0  0  0  0
   40.7770   30.6280   44.6220 H   0  0  0  0  0  0  0  0  0  0  0  0
   40.9900   30.1320   41.1550 O   0  0  0  0  0  0  0  0  0  0  0  0
   39.8920   29.2890   41.3150 C   0  0  0  0  0  0  0  0  0  0  0  0
   39.1880   29.5630   40.5020 H   0  0  0  0  0  0  0  0  0  0  0  0
   39.3910   29.3890   42.2850 H   0  0  0  0  0  0  0  0  0  0  0  0
   40.3430   27.8600   41.0470 C   0  0  0  0  0  0  0  0  0  0  0  0
   39.9200   27.5350   40.0850 H   0  0  0  0  0  0  0  0  0  0  0  0
   41.4610   27.8060   41.0370 H   0  0  0  0  0  0  0  0  0  0  0  0
   40.8800   26.9220   43.2950 C   0  0  2  0  0  3  0  0  0  0  0  0
   39.8700   27.0170   42.2070 C   0  0  2  0  0  3  0  0  0  0  0  0
   39.4960   25.7900   41.6710 O   0  0  0  0  0  0  0  0  0  0  0  0
   39.2940   24.8030   42.6030 C   0  0  0  0  0  2  0  0  0  0  0  0
   40.5690   24.4310   43.3180 C   0  0  1  0  0  3  0  0  0  0  0  0
   41.5250   25.5680   43.4500 C   0  0  2  0  0  3  0  0  0  0  0  0
   40.3160   27.2890   44.5430 O   0  0  0  0  0  0  0  0  0  0  0  0
   39.4770   27.7760   44.4200 H   0  0  0  0  0  0  0  0  0  0  0  0
   40.3160   23.8820   44.5750 O   0  0  0  0  0  0  0  0  0  0  0  0
   41.1850   23.8480   45.0510 H   0  0  0  0  0  0  0  0  0  0  0  0
   42.0760   25.5700   44.7520 O   0  0  0  0  0  0  0  0  0  0  0  0
   42.6260   26.4170   44.7720 H   0  0  0  0  0  0  0  0  0  0  0  0
  1  2  1  0  0  0  0
  3  7  1  0  0  0  0
  3  1  1  0  0  0  0
  4  3  1  0  0  0  0
  5  3  1  0  0  0  0
  6  7  2  0  0  0  0
  6 11  1  0  0  0  0
  7  8  1  0  0  0  0
  8 12  1  0  0  0  0
  8  9  2  0  0  0  0
  9 13  1  0  0  0  0
 10  9  1  0  0  0  0
 10 14  1  0  0  0  0
 11 10  2  0  0  0  0
 15 11  1  0  0  0  0
 16 22  1  0  0  0  0
 16 17  1  0  0  0  0
 17 23  1  0  0  0  0
 18 17  2  0  0  0  0
 18  6  1  0  0  0  0
 19 18  1  0  0  0  0
 20 21  1  0  0  0  0
 20 19  2  0  0  0  0
 21 16  2  0  0  0  0
 24 20  1  0  0  0  0
 25  1  1  0  0  0  0
 25 28  1  0  0  0  0
 26 25  1  0  0  0  0
 26 27  1  0  0  0  0
 28 29  1  0  0  0  0
 30 31  1  0  0  0  0
 30 25  1  0  0  0  0
 31 33  1  0  0  0  0
 32 31  1  0  0  0  0
 34 31  1  0  0  0  0
 35 34  1  0  0  0  0
 36 34  1  0  0  0  0
 37 42  1  0  0  0  0
 37 43  1  1  0  0  0
 38 34  1  6  0  0  0
 38 37  1  0  0  0  0
 39 38  1  0  0  0  0
 39 40  1  0  0  0  0
 40 41  1  0  0  0  0
 41 42  1  0  0  0  0
 41 45  1  1  0  0  0
 42 47  1  1  0  0  0
 44 43  1  0  0  0  0
 45 46  1  0  0  0  0
 47 48  1  0  0  0  0
M  END
>  <minimizedAffinity>
-5.30236244

>  <minimizedRMSD>
1.27505326

$$$$
