
 OpenBabel03242520483D

 22 23  0  0  1  0  0  0  0  0999 V2000
   49.1680   34.2690   42.6320 C   0  0  1  0  0  3  0  0  0  0  0  0
   48.3120   34.6730   41.4860 C   0  0  1  0  0  3  0  0  0  0  0  0
   47.9620   33.7380   40.5750 O   0  0  0  0  0  0  0  0  0  0  0  0
   48.4350   32.4610   40.7570 C   0  0  0  0  0  2  0  0  0  0  0  0
   49.9330   32.6110   40.9670 C   0  0  1  0  0  3  0  0  0  0  0  0
   50.0250   33.0620   42.4140 C   0  0  1  0  0  3  0  0  0  0  0  0
   50.0210   35.3060   43.0140 O   0  0  0  0  0  0  0  0  0  0  0  0
   50.4380   35.2000   43.8840 H   0  0  0  0  0  0  0  0  0  0  0  0
   50.5900   31.4370   40.7290 O   0  0  0  0  0  0  0  0  0  0  0  0
   51.2730   31.2820   41.4230 H   0  0  0  0  0  0  0  0  0  0  0  0
   51.3820   33.3010   42.6590 O   0  0  0  0  0  0  0  0  0  0  0  0
   51.6940   32.8490   43.4960 H   0  0  0  0  0  0  0  0  0  0  0  0
   47.1420   35.3560   41.9090 O   0  0  0  0  0  0  0  0  0  0  0  0
   44.7530   35.2120   44.7470 C   0  0  0  0  0  0  0  0  0  0  0  0
   45.3310   35.6620   43.5590 C   0  0  0  0  0  0  0  0  0  0  0  0
   46.4670   35.0160   43.0730 C   0  0  0  0  0  0  0  0  0  0  0  0
   46.9610   33.9620   43.7970 N   0  0  0  0  0  0  0  0  0  0  0  0
   46.3810   33.5500   44.9410 C   0  0  0  0  0  0  0  0  0  0  0  0
   45.2760   34.1780   45.4150 N   0  0  0  0  0  0  0  0  0  0  0  0
   43.8760   35.7190   45.1130 H   0  0  0  0  0  0  0  0  0  0  0  0
   44.9530   36.4960   42.9720 H   0  0  0  0  0  0  0  0  0  0  0  0
   46.8940   32.7000   45.3970 H   0  0  0  0  0  0  0  0  0  0  0  0
  1  7  1  6  0  0  0
  2 13  1  1  0  0  0
  2  1  1  0  0  0  0
  3  4  1  0  0  0  0
  3  2  1  0  0  0  0
  4  5  1  0  0  0  0
  5  9  1  1  0  0  0
  5  6  1  0  0  0  0
  6  1  1  0  0  0  0
  6 11  1  6  0  0  0
  7  8  1  0  0  0  0
  9 10  1  0  0  0  0
 11 12  1  0  0  0  0
 13 16  1  0  0  0  0
 14 20  1  0  0  0  0
 14 19  1  0  0  0  0
 15 14  2  0  0  0  0
 16 15  1  0  0  0  0
 16 17  2  0  0  0  0
 17 18  1  0  0  0  0
 18 22  1  0  0  0  0
 18 19  2  0  0  0  0
 21 15  1  0  0  0  0
M  END
>  <minimizedAffinity>
-5.34295416

>  <minimizedRMSD>
1.41305172

$$$$
