
 OpenBabel03252504303D

 36 37  0  0  1  0  0  0  0  0999 V2000
   45.2540   35.3900   43.1930 C   0  0  0  0  0  0  0  0  0  0  0  0
   46.0880   34.8400   42.7180 H   0  0  0  0  0  0  0  0  0  0  0  0
   45.4370   36.4830   43.1400 H   0  0  0  0  0  0  0  0  0  0  0  0
   43.6790   35.6210   41.2040 C   0  0  0  0  0  0  0  0  0  0  0  0
   43.9580   35.1590   42.4300 C   0  0  0  0  0  0  0  0  0  0  0  0
   42.4360   35.2900   40.6890 O   0  0  0  0  0  0  0  0  0  0  0  0
   41.2040   35.6240   41.1990 C   0  0  0  0  0  0  0  0  0  0  0  0
   41.2850   35.5390   42.3280 H   0  0  0  0  0  0  0  0  0  0  0  0
   40.8590   36.6330   40.9810 H   0  0  0  0  0  0  0  0  0  0  0  0
   40.1930   33.4720   41.6330 C   0  0  0  0  0  0  0  0  0  0  0  0
   40.1350   34.6500   40.8570 C   0  0  0  0  0  0  0  0  0  0  0  0
   39.1420   34.7350   39.9330 C   0  0  0  0  0  0  0  0  0  0  0  0
   38.3040   33.7040   39.8340 N   0  0  0  0  0  0  0  0  0  0  0  0
   38.3540   32.6010   40.5580 C   0  0  0  0  0  0  0  0  0  0  0  0
   39.3430   32.4340   41.5280 N   0  0  0  0  0  0  0  0  0  0  0  0
   40.9420   33.2800   42.4080 H   0  0  0  0  0  0  0  0  0  0  0  0
   39.1510   35.6590   39.3720 H   0  0  0  0  0  0  0  0  0  0  0  0
   37.6380   31.7940   40.4280 H   0  0  0  0  0  0  0  0  0  0  0  0
   45.0300   35.0170   44.4930 O   0  0  0  0  0  0  0  0  0  0  0  0
   45.2910   32.3890   44.2370 O   0  0  0  0  0  0  0  0  0  0  0  0
   45.8700   33.6030   44.9070 P   0  0  1  0  0  0  0  0  0  0  0  0
   47.4980   33.7520   44.4350 O   0  0  0  0  0  0  0  0  0  0  0  0
   48.0590   34.0470   45.1880 H   0  0  0  0  0  0  0  0  0  0  0  0
   45.8290   33.4420   46.5930 O   0  0  0  0  0  0  0  0  0  0  0  0
   45.5530   31.4640   47.7970 C   0  0  1  0  0  0  0  0  0  0  0  0
   46.5220   32.3630   47.0580 C   0  0  2  0  0  0  0  0  0  0  0  0
   47.5600   32.7800   47.8740 O   0  0  0  0  0  0  0  0  0  0  0  0
   48.2810   31.7650   48.4620 C   0  0  0  0  0  0  0  0  0  0  0  0
   47.4760   30.6350   49.0060 C   0  0  1  0  0  0  0  0  0  0  0  0
   46.0550   31.1250   49.1840 C   0  0  2  0  0  0  0  0  0  0  0  0
   44.3130   32.0830   47.9410 O   0  0  0  0  0  0  0  0  0  0  0  0
   44.2120   32.6170   48.7540 H   0  0  0  0  0  0  0  0  0  0  0  0
   47.4710   29.5600   48.1150 O   0  0  0  0  0  0  0  0  0  0  0  0
   48.3560   29.4340   47.7040 H   0  0  0  0  0  0  0  0  0  0  0  0
   45.2280   30.1830   49.7580 O   0  0  0  0  0  0  0  0  0  0  0  0
   45.6780   29.8330   50.5690 H   0  0  0  0  0  0  0  0  0  0  0  0
  1 19  1  0  0  0  0
  2  1  1  0  0  0  0
  3  1  1  0  0  0  0
  4  5  2  0  0  0  0
  5  1  1  0  0  0  0
  6  7  1  0  0  0  0
  6  4  1  0  0  0  0
  7  8  1  0  0  0  0
  9  7  1  0  0  0  0
 10 16  1  0  0  0  0
 11  7  1  0  0  0  0
 11 10  2  0  0  0  0
 12 11  1  0  0  0  0
 13 12  2  0  0  0  0
 13 14  1  0  0  0  0
 14 15  2  0  0  0  0
 15 10  1  0  0  0  0
 17 12  1  0  0  0  0
 18 14  1  0  0  0  0
 19 21  1  0  0  0  0
 21 20  2  6  0  0  0
 21 24  1  0  0  0  0
 22 21  1  0  0  0  0
 22 23  1  0  0  0  0
 25 31  1  1  0  0  0
 25 30  1  0  0  0  0
 26 24  1  1  0  0  0
 26 25  1  0  0  0  0
 26 27  1  0  0  0  0
 27 28  1  0  0  0  0
 28 29  1  0  0  0  0
 29 33  1  6  0  0  0
 29 30  1  0  0  0  0
 30 35  1  6  0  0  0
 31 32  1  0  0  0  0
 34 33  1  0  0  0  0
 35 36  1  0  0  0  0
M  END
>  <minimizedAffinity>
-6.20963335

>  <minimizedRMSD>
0.701317728

$$$$
