
 OpenBabel03252502243D

 37 39  0  0  1  0  0  0  0  0999 V2000
   46.1450   33.8400   41.4060 N   0  0  0  0  0  0  0  0  0  0  0  0
   46.9300   34.0740   42.6030 C   0  0  0  0  0  0  0  0  0  0  0  0
   47.6200   35.4270   42.3390 C   0  0  0  0  0  0  0  0  0  0  0  0
   48.6250   35.2330   41.2280 C   0  0  0  0  0  0  0  0  0  0  0  0
   48.1320   34.4020   40.0890 C   0  0  0  0  0  0  0  0  0  0  0  0
   46.6650   34.0930   40.1060 C   0  0  1  0  0  0  0  0  0  0  0  0
   46.3470   34.0920   43.5170 H   0  0  0  0  0  0  0  0  0  0  0  0
   47.7640   33.3390   42.5920 H   0  0  0  0  0  0  0  0  0  0  0  0
   46.8000   36.1150   41.9900 H   0  0  0  0  0  0  0  0  0  0  0  0
   48.1350   35.8110   43.2210 H   0  0  0  0  0  0  0  0  0  0  0  0
   48.9880   36.2360   40.9240 H   0  0  0  0  0  0  0  0  0  0  0  0
   49.5040   34.7170   41.7030 H   0  0  0  0  0  0  0  0  0  0  0  0
   48.6710   33.4160   40.0600 H   0  0  0  0  0  0  0  0  0  0  0  0
   48.4200   34.9190   39.1510 H   0  0  0  0  0  0  0  0  0  0  0  0
   46.1220   34.9880   39.7190 H   0  0  0  0  0  0  0  0  0  0  0  0
   42.4280   33.4810   41.1650 C   0  0  0  0  0  0  0  0  0  0  0  0
   43.6970   34.0680   41.0260 C   0  0  0  0  0  0  0  0  0  0  0  0
   44.8090   33.3410   41.4960 C   0  0  0  0  0  0  0  0  0  0  0  0
   44.5740   32.1250   42.0490 N   0  0  0  0  0  0  0  0  0  0  0  0
   43.3360   31.5930   42.1640 C   0  0  0  0  0  0  0  0  0  0  0  0
   42.2540   32.2920   41.7120 N   0  0  0  0  0  0  0  0  0  0  0  0
   41.5680   34.0260   40.8100 H   0  0  0  0  0  0  0  0  0  0  0  0
   43.8630   35.0370   40.5830 H   0  0  0  0  0  0  0  0  0  0  0  0
   43.1870   30.6190   42.6120 H   0  0  0  0  0  0  0  0  0  0  0  0
   46.4520   32.9670   39.2960 O   0  0  0  0  0  0  0  0  0  0  0  0
   47.7400   31.6950   37.6760 C   0  0  2  0  0  3  0  0  0  0  0  0
   47.1560   32.9890   38.1200 C   0  0  1  0  0  3  0  0  0  0  0  0
   46.5380   33.6090   37.0580 O   0  0  0  0  0  0  0  0  0  0  0  0
   45.2540   33.0270   36.9310 C   0  0  0  0  0  2  0  0  0  0  0  0
   45.3840   31.5350   36.7890 C   0  0  1  0  0  3  0  0  0  0  0  0
   46.8360   31.1220   36.6050 C   0  0  2  0  0  3  0  0  0  0  0  0
   47.8150   30.7390   38.6810 O   0  0  0  0  0  0  0  0  0  0  0  0
   48.3530   29.9790   38.3840 H   0  0  0  0  0  0  0  0  0  0  0  0
   44.8500   30.9380   37.9190 O   0  0  0  0  0  0  0  0  0  0  0  0
   44.9110   29.9390   37.8380 H   0  0  0  0  0  0  0  0  0  0  0  0
   46.9180   29.7330   36.6490 O   0  0  0  0  0  0  0  0  0  0  0  0
   47.8310   29.4590   36.4610 H   0  0  0  0  0  0  0  0  0  0  0  0
  1 18  1  0  0  0  0
  1  2  1  0  0  0  0
  2  7  1  0  0  0  0
  3  2  1  0  0  0  0
  3 10  1  0  0  0  0
  4 12  1  0  0  0  0
  4  3  1  0  0  0  0
  5  6  1  0  0  0  0
  5  4  1  0  0  0  0
  6 15  1  6  0  0  0
  6  1  1  0  0  0  0
  8  2  1  0  0  0  0
  9  3  1  0  0  0  0
 11  4  1  0  0  0  0
 13  5  1  0  0  0  0
 14  5  1  0  0  0  0
 16 21  1  0  0  0  0
 17 16  2  0  0  0  0
 17 18  1  0  0  0  0
 18 19  2  0  0  0  0
 19 20  1  0  0  0  0
 20 24  1  0  0  0  0
 21 20  2  0  0  0  0
 22 16  1  0  0  0  0
 23 17  1  0  0  0  0
 25  6  1  0  0  0  0
 26 27  1  0  0  0  0
 26 32  1  1  0  0  0
 27 25  1  1  0  0  0
 28 27  1  0  0  0  0
 29 28  1  0  0  0  0
 30 29  1  0  0  0  0
 30 34  1  1  0  0  0
 31 36  1  1  0  0  0
 31 30  1  0  0  0  0
 31 26  1  0  0  0  0
 33 32  1  0  0  0  0
 35 34  1  0  0  0  0
 37 36  1  0  0  0  0
M  END
>  <minimizedAffinity>
-4.0882616

>  <minimizedRMSD>
4.59058523

$$$$
