
 OpenBabel03252502233D

 37 39  0  0  1  0  0  0  0  0999 V2000
   46.9840   34.6980   42.2650 N   0  0  0  0  0  0  0  0  0  0  0  0
   48.4280   34.6790   42.3910 C   0  0  0  0  0  0  0  0  0  0  0  0
   48.9170   35.5580   41.2220 C   0  0  0  0  0  0  0  0  0  0  0  0
   48.6120   34.8350   39.9300 C   0  0  0  0  0  0  0  0  0  0  0  0
   47.2620   34.2000   39.8840 C   0  0  0  0  0  0  0  0  0  0  0  0
   46.3380   34.5710   41.0040 C   0  0  1  0  0  0  0  0  0  0  0  0
   48.7940   35.0390   43.3450 H   0  0  0  0  0  0  0  0  0  0  0  0
   48.7630   33.6550   42.1160 H   0  0  0  0  0  0  0  0  0  0  0  0
   48.3020   36.4990   41.2820 H   0  0  0  0  0  0  0  0  0  0  0  0
   49.9880   35.7590   41.2730 H   0  0  0  0  0  0  0  0  0  0  0  0
   48.8030   35.5420   39.0980 H   0  0  0  0  0  0  0  0  0  0  0  0
   49.3960   34.0340   39.8410 H   0  0  0  0  0  0  0  0  0  0  0  0
   47.3540   33.0800   39.8960 H   0  0  0  0  0  0  0  0  0  0  0  0
   46.8130   34.4440   38.8990 H   0  0  0  0  0  0  0  0  0  0  0  0
   45.9010   35.5720   40.7710 H   0  0  0  0  0  0  0  0  0  0  0  0
   44.4980   35.9810   44.7520 C   0  0  0  0  0  0  0  0  0  0  0  0
   45.2670   35.9340   43.5770 C   0  0  0  0  0  0  0  0  0  0  0  0
   46.1540   34.8490   43.4190 C   0  0  0  0  0  0  0  0  0  0  0  0
   46.2000   33.9290   44.4140 N   0  0  0  0  0  0  0  0  0  0  0  0
   45.4430   34.0100   45.5310 C   0  0  0  0  0  0  0  0  0  0  0  0
   44.5820   35.0580   45.6910 N   0  0  0  0  0  0  0  0  0  0  0  0
   43.8160   36.8050   44.8860 H   0  0  0  0  0  0  0  0  0  0  0  0
   45.2150   36.6760   42.7970 H   0  0  0  0  0  0  0  0  0  0  0  0
   45.5080   33.2560   46.3050 H   0  0  0  0  0  0  0  0  0  0  0  0
   45.3460   33.5800   41.0910 O   0  0  0  0  0  0  0  0  0  0  0  0
   43.4980   33.8560   39.5400 C   0  0  2  0  0  3  0  0  0  0  0  0
   44.0740   34.0510   40.8980 C   0  0  1  0  0  3  0  0  0  0  0  0
   43.1480   33.6970   41.8510 O   0  0  0  0  0  0  0  0  0  0  0  0
   43.2100   32.2880   41.9830 C   0  0  0  0  0  2  0  0  0  0  0  0
   42.9990   31.6420   40.6410 C   0  0  1  0  0  3  0  0  0  0  0  0
   42.5670   32.6620   39.5990 C   0  0  2  0  0  3  0  0  0  0  0  0
   44.4440   33.5700   38.5640 O   0  0  0  0  0  0  0  0  0  0  0  0
   44.0380   33.6190   37.6770 H   0  0  0  0  0  0  0  0  0  0  0  0
   44.1800   31.0270   40.2590 O   0  0  0  0  0  0  0  0  0  0  0  0
   44.0560   30.5730   39.3710 H   0  0  0  0  0  0  0  0  0  0  0  0
   42.5510   32.0490   38.3500 O   0  0  0  0  0  0  0  0  0  0  0  0
   42.2080   32.6750   37.6900 H   0  0  0  0  0  0  0  0  0  0  0  0
  1  2  1  0  0  0  0
  1 18  1  0  0  0  0
  2  7  1  0  0  0  0
  3 10  1  0  0  0  0
  3  9  1  0  0  0  0
  3  2  1  0  0  0  0
  4  3  1  0  0  0  0
  5 13  1  0  0  0  0
  5  4  1  0  0  0  0
  5  6  1  0  0  0  0
  6 15  1  6  0  0  0
  6 25  1  0  0  0  0
  6  1  1  0  0  0  0
  8  2  1  0  0  0  0
 11  4  1  0  0  0  0
 12  4  1  0  0  0  0
 14  5  1  0  0  0  0
 16 22  1  0  0  0  0
 16 21  1  0  0  0  0
 17 16  2  0  0  0  0
 18 17  1  0  0  0  0
 18 19  2  0  0  0  0
 19 20  1  0  0  0  0
 20 21  2  0  0  0  0
 20 24  1  0  0  0  0
 23 17  1  0  0  0  0
 26 32  1  6  0  0  0
 26 31  1  0  0  0  0
 26 27  1  0  0  0  0
 27 25  1  6  0  0  0
 27 28  1  0  0  0  0
 28 29  1  0  0  0  0
 30 34  1  6  0  0  0
 30 29  1  0  0  0  0
 31 36  1  6  0  0  0
 31 30  1  0  0  0  0
 33 32  1  0  0  0  0
 35 34  1  0  0  0  0
 37 36  1  0  0  0  0
M  END
>  <minimizedAffinity>
-5.52191257

>  <minimizedRMSD>
2.35312223

$$$$
