
 OpenBabel03242512193D

 36 38  0  0  1  0  0  0  0  0999 V2000
   38.2430   29.3240   42.6680 C   0  0  0  0  0  0  0  0  0  0  0  0
   38.4530   27.9970   42.9960 C   0  0  0  0  0  0  0  0  0  0  0  0
   39.7460   27.5330   43.1150 C   0  0  0  0  0  0  0  0  0  0  0  0
   40.7920   28.4140   42.8980 C   0  0  0  0  0  0  0  0  0  0  0  0
   40.5330   29.7100   42.5770 C   0  0  0  0  0  0  0  0  0  0  0  0
   39.2590   30.2230   42.4480 C   0  0  0  0  0  0  0  0  0  0  0  0
   39.8560   26.4910   43.3730 H   0  0  0  0  0  0  0  0  0  0  0  0
   41.7720   27.9700   43.0110 H   0  0  0  0  0  0  0  0  0  0  0  0
   41.4430   30.2740   42.4390 H   0  0  0  0  0  0  0  0  0  0  0  0
   37.2190   27.1880   43.1920 C   0  0  0  0  0  0  0  0  0  0  0  0
   36.3660   27.7760   43.4740 H   0  0  0  0  0  0  0  0  0  0  0  0
   37.4490   26.5240   44.0720 H   0  0  0  0  0  0  0  0  0  0  0  0
   37.0120   26.2880   42.0100 C   0  0  0  0  0  0  0  0  0  0  0  0
   37.0240   24.9120   42.2520 C   0  0  0  0  0  0  0  0  0  0  0  0
   36.8250   24.0520   41.1680 C   0  0  0  0  0  0  0  0  0  0  0  0
   36.6330   24.6010   39.9560 N   0  0  0  0  0  0  0  0  0  0  0  0
   36.6260   25.9470   39.7450 C   0  0  0  0  0  0  0  0  0  0  0  0
   36.8160   26.7910   40.7770 N   0  0  0  0  0  0  0  0  0  0  0  0
   37.1820   24.5140   43.2360 H   0  0  0  0  0  0  0  0  0  0  0  0
   36.8260   22.9920   41.3030 H   0  0  0  0  0  0  0  0  0  0  0  0
   36.4650   26.3170   38.7410 H   0  0  0  0  0  0  0  0  0  0  0  0
   36.9480   29.8810   42.5280 O   0  0  0  0  0  0  0  0  0  0  0  0
   36.2700   29.8570   43.2620 H   0  0  0  0  0  0  0  0  0  0  0  0
   39.0700   31.5430   42.1230 O   0  0  0  0  0  0  0  0  0  0  0  0
   38.0150   31.7920   40.0430 C   0  0  2  0  0  3  0  0  0  0  0  0
   39.1950   32.1770   40.9110 C   0  0  2  0  0  3  0  0  0  0  0  0
   40.4070   31.8580   40.3030 O   0  0  0  0  0  0  0  0  0  0  0  0
   40.5470   32.5310   39.0940 C   0  0  0  0  0  2  0  0  0  0  0  0
   39.5310   31.9520   38.1400 C   0  0  1  0  0  3  0  0  0  0  0  0
   38.1560   32.3530   38.6430 C   0  0  1  0  0  3  0  0  0  0  0  0
   36.8720   32.2970   40.6480 O   0  0  0  0  0  0  0  0  0  0  0  0
   36.3730   31.5690   41.0750 H   0  0  0  0  0  0  0  0  0  0  0  0
   39.7350   32.3610   36.8210 O   0  0  0  0  0  0  0  0  0  0  0  0
   39.4380   31.6070   36.2500 H   0  0  0  0  0  0  0  0  0  0  0  0
   37.1880   31.7750   37.8290 O   0  0  0  0  0  0  0  0  0  0  0  0
   36.3800   31.6120   38.3730 H   0  0  0  0  0  0  0  0  0  0  0  0
  1  2  1  0  0  0  0
  2  3  2  0  0  0  0
  2 10  1  0  0  0  0
  3  7  1  0  0  0  0
  4  8  1  0  0  0  0
  4  3  1  0  0  0  0
  5  4  2  0  0  0  0
  6  5  1  0  0  0  0
  6  1  2  0  0  0  0
  9  5  1  0  0  0  0
 10 11  1  0  0  0  0
 10 12  1  0  0  0  0
 13 14  1  0  0  0  0
 13 10  1  0  0  0  0
 14 19  1  0  0  0  0
 15 20  1  0  0  0  0
 15 14  2  0  0  0  0
 16 15  1  0  0  0  0
 17 16  2  0  0  0  0
 17 18  1  0  0  0  0
 18 13  2  0  0  0  0
 21 17  1  0  0  0  0
 22  1  1  0  0  0  0
 22 23  1  0  0  0  0
 24  6  1  0  0  0  0
 25 31  1  1  0  0  0
 25 26  1  0  0  0  0
 26 24  1  1  0  0  0
 27 26  1  0  0  0  0
 28 27  1  0  0  0  0
 29 33  1  6  0  0  0
 29 30  1  0  0  0  0
 29 28  1  0  0  0  0
 30 35  1  6  0  0  0
 30 25  1  0  0  0  0
 31 32  1  0  0  0  0
 34 33  1  0  0  0  0
 35 36  1  0  0  0  0
M  END
>  <minimizedAffinity>
-6.84908295

$$$$

 OpenBabel03242512193D

 36 38  0  0  1  0  0  0  0  0999 V2000
   37.6860   29.4200   41.9940 C   0  0  0  0  0  0  0  0  0  0  0  0
   36.7050   28.4470   42.0600 C   0  0  0  0  0  0  0  0  0  0  0  0
   35.6680   28.4800   41.1510 C   0  0  0  0  0  0  0  0  0  0  0  0
   35.6440   29.4890   40.2040 C   0  0  0  0  0  0  0  0  0  0  0  0
   36.6330   30.4230   40.1810 C   0  0  0  0  0  0  0  0  0  0  0  0
   37.6920   30.4330   41.0660 C   0  0  0  0  0  0  0  0  0  0  0  0
   34.9290   27.6990   41.2440 H   0  0  0  0  0  0  0  0  0  0  0  0
   34.7980   29.4420   39.5310 H   0  0  0  0  0  0  0  0  0  0  0  0
   36.4810   31.1430   39.3910 H   0  0  0  0  0  0  0  0  0  0  0  0
   36.8810   27.4390   43.1400 C   0  0  0  0  0  0  0  0  0  0  0  0
   35.9680   27.2080   43.6580 H   0  0  0  0  0  0  0  0  0  0  0  0
   37.5520   27.9390   43.8920 H   0  0  0  0  0  0  0  0  0  0  0  0
   37.6300   26.2530   42.6080 C   0  0  0  0  0  0  0  0  0  0  0  0
   36.8680   25.1680   42.1680 C   0  0  0  0  0  0  0  0  0  0  0  0
   37.5420   24.0540   41.6600 C   0  0  0  0  0  0  0  0  0  0  0  0
   38.8850   24.0930   41.6250 N   0  0  0  0  0  0  0  0  0  0  0  0
   39.6080   25.1640   42.0610 C   0  0  0  0  0  0  0  0  0  0  0  0
   38.9750   26.2460   42.5540 N   0  0  0  0  0  0  0  0  0  0  0  0
   35.7950   25.1770   42.2140 H   0  0  0  0  0  0  0  0  0  0  0  0
   37.0030   23.2000   41.3110 H   0  0  0  0  0  0  0  0  0  0  0  0
   40.6870   25.1240   42.0020 H   0  0  0  0  0  0  0  0  0  0  0  0
   38.7850   29.4580   42.8870 O   0  0  0  0  0  0  0  0  0  0  0  0
   39.4190   28.6920   42.9940 H   0  0  0  0  0  0  0  0  0  0  0  0
   38.6570   31.4060   40.9840 O   0  0  0  0  0  0  0  0  0  0  0  0
   39.1760   32.1250   38.8130 C   0  0  2  0  0  3  0  0  0  0  0  0
   39.7040   31.5340   40.1040 C   0  0  2  0  0  3  0  0  0  0  0  0
   40.3310   30.3080   39.8910 O   0  0  0  0  0  0  0  0  0  0  0  0
   41.4130   30.4500   39.0300 C   0  0  0  0  0  2  0  0  0  0  0  0
   40.8580   30.7830   37.6660 C   0  0  1  0  0  3  0  0  0  0  0  0
   40.2540   32.1730   37.7490 C   0  0  1  0  0  3  0  0  0  0  0  0
   38.7260   33.4070   39.0960 O   0  0  0  0  0  0  0  0  0  0  0  0
   37.7450   33.4180   39.1160 H   0  0  0  0  0  0  0  0  0  0  0  0
   41.8200   30.7000   36.6570 O   0  0  0  0  0  0  0  0  0  0  0  0
   41.3380   30.4100   35.8410 H   0  0  0  0  0  0  0  0  0  0  0  0
   39.6660   32.4870   36.5300 O   0  0  0  0  0  0  0  0  0  0  0  0
   38.9070   33.0970   36.6960 H   0  0  0  0  0  0  0  0  0  0  0  0
  1  2  1  0  0  0  0
  1 22  1  0  0  0  0
  2 10  1  0  0  0  0
  3  7  1  0  0  0  0
  3  2  2  0  0  0  0
  4  3  1  0  0  0  0
  5  4  2  0  0  0  0
  5  6  1  0  0  0  0
  6  1  2  0  0  0  0
  8  4  1  0  0  0  0
  9  5  1  0  0  0  0
 10 11  1  0  0  0  0
 10 12  1  0  0  0  0
 13 10  1  0  0  0  0
 14 19  1  0  0  0  0
 14 13  2  0  0  0  0
 15 14  1  0  0  0  0
 16 15  2  0  0  0  0
 16 17  1  0  0  0  0
 17 18  2  0  0  0  0
 18 13  1  0  0  0  0
 20 15  1  0  0  0  0
 21 17  1  0  0  0  0
 22 23  1  0  0  0  0
 24  6  1  0  0  0  0
 25 31  1  1  0  0  0
 25 26  1  0  0  0  0
 26 24  1  1  0  0  0
 27 26  1  0  0  0  0
 28 27  1  0  0  0  0
 29 33  1  6  0  0  0
 29 30  1  0  0  0  0
 29 28  1  0  0  0  0
 30 35  1  6  0  0  0
 30 25  1  0  0  0  0
 31 32  1  0  0  0  0
 34 33  1  0  0  0  0
 35 36  1  0  0  0  0
M  END
>  <minimizedAffinity>
-6.51689529

$$$$

 OpenBabel03242512193D

 36 38  0  0  1  0  0  0  0  0999 V2000
   37.2020   28.6580   42.0800 C   0  0  0  0  0  0  0  0  0  0  0  0
   37.7630   27.5280   42.6450 C   0  0  0  0  0  0  0  0  0  0  0  0
   39.0740   27.5720   43.0730 C   0  0  0  0  0  0  0  0  0  0  0  0
   39.7840   28.7500   42.9180 C   0  0  0  0  0  0  0  0  0  0  0  0
   39.1880   29.8350   42.3550 C   0  0  0  0  0  0  0  0  0  0  0  0
   37.8800   29.8410   41.9130 C   0  0  0  0  0  0  0  0  0  0  0  0
   39.4640   26.6650   43.5070 H   0  0  0  0  0  0  0  0  0  0  0  0
   40.8030   28.7000   43.2780 H   0  0  0  0  0  0  0  0  0  0  0  0
   39.8630   30.6760   42.3010 H   0  0  0  0  0  0  0  0  0  0  0  0
   36.8610   26.3460   42.7340 C   0  0  0  0  0  0  0  0  0  0  0  0
   35.8300   26.6100   42.8790 H   0  0  0  0  0  0  0  0  0  0  0  0
   37.1840   25.8100   43.6690 H   0  0  0  0  0  0  0  0  0  0  0  0
   37.1280   25.4200   41.5850 C   0  0  0  0  0  0  0  0  0  0  0  0
   37.7190   24.1910   41.8870 C   0  0  0  0  0  0  0  0  0  0  0  0
   37.9700   23.3060   40.8350 C   0  0  0  0  0  0  0  0  0  0  0  0
   37.6270   23.6900   39.5940 N   0  0  0  0  0  0  0  0  0  0  0  0
   37.0510   24.8950   39.3230 C   0  0  0  0  0  0  0  0  0  0  0  0
   36.8020   25.7610   40.3250 N   0  0  0  0  0  0  0  0  0  0  0  0
   37.9790   23.9220   42.8940 H   0  0  0  0  0  0  0  0  0  0  0  0
   38.4210   22.3540   41.0160 H   0  0  0  0  0  0  0  0  0  0  0  0
   36.8010   25.1370   38.2980 H   0  0  0  0  0  0  0  0  0  0  0  0
   35.8640   28.6970   41.6170 O   0  0  0  0  0  0  0  0  0  0  0  0
   35.0840   28.4900   42.2070 H   0  0  0  0  0  0  0  0  0  0  0  0
   37.3400   30.9740   41.3560 O   0  0  0  0  0  0  0  0  0  0  0  0
   37.5100   30.6280   39.0420 C   0  0  2  0  0  3  0  0  0  0  0  0
   37.6580   31.6140   40.1830 C   0  0  2  0  0  3  0  0  0  0  0  0
   38.9430   32.1490   40.2380 O   0  0  0  0  0  0  0  0  0  0  0  0
   39.2460   32.8290   39.0630 C   0  0  0  0  0  2  0  0  0  0  0  0
   39.3600   31.7980   37.9660 C   0  0  1  0  0  3  0  0  0  0  0  0
   37.9720   31.2310   37.7310 C   0  0  1  0  0  3  0  0  0  0  0  0
   36.1680   30.2810   38.9630 O   0  0  0  0  0  0  0  0  0  0  0  0
   36.0380   29.3790   39.3240 H   0  0  0  0  0  0  0  0  0  0  0  0
   39.9090   32.3170   36.7930 O   0  0  0  0  0  0  0  0  0  0  0  0
   40.4130   31.5740   36.3730 H   0  0  0  0  0  0  0  0  0  0  0  0
   38.0480   30.2230   36.7770 O   0  0  0  0  0  0  0  0  0  0  0  0
   37.3350   29.5650   36.9600 H   0  0  0  0  0  0  0  0  0  0  0  0
  1  2  1  0  0  0  0
  2 10  1  0  0  0  0
  2  3  2  0  0  0  0
  3  7  1  0  0  0  0
  4  3  1  0  0  0  0
  4  8  1  0  0  0  0
  5  4  2  0  0  0  0
  6  1  2  0  0  0  0
  6  5  1  0  0  0  0
  9  5  1  0  0  0  0
 10 11  1  0  0  0  0
 10 12  1  0  0  0  0
 13 14  1  0  0  0  0
 13 10  1  0  0  0  0
 14 19  1  0  0  0  0
 15 20  1  0  0  0  0
 15 14  2  0  0  0  0
 16 15  1  0  0  0  0
 17 16  2  0  0  0  0
 17 18  1  0  0  0  0
 18 13  2  0  0  0  0
 21 17  1  0  0  0  0
 22  1  1  0  0  0  0
 22 23  1  0  0  0  0
 24  6  1  0  0  0  0
 25 31  1  6  0  0  0
 25 26  1  0  0  0  0
 26 27  1  0  0  0  0
 26 24  1  1  0  0  0
 28 27  1  0  0  0  0
 29 33  1  6  0  0  0
 29 28  1  0  0  0  0
 30 35  1  6  0  0  0
 30 29  1  0  0  0  0
 30 25  1  0  0  0  0
 31 32  1  0  0  0  0
 34 33  1  0  0  0  0
 35 36  1  0  0  0  0
M  END
>  <minimizedAffinity>
-6.35590744

$$$$

 OpenBabel03242512193D

 36 38  0  0  1  0  0  0  0  0999 V2000
   38.5470   29.6370   41.0630 C   0  0  0  0  0  0  0  0  0  0  0  0
   37.4800   29.1660   41.8040 C   0  0  0  0  0  0  0  0  0  0  0  0
   36.2020   29.3050   41.3020 C   0  0  0  0  0  0  0  0  0  0  0  0
   36.0330   29.9150   40.0710 C   0  0  0  0  0  0  0  0  0  0  0  0
   37.1160   30.3620   39.3800 C   0  0  0  0  0  0  0  0  0  0  0  0
   38.4130   30.2460   39.8380 C   0  0  0  0  0  0  0  0  0  0  0  0
   35.4040   28.9210   41.9190 H   0  0  0  0  0  0  0  0  0  0  0  0
   35.0020   29.9840   39.7520 H   0  0  0  0  0  0  0  0  0  0  0  0
   36.8300   30.8130   38.4420 H   0  0  0  0  0  0  0  0  0  0  0  0
   37.8370   28.5400   43.1060 C   0  0  0  0  0  0  0  0  0  0  0  0
   37.1380   28.7640   43.8910 H   0  0  0  0  0  0  0  0  0  0  0  0
   38.8080   29.0270   43.4010 H   0  0  0  0  0  0  0  0  0  0  0  0
   38.1240   27.0820   42.9050 C   0  0  0  0  0  0  0  0  0  0  0  0
   39.3470   26.6060   43.3840 C   0  0  0  0  0  0  0  0  0  0  0  0
   39.6350   25.2480   43.2160 C   0  0  0  0  0  0  0  0  0  0  0  0
   38.7180   24.4810   42.6030 N   0  0  0  0  0  0  0  0  0  0  0  0
   37.5300   24.9690   42.1440 C   0  0  0  0  0  0  0  0  0  0  0  0
   37.2360   26.2740   42.2970 N   0  0  0  0  0  0  0  0  0  0  0  0
   40.0540   27.2530   43.8670 H   0  0  0  0  0  0  0  0  0  0  0  0
   40.5580   24.8370   43.5650 H   0  0  0  0  0  0  0  0  0  0  0  0
   36.8390   24.2910   41.6610 H   0  0  0  0  0  0  0  0  0  0  0  0
   39.8890   29.5320   41.5040 O   0  0  0  0  0  0  0  0  0  0  0  0
   40.3130   28.6570   41.7340 H   0  0  0  0  0  0  0  0  0  0  0  0
   39.4610   30.7180   39.0870 O   0  0  0  0  0  0  0  0  0  0  0  0
   40.7380   32.2160   37.8120 C   0  0  2  0  0  3  0  0  0  0  0  0
   40.1310   31.9150   39.1660 C   0  0  2  0  0  3  0  0  0  0  0  0
   41.0970   31.8800   40.1690 O   0  0  0  0  0  0  0  0  0  0  0  0
   41.7470   33.1050   40.2710 C   0  0  0  0  0  2  0  0  0  0  0  0
   42.5700   33.2820   39.0180 C   0  0  1  0  0  3  0  0  0  0  0  0
   41.6030   33.4590   37.8620 C   0  0  1  0  0  3  0  0  0  0  0  0
   39.6920   32.3970   36.9170 O   0  0  0  0  0  0  0  0  0  0  0  0
   39.6110   31.6090   36.3380 H   0  0  0  0  0  0  0  0  0  0  0  0
   43.4660   34.3490   39.1070 O   0  0  0  0  0  0  0  0  0  0  0  0
   44.2550   34.0900   38.5640 H   0  0  0  0  0  0  0  0  0  0  0  0
   42.3240   33.5510   36.6770 O   0  0  0  0  0  0  0  0  0  0  0  0
   41.7690   33.1890   35.9450 H   0  0  0  0  0  0  0  0  0  0  0  0
  1 22  1  0  0  0  0
  1  2  1  0  0  0  0
  2 10  1  0  0  0  0
  3  2  2  0  0  0  0
  3  7  1  0  0  0  0
  4  3  1  0  0  0  0
  5  6  1  0  0  0  0
  5  4  2  0  0  0  0
  6  1  2  0  0  0  0
  8  4  1  0  0  0  0
  9  5  1  0  0  0  0
 10 12  1  0  0  0  0
 10 11  1  0  0  0  0
 13 10  1  0  0  0  0
 13 14  1  0  0  0  0
 14 19  1  0  0  0  0
 15 14  2  0  0  0  0
 15 20  1  0  0  0  0
 16 15  1  0  0  0  0
 17 18  1  0  0  0  0
 17 16  2  0  0  0  0
 18 13  2  0  0  0  0
 21 17  1  0  0  0  0
 22 23  1  0  0  0  0
 24  6  1  0  0  0  0
 25 31  1  6  0  0  0
 25 30  1  0  0  0  0
 25 26  1  0  0  0  0
 26 24  1  6  0  0  0
 26 27  1  0  0  0  0
 27 28  1  0  0  0  0
 29 33  1  1  0  0  0
 29 28  1  0  0  0  0
 30 35  1  6  0  0  0
 30 29  1  0  0  0  0
 32 31  1  0  0  0  0
 34 33  1  0  0  0  0
 36 35  1  0  0  0  0
M  END
>  <minimizedAffinity>
-6.3062849

$$$$

 OpenBabel03242512193D

 36 38  0  0  1  0  0  0  0  0999 V2000
   36.7950   28.9920   41.6040 C   0  0  0  0  0  0  0  0  0  0  0  0
   36.7120   27.6130   41.5450 C   0  0  0  0  0  0  0  0  0  0  0  0
   36.5380   27.0040   40.3200 C   0  0  0  0  0  0  0  0  0  0  0  0
   36.4500   27.7970   39.1890 C   0  0  0  0  0  0  0  0  0  0  0  0
   36.5370   29.1500   39.2990 C   0  0  0  0  0  0  0  0  0  0  0  0
   36.7120   29.8060   40.5000 C   0  0  0  0  0  0  0  0  0  0  0  0
   36.4810   25.9260   40.3280 H   0  0  0  0  0  0  0  0  0  0  0  0
   36.3150   27.2410   38.2710 H   0  0  0  0  0  0  0  0  0  0  0  0
   36.4520   29.6330   38.3370 H   0  0  0  0  0  0  0  0  0  0  0  0
   36.8230   26.9130   42.8540 C   0  0  0  0  0  0  0  0  0  0  0  0
   35.9930   26.2620   43.0580 H   0  0  0  0  0  0  0  0  0  0  0  0
   36.7750   27.7340   43.6230 H   0  0  0  0  0  0  0  0  0  0  0  0
   38.1760   26.2800   42.9770 C   0  0  0  0  0  0  0  0  0  0  0  0
   39.1890   27.0550   43.5460 C   0  0  0  0  0  0  0  0  0  0  0  0
   40.4580   26.4850   43.6790 C   0  0  0  0  0  0  0  0  0  0  0  0
   40.6290   25.2220   43.2510 N   0  0  0  0  0  0  0  0  0  0  0  0
   39.6250   24.4850   42.6980 C   0  0  0  0  0  0  0  0  0  0  0  0
   38.3960   25.0180   42.5620 N   0  0  0  0  0  0  0  0  0  0  0  0
   39.0110   28.0610   43.8750 H   0  0  0  0  0  0  0  0  0  0  0  0
   41.2650   27.0380   44.1090 H   0  0  0  0  0  0  0  0  0  0  0  0
   39.8360   23.4730   42.3760 H   0  0  0  0  0  0  0  0  0  0  0  0
   36.9750   29.6950   42.8200 O   0  0  0  0  0  0  0  0  0  0  0  0
   37.7500   29.5290   43.4290 H   0  0  0  0  0  0  0  0  0  0  0  0
   36.7940   31.1760   40.5380 O   0  0  0  0  0  0  0  0  0  0  0  0
   38.3590   32.1310   39.0760 C   0  0  2  0  0  3  0  0  0  0  0  0
   37.8980   31.9920   40.5120 C   0  0  2  0  0  3  0  0  0  0  0  0
   38.9080   31.4930   41.3320 O   0  0  0  0  0  0  0  0  0  0  0  0
   40.0090   32.3420   41.3320 C   0  0  0  0  0  2  0  0  0  0  0  0
   40.6290   32.2720   39.9570 C   0  0  1  0  0  3  0  0  0  0  0  0
   39.6540   32.9130   38.9870 C   0  0  1  0  0  3  0  0  0  0  0  0
   37.3550   32.7860   38.3770 O   0  0  0  0  0  0  0  0  0  0  0  0
   36.8700   32.1470   37.8140 H   0  0  0  0  0  0  0  0  0  0  0  0
   41.8850   32.8780   39.9000 O   0  0  0  0  0  0  0  0  0  0  0  0
   42.4050   32.3690   39.2260 H   0  0  0  0  0  0  0  0  0  0  0  0
   40.1570   32.8020   37.6960 O   0  0  0  0  0  0  0  0  0  0  0  0
   39.3970   32.7530   37.0680 H   0  0  0  0  0  0  0  0  0  0  0  0
  1 22  1  0  0  0  0
  2  1  1  0  0  0  0
  2 10  1  0  0  0  0
  3  7  1  0  0  0  0
  3  2  2  0  0  0  0
  4  5  2  0  0  0  0
  4  3  1  0  0  0  0
  5  6  1  0  0  0  0
  6 24  1  0  0  0  0
  6  1  2  0  0  0  0
  8  4  1  0  0  0  0
  9  5  1  0  0  0  0
 10 13  1  0  0  0  0
 10 11  1  0  0  0  0
 10 12  1  0  0  0  0
 13 14  1  0  0  0  0
 14 15  2  0  0  0  0
 14 19  1  0  0  0  0
 15 20  1  0  0  0  0
 16 15  1  0  0  0  0
 17 16  2  0  0  0  0
 18 17  1  0  0  0  0
 18 13  2  0  0  0  0
 21 17  1  0  0  0  0
 22 23  1  0  0  0  0
 25 31  1  6  0  0  0
 25 26  1  0  0  0  0
 26 24  1  6  0  0  0
 26 27  1  0  0  0  0
 28 27  1  0  0  0  0
 29 33  1  1  0  0  0
 29 28  1  0  0  0  0
 30 35  1  6  0  0  0
 30 25  1  0  0  0  0
 30 29  1  0  0  0  0
 32 31  1  0  0  0  0
 34 33  1  0  0  0  0
 36 35  1  0  0  0  0
M  END
>  <minimizedAffinity>
-6.20889711

$$$$

 OpenBabel03242512193D

 36 38  0  0  1  0  0  0  0  0999 V2000
   36.4770   26.4310   39.6130 C   0  0  0  0  0  0  0  0  0  0  0  0
   36.6560   25.0920   39.9070 C   0  0  0  0  0  0  0  0  0  0  0  0
   36.9910   24.7280   41.1950 C   0  0  0  0  0  0  0  0  0  0  0  0
   37.1390   25.7200   42.1490 C   0  0  0  0  0  0  0  0  0  0  0  0
   36.9530   27.0240   41.8100 C   0  0  0  0  0  0  0  0  0  0  0  0
   36.6160   27.4390   40.5370 C   0  0  0  0  0  0  0  0  0  0  0  0
   37.1190   23.6720   41.3730 H   0  0  0  0  0  0  0  0  0  0  0  0
   37.4020   25.3500   43.1310 H   0  0  0  0  0  0  0  0  0  0  0  0
   37.1020   27.6800   42.6540 H   0  0  0  0  0  0  0  0  0  0  0  0
   36.4610   24.1580   38.7650 C   0  0  0  0  0  0  0  0  0  0  0  0
   37.1870   23.3670   38.7350 H   0  0  0  0  0  0  0  0  0  0  0  0
   36.6420   24.7860   37.8480 H   0  0  0  0  0  0  0  0  0  0  0  0
   35.0300   23.7140   38.7120 C   0  0  0  0  0  0  0  0  0  0  0  0
   34.2590   24.1870   37.6480 C   0  0  0  0  0  0  0  0  0  0  0  0
   32.9230   23.7800   37.5720 C   0  0  0  0  0  0  0  0  0  0  0  0
   32.4610   22.9570   38.5280 N   0  0  0  0  0  0  0  0  0  0  0  0
   33.2330   22.5090   39.5580 C   0  0  0  0  0  0  0  0  0  0  0  0
   34.5220   22.8910   39.6480 N   0  0  0  0  0  0  0  0  0  0  0  0
   34.6670   24.8440   36.9040 H   0  0  0  0  0  0  0  0  0  0  0  0
   32.2930   24.1150   36.7760 H   0  0  0  0  0  0  0  0  0  0  0  0
   32.7920   21.8470   40.2920 H   0  0  0  0  0  0  0  0  0  0  0  0
   36.1310   26.8890   38.3180 O   0  0  0  0  0  0  0  0  0  0  0  0
   35.3110   26.5770   37.8380 H   0  0  0  0  0  0  0  0  0  0  0  0
   36.4410   28.7730   40.2640 O   0  0  0  0  0  0  0  0  0  0  0  0
   36.5560   31.1150   40.2950 C   0  0  2  0  0  3  0  0  0  0  0  0
   37.3300   29.8150   40.3640 C   0  0  2  0  0  3  0  0  0  0  0  0
   38.3020   29.7400   39.3700 O   0  0  0  0  0  0  0  0  0  0  0  0
   39.2210   30.7750   39.4980 C   0  0  0  0  0  2  0  0  0  0  0  0
   38.5000   32.0580   39.1640 C   0  0  1  0  0  3  0  0  0  0  0  0
   37.4890   32.3090   40.2680 C   0  0  1  0  0  3  0  0  0  0  0  0
   35.7370   31.1730   41.4140 O   0  0  0  0  0  0  0  0  0  0  0  0
   34.8090   30.9890   41.1560 H   0  0  0  0  0  0  0  0  0  0  0  0
   39.3680   33.1400   39.0080 O   0  0  0  0  0  0  0  0  0  0  0  0
   38.9520   33.7300   38.3280 H   0  0  0  0  0  0  0  0  0  0  0  0
   36.7510   33.4460   39.9590 O   0  0  0  0  0  0  0  0  0  0  0  0
   35.8490   33.3500   40.3490 H   0  0  0  0  0  0  0  0  0  0  0  0
  1  2  2  0  0  0  0
  1  6  1  0  0  0  0
  2  3  1  0  0  0  0
  3  7  1  0  0  0  0
  3  4  2  0  0  0  0
  4  8  1  0  0  0  0
  5  4  1  0  0  0  0
  5  9  1  0  0  0  0
  6  5  2  0  0  0  0
 10  2  1  0  0  0  0
 11 10  1  0  0  0  0
 12 10  1  0  0  0  0
 13 10  1  0  0  0  0
 13 18  1  0  0  0  0
 14 13  2  0  0  0  0
 15 14  1  0  0  0  0
 15 16  2  0  0  0  0
 16 17  1  0  0  0  0
 17 18  2  0  0  0  0
 17 21  1  0  0  0  0
 19 14  1  0  0  0  0
 20 15  1  0  0  0  0
 22  1  1  0  0  0  0
 23 22  1  0  0  0  0
 24  6  1  0  0  0  0
 25 26  1  0  0  0  0
 25 31  1  1  0  0  0
 26 24  1  6  0  0  0
 27 28  1  0  0  0  0
 27 26  1  0  0  0  0
 29 33  1  1  0  0  0
 29 28  1  0  0  0  0
 29 30  1  0  0  0  0
 30 35  1  6  0  0  0
 30 25  1  0  0  0  0
 32 31  1  0  0  0  0
 34 33  1  0  0  0  0
 35 36  1  0  0  0  0
M  END
>  <minimizedAffinity>
-6.15777969

$$$$

 OpenBabel03242512193D

 36 38  0  0  1  0  0  0  0  0999 V2000
   34.1370   28.9850   37.5820 C   0  0  0  0  0  0  0  0  0  0  0  0
   33.4230   29.0040   36.3980 C   0  0  0  0  0  0  0  0  0  0  0  0
   34.1040   29.1530   35.2080 C   0  0  0  0  0  0  0  0  0  0  0  0
   35.4820   29.2790   35.2400 C   0  0  0  0  0  0  0  0  0  0  0  0
   36.1390   29.2540   36.4310 C   0  0  0  0  0  0  0  0  0  0  0  0
   35.5040   29.1070   37.6480 C   0  0  0  0  0  0  0  0  0  0  0  0
   33.5020   29.1610   34.3120 H   0  0  0  0  0  0  0  0  0  0  0  0
   35.9380   29.3920   34.2660 H   0  0  0  0  0  0  0  0  0  0  0  0
   37.2050   29.3640   36.3000 H   0  0  0  0  0  0  0  0  0  0  0  0
   31.9490   28.8590   36.5420 C   0  0  0  0  0  0  0  0  0  0  0  0
   31.6610   28.2860   37.4040 H   0  0  0  0  0  0  0  0  0  0  0  0
   31.6320   28.2570   35.6440 H   0  0  0  0  0  0  0  0  0  0  0  0
   31.2940   30.2020   36.4190 C   0  0  0  0  0  0  0  0  0  0  0  0
   30.6280   30.6870   37.5480 C   0  0  0  0  0  0  0  0  0  0  0  0
   30.0160   31.9410   37.4620 C   0  0  0  0  0  0  0  0  0  0  0  0
   30.1050   32.6060   36.2980 N   0  0  0  0  0  0  0  0  0  0  0  0
   30.7600   32.1120   35.2090 C   0  0  0  0  0  0  0  0  0  0  0  0
   31.3550   30.9050   35.2740 N   0  0  0  0  0  0  0  0  0  0  0  0
   30.5800   30.1230   38.4600 H   0  0  0  0  0  0  0  0  0  0  0  0
   29.4950   32.3550   38.2980 H   0  0  0  0  0  0  0  0  0  0  0  0
   30.7910   32.7050   34.3040 H   0  0  0  0  0  0  0  0  0  0  0  0
   33.5160   28.8350   38.8460 O   0  0  0  0  0  0  0  0  0  0  0  0
   32.9370   28.0520   39.0720 H   0  0  0  0  0  0  0  0  0  0  0  0
   36.2300   29.0890   38.8130 O   0  0  0  0  0  0  0  0  0  0  0  0
   36.5460   31.2570   39.6500 C   0  0  2  0  0  3  0  0  0  0  0  0
   37.2040   29.9500   39.2560 C   0  0  2  0  0  3  0  0  0  0  0  0
   38.1840   30.1380   38.2850 O   0  0  0  0  0  0  0  0  0  0  0  0
   39.1870   30.9800   38.7510 C   0  0  0  0  0  2  0  0  0  0  0  0
   38.5860   32.3580   38.8910 C   0  0  1  0  0  3  0  0  0  0  0  0
   37.5790   32.3000   40.0260 C   0  0  1  0  0  3  0  0  0  0  0  0
   35.7150   30.9950   40.7310 O   0  0  0  0  0  0  0  0  0  0  0  0
   34.7800   30.9940   40.4360 H   0  0  0  0  0  0  0  0  0  0  0  0
   39.5470   33.3470   39.1080 O   0  0  0  0  0  0  0  0  0  0  0  0
   39.1960   34.1690   38.6790 H   0  0  0  0  0  0  0  0  0  0  0  0
   36.9490   33.5340   40.1380 O   0  0  0  0  0  0  0  0  0  0  0  0
   36.0350   33.3880   40.4830 H   0  0  0  0  0  0  0  0  0  0  0  0
  1  6  1  0  0  0  0
  1 22  1  0  0  0  0
  2 10  1  0  0  0  0
  2  1  2  0  0  0  0
  3  4  2  0  0  0  0
  3  2  1  0  0  0  0
  4  5  1  0  0  0  0
  5  6  2  0  0  0  0
  6 24  1  0  0  0  0
  7  3  1  0  0  0  0
  8  4  1  0  0  0  0
  9  5  1  0  0  0  0
 10 11  1  0  0  0  0
 12 10  1  0  0  0  0
 13 10  1  0  0  0  0
 13 14  1  0  0  0  0
 14 19  1  0  0  0  0
 15 14  2  0  0  0  0
 15 20  1  0  0  0  0
 16 15  1  0  0  0  0
 17 18  1  0  0  0  0
 17 16  2  0  0  0  0
 18 13  2  0  0  0  0
 21 17  1  0  0  0  0
 22 23  1  0  0  0  0
 25 30  1  0  0  0  0
 25 31  1  1  0  0  0
 26 24  1  6  0  0  0
 26 25  1  0  0  0  0
 27 28  1  0  0  0  0
 27 26  1  0  0  0  0
 28 29  1  0  0  0  0
 29 33  1  1  0  0  0
 29 30  1  0  0  0  0
 30 35  1  6  0  0  0
 32 31  1  0  0  0  0
 34 33  1  0  0  0  0
 35 36  1  0  0  0  0
M  END
>  <minimizedAffinity>
-6.12244225

$$$$

 OpenBabel03242512193D

 36 38  0  0  1  0  0  0  0  0999 V2000
   37.3300   29.6540   41.8730 C   0  0  0  0  0  0  0  0  0  0  0  0
   36.4950   28.5560   41.7940 C   0  0  0  0  0  0  0  0  0  0  0  0
   35.6700   28.4190   40.6960 C   0  0  0  0  0  0  0  0  0  0  0  0
   35.7070   29.3910   39.7110 C   0  0  0  0  0  0  0  0  0  0  0  0
   36.5470   30.4530   39.8350 C   0  0  0  0  0  0  0  0  0  0  0  0
   37.3910   30.6350   40.9120 C   0  0  0  0  0  0  0  0  0  0  0  0
   35.0370   27.5450   40.6820 H   0  0  0  0  0  0  0  0  0  0  0  0
   35.0300   29.2090   38.8870 H   0  0  0  0  0  0  0  0  0  0  0  0
   36.4660   31.1250   38.9940 H   0  0  0  0  0  0  0  0  0  0  0  0
   36.5780   27.6090   42.9390 C   0  0  0  0  0  0  0  0  0  0  0  0
   35.6160   27.2920   43.2980 H   0  0  0  0  0  0  0  0  0  0  0  0
   37.0420   28.2080   43.7720 H   0  0  0  0  0  0  0  0  0  0  0  0
   37.5340   26.5020   42.6130 C   0  0  0  0  0  0  0  0  0  0  0  0
   36.9800   25.2830   42.2130 C   0  0  0  0  0  0  0  0  0  0  0  0
   37.8510   24.2380   41.8950 C   0  0  0  0  0  0  0  0  0  0  0  0
   39.1720   24.4670   41.9920 N   0  0  0  0  0  0  0  0  0  0  0  0
   39.6900   25.6650   42.3850 C   0  0  0  0  0  0  0  0  0  0  0  0
   38.8650   26.6840   42.6960 N   0  0  0  0  0  0  0  0  0  0  0  0
   35.9180   25.1410   42.1490 H   0  0  0  0  0  0  0  0  0  0  0  0
   37.4750   23.2870   41.5840 H   0  0  0  0  0  0  0  0  0  0  0  0
   40.7650   25.7770   42.4390 H   0  0  0  0  0  0  0  0  0  0  0  0
   38.2080   29.8690   42.9630 O   0  0  0  0  0  0  0  0  0  0  0  0
   38.9030   29.2030   43.2350 H   0  0  0  0  0  0  0  0  0  0  0  0
   38.2150   31.7310   40.9720 O   0  0  0  0  0  0  0  0  0  0  0  0
   40.3610   32.5430   41.4590 C   0  0  2  0  0  3  0  0  0  0  0  0
   39.4520   31.9330   40.4110 C   0  0  2  0  0  3  0  0  0  0  0  0
   39.3620   32.7360   39.2770 O   0  0  0  0  0  0  0  0  0  0  0  0
   40.6110   32.9070   38.6900 C   0  0  0  0  0  2  0  0  0  0  0  0
   41.4360   33.7500   39.6320 C   0  0  1  0  0  3  0  0  0  0  0  0
   41.7070   32.9140   40.8690 C   0  0  1  0  0  3  0  0  0  0  0  0
   40.5230   31.6030   42.4680 O   0  0  0  0  0  0  0  0  0  0  0  0
   39.9930   31.8630   43.2510 H   0  0  0  0  0  0  0  0  0  0  0  0
   42.6210   34.2060   39.0510 O   0  0  0  0  0  0  0  0  0  0  0  0
   42.8050   35.0890   39.4610 H   0  0  0  0  0  0  0  0  0  0  0  0
   42.4040   33.6830   41.7940 O   0  0  0  0  0  0  0  0  0  0  0  0
   42.1690   33.3710   42.7010 H   0  0  0  0  0  0  0  0  0  0  0  0
  1 22  1  0  0  0  0
  2  1  1  0  0  0  0
  2 10  1  0  0  0  0
  3  2  2  0  0  0  0
  4  5  2  0  0  0  0
  4  3  1  0  0  0  0
  5  6  1  0  0  0  0
  6 24  1  0  0  0  0
  6  1  2  0  0  0  0
  7  3  1  0  0  0  0
  8  4  1  0  0  0  0
  9  5  1  0  0  0  0
 10 11  1  0  0  0  0
 10 12  1  0  0  0  0
 13 18  1  0  0  0  0
 13 10  1  0  0  0  0
 14 13  2  0  0  0  0
 15 16  2  0  0  0  0
 15 14  1  0  0  0  0
 16 17  1  0  0  0  0
 17 21  1  0  0  0  0
 17 18  2  0  0  0  0
 19 14  1  0  0  0  0
 20 15  1  0  0  0  0
 22 23  1  0  0  0  0
 25 31  1  1  0  0  0
 26 24  1  1  0  0  0
 26 25  1  0  0  0  0
 27 26  1  0  0  0  0
 28 27  1  0  0  0  0
 28 29  1  0  0  0  0
 29 33  1  6  0  0  0
 29 30  1  0  0  0  0
 30 25  1  0  0  0  0
 30 35  1  1  0  0  0
 31 32  1  0  0  0  0
 33 34  1  0  0  0  0
 35 36  1  0  0  0  0
M  END
>  <minimizedAffinity>
-6.01981544

$$$$

 OpenBabel03242512193D

 36 38  0  0  1  0  0  0  0  0999 V2000
   38.5380   27.3520   41.2560 C   0  0  0  0  0  0  0  0  0  0  0  0
   38.5190   26.2620   42.1070 C   0  0  0  0  0  0  0  0  0  0  0  0
   37.5040   26.1540   43.0350 C   0  0  0  0  0  0  0  0  0  0  0  0
   36.5370   27.1440   43.0820 C   0  0  0  0  0  0  0  0  0  0  0  0
   36.5990   28.1960   42.2230 C   0  0  0  0  0  0  0  0  0  0  0  0
   37.5930   28.3500   41.2770 C   0  0  0  0  0  0  0  0  0  0  0  0
   37.5340   25.2850   43.6740 H   0  0  0  0  0  0  0  0  0  0  0  0
   35.7790   26.9830   43.8360 H   0  0  0  0  0  0  0  0  0  0  0  0
   35.7820   28.8840   42.3780 H   0  0  0  0  0  0  0  0  0  0  0  0
   39.6340   25.2940   41.9240 C   0  0  0  0  0  0  0  0  0  0  0  0
   39.9640   24.8480   42.8440 H   0  0  0  0  0  0  0  0  0  0  0  0
   40.4940   25.9150   41.5480 H   0  0  0  0  0  0  0  0  0  0  0  0
   39.2890   24.3240   40.8330 C   0  0  0  0  0  0  0  0  0  0  0  0
   38.3580   23.3290   41.1420 C   0  0  0  0  0  0  0  0  0  0  0  0
   38.0130   22.4180   40.1400 C   0  0  0  0  0  0  0  0  0  0  0  0
   38.5970   22.5540   38.9370 N   0  0  0  0  0  0  0  0  0  0  0  0
   39.5030   23.5340   38.6590 C   0  0  0  0  0  0  0  0  0  0  0  0
   39.8480   24.4210   39.6130 N   0  0  0  0  0  0  0  0  0  0  0  0
   37.9150   23.2540   42.1170 H   0  0  0  0  0  0  0  0  0  0  0  0
   37.3060   21.6390   40.3280 H   0  0  0  0  0  0  0  0  0  0  0  0
   39.9320   23.5820   37.6670 H   0  0  0  0  0  0  0  0  0  0  0  0
   39.5420   27.5380   40.2750 O   0  0  0  0  0  0  0  0  0  0  0  0
   39.7330   26.8610   39.5650 H   0  0  0  0  0  0  0  0  0  0  0  0
   37.5930   29.4380   40.4400 O   0  0  0  0  0  0  0  0  0  0  0  0
   37.1200   31.7220   40.1920 C   0  0  2  0  0  3  0  0  0  0  0  0
   38.1400   30.6850   40.6190 C   0  0  2  0  0  3  0  0  0  0  0  0
   39.3330   30.8140   39.9120 O   0  0  0  0  0  0  0  0  0  0  0  0
   39.9020   32.0650   40.1270 C   0  0  0  0  0  2  0  0  0  0  0  0
   39.0070   33.0840   39.4620 C   0  0  1  0  0  3  0  0  0  0  0  0
   37.7050   33.1190   40.2400 C   0  0  1  0  0  3  0  0  0  0  0  0
   36.0400   31.6240   41.0590 O   0  0  0  0  0  0  0  0  0  0  0  0
   35.2910   31.1820   40.6070 H   0  0  0  0  0  0  0  0  0  0  0  0
   39.5940   34.3480   39.3840 O   0  0  0  0  0  0  0  0  0  0  0  0
   39.2470   34.7610   38.5530 H   0  0  0  0  0  0  0  0  0  0  0  0
   36.8240   33.9940   39.6140 O   0  0  0  0  0  0  0  0  0  0  0  0
   35.9020   33.6820   39.7800 H   0  0  0  0  0  0  0  0  0  0  0  0
  1  6  2  0  0  0  0
  1  2  1  0  0  0  0
  2  3  2  0  0  0  0
  3  4  1  0  0  0  0
  3  7  1  0  0  0  0
  4  8  1  0  0  0  0
  5  9  1  0  0  0  0
  5  4  2  0  0  0  0
  6  5  1  0  0  0  0
 10  2  1  0  0  0  0
 10 11  1  0  0  0  0
 12 10  1  0  0  0  0
 13 14  1  0  0  0  0
 13 10  1  0  0  0  0
 14 19  1  0  0  0  0
 15 20  1  0  0  0  0
 15 14  2  0  0  0  0
 16 15  1  0  0  0  0
 17 16  2  0  0  0  0
 17 18  1  0  0  0  0
 18 13  2  0  0  0  0
 21 17  1  0  0  0  0
 22  1  1  0  0  0  0
 23 22  1  0  0  0  0
 24  6  1  0  0  0  0
 25 30  1  0  0  0  0
 25 26  1  0  0  0  0
 25 31  1  1  0  0  0
 26 24  1  6  0  0  0
 27 28  1  0  0  0  0
 27 26  1  0  0  0  0
 29 33  1  1  0  0  0
 29 28  1  0  0  0  0
 29 30  1  0  0  0  0
 30 35  1  6  0  0  0
 32 31  1  0  0  0  0
 34 33  1  0  0  0  0
 35 36  1  0  0  0  0
M  END
>  <minimizedAffinity>
-5.96941137

$$$$
