
 OpenBabel03252502563D

 40 42  0  0  1  0  0  0  0  0999 V2000
   45.1520   28.1780   44.4540 Br  0  0  0  0  0  0  0  0  0  0  0  0
   44.4450   27.2220   45.9780 C   0  0  0  0  0  0  0  0  0  0  0  0
   45.0920   27.4410   47.1650 C   0  0  0  0  0  0  0  0  0  0  0  0
   44.5620   26.7410   48.2490 C   0  0  0  0  0  0  0  0  0  0  0  0
   43.4700   25.8880   48.1450 C   0  0  0  0  0  0  0  0  0  0  0  0
   42.8870   25.7300   46.9150 C   0  0  0  0  0  0  0  0  0  0  0  0
   43.3660   26.3950   45.8110 C   0  0  0  0  0  0  0  0  0  0  0  0
   45.0010   26.8450   49.2300 H   0  0  0  0  0  0  0  0  0  0  0  0
   43.0960   25.3640   49.0240 H   0  0  0  0  0  0  0  0  0  0  0  0
   42.0280   25.0630   46.8170 H   0  0  0  0  0  0  0  0  0  0  0  0
   46.2460   28.3090   47.4100 C   0  0  0  0  0  0  0  0  0  0  0  0
   46.8440   28.3250   46.4620 H   0  0  0  0  0  0  0  0  0  0  0  0
   46.9210   27.8840   48.1820 H   0  0  0  0  0  0  0  0  0  0  0  0
   44.9390   31.3610   49.1290 C   0  0  0  0  0  0  0  0  0  0  0  0
   45.2750   32.3530   48.2000 C   0  0  0  0  0  0  0  0  0  0  0  0
   45.9230   31.9830   47.0350 C   0  0  0  0  0  0  0  0  0  0  0  0
   46.2040   30.6830   46.8410 N   0  0  0  0  0  0  0  0  0  0  0  0
   45.8770   29.7170   47.7440 C   0  0  0  0  0  0  0  0  0  0  0  0
   45.2450   30.0990   48.8760 N   0  0  0  0  0  0  0  0  0  0  0  0
   44.4350   31.4780   50.0810 H   0  0  0  0  0  0  0  0  0  0  0  0
   44.9910   33.3440   48.4850 H   0  0  0  0  0  0  0  0  0  0  0  0
   46.1720   32.7640   46.3360 H   0  0  0  0  0  0  0  0  0  0  0  0
   42.7590   26.2230   44.5610 O   0  0  0  0  0  0  0  0  0  0  0  0
   40.7240   27.3660   43.4010 O   0  0  0  0  0  0  0  0  0  0  0  0
   41.0730   26.2190   44.3400 P   0  0  2  0  0  0  0  0  0  0  0  0
   40.3580   26.4410   45.8430 O   0  0  0  0  0  0  0  0  0  0  0  0
   39.6250   27.1140   45.8090 H   0  0  0  0  0  0  0  0  0  0  0  0
   40.5260   24.7830   43.6280 O   0  0  0  0  0  0  0  0  0  0  0  0
   41.1390   22.5320   43.0600 C   0  0  2  0  0  3  0  0  0  0  0  0
   41.2980   23.6920   44.0190 C   0  0  2  0  0  3  0  0  0  0  0  0
   40.9660   23.2760   45.3020 O   0  0  0  0  0  0  0  0  0  0  0  0
   39.7550   22.6030   45.3720 C   0  0  0  0  0  2  0  0  0  0  0  0
   39.7280   21.3140   44.6140 C   0  0  1  0  0  3  0  0  0  0  0  0
   41.0400   21.2290   43.8340 C   0  0  2  0  0  3  0  0  0  0  0  0
   42.2450   22.3920   42.2030 O   0  0  0  0  0  0  0  0  0  0  0  0
   42.1560   21.4820   41.8200 H   0  0  0  0  0  0  0  0  0  0  0  0
   39.6420   20.2010   45.4200 O   0  0  0  0  0  0  0  0  0  0  0  0
   39.9130   19.4290   44.8570 H   0  0  0  0  0  0  0  0  0  0  0  0
   42.1460   21.1250   44.6660 O   0  0  0  0  0  0  0  0  0  0  0  0
   41.9430   20.8080   45.5760 H   0  0  0  0  0  0  0  0  0  0  0  0
  1  2  1  0  0  0  0
  2  3  1  0  0  0  0
  3 11  1  0  0  0  0
  3  4  2  0  0  0  0
  4  8  1  0  0  0  0
  5  4  1  0  0  0  0
  5  9  1  0  0  0  0
  6  5  2  0  0  0  0
  7  2  2  0  0  0  0
  7  6  1  0  0  0  0
 10  6  1  0  0  0  0
 11 18  1  0  0  0  0
 11 13  1  0  0  0  0
 12 11  1  0  0  0  0
 14 20  1  0  0  0  0
 15 21  1  0  0  0  0
 15 14  2  0  0  0  0
 16 15  1  0  0  0  0
 17 16  2  0  0  0  0
 17 18  1  0  0  0  0
 18 19  2  0  0  0  0
 19 14  1  0  0  0  0
 22 16  1  0  0  0  0
 23  7  1  0  0  0  0
 25 24  2  6  0  0  0
 25 23  1  0  0  0  0
 25 26  1  0  0  0  0
 27 26  1  0  0  0  0
 28 25  1  0  0  0  0
 29 35  1  6  0  0  0
 29 34  1  0  0  0  0
 29 30  1  0  0  0  0
 30 28  1  6  0  0  0
 30 31  1  0  0  0  0
 31 32  1  0  0  0  0
 33 32  1  0  0  0  0
 33 37  1  1  0  0  0
 34 33  1  0  0  0  0
 34 39  1  1  0  0  0
 36 35  1  0  0  0  0
 38 37  1  0  0  0  0
 39 40  1  0  0  0  0
M  END
>  <minimizedAffinity>
-4.33626938

>  <minimizedRMSD>
6.59930611

$$$$
