
 OpenBabel03252508033D

 45 48  0  0  1  0  0  0  0  0999 V2000
   42.0890   33.3200   40.7420 C   0  0  0  0  0  0  0  0  0  0  0  0
   42.8440   34.4020   41.1600 C   0  0  0  0  0  0  0  0  0  0  0  0
   42.2090   35.6250   41.3470 C   0  0  0  0  0  0  0  0  0  0  0  0
   40.8570   35.7750   41.1240 C   0  0  0  0  0  0  0  0  0  0  0  0
   40.1030   34.7120   40.7090 C   0  0  0  0  0  0  0  0  0  0  0  0
   40.7270   33.5130   40.5270 C   0  0  0  0  0  0  0  0  0  0  0  0
   42.7180   36.5330   41.6700 H   0  0  0  0  0  0  0  0  0  0  0  0
   40.3730   36.7160   41.2690 H   0  0  0  0  0  0  0  0  0  0  0  0
   39.0610   34.7970   40.5290 H   0  0  0  0  0  0  0  0  0  0  0  0
   40.1320   32.6690   40.1990 H   0  0  0  0  0  0  0  0  0  0  0  0
   42.7950   31.8420   40.4080 S   0  0  0  0  0  0  0  0  0  0  0  0
   43.4380   31.9820   39.0710 O   0  0  0  0  0  0  0  0  0  0  0  0
   41.6120   30.8080   40.3130 O   0  0  0  0  0  0  0  0  0  0  0  0
   43.4770   30.6050   42.5760 C   0  0  2  0  0  3  0  0  0  0  0  0
   43.8080   30.7550   41.0950 C   0  0  1  0  0  3  0  0  0  0  0  0
   43.7270   29.4040   40.6610 O   0  0  0  0  0  0  0  0  0  0  0  0
   44.5250   28.5540   41.3840 C   0  0  0  0  0  2  0  0  0  0  0  0
   43.6680   28.1010   42.5550 C   0  0  1  0  0  3  0  0  0  0  0  0
   42.8430   29.3030   42.9600 C   0  0  2  0  0  3  0  0  0  0  0  0
   42.5440   31.5950   42.9770 O   0  0  0  0  0  0  0  0  0  0  0  0
   41.6650   31.2410   43.1780 H   0  0  0  0  0  0  0  0  0  0  0  0
   42.7750   27.1180   42.1330 O   0  0  0  0  0  0  0  0  0  0  0  0
   42.4760   26.6250   42.9590 H   0  0  0  0  0  0  0  0  0  0  0  0
   41.5540   29.2220   42.4820 O   0  0  0  0  0  0  0  0  0  0  0  0
   41.3490   28.4040   41.9950 H   0  0  0  0  0  0  0  0  0  0  0  0
   44.2880   34.3150   41.4170 C   0  0  0  0  0  0  0  0  0  0  0  0
   45.1730   34.1580   40.5150 O   0  0  0  0  0  0  0  0  0  0  0  0
   44.6150   34.4290   42.8050 C   0  0  0  0  0  0  0  0  0  0  0  0
   44.3440   35.6930   43.4150 C   0  0  0  0  0  0  0  0  0  0  0  0
   44.6380   35.8160   44.7750 C   0  0  0  0  0  0  0  0  0  0  0  0
   45.1560   34.7380   45.4210 N   0  0  0  0  0  0  0  0  0  0  0  0
   45.3980   33.5450   44.7880 C   0  0  0  0  0  0  0  0  0  0  0  0
   45.1220   33.4570   43.5410 N   0  0  0  0  0  0  0  0  0  0  0  0
   43.9430   36.5660   42.9650 H   0  0  0  0  0  0  0  0  0  0  0  0
   44.4690   36.7390   45.3340 H   0  0  0  0  0  0  0  0  0  0  0  0
   45.9410   32.4200   45.5750 C   0  0  1  0  0  0  0  0  0  0  0  0
   46.9200   32.7140   46.6890 C   0  0  0  0  0  0  0  0  0  0  0  0
   45.4940   32.3780   46.9900 C   0  0  1  0  0  0  0  0  0  0  0  0
   46.0740   31.4560   45.0790 H   0  0  0  0  0  0  0  0  0  0  0  0
   47.3160   33.7380   46.7990 H   0  0  0  0  0  0  0  0  0  0  0  0
   47.6660   31.9500   46.9700 H   0  0  0  0  0  0  0  0  0  0  0  0
   45.2650   31.4250   47.4920 H   0  0  0  0  0  0  0  0  0  0  0  0
   44.7770   33.5040   47.5620 N   0  0  0  0  0  0  0  0  0  0  0  0
   43.9860   33.1920   48.1810 H   0  0  0  0  0  0  0  0  0  0  0  0
   45.3790   34.0950   48.1960 H   0  0  0  0  0  0  0  0  0  0  0  0
  1  2  1  0  0  0  0
  2  3  2  0  0  0  0
  2 26  1  0  0  0  0
  3  7  1  0  0  0  0
  4  8  1  0  0  0  0
  4  3  1  0  0  0  0
  5  4  2  0  0  0  0
  6  5  1  0  0  0  0
  6  1  2  0  0  0  0
  9  5  1  0  0  0  0
 10  6  1  0  0  0  0
 11  1  1  0  0  0  0
 12 11  2  0  0  0  0
 13 11  2  0  0  0  0
 14 19  1  0  0  0  0
 14 20  1  6  0  0  0
 15 11  1  6  0  0  0
 15 14  1  0  0  0  0
 16 15  1  0  0  0  0
 16 17  1  0  0  0  0
 17 18  1  0  0  0  0
 18 22  1  6  0  0  0
 18 19  1  0  0  0  0
 19 24  1  6  0  0  0
 20 21  1  0  0  0  0
 22 23  1  0  0  0  0
 25 24  1  0  0  0  0
 26 28  1  0  0  0  0
 27 26  2  0  0  0  0
 28 29  2  0  0  0  0
 28 33  1  0  0  0  0
 29 30  1  0  0  0  0
 30 35  1  0  0  0  0
 30 31  2  0  0  0  0
 32 31  1  0  0  0  0
 32 36  1  0  0  0  0
 33 32  2  0  0  0  0
 34 29  1  0  0  0  0
 36 39  1  6  0  0  0
 36 37  1  0  0  0  0
 36 38  1  0  0  0  0
 37 40  1  0  0  0  0
 37 41  1  0  0  0  0
 37 38  1  0  0  0  0
 38 42  1  1  0  0  0
 38 43  1  0  0  0  0
 43 44  1  0  0  0  0
 43 45  1  0  0  0  0
M  END
>  <minimizedAffinity>
-6.09782553

>  <minimizedRMSD>
0.954635501

$$$$
