
 OpenBabel03252508003D

 32 34  0  0  1  0  0  0  0  0999 V2000
   46.7350   34.5580   43.1820 C   0  0  0  0  0  0  0  0  0  0  0  0
   45.6700   35.5050   43.2930 C   0  0  0  0  0  0  0  0  0  0  0  0
   44.8080   35.3510   44.3850 C   0  0  0  0  0  0  0  0  0  0  0  0
   45.0350   34.3360   45.2490 N   0  0  0  0  0  0  0  0  0  0  0  0
   46.0830   33.4600   45.0780 C   0  0  0  0  0  0  0  0  0  0  0  0
   46.9220   33.5640   44.0640 N   0  0  0  0  0  0  0  0  0  0  0  0
   45.5490   36.2930   42.5630 H   0  0  0  0  0  0  0  0  0  0  0  0
   43.9870   36.0320   44.5240 H   0  0  0  0  0  0  0  0  0  0  0  0
   46.2780   32.3760   46.0880 C   0  0  1  0  0  0  0  0  0  0  0  0
   46.9890   32.7030   47.3840 C   0  0  0  0  0  0  0  0  0  0  0  0
   45.4920   32.5550   47.3260 C   0  0  1  0  0  0  0  0  0  0  0  0
   46.4590   31.3500   45.7270 H   0  0  0  0  0  0  0  0  0  0  0  0
   47.4460   33.7220   47.3820 H   0  0  0  0  0  0  0  0  0  0  0  0
   47.6170   31.9330   47.8400 H   0  0  0  0  0  0  0  0  0  0  0  0
   45.1180   31.7040   47.9180 H   0  0  0  0  0  0  0  0  0  0  0  0
   44.7990   33.7970   47.5790 N   0  0  0  0  0  0  0  0  0  0  0  0
   45.3640   34.6250   47.7070 H   0  0  0  0  0  0  0  0  0  0  0  0
   43.8410   33.8580   47.2630 H   0  0  0  0  0  0  0  0  0  0  0  0
   47.5990   34.7690   42.0470 C   0  0  0  0  0  0  0  0  0  0  0  0
   48.7320   35.3640   42.1280 O   0  0  0  0  0  0  0  0  0  0  0  0
   47.2690   32.7970   40.7130 C   0  0  1  0  0  3  0  0  0  0  0  0
   47.2480   34.3110   40.6710 C   0  0  2  0  0  3  0  0  0  0  0  0
   48.2240   34.8210   39.8220 O   0  0  0  0  0  0  0  0  0  0  0  0
   48.1440   34.2980   38.5420 C   0  0  0  0  0  2  0  0  0  0  0  0
   48.3120   32.8070   38.5020 C   0  0  1  0  0  3  0  0  0  0  0  0
   47.2400   32.1840   39.3470 C   0  0  1  0  0  3  0  0  0  0  0  0
   48.4150   32.3660   41.3750 O   0  0  0  0  0  0  0  0  0  0  0  0
   49.2320   32.4240   40.8150 H   0  0  0  0  0  0  0  0  0  0  0  0
   48.0720   32.3900   37.1860 O   0  0  0  0  0  0  0  0  0  0  0  0
   48.7680   31.7510   36.8940 H   0  0  0  0  0  0  0  0  0  0  0  0
   47.5450   30.8160   39.5270 O   0  0  0  0  0  0  0  0  0  0  0  0
   48.1350   30.6850   40.3230 H   0  0  0  0  0  0  0  0  0  0  0  0
  1  2  2  0  0  0  0
  1  6  1  0  0  0  0
  2  3  1  0  0  0  0
  3  8  1  0  0  0  0
  3  4  2  0  0  0  0
  5  4  1  0  0  0  0
  5  9  1  0  0  0  0
  6  5  2  0  0  0  0
  7  2  1  0  0  0  0
  9 12  1  6  0  0  0
  9 11  1  0  0  0  0
  9 10  1  0  0  0  0
 10 14  1  0  0  0  0
 11 10  1  0  0  0  0
 11 16  1  0  0  0  0
 11 15  1  1  0  0  0
 13 10  1  0  0  0  0
 16 17  1  0  0  0  0
 18 16  1  0  0  0  0
 19 20  2  0  0  0  0
 19  1  1  0  0  0  0
 21 27  1  6  0  0  0
 22 21  1  0  0  0  0
 22 19  1  1  0  0  0
 23 22  1  0  0  0  0
 24 23  1  0  0  0  0
 25 29  1  6  0  0  0
 25 24  1  0  0  0  0
 25 26  1  0  0  0  0
 26 31  1  1  0  0  0
 26 21  1  0  0  0  0
 28 27  1  0  0  0  0
 30 29  1  0  0  0  0
 31 32  1  0  0  0  0
M  END
>  <minimizedAffinity>
-5.70549631

>  <minimizedRMSD>
1.7302599

$$$$
