
 OpenBabel03252503213D

 42 45  0  0  1  0  0  0  0  0999 V2000
   37.7100   29.2590   41.2610 C   0  0  0  0  0  0  0  0  0  0  0  0
   38.5070   29.3780   40.1480 C   0  0  0  0  0  0  0  0  0  0  0  0
   38.3050   30.6460   39.6970 N   0  0  0  0  0  0  0  0  0  0  0  0
   37.4250   31.2550   40.5080 C   0  0  0  0  0  0  0  0  0  0  0  0
   37.0520   30.4000   41.4800 N   0  0  0  0  0  0  0  0  0  0  0  0
   36.9100   32.5680   40.4630 N   0  0  0  0  0  0  0  0  0  0  0  0
   39.1440   28.6370   39.7300 H   0  0  0  0  0  0  0  0  0  0  0  0
   37.3400   33.4990   40.7280 H   0  0  0  0  0  0  0  0  0  0  0  0
   35.9640   32.7840   40.1320 H   0  0  0  0  0  0  0  0  0  0  0  0
   38.8960   31.2810   38.5510 C   0  0  0  0  0  0  0  0  0  0  0  0
   38.1350   31.9550   38.0550 H   0  0  0  0  0  0  0  0  0  0  0  0
   39.0900   30.4940   37.7740 H   0  0  0  0  0  0  0  0  0  0  0  0
   40.9410   32.3270   37.5620 C   0  0  1  0  0  3  0  0  0  0  0  0
   40.1730   32.0020   38.7840 C   0  0  1  0  0  3  0  0  0  0  0  0
   39.8080   33.2300   39.3820 O   0  0  0  0  0  0  0  0  0  0  0  0
   40.9600   33.6950   39.9940 C   0  0  0  0  0  2  0  0  0  0  0  0
   41.8930   34.2020   38.9430 C   0  0  2  0  0  3  0  0  0  0  0  0
   42.0650   33.2960   37.7580 C   0  0  2  0  0  3  0  0  0  0  0  0
   41.4730   31.1600   37.0020 O   0  0  0  0  0  0  0  0  0  0  0  0
   41.6490   30.4630   37.6940 H   0  0  0  0  0  0  0  0  0  0  0  0
   43.1350   34.3970   39.5900 O   0  0  0  0  0  0  0  0  0  0  0  0
   42.9140   34.8420   40.4470 H   0  0  0  0  0  0  0  0  0  0  0  0
   42.1990   34.1030   36.6200 O   0  0  0  0  0  0  0  0  0  0  0  0
   43.1400   34.3870   36.4810 H   0  0  0  0  0  0  0  0  0  0  0  0
   37.5630   28.0480   42.1390 C   0  0  0  0  0  0  0  0  0  0  0  0
   36.4710   27.6410   42.6310 O   0  0  0  0  0  0  0  0  0  0  0  0
   39.7040   27.8050   43.2940 C   0  0  0  0  0  0  0  0  0  0  0  0
   38.7030   27.2730   42.4680 C   0  0  0  0  0  0  0  0  0  0  0  0
   38.9450   25.9780   42.0360 C   0  0  0  0  0  0  0  0  0  0  0  0
   40.0310   25.2830   42.3690 N   0  0  0  0  0  0  0  0  0  0  0  0
   40.9760   25.8540   43.1790 C   0  0  0  0  0  0  0  0  0  0  0  0
   40.8000   27.1010   43.6270 N   0  0  0  0  0  0  0  0  0  0  0  0
   39.6330   28.8140   43.6990 H   0  0  0  0  0  0  0  0  0  0  0  0
   41.8540   25.2720   43.4370 H   0  0  0  0  0  0  0  0  0  0  0  0
   37.9750   25.3610   41.1900 C   0  0  0  0  0  0  0  0  0  0  0  0
   36.9540   24.4890   41.3770 C   0  0  0  0  0  0  0  0  0  0  0  0
   36.1870   24.0690   40.4000 C   0  0  0  0  0  0  0  0  0  0  0  0
   36.4780   24.5640   39.1680 C   0  0  0  0  0  0  0  0  0  0  0  0
   37.9030   25.6710   39.4320 S   0  0  0  0  0  0  0  0  0  0  0  0
   36.8270   24.1640   42.4310 H   0  0  0  0  0  0  0  0  0  0  0  0
   35.3570   23.3770   40.4640 H   0  0  0  0  0  0  0  0  0  0  0  0
   36.0000   24.3830   38.1690 H   0  0  0  0  0  0  0  0  0  0  0  0
  1  5  1  0  0  0  0
  1 25  1  0  0  0  0
  2  1  2  0  0  0  0
  3  2  1  0  0  0  0
  3  4  1  0  0  0  0
  4  5  2  0  0  0  0
  6  4  1  0  0  0  0
  6  8  1  0  0  0  0
  7  2  1  0  0  0  0
  9  6  1  0  0  0  0
 10  3  1  0  0  0  0
 11 10  1  0  0  0  0
 12 10  1  0  0  0  0
 13 19  1  1  0  0  0
 13 18  1  0  0  0  0
 13 14  1  0  0  0  0
 14 10  1  6  0  0  0
 14 15  1  0  0  0  0
 15 16  1  0  0  0  0
 17 21  1  1  0  0  0
 17 16  1  0  0  0  0
 18 23  1  6  0  0  0
 18 17  1  0  0  0  0
 19 20  1  0  0  0  0
 21 22  1  0  0  0  0
 24 23  1  0  0  0  0
 25 28  1  0  0  0  0
 25 26  2  0  0  0  0
 27 32  1  0  0  0  0
 27 33  1  0  0  0  0
 28 27  2  0  0  0  0
 29 30  2  0  0  0  0
 29 28  1  0  0  0  0
 30 31  1  0  0  0  0
 31 34  1  0  0  0  0
 31 32  2  0  0  0  0
 35 36  2  0  0  0  0
 35 29  1  0  0  0  0
 36 40  1  0  0  0  0
 37 41  1  0  0  0  0
 37 36  1  0  0  0  0
 38 39  1  0  0  0  0
 38 37  2  0  0  0  0
 39 35  1  0  0  0  0
 42 38  1  0  0  0  0
M  END
>  <minimizedAffinity>
-7.06253862

$$$$

 OpenBabel03252503213D

 42 45  0  0  1  0  0  0  0  0999 V2000
   37.2540   29.5630   40.4230 C   0  0  0  0  0  0  0  0  0  0  0  0
   38.0770   29.7550   39.3380 C   0  0  0  0  0  0  0  0  0  0  0  0
   38.0960   31.1010   39.1380 N   0  0  0  0  0  0  0  0  0  0  0  0
   37.3180   31.6840   40.0640 C   0  0  0  0  0  0  0  0  0  0  0  0
   36.7940   30.7350   40.8640 N   0  0  0  0  0  0  0  0  0  0  0  0
   37.0310   33.0490   40.2760 N   0  0  0  0  0  0  0  0  0  0  0  0
   38.5880   29.0110   38.7770 H   0  0  0  0  0  0  0  0  0  0  0  0
   37.6060   33.8280   40.7050 H   0  0  0  0  0  0  0  0  0  0  0  0
   36.1390   33.4780   40.0080 H   0  0  0  0  0  0  0  0  0  0  0  0
   38.8030   31.8330   38.1230 C   0  0  0  0  0  0  0  0  0  0  0  0
   38.1310   32.6390   37.6980 H   0  0  0  0  0  0  0  0  0  0  0  0
   38.9700   31.1490   37.2480 H   0  0  0  0  0  0  0  0  0  0  0  0
   41.0320   32.6910   37.3840 C   0  0  1  0  0  3  0  0  0  0  0  0
   40.1220   32.3920   38.5110 C   0  0  1  0  0  3  0  0  0  0  0  0
   39.8370   33.6210   39.1500 O   0  0  0  0  0  0  0  0  0  0  0  0
   40.9700   33.9200   39.8890 C   0  0  0  0  0  2  0  0  0  0  0  0
   42.0460   34.3720   38.9570 C   0  0  2  0  0  3  0  0  0  0  0  0
   42.2310   33.5150   37.7380 C   0  0  2  0  0  3  0  0  0  0  0  0
   41.4850   31.5020   36.8010 O   0  0  0  0  0  0  0  0  0  0  0  0
   41.5190   30.7550   37.4620 H   0  0  0  0  0  0  0  0  0  0  0  0
   43.2360   34.3910   39.7220 O   0  0  0  0  0  0  0  0  0  0  0  0
   42.9840   34.8130   40.5820 H   0  0  0  0  0  0  0  0  0  0  0  0
   42.5580   34.3600   36.6690 O   0  0  0  0  0  0  0  0  0  0  0  0
   43.5330   34.5420   36.6310 H   0  0  0  0  0  0  0  0  0  0  0  0
   36.8940   28.2500   41.0590 C   0  0  0  0  0  0  0  0  0  0  0  0
   36.2950   28.1240   42.1650 O   0  0  0  0  0  0  0  0  0  0  0  0
   36.4290   26.5500   39.3650 C   0  0  0  0  0  0  0  0  0  0  0  0
   37.2290   27.0360   40.4090 C   0  0  0  0  0  0  0  0  0  0  0  0
   38.3220   26.2370   40.7130 C   0  0  0  0  0  0  0  0  0  0  0  0
   38.6020   25.1020   40.0770 N   0  0  0  0  0  0  0  0  0  0  0  0
   37.7840   24.6760   39.0640 C   0  0  0  0  0  0  0  0  0  0  0  0
   36.7140   25.4020   38.7240 N   0  0  0  0  0  0  0  0  0  0  0  0
   35.5410   27.0850   39.0300 H   0  0  0  0  0  0  0  0  0  0  0  0
   38.0290   23.7480   38.5590 H   0  0  0  0  0  0  0  0  0  0  0  0
   39.1880   26.6590   41.7660 C   0  0  0  0  0  0  0  0  0  0  0  0
   39.2520   26.4390   43.1020 C   0  0  0  0  0  0  0  0  0  0  0  0
   40.1800   26.9610   43.8670 C   0  0  0  0  0  0  0  0  0  0  0  0
   41.0900   27.7490   43.2350 C   0  0  0  0  0  0  0  0  0  0  0  0
   40.5860   27.7340   41.4830 S   0  0  0  0  0  0  0  0  0  0  0  0
   38.4490   25.7770   43.4890 H   0  0  0  0  0  0  0  0  0  0  0  0
   40.3020   26.8360   44.9350 H   0  0  0  0  0  0  0  0  0  0  0  0
   41.9750   28.3150   43.6300 H   0  0  0  0  0  0  0  0  0  0  0  0
  1  5  1  0  0  0  0
  1 25  1  0  0  0  0
  2  1  2  0  0  0  0
  3  2  1  0  0  0  0
  3  4  1  0  0  0  0
  4  6  1  0  0  0  0
  4  5  2  0  0  0  0
  6  8  1  0  0  0  0
  7  2  1  0  0  0  0
  9  6  1  0  0  0  0
 10  3  1  0  0  0  0
 11 10  1  0  0  0  0
 12 10  1  0  0  0  0
 13 19  1  1  0  0  0
 13 18  1  0  0  0  0
 13 14  1  0  0  0  0
 14 10  1  6  0  0  0
 14 15  1  0  0  0  0
 15 16  1  0  0  0  0
 17 21  1  1  0  0  0
 17 16  1  0  0  0  0
 18 23  1  6  0  0  0
 18 17  1  0  0  0  0
 19 20  1  0  0  0  0
 21 22  1  0  0  0  0
 24 23  1  0  0  0  0
 25 26  2  0  0  0  0
 27 28  1  0  0  0  0
 28 29  2  0  0  0  0
 28 25  1  0  0  0  0
 29 35  1  0  0  0  0
 30 29  1  0  0  0  0
 31 30  2  0  0  0  0
 32 31  1  0  0  0  0
 32 27  2  0  0  0  0
 33 27  1  0  0  0  0
 34 31  1  0  0  0  0
 35 36  2  0  0  0  0
 36 40  1  0  0  0  0
 36 37  1  0  0  0  0
 37 41  1  0  0  0  0
 38 42  1  0  0  0  0
 38 37  2  0  0  0  0
 39 35  1  0  0  0  0
 39 38  1  0  0  0  0
M  END
>  <minimizedAffinity>
-6.90849257

$$$$

 OpenBabel03252503213D

 42 45  0  0  1  0  0  0  0  0999 V2000
   38.0500   30.5780   41.2700 C   0  0  0  0  0  0  0  0  0  0  0  0
   39.2580   31.2340   41.2310 C   0  0  0  0  0  0  0  0  0  0  0  0
   38.9920   32.4370   40.6540 N   0  0  0  0  0  0  0  0  0  0  0  0
   37.6820   32.4940   40.3610 C   0  0  0  0  0  0  0  0  0  0  0  0
   37.0930   31.3430   40.7420 N   0  0  0  0  0  0  0  0  0  0  0  0
   36.9310   33.5310   39.7700 N   0  0  0  0  0  0  0  0  0  0  0  0
   40.1960   30.8770   41.5790 H   0  0  0  0  0  0  0  0  0  0  0  0
   36.5750   34.4490   40.1600 H   0  0  0  0  0  0  0  0  0  0  0  0
   36.6160   33.5030   38.7940 H   0  0  0  0  0  0  0  0  0  0  0  0
   39.9130   33.5040   40.3710 C   0  0  0  0  0  0  0  0  0  0  0  0
   40.1640   34.0540   41.3280 H   0  0  0  0  0  0  0  0  0  0  0  0
   39.3760   34.2800   39.7610 H   0  0  0  0  0  0  0  0  0  0  0  0
   41.1930   33.5830   38.2240 C   0  0  1  0  0  3  0  0  0  0  0  0
   41.1450   33.1320   39.6320 C   0  0  1  0  0  3  0  0  0  0  0  0
   42.2010   33.7840   40.3110 O   0  0  0  0  0  0  0  0  0  0  0  0
   43.3510   33.1110   39.9300 C   0  0  0  0  0  2  0  0  0  0  0  0
   43.6880   33.4940   38.5260 C   0  0  2  0  0  3  0  0  0  0  0  0
   42.5340   33.4720   37.5670 C   0  0  2  0  0  3  0  0  0  0  0  0
   40.2760   32.8580   37.4550 O   0  0  0  0  0  0  0  0  0  0  0  0
   40.1250   31.9430   37.8220 H   0  0  0  0  0  0  0  0  0  0  0  0
   44.6850   32.5810   38.1060 O   0  0  0  0  0  0  0  0  0  0  0  0
   45.3150   32.5170   38.8690 H   0  0  0  0  0  0  0  0  0  0  0  0
   42.7080   34.5300   36.6650 O   0  0  0  0  0  0  0  0  0  0  0  0
   43.2860   34.2690   35.9020 H   0  0  0  0  0  0  0  0  0  0  0  0
   37.7900   29.2020   41.8170 C   0  0  0  0  0  0  0  0  0  0  0  0
   36.9750   28.9370   42.7460 O   0  0  0  0  0  0  0  0  0  0  0  0
   39.5360   27.5000   42.0000 C   0  0  0  0  0  0  0  0  0  0  0  0
   38.4840   28.0880   41.2820 C   0  0  0  0  0  0  0  0  0  0  0  0
   38.2200   27.4880   40.0590 C   0  0  0  0  0  0  0  0  0  0  0  0
   38.8970   26.4410   39.5930 N   0  0  0  0  0  0  0  0  0  0  0  0
   39.9140   25.9090   40.3390 C   0  0  0  0  0  0  0  0  0  0  0  0
   40.2180   26.4430   41.5260 N   0  0  0  0  0  0  0  0  0  0  0  0
   39.8420   27.8780   42.9750 H   0  0  0  0  0  0  0  0  0  0  0  0
   40.4540   25.0560   39.9410 H   0  0  0  0  0  0  0  0  0  0  0  0
   37.1650   28.0270   39.2630 C   0  0  0  0  0  0  0  0  0  0  0  0
   35.8110   27.9600   39.2920 C   0  0  0  0  0  0  0  0  0  0  0  0
   35.0480   28.5690   38.4170 C   0  0  0  0  0  0  0  0  0  0  0  0
   35.7010   29.2820   37.4610 C   0  0  0  0  0  0  0  0  0  0  0  0
   37.4710   29.0650   37.8420 S   0  0  0  0  0  0  0  0  0  0  0  0
   35.4080   27.3450   40.1230 H   0  0  0  0  0  0  0  0  0  0  0  0
   33.9670   28.5670   38.3690 H   0  0  0  0  0  0  0  0  0  0  0  0
   35.3140   29.8900   36.6020 H   0  0  0  0  0  0  0  0  0  0  0  0
  1 25  1  0  0  0  0
  2  1  2  0  0  0  0
  2  7  1  0  0  0  0
  3  2  1  0  0  0  0
  4  3  1  0  0  0  0
  4  5  2  0  0  0  0
  5  1  1  0  0  0  0
  6  8  1  0  0  0  0
  6  4  1  0  0  0  0
  9  6  1  0  0  0  0
 10  3  1  0  0  0  0
 10 11  1  0  0  0  0
 12 10  1  0  0  0  0
 13 19  1  6  0  0  0
 13 14  1  0  0  0  0
 14 15  1  0  0  0  0
 14 10  1  1  0  0  0
 16 15  1  0  0  0  0
 17 21  1  6  0  0  0
 17 16  1  0  0  0  0
 18 23  1  6  0  0  0
 18 13  1  0  0  0  0
 18 17  1  0  0  0  0
 19 20  1  0  0  0  0
 21 22  1  0  0  0  0
 24 23  1  0  0  0  0
 25 26  2  0  0  0  0
 27 33  1  0  0  0  0
 28 25  1  0  0  0  0
 28 27  2  0  0  0  0
 29 28  1  0  0  0  0
 30 29  2  0  0  0  0
 30 31  1  0  0  0  0
 31 32  2  0  0  0  0
 32 27  1  0  0  0  0
 34 31  1  0  0  0  0
 35 36  2  0  0  0  0
 35 29  1  0  0  0  0
 36 40  1  0  0  0  0
 37 36  1  0  0  0  0
 38 39  1  0  0  0  0
 38 37  2  0  0  0  0
 39 35  1  0  0  0  0
 41 37  1  0  0  0  0
 42 38  1  0  0  0  0
M  END
>  <minimizedAffinity>
-6.83488035

$$$$

 OpenBabel03252503213D

 42 45  0  0  1  0  0  0  0  0999 V2000
   37.3170   30.6800   40.7590 C   0  0  0  0  0  0  0  0  0  0  0  0
   38.6260   31.0590   40.9390 C   0  0  0  0  0  0  0  0  0  0  0  0
   38.7090   32.3150   40.4230 N   0  0  0  0  0  0  0  0  0  0  0  0
   37.5010   32.6680   39.9540 C   0  0  0  0  0  0  0  0  0  0  0  0
   36.6330   31.6570   40.1610 N   0  0  0  0  0  0  0  0  0  0  0  0
   37.0820   33.8680   39.3420 N   0  0  0  0  0  0  0  0  0  0  0  0
   39.4050   30.4920   41.3880 H   0  0  0  0  0  0  0  0  0  0  0  0
   36.8690   34.8230   39.7470 H   0  0  0  0  0  0  0  0  0  0  0  0
   36.9220   33.9520   38.3330 H   0  0  0  0  0  0  0  0  0  0  0  0
   39.8640   33.1670   40.3530 C   0  0  0  0  0  0  0  0  0  0  0  0
   40.2230   33.4080   41.3990 H   0  0  0  0  0  0  0  0  0  0  0  0
   39.5410   34.1670   39.9550 H   0  0  0  0  0  0  0  0  0  0  0  0
   41.0320   33.2750   38.1450 C   0  0  1  0  0  3  0  0  0  0  0  0
   40.9840   32.6910   39.5030 C   0  0  1  0  0  3  0  0  0  0  0  0
   42.1620   33.1000   40.1710 O   0  0  0  0  0  0  0  0  0  0  0  0
   43.1710   32.3030   39.6530 C   0  0  0  0  0  2  0  0  0  0  0  0
   43.4940   32.7750   38.2730 C   0  0  2  0  0  3  0  0  0  0  0  0
   42.3050   33.0290   37.3940 C   0  0  2  0  0  3  0  0  0  0  0  0
   39.9750   32.7820   37.3710 O   0  0  0  0  0  0  0  0  0  0  0  0
   39.7000   31.8670   37.6590 H   0  0  0  0  0  0  0  0  0  0  0  0
   44.3120   31.7700   37.7040 O   0  0  0  0  0  0  0  0  0  0  0  0
   44.9610   31.5310   38.4140 H   0  0  0  0  0  0  0  0  0  0  0  0
   42.5990   34.1370   36.5880 O   0  0  0  0  0  0  0  0  0  0  0  0
   43.0900   33.8720   35.7670 H   0  0  0  0  0  0  0  0  0  0  0  0
   36.6950   29.3710   41.1580 C   0  0  0  0  0  0  0  0  0  0  0  0
   35.4810   29.0660   40.9810 O   0  0  0  0  0  0  0  0  0  0  0  0
   37.6240   28.3530   43.1770 C   0  0  0  0  0  0  0  0  0  0  0  0
   37.4870   28.3750   41.7810 C   0  0  0  0  0  0  0  0  0  0  0  0
   38.1770   27.3690   41.1220 C   0  0  0  0  0  0  0  0  0  0  0  0
   38.9110   26.4500   41.7460 N   0  0  0  0  0  0  0  0  0  0  0  0
   39.0080   26.4780   43.1120 C   0  0  0  0  0  0  0  0  0  0  0  0
   38.3660   27.4240   43.8050 N   0  0  0  0  0  0  0  0  0  0  0  0
   37.1310   29.0900   43.8110 H   0  0  0  0  0  0  0  0  0  0  0  0
   39.6120   25.7210   43.6020 H   0  0  0  0  0  0  0  0  0  0  0  0
   38.0930   27.3210   39.6980 C   0  0  0  0  0  0  0  0  0  0  0  0
   38.8050   27.8570   38.6760 C   0  0  0  0  0  0  0  0  0  0  0  0
   38.5100   27.6490   37.4150 C   0  0  0  0  0  0  0  0  0  0  0  0
   37.4320   26.8520   37.1860 C   0  0  0  0  0  0  0  0  0  0  0  0
   36.8280   26.3920   38.8440 S   0  0  0  0  0  0  0  0  0  0  0  0
   39.6580   28.4870   39.0030 H   0  0  0  0  0  0  0  0  0  0  0  0
   39.0230   28.0360   36.5450 H   0  0  0  0  0  0  0  0  0  0  0  0
   36.9580   26.5100   36.2280 H   0  0  0  0  0  0  0  0  0  0  0  0
  1  2  2  0  0  0  0
  1 25  1  0  0  0  0
  2  7  1  0  0  0  0
  3  2  1  0  0  0  0
  4  5  2  0  0  0  0
  4  3  1  0  0  0  0
  5  1  1  0  0  0  0
  6  8  1  0  0  0  0
  6  4  1  0  0  0  0
  9  6  1  0  0  0  0
 10  3  1  0  0  0  0
 10 11  1  0  0  0  0
 12 10  1  0  0  0  0
 13 19  1  6  0  0  0
 13 14  1  0  0  0  0
 14 15  1  0  0  0  0
 14 10  1  1  0  0  0
 16 15  1  0  0  0  0
 17 21  1  6  0  0  0
 17 16  1  0  0  0  0
 18 23  1  1  0  0  0
 18 13  1  0  0  0  0
 18 17  1  0  0  0  0
 19 20  1  0  0  0  0
 21 22  1  0  0  0  0
 24 23  1  0  0  0  0
 25 28  1  0  0  0  0
 26 25  2  0  0  0  0
 27 32  1  0  0  0  0
 27 33  1  0  0  0  0
 28 27  2  0  0  0  0
 29 30  2  0  0  0  0
 29 28  1  0  0  0  0
 30 31  1  0  0  0  0
 31 34  1  0  0  0  0
 31 32  2  0  0  0  0
 35 29  1  0  0  0  0
 36 40  1  0  0  0  0
 36 35  2  0  0  0  0
 37 36  1  0  0  0  0
 38 37  2  0  0  0  0
 38 39  1  0  0  0  0
 39 35  1  0  0  0  0
 41 37  1  0  0  0  0
 42 38  1  0  0  0  0
M  END
>  <minimizedAffinity>
-6.68248796

$$$$

 OpenBabel03252503213D

 42 45  0  0  1  0  0  0  0  0999 V2000
   38.1870   28.6170   41.7840 C   0  0  0  0  0  0  0  0  0  0  0  0
   38.5140   29.0200   40.5110 C   0  0  0  0  0  0  0  0  0  0  0  0
   37.5890   29.9640   40.1860 N   0  0  0  0  0  0  0  0  0  0  0  0
   36.7480   30.1160   41.2230 C   0  0  0  0  0  0  0  0  0  0  0  0
   37.1150   29.2820   42.2160 N   0  0  0  0  0  0  0  0  0  0  0  0
   35.6410   30.9770   41.3720 N   0  0  0  0  0  0  0  0  0  0  0  0
   39.3170   28.6690   39.9100 H   0  0  0  0  0  0  0  0  0  0  0  0
   35.5830   32.0170   41.5630 H   0  0  0  0  0  0  0  0  0  0  0  0
   34.6700   30.6530   41.3030 H   0  0  0  0  0  0  0  0  0  0  0  0
   37.4740   30.7040   38.9600 C   0  0  0  0  0  0  0  0  0  0  0  0
   36.3920   30.9870   38.7860 H   0  0  0  0  0  0  0  0  0  0  0  0
   37.6980   30.0080   38.1070 H   0  0  0  0  0  0  0  0  0  0  0  0
   38.4170   32.7750   39.9950 C   0  0  1  0  0  3  0  0  0  0  0  0
   38.3620   31.8840   38.8160 C   0  0  1  0  0  3  0  0  0  0  0  0
   39.6620   31.3560   38.6360 O   0  0  0  0  0  0  0  0  0  0  0  0
   40.3990   32.3840   38.0700 C   0  0  0  0  0  2  0  0  0  0  0  0
   40.6910   33.4030   39.1230 C   0  0  2  0  0  3  0  0  0  0  0  0
   39.5160   33.7910   39.9730 C   0  0  2  0  0  3  0  0  0  0  0  0
   37.2040   33.4590   40.1390 O   0  0  0  0  0  0  0  0  0  0  0  0
   36.7490   33.5950   39.2620 H   0  0  0  0  0  0  0  0  0  0  0  0
   41.1890   34.5350   38.4360 O   0  0  0  0  0  0  0  0  0  0  0  0
   41.8280   34.1740   37.7700 H   0  0  0  0  0  0  0  0  0  0  0  0
   39.9860   34.0100   41.2750 O   0  0  0  0  0  0  0  0  0  0  0  0
   40.3190   34.9370   41.3940 H   0  0  0  0  0  0  0  0  0  0  0  0
   38.8990   27.5840   42.6120 C   0  0  0  0  0  0  0  0  0  0  0  0
   38.5670   27.2450   43.7830 O   0  0  0  0  0  0  0  0  0  0  0  0
   41.3230   27.3670   42.3810 C   0  0  0  0  0  0  0  0  0  0  0  0
   40.0290   26.9130   42.0830 C   0  0  0  0  0  0  0  0  0  0  0  0
   39.9890   25.7980   41.2590 C   0  0  0  0  0  0  0  0  0  0  0  0
   41.0770   25.1960   40.7830 N   0  0  0  0  0  0  0  0  0  0  0  0
   42.3150   25.6840   41.1070 C   0  0  0  0  0  0  0  0  0  0  0  0
   42.4200   26.7570   41.8980 N   0  0  0  0  0  0  0  0  0  0  0  0
   41.4910   28.2340   43.0180 H   0  0  0  0  0  0  0  0  0  0  0  0
   43.1890   25.1800   40.7090 H   0  0  0  0  0  0  0  0  0  0  0  0
   38.7100   25.2720   40.9050 C   0  0  0  0  0  0  0  0  0  0  0  0
   37.8690   25.4240   39.8520 C   0  0  0  0  0  0  0  0  0  0  0  0
   36.7160   24.8050   39.7670 C   0  0  0  0  0  0  0  0  0  0  0  0
   36.4050   23.9900   40.8110 C   0  0  0  0  0  0  0  0  0  0  0  0
   37.8240   24.1240   41.9480 S   0  0  0  0  0  0  0  0  0  0  0  0
   38.2440   26.1170   39.0710 H   0  0  0  0  0  0  0  0  0  0  0  0
   35.9900   24.8690   38.9670 H   0  0  0  0  0  0  0  0  0  0  0  0
   35.5040   23.3500   41.0030 H   0  0  0  0  0  0  0  0  0  0  0  0
  1  5  1  0  0  0  0
  1 25  1  0  0  0  0
  2  1  2  0  0  0  0
  3  2  1  0  0  0  0
  3  4  1  0  0  0  0
  4  6  1  0  0  0  0
  4  5  2  0  0  0  0
  6  8  1  0  0  0  0
  7  2  1  0  0  0  0
  9  6  1  0  0  0  0
 10  3  1  0  0  0  0
 11 10  1  0  0  0  0
 12 10  1  0  0  0  0
 13 19  1  6  0  0  0
 14 10  1  1  0  0  0
 14 13  1  0  0  0  0
 15 14  1  0  0  0  0
 16 15  1  0  0  0  0
 16 17  1  0  0  0  0
 17 21  1  6  0  0  0
 17 18  1  0  0  0  0
 18 13  1  0  0  0  0
 18 23  1  1  0  0  0
 20 19  1  0  0  0  0
 22 21  1  0  0  0  0
 23 24  1  0  0  0  0
 25 26  2  0  0  0  0
 27 33  1  0  0  0  0
 28 27  1  0  0  0  0
 28 25  1  0  0  0  0
 29 28  2  0  0  0  0
 30 31  2  0  0  0  0
 30 29  1  0  0  0  0
 31 32  1  0  0  0  0
 32 27  2  0  0  0  0
 34 31  1  0  0  0  0
 35 29  1  0  0  0  0
 35 39  1  0  0  0  0
 36 35  2  0  0  0  0
 37 36  1  0  0  0  0
 37 38  2  0  0  0  0
 38 42  1  0  0  0  0
 38 39  1  0  0  0  0
 40 36  1  0  0  0  0
 41 37  1  0  0  0  0
M  END
>  <minimizedAffinity>
-6.6671505

$$$$

 OpenBabel03252503213D

 42 45  0  0  1  0  0  0  0  0999 V2000
   36.4880   30.2100   39.0430 C   0  0  0  0  0  0  0  0  0  0  0  0
   37.1530   31.0820   39.8710 C   0  0  0  0  0  0  0  0  0  0  0  0
   37.8720   31.8860   39.0410 N   0  0  0  0  0  0  0  0  0  0  0  0
   37.6450   31.5060   37.7730 C   0  0  0  0  0  0  0  0  0  0  0  0
   36.7870   30.4670   37.7680 N   0  0  0  0  0  0  0  0  0  0  0  0
   38.1480   32.0350   36.5660 N   0  0  0  0  0  0  0  0  0  0  0  0
   37.1120   31.1210   40.9330 H   0  0  0  0  0  0  0  0  0  0  0  0
   37.9010   32.9140   36.0290 H   0  0  0  0  0  0  0  0  0  0  0  0
   38.8870   31.5760   36.0220 H   0  0  0  0  0  0  0  0  0  0  0  0
   38.7490   32.9670   39.3990 C   0  0  0  0  0  0  0  0  0  0  0  0
   38.3840   33.4520   40.3540 H   0  0  0  0  0  0  0  0  0  0  0  0
   38.6320   33.7820   38.6340 H   0  0  0  0  0  0  0  0  0  0  0  0
   41.0680   33.4240   38.5840 C   0  0  1  0  0  3  0  0  0  0  0  0
   40.1940   32.6420   39.4850 C   0  0  1  0  0  3  0  0  0  0  0  0
   40.5730   32.9620   40.8100 O   0  0  0  0  0  0  0  0  0  0  0  0
   41.7520   32.2690   41.0310 C   0  0  0  0  0  2  0  0  0  0  0  0
   42.8560   32.9480   40.2890 C   0  0  2  0  0  3  0  0  0  0  0  0
   42.5340   33.3140   38.8690 C   0  0  2  0  0  3  0  0  0  0  0  0
   40.8590   33.0380   37.2550 O   0  0  0  0  0  0  0  0  0  0  0  0
   40.5680   32.0860   37.1870 H   0  0  0  0  0  0  0  0  0  0  0  0
   43.9510   32.0530   40.3230 O   0  0  0  0  0  0  0  0  0  0  0  0
   43.9850   31.7200   41.2560 H   0  0  0  0  0  0  0  0  0  0  0  0
   43.1630   34.5360   38.5910 O   0  0  0  0  0  0  0  0  0  0  0  0
   44.1020   34.4050   38.2960 H   0  0  0  0  0  0  0  0  0  0  0  0
   35.5510   29.1100   39.4580 C   0  0  0  0  0  0  0  0  0  0  0  0
   34.4500   29.2870   40.0520 O   0  0  0  0  0  0  0  0  0  0  0  0
   35.4540   27.1560   37.9920 C   0  0  0  0  0  0  0  0  0  0  0  0
   35.8830   27.7600   39.1830 C   0  0  0  0  0  0  0  0  0  0  0  0
   36.6240   26.9310   40.0120 C   0  0  0  0  0  0  0  0  0  0  0  0
   36.9150   25.6660   39.7160 N   0  0  0  0  0  0  0  0  0  0  0  0
   36.4690   25.1290   38.5380 C   0  0  0  0  0  0  0  0  0  0  0  0
   35.7490   25.8770   37.6960 N   0  0  0  0  0  0  0  0  0  0  0  0
   34.8640   27.7000   37.2560 H   0  0  0  0  0  0  0  0  0  0  0  0
   36.7160   24.0960   38.3160 H   0  0  0  0  0  0  0  0  0  0  0  0
   37.0980   27.4680   41.2460 C   0  0  0  0  0  0  0  0  0  0  0  0
   36.5570   27.6770   42.4720 C   0  0  0  0  0  0  0  0  0  0  0  0
   37.2300   28.2010   43.4680 C   0  0  0  0  0  0  0  0  0  0  0  0
   38.5220   28.5280   43.1990 C   0  0  0  0  0  0  0  0  0  0  0  0
   38.7690   28.0640   41.4530 S   0  0  0  0  0  0  0  0  0  0  0  0
   35.4950   27.3660   42.5550 H   0  0  0  0  0  0  0  0  0  0  0  0
   36.8750   28.4000   44.4710 H   0  0  0  0  0  0  0  0  0  0  0  0
   39.3170   28.9830   43.8470 H   0  0  0  0  0  0  0  0  0  0  0  0
  1 25  1  0  0  0  0
  1  2  2  0  0  0  0
  2  7  1  0  0  0  0
  3 10  1  0  0  0  0
  3  2  1  0  0  0  0
  4  3  1  0  0  0  0
  5  4  2  0  0  0  0
  5  1  1  0  0  0  0
  6  4  1  0  0  0  0
  8  6  1  0  0  0  0
  9  6  1  0  0  0  0
 10 11  1  0  0  0  0
 12 10  1  0  0  0  0
 13 19  1  6  0  0  0
 13 18  1  0  0  0  0
 13 14  1  0  0  0  0
 14 10  1  1  0  0  0
 14 15  1  0  0  0  0
 15 16  1  0  0  0  0
 17 21  1  6  0  0  0
 17 16  1  0  0  0  0
 18 23  1  1  0  0  0
 18 17  1  0  0  0  0
 20 19  1  0  0  0  0
 21 22  1  0  0  0  0
 24 23  1  0  0  0  0
 25 26  2  0  0  0  0
 27 28  1  0  0  0  0
 28 25  1  0  0  0  0
 28 29  2  0  0  0  0
 29 35  1  0  0  0  0
 30 29  1  0  0  0  0
 31 30  2  0  0  0  0
 32 27  2  0  0  0  0
 32 31  1  0  0  0  0
 33 27  1  0  0  0  0
 34 31  1  0  0  0  0
 35 39  1  0  0  0  0
 35 36  2  0  0  0  0
 36 40  1  0  0  0  0
 36 37  1  0  0  0  0
 37 41  1  0  0  0  0
 38 37  2  0  0  0  0
 38 42  1  0  0  0  0
 39 38  1  0  0  0  0
M  END
>  <minimizedAffinity>
-6.4909997

$$$$

 OpenBabel03252503213D

 42 45  0  0  1  0  0  0  0  0999 V2000
   37.2180   28.2130   41.9210 C   0  0  0  0  0  0  0  0  0  0  0  0
   37.5880   29.5320   41.8140 C   0  0  0  0  0  0  0  0  0  0  0  0
   36.5820   30.1300   41.1190 N   0  0  0  0  0  0  0  0  0  0  0  0
   35.6540   29.2050   40.8240 C   0  0  0  0  0  0  0  0  0  0  0  0
   36.0430   28.0140   41.3200 N   0  0  0  0  0  0  0  0  0  0  0  0
   34.4320   29.3370   40.1320 N   0  0  0  0  0  0  0  0  0  0  0  0
   38.4700   29.9870   42.1940 H   0  0  0  0  0  0  0  0  0  0  0  0
   33.4990   29.7420   40.4290 H   0  0  0  0  0  0  0  0  0  0  0  0
   34.3030   29.0220   39.1650 H   0  0  0  0  0  0  0  0  0  0  0  0
   36.4770   31.5090   40.7280 C   0  0  0  0  0  0  0  0  0  0  0  0
   36.5390   32.1700   41.6450 H   0  0  0  0  0  0  0  0  0  0  0  0
   35.4340   31.6900   40.3510 H   0  0  0  0  0  0  0  0  0  0  0  0
   38.6890   32.5350   40.1740 C   0  0  1  0  0  3  0  0  0  0  0  0
   37.4160   31.9700   39.6750 C   0  0  1  0  0  3  0  0  0  0  0  0
   37.7420   30.8120   38.9300 O   0  0  0  0  0  0  0  0  0  0  0  0
   38.2330   31.2810   37.7220 C   0  0  0  0  0  2  0  0  0  0  0  0
   39.6060   31.8270   37.9410 C   0  0  2  0  0  3  0  0  0  0  0  0
   39.7480   32.7280   39.1330 C   0  0  2  0  0  3  0  0  0  0  0  0
   38.4580   33.7730   40.7860 O   0  0  0  0  0  0  0  0  0  0  0  0
   37.6680   34.2390   40.3960 H   0  0  0  0  0  0  0  0  0  0  0  0
   39.9340   32.5310   36.7590 O   0  0  0  0  0  0  0  0  0  0  0  0
   39.6440   31.9410   36.0170 H   0  0  0  0  0  0  0  0  0  0  0  0
   41.0110   32.4960   39.6950 O   0  0  0  0  0  0  0  0  0  0  0  0
   41.7130   33.0430   39.2560 H   0  0  0  0  0  0  0  0  0  0  0  0
   37.9840   27.1140   42.6030 C   0  0  0  0  0  0  0  0  0  0  0  0
   38.4220   27.1680   43.7880 O   0  0  0  0  0  0  0  0  0  0  0  0
   37.4810   24.7660   42.1420 C   0  0  0  0  0  0  0  0  0  0  0  0
   38.2590   25.9100   41.9090 C   0  0  0  0  0  0  0  0  0  0  0  0
   39.2710   25.7340   40.9750 C   0  0  0  0  0  0  0  0  0  0  0  0
   39.4960   24.5840   40.3440 N   0  0  0  0  0  0  0  0  0  0  0  0
   38.7030   23.5000   40.6120 C   0  0  0  0  0  0  0  0  0  0  0  0
   37.7110   23.6060   41.5020 N   0  0  0  0  0  0  0  0  0  0  0  0
   36.6550   24.7730   42.8520 H   0  0  0  0  0  0  0  0  0  0  0  0
   38.9040   22.5720   40.0870 H   0  0  0  0  0  0  0  0  0  0  0  0
   40.1110   26.8490   40.6810 C   0  0  0  0  0  0  0  0  0  0  0  0
   40.1170   27.8240   39.7380 C   0  0  0  0  0  0  0  0  0  0  0  0
   41.0310   28.7630   39.6890 C   0  0  0  0  0  0  0  0  0  0  0  0
   41.9900   28.7030   40.6510 C   0  0  0  0  0  0  0  0  0  0  0  0
   41.5550   27.2450   41.6560 S   0  0  0  0  0  0  0  0  0  0  0  0
   39.2780   27.7550   39.0140 H   0  0  0  0  0  0  0  0  0  0  0  0
   41.1080   29.5720   38.9740 H   0  0  0  0  0  0  0  0  0  0  0  0
   42.8780   29.3590   40.8480 H   0  0  0  0  0  0  0  0  0  0  0  0
  1 25  1  0  0  0  0
  2  1  2  0  0  0  0
  2  7  1  0  0  0  0
  3  2  1  0  0  0  0
  4  3  1  0  0  0  0
  4  5  2  0  0  0  0
  5  1  1  0  0  0  0
  6  8  1  0  0  0  0
  6  4  1  0  0  0  0
  9  6  1  0  0  0  0
 10  3  1  0  0  0  0
 10 11  1  0  0  0  0
 12 10  1  0  0  0  0
 13 19  1  6  0  0  0
 14 13  1  0  0  0  0
 14 10  1  1  0  0  0
 15 14  1  0  0  0  0
 16 17  1  0  0  0  0
 16 15  1  0  0  0  0
 17 21  1  6  0  0  0
 17 18  1  0  0  0  0
 18 23  1  1  0  0  0
 18 13  1  0  0  0  0
 20 19  1  0  0  0  0
 22 21  1  0  0  0  0
 24 23  1  0  0  0  0
 25 26  2  0  0  0  0
 27 33  1  0  0  0  0
 28 27  1  0  0  0  0
 28 25  1  0  0  0  0
 29 28  2  0  0  0  0
 30 31  2  0  0  0  0
 30 29  1  0  0  0  0
 31 32  1  0  0  0  0
 32 27  2  0  0  0  0
 34 31  1  0  0  0  0
 35 29  1  0  0  0  0
 35 39  1  0  0  0  0
 36 35  2  0  0  0  0
 37 36  1  0  0  0  0
 37 38  2  0  0  0  0
 38 42  1  0  0  0  0
 38 39  1  0  0  0  0
 40 36  1  0  0  0  0
 41 37  1  0  0  0  0
M  END
>  <minimizedAffinity>
-6.4813695

$$$$

 OpenBabel03252503213D

 42 45  0  0  1  0  0  0  0  0999 V2000
   37.0630   26.5130   41.3450 C   0  0  0  0  0  0  0  0  0  0  0  0
   36.8520   27.6070   40.5400 C   0  0  0  0  0  0  0  0  0  0  0  0
   36.7650   28.6660   41.3900 N   0  0  0  0  0  0  0  0  0  0  0  0
   36.9180   28.2200   42.6480 C   0  0  0  0  0  0  0  0  0  0  0  0
   37.1030   26.8850   42.6260 N   0  0  0  0  0  0  0  0  0  0  0  0
   36.9170   28.9300   43.8670 N   0  0  0  0  0  0  0  0  0  0  0  0
   36.7750   27.6210   39.4800 H   0  0  0  0  0  0  0  0  0  0  0  0
   37.6500   29.5480   44.3180 H   0  0  0  0  0  0  0  0  0  0  0  0
   36.1220   28.9240   44.5150 H   0  0  0  0  0  0  0  0  0  0  0  0
   36.5420   30.0470   41.0620 C   0  0  0  0  0  0  0  0  0  0  0  0
   35.9830   30.5530   41.9060 H   0  0  0  0  0  0  0  0  0  0  0  0
   35.8140   30.0920   40.2070 H   0  0  0  0  0  0  0  0  0  0  0  0
   37.5530   32.3000   40.6730 C   0  0  1  0  0  3  0  0  0  0  0  0
   37.7380   30.8320   40.6700 C   0  0  1  0  0  3  0  0  0  0  0  0
   38.7180   30.5370   41.6470 O   0  0  0  0  0  0  0  0  0  0  0  0
   39.9270   30.8870   41.0690 C   0  0  0  0  0  2  0  0  0  0  0  0
   40.0390   32.3770   41.0510 C   0  0  2  0  0  3  0  0  0  0  0  0
   38.8160   33.0990   40.5670 C   0  0  2  0  0  3  0  0  0  0  0  0
   36.7140   32.6820   39.6200 O   0  0  0  0  0  0  0  0  0  0  0  0
   36.7770   32.0520   38.8480 H   0  0  0  0  0  0  0  0  0  0  0  0
   41.1400   32.6710   40.2130 O   0  0  0  0  0  0  0  0  0  0  0  0
   41.8470   32.0290   40.4780 H   0  0  0  0  0  0  0  0  0  0  0  0
   38.6930   34.2780   41.3140 O   0  0  0  0  0  0  0  0  0  0  0  0
   39.2270   35.0170   40.9210 H   0  0  0  0  0  0  0  0  0  0  0  0
   37.2320   25.0870   40.9020 C   0  0  0  0  0  0  0  0  0  0  0  0
   36.5030   24.1240   41.2750 O   0  0  0  0  0  0  0  0  0  0  0  0
   37.9640   24.2390   38.7280 C   0  0  0  0  0  0  0  0  0  0  0  0
   38.2710   24.7470   39.9990 C   0  0  0  0  0  0  0  0  0  0  0  0
   39.6290   24.8700   40.2540 C   0  0  0  0  0  0  0  0  0  0  0  0
   40.5740   24.5400   39.3770 N   0  0  0  0  0  0  0  0  0  0  0  0
   40.2140   24.0490   38.1500 C   0  0  0  0  0  0  0  0  0  0  0  0
   38.9210   23.9060   37.8440 N   0  0  0  0  0  0  0  0  0  0  0  0
   36.9330   24.0950   38.4050 H   0  0  0  0  0  0  0  0  0  0  0  0
   41.0000   23.7840   37.4500 H   0  0  0  0  0  0  0  0  0  0  0  0
   40.0280   25.3790   41.5260 C   0  0  0  0  0  0  0  0  0  0  0  0
   40.0630   24.8840   42.7880 C   0  0  0  0  0  0  0  0  0  0  0  0
   40.4910   25.5800   43.8150 C   0  0  0  0  0  0  0  0  0  0  0  0
   40.9040   26.8460   43.5380 C   0  0  0  0  0  0  0  0  0  0  0  0
   40.6650   27.0340   41.7400 S   0  0  0  0  0  0  0  0  0  0  0  0
   39.6980   23.8400   42.8740 H   0  0  0  0  0  0  0  0  0  0  0  0
   40.5520   25.2620   44.8480 H   0  0  0  0  0  0  0  0  0  0  0  0
   41.3090   27.6510   44.2050 H   0  0  0  0  0  0  0  0  0  0  0  0
  1  5  1  0  0  0  0
  2  1  2  0  0  0  0
  2  3  1  0  0  0  0
  3  4  1  0  0  0  0
  4  6  1  0  0  0  0
  5  4  2  0  0  0  0
  6  8  1  0  0  0  0
  6  9  1  0  0  0  0
  7  2  1  0  0  0  0
 10  3  1  0  0  0  0
 10 11  1  0  0  0  0
 12 10  1  0  0  0  0
 13 19  1  6  0  0  0
 14 13  1  0  0  0  0
 14 10  1  1  0  0  0
 14 15  1  0  0  0  0
 16 15  1  0  0  0  0
 17 21  1  6  0  0  0
 17 16  1  0  0  0  0
 18 13  1  0  0  0  0
 18 17  1  0  0  0  0
 18 23  1  1  0  0  0
 20 19  1  0  0  0  0
 21 22  1  0  0  0  0
 24 23  1  0  0  0  0
 25 26  2  0  0  0  0
 25  1  1  0  0  0  0
 27 28  1  0  0  0  0
 28 29  2  0  0  0  0
 28 25  1  0  0  0  0
 29 35  1  0  0  0  0
 30 29  1  0  0  0  0
 31 30  2  0  0  0  0
 32 31  1  0  0  0  0
 32 27  2  0  0  0  0
 33 27  1  0  0  0  0
 34 31  1  0  0  0  0
 35 39  1  0  0  0  0
 35 36  2  0  0  0  0
 36 40  1  0  0  0  0
 36 37  1  0  0  0  0
 37 41  1  0  0  0  0
 38 37  2  0  0  0  0
 38 42  1  0  0  0  0
 39 38  1  0  0  0  0
M  END
>  <minimizedAffinity>
-6.46683311

$$$$

 OpenBabel03252503213D

 42 45  0  0  1  0  0  0  0  0999 V2000
   39.6670   29.6220   42.4470 C   0  0  0  0  0  0  0  0  0  0  0  0
   39.5400   30.7860   41.7270 C   0  0  0  0  0  0  0  0  0  0  0  0
   40.8130   31.2140   41.5100 N   0  0  0  0  0  0  0  0  0  0  0  0
   41.6620   30.3410   42.0780 C   0  0  0  0  0  0  0  0  0  0  0  0
   40.9560   29.3520   42.6610 N   0  0  0  0  0  0  0  0  0  0  0  0
   43.0720   30.3430   42.1150 N   0  0  0  0  0  0  0  0  0  0  0  0
   38.6390   31.2500   41.4070 H   0  0  0  0  0  0  0  0  0  0  0  0
   43.7930   30.1010   41.3770 H   0  0  0  0  0  0  0  0  0  0  0  0
   43.6070   30.6090   42.9490 H   0  0  0  0  0  0  0  0  0  0  0  0
   41.2420   32.3920   40.8080 C   0  0  0  0  0  0  0  0  0  0  0  0
   41.9230   33.0040   41.4730 H   0  0  0  0  0  0  0  0  0  0  0  0
   40.3510   33.0610   40.6660 H   0  0  0  0  0  0  0  0  0  0  0  0
   41.5380   33.2120   38.4640 C   0  0  1  0  0  3  0  0  0  0  0  0
   41.8540   32.1770   39.4730 C   0  0  1  0  0  3  0  0  0  0  0  0
   43.2510   32.2230   39.6890 O   0  0  0  0  0  0  0  0  0  0  0  0
   43.8120   31.5980   38.5860 C   0  0  0  0  0  2  0  0  0  0  0  0
   43.7140   32.5160   37.4120 C   0  0  2  0  0  3  0  0  0  0  0  0
   42.3740   33.1630   37.2220 C   0  0  2  0  0  3  0  0  0  0  0  0
   40.1950   33.1170   38.0820 O   0  0  0  0  0  0  0  0  0  0  0  0
   39.8510   32.1840   38.1620 H   0  0  0  0  0  0  0  0  0  0  0  0
   44.0390   31.7310   36.2810 O   0  0  0  0  0  0  0  0  0  0  0  0
   44.8310   31.2010   36.5520 H   0  0  0  0  0  0  0  0  0  0  0  0
   42.5910   34.4640   36.7470 O   0  0  0  0  0  0  0  0  0  0  0  0
   42.6870   34.4820   35.7600 H   0  0  0  0  0  0  0  0  0  0  0  0
   38.5540   28.7440   42.9460 C   0  0  0  0  0  0  0  0  0  0  0  0
   37.6740   29.0990   43.7820 O   0  0  0  0  0  0  0  0  0  0  0  0
   39.1250   26.3730   43.1180 C   0  0  0  0  0  0  0  0  0  0  0  0
   38.4400   27.4130   42.4730 C   0  0  0  0  0  0  0  0  0  0  0  0
   37.6850   27.0110   41.3810 C   0  0  0  0  0  0  0  0  0  0  0  0
   37.6040   25.7480   40.9690 N   0  0  0  0  0  0  0  0  0  0  0  0
   38.2950   24.7730   41.6390 C   0  0  0  0  0  0  0  0  0  0  0  0
   39.0420   25.0980   42.6990 N   0  0  0  0  0  0  0  0  0  0  0  0
   39.7530   26.5570   43.9890 H   0  0  0  0  0  0  0  0  0  0  0  0
   38.2170   23.7500   41.2860 H   0  0  0  0  0  0  0  0  0  0  0  0
   36.9570   28.0080   40.6650 C   0  0  0  0  0  0  0  0  0  0  0  0
   35.7680   28.6360   40.8370 C   0  0  0  0  0  0  0  0  0  0  0  0
   35.3160   29.5470   40.0080 C   0  0  0  0  0  0  0  0  0  0  0  0
   36.1210   29.8300   38.9490 C   0  0  0  0  0  0  0  0  0  0  0  0
   37.5720   28.7470   39.1590 S   0  0  0  0  0  0  0  0  0  0  0  0
   35.2120   28.3100   41.7400 H   0  0  0  0  0  0  0  0  0  0  0  0
   34.3840   30.0920   40.0710 H   0  0  0  0  0  0  0  0  0  0  0  0
   35.9920   30.5500   38.0980 H   0  0  0  0  0  0  0  0  0  0  0  0
  1  5  1  0  0  0  0
  1 25  1  0  0  0  0
  2  1  2  0  0  0  0
  3  2  1  0  0  0  0
  3  4  1  0  0  0  0
  4  6  1  0  0  0  0
  4  5  2  0  0  0  0
  6  9  1  0  0  0  0
  7  2  1  0  0  0  0
  8  6  1  0  0  0  0
 10 11  1  0  0  0  0
 10  3  1  0  0  0  0
 12 10  1  0  0  0  0
 13 19  1  6  0  0  0
 13 14  1  0  0  0  0
 14 15  1  0  0  0  0
 14 10  1  1  0  0  0
 16 15  1  0  0  0  0
 17 21  1  6  0  0  0
 17 16  1  0  0  0  0
 18 23  1  1  0  0  0
 18 17  1  0  0  0  0
 18 13  1  0  0  0  0
 19 20  1  0  0  0  0
 21 22  1  0  0  0  0
 24 23  1  0  0  0  0
 25 26  2  0  0  0  0
 27 33  1  0  0  0  0
 28 25  1  0  0  0  0
 28 27  2  0  0  0  0
 29 28  1  0  0  0  0
 30 29  2  0  0  0  0
 30 31  1  0  0  0  0
 31 32  2  0  0  0  0
 32 27  1  0  0  0  0
 34 31  1  0  0  0  0
 35 36  2  0  0  0  0
 35 29  1  0  0  0  0
 36 40  1  0  0  0  0
 37 41  1  0  0  0  0
 37 36  1  0  0  0  0
 38 39  1  0  0  0  0
 38 37  2  0  0  0  0
 39 35  1  0  0  0  0
 42 38  1  0  0  0  0
M  END
>  <minimizedAffinity>
-6.40086317

$$$$
