
 OpenBabel03242517433D

 22 23  0  0  1  0  0  0  0  0999 V2000
   41.3670   35.0280   40.1540 C   0  0  2  0  0  3  0  0  0  0  0  0
   42.3410   34.3660   41.1090 C   0  0  1  0  0  3  0  0  0  0  0  0
   42.8800   33.2010   40.5190 O   0  0  0  0  0  0  0  0  0  0  0  0
   43.6950   33.6780   39.4760 C   0  0  0  0  0  2  0  0  0  0  0  0
   42.8180   34.1460   38.3330 C   0  0  2  0  0  3  0  0  0  0  0  0
   42.0230   35.3430   38.8280 C   0  0  1  0  0  3  0  0  0  0  0  0
   40.8990   36.1890   40.7370 O   0  0  0  0  0  0  0  0  0  0  0  0
   40.7180   36.9110   40.0620 H   0  0  0  0  0  0  0  0  0  0  0  0
   41.9570   33.1190   37.9490 O   0  0  0  0  0  0  0  0  0  0  0  0
   42.2240   32.2960   38.4140 H   0  0  0  0  0  0  0  0  0  0  0  0
   41.0430   35.6990   37.9260 O   0  0  0  0  0  0  0  0  0  0  0  0
   41.4630   36.3160   37.2560 H   0  0  0  0  0  0  0  0  0  0  0  0
   43.7220   35.4320   41.5460 S   0  0  0  0  0  0  0  0  0  0  0  0
   44.2320   35.7250   44.2700 C   0  0  0  0  0  0  0  0  0  0  0  0
   44.3720   34.9240   43.1320 C   0  0  0  0  0  0  0  0  0  0  0  0
   45.0320   33.7010   43.2480 C   0  0  0  0  0  0  0  0  0  0  0  0
   45.5080   33.3580   44.4880 N   0  0  0  0  0  0  0  0  0  0  0  0
   45.3500   34.1540   45.5480 C   0  0  0  0  0  0  0  0  0  0  0  0
   44.7190   35.3440   45.4760 N   0  0  0  0  0  0  0  0  0  0  0  0
   43.7290   36.6820   44.2140 H   0  0  0  0  0  0  0  0  0  0  0  0
   45.1330   33.0930   42.3600 H   0  0  0  0  0  0  0  0  0  0  0  0
   45.8050   33.6730   46.4080 H   0  0  0  0  0  0  0  0  0  0  0  0
  1  7  1  1  0  0  0
  1  2  1  0  0  0  0
  2 13  1  6  0  0  0
  3  2  1  0  0  0  0
  4  3  1  0  0  0  0
  5  9  1  1  0  0  0
  5  6  1  0  0  0  0
  5  4  1  0  0  0  0
  6 11  1  6  0  0  0
  6  1  1  0  0  0  0
  8  7  1  0  0  0  0
  9 10  1  0  0  0  0
 12 11  1  0  0  0  0
 13 15  1  0  0  0  0
 14 19  1  0  0  0  0
 15 16  1  0  0  0  0
 15 14  2  0  0  0  0
 16 17  2  0  0  0  0
 17 18  1  0  0  0  0
 18 22  1  0  0  0  0
 19 18  2  0  0  0  0
 20 14  1  0  0  0  0
 21 16  1  0  0  0  0
M  END
>  <minimizedAffinity>
-4.50713778

>  <minimizedRMSD>
0.612448215

$$$$
