
 OpenBabel03252506123D

 39 41  0  0  1  0  0  0  0  0999 V2000
   45.0450   33.6040   41.1600 F   0  0  0  0  0  0  0  0  0  0  0  0
   46.2670   34.1370   41.0610 C   0  0  0  0  0  0  0  0  0  0  0  0
   46.8010   34.8250   42.1380 C   0  0  0  0  0  0  0  0  0  0  0  0
   48.0620   35.4060   42.1170 C   0  0  0  0  0  0  0  0  0  0  0  0
   48.8370   35.2980   40.9620 C   0  0  0  0  0  0  0  0  0  0  0  0
   48.2710   34.6040   39.9070 C   0  0  0  0  0  0  0  0  0  0  0  0
   47.0400   34.0310   39.9120 C   0  0  0  0  0  0  0  0  0  0  0  0
   48.4170   35.9330   43.0040 H   0  0  0  0  0  0  0  0  0  0  0  0
   49.8110   35.7640   40.9870 H   0  0  0  0  0  0  0  0  0  0  0  0
   48.9800   34.5900   39.0830 H   0  0  0  0  0  0  0  0  0  0  0  0
   45.4680   34.1370   45.4870 C   0  0  0  0  0  0  0  0  0  0  0  0
   44.5710   35.2230   45.6710 C   0  0  0  0  0  0  0  0  0  0  0  0
   44.4350   36.1840   44.6370 C   0  0  0  0  0  0  0  0  0  0  0  0
   45.1910   35.9930   43.5130 N   0  0  0  0  0  0  0  0  0  0  0  0
   46.0240   34.9600   43.3740 C   0  0  0  0  0  0  0  0  0  0  0  0
   46.1560   34.0470   44.3510 N   0  0  0  0  0  0  0  0  0  0  0  0
   44.0030   35.3250   46.5700 H   0  0  0  0  0  0  0  0  0  0  0  0
   43.7680   37.0120   44.7470 H   0  0  0  0  0  0  0  0  0  0  0  0
   45.5840   33.1990   46.5290 N   0  0  0  0  0  0  0  0  0  0  0  0
   46.4620   32.9200   47.0580 H   0  0  0  0  0  0  0  0  0  0  0  0
   44.7670   32.6410   46.9180 H   0  0  0  0  0  0  0  0  0  0  0  0
   46.5830   33.3670   38.8070 O   0  0  0  0  0  0  0  0  0  0  0  0
   48.0200   34.6290   36.9750 O   0  0  0  0  0  0  0  0  0  0  0  0
   47.2930   33.3390   37.2820 P   0  0  2  0  0  0  0  0  0  0  0  0
   46.0660   33.0640   36.1250 O   0  0  0  0  0  0  0  0  0  0  0  0
   45.3810   32.5020   36.5520 H   0  0  0  0  0  0  0  0  0  0  0  0
   48.3720   32.0590   37.0920 O   0  0  0  0  0  0  0  0  0  0  0  0
   49.0770   32.3180   34.8030 C   0  0  1  0  0  3  0  0  0  0  0  0
   48.3840   31.4890   35.8540 C   0  0  2  0  0  3  0  0  0  0  0  0
   47.1300   31.1570   35.3600 O   0  0  0  0  0  0  0  0  0  0  0  0
   47.3510   30.1480   34.4060 C   0  0  0  0  0  2  0  0  0  0  0  0
   48.1860   30.6260   33.2560 C   0  0  2  0  0  3  0  0  0  0  0  0
   49.4070   31.3830   33.6550 C   0  0  2  0  0  3  0  0  0  0  0  0
   48.2430   33.3120   34.2640 O   0  0  0  0  0  0  0  0  0  0  0  0
   47.6020   33.5720   34.9730 H   0  0  0  0  0  0  0  0  0  0  0  0
   47.3980   31.2920   32.3480 O   0  0  0  0  0  0  0  0  0  0  0  0
   47.5640   32.2470   32.2840 H   0  0  0  0  0  0  0  0  0  0  0  0
   50.5130   30.5840   33.9300 O   0  0  0  0  0  0  0  0  0  0  0  0
   50.8560   30.2960   33.0470 H   0  0  0  0  0  0  0  0  0  0  0  0
  2  1  1  0  0  0  0
  2  3  1  0  0  0  0
  3 15  1  0  0  0  0
  4  3  2  0  0  0  0
  4  8  1  0  0  0  0
  5  9  1  0  0  0  0
  5  4  1  0  0  0  0
  6  7  1  0  0  0  0
  6  5  2  0  0  0  0
  7  2  2  0  0  0  0
 10  6  1  0  0  0  0
 11 12  1  0  0  0  0
 11 19  1  0  0  0  0
 12 17  1  0  0  0  0
 13 18  1  0  0  0  0
 13 12  2  0  0  0  0
 14 13  1  0  0  0  0
 15 14  2  0  0  0  0
 15 16  1  0  0  0  0
 16 11  2  0  0  0  0
 19 21  1  0  0  0  0
 19 20  1  0  0  0  0
 22  7  1  0  0  0  0
 24 23  2  6  0  0  0
 24 22  1  0  0  0  0
 25 26  1  0  0  0  0
 25 24  1  0  0  0  0
 27 24  1  0  0  0  0
 28 34  1  6  0  0  0
 28 29  1  0  0  0  0
 29 27  1  1  0  0  0
 30 29  1  0  0  0  0
 31 30  1  0  0  0  0
 32 36  1  6  0  0  0
 32 33  1  0  0  0  0
 32 31  1  0  0  0  0
 33 38  1  1  0  0  0
 33 28  1  0  0  0  0
 34 35  1  0  0  0  0
 37 36  1  0  0  0  0
 39 38  1  0  0  0  0
M  END
>  <minimizedAffinity>
-7.07938051

>  <minimizedRMSD>
1.11455297

$$$$
