
 OpenBabel03242522503D

 29 30  0  0  1  0  0  0  0  0999 V2000
   47.4470   32.0870   48.4120 O   0  0  0  0  0  0  0  0  0  0  0  0
   45.3730   30.6990   47.6230 O   0  0  0  0  0  0  0  0  0  0  0  0
   45.7970   31.9760   48.3850 P   0  0  1  0  0  0  0  0  0  0  0  0
   45.1520   31.8160   49.9290 O   0  0  0  0  0  0  0  0  0  0  0  0
   44.4650   32.4940   50.1520 H   0  0  0  0  0  0  0  0  0  0  0  0
   45.1260   33.3080   47.6000 O   0  0  0  0  0  0  0  0  0  0  0  0
   46.9710   33.2470   44.4710 C   0  0  0  0  0  0  0  0  0  0  0  0
   46.5450   32.9340   45.7740 C   0  0  0  0  0  0  0  0  0  0  0  0
   45.5070   33.6520   46.3210 C   0  0  0  0  0  0  0  0  0  0  0  0
   44.9490   34.6280   45.5690 N   0  0  0  0  0  0  0  0  0  0  0  0
   45.3510   34.9290   44.3290 C   0  0  0  0  0  0  0  0  0  0  0  0
   46.3760   34.2280   43.7760 N   0  0  0  0  0  0  0  0  0  0  0  0
   47.7760   32.7420   43.9540 H   0  0  0  0  0  0  0  0  0  0  0  0
   47.1120   32.1380   46.1800 H   0  0  0  0  0  0  0  0  0  0  0  0
   44.8870   35.7090   43.7600 H   0  0  0  0  0  0  0  0  0  0  0  0
   48.4020   31.2160   48.8150 C   0  0  0  0  0  0  0  0  0  0  0  0
   49.4480   31.7970   49.2720 O   0  0  0  0  0  0  0  0  0  0  0  0
   50.2070   30.1640   50.1420 C   0  0  2  0  0  3  0  0  0  0  0  0
   49.1200   29.9620   49.1090 C   0  0  2  0  0  3  0  0  0  0  0  0
   49.5990   29.3550   47.9550 O   0  0  0  0  0  0  0  0  0  0  0  0
   50.9250   29.5900   47.6820 C   0  0  0  0  0  2  0  0  0  0  0  0
   51.8940   29.1960   48.7490 C   0  0  2  0  0  3  0  0  0  0  0  0
   51.0930   28.9300   50.0130 C   0  0  1  0  0  3  0  0  0  0  0  0
   49.6400   30.2090   51.4370 O   0  0  0  0  0  0  0  0  0  0  0  0
   49.7010   29.3030   51.8400 H   0  0  0  0  0  0  0  0  0  0  0  0
   52.7260   30.2920   49.0740 O   0  0  0  0  0  0  0  0  0  0  0  0
   53.1250   30.7030   48.2790 H   0  0  0  0  0  0  0  0  0  0  0  0
   51.9190   28.7520   51.1100 O   0  0  0  0  0  0  0  0  0  0  0  0
   51.7380   29.4120   51.8040 H   0  0  0  0  0  0  0  0  0  0  0  0
  1 16  1  0  0  0  0
  3  2  2  6  0  0  0
  3  1  1  0  0  0  0
  3  4  1  0  0  0  0
  4  5  1  0  0  0  0
  6  3  1  0  0  0  0
  7  8  1  0  0  0  0
  8 14  1  0  0  0  0
  8  9  2  0  0  0  0
  9  6  1  0  0  0  0
 10  9  1  0  0  0  0
 11 10  2  0  0  0  0
 12 11  1  0  0  0  0
 12  7  2  0  0  0  0
 13  7  1  0  0  0  0
 15 11  1  0  0  0  0
 16 17  2  0  0  0  0
 18 24  1  1  0  0  0
 19 16  1  6  0  0  0
 19 18  1  0  0  0  0
 20 19  1  0  0  0  0
 21 20  1  0  0  0  0
 21 22  1  0  0  0  0
 22 26  1  1  0  0  0
 22 23  1  0  0  0  0
 23 18  1  0  0  0  0
 23 28  1  1  0  0  0
 24 25  1  0  0  0  0
 27 26  1  0  0  0  0
 28 29  1  0  0  0  0
M  END
>  <minimizedAffinity>
-5.12653399

>  <minimizedRMSD>
0.988735795

$$$$
