
 OpenBabel03252502243D

 37 39  0  0  1  0  0  0  0  0999 V2000
   46.8330   34.5970   42.1770 N   0  0  0  0  0  0  0  0  0  0  0  0
   48.2750   34.4620   42.2570 C   0  0  0  0  0  0  0  0  0  0  0  0
   48.7940   35.2970   41.0690 C   0  0  0  0  0  0  0  0  0  0  0  0
   48.3910   34.5970   39.7910 C   0  0  0  0  0  0  0  0  0  0  0  0
   46.9930   34.0720   39.7910 C   0  0  0  0  0  0  0  0  0  0  0  0
   46.1380   34.5180   40.9380 C   0  0  1  0  0  0  0  0  0  0  0  0
   48.6990   34.7950   43.1970 H   0  0  0  0  0  0  0  0  0  0  0  0
   48.5170   33.4140   41.9760 H   0  0  0  0  0  0  0  0  0  0  0  0
   48.2580   36.2840   41.1440 H   0  0  0  0  0  0  0  0  0  0  0  0
   49.8790   35.4130   41.0840 H   0  0  0  0  0  0  0  0  0  0  0  0
   48.6100   35.2850   38.9490 H   0  0  0  0  0  0  0  0  0  0  0  0
   49.1060   33.7360   39.6810 H   0  0  0  0  0  0  0  0  0  0  0  0
   46.9970   32.9480   39.8060 H   0  0  0  0  0  0  0  0  0  0  0  0
   46.5340   34.3480   38.8200 H   0  0  0  0  0  0  0  0  0  0  0  0
   45.7750   35.5490   40.7140 H   0  0  0  0  0  0  0  0  0  0  0  0
   44.5090   36.0610   44.7200 C   0  0  0  0  0  0  0  0  0  0  0  0
   45.2310   35.9480   43.5190 C   0  0  0  0  0  0  0  0  0  0  0  0
   46.0550   34.8160   43.3560 C   0  0  0  0  0  0  0  0  0  0  0  0
   46.0930   33.9180   44.3710 N   0  0  0  0  0  0  0  0  0  0  0  0
   45.3830   34.0630   45.5130 C   0  0  0  0  0  0  0  0  0  0  0  0
   44.5820   35.1560   45.6780 N   0  0  0  0  0  0  0  0  0  0  0  0
   43.8750   36.9220   44.8580 H   0  0  0  0  0  0  0  0  0  0  0  0
   45.1870   36.6740   42.7230 H   0  0  0  0  0  0  0  0  0  0  0  0
   45.4380   33.3240   46.3020 H   0  0  0  0  0  0  0  0  0  0  0  0
   45.0750   33.6090   41.0620 O   0  0  0  0  0  0  0  0  0  0  0  0
   43.2660   34.2710   39.5830 C   0  0  2  0  0  3  0  0  0  0  0  0
   43.8370   34.1880   40.9540 C   0  0  1  0  0  3  0  0  0  0  0  0
   42.8790   33.7320   41.8300 O   0  0  0  0  0  0  0  0  0  0  0  0
   42.8510   32.3210   41.7130 C   0  0  0  0  0  2  0  0  0  0  0  0
   42.6150   31.9350   40.2770 C   0  0  1  0  0  3  0  0  0  0  0  0
   42.2610   33.1470   39.4310 C   0  0  2  0  0  3  0  0  0  0  0  0
   44.2040   34.1000   38.5730 O   0  0  0  0  0  0  0  0  0  0  0  0
   43.8120   34.3300   37.7070 H   0  0  0  0  0  0  0  0  0  0  0  0
   43.7590   31.3210   39.7950 O   0  0  0  0  0  0  0  0  0  0  0  0
   43.6170   31.0400   38.8400 H   0  0  0  0  0  0  0  0  0  0  0  0
   42.2210   32.7650   38.0940 O   0  0  0  0  0  0  0  0  0  0  0  0
   41.9260   33.5180   37.5530 H   0  0  0  0  0  0  0  0  0  0  0  0
  1  2  1  0  0  0  0
  1 18  1  0  0  0  0
  2  7  1  0  0  0  0
  3 10  1  0  0  0  0
  3  9  1  0  0  0  0
  3  2  1  0  0  0  0
  4  3  1  0  0  0  0
  5  4  1  0  0  0  0
  5 13  1  0  0  0  0
  5  6  1  0  0  0  0
  6 15  1  6  0  0  0
  6 25  1  0  0  0  0
  6  1  1  0  0  0  0
  8  2  1  0  0  0  0
 11  4  1  0  0  0  0
 12  4  1  0  0  0  0
 14  5  1  0  0  0  0
 16 22  1  0  0  0  0
 16 21  1  0  0  0  0
 17 16  2  0  0  0  0
 18 17  1  0  0  0  0
 18 19  2  0  0  0  0
 19 20  1  0  0  0  0
 20 21  2  0  0  0  0
 20 24  1  0  0  0  0
 23 17  1  0  0  0  0
 26 32  1  6  0  0  0
 26 27  1  0  0  0  0
 27 25  1  6  0  0  0
 27 28  1  0  0  0  0
 29 28  1  0  0  0  0
 30 34  1  6  0  0  0
 30 29  1  0  0  0  0
 31 36  1  6  0  0  0
 31 26  1  0  0  0  0
 31 30  1  0  0  0  0
 33 32  1  0  0  0  0
 35 34  1  0  0  0  0
 37 36  1  0  0  0  0
M  END
>  <minimizedAffinity>
-5.69786024

>  <minimizedRMSD>
0.761037946

$$$$
