
 OpenBabel03242517113D

 50 53  0  0  1  0  0  0  0  0999 V2000
   46.1940   33.5530   43.3080 C   0  0  2  0  0  0  0  0  0  0  0  0
   45.2630   34.3560   42.4670 C   0  0  2  0  0  0  0  0  0  0  0  0
   44.9430   35.6790   43.0570 C   0  0  0  0  0  0  0  0  0  0  0  0
   44.4680   35.6270   44.4860 C   0  0  0  0  0  0  0  0  0  0  0  0
   45.1280   34.5610   45.3100 C   0  0  0  0  0  0  0  0  0  0  0  0
   46.4350   34.0980   44.6890 C   0  0  0  0  0  0  0  0  0  0  0  0
   45.7550   32.5180   43.4390 H   0  0  0  0  0  0  0  0  0  0  0  0
   45.7500   34.5410   41.4890 H   0  0  0  0  0  0  0  0  0  0  0  0
   44.1630   36.1870   42.4520 H   0  0  0  0  0  0  0  0  0  0  0  0
   45.8250   36.3590   43.0300 H   0  0  0  0  0  0  0  0  0  0  0  0
   44.4950   36.6210   44.9370 H   0  0  0  0  0  0  0  0  0  0  0  0
   43.3810   35.3320   44.4230 H   0  0  0  0  0  0  0  0  0  0  0  0
   45.4160   35.0310   46.2900 H   0  0  0  0  0  0  0  0  0  0  0  0
   44.4980   33.6800   45.5150 H   0  0  0  0  0  0  0  0  0  0  0  0
   47.1610   34.8960   44.7810 H   0  0  0  0  0  0  0  0  0  0  0  0
   46.7970   33.2580   45.3340 H   0  0  0  0  0  0  0  0  0  0  0  0
   43.0500   34.2180   41.2540 C   0  0  1  0  0  0  0  0  0  0  0  0
   44.0030   33.5670   42.1870 C   0  0  1  0  0  0  0  0  0  0  0  0
   44.3730   32.3370   41.6580 O   0  0  0  0  0  0  0  0  0  0  0  0
   44.0960   32.3490   40.3030 C   0  0  0  0  0  0  0  0  0  0  0  0
   42.7520   33.0620   40.2860 C   0  0  2  0  0  0  0  0  0  0  0  0
   43.4670   35.0730   40.6930 H   0  0  0  0  0  0  0  0  0  0  0  0
   43.5330   33.3610   43.1920 H   0  0  0  0  0  0  0  0  0  0  0  0
   44.8420   32.9950   39.8070 H   0  0  0  0  0  0  0  0  0  0  0  0
   44.0390   31.3390   39.9040 H   0  0  0  0  0  0  0  0  0  0  0  0
   41.9860   32.3830   40.6740 H   0  0  0  0  0  0  0  0  0  0  0  0
   41.8640   34.6050   41.8390 O   0  0  0  0  0  0  0  0  0  0  0  0
   41.4990   33.8140   42.3260 H   0  0  0  0  0  0  0  0  0  0  0  0
   42.4530   33.5730   39.0320 O   0  0  0  0  0  0  0  0  0  0  0  0
   40.4980   32.1780   39.2300 C   0  0  2  0  0  3  0  0  0  0  0  0
   41.1490   33.4060   38.6430 C   0  0  1  0  0  3  0  0  0  0  0  0
   40.4380   34.5290   39.0700 O   0  0  0  0  0  0  0  0  0  0  0  0
   39.2720   34.5810   38.3070 C   0  0  0  0  0  2  0  0  0  0  0  0
   38.3860   33.4360   38.7410 C   0  0  1  0  0  3  0  0  0  0  0  0
   39.0880   32.1040   38.6930 C   0  0  2  0  0  3  0  0  0  0  0  0
   40.4410   32.1660   40.6050 O   0  0  0  0  0  0  0  0  0  0  0  0
   40.5100   31.2700   41.0050 H   0  0  0  0  0  0  0  0  0  0  0  0
   37.9170   33.6840   40.0140 O   0  0  0  0  0  0  0  0  0  0  0  0
   37.5390   32.8300   40.3910 H   0  0  0  0  0  0  0  0  0  0  0  0
   38.3270   31.1990   39.4320 O   0  0  0  0  0  0  0  0  0  0  0  0
   38.3980   30.2630   39.0730 H   0  0  0  0  0  0  0  0  0  0  0  0
   47.5000   33.3400   42.6570 C   0  0  0  0  0  0  0  0  0  0  0  0
   48.4470   34.3350   42.8970 C   0  0  0  0  0  0  0  0  0  0  0  0
   49.7300   34.2450   42.3360 C   0  0  0  0  0  0  0  0  0  0  0  0
   49.9600   33.1210   41.5490 N   0  0  0  0  0  0  0  0  0  0  0  0
   49.0140   32.1780   41.3400 C   0  0  0  0  0  0  0  0  0  0  0  0
   47.7790   32.2800   41.8900 N   0  0  0  0  0  0  0  0  0  0  0  0
   48.4160   35.2520   43.4640 H   0  0  0  0  0  0  0  0  0  0  0  0
   50.5410   34.9210   42.4330 H   0  0  0  0  0  0  0  0  0  0  0  0
   49.3120   31.3490   40.7090 H   0  0  0  0  0  0  0  0  0  0  0  0
  1  7  1  1  0  0  0
  1  6  1  0  0  0  0
  2  8  1  6  0  0  0
  2  3  1  0  0  0  0
  2  1  1  0  0  0  0
  3  4  1  0  0  0  0
  4 11  1  0  0  0  0
  4  5  1  0  0  0  0
  5 14  1  0  0  0  0
  5 13  1  0  0  0  0
  6 15  1  0  0  0  0
  6  5  1  0  0  0  0
  6 16  1  0  0  0  0
  9  3  1  0  0  0  0
 10  3  1  0  0  0  0
 12  4  1  0  0  0  0
 17 22  1  6  0  0  0
 17 27  1  0  0  0  0
 17 18  1  0  0  0  0
 18  2  1  0  0  0  0
 18 23  1  1  0  0  0
 19 18  1  0  0  0  0
 20 19  1  0  0  0  0
 21 20  1  0  0  0  0
 21 26  1  1  0  0  0
 21 17  1  0  0  0  0
 24 20  1  0  0  0  0
 25 20  1  0  0  0  0
 27 28  1  0  0  0  0
 29 21  1  0  0  0  0
 30 36  1  1  0  0  0
 31 29  1  1  0  0  0
 31 32  1  0  0  0  0
 31 30  1  0  0  0  0
 33 34  1  0  0  0  0
 33 32  1  0  0  0  0
 34 38  1  1  0  0  0
 35 34  1  0  0  0  0
 35 30  1  0  0  0  0
 35 40  1  1  0  0  0
 36 37  1  0  0  0  0
 38 39  1  0  0  0  0
 41 40  1  0  0  0  0
 42 43  1  0  0  0  0
 42  1  1  0  0  0  0
 43 48  1  0  0  0  0
 44 49  1  0  0  0  0
 44 43  2  0  0  0  0
 45 44  1  0  0  0  0
 46 45  2  0  0  0  0
 46 47  1  0  0  0  0
 47 42  2  0  0  0  0
 50 46  1  0  0  0  0
M  END
>  <minimizedAffinity>
-6.32970047

>  <minimizedRMSD>
1.35603046

$$$$
