
 OpenBabel03242523303D

 25 26  0  0  1  0  0  0  0  0999 V2000
   46.9440   32.1410   45.2570 S   0  0  0  0  0  0  0  0  0  0  0  0
   47.1180   30.9060   47.7350 C   0  0  1  0  0  3  0  0  0  0  0  0
   47.2300   30.6920   46.2580 C   0  0  2  0  0  3  0  0  0  0  0  0
   48.3930   30.0350   45.8850 O   0  0  0  0  0  0  0  0  0  0  0  0
   48.4510   28.7290   46.3530 C   0  0  0  0  0  2  0  0  0  0  0  0
   47.5170   28.4260   47.4770 C   0  0  1  0  0  3  0  0  0  0  0  0
   47.4490   29.5980   48.4260 C   0  0  1  0  0  3  0  0  0  0  0  0
   48.0010   31.8760   48.2170 O   0  0  0  0  0  0  0  0  0  0  0  0
   48.9120   31.6430   47.9500 H   0  0  0  0  0  0  0  0  0  0  0  0
   46.2790   27.9380   47.0890 O   0  0  0  0  0  0  0  0  0  0  0  0
   45.9600   27.1830   47.6400 H   0  0  0  0  0  0  0  0  0  0  0  0
   48.7070   29.6710   49.0320 O   0  0  0  0  0  0  0  0  0  0  0  0
   48.6400   29.8830   50.0090 H   0  0  0  0  0  0  0  0  0  0  0  0
   45.7610   33.3130   45.9510 C   0  0  0  0  0  0  0  0  0  0  0  0
   46.2110   33.8430   46.8430 H   0  0  0  0  0  0  0  0  0  0  0  0
   44.8390   32.8000   46.3020 H   0  0  0  0  0  0  0  0  0  0  0  0
   44.5200   36.3690   44.2570 C   0  0  0  0  0  0  0  0  0  0  0  0
   45.1760   36.2690   43.0440 C   0  0  0  0  0  0  0  0  0  0  0  0
   46.0290   35.1730   42.8040 C   0  0  0  0  0  0  0  0  0  0  0  0
   46.1910   34.2240   43.7870 N   0  0  0  0  0  0  0  0  0  0  0  0
   45.5260   34.3710   44.9570 C   0  0  0  0  0  0  0  0  0  0  0  0
   44.7110   35.4220   45.1790 N   0  0  0  0  0  0  0  0  0  0  0  0
   43.8960   37.2400   44.3320 H   0  0  0  0  0  0  0  0  0  0  0  0
   45.1590   36.9220   42.1690 H   0  0  0  0  0  0  0  0  0  0  0  0
   46.5880   35.0070   41.8890 H   0  0  0  0  0  0  0  0  0  0  0  0
  1 14  1  0  0  0  0
  2  8  1  1  0  0  0
  2  7  1  0  0  0  0
  3  1  1  6  0  0  0
  3  2  1  0  0  0  0
  4  3  1  0  0  0  0
  4  5  1  0  0  0  0
  5  6  1  0  0  0  0
  6 10  1  6  0  0  0
  6  7  1  0  0  0  0
  7 12  1  6  0  0  0
  9  8  1  0  0  0  0
 10 11  1  0  0  0  0
 12 13  1  0  0  0  0
 14 16  1  0  0  0  0
 14 15  1  0  0  0  0
 17 23  1  0  0  0  0
 17 22  1  0  0  0  0
 18 17  2  0  0  0  0
 19 18  1  0  0  0  0
 19 20  2  0  0  0  0
 20 21  1  0  0  0  0
 21 22  2  0  0  0  0
 21 14  1  0  0  0  0
 24 18  1  0  0  0  0
 25 19  1  0  0  0  0
M  END
>  <minimizedAffinity>
-3.89499831

>  <minimizedRMSD>
0.886032104

$$$$
