
 OpenBabel03252505433D

 45 48  0  0  1  0  0  0  0  0999 V2000
   42.6700   34.8230   40.3000 C   0  0  0  0  0  0  0  0  0  0  0  0
   42.5180   35.1120   38.9640 C   0  0  0  0  0  0  0  0  0  0  0  0
   41.3220   34.9960   38.3040 C   0  0  0  0  0  0  0  0  0  0  0  0
   40.2480   34.5740   39.0180 N   0  0  0  0  0  0  0  0  0  0  0  0
   40.3820   34.2820   40.3450 C   0  0  0  0  0  0  0  0  0  0  0  0
   41.5660   34.4020   40.9820 N   0  0  0  0  0  0  0  0  0  0  0  0
   43.3660   35.4420   38.4030 H   0  0  0  0  0  0  0  0  0  0  0  0
   41.2070   35.2260   37.2470 H   0  0  0  0  0  0  0  0  0  0  0  0
   43.9770   34.6520   42.3930 C   0  0  1  0  0  0  0  0  0  0  0  0
   44.1900   36.1320   41.9240 C   0  0  0  0  0  0  0  0  0  0  0  0
   44.0100   34.9390   40.9900 C   0  0  2  0  0  0  0  0  0  0  0  0
   42.9970   34.5550   42.9350 H   0  0  0  0  0  0  0  0  0  0  0  0
   45.2100   36.5370   42.0430 H   0  0  0  0  0  0  0  0  0  0  0  0
   43.3250   36.8050   41.9710 H   0  0  0  0  0  0  0  0  0  0  0  0
   44.8280   34.8080   40.2840 H   0  0  0  0  0  0  0  0  0  0  0  0
   45.1180   34.1030   43.1570 C   0  0  0  0  0  0  0  0  0  0  0  0
   46.3610   34.0120   42.4950 C   0  0  0  0  0  0  0  0  0  0  0  0
   47.4490   33.5020   43.1900 C   0  0  0  0  0  0  0  0  0  0  0  0
   47.2570   33.1160   44.4780 N   0  0  0  0  0  0  0  0  0  0  0  0
   46.0660   33.2160   45.0710 C   0  0  0  0  0  0  0  0  0  0  0  0
   45.0250   33.7080   44.3920 N   0  0  0  0  0  0  0  0  0  0  0  0
   46.4570   34.3390   41.4580 H   0  0  0  0  0  0  0  0  0  0  0  0
   48.4380   33.4130   42.7120 H   0  0  0  0  0  0  0  0  0  0  0  0
   46.0620   32.7400   46.4980 C   0  0  0  0  0  0  0  0  0  0  0  0
   45.0940   33.3940   47.2460 F   0  0  0  0  0  0  0  0  0  0  0  0
   47.2990   33.0820   47.0920 F   0  0  0  0  0  0  0  0  0  0  0  0
   45.9670   31.3760   46.5340 F   0  0  0  0  0  0  0  0  0  0  0  0
   39.2350   33.8160   41.1450 C   0  0  0  0  0  0  0  0  0  0  0  0
   38.4790   34.6500   41.1130 H   0  0  0  0  0  0  0  0  0  0  0  0
   39.5130   33.6270   42.1810 H   0  0  0  0  0  0  0  0  0  0  0  0
   38.5630   32.6250   40.5230 C   0  0  0  0  0  0  0  0  0  0  0  0
   37.4680   32.6740   40.6020 H   0  0  0  0  0  0  0  0  0  0  0  0
   38.8800   32.5820   39.4420 H   0  0  0  0  0  0  0  0  0  0  0  0
   37.9060   30.3040   41.1480 C   0  0  1  0  0  3  0  0  0  0  0  0
   39.0060   31.3460   41.1490 C   0  0  1  0  0  3  0  0  0  0  0  0
   40.1840   30.8210   40.7040 O   0  0  0  0  0  0  0  0  0  0  0  0
   40.1940   29.4330   40.6350 C   0  0  0  0  0  2  0  0  0  0  0  0
   39.6530   28.7660   41.8550 C   0  0  2  0  0  3  0  0  0  0  0  0
   38.2810   29.2680   42.1880 C   0  0  2  0  0  3  0  0  0  0  0  0
   36.6770   30.9020   41.4100 O   0  0  0  0  0  0  0  0  0  0  0  0
   36.0430   30.5550   40.7240 H   0  0  0  0  0  0  0  0  0  0  0  0
   40.5420   28.7830   42.9250 O   0  0  0  0  0  0  0  0  0  0  0  0
   40.2180   29.3110   43.7010 H   0  0  0  0  0  0  0  0  0  0  0  0
   37.3190   28.2660   42.2860 O   0  0  0  0  0  0  0  0  0  0  0  0
   36.6150   28.5890   42.9270 H   0  0  0  0  0  0  0  0  0  0  0  0
  1  6  1  0  0  0  0
  1 11  1  0  0  0  0
  2  1  2  0  0  0  0
  3  2  1  0  0  0  0
  3  4  2  0  0  0  0
  4  5  1  0  0  0  0
  5  6  2  0  0  0  0
  5 28  1  0  0  0  0
  7  2  1  0  0  0  0
  8  3  1  0  0  0  0
  9 12  1  1  0  0  0
  9 16  1  0  0  0  0
 10 14  1  0  0  0  0
 10 13  1  0  0  0  0
 10  9  1  0  0  0  0
 11 15  1  6  0  0  0
 11 10  1  0  0  0  0
 11  9  1  0  0  0  0
 16 21  1  0  0  0  0
 17 16  2  0  0  0  0
 17 18  1  0  0  0  0
 18 19  2  0  0  0  0
 19 20  1  0  0  0  0
 20 24  1  0  0  0  0
 21 20  2  0  0  0  0
 22 17  1  0  0  0  0
 23 18  1  0  0  0  0
 24 27  1  0  0  0  0
 24 26  1  0  0  0  0
 24 25  1  0  0  0  0
 28 30  1  0  0  0  0
 29 28  1  0  0  0  0
 31 32  1  0  0  0  0
 31 28  1  0  0  0  0
 33 31  1  0  0  0  0
 34 35  1  0  0  0  0
 34 40  1  1  0  0  0
 34 39  1  0  0  0  0
 35 31  1  6  0  0  0
 36 35  1  0  0  0  0
 37 36  1  0  0  0  0
 37 38  1  0  0  0  0
 38 39  1  0  0  0  0
 38 42  1  1  0  0  0
 39 44  1  6  0  0  0
 41 40  1  0  0  0  0
 42 43  1  0  0  0  0
 44 45  1  0  0  0  0
M  END
>  <minimizedAffinity>
-6.63983202

>  <minimizedRMSD>
2.02180791

$$$$
