
 OpenBabel03252509003D

 48 50  0  0  1  0  0  0  0  0999 V2000
   47.1140   34.2550   43.5050 N   0  0  0  0  0  0  0  0  0  0  0  0
   46.7050   35.2330   42.5620 C   0  0  0  0  0  0  0  0  0  0  0  0
   45.2090   35.3710   42.3840 C   0  0  0  0  0  0  0  0  0  0  0  0
   44.4060   35.1050   43.6230 C   0  0  0  0  0  0  0  0  0  0  0  0
   45.2940   34.8580   44.8200 C   0  0  0  0  0  0  0  0  0  0  0  0
   46.1970   33.6600   44.3570 C   0  0  2  0  0  0  0  0  0  0  0  0
   47.1330   35.1460   41.5600 H   0  0  0  0  0  0  0  0  0  0  0  0
   47.0610   36.2330   42.9460 H   0  0  0  0  0  0  0  0  0  0  0  0
   44.8860   34.7380   41.5220 H   0  0  0  0  0  0  0  0  0  0  0  0
   44.9800   36.4140   42.0450 H   0  0  0  0  0  0  0  0  0  0  0  0
   43.6470   35.8990   43.8210 H   0  0  0  0  0  0  0  0  0  0  0  0
   43.8320   34.1690   43.4590 H   0  0  0  0  0  0  0  0  0  0  0  0
   45.9170   35.7070   45.1060 H   0  0  0  0  0  0  0  0  0  0  0  0
   44.6560   34.4380   45.6100 H   0  0  0  0  0  0  0  0  0  0  0  0
   45.4930   32.9120   43.9500 H   0  0  0  0  0  0  0  0  0  0  0  0
   48.2800   33.5160   43.1170 C   0  0  0  0  0  0  0  0  0  0  0  0
   48.9400   34.1810   42.5460 H   0  0  0  0  0  0  0  0  0  0  0  0
   48.8080   33.2180   44.0580 H   0  0  0  0  0  0  0  0  0  0  0  0
   47.8490   32.2710   42.4060 C   0  0  0  0  0  0  0  0  0  0  0  0
   46.7440   32.2330   42.3160 H   0  0  0  0  0  0  0  0  0  0  0  0
   48.1500   31.3500   42.9050 H   0  0  0  0  0  0  0  0  0  0  0  0
   50.0610   31.6610   39.4310 C   0  0  0  0  0  0  0  0  0  0  0  0
   49.5530   31.6430   40.7440 C   0  0  0  0  0  0  0  0  0  0  0  0
   48.3740   32.2980   41.0150 C   0  0  0  0  0  0  0  0  0  0  0  0
   47.7640   32.9270   39.9980 N   0  0  0  0  0  0  0  0  0  0  0  0
   48.2590   32.9360   38.7510 C   0  0  0  0  0  0  0  0  0  0  0  0
   49.4010   32.3110   38.4530 N   0  0  0  0  0  0  0  0  0  0  0  0
   50.9830   31.1260   39.3090 H   0  0  0  0  0  0  0  0  0  0  0  0
   50.0730   31.1240   41.5400 H   0  0  0  0  0  0  0  0  0  0  0  0
   47.6490   33.4890   38.0390 H   0  0  0  0  0  0  0  0  0  0  0  0
   46.7860   33.2720   45.5560 O   0  0  0  0  0  0  0  0  0  0  0  0
   45.6000   30.9760   44.9360 O   0  0  0  0  0  0  0  0  0  0  0  0
   46.2820   31.7460   46.0600 P   0  0  2  0  0  0  0  0  0  0  0  0
   45.0560   32.0150   47.2230 O   0  0  0  0  0  0  0  0  0  0  0  0
   44.1760   32.0820   46.7720 H   0  0  0  0  0  0  0  0  0  0  0  0
   47.4880   30.8660   46.7920 O   0  0  0  0  0  0  0  0  0  0  0  0
   47.0530   28.5650   46.7160 C   0  0  2  0  0  3  0  0  0  0  0  0
   47.8600   29.7180   46.1210 C   0  0  2  0  0  3  0  0  0  0  0  0
   49.2250   29.5220   46.3140 O   0  0  0  0  0  0  0  0  0  0  0  0
   49.6110   28.2380   45.9400 C   0  0  0  0  0  2  0  0  0  0  0  0
   49.0480   27.1740   46.8490 C   0  0  1  0  0  3  0  0  0  0  0  0
   47.9510   27.8270   47.6800 C   0  0  1  0  0  3  0  0  0  0  0  0
   46.6410   27.7420   45.6550 O   0  0  0  0  0  0  0  0  0  0  0  0
   46.8690   28.1590   44.7680 H   0  0  0  0  0  0  0  0  0  0  0  0
   48.4790   26.1240   46.1030 O   0  0  0  0  0  0  0  0  0  0  0  0
   47.8610   25.6720   46.7360 H   0  0  0  0  0  0  0  0  0  0  0  0
   48.6070   28.7880   48.4640 O   0  0  0  0  0  0  0  0  0  0  0  0
   48.2910   28.7770   49.4030 H   0  0  0  0  0  0  0  0  0  0  0  0
  1  6  1  0  0  0  0
  2  8  1  0  0  0  0
  2  1  1  0  0  0  0
  3  2  1  0  0  0  0
  3  4  1  0  0  0  0
  4 11  1  0  0  0  0
  4  5  1  0  0  0  0
  5 13  1  0  0  0  0
  5 14  1  0  0  0  0
  6 15  1  6  0  0  0
  6  5  1  0  0  0  0
  6 31  1  0  0  0  0
  7  2  1  0  0  0  0
  9  3  1  0  0  0  0
 10  3  1  0  0  0  0
 12  4  1  0  0  0  0
 16  1  1  0  0  0  0
 16 18  1  0  0  0  0
 17 16  1  0  0  0  0
 19 21  1  0  0  0  0
 19 16  1  0  0  0  0
 20 19  1  0  0  0  0
 22 23  1  0  0  0  0
 23 24  2  0  0  0  0
 23 29  1  0  0  0  0
 24 19  1  0  0  0  0
 25 24  1  0  0  0  0
 26 25  2  0  0  0  0
 27 26  1  0  0  0  0
 27 22  2  0  0  0  0
 28 22  1  0  0  0  0
 30 26  1  0  0  0  0
 31 33  1  0  0  0  0
 33 32  2  6  0  0  0
 33 36  1  0  0  0  0
 33 34  1  0  0  0  0
 35 34  1  0  0  0  0
 37 43  1  6  0  0  0
 37 42  1  0  0  0  0
 38 39  1  0  0  0  0
 38 37  1  0  0  0  0
 38 36  1  1  0  0  0
 40 39  1  0  0  0  0
 40 41  1  0  0  0  0
 41 45  1  6  0  0  0
 41 42  1  0  0  0  0
 42 47  1  1  0  0  0
 44 43  1  0  0  0  0
 45 46  1  0  0  0  0
 47 48  1  0  0  0  0
M  END
>  <minimizedAffinity>
-4.38067532

>  <minimizedRMSD>
1.86399066

$$$$
