
 OpenBabel03252504303D

 36 37  0  0  1  0  0  0  0  0999 V2000
   45.1300   35.6190   43.5910 C   0  0  0  0  0  0  0  0  0  0  0  0
   46.0380   35.6360   42.9610 H   0  0  0  0  0  0  0  0  0  0  0  0
   44.9720   36.6110   44.0620 H   0  0  0  0  0  0  0  0  0  0  0  0
   43.7910   35.6020   41.4240 C   0  0  0  0  0  3  0  0  0  0  0  0
   43.8930   35.3730   42.7390 C   0  0  0  0  0  3  0  0  0  0  0  0
   42.5710   35.3040   40.8390 O   0  0  0  0  0  0  0  0  0  0  0  0
   41.3240   35.7050   41.2550 C   0  0  0  0  0  0  0  0  0  0  0  0
   41.3310   35.6680   42.3890 H   0  0  0  0  0  0  0  0  0  0  0  0
   41.0330   36.7160   40.9730 H   0  0  0  0  0  0  0  0  0  0  0  0
   40.2620   33.5710   41.6530 C   0  0  0  0  0  0  0  0  0  0  0  0
   40.2400   34.7570   40.8890 C   0  0  0  0  0  0  0  0  0  0  0  0
   39.2630   34.8720   39.9510 C   0  0  0  0  0  0  0  0  0  0  0  0
   38.4060   33.8590   39.8290 N   0  0  0  0  0  0  0  0  0  0  0  0
   38.4230   32.7480   40.5430 C   0  0  0  0  0  0  0  0  0  0  0  0
   39.3940   32.5520   41.5260 N   0  0  0  0  0  0  0  0  0  0  0  0
   40.9960   33.3570   42.4370 H   0  0  0  0  0  0  0  0  0  0  0  0
   39.3000   35.8000   39.3990 H   0  0  0  0  0  0  0  0  0  0  0  0
   37.6920   31.9570   40.3940 H   0  0  0  0  0  0  0  0  0  0  0  0
   45.1570   34.6450   44.5550 O   0  0  0  0  0  0  0  0  0  0  0  0
   45.1230   32.0670   43.9270 O   0  0  0  0  0  0  0  0  0  0  0  0
   46.0140   33.2710   44.0520 P   0  0  1  0  0  0  0  0  0  0  0  0
   46.7270   33.5710   42.5360 O   0  0  0  0  0  0  0  0  0  0  0  0
   47.6650   33.8520   42.6360 H   0  0  0  0  0  0  0  0  0  0  0  0
   47.2580   32.9900   45.1670 O   0  0  0  0  0  0  0  0  0  0  0  0
   46.9810   31.3400   46.7910 C   0  0  1  0  0  3  0  0  0  0  0  0
   46.8190   32.8060   46.4440 C   0  0  2  0  0  3  0  0  0  0  0  0
   45.5030   33.2190   46.5600 O   0  0  0  0  0  0  0  0  0  0  0  0
   44.9320   33.0030   47.7950 C   0  0  0  0  0  2  0  0  0  0  0  0
   45.2300   31.6840   48.4220 C   0  0  1  0  0  3  0  0  0  0  0  0
   45.6960   30.7490   47.3270 C   0  0  2  0  0  3  0  0  0  0  0  0
   47.3440   30.6010   45.6660 O   0  0  0  0  0  0  0  0  0  0  0  0
   46.5940   30.2470   45.1480 H   0  0  0  0  0  0  0  0  0  0  0  0
   46.2480   31.8070   49.3690 O   0  0  0  0  0  0  0  0  0  0  0  0
   46.1490   32.6350   49.8920 H   0  0  0  0  0  0  0  0  0  0  0  0
   45.9280   29.4660   47.7760 O   0  0  0  0  0  0  0  0  0  0  0  0
   45.1360   29.1750   48.2970 H   0  0  0  0  0  0  0  0  0  0  0  0
  1  3  1  0  0  0  0
  1 19  1  0  0  0  0
  2  1  1  0  0  0  0
  4  5  2  0  0  0  0
  5  1  1  0  0  0  0
  6  7  1  0  0  0  0
  6  4  1  0  0  0  0
  7  8  1  0  0  0  0
  9  7  1  0  0  0  0
 10 16  1  0  0  0  0
 11  7  1  0  0  0  0
 11 10  2  0  0  0  0
 12 11  1  0  0  0  0
 13 12  2  0  0  0  0
 13 14  1  0  0  0  0
 14 15  2  0  0  0  0
 15 10  1  0  0  0  0
 17 12  1  0  0  0  0
 18 14  1  0  0  0  0
 21 20  2  6  0  0  0
 21 19  1  0  0  0  0
 21 24  1  0  0  0  0
 22 23  1  0  0  0  0
 22 21  1  0  0  0  0
 25 31  1  6  0  0  0
 25 30  1  0  0  0  0
 26 24  1  6  0  0  0
 26 27  1  0  0  0  0
 26 25  1  0  0  0  0
 27 28  1  0  0  0  0
 28 29  1  0  0  0  0
 29 33  1  1  0  0  0
 30 35  1  1  0  0  0
 30 29  1  0  0  0  0
 32 31  1  0  0  0  0
 33 34  1  0  0  0  0
 35 36  1  0  0  0  0
M  END
>  <minimizedAffinity>
-5.36028481

>  <minimizedRMSD>
2.26872134

$$$$
