
 OpenBabel03252509003D

 48 50  0  0  1  0  0  0  0  0999 V2000
   47.1770   34.0980   43.0290 N   0  0  0  0  0  0  0  0  0  0  0  0
   46.7640   35.3890   42.6100 C   0  0  0  0  0  0  0  0  0  0  0  0
   45.3050   35.7100   42.8520 C   0  0  0  0  0  0  0  0  0  0  0  0
   44.7190   35.0670   44.0740 C   0  0  0  0  0  0  0  0  0  0  0  0
   45.7650   34.3150   44.8640 C   0  0  0  0  0  0  0  0  0  0  0  0
   46.3520   33.3060   43.8130 C   0  0  2  0  0  0  0  0  0  0  0  0
   46.9730   35.6490   41.5690 H   0  0  0  0  0  0  0  0  0  0  0  0
   47.3470   36.1380   43.2210 H   0  0  0  0  0  0  0  0  0  0  0  0
   44.7240   35.4760   41.9260 H   0  0  0  0  0  0  0  0  0  0  0  0
   45.1920   36.8190   42.9610 H   0  0  0  0  0  0  0  0  0  0  0  0
   44.1540   35.7890   44.7100 H   0  0  0  0  0  0  0  0  0  0  0  0
   43.9770   34.3120   43.7370 H   0  0  0  0  0  0  0  0  0  0  0  0
   46.5630   34.9390   45.2700 H   0  0  0  0  0  0  0  0  0  0  0  0
   45.2280   33.6840   45.5860 H   0  0  0  0  0  0  0  0  0  0  0  0
   45.4700   32.8280   43.3520 H   0  0  0  0  0  0  0  0  0  0  0  0
   48.1090   33.4630   42.1440 C   0  0  0  0  0  0  0  0  0  0  0  0
   48.8110   34.2210   41.7760 H   0  0  0  0  0  0  0  0  0  0  0  0
   48.6820   32.7170   42.7510 H   0  0  0  0  0  0  0  0  0  0  0  0
   47.3470   32.7250   41.0870 C   0  0  0  0  0  0  0  0  0  0  0  0
   46.3000   33.0890   41.0320 H   0  0  0  0  0  0  0  0  0  0  0  0
   47.2900   31.6480   41.2540 H   0  0  0  0  0  0  0  0  0  0  0  0
   49.3400   32.3130   37.9300 C   0  0  0  0  0  0  0  0  0  0  0  0
   48.7600   32.0550   39.1870 C   0  0  0  0  0  0  0  0  0  0  0  0
   47.9530   33.0100   39.7600 C   0  0  0  0  0  0  0  0  0  0  0  0
   47.7590   34.1510   39.0800 N   0  0  0  0  0  0  0  0  0  0  0  0
   48.3190   34.3840   37.8830 C   0  0  0  0  0  0  0  0  0  0  0  0
   49.1070   33.4790   37.2980 N   0  0  0  0  0  0  0  0  0  0  0  0
   49.9540   31.5160   37.5580 H   0  0  0  0  0  0  0  0  0  0  0  0
   48.9380   31.1220   39.7060 H   0  0  0  0  0  0  0  0  0  0  0  0
   48.0660   35.3550   37.4600 H   0  0  0  0  0  0  0  0  0  0  0  0
   47.0860   32.4490   44.6260 O   0  0  0  0  0  0  0  0  0  0  0  0
   45.3050   30.6700   43.7740 O   0  0  0  0  0  0  0  0  0  0  0  0
   46.3100   30.9750   44.8780 P   0  0  2  0  0  0  0  0  0  0  0  0
   45.3710   31.1730   46.2950 O   0  0  0  0  0  0  0  0  0  0  0  0
   44.4760   31.5260   46.0550 H   0  0  0  0  0  0  0  0  0  0  0  0
   47.3640   29.7160   45.1430 O   0  0  0  0  0  0  0  0  0  0  0  0
   48.7050   29.3730   43.2520 C   0  0  2  0  0  3  0  0  0  0  0  0
   48.6460   29.9230   44.6760 C   0  0  2  0  0  3  0  0  0  0  0  0
   49.5290   29.2400   45.5100 O   0  0  0  0  0  0  0  0  0  0  0  0
   50.7940   29.1400   44.9350 C   0  0  0  0  0  2  0  0  0  0  0  0
   50.8100   28.2430   43.7220 C   0  0  1  0  0  3  0  0  0  0  0  0
   49.3600   28.0140   43.3120 C   0  0  1  0  0  3  0  0  0  0  0  0
   49.4490   30.2780   42.4760 O   0  0  0  0  0  0  0  0  0  0  0  0
   49.6620   31.1100   43.0010 H   0  0  0  0  0  0  0  0  0  0  0  0
   51.4860   28.8580   42.6510 O   0  0  0  0  0  0  0  0  0  0  0  0
   51.1640   28.3810   41.8420 H   0  0  0  0  0  0  0  0  0  0  0  0
   48.7830   27.3140   44.3810 O   0  0  0  0  0  0  0  0  0  0  0  0
   48.2180   26.5630   44.0680 H   0  0  0  0  0  0  0  0  0  0  0  0
  1  6  1  0  0  0  0
  2  3  1  0  0  0  0
  2  1  1  0  0  0  0
  2  8  1  0  0  0  0
  3 10  1  0  0  0  0
  3  4  1  0  0  0  0
  4 11  1  0  0  0  0
  4  5  1  0  0  0  0
  5 13  1  0  0  0  0
  5 14  1  0  0  0  0
  6 15  1  6  0  0  0
  6 31  1  0  0  0  0
  6  5  1  0  0  0  0
  7  2  1  0  0  0  0
  9  3  1  0  0  0  0
 12  4  1  0  0  0  0
 16 18  1  0  0  0  0
 16  1  1  0  0  0  0
 17 16  1  0  0  0  0
 19 21  1  0  0  0  0
 19 16  1  0  0  0  0
 20 19  1  0  0  0  0
 22 23  1  0  0  0  0
 23 29  1  0  0  0  0
 23 24  2  0  0  0  0
 24 19  1  0  0  0  0
 25 24  1  0  0  0  0
 26 25  2  0  0  0  0
 27 26  1  0  0  0  0
 27 22  2  0  0  0  0
 28 22  1  0  0  0  0
 30 26  1  0  0  0  0
 31 33  1  0  0  0  0
 33 32  2  6  0  0  0
 33 36  1  0  0  0  0
 33 34  1  0  0  0  0
 35 34  1  0  0  0  0
 37 43  1  6  0  0  0
 37 42  1  0  0  0  0
 37 38  1  0  0  0  0
 38 36  1  1  0  0  0
 38 39  1  0  0  0  0
 40 39  1  0  0  0  0
 41 45  1  6  0  0  0
 41 40  1  0  0  0  0
 42 41  1  0  0  0  0
 42 47  1  1  0  0  0
 43 44  1  0  0  0  0
 46 45  1  0  0  0  0
 48 47  1  0  0  0  0
M  END
>  <minimizedAffinity>
-3.95042682

>  <minimizedRMSD>
1.06399405

$$$$
