
 OpenBabel03242522503D

 29 30  0  0  1  0  0  0  0  0999 V2000
   47.2630   31.6800   48.1750 O   0  0  0  0  0  0  0  0  0  0  0  0
   44.8460   30.8380   47.6300 O   0  0  0  0  0  0  0  0  0  0  0  0
   45.6410   31.9220   48.3920 P   0  0  1  0  0  0  0  0  0  0  0  0
   45.1930   31.7640   50.0040 O   0  0  0  0  0  0  0  0  0  0  0  0
   44.7100   32.5490   50.3680 H   0  0  0  0  0  0  0  0  0  0  0  0
   45.1830   33.4320   47.7980 O   0  0  0  0  0  0  0  0  0  0  0  0
   46.6670   33.4080   44.4820 C   0  0  0  0  0  0  0  0  0  0  0  0
   46.3940   33.0850   45.8230 C   0  0  0  0  0  0  0  0  0  0  0  0
   45.4130   33.7840   46.4850 C   0  0  0  0  0  0  0  0  0  0  0  0
   44.7570   34.7510   45.8040 N   0  0  0  0  0  0  0  0  0  0  0  0
   45.0130   35.0620   44.5280 C   0  0  0  0  0  0  0  0  0  0  0  0
   45.9810   34.3790   43.8610 N   0  0  0  0  0  0  0  0  0  0  0  0
   47.4170   32.9180   43.8760 H   0  0  0  0  0  0  0  0  0  0  0  0
   47.0180   32.2980   46.1600 H   0  0  0  0  0  0  0  0  0  0  0  0
   44.4750   35.8340   44.0170 H   0  0  0  0  0  0  0  0  0  0  0  0
   47.9630   30.6060   47.7420 C   0  0  0  0  0  0  0  0  0  0  0  0
   49.0880   30.4680   48.3370 O   0  0  0  0  0  0  0  0  0  0  0  0
   47.7220   29.3520   45.6200 C   0  0  2  0  0  3  0  0  0  0  0  0
   48.3500   29.3920   46.9970 C   0  0  2  0  0  3  0  0  0  0  0  0
   48.0960   28.2350   47.7210 O   0  0  0  0  0  0  0  0  0  0  0  0
   46.9280   27.5890   47.3960 C   0  0  0  0  0  2  0  0  0  0  0  0
   46.7810   27.1800   45.9650 C   0  0  2  0  0  3  0  0  0  0  0  0
   47.8610   27.9010   45.1770 C   0  0  1  0  0  3  0  0  0  0  0  0
   48.4420   30.1910   44.7370 O   0  0  0  0  0  0  0  0  0  0  0  0
   49.0970   29.6360   44.2390 H   0  0  0  0  0  0  0  0  0  0  0  0
   45.5650   27.6740   45.4440 O   0  0  0  0  0  0  0  0  0  0  0  0
   44.8000   27.4610   46.0210 H   0  0  0  0  0  0  0  0  0  0  0  0
   47.6850   27.7430   43.8120 O   0  0  0  0  0  0  0  0  0  0  0  0
   47.5690   28.6020   43.3650 H   0  0  0  0  0  0  0  0  0  0  0  0
  1  3  1  0  0  0  0
  3  2  2  6  0  0  0
  3  4  1  0  0  0  0
  4  5  1  0  0  0  0
  6  3  1  0  0  0  0
  7  8  1  0  0  0  0
  8 14  1  0  0  0  0
  8  9  2  0  0  0  0
  9  6  1  0  0  0  0
 10  9  1  0  0  0  0
 11 10  2  0  0  0  0
 12  7  2  0  0  0  0
 12 11  1  0  0  0  0
 13  7  1  0  0  0  0
 15 11  1  0  0  0  0
 16  1  1  0  0  0  0
 16 17  2  0  0  0  0
 18 24  1  6  0  0  0
 18 19  1  0  0  0  0
 19 20  1  0  0  0  0
 19 16  1  1  0  0  0
 21 20  1  0  0  0  0
 22 26  1  6  0  0  0
 22 21  1  0  0  0  0
 23 28  1  6  0  0  0
 23 18  1  0  0  0  0
 23 22  1  0  0  0  0
 25 24  1  0  0  0  0
 26 27  1  0  0  0  0
 29 28  1  0  0  0  0
M  END
>  <minimizedAffinity>
-4.25013876

>  <minimizedRMSD>
1.95514619

$$$$
