
 OpenBabel03252508003D

 32 34  0  0  1  0  0  0  0  0999 V2000
   46.6550   34.6410   43.1400 C   0  0  0  0  0  0  0  0  0  0  0  0
   45.5920   35.5840   43.3000 C   0  0  0  0  0  0  0  0  0  0  0  0
   44.7700   35.4150   44.4200 C   0  0  0  0  0  0  0  0  0  0  0  0
   45.0300   34.3900   45.2630 N   0  0  0  0  0  0  0  0  0  0  0  0
   46.0720   33.5180   45.0430 C   0  0  0  0  0  0  0  0  0  0  0  0
   46.8740   33.6360   44.0020 N   0  0  0  0  0  0  0  0  0  0  0  0
   45.4440   36.3820   42.5860 H   0  0  0  0  0  0  0  0  0  0  0  0
   43.9540   36.0920   44.5970 H   0  0  0  0  0  0  0  0  0  0  0  0
   46.3050   32.4220   46.0320 C   0  0  1  0  0  0  0  0  0  0  0  0
   47.0170   32.7430   47.3270 C   0  0  0  0  0  0  0  0  0  0  0  0
   45.5250   32.5570   47.2790 C   0  0  1  0  0  0  0  0  0  0  0  0
   46.5110   31.4080   45.6500 H   0  0  0  0  0  0  0  0  0  0  0  0
   47.4460   33.7750   47.3410 H   0  0  0  0  0  0  0  0  0  0  0  0
   47.6700   31.9830   47.7650 H   0  0  0  0  0  0  0  0  0  0  0  0
   45.1780   31.6850   47.8580 H   0  0  0  0  0  0  0  0  0  0  0  0
   44.8000   33.7740   47.5600 N   0  0  0  0  0  0  0  0  0  0  0  0
   45.3430   34.6150   47.6990 H   0  0  0  0  0  0  0  0  0  0  0  0
   43.8380   33.8150   47.2520 H   0  0  0  0  0  0  0  0  0  0  0  0
   47.4770   34.8690   41.9770 C   0  0  0  0  0  0  0  0  0  0  0  0
   48.4320   35.7240   41.9500 O   0  0  0  0  0  0  0  0  0  0  0  0
   47.7840   32.7170   40.9500 C   0  0  1  0  0  3  0  0  0  0  0  0
   47.2860   34.1260   40.6970 C   0  0  2  0  0  3  0  0  0  0  0  0
   48.0500   34.7830   39.7390 O   0  0  0  0  0  0  0  0  0  0  0  0
   48.1360   34.0790   38.5500 C   0  0  0  0  0  2  0  0  0  0  0  0
   48.7690   32.7260   38.7120 C   0  0  1  0  0  3  0  0  0  0  0  0
   47.9480   31.9310   39.6860 C   0  0  1  0  0  3  0  0  0  0  0  0
   49.0090   32.7690   41.6100 O   0  0  0  0  0  0  0  0  0  0  0  0
   49.7650   32.9950   41.0070 H   0  0  0  0  0  0  0  0  0  0  0  0
   48.6680   32.0640   37.4800 O   0  0  0  0  0  0  0  0  0  0  0  0
   49.5290   31.6390   37.2460 H   0  0  0  0  0  0  0  0  0  0  0  0
   48.6710   30.7690   40.0410 O   0  0  0  0  0  0  0  0  0  0  0  0
   49.2720   30.9490   40.8170 H   0  0  0  0  0  0  0  0  0  0  0  0
  1  2  2  0  0  0  0
  1  6  1  0  0  0  0
  2  3  1  0  0  0  0
  3  8  1  0  0  0  0
  3  4  2  0  0  0  0
  5  4  1  0  0  0  0
  5  9  1  0  0  0  0
  6  5  2  0  0  0  0
  7  2  1  0  0  0  0
  9 12  1  6  0  0  0
  9 11  1  0  0  0  0
  9 10  1  0  0  0  0
 10 13  1  0  0  0  0
 10 14  1  0  0  0  0
 11 10  1  0  0  0  0
 11 16  1  0  0  0  0
 11 15  1  1  0  0  0
 16 17  1  0  0  0  0
 18 16  1  0  0  0  0
 19  1  1  0  0  0  0
 20 19  2  0  0  0  0
 21 27  1  6  0  0  0
 22 21  1  0  0  0  0
 22 19  1  1  0  0  0
 23 22  1  0  0  0  0
 24 25  1  0  0  0  0
 24 23  1  0  0  0  0
 25 29  1  6  0  0  0
 25 26  1  0  0  0  0
 26 31  1  1  0  0  0
 26 21  1  0  0  0  0
 28 27  1  0  0  0  0
 30 29  1  0  0  0  0
 31 32  1  0  0  0  0
M  END
>  <minimizedAffinity>
-5.84330273

>  <minimizedRMSD>
1.35005116

$$$$
