
 OpenBabel03252505433D

 45 48  0  0  1  0  0  0  0  0999 V2000
   42.6950   34.8690   40.2320 C   0  0  0  0  0  0  0  0  0  0  0  0
   42.5390   35.3050   38.9380 C   0  0  0  0  0  0  0  0  0  0  0  0
   41.3540   35.2150   38.2560 C   0  0  0  0  0  0  0  0  0  0  0  0
   40.2950   34.6660   38.9030 N   0  0  0  0  0  0  0  0  0  0  0  0
   40.4340   34.2270   40.1880 C   0  0  0  0  0  0  0  0  0  0  0  0
   41.6080   34.3230   40.8480 N   0  0  0  0  0  0  0  0  0  0  0  0
   43.3750   35.7360   38.4290 H   0  0  0  0  0  0  0  0  0  0  0  0
   41.2350   35.5620   37.2310 H   0  0  0  0  0  0  0  0  0  0  0  0
   43.9710   34.6310   42.3390 C   0  0  1  0  0  0  0  0  0  0  0  0
   44.1910   36.1250   41.9200 C   0  0  0  0  0  0  0  0  0  0  0  0
   44.0250   34.9620   40.9460 C   0  0  2  0  0  0  0  0  0  0  0  0
   42.9820   34.5180   42.8630 H   0  0  0  0  0  0  0  0  0  0  0  0
   45.2090   36.5250   42.0680 H   0  0  0  0  0  0  0  0  0  0  0  0
   43.3260   36.7970   41.9750 H   0  0  0  0  0  0  0  0  0  0  0  0
   44.8540   34.8530   40.2500 H   0  0  0  0  0  0  0  0  0  0  0  0
   45.0990   34.0570   43.1030 C   0  0  0  0  0  0  0  0  0  0  0  0
   46.3300   33.9050   42.4300 C   0  0  0  0  0  0  0  0  0  0  0  0
   47.4060   33.3700   43.1240 C   0  0  0  0  0  0  0  0  0  0  0  0
   47.2160   33.0210   44.4230 N   0  0  0  0  0  0  0  0  0  0  0  0
   46.0360   33.1800   45.0270 C   0  0  0  0  0  0  0  0  0  0  0  0
   45.0070   33.6950   44.3480 N   0  0  0  0  0  0  0  0  0  0  0  0
   46.4260   34.2050   41.3840 H   0  0  0  0  0  0  0  0  0  0  0  0
   48.3850   33.2340   42.6380 H   0  0  0  0  0  0  0  0  0  0  0  0
   46.0310   32.7360   46.4640 C   0  0  0  0  0  0  0  0  0  0  0  0
   45.0610   33.4050   47.1960 F   0  0  0  0  0  0  0  0  0  0  0  0
   47.2670   33.0940   47.0520 F   0  0  0  0  0  0  0  0  0  0  0  0
   45.9390   31.3730   46.5310 F   0  0  0  0  0  0  0  0  0  0  0  0
   39.3040   33.6200   40.9160 C   0  0  0  0  0  0  0  0  0  0  0  0
   38.7480   34.4780   41.3900 H   0  0  0  0  0  0  0  0  0  0  0  0
   39.6420   32.9410   41.6960 H   0  0  0  0  0  0  0  0  0  0  0  0
   38.3280   32.9590   39.9860 C   0  0  0  0  0  0  0  0  0  0  0  0
   37.3450   32.8040   40.4520 H   0  0  0  0  0  0  0  0  0  0  0  0
   38.2340   33.6110   39.0710 H   0  0  0  0  0  0  0  0  0  0  0  0
   37.9240   30.5000   39.9750 C   0  0  1  0  0  3  0  0  0  0  0  0
   38.8190   31.6320   39.5150 C   0  0  1  0  0  3  0  0  0  0  0  0
   39.1110   31.5220   38.1860 O   0  0  0  0  0  0  0  0  0  0  0  0
   38.7850   30.2880   37.6370 C   0  0  0  0  0  2  0  0  0  0  0  0
   39.2360   29.1260   38.4580 C   0  0  2  0  0  3  0  0  0  0  0  0
   38.7340   29.2260   39.8650 C   0  0  2  0  0  3  0  0  0  0  0  0
   37.4760   30.7370   41.2720 O   0  0  0  0  0  0  0  0  0  0  0  0
   36.4930   30.5760   41.2650 H   0  0  0  0  0  0  0  0  0  0  0  0
   40.6030   28.8830   38.3550 O   0  0  0  0  0  0  0  0  0  0  0  0
   41.0930   29.0140   39.2070 H   0  0  0  0  0  0  0  0  0  0  0  0
   38.0070   28.1150   40.2870 O   0  0  0  0  0  0  0  0  0  0  0  0
   38.1190   28.0460   41.2850 H   0  0  0  0  0  0  0  0  0  0  0  0
  1  6  1  0  0  0  0
  1 11  1  0  0  0  0
  2  1  2  0  0  0  0
  3  4  2  0  0  0  0
  3  2  1  0  0  0  0
  4  5  1  0  0  0  0
  5  6  2  0  0  0  0
  5 28  1  0  0  0  0
  7  2  1  0  0  0  0
  8  3  1  0  0  0  0
  9 12  1  1  0  0  0
  9 16  1  0  0  0  0
 10 14  1  0  0  0  0
 10 13  1  0  0  0  0
 10  9  1  0  0  0  0
 11 15  1  6  0  0  0
 11 10  1  0  0  0  0
 11  9  1  0  0  0  0
 16 21  1  0  0  0  0
 17 16  2  0  0  0  0
 17 18  1  0  0  0  0
 18 19  2  0  0  0  0
 19 20  1  0  0  0  0
 20 24  1  0  0  0  0
 21 20  2  0  0  0  0
 22 17  1  0  0  0  0
 23 18  1  0  0  0  0
 24 27  1  0  0  0  0
 24 26  1  0  0  0  0
 24 25  1  0  0  0  0
 28 29  1  0  0  0  0
 28 30  1  0  0  0  0
 31 32  1  0  0  0  0
 31 28  1  0  0  0  0
 33 31  1  0  0  0  0
 34 40  1  1  0  0  0
 35 34  1  0  0  0  0
 35 31  1  6  0  0  0
 36 35  1  0  0  0  0
 37 36  1  0  0  0  0
 37 38  1  0  0  0  0
 38 42  1  1  0  0  0
 38 39  1  0  0  0  0
 39 34  1  0  0  0  0
 39 44  1  6  0  0  0
 41 40  1  0  0  0  0
 42 43  1  0  0  0  0
 44 45  1  0  0  0  0
M  END
>  <minimizedAffinity>
-5.86074257

>  <minimizedRMSD>
1.06066751

$$$$
