
 OpenBabel03252509003D

 48 50  0  0  1  0  0  0  0  0999 V2000
   46.9210   34.3240   43.3190 N   0  0  0  0  0  0  0  0  0  0  0  0
   46.5010   35.5430   42.7280 C   0  0  0  0  0  0  0  0  0  0  0  0
   45.0240   35.8470   42.8560 C   0  0  0  0  0  0  0  0  0  0  0  0
   44.3890   35.3360   44.1160 C   0  0  0  0  0  0  0  0  0  0  0  0
   45.4080   34.7150   45.0410 C   0  0  0  0  0  0  0  0  0  0  0  0
   46.0750   33.6070   44.1510 C   0  0  2  0  0  0  0  0  0  0  0  0
   46.7590   35.6830   41.6760 H   0  0  0  0  0  0  0  0  0  0  0  0
   47.0330   36.3760   43.2740 H   0  0  0  0  0  0  0  0  0  0  0  0
   44.4980   35.4870   41.9370 H   0  0  0  0  0  0  0  0  0  0  0  0
   44.8790   36.9570   42.8250 H   0  0  0  0  0  0  0  0  0  0  0  0
   43.7740   36.1130   44.6310 H   0  0  0  0  0  0  0  0  0  0  0  0
   43.6840   34.5260   43.8350 H   0  0  0  0  0  0  0  0  0  0  0  0
   46.1690   35.4070   45.4100 H   0  0  0  0  0  0  0  0  0  0  0  0
   44.8490   34.1590   45.8070 H   0  0  0  0  0  0  0  0  0  0  0  0
   45.2300   33.0510   43.7060 H   0  0  0  0  0  0  0  0  0  0  0  0
   47.9130   33.6160   42.5650 C   0  0  0  0  0  0  0  0  0  0  0  0
   48.6120   34.3460   42.1380 H   0  0  0  0  0  0  0  0  0  0  0  0
   48.4760   32.9710   43.2860 H   0  0  0  0  0  0  0  0  0  0  0  0
   47.2270   32.7270   41.5750 C   0  0  0  0  0  0  0  0  0  0  0  0
   46.1550   33.0000   41.4810 H   0  0  0  0  0  0  0  0  0  0  0  0
   47.2540   31.6690   41.8380 H   0  0  0  0  0  0  0  0  0  0  0  0
   49.2610   32.1810   38.4660 C   0  0  0  0  0  0  0  0  0  0  0  0
   48.6890   31.9910   39.7370 C   0  0  0  0  0  0  0  0  0  0  0  0
   47.8250   32.9410   40.2310 C   0  0  0  0  0  0  0  0  0  0  0  0
   47.5720   34.0120   39.4630 N   0  0  0  0  0  0  0  0  0  0  0  0
   48.1260   34.1810   38.2520 C   0  0  0  0  0  0  0  0  0  0  0  0
   48.9680   33.2780   37.7420 N   0  0  0  0  0  0  0  0  0  0  0  0
   49.9220   31.3930   38.1590 H   0  0  0  0  0  0  0  0  0  0  0  0
   48.9150   31.1140   40.3290 H   0  0  0  0  0  0  0  0  0  0  0  0
   47.8220   35.0990   37.7520 H   0  0  0  0  0  0  0  0  0  0  0  0
   46.7840   32.8740   45.0970 O   0  0  0  0  0  0  0  0  0  0  0  0
   45.2790   30.9300   44.0890 O   0  0  0  0  0  0  0  0  0  0  0  0
   46.2670   31.2750   45.1960 P   0  0  2  0  0  0  0  0  0  0  0  0
   45.3680   31.1590   46.6480 O   0  0  0  0  0  0  0  0  0  0  0  0
   44.4190   31.3840   46.4720 H   0  0  0  0  0  0  0  0  0  0  0  0
   47.5200   30.1850   45.2900 O   0  0  0  0  0  0  0  0  0  0  0  0
   48.4220   28.2930   44.2440 C   0  0  2  0  0  3  0  0  0  0  0  0
   48.0090   29.7540   44.0740 C   0  0  2  0  0  3  0  0  0  0  0  0
   49.1080   30.5450   43.7410 O   0  0  0  0  0  0  0  0  0  0  0  0
   49.8400   29.9820   42.6990 C   0  0  0  0  0  2  0  0  0  0  0  0
   50.5320   28.7030   43.1000 C   0  0  1  0  0  3  0  0  0  0  0  0
   49.9210   28.2570   44.4230 C   0  0  1  0  0  3  0  0  0  0  0  0
   48.0170   27.6000   43.0890 O   0  0  0  0  0  0  0  0  0  0  0  0
   47.4630   28.1900   42.4920 H   0  0  0  0  0  0  0  0  0  0  0  0
   50.3180   27.6940   42.1440 O   0  0  0  0  0  0  0  0  0  0  0  0
   50.5000   26.8460   42.6270 H   0  0  0  0  0  0  0  0  0  0  0  0
   50.2600   29.2600   45.3430 O   0  0  0  0  0  0  0  0  0  0  0  0
   50.5680   28.8820   46.2040 H   0  0  0  0  0  0  0  0  0  0  0  0
  1  6  1  0  0  0  0
  2  3  1  0  0  0  0
  2  8  1  0  0  0  0
  2  1  1  0  0  0  0
  3  4  1  0  0  0  0
  4 11  1  0  0  0  0
  4  5  1  0  0  0  0
  5 13  1  0  0  0  0
  5 14  1  0  0  0  0
  6 15  1  6  0  0  0
  6  5  1  0  0  0  0
  6 31  1  0  0  0  0
  7  2  1  0  0  0  0
  9  3  1  0  0  0  0
 10  3  1  0  0  0  0
 12  4  1  0  0  0  0
 16 18  1  0  0  0  0
 16  1  1  0  0  0  0
 17 16  1  0  0  0  0
 19 21  1  0  0  0  0
 19 16  1  0  0  0  0
 20 19  1  0  0  0  0
 22 23  1  0  0  0  0
 23 24  2  0  0  0  0
 23 29  1  0  0  0  0
 24 19  1  0  0  0  0
 25 24  1  0  0  0  0
 26 25  2  0  0  0  0
 27 26  1  0  0  0  0
 27 22  2  0  0  0  0
 28 22  1  0  0  0  0
 30 26  1  0  0  0  0
 31 33  1  0  0  0  0
 33 32  2  6  0  0  0
 33 36  1  0  0  0  0
 33 34  1  0  0  0  0
 35 34  1  0  0  0  0
 37 43  1  6  0  0  0
 37 42  1  0  0  0  0
 38 37  1  0  0  0  0
 38 36  1  1  0  0  0
 39 38  1  0  0  0  0
 40 41  1  0  0  0  0
 40 39  1  0  0  0  0
 41 45  1  6  0  0  0
 41 42  1  0  0  0  0
 42 47  1  1  0  0  0
 44 43  1  0  0  0  0
 45 46  1  0  0  0  0
 47 48  1  0  0  0  0
M  END
>  <minimizedAffinity>
-3.89400363

>  <minimizedRMSD>
0.999033809

$$$$
