
 OpenBabel03242521443D

 41 43  0  0  1  0  0  0  0  0999 V2000
   45.1980   35.8010   44.1240 C   0  0  0  0  0  0  0  0  0  0  0  0
   46.1490   35.0210   43.4680 C   0  0  0  0  0  0  0  0  0  0  0  0
   46.6100   33.8390   44.0730 C   0  0  0  0  0  0  0  0  0  0  0  0
   46.0960   33.5290   45.2690 N   0  0  0  0  0  0  0  0  0  0  0  0
   45.1730   34.2980   45.8910 C   0  0  0  0  0  0  0  0  0  0  0  0
   44.7220   35.4340   45.3240 N   0  0  0  0  0  0  0  0  0  0  0  0
   46.4930   35.3630   42.5110 H   0  0  0  0  0  0  0  0  0  0  0  0
   44.8150   33.9720   46.8530 H   0  0  0  0  0  0  0  0  0  0  0  0
   48.6130   33.8710   42.6130 C   0  0  2  0  0  0  0  0  0  0  0  0
   47.6030   33.0590   43.3460 C   0  0  2  0  0  0  0  0  0  0  0  0
   47.0580   32.2830   42.2820 O   0  0  0  0  0  0  0  0  0  0  0  0
   48.1970   31.7630   41.7020 C   0  0  0  0  0  0  0  0  0  0  0  0
   49.3400   32.7130   41.8960 C   0  0  1  0  0  0  0  0  0  0  0  0
   48.1850   34.4550   41.7700 H   0  0  0  0  0  0  0  0  0  0  0  0
   48.0740   32.3220   43.9960 H   0  0  0  0  0  0  0  0  0  0  0  0
   48.0350   31.4550   40.6530 H   0  0  0  0  0  0  0  0  0  0  0  0
   48.4530   30.8310   42.2590 H   0  0  0  0  0  0  0  0  0  0  0  0
   50.1470   32.3370   42.5370 H   0  0  0  0  0  0  0  0  0  0  0  0
   49.4170   34.6370   43.3980 O   0  0  0  0  0  0  0  0  0  0  0  0
   50.2720   34.8550   42.9150 H   0  0  0  0  0  0  0  0  0  0  0  0
   49.8970   33.1970   40.7180 O   0  0  0  0  0  0  0  0  0  0  0  0
   50.5870   32.6120   40.3640 H   0  0  0  0  0  0  0  0  0  0  0  0
   44.7270   37.0680   43.4560 C   0  0  0  0  0  0  0  0  0  0  0  0
   45.2850   37.2260   42.5340 H   0  0  0  0  0  0  0  0  0  0  0  0
   43.6360   36.9690   43.2720 H   0  0  0  0  0  0  0  0  0  0  0  0
   45.2840   39.4820   44.0710 C   0  0  0  0  0  0  0  0  0  0  0  0
   45.4220   39.7750   42.8500 O   0  0  0  0  0  0  0  0  0  0  0  0
   44.9880   38.1440   44.4060 N   0  0  0  0  0  0  0  0  0  0  0  0
   44.9530   37.9040   45.4250 H   0  0  0  0  0  0  0  0  0  0  0  0
   44.6600   41.7630   44.8870 C   0  0  2  0  0  3  0  0  0  0  0  0
   45.4240   40.5040   45.1680 C   0  0  1  0  0  3  0  0  0  0  0  0
   45.1260   39.9490   46.3990 O   0  0  0  0  0  0  0  0  0  0  0  0
   44.2190   40.6310   47.1630 C   0  0  0  0  0  2  0  0  0  0  0  0
   44.5040   42.1050   47.2840 C   0  0  2  0  0  3  0  0  0  0  0  0
   45.0430   42.7110   46.0300 C   0  0  2  0  0  3  0  0  0  0  0  0
   43.2810   41.5960   44.8870 O   0  0  0  0  0  0  0  0  0  0  0  0
   42.8660   42.4900   44.9520 H   0  0  0  0  0  0  0  0  0  0  0  0
   45.4030   42.3890   48.3060 O   0  0  0  0  0  0  0  0  0  0  0  0
   46.1210   41.7050   48.2980 H   0  0  0  0  0  0  0  0  0  0  0  0
   44.4620   43.9350   45.7200 O   0  0  0  0  0  0  0  0  0  0  0  0
   45.1580   44.6560   45.7220 H   0  0  0  0  0  0  0  0  0  0  0  0
  1  6  1  0  0  0  0
  2  3  1  0  0  0  0
  2  1  2  0  0  0  0
  3  4  2  0  0  0  0
  4  5  1  0  0  0  0
  5  8  1  0  0  0  0
  6  5  2  0  0  0  0
  7  2  1  0  0  0  0
  9 14  1  6  0  0  0
  9 10  1  0  0  0  0
  9 19  1  0  0  0  0
 10 15  1  1  0  0  0
 10  3  1  0  0  0  0
 11 10  1  0  0  0  0
 12 13  1  0  0  0  0
 12 17  1  0  0  0  0
 12 11  1  0  0  0  0
 13 18  1  1  0  0  0
 13  9  1  0  0  0  0
 16 12  1  0  0  0  0
 20 19  1  0  0  0  0
 21 13  1  0  0  0  0
 22 21  1  0  0  0  0
 23  1  1  0  0  0  0
 23 28  1  0  0  0  0
 24 23  1  0  0  0  0
 25 23  1  0  0  0  0
 26 28  1  0  0  0  0
 27 26  2  0  0  0  0
 28 29  1  0  0  0  0
 30 36  1  1  0  0  0
 30 31  1  0  0  0  0
 30 35  1  0  0  0  0
 31 26  1  6  0  0  0
 31 32  1  0  0  0  0
 32 33  1  0  0  0  0
 33 34  1  0  0  0  0
 34 38  1  1  0  0  0
 35 40  1  6  0  0  0
 35 34  1  0  0  0  0
 36 37  1  0  0  0  0
 39 38  1  0  0  0  0
 40 41  1  0  0  0  0
M  END
>  <minimizedAffinity>
-2.94600987

>  <minimizedRMSD>
0.595584869

$$$$
