
 OpenBabel03252502253D

 37 39  0  0  1  0  0  0  0  0999 V2000
   36.4140   29.1250   39.9630 N   0  0  0  0  0  0  0  0  0  0  0  0
   34.9760   29.1630   39.7780 C   0  0  0  0  0  0  0  0  0  0  0  0
   34.7650   28.5750   38.3690 C   0  0  0  0  0  0  0  0  0  0  0  0
   35.3290   29.5510   37.3630 C   0  0  0  0  0  0  0  0  0  0  0  0
   36.6470   30.1370   37.7460 C   0  0  0  0  0  0  0  0  0  0  0  0
   37.3150   29.5030   38.9280 C   0  0  1  0  0  0  0  0  0  0  0  0
   34.4190   28.6160   40.5300 H   0  0  0  0  0  0  0  0  0  0  0  0
   34.6930   30.2330   39.6690 H   0  0  0  0  0  0  0  0  0  0  0  0
   35.3670   27.6240   38.3520 H   0  0  0  0  0  0  0  0  0  0  0  0
   33.7110   28.4010   38.1450 H   0  0  0  0  0  0  0  0  0  0  0  0
   35.3340   29.0480   36.3750 H   0  0  0  0  0  0  0  0  0  0  0  0
   34.5700   30.3760   37.2850 H   0  0  0  0  0  0  0  0  0  0  0  0
   36.5360   31.2300   37.9820 H   0  0  0  0  0  0  0  0  0  0  0  0
   37.3010   30.0990   36.8500 H   0  0  0  0  0  0  0  0  0  0  0  0
   37.8070   28.5630   38.5810 H   0  0  0  0  0  0  0  0  0  0  0  0
   37.6070   27.0420   42.8350 C   0  0  0  0  0  0  0  0  0  0  0  0
   37.0280   27.3460   41.5910 C   0  0  0  0  0  0  0  0  0  0  0  0
   36.9780   28.7010   41.2060 C   0  0  0  0  0  0  0  0  0  0  0  0
   37.4920   29.6150   42.0660 N   0  0  0  0  0  0  0  0  0  0  0  0
   38.0410   29.2830   43.2560 C   0  0  0  0  0  0  0  0  0  0  0  0
   38.0930   27.9720   43.6360 N   0  0  0  0  0  0  0  0  0  0  0  0
   37.6510   26.0100   43.1420 H   0  0  0  0  0  0  0  0  0  0  0  0
   36.6250   26.6030   40.9210 H   0  0  0  0  0  0  0  0  0  0  0  0
   38.4420   30.0410   43.9170 H   0  0  0  0  0  0  0  0  0  0  0  0
   38.2480   30.4190   39.4400 O   0  0  0  0  0  0  0  0  0  0  0  0
   37.6950   32.7770   39.6080 C   0  0  2  0  0  3  0  0  0  0  0  0
   38.2280   31.6380   38.8140 C   0  0  1  0  0  3  0  0  0  0  0  0
   39.3930   32.0130   38.1860 O   0  0  0  0  0  0  0  0  0  0  0  0
   40.4330   31.8890   39.1380 C   0  0  0  0  0  2  0  0  0  0  0  0
   40.1000   32.6960   40.3630 C   0  0  1  0  0  3  0  0  0  0  0  0
   38.8750   33.5680   40.1340 C   0  0  2  0  0  3  0  0  0  0  0  0
   36.9530   32.3910   40.7160 O   0  0  0  0  0  0  0  0  0  0  0  0
   36.4930   33.1640   41.0990 H   0  0  0  0  0  0  0  0  0  0  0  0
   39.8850   31.8250   41.4180 O   0  0  0  0  0  0  0  0  0  0  0  0
   39.6780   32.3450   42.2530 H   0  0  0  0  0  0  0  0  0  0  0  0
   38.5130   34.1600   41.3400 O   0  0  0  0  0  0  0  0  0  0  0  0
   37.7730   34.7730   41.1870 H   0  0  0  0  0  0  0  0  0  0  0  0
  1 18  1  0  0  0  0
  2  1  1  0  0  0  0
  2  7  1  0  0  0  0
  3  2  1  0  0  0  0
  4  5  1  0  0  0  0
  4  3  1  0  0  0  0
  5 13  1  0  0  0  0
  5  6  1  0  0  0  0
  6 15  1  6  0  0  0
  6 25  1  0  0  0  0
  6  1  1  0  0  0  0
  8  2  1  0  0  0  0
  9  3  1  0  0  0  0
 10  3  1  0  0  0  0
 11  4  1  0  0  0  0
 12  4  1  0  0  0  0
 14  5  1  0  0  0  0
 16 22  1  0  0  0  0
 16 21  1  0  0  0  0
 17 16  2  0  0  0  0
 18 17  1  0  0  0  0
 18 19  2  0  0  0  0
 19 20  1  0  0  0  0
 20 21  2  0  0  0  0
 20 24  1  0  0  0  0
 23 17  1  0  0  0  0
 26 31  1  0  0  0  0
 26 32  1  1  0  0  0
 27 25  1  1  0  0  0
 27 26  1  0  0  0  0
 28 27  1  0  0  0  0
 28 29  1  0  0  0  0
 29 30  1  0  0  0  0
 30 34  1  1  0  0  0
 31 30  1  0  0  0  0
 31 36  1  1  0  0  0
 32 33  1  0  0  0  0
 34 35  1  0  0  0  0
 37 36  1  0  0  0  0
M  END
>  <minimizedAffinity>
-6.13396692

$$$$

 OpenBabel03252502253D

 37 39  0  0  1  0  0  0  0  0999 V2000
   36.8570   28.3580   40.9260 N   0  0  0  0  0  0  0  0  0  0  0  0
   37.0600   27.0690   41.5580 C   0  0  0  0  0  0  0  0  0  0  0  0
   36.6000   27.2900   43.0130 C   0  0  0  0  0  0  0  0  0  0  0  0
   37.5810   28.2270   43.6790 C   0  0  0  0  0  0  0  0  0  0  0  0
   37.9960   29.3860   42.8340 C   0  0  0  0  0  0  0  0  0  0  0  0
   37.2110   29.5750   41.5710 C   0  0  1  0  0  0  0  0  0  0  0  0
   36.5220   26.2550   41.0860 H   0  0  0  0  0  0  0  0  0  0  0  0
   38.1580   26.9190   41.6420 H   0  0  0  0  0  0  0  0  0  0  0  0
   35.5950   27.7900   42.9330 H   0  0  0  0  0  0  0  0  0  0  0  0
   36.5550   26.3600   43.5810 H   0  0  0  0  0  0  0  0  0  0  0  0
   37.1530   28.5190   44.6590 H   0  0  0  0  0  0  0  0  0  0  0  0
   38.4850   27.6010   43.9110 H   0  0  0  0  0  0  0  0  0  0  0  0
   39.0740   29.2870   42.5350 H   0  0  0  0  0  0  0  0  0  0  0  0
   37.9530   30.2940   43.4700 H   0  0  0  0  0  0  0  0  0  0  0  0
   36.2520   30.0820   41.8360 H   0  0  0  0  0  0  0  0  0  0  0  0
   34.5470   29.0290   38.0580 C   0  0  0  0  0  0  0  0  0  0  0  0
   35.0080   28.9910   39.3850 C   0  0  0  0  0  0  0  0  0  0  0  0
   36.2870   28.4460   39.6180 C   0  0  0  0  0  0  0  0  0  0  0  0
   36.9810   27.9980   38.5430 N   0  0  0  0  0  0  0  0  0  0  0  0
   36.5020   28.0520   37.2790 C   0  0  0  0  0  0  0  0  0  0  0  0
   35.2640   28.5780   37.0460 N   0  0  0  0  0  0  0  0  0  0  0  0
   33.5700   29.4430   37.8650 H   0  0  0  0  0  0  0  0  0  0  0  0
   34.4390   29.3530   40.2270 H   0  0  0  0  0  0  0  0  0  0  0  0
   37.0860   27.6840   36.4450 H   0  0  0  0  0  0  0  0  0  0  0  0
   37.9840   30.3540   40.6950 O   0  0  0  0  0  0  0  0  0  0  0  0
   38.5850   32.6960   40.9290 C   0  0  2  0  0  3  0  0  0  0  0  0
   37.5700   31.6580   40.6020 C   0  0  1  0  0  3  0  0  0  0  0  0
   36.9110   32.0000   39.4440 O   0  0  0  0  0  0  0  0  0  0  0  0
   37.7340   31.5940   38.3660 C   0  0  0  0  0  2  0  0  0  0  0  0
   39.0990   32.2090   38.5080 C   0  0  1  0  0  3  0  0  0  0  0  0
   39.1260   33.2420   39.6240 C   0  0  2  0  0  3  0  0  0  0  0  0
   39.6760   32.2110   41.6360 O   0  0  0  0  0  0  0  0  0  0  0  0
   40.2200   32.9530   41.9670 H   0  0  0  0  0  0  0  0  0  0  0  0
   40.0120   31.1990   38.7600 O   0  0  0  0  0  0  0  0  0  0  0  0
   40.9350   31.5860   38.8410 H   0  0  0  0  0  0  0  0  0  0  0  0
   40.4400   33.6530   39.8240 O   0  0  0  0  0  0  0  0  0  0  0  0
   40.4560   34.3650   40.4880 H   0  0  0  0  0  0  0  0  0  0  0  0
  1  2  1  0  0  0  0
  1  6  1  0  0  0  0
  2  8  1  0  0  0  0
  2  3  1  0  0  0  0
  3 10  1  0  0  0  0
  3  4  1  0  0  0  0
  4 12  1  0  0  0  0
  4 11  1  0  0  0  0
  5 14  1  0  0  0  0
  5  4  1  0  0  0  0
  6 15  1  1  0  0  0
  6  5  1  0  0  0  0
  7  2  1  0  0  0  0
  9  3  1  0  0  0  0
 13  5  1  0  0  0  0
 16 17  1  0  0  0  0
 17 18  2  0  0  0  0
 17 23  1  0  0  0  0
 18  1  1  0  0  0  0
 19 18  1  0  0  0  0
 20 19  2  0  0  0  0
 21 20  1  0  0  0  0
 21 16  2  0  0  0  0
 22 16  1  0  0  0  0
 24 20  1  0  0  0  0
 25  6  1  0  0  0  0
 26 32  1  1  0  0  0
 27 25  1  6  0  0  0
 27 26  1  0  0  0  0
 28 27  1  0  0  0  0
 29 30  1  0  0  0  0
 29 28  1  0  0  0  0
 30 34  1  1  0  0  0
 30 31  1  0  0  0  0
 31 36  1  1  0  0  0
 31 26  1  0  0  0  0
 32 33  1  0  0  0  0
 34 35  1  0  0  0  0
 36 37  1  0  0  0  0
M  END
>  <minimizedAffinity>
-5.50176764

$$$$

 OpenBabel03252502253D

 37 39  0  0  1  0  0  0  0  0999 V2000
   37.7090   31.2140   39.7280 N   0  0  0  0  0  0  0  0  0  0  0  0
   37.3570   32.5800   40.0650 C   0  0  0  0  0  0  0  0  0  0  0  0
   38.6780   33.3580   39.8990 C   0  0  0  0  0  0  0  0  0  0  0  0
   39.6290   32.9060   40.9830 C   0  0  0  0  0  0  0  0  0  0  0  0
   39.6460   31.4300   41.2110 C   0  0  0  0  0  0  0  0  0  0  0  0
   38.9130   30.6130   40.1910 C   0  0  1  0  0  0  0  0  0  0  0  0
   36.5660   32.9970   39.4530 H   0  0  0  0  0  0  0  0  0  0  0  0
   37.1660   32.6040   41.1600 H   0  0  0  0  0  0  0  0  0  0  0  0
   39.0780   33.0510   38.8930 H   0  0  0  0  0  0  0  0  0  0  0  0
   38.5380   34.4370   39.9780 H   0  0  0  0  0  0  0  0  0  0  0  0
   40.6260   33.3340   40.7540 H   0  0  0  0  0  0  0  0  0  0  0  0
   39.2820   33.4170   41.9220 H   0  0  0  0  0  0  0  0  0  0  0  0
   39.1950   31.1830   42.2110 H   0  0  0  0  0  0  0  0  0  0  0  0
   40.7080   31.1170   41.2860 H   0  0  0  0  0  0  0  0  0  0  0  0
   39.5750   30.5060   39.2980 H   0  0  0  0  0  0  0  0  0  0  0  0
   36.1650   29.4240   36.8260 C   0  0  0  0  0  0  0  0  0  0  0  0
   37.0780   30.2260   37.5340 C   0  0  0  0  0  0  0  0  0  0  0  0
   36.8470   30.4200   38.9110 C   0  0  0  0  0  0  0  0  0  0  0  0
   35.7610   29.8180   39.4540 N   0  0  0  0  0  0  0  0  0  0  0  0
   34.9050   29.0530   38.7390 C   0  0  0  0  0  0  0  0  0  0  0  0
   35.1210   28.8610   37.4050 N   0  0  0  0  0  0  0  0  0  0  0  0
   36.3290   29.2680   35.7720 H   0  0  0  0  0  0  0  0  0  0  0  0
   37.9370   30.6960   37.0820 H   0  0  0  0  0  0  0  0  0  0  0  0
   34.0470   28.5880   39.2080 H   0  0  0  0  0  0  0  0  0  0  0  0
   38.6160   29.3680   40.7680 O   0  0  0  0  0  0  0  0  0  0  0  0
   37.6860   29.3050   43.0100 C   0  0  2  0  0  3  0  0  0  0  0  0
   38.8720   29.3050   42.1130 C   0  0  1  0  0  3  0  0  0  0  0  0
   39.7580   28.3320   42.5130 O   0  0  0  0  0  0  0  0  0  0  0  0
   39.2980   27.1080   41.9730 C   0  0  0  0  0  2  0  0  0  0  0  0
   37.8760   26.8660   42.3990 C   0  0  1  0  0  3  0  0  0  0  0  0
   37.4330   27.8760   43.4450 C   0  0  2  0  0  3  0  0  0  0  0  0
   36.5190   29.7430   42.3980 O   0  0  0  0  0  0  0  0  0  0  0  0
   35.8200   29.8820   43.0670 H   0  0  0  0  0  0  0  0  0  0  0  0
   37.0630   26.9390   41.2800 O   0  0  0  0  0  0  0  0  0  0  0  0
   36.1090   26.7630   41.5390 H   0  0  0  0  0  0  0  0  0  0  0  0
   36.0710   27.7160   43.6780 O   0  0  0  0  0  0  0  0  0  0  0  0
   35.7960   28.3110   44.3970 H   0  0  0  0  0  0  0  0  0  0  0  0
  1  2  1  0  0  0  0
  1  6  1  0  0  0  0
  2  8  1  0  0  0  0
  3 10  1  0  0  0  0
  3  2  1  0  0  0  0
  3  4  1  0  0  0  0
  4  5  1  0  0  0  0
  4 12  1  0  0  0  0
  5 14  1  0  0  0  0
  5 13  1  0  0  0  0
  6 15  1  6  0  0  0
  6 25  1  0  0  0  0
  6  5  1  0  0  0  0
  7  2  1  0  0  0  0
  9  3  1  0  0  0  0
 11  4  1  0  0  0  0
 16 21  2  0  0  0  0
 16 17  1  0  0  0  0
 17 18  2  0  0  0  0
 18 19  1  0  0  0  0
 18  1  1  0  0  0  0
 20 24  1  0  0  0  0
 20 19  2  0  0  0  0
 21 20  1  0  0  0  0
 22 16  1  0  0  0  0
 23 17  1  0  0  0  0
 26 32  1  6  0  0  0
 26 31  1  0  0  0  0
 27 25  1  6  0  0  0
 27 28  1  0  0  0  0
 27 26  1  0  0  0  0
 29 30  1  0  0  0  0
 29 28  1  0  0  0  0
 30 34  1  6  0  0  0
 30 31  1  0  0  0  0
 31 36  1  6  0  0  0
 32 33  1  0  0  0  0
 34 35  1  0  0  0  0
 36 37  1  0  0  0  0
M  END
>  <minimizedAffinity>
-5.49016619

$$$$

 OpenBabel03252502253D

 37 39  0  0  1  0  0  0  0  0999 V2000
   37.2580   29.4040   39.4460 N   0  0  0  0  0  0  0  0  0  0  0  0
   35.8250   29.1810   39.4110 C   0  0  0  0  0  0  0  0  0  0  0  0
   35.5910   28.4620   38.0680 C   0  0  0  0  0  0  0  0  0  0  0  0
   35.8750   29.4430   36.9540 C   0  0  0  0  0  0  0  0  0  0  0  0
   37.0990   30.2740   37.1620 C   0  0  0  0  0  0  0  0  0  0  0  0
   37.9760   29.8520   38.3020 C   0  0  1  0  0  0  0  0  0  0  0  0
   35.4470   28.6040   40.2470 H   0  0  0  0  0  0  0  0  0  0  0  0
   35.3470   30.1750   39.2730 H   0  0  0  0  0  0  0  0  0  0  0  0
   36.3480   27.6310   38.0410 H   0  0  0  0  0  0  0  0  0  0  0  0
   34.5690   28.0950   37.9650 H   0  0  0  0  0  0  0  0  0  0  0  0
   35.8770   28.8770   36.0010 H   0  0  0  0  0  0  0  0  0  0  0  0
   34.9780   30.1190   36.9100 H   0  0  0  0  0  0  0  0  0  0  0  0
   36.8180   31.3460   37.3470 H   0  0  0  0  0  0  0  0  0  0  0  0
   37.6620   30.2820   36.2070 H   0  0  0  0  0  0  0  0  0  0  0  0
   38.5930   28.9880   37.9580 H   0  0  0  0  0  0  0  0  0  0  0  0
   38.5890   29.6230   42.9370 C   0  0  0  0  0  0  0  0  0  0  0  0
   37.8010   29.9340   41.8160 C   0  0  0  0  0  0  0  0  0  0  0  0
   38.0030   29.1760   40.6440 C   0  0  0  0  0  0  0  0  0  0  0  0
   38.9430   28.2000   40.6850 N   0  0  0  0  0  0  0  0  0  0  0  0
   39.6810   27.9310   41.7850 C   0  0  0  0  0  0  0  0  0  0  0  0
   39.4920   28.6610   42.9230 N   0  0  0  0  0  0  0  0  0  0  0  0
   38.4450   30.1950   43.8400 H   0  0  0  0  0  0  0  0  0  0  0  0
   37.0570   30.7150   41.8040 H   0  0  0  0  0  0  0  0  0  0  0  0
   40.4240   27.1430   41.7800 H   0  0  0  0  0  0  0  0  0  0  0  0
   38.7750   30.9500   38.6600 O   0  0  0  0  0  0  0  0  0  0  0  0
   40.7100   31.6810   37.3870 C   0  0  2  0  0  3  0  0  0  0  0  0
   40.1090   30.7720   38.4000 C   0  0  1  0  0  3  0  0  0  0  0  0
   40.9320   30.6920   39.5000 O   0  0  0  0  0  0  0  0  0  0  0  0
   40.6640   31.8280   40.3000 C   0  0  0  0  0  2  0  0  0  0  0  0
   40.8400   33.0780   39.4830 C   0  0  1  0  0  3  0  0  0  0  0  0
   41.4570   32.7710   38.1280 C   0  0  2  0  0  3  0  0  0  0  0  0
   39.7770   32.3190   36.5820 O   0  0  0  0  0  0  0  0  0  0  0  0
   40.2240   32.7650   35.8360 H   0  0  0  0  0  0  0  0  0  0  0  0
   39.6020   33.6790   39.3260 O   0  0  0  0  0  0  0  0  0  0  0  0
   39.6980   34.5270   38.7970 H   0  0  0  0  0  0  0  0  0  0  0  0
   41.4410   33.9270   37.3530 O   0  0  0  0  0  0  0  0  0  0  0  0
   41.8980   33.7550   36.5110 H   0  0  0  0  0  0  0  0  0  0  0  0
  1 18  1  0  0  0  0
  2  1  1  0  0  0  0
  2  7  1  0  0  0  0
  3  2  1  0  0  0  0
  4  5  1  0  0  0  0
  4  3  1  0  0  0  0
  5 13  1  0  0  0  0
  5  6  1  0  0  0  0
  6 15  1  6  0  0  0
  6 25  1  0  0  0  0
  6  1  1  0  0  0  0
  8  2  1  0  0  0  0
  9  3  1  0  0  0  0
 10  3  1  0  0  0  0
 11  4  1  0  0  0  0
 12  4  1  0  0  0  0
 14  5  1  0  0  0  0
 16 22  1  0  0  0  0
 17 16  2  0  0  0  0
 18 19  2  0  0  0  0
 18 17  1  0  0  0  0
 19 20  1  0  0  0  0
 20 21  2  0  0  0  0
 21 16  1  0  0  0  0
 23 17  1  0  0  0  0
 24 20  1  0  0  0  0
 26 32  1  1  0  0  0
 26 31  1  0  0  0  0
 26 27  1  0  0  0  0
 27 25  1  1  0  0  0
 27 28  1  0  0  0  0
 28 29  1  0  0  0  0
 30 34  1  6  0  0  0
 30 29  1  0  0  0  0
 31 36  1  6  0  0  0
 31 30  1  0  0  0  0
 33 32  1  0  0  0  0
 35 34  1  0  0  0  0
 37 36  1  0  0  0  0
M  END
>  <minimizedAffinity>
-5.46776438

$$$$

 OpenBabel03252502253D

 37 39  0  0  1  0  0  0  0  0999 V2000
   38.7460   25.3010   41.5110 N   0  0  0  0  0  0  0  0  0  0  0  0
   38.4570   23.9490   41.9510 C   0  0  0  0  0  0  0  0  0  0  0  0
   38.0020   23.2280   40.6660 C   0  0  0  0  0  0  0  0  0  0  0  0
   36.6720   23.8110   40.2460 C   0  0  0  0  0  0  0  0  0  0  0  0
   36.5930   25.2990   40.3460 C   0  0  0  0  0  0  0  0  0  0  0  0
   37.8930   25.9960   40.6100 C   0  0  1  0  0  0  0  0  0  0  0  0
   39.2970   23.4470   42.4180 H   0  0  0  0  0  0  0  0  0  0  0  0
   37.5370   24.0010   42.5720 H   0  0  0  0  0  0  0  0  0  0  0  0
   38.7830   23.4760   39.8950 H   0  0  0  0  0  0  0  0  0  0  0  0
   37.8890   22.1530   40.8110 H   0  0  0  0  0  0  0  0  0  0  0  0
   36.4370   23.4170   39.2370 H   0  0  0  0  0  0  0  0  0  0  0  0
   35.9120   23.3570   40.9390 H   0  0  0  0  0  0  0  0  0  0  0  0
   35.8890   25.6000   41.1680 H   0  0  0  0  0  0  0  0  0  0  0  0
   36.1240   25.6700   39.4110 H   0  0  0  0  0  0  0  0  0  0  0  0
   38.4470   26.0660   39.6430 H   0  0  0  0  0  0  0  0  0  0  0  0
   41.2860   26.9930   43.6780 C   0  0  0  0  0  0  0  0  0  0  0  0
   40.1010   26.3220   43.3320 C   0  0  0  0  0  0  0  0  0  0  0  0
   39.9120   25.9850   41.9760 C   0  0  0  0  0  0  0  0  0  0  0  0
   40.8880   26.3330   41.1030 N   0  0  0  0  0  0  0  0  0  0  0  0
   42.0160   26.9800   41.4760 C   0  0  0  0  0  0  0  0  0  0  0  0
   42.2060   27.3100   42.7870 N   0  0  0  0  0  0  0  0  0  0  0  0
   41.4430   27.2580   44.7120 H   0  0  0  0  0  0  0  0  0  0  0  0
   39.3360   26.0530   44.0430 H   0  0  0  0  0  0  0  0  0  0  0  0
   42.7750   27.2420   40.7490 H   0  0  0  0  0  0  0  0  0  0  0  0
   37.6030   27.2660   41.1350 O   0  0  0  0  0  0  0  0  0  0  0  0
   36.5250   29.1830   40.1060 C   0  0  2  0  0  3  0  0  0  0  0  0
   37.7020   28.2800   40.2180 C   0  0  1  0  0  3  0  0  0  0  0  0
   38.8570   29.0250   40.2650 O   0  0  0  0  0  0  0  0  0  0  0  0
   39.0130   29.4610   41.6020 C   0  0  0  0  0  2  0  0  0  0  0  0
   37.7800   30.2000   42.0430 C   0  0  1  0  0  3  0  0  0  0  0  0
   36.8380   30.4500   40.8750 C   0  0  2  0  0  3  0  0  0  0  0  0
   35.3630   28.6630   40.6580 O   0  0  0  0  0  0  0  0  0  0  0  0
   34.5950   29.2150   40.4110 H   0  0  0  0  0  0  0  0  0  0  0  0
   37.1480   29.4550   43.0250 O   0  0  0  0  0  0  0  0  0  0  0  0
   36.3290   29.9390   43.3460 H   0  0  0  0  0  0  0  0  0  0  0  0
   35.6480   30.9810   41.3620 O   0  0  0  0  0  0  0  0  0  0  0  0
   35.0680   31.2080   40.6140 H   0  0  0  0  0  0  0  0  0  0  0  0
  1  2  1  0  0  0  0
  1 18  1  0  0  0  0
  2  7  1  0  0  0  0
  2  8  1  0  0  0  0
  3 10  1  0  0  0  0
  3  2  1  0  0  0  0
  4  5  1  0  0  0  0
  4  3  1  0  0  0  0
  4 12  1  0  0  0  0
  5  6  1  0  0  0  0
  5 13  1  0  0  0  0
  6 15  1  6  0  0  0
  6 25  1  0  0  0  0
  6  1  1  0  0  0  0
  9  3  1  0  0  0  0
 11  4  1  0  0  0  0
 14  5  1  0  0  0  0
 16 22  1  0  0  0  0
 17 16  1  0  0  0  0
 17 23  1  0  0  0  0
 18 17  2  0  0  0  0
 19 20  2  0  0  0  0
 19 18  1  0  0  0  0
 20 21  1  0  0  0  0
 21 16  2  0  0  0  0
 24 20  1  0  0  0  0
 26 27  1  0  0  0  0
 26 32  1  1  0  0  0
 26 31  1  0  0  0  0
 27 28  1  0  0  0  0
 27 25  1  1  0  0  0
 28 29  1  0  0  0  0
 29 30  1  0  0  0  0
 30 34  1  1  0  0  0
 31 36  1  1  0  0  0
 31 30  1  0  0  0  0
 33 32  1  0  0  0  0
 34 35  1  0  0  0  0
 37 36  1  0  0  0  0
M  END
>  <minimizedAffinity>
-5.43484259

$$$$

 OpenBabel03252502253D

 37 39  0  0  1  0  0  0  0  0999 V2000
   36.5860   28.4160   41.0530 N   0  0  0  0  0  0  0  0  0  0  0  0
   36.9660   27.1410   41.6300 C   0  0  0  0  0  0  0  0  0  0  0  0
   36.7400   27.3340   43.1430 C   0  0  0  0  0  0  0  0  0  0  0  0
   37.7610   28.3270   43.6480 C   0  0  0  0  0  0  0  0  0  0  0  0
   37.9620   29.5090   42.7580 C   0  0  0  0  0  0  0  0  0  0  0  0
   36.9700   29.6520   41.6440 C   0  0  1  0  0  0  0  0  0  0  0  0
   36.4060   26.2960   41.2450 H   0  0  0  0  0  0  0  0  0  0  0  0
   38.0700   27.0570   41.5310 H   0  0  0  0  0  0  0  0  0  0  0  0
   35.7080   27.7730   43.2350 H   0  0  0  0  0  0  0  0  0  0  0  0
   36.8450   26.4020   43.7010 H   0  0  0  0  0  0  0  0  0  0  0  0
   37.4840   28.5930   44.6880 H   0  0  0  0  0  0  0  0  0  0  0  0
   38.7270   27.7570   43.7210 H   0  0  0  0  0  0  0  0  0  0  0  0
   38.9800   29.4750   42.2840 H   0  0  0  0  0  0  0  0  0  0  0  0
   37.9720   30.4130   43.4020 H   0  0  0  0  0  0  0  0  0  0  0  0
   36.0400   30.1000   42.0680 H   0  0  0  0  0  0  0  0  0  0  0  0
   33.8480   29.0660   38.5850 C   0  0  0  0  0  0  0  0  0  0  0  0
   34.5280   29.0680   39.8150 C   0  0  0  0  0  0  0  0  0  0  0  0
   35.8040   28.4710   39.8580 C   0  0  0  0  0  0  0  0  0  0  0  0
   36.2840   27.9370   38.7070 N   0  0  0  0  0  0  0  0  0  0  0  0
   35.5980   27.9550   37.5420 C   0  0  0  0  0  0  0  0  0  0  0  0
   34.3610   28.5320   37.4930 N   0  0  0  0  0  0  0  0  0  0  0  0
   32.8700   29.5190   38.5390 H   0  0  0  0  0  0  0  0  0  0  0  0
   34.1280   29.4980   40.7200 H   0  0  0  0  0  0  0  0  0  0  0  0
   36.0130   27.5190   36.6430 H   0  0  0  0  0  0  0  0  0  0  0  0
   37.5410   30.4760   40.6610 O   0  0  0  0  0  0  0  0  0  0  0  0
   39.6050   30.1610   39.4210 C   0  0  2  0  0  3  0  0  0  0  0  0
   38.9110   30.5070   40.6910 C   0  0  1  0  0  3  0  0  0  0  0  0
   39.4770   31.6340   41.2390 O   0  0  0  0  0  0  0  0  0  0  0  0
   38.9060   32.7470   40.5750 C   0  0  0  0  0  2  0  0  0  0  0  0
   39.1050   32.6110   39.0910 C   0  0  1  0  0  3  0  0  0  0  0  0
   40.0360   31.4550   38.7610 C   0  0  2  0  0  3  0  0  0  0  0  0
   38.8010   29.4990   38.5030 O   0  0  0  0  0  0  0  0  0  0  0  0
   39.3430   29.1510   37.7690 H   0  0  0  0  0  0  0  0  0  0  0  0
   37.8680   32.4220   38.4970 O   0  0  0  0  0  0  0  0  0  0  0  0
   37.9750   32.3460   37.5010 H   0  0  0  0  0  0  0  0  0  0  0  0
   40.0510   31.2680   37.3820 O   0  0  0  0  0  0  0  0  0  0  0  0
   40.6980   30.5760   37.1600 H   0  0  0  0  0  0  0  0  0  0  0  0
  1  2  1  0  0  0  0
  1  6  1  0  0  0  0
  2  3  1  0  0  0  0
  3  9  1  0  0  0  0
  3  4  1  0  0  0  0
  3 10  1  0  0  0  0
  4 12  1  0  0  0  0
  4 11  1  0  0  0  0
  5 14  1  0  0  0  0
  5  4  1  0  0  0  0
  6 15  1  1  0  0  0
  6  5  1  0  0  0  0
  7  2  1  0  0  0  0
  8  2  1  0  0  0  0
 13  5  1  0  0  0  0
 16 17  1  0  0  0  0
 17 18  2  0  0  0  0
 17 23  1  0  0  0  0
 18  1  1  0  0  0  0
 19 18  1  0  0  0  0
 20 19  2  0  0  0  0
 21 20  1  0  0  0  0
 21 16  2  0  0  0  0
 22 16  1  0  0  0  0
 24 20  1  0  0  0  0
 25  6  1  0  0  0  0
 26 32  1  6  0  0  0
 26 27  1  0  0  0  0
 27 25  1  6  0  0  0
 27 28  1  0  0  0  0
 29 28  1  0  0  0  0
 30 34  1  6  0  0  0
 30 29  1  0  0  0  0
 31 36  1  6  0  0  0
 31 30  1  0  0  0  0
 31 26  1  0  0  0  0
 33 32  1  0  0  0  0
 35 34  1  0  0  0  0
 37 36  1  0  0  0  0
M  END
>  <minimizedAffinity>
-5.32567835

$$$$

 OpenBabel03252502253D

 37 39  0  0  1  0  0  0  0  0999 V2000
   36.5670   25.0370   39.5550 N   0  0  0  0  0  0  0  0  0  0  0  0
   35.7120   23.8920   39.3060 C   0  0  0  0  0  0  0  0  0  0  0  0
   35.5310   23.8870   37.7750 C   0  0  0  0  0  0  0  0  0  0  0  0
   34.7090   25.0970   37.3950 C   0  0  0  0  0  0  0  0  0  0  0  0
   35.0960   26.3520   38.1050 C   0  0  0  0  0  0  0  0  0  0  0  0
   36.3700   26.2790   38.8920 C   0  0  1  0  0  0  0  0  0  0  0  0
   36.1150   22.9520   39.6660 H   0  0  0  0  0  0  0  0  0  0  0  0
   34.7040   24.1500   39.6960 H   0  0  0  0  0  0  0  0  0  0  0  0
   36.5700   23.9880   37.3530 H   0  0  0  0  0  0  0  0  0  0  0  0
   35.0260   22.9880   37.4180 H   0  0  0  0  0  0  0  0  0  0  0  0
   34.7320   25.1840   36.2900 H   0  0  0  0  0  0  0  0  0  0  0  0
   33.6490   24.8370   37.6620 H   0  0  0  0  0  0  0  0  0  0  0  0
   34.2880   26.6610   38.8220 H   0  0  0  0  0  0  0  0  0  0  0  0
   35.1390   27.1620   37.3490 H   0  0  0  0  0  0  0  0  0  0  0  0
   37.2200   26.3930   38.1780 H   0  0  0  0  0  0  0  0  0  0  0  0
   38.5910   24.5330   42.6630 C   0  0  0  0  0  0  0  0  0  0  0  0
   37.4560   24.5870   41.8350 C   0  0  0  0  0  0  0  0  0  0  0  0
   37.6480   24.9500   40.4860 C   0  0  0  0  0  0  0  0  0  0  0  0
   38.9140   25.2200   40.0850 N   0  0  0  0  0  0  0  0  0  0  0  0
   39.9810   25.1570   40.9130 C   0  0  0  0  0  0  0  0  0  0  0  0
   39.8040   24.8060   42.2200 N   0  0  0  0  0  0  0  0  0  0  0  0
   38.4600   24.2570   43.6970 H   0  0  0  0  0  0  0  0  0  0  0  0
   36.4570   24.3670   42.1750 H   0  0  0  0  0  0  0  0  0  0  0  0
   40.9790   25.3800   40.5560 H   0  0  0  0  0  0  0  0  0  0  0  0
   36.3490   27.3120   39.8420 O   0  0  0  0  0  0  0  0  0  0  0  0
   35.9580   29.7020   39.6650 C   0  0  2  0  0  3  0  0  0  0  0  0
   36.8010   28.5150   39.3640 C   0  0  1  0  0  3  0  0  0  0  0  0
   38.1220   28.8060   39.6170 O   0  0  0  0  0  0  0  0  0  0  0  0
   38.3210   28.6460   41.0090 C   0  0  0  0  0  2  0  0  0  0  0  0
   37.3410   29.5010   41.7650 C   0  0  1  0  0  3  0  0  0  0  0  0
   36.5890   30.4360   40.8310 C   0  0  2  0  0  3  0  0  0  0  0  0
   34.6620   29.3870   40.0520 O   0  0  0  0  0  0  0  0  0  0  0  0
   34.1110   30.1940   40.0730 H   0  0  0  0  0  0  0  0  0  0  0  0
   36.4580   28.6700   42.4340 O   0  0  0  0  0  0  0  0  0  0  0  0
   35.8030   29.2210   42.9610 H   0  0  0  0  0  0  0  0  0  0  0  0
   35.5840   31.0780   41.5490 O   0  0  0  0  0  0  0  0  0  0  0  0
   35.1450   31.7290   40.9750 H   0  0  0  0  0  0  0  0  0  0  0  0
  1 18  1  0  0  0  0
  2  1  1  0  0  0  0
  2  7  1  0  0  0  0
  2  8  1  0  0  0  0
  3  2  1  0  0  0  0
  4 12  1  0  0  0  0
  4  3  1  0  0  0  0
  4  5  1  0  0  0  0
  5 13  1  0  0  0  0
  5  6  1  0  0  0  0
  6 15  1  6  0  0  0
  6  1  1  0  0  0  0
  6 25  1  0  0  0  0
  9  3  1  0  0  0  0
 10  3  1  0  0  0  0
 11  4  1  0  0  0  0
 14  5  1  0  0  0  0
 16 22  1  0  0  0  0
 17 23  1  0  0  0  0
 17 16  2  0  0  0  0
 18 17  1  0  0  0  0
 19 18  2  0  0  0  0
 19 20  1  0  0  0  0
 20 21  2  0  0  0  0
 21 16  1  0  0  0  0
 24 20  1  0  0  0  0
 26 32  1  1  0  0  0
 26 31  1  0  0  0  0
 27 28  1  0  0  0  0
 27 26  1  0  0  0  0
 27 25  1  1  0  0  0
 28 29  1  0  0  0  0
 29 30  1  0  0  0  0
 30 34  1  6  0  0  0
 31 36  1  1  0  0  0
 31 30  1  0  0  0  0
 32 33  1  0  0  0  0
 34 35  1  0  0  0  0
 37 36  1  0  0  0  0
M  END
>  <minimizedAffinity>
-5.27691984

$$$$

 OpenBabel03252502253D

 37 39  0  0  1  0  0  0  0  0999 V2000
   38.1010   30.2900   40.3130 N   0  0  0  0  0  0  0  0  0  0  0  0
   36.7190   30.5940   39.9960 C   0  0  0  0  0  0  0  0  0  0  0  0
   36.7150   30.7600   38.4630 C   0  0  0  0  0  0  0  0  0  0  0  0
   37.4930   32.0100   38.1240 C   0  0  0  0  0  0  0  0  0  0  0  0
   38.7590   32.1760   38.8990 C   0  0  0  0  0  0  0  0  0  0  0  0
   39.1820   30.9850   39.7040 C   0  0  1  0  0  0  0  0  0  0  0  0
   36.0130   29.8370   40.3190 H   0  0  0  0  0  0  0  0  0  0  0  0
   36.5170   31.6180   40.3780 H   0  0  0  0  0  0  0  0  0  0  0  0
   37.2590   29.8580   38.0660 H   0  0  0  0  0  0  0  0  0  0  0  0
   35.7070   30.8480   38.0560 H   0  0  0  0  0  0  0  0  0  0  0  0
   37.6370   32.0280   37.0250 H   0  0  0  0  0  0  0  0  0  0  0  0
   36.8050   32.8670   38.3590 H   0  0  0  0  0  0  0  0  0  0  0  0
   38.6710   33.0390   39.6140 H   0  0  0  0  0  0  0  0  0  0  0  0
   39.5510   32.4750   38.1810 H   0  0  0  0  0  0  0  0  0  0  0  0
   39.6730   30.2600   39.0120 H   0  0  0  0  0  0  0  0  0  0  0  0
   38.3930   28.2710   43.4520 C   0  0  0  0  0  0  0  0  0  0  0  0
   38.0210   29.3330   42.6090 C   0  0  0  0  0  0  0  0  0  0  0  0
   38.4230   29.2680   41.2590 C   0  0  0  0  0  0  0  0  0  0  0  0
   39.1400   28.1850   40.8720 N   0  0  0  0  0  0  0  0  0  0  0  0
   39.4780   27.1830   41.7140 C   0  0  0  0  0  0  0  0  0  0  0  0
   39.0930   27.2380   43.0220 N   0  0  0  0  0  0  0  0  0  0  0  0
   38.0920   28.3080   44.4870 H   0  0  0  0  0  0  0  0  0  0  0  0
   37.4500   30.1860   42.9380 H   0  0  0  0  0  0  0  0  0  0  0  0
   40.0530   26.3320   41.3680 H   0  0  0  0  0  0  0  0  0  0  0  0
   40.0650   31.4300   40.7010 O   0  0  0  0  0  0  0  0  0  0  0  0
   42.0440   32.8370   40.7170 C   0  0  2  0  0  3  0  0  0  0  0  0
   41.3530   31.5990   40.2650 C   0  0  1  0  0  3  0  0  0  0  0  0
   42.1890   30.5170   40.4190 O   0  0  0  0  0  0  0  0  0  0  0  0
   42.1030   30.1190   41.7740 C   0  0  0  0  0  2  0  0  0  0  0  0
   42.4270   31.2850   42.6680 C   0  0  1  0  0  3  0  0  0  0  0  0
   42.9560   32.4650   41.8680 C   0  0  2  0  0  3  0  0  0  0  0  0
   41.1850   33.8170   41.1950 O   0  0  0  0  0  0  0  0  0  0  0  0
   41.6680   34.6580   41.3170 H   0  0  0  0  0  0  0  0  0  0  0  0
   41.2800   31.6420   43.3570 O   0  0  0  0  0  0  0  0  0  0  0  0
   41.4770   32.4100   43.9740 H   0  0  0  0  0  0  0  0  0  0  0  0
   43.0780   33.5640   42.7120 O   0  0  0  0  0  0  0  0  0  0  0  0
   43.4820   34.3010   42.2230 H   0  0  0  0  0  0  0  0  0  0  0  0
  1 18  1  0  0  0  0
  2  1  1  0  0  0  0
  2  7  1  0  0  0  0
  2  8  1  0  0  0  0
  3  2  1  0  0  0  0
  4 12  1  0  0  0  0
  4  3  1  0  0  0  0
  4  5  1  0  0  0  0
  5 13  1  0  0  0  0
  5  6  1  0  0  0  0
  6 15  1  6  0  0  0
  6  1  1  0  0  0  0
  6 25  1  0  0  0  0
  9  3  1  0  0  0  0
 10  3  1  0  0  0  0
 11  4  1  0  0  0  0
 14  5  1  0  0  0  0
 16 22  1  0  0  0  0
 17 23  1  0  0  0  0
 17 16  2  0  0  0  0
 18 17  1  0  0  0  0
 19 18  2  0  0  0  0
 19 20  1  0  0  0  0
 20 21  2  0  0  0  0
 21 16  1  0  0  0  0
 24 20  1  0  0  0  0
 26 32  1  1  0  0  0
 26 31  1  0  0  0  0
 27 28  1  0  0  0  0
 27 25  1  1  0  0  0
 27 26  1  0  0  0  0
 28 29  1  0  0  0  0
 29 30  1  0  0  0  0
 30 34  1  6  0  0  0
 31 30  1  0  0  0  0
 31 36  1  1  0  0  0
 32 33  1  0  0  0  0
 34 35  1  0  0  0  0
 37 36  1  0  0  0  0
M  END
>  <minimizedAffinity>
-5.14280891

$$$$

 OpenBabel03252502253D

 37 39  0  0  1  0  0  0  0  0999 V2000
   38.6940   27.4760   40.9700 N   0  0  0  0  0  0  0  0  0  0  0  0
   38.9260   26.6180   42.1150 C   0  0  0  0  0  0  0  0  0  0  0  0
   37.5380   26.0180   42.4200 C   0  0  0  0  0  0  0  0  0  0  0  0
   36.6450   27.1300   42.9200 C   0  0  0  0  0  0  0  0  0  0  0  0
   36.7650   28.4070   42.1560 C   0  0  0  0  0  0  0  0  0  0  0  0
   37.5550   28.3250   40.8850 C   0  0  1  0  0  0  0  0  0  0  0  0
   39.6690   25.8470   41.9470 H   0  0  0  0  0  0  0  0  0  0  0  0
   39.1280   27.2840   42.9820 H   0  0  0  0  0  0  0  0  0  0  0  0
   37.1550   25.6420   41.4310 H   0  0  0  0  0  0  0  0  0  0  0  0
   37.5820   25.2310   43.1740 H   0  0  0  0  0  0  0  0  0  0  0  0
   35.6110   26.7330   42.9690 H   0  0  0  0  0  0  0  0  0  0  0  0
   36.9570   27.3110   43.9850 H   0  0  0  0  0  0  0  0  0  0  0  0
   37.2480   29.2000   42.7890 H   0  0  0  0  0  0  0  0  0  0  0  0
   35.7360   28.7770   41.9630 H   0  0  0  0  0  0  0  0  0  0  0  0
   36.8950   27.8880   40.0980 H   0  0  0  0  0  0  0  0  0  0  0  0
   40.2760   27.0410   37.6060 C   0  0  0  0  0  0  0  0  0  0  0  0
   39.2940   26.9670   38.6090 C   0  0  0  0  0  0  0  0  0  0  0  0
   39.6140   27.4960   39.8760 C   0  0  0  0  0  0  0  0  0  0  0  0
   40.8460   28.0390   40.0340 N   0  0  0  0  0  0  0  0  0  0  0  0
   41.7640   28.0920   39.0430 C   0  0  0  0  0  0  0  0  0  0  0  0
   41.4620   27.5810   37.8130 N   0  0  0  0  0  0  0  0  0  0  0  0
   40.0450   26.6390   36.6320 H   0  0  0  0  0  0  0  0  0  0  0  0
   38.3200   26.5300   38.4620 H   0  0  0  0  0  0  0  0  0  0  0  0
   42.7380   28.5330   39.2070 H   0  0  0  0  0  0  0  0  0  0  0  0
   37.9710   29.6240   40.5510 O   0  0  0  0  0  0  0  0  0  0  0  0
   36.5380   31.3840   39.6880 C   0  0  2  0  0  3  0  0  0  0  0  0
   37.3300   30.1460   39.4570 C   0  0  1  0  0  3  0  0  0  0  0  0
   38.0930   30.2870   38.3210 O   0  0  0  0  0  0  0  0  0  0  0  0
   39.2530   31.0100   38.6900 C   0  0  0  0  0  2  0  0  0  0  0  0
   38.8580   32.3090   39.3370 C   0  0  1  0  0  3  0  0  0  0  0  0
   37.3640   32.5590   39.2070 C   0  0  2  0  0  3  0  0  0  0  0  0
   36.2490   31.6250   41.0240 O   0  0  0  0  0  0  0  0  0  0  0  0
   35.5930   32.3460   41.1020 H   0  0  0  0  0  0  0  0  0  0  0  0
   39.2280   32.2650   40.6710 O   0  0  0  0  0  0  0  0  0  0  0  0
   38.9890   33.1310   41.1200 H   0  0  0  0  0  0  0  0  0  0  0  0
   37.0280   33.6790   39.9630 O   0  0  0  0  0  0  0  0  0  0  0  0
   36.0870   33.8860   39.8280 H   0  0  0  0  0  0  0  0  0  0  0  0
  1  2  1  0  0  0  0
  2  3  1  0  0  0  0
  2  8  1  0  0  0  0
  3  4  1  0  0  0  0
  3 10  1  0  0  0  0
  4 11  1  0  0  0  0
  4 12  1  0  0  0  0
  5 13  1  0  0  0  0
  5  4  1  0  0  0  0
  6 15  1  6  0  0  0
  6  1  1  0  0  0  0
  6  5  1  0  0  0  0
  7  2  1  0  0  0  0
  9  3  1  0  0  0  0
 14  5  1  0  0  0  0
 16 21  2  0  0  0  0
 16 17  1  0  0  0  0
 17 18  2  0  0  0  0
 18 19  1  0  0  0  0
 18  1  1  0  0  0  0
 20 24  1  0  0  0  0
 20 19  2  0  0  0  0
 21 20  1  0  0  0  0
 22 16  1  0  0  0  0
 23 17  1  0  0  0  0
 25  6  1  0  0  0  0
 26 32  1  1  0  0  0
 27 26  1  0  0  0  0
 27 25  1  1  0  0  0
 28 29  1  0  0  0  0
 28 27  1  0  0  0  0
 29 30  1  0  0  0  0
 30 34  1  1  0  0  0
 31 30  1  0  0  0  0
 31 26  1  0  0  0  0
 31 36  1  1  0  0  0
 32 33  1  0  0  0  0
 34 35  1  0  0  0  0
 37 36  1  0  0  0  0
M  END
>  <minimizedAffinity>
-5.11123133

$$$$
