
 OpenBabel03252509003D

 48 50  0  0  1  0  0  0  0  0999 V2000
   47.2810   34.1130   42.9490 N   0  0  0  0  0  0  0  0  0  0  0  0
   46.7080   35.2810   42.3830 C   0  0  0  0  0  0  0  0  0  0  0  0
   45.2260   35.4580   42.6310 C   0  0  0  0  0  0  0  0  0  0  0  0
   44.7450   34.9170   43.9440 C   0  0  0  0  0  0  0  0  0  0  0  0
   45.8880   34.4030   44.7870 C   0  0  0  0  0  0  0  0  0  0  0  0
   46.5720   33.3400   43.8550 C   0  0  2  0  0  0  0  0  0  0  0  0
   46.8660   35.4240   41.3110 H   0  0  0  0  0  0  0  0  0  0  0  0
   47.2090   36.1660   42.8730 H   0  0  0  0  0  0  0  0  0  0  0  0
   44.6600   35.0380   41.7630 H   0  0  0  0  0  0  0  0  0  0  0  0
   44.9830   36.5510   42.6000 H   0  0  0  0  0  0  0  0  0  0  0  0
   44.1090   35.6460   44.5010 H   0  0  0  0  0  0  0  0  0  0  0  0
   44.0930   34.0430   43.7320 H   0  0  0  0  0  0  0  0  0  0  0  0
   46.6120   35.1630   45.0840 H   0  0  0  0  0  0  0  0  0  0  0  0
   45.4440   33.8140   45.6030 H   0  0  0  0  0  0  0  0  0  0  0  0
   45.7460   32.7050   43.4890 H   0  0  0  0  0  0  0  0  0  0  0  0
   48.2660   33.4800   42.1220 C   0  0  0  0  0  0  0  0  0  0  0  0
   48.9300   34.2540   41.7170 H   0  0  0  0  0  0  0  0  0  0  0  0
   48.8700   32.8090   42.7840 H   0  0  0  0  0  0  0  0  0  0  0  0
   47.5700   32.6330   41.1020 C   0  0  0  0  0  0  0  0  0  0  0  0
   46.4840   32.8580   41.0810 H   0  0  0  0  0  0  0  0  0  0  0  0
   47.6590   31.5610   41.2830 H   0  0  0  0  0  0  0  0  0  0  0  0
   49.3790   32.3650   37.8210 C   0  0  0  0  0  0  0  0  0  0  0  0
   48.8830   32.0560   39.1020 C   0  0  0  0  0  0  0  0  0  0  0  0
   48.0880   32.9720   39.7500 C   0  0  0  0  0  0  0  0  0  0  0  0
   47.8250   34.1260   39.1180 N   0  0  0  0  0  0  0  0  0  0  0  0
   48.3050   34.4080   37.8970 C   0  0  0  0  0  0  0  0  0  0  0  0
   49.0790   33.5420   37.2390 N   0  0  0  0  0  0  0  0  0  0  0  0
   49.9890   31.5960   37.3890 H   0  0  0  0  0  0  0  0  0  0  0  0
   49.1160   31.1140   39.5810 H   0  0  0  0  0  0  0  0  0  0  0  0
   48.0030   35.3840   37.5190 H   0  0  0  0  0  0  0  0  0  0  0  0
   47.4180   32.6880   44.7460 O   0  0  0  0  0  0  0  0  0  0  0  0
   47.1890   30.2480   43.7200 O   0  0  0  0  0  0  0  0  0  0  0  0
   46.9910   31.0770   44.9830 P   0  0  2  0  0  0  0  0  0  0  0  0
   45.3010   31.0730   45.2580 O   0  0  0  0  0  0  0  0  0  0  0  0
   44.8230   31.0030   44.3930 H   0  0  0  0  0  0  0  0  0  0  0  0
   47.7200   30.3930   46.3120 O   0  0  0  0  0  0  0  0  0  0  0  0
   47.8390   28.0530   46.3130 C   0  0  2  0  0  3  0  0  0  0  0  0
   48.5870   29.3570   46.0310 C   0  0  2  0  0  3  0  0  0  0  0  0
   49.7000   29.4810   46.8600 O   0  0  0  0  0  0  0  0  0  0  0  0
   50.4630   28.3170   46.8610 C   0  0  0  0  0  2  0  0  0  0  0  0
   49.7550   27.1590   47.5220 C   0  0  1  0  0  3  0  0  0  0  0  0
   48.2900   27.5500   47.6640 C   0  0  1  0  0  3  0  0  0  0  0  0
   48.1600   27.1490   45.2880 O   0  0  0  0  0  0  0  0  0  0  0  0
   48.6970   27.5990   44.5660 H   0  0  0  0  0  0  0  0  0  0  0  0
   49.8350   26.0010   46.7260 O   0  0  0  0  0  0  0  0  0  0  0  0
   49.0930   25.4240   47.0470 H   0  0  0  0  0  0  0  0  0  0  0  0
   48.2840   28.6420   48.5450 O   0  0  0  0  0  0  0  0  0  0  0  0
   47.5660   28.5670   49.2220 H   0  0  0  0  0  0  0  0  0  0  0  0
  1  6  1  0  0  0  0
  2  3  1  0  0  0  0
  2  8  1  0  0  0  0
  2  1  1  0  0  0  0
  3  4  1  0  0  0  0
  4 11  1  0  0  0  0
  4  5  1  0  0  0  0
  5 13  1  0  0  0  0
  5 14  1  0  0  0  0
  6 15  1  6  0  0  0
  6 31  1  0  0  0  0
  6  5  1  0  0  0  0
  7  2  1  0  0  0  0
  9  3  1  0  0  0  0
 10  3  1  0  0  0  0
 12  4  1  0  0  0  0
 16 18  1  0  0  0  0
 16  1  1  0  0  0  0
 17 16  1  0  0  0  0
 19 21  1  0  0  0  0
 19 16  1  0  0  0  0
 20 19  1  0  0  0  0
 22 23  1  0  0  0  0
 23 29  1  0  0  0  0
 23 24  2  0  0  0  0
 24 19  1  0  0  0  0
 25 24  1  0  0  0  0
 26 25  2  0  0  0  0
 27 22  2  0  0  0  0
 27 26  1  0  0  0  0
 28 22  1  0  0  0  0
 30 26  1  0  0  0  0
 31 33  1  0  0  0  0
 33 32  2  6  0  0  0
 33 34  1  0  0  0  0
 33 36  1  0  0  0  0
 35 34  1  0  0  0  0
 37 43  1  6  0  0  0
 37 42  1  0  0  0  0
 38 36  1  1  0  0  0
 38 37  1  0  0  0  0
 38 39  1  0  0  0  0
 39 40  1  0  0  0  0
 40 41  1  0  0  0  0
 41 45  1  6  0  0  0
 41 42  1  0  0  0  0
 42 47  1  1  0  0  0
 44 43  1  0  0  0  0
 45 46  1  0  0  0  0
 47 48  1  0  0  0  0
M  END
>  <minimizedAffinity>
-4.23303747

>  <minimizedRMSD>
2.43274641

$$$$
