
 OpenBabel03242523313D

 25 26  0  0  1  0  0  0  0  0999 V2000
   36.5220   28.1600   40.7010 S   0  0  0  0  0  0  0  0  0  0  0  0
   37.0240   30.8430   41.1970 C   0  0  1  0  0  3  0  0  0  0  0  0
   37.2740   29.7130   40.2470 C   0  0  2  0  0  3  0  0  0  0  0  0
   37.0140   30.0390   38.9250 O   0  0  0  0  0  0  0  0  0  0  0  0
   37.8770   31.0070   38.4250 C   0  0  0  0  0  2  0  0  0  0  0  0
   38.5970   31.7960   39.4660 C   0  0  1  0  0  3  0  0  0  0  0  0
   37.6770   32.0880   40.6290 C   0  0  1  0  0  3  0  0  0  0  0  0
   35.6640   31.1200   41.3730 O   0  0  0  0  0  0  0  0  0  0  0  0
   35.2530   31.2780   40.5020 H   0  0  0  0  0  0  0  0  0  0  0  0
   39.8310   31.2840   39.8340 O   0  0  0  0  0  0  0  0  0  0  0  0
   40.5340   31.9710   39.9270 H   0  0  0  0  0  0  0  0  0  0  0  0
   36.7080   32.9670   40.1370 O   0  0  0  0  0  0  0  0  0  0  0  0
   36.4860   33.6870   40.7970 H   0  0  0  0  0  0  0  0  0  0  0  0
   36.5930   27.7760   42.4620 C   0  0  0  0  0  0  0  0  0  0  0  0
   35.6580   27.2260   42.7810 H   0  0  0  0  0  0  0  0  0  0  0  0
   36.6590   28.7000   43.0770 H   0  0  0  0  0  0  0  0  0  0  0  0
   38.7070   24.7310   42.3830 C   0  0  0  0  0  0  0  0  0  0  0  0
   39.7830   25.1510   43.1440 C   0  0  0  0  0  0  0  0  0  0  0  0
   39.7880   26.4540   43.6800 C   0  0  0  0  0  0  0  0  0  0  0  0
   38.7180   27.2840   43.4320 N   0  0  0  0  0  0  0  0  0  0  0  0
   37.6910   26.8230   42.6800 C   0  0  0  0  0  0  0  0  0  0  0  0
   37.6930   25.5740   42.1710 N   0  0  0  0  0  0  0  0  0  0  0  0
   38.8060   23.7230   42.0270 H   0  0  0  0  0  0  0  0  0  0  0  0
   40.6960   24.6290   43.4340 H   0  0  0  0  0  0  0  0  0  0  0  0
   40.5830   26.8760   44.2850 H   0  0  0  0  0  0  0  0  0  0  0  0
  1 14  1  0  0  0  0
  2  8  1  6  0  0  0
  3  1  1  1  0  0  0
  3  2  1  0  0  0  0
  4  3  1  0  0  0  0
  5  4  1  0  0  0  0
  5  6  1  0  0  0  0
  6 10  1  1  0  0  0
  6  7  1  0  0  0  0
  7 12  1  6  0  0  0
  7  2  1  0  0  0  0
  9  8  1  0  0  0  0
 10 11  1  0  0  0  0
 12 13  1  0  0  0  0
 14 21  1  0  0  0  0
 14 15  1  0  0  0  0
 14 16  1  0  0  0  0
 17 18  1  0  0  0  0
 18 24  1  0  0  0  0
 18 19  2  0  0  0  0
 19 25  1  0  0  0  0
 20 19  1  0  0  0  0
 21 20  2  0  0  0  0
 22 17  2  0  0  0  0
 22 21  1  0  0  0  0
 23 17  1  0  0  0  0
M  END
>  <minimizedAffinity>
-5.26254845

$$$$

 OpenBabel03242523313D

 25 26  0  0  1  0  0  0  0  0999 V2000
   39.7600   30.9010   42.3760 S   0  0  0  0  0  0  0  0  0  0  0  0
   38.8850   32.6940   40.4500 C   0  0  1  0  0  3  0  0  0  0  0  0
   38.6720   31.3300   41.0280 C   0  0  2  0  0  3  0  0  0  0  0  0
   37.3480   31.0650   41.3370 O   0  0  0  0  0  0  0  0  0  0  0  0
   36.5290   31.0110   40.2160 C   0  0  0  0  0  2  0  0  0  0  0  0
   37.1020   31.6510   38.9960 C   0  0  1  0  0  3  0  0  0  0  0  0
   37.8440   32.9130   39.3690 C   0  0  1  0  0  3  0  0  0  0  0  0
   38.7400   33.7180   41.3910 O   0  0  0  0  0  0  0  0  0  0  0  0
   37.8680   33.6370   41.8240 H   0  0  0  0  0  0  0  0  0  0  0  0
   37.8170   30.7960   38.1720 O   0  0  0  0  0  0  0  0  0  0  0  0
   37.6280   30.9220   37.2110 H   0  0  0  0  0  0  0  0  0  0  0  0
   36.8680   33.8140   39.8060 O   0  0  0  0  0  0  0  0  0  0  0  0
   37.0420   34.7440   39.4770 H   0  0  0  0  0  0  0  0  0  0  0  0
   40.3040   29.1800   42.3850 C   0  0  0  0  0  0  0  0  0  0  0  0
   40.9140   28.9670   43.3120 H   0  0  0  0  0  0  0  0  0  0  0  0
   40.9450   28.9520   41.5060 H   0  0  0  0  0  0  0  0  0  0  0  0
   37.7950   26.5040   41.8390 C   0  0  0  0  0  0  0  0  0  0  0  0
   36.8800   26.8090   42.8310 C   0  0  0  0  0  0  0  0  0  0  0  0
   37.1140   27.9140   43.6740 C   0  0  0  0  0  0  0  0  0  0  0  0
   38.2510   28.6670   43.4910 N   0  0  0  0  0  0  0  0  0  0  0  0
   39.1140   28.3240   42.5050 C   0  0  0  0  0  0  0  0  0  0  0  0
   38.8840   27.2660   41.7020 N   0  0  0  0  0  0  0  0  0  0  0  0
   37.5180   25.6470   41.2550 H   0  0  0  0  0  0  0  0  0  0  0  0
   35.9420   26.3260   43.1070 H   0  0  0  0  0  0  0  0  0  0  0  0
   36.4610   28.2320   44.4800 H   0  0  0  0  0  0  0  0  0  0  0  0
  1 14  1  0  0  0  0
  2  3  1  0  0  0  0
  2  8  1  1  0  0  0
  3  4  1  0  0  0  0
  3  1  1  1  0  0  0
  5  4  1  0  0  0  0
  6 10  1  1  0  0  0
  6  7  1  0  0  0  0
  6  5  1  0  0  0  0
  7 12  1  1  0  0  0
  7  2  1  0  0  0  0
  8  9  1  0  0  0  0
 11 10  1  0  0  0  0
 13 12  1  0  0  0  0
 14 21  1  0  0  0  0
 14 15  1  0  0  0  0
 16 14  1  0  0  0  0
 17 18  1  0  0  0  0
 18 24  1  0  0  0  0
 18 19  2  0  0  0  0
 19 25  1  0  0  0  0
 20 19  1  0  0  0  0
 21 20  2  0  0  0  0
 22 17  2  0  0  0  0
 22 21  1  0  0  0  0
 23 17  1  0  0  0  0
M  END
>  <minimizedAffinity>
-5.1137867

$$$$

 OpenBabel03242523313D

 25 26  0  0  1  0  0  0  0  0999 V2000
   35.7370   28.5450   39.4770 S   0  0  0  0  0  0  0  0  0  0  0  0
   36.9170   30.6880   40.7840 C   0  0  1  0  0  3  0  0  0  0  0  0
   36.8140   29.9680   39.4760 C   0  0  2  0  0  3  0  0  0  0  0  0
   36.5480   30.8090   38.4070 O   0  0  0  0  0  0  0  0  0  0  0  0
   37.5840   31.6970   38.1440 C   0  0  0  0  0  2  0  0  0  0  0  0
   38.5490   31.8780   39.2670 C   0  0  1  0  0  3  0  0  0  0  0  0
   37.8140   31.8940   40.5870 C   0  0  1  0  0  3  0  0  0  0  0  0
   35.6840   31.1490   41.2560 O   0  0  0  0  0  0  0  0  0  0  0  0
   35.2620   31.7000   40.5690 H   0  0  0  0  0  0  0  0  0  0  0  0
   39.6420   31.0270   39.2370 O   0  0  0  0  0  0  0  0  0  0  0  0
   40.4970   31.4720   39.4500 H   0  0  0  0  0  0  0  0  0  0  0  0
   37.0580   33.0700   40.5880 O   0  0  0  0  0  0  0  0  0  0  0  0
   37.0680   33.5220   41.4830 H   0  0  0  0  0  0  0  0  0  0  0  0
   36.5170   27.0130   38.9290 C   0  0  0  0  0  0  0  0  0  0  0  0
   37.5380   27.2270   38.4930 H   0  0  0  0  0  0  0  0  0  0  0  0
   35.9180   26.5120   38.1380 H   0  0  0  0  0  0  0  0  0  0  0  0
   37.5270   25.8840   42.3130 C   0  0  0  0  0  0  0  0  0  0  0  0
   37.1950   24.5430   42.2420 C   0  0  0  0  0  0  0  0  0  0  0  0
   36.6360   24.0290   41.0550 C   0  0  0  0  0  0  0  0  0  0  0  0
   36.4310   24.8750   39.9900 N   0  0  0  0  0  0  0  0  0  0  0  0
   36.7740   26.1800   40.1130 C   0  0  0  0  0  0  0  0  0  0  0  0
   37.3090   26.6650   41.2520 N   0  0  0  0  0  0  0  0  0  0  0  0
   37.9460   26.1680   43.2600 H   0  0  0  0  0  0  0  0  0  0  0  0
   37.2910   23.7460   42.9810 H   0  0  0  0  0  0  0  0  0  0  0  0
   36.3410   22.9960   40.9020 H   0  0  0  0  0  0  0  0  0  0  0  0
  2  8  1  6  0  0  0
  3  1  1  1  0  0  0
  3  2  1  0  0  0  0
  4  3  1  0  0  0  0
  5  4  1  0  0  0  0
  5  6  1  0  0  0  0
  6 10  1  1  0  0  0
  6  7  1  0  0  0  0
  7 12  1  6  0  0  0
  7  2  1  0  0  0  0
  9  8  1  0  0  0  0
 10 11  1  0  0  0  0
 12 13  1  0  0  0  0
 14  1  1  0  0  0  0
 14 21  1  0  0  0  0
 15 14  1  0  0  0  0
 16 14  1  0  0  0  0
 17 23  1  0  0  0  0
 18 17  1  0  0  0  0
 18 24  1  0  0  0  0
 19 18  2  0  0  0  0
 20 21  2  0  0  0  0
 20 19  1  0  0  0  0
 21 22  1  0  0  0  0
 22 17  2  0  0  0  0
 25 19  1  0  0  0  0
M  END
>  <minimizedAffinity>
-5.04883432

$$$$

 OpenBabel03242523313D

 25 26  0  0  1  0  0  0  0  0999 V2000
   40.1790   29.3580   40.0810 S   0  0  0  0  0  0  0  0  0  0  0  0
   38.1430   30.4330   38.5330 C   0  0  1  0  0  3  0  0  0  0  0  0
   39.0450   30.6830   39.7010 C   0  0  2  0  0  3  0  0  0  0  0  0
   39.6930   31.9070   39.6420 O   0  0  0  0  0  0  0  0  0  0  0  0
   38.8230   32.9860   39.7380 C   0  0  0  0  0  2  0  0  0  0  0  0
   37.3940   32.6610   39.4560 C   0  0  1  0  0  3  0  0  0  0  0  0
   37.3000   31.6740   38.3160 C   0  0  1  0  0  3  0  0  0  0  0  0
   38.8390   30.1800   37.3460 O   0  0  0  0  0  0  0  0  0  0  0  0
   39.4610   30.9130   37.1760 H   0  0  0  0  0  0  0  0  0  0  0  0
   36.6450   32.3140   40.5700 O   0  0  0  0  0  0  0  0  0  0  0  0
   35.7470   32.7240   40.5870 H   0  0  0  0  0  0  0  0  0  0  0  0
   37.7290   32.3640   37.1790 O   0  0  0  0  0  0  0  0  0  0  0  0
   37.1700   32.1470   36.3760 H   0  0  0  0  0  0  0  0  0  0  0  0
   40.3160   28.9660   41.8370 C   0  0  0  0  0  0  0  0  0  0  0  0
   40.3950   29.9160   42.4440 H   0  0  0  0  0  0  0  0  0  0  0  0
   41.2230   28.3610   42.0490 H   0  0  0  0  0  0  0  0  0  0  0  0
   37.1900   28.2000   43.6800 C   0  0  0  0  0  0  0  0  0  0  0  0
   36.7360   27.1080   42.9630 C   0  0  0  0  0  0  0  0  0  0  0  0
   37.4850   26.6370   41.8660 C   0  0  0  0  0  0  0  0  0  0  0  0
   38.6570   27.2760   41.5320 N   0  0  0  0  0  0  0  0  0  0  0  0
   39.0560   28.3410   42.2670 C   0  0  0  0  0  0  0  0  0  0  0  0
   38.3330   28.7870   43.3150 N   0  0  0  0  0  0  0  0  0  0  0  0
   36.5450   28.4730   44.4930 H   0  0  0  0  0  0  0  0  0  0  0  0
   35.8440   26.4930   43.0920 H   0  0  0  0  0  0  0  0  0  0  0  0
   37.2130   25.7920   41.2420 H   0  0  0  0  0  0  0  0  0  0  0  0
  1 14  1  0  0  0  0
  2  8  1  6  0  0  0
  2  3  1  0  0  0  0
  3  1  1  6  0  0  0
  4  3  1  0  0  0  0
  4  5  1  0  0  0  0
  6  5  1  0  0  0  0
  6 10  1  1  0  0  0
  7 12  1  6  0  0  0
  7  2  1  0  0  0  0
  7  6  1  0  0  0  0
  9  8  1  0  0  0  0
 10 11  1  0  0  0  0
 13 12  1  0  0  0  0
 14 16  1  0  0  0  0
 14 21  1  0  0  0  0
 14 15  1  0  0  0  0
 17 23  1  0  0  0  0
 18 24  1  0  0  0  0
 18 17  2  0  0  0  0
 19 18  1  0  0  0  0
 20 19  2  0  0  0  0
 20 21  1  0  0  0  0
 21 22  2  0  0  0  0
 22 17  1  0  0  0  0
 25 19  1  0  0  0  0
M  END
>  <minimizedAffinity>
-4.77930641

$$$$

 OpenBabel03242523313D

 25 26  0  0  1  0  0  0  0  0999 V2000
   37.3770   31.8560   40.5000 S   0  0  0  0  0  0  0  0  0  0  0  0
   39.3260   30.5380   39.0310 C   0  0  1  0  0  3  0  0  0  0  0  0
   38.7420   31.8780   39.3510 C   0  0  2  0  0  3  0  0  0  0  0  0
   39.6930   32.8220   39.7060 O   0  0  0  0  0  0  0  0  0  0  0  0
   40.5530   33.1440   38.6630 C   0  0  0  0  0  2  0  0  0  0  0  0
   40.5790   32.1540   37.5480 C   0  0  1  0  0  3  0  0  0  0  0  0
   40.5030   30.7490   38.0980 C   0  0  1  0  0  3  0  0  0  0  0  0
   39.7970   29.8610   40.1610 O   0  0  0  0  0  0  0  0  0  0  0  0
   40.4310   30.4310   40.6360 H   0  0  0  0  0  0  0  0  0  0  0  0
   39.6840   32.4100   36.5210 O   0  0  0  0  0  0  0  0  0  0  0  0
   40.0670   32.2780   35.6210 H   0  0  0  0  0  0  0  0  0  0  0  0
   41.7070   30.5390   38.7760 O   0  0  0  0  0  0  0  0  0  0  0  0
   42.0690   29.6170   38.6200 H   0  0  0  0  0  0  0  0  0  0  0  0
   36.3820   30.3510   40.4570 C   0  0  0  0  0  0  0  0  0  0  0  0
   36.6000   29.7650   39.5150 H   0  0  0  0  0  0  0  0  0  0  0  0
   35.2960   30.5820   40.4610 H   0  0  0  0  0  0  0  0  0  0  0  0
   38.1970   28.9940   43.3930 C   0  0  0  0  0  0  0  0  0  0  0  0
   37.5360   27.7910   43.5640 C   0  0  0  0  0  0  0  0  0  0  0  0
   36.4870   27.4450   42.6890 C   0  0  0  0  0  0  0  0  0  0  0  0
   36.1420   28.3150   41.6810 N   0  0  0  0  0  0  0  0  0  0  0  0
   36.8210   29.4800   41.5590 C   0  0  0  0  0  0  0  0  0  0  0  0
   37.8240   29.8050   42.4000 N   0  0  0  0  0  0  0  0  0  0  0  0
   38.9780   29.1550   44.1120 H   0  0  0  0  0  0  0  0  0  0  0  0
   37.6820   26.9970   44.2980 H   0  0  0  0  0  0  0  0  0  0  0  0
   35.9090   26.5280   42.7410 H   0  0  0  0  0  0  0  0  0  0  0  0
  2  3  1  0  0  0  0
  2  8  1  1  0  0  0
  3  4  1  0  0  0  0
  3  1  1  1  0  0  0
  5  4  1  0  0  0  0
  6 10  1  6  0  0  0
  6  7  1  0  0  0  0
  6  5  1  0  0  0  0
  7 12  1  1  0  0  0
  7  2  1  0  0  0  0
  8  9  1  0  0  0  0
 11 10  1  0  0  0  0
 13 12  1  0  0  0  0
 14 16  1  0  0  0  0
 14  1  1  0  0  0  0
 14 21  1  0  0  0  0
 15 14  1  0  0  0  0
 17 18  1  0  0  0  0
 17 23  1  0  0  0  0
 18 24  1  0  0  0  0
 19 25  1  0  0  0  0
 19 18  2  0  0  0  0
 20 19  1  0  0  0  0
 21 20  2  0  0  0  0
 21 22  1  0  0  0  0
 22 17  2  0  0  0  0
M  END
>  <minimizedAffinity>
-4.71821594

$$$$

 OpenBabel03242523313D

 25 26  0  0  1  0  0  0  0  0999 V2000
   39.3580   29.5810   40.6740 S   0  0  0  0  0  0  0  0  0  0  0  0
   37.5550   31.6000   40.0690 C   0  0  1  0  0  3  0  0  0  0  0  0
   38.9880   31.3030   40.3860 C   0  0  2  0  0  3  0  0  0  0  0  0
   39.8780   31.8730   39.4900 O   0  0  0  0  0  0  0  0  0  0  0  0
   39.8770   33.2620   39.5330 C   0  0  0  0  0  2  0  0  0  0  0  0
   38.6720   33.8630   40.1770 C   0  0  1  0  0  3  0  0  0  0  0  0
   37.4350   33.0870   39.7930 C   0  0  1  0  0  3  0  0  0  0  0  0
   37.0910   30.9210   38.9380 O   0  0  0  0  0  0  0  0  0  0  0  0
   37.6790   31.1120   38.1830 H   0  0  0  0  0  0  0  0  0  0  0  0
   38.7960   34.0980   41.5370 O   0  0  0  0  0  0  0  0  0  0  0  0
   38.4340   34.9710   41.8230 H   0  0  0  0  0  0  0  0  0  0  0  0
   37.2480   33.3160   38.4270 O   0  0  0  0  0  0  0  0  0  0  0  0
   36.2820   33.4490   38.1980 H   0  0  0  0  0  0  0  0  0  0  0  0
   38.0840   28.6790   41.5800 C   0  0  0  0  0  0  0  0  0  0  0  0
   37.2840   28.3140   40.8690 H   0  0  0  0  0  0  0  0  0  0  0  0
   37.5860   29.3260   42.3340 H   0  0  0  0  0  0  0  0  0  0  0  0
   38.9450   25.1310   42.2250 C   0  0  0  0  0  0  0  0  0  0  0  0
   39.8870   25.2770   43.2270 C   0  0  0  0  0  0  0  0  0  0  0  0
   40.2240   26.5690   43.6790 C   0  0  0  0  0  0  0  0  0  0  0  0
   39.6060   27.6590   43.1110 N   0  0  0  0  0  0  0  0  0  0  0  0
   38.6910   27.4590   42.1330 C   0  0  0  0  0  0  0  0  0  0  0  0
   38.3730   26.2200   41.7050 N   0  0  0  0  0  0  0  0  0  0  0  0
   38.7640   24.1060   41.9600 H   0  0  0  0  0  0  0  0  0  0  0  0
   40.4620   24.5320   43.7790 H   0  0  0  0  0  0  0  0  0  0  0  0
   40.9490   26.7890   44.4560 H   0  0  0  0  0  0  0  0  0  0  0  0
  1 14  1  0  0  0  0
  2  8  1  6  0  0  0
  2  3  1  0  0  0  0
  3  1  1  6  0  0  0
  4  5  1  0  0  0  0
  4  3  1  0  0  0  0
  5  6  1  0  0  0  0
  6 10  1  1  0  0  0
  7 12  1  6  0  0  0
  7  2  1  0  0  0  0
  7  6  1  0  0  0  0
  9  8  1  0  0  0  0
 10 11  1  0  0  0  0
 13 12  1  0  0  0  0
 14 21  1  0  0  0  0
 14 16  1  0  0  0  0
 15 14  1  0  0  0  0
 17 18  1  0  0  0  0
 18 19  2  0  0  0  0
 18 24  1  0  0  0  0
 19 25  1  0  0  0  0
 20 19  1  0  0  0  0
 21 20  2  0  0  0  0
 22 21  1  0  0  0  0
 22 17  2  0  0  0  0
 23 17  1  0  0  0  0
M  END
>  <minimizedAffinity>
-4.62078953

$$$$

 OpenBabel03242523313D

 25 26  0  0  1  0  0  0  0  0999 V2000
   38.6190   27.3310   41.2940 S   0  0  0  0  0  0  0  0  0  0  0  0
   37.6910   29.9310   41.5640 C   0  0  1  0  0  3  0  0  0  0  0  0
   37.7790   28.7600   40.6350 C   0  0  2  0  0  3  0  0  0  0  0  0
   36.5620   28.4190   40.0650 O   0  0  0  0  0  0  0  0  0  0  0  0
   36.0680   29.4010   39.2150 C   0  0  0  0  0  2  0  0  0  0  0  0
   36.6750   30.7510   39.4010 C   0  0  1  0  0  3  0  0  0  0  0  0
   36.8990   31.0220   40.8710 C   0  0  1  0  0  3  0  0  0  0  0  0
   37.0380   29.6310   42.7640 O   0  0  0  0  0  0  0  0  0  0  0  0
   36.1590   29.2550   42.5670 H   0  0  0  0  0  0  0  0  0  0  0  0
   37.7790   31.0070   38.6030 O   0  0  0  0  0  0  0  0  0  0  0  0
   37.7780   31.9110   38.2050 H   0  0  0  0  0  0  0  0  0  0  0  0
   35.6250   31.1350   41.4350 O   0  0  0  0  0  0  0  0  0  0  0  0
   35.5780   31.8750   42.1100 H   0  0  0  0  0  0  0  0  0  0  0  0
   37.5430   26.1400   42.1180 C   0  0  0  0  0  0  0  0  0  0  0  0
   36.5390   26.6090   42.3420 H   0  0  0  0  0  0  0  0  0  0  0  0
   37.9740   25.8030   43.0850 H   0  0  0  0  0  0  0  0  0  0  0  0
   36.2690   24.2160   39.2150 C   0  0  0  0  0  0  0  0  0  0  0  0
   36.7920   22.9650   39.4920 C   0  0  0  0  0  0  0  0  0  0  0  0
   37.5670   22.7790   40.6550 C   0  0  0  0  0  0  0  0  0  0  0  0
   37.7870   23.8490   41.4910 N   0  0  0  0  0  0  0  0  0  0  0  0
   37.2530   25.0520   41.1720 C   0  0  0  0  0  0  0  0  0  0  0  0
   36.5120   25.2230   40.0580 N   0  0  0  0  0  0  0  0  0  0  0  0
   35.6950   24.2440   38.3090 H   0  0  0  0  0  0  0  0  0  0  0  0
   36.7130   22.0240   38.9460 H   0  0  0  0  0  0  0  0  0  0  0  0
   38.0210   21.8410   40.9570 H   0  0  0  0  0  0  0  0  0  0  0  0
  1 14  1  0  0  0  0
  2  8  1  1  0  0  0
  3  1  1  1  0  0  0
  3  2  1  0  0  0  0
  4  3  1  0  0  0  0
  5  6  1  0  0  0  0
  5  4  1  0  0  0  0
  6 10  1  6  0  0  0
  6  7  1  0  0  0  0
  7 12  1  1  0  0  0
  7  2  1  0  0  0  0
  9  8  1  0  0  0  0
 11 10  1  0  0  0  0
 12 13  1  0  0  0  0
 14 15  1  0  0  0  0
 14 16  1  0  0  0  0
 17 18  2  0  0  0  0
 17 22  1  0  0  0  0
 18 19  1  0  0  0  0
 19 25  1  0  0  0  0
 19 20  2  0  0  0  0
 21 20  1  0  0  0  0
 21 14  1  0  0  0  0
 22 21  2  0  0  0  0
 23 17  1  0  0  0  0
 24 18  1  0  0  0  0
M  END
>  <minimizedAffinity>
-4.6207571

$$$$

 OpenBabel03242523313D

 25 26  0  0  1  0  0  0  0  0999 V2000
   40.5800   30.5060   39.2300 S   0  0  0  0  0  0  0  0  0  0  0  0
   41.0200   33.0330   38.1740 C   0  0  1  0  0  3  0  0  0  0  0  0
   41.6600   31.8860   38.8930 C   0  0  2  0  0  3  0  0  0  0  0  0
   42.8510   31.4740   38.3170 O   0  0  0  0  0  0  0  0  0  0  0  0
   43.8520   32.4330   38.3970 C   0  0  0  0  0  2  0  0  0  0  0  0
   43.3680   33.8180   38.6710 C   0  0  1  0  0  3  0  0  0  0  0  0
   42.0860   34.0800   37.9170 C   0  0  1  0  0  3  0  0  0  0  0  0
   40.4740   32.6700   36.9390 O   0  0  0  0  0  0  0  0  0  0  0  0
   41.1630   32.2390   36.3970 H   0  0  0  0  0  0  0  0  0  0  0  0
   43.3170   34.1610   40.0130 O   0  0  0  0  0  0  0  0  0  0  0  0
   43.6560   35.0680   40.2030 H   0  0  0  0  0  0  0  0  0  0  0  0
   42.4360   34.0980   36.5640 O   0  0  0  0  0  0  0  0  0  0  0  0
   41.9580   34.8220   36.0620 H   0  0  0  0  0  0  0  0  0  0  0  0
   38.9470   30.9610   39.8460 C   0  0  0  0  0  0  0  0  0  0  0  0
   38.2140   31.0410   38.9890 H   0  0  0  0  0  0  0  0  0  0  0  0
   38.9660   31.9470   40.3580 H   0  0  0  0  0  0  0  0  0  0  0  0
   37.3190   29.0230   42.5560 C   0  0  0  0  0  0  0  0  0  0  0  0
   37.5590   27.7320   42.1220 C   0  0  0  0  0  0  0  0  0  0  0  0
   38.2680   27.5230   40.9220 C   0  0  0  0  0  0  0  0  0  0  0  0
   38.7070   28.6130   40.2060 N   0  0  0  0  0  0  0  0  0  0  0  0
   38.4450   29.8560   40.6760 C   0  0  0  0  0  0  0  0  0  0  0  0
   37.7660   30.0480   41.8260 N   0  0  0  0  0  0  0  0  0  0  0  0
   36.7740   29.0660   43.4800 H   0  0  0  0  0  0  0  0  0  0  0  0
   37.2880   26.7710   42.5620 H   0  0  0  0  0  0  0  0  0  0  0  0
   38.5040   26.5530   40.4980 H   0  0  0  0  0  0  0  0  0  0  0  0
  1 14  1  0  0  0  0
  2  8  1  6  0  0  0
  2  3  1  0  0  0  0
  3  1  1  6  0  0  0
  4  5  1  0  0  0  0
  4  3  1  0  0  0  0
  5  6  1  0  0  0  0
  6 10  1  1  0  0  0
  7 12  1  6  0  0  0
  7  2  1  0  0  0  0
  7  6  1  0  0  0  0
  9  8  1  0  0  0  0
 10 11  1  0  0  0  0
 13 12  1  0  0  0  0
 14 16  1  0  0  0  0
 14 21  1  0  0  0  0
 15 14  1  0  0  0  0
 17 23  1  0  0  0  0
 18 17  1  0  0  0  0
 18 24  1  0  0  0  0
 19 18  2  0  0  0  0
 20 21  2  0  0  0  0
 20 19  1  0  0  0  0
 21 22  1  0  0  0  0
 22 17  2  0  0  0  0
 25 19  1  0  0  0  0
M  END
>  <minimizedAffinity>
-4.55794191

$$$$

 OpenBabel03242523313D

 25 26  0  0  1  0  0  0  0  0999 V2000
   40.5730   29.5480   37.6160 S   0  0  0  0  0  0  0  0  0  0  0  0
   41.1620   32.2490   37.8500 C   0  0  1  0  0  3  0  0  0  0  0  0
   41.7530   30.8860   37.6650 C   0  0  2  0  0  3  0  0  0  0  0  0
   42.6490   30.8150   36.6100 O   0  0  0  0  0  0  0  0  0  0  0  0
   43.7920   31.5780   36.8160 C   0  0  0  0  0  2  0  0  0  0  0  0
   43.6600   32.6240   37.8710 C   0  0  1  0  0  3  0  0  0  0  0  0
   42.2910   33.2600   37.8060 C   0  0  1  0  0  3  0  0  0  0  0  0
   40.2470   32.5910   36.8500 O   0  0  0  0  0  0  0  0  0  0  0  0
   40.6730   32.4940   35.9770 H   0  0  0  0  0  0  0  0  0  0  0  0
   44.0370   32.2200   39.1420 O   0  0  0  0  0  0  0  0  0  0  0  0
   44.5730   32.8910   39.6280 H   0  0  0  0  0  0  0  0  0  0  0  0
   42.2600   33.9740   36.6040 O   0  0  0  0  0  0  0  0  0  0  0  0
   41.8040   34.8610   36.7070 H   0  0  0  0  0  0  0  0  0  0  0  0
   39.9580   29.0290   39.2310 C   0  0  0  0  0  0  0  0  0  0  0  0
   40.7220   29.2570   40.0320 H   0  0  0  0  0  0  0  0  0  0  0  0
   39.7650   27.9350   39.2600 H   0  0  0  0  0  0  0  0  0  0  0  0
   37.1600   31.4530   39.0270 C   0  0  0  0  0  0  0  0  0  0  0  0
   36.6340   31.3400   40.3020 C   0  0  0  0  0  0  0  0  0  0  0  0
   37.2260   30.4500   41.2200 C   0  0  0  0  0  0  0  0  0  0  0  0
   38.3180   29.7110   40.8270 N   0  0  0  0  0  0  0  0  0  0  0  0
   38.7920   29.8600   39.5670 C   0  0  0  0  0  0  0  0  0  0  0  0
   38.2200   30.7140   38.6930 N   0  0  0  0  0  0  0  0  0  0  0  0
   36.6340   32.1590   38.4120 H   0  0  0  0  0  0  0  0  0  0  0  0
   35.7880   31.8450   40.7700 H   0  0  0  0  0  0  0  0  0  0  0  0
   36.8880   30.2890   42.2380 H   0  0  0  0  0  0  0  0  0  0  0  0
  1 14  1  0  0  0  0
  2  8  1  6  0  0  0
  3  1  1  6  0  0  0
  3  2  1  0  0  0  0
  4  5  1  0  0  0  0
  4  3  1  0  0  0  0
  5  6  1  0  0  0  0
  6 10  1  1  0  0  0
  7 12  1  6  0  0  0
  7  2  1  0  0  0  0
  7  6  1  0  0  0  0
  9  8  1  0  0  0  0
 10 11  1  0  0  0  0
 12 13  1  0  0  0  0
 14 16  1  0  0  0  0
 14 21  1  0  0  0  0
 14 15  1  0  0  0  0
 17 18  1  0  0  0  0
 18 24  1  0  0  0  0
 18 19  2  0  0  0  0
 19 25  1  0  0  0  0
 20 19  1  0  0  0  0
 21 20  2  0  0  0  0
 22 17  2  0  0  0  0
 22 21  1  0  0  0  0
 23 17  1  0  0  0  0
M  END
>  <minimizedAffinity>
-4.53556395

$$$$
