
 OpenBabel03252508473D

 48 50  0  0  1  0  0  0  0  0999 V2000
   42.7470   31.5880   42.5600 N   0  0  0  0  0  0  0  0  0  0  0  0
   42.9200   31.9660   43.5320 H   0  0  0  0  0  0  0  0  0  0  0  0
   43.1110   32.5970   41.6220 C   0  0  0  0  0  0  0  0  0  0  0  0
   43.6140   32.1930   40.7100 H   0  0  0  0  0  0  0  0  0  0  0  0
   42.1520   33.0680   41.2710 H   0  0  0  0  0  0  0  0  0  0  0  0
   43.6760   35.0160   41.8860 C   0  0  0  0  0  0  0  0  0  0  0  0
   43.9490   33.6950   42.1780 C   0  0  0  0  0  0  0  0  0  0  0  0
   45.0250   33.4150   43.0020 C   0  0  0  0  0  0  0  0  0  0  0  0
   45.7910   34.4260   43.5090 C   0  0  0  0  0  0  0  0  0  0  0  0
   45.5280   35.7460   43.2260 C   0  0  0  0  0  0  0  0  0  0  0  0
   44.4480   35.9820   42.4010 C   0  0  0  0  0  0  0  0  0  0  0  0
   45.2410   32.3700   43.2320 H   0  0  0  0  0  0  0  0  0  0  0  0
   46.6140   34.1190   44.1440 H   0  0  0  0  0  0  0  0  0  0  0  0
   46.1480   36.5400   43.6370 H   0  0  0  0  0  0  0  0  0  0  0  0
   44.1850   37.0060   42.1370 H   0  0  0  0  0  0  0  0  0  0  0  0
   40.2480   35.8340   40.5210 C   0  0  0  0  0  0  0  0  0  0  0  0
   41.2810   35.6320   41.4530 C   0  0  0  0  0  0  0  0  0  0  0  0
   42.5300   35.2530   41.0130 C   0  0  0  0  0  0  0  0  0  0  0  0
   42.6920   35.0920   39.6680 N   0  0  0  0  0  0  0  0  0  0  0  0
   41.6880   35.2900   38.7780 C   0  0  0  0  0  0  0  0  0  0  0  0
   40.4770   35.6580   39.2190 N   0  0  0  0  0  0  0  0  0  0  0  0
   39.2690   36.1350   40.9220 H   0  0  0  0  0  0  0  0  0  0  0  0
   41.1680   35.7550   42.5140 H   0  0  0  0  0  0  0  0  0  0  0  0
   41.8740   35.1460   37.7130 H   0  0  0  0  0  0  0  0  0  0  0  0
   41.0680   31.2280   42.5290 S   0  0  0  0  0  0  0  0  0  0  0  0
   40.2640   32.4510   42.1910 O   0  0  0  0  0  0  0  0  0  0  0  0
   39.6420   32.8390   42.8320 H   0  0  0  0  0  0  0  0  0  0  0  0
   40.6180   30.6360   43.8260 O   0  0  0  0  0  0  0  0  0  0  0  0
   40.6810   31.1470   44.6570 H   0  0  0  0  0  0  0  0  0  0  0  0
   40.8480   30.0850   41.3180 O   0  0  0  0  0  0  0  0  0  0  0  0
   40.0240   29.0740   41.8100 C   0  0  0  0  0  0  0  0  0  0  0  0
   39.1940   28.9860   41.0780 H   0  0  0  0  0  0  0  0  0  0  0  0
   39.6150   29.2780   42.8070 H   0  0  0  0  0  0  0  0  0  0  0  0
   40.7960   27.7630   41.7650 C   0  0  0  0  0  0  0  0  0  0  0  0
   40.4910   27.2090   40.8640 H   0  0  0  0  0  0  0  0  0  0  0  0
   41.8960   27.9660   41.7630 H   0  0  0  0  0  0  0  0  0  0  0  0
   41.2580   27.5290   44.2050 C   0  0  2  0  0  3  0  0  0  0  0  0
   40.4850   27.0170   43.0410 C   0  0  2  0  0  3  0  0  0  0  0  0
   40.6970   25.6700   42.7670 O   0  0  0  0  0  0  0  0  0  0  0  0
   40.7260   24.8650   43.8780 C   0  0  0  0  0  2  0  0  0  0  0  0
   41.9080   25.1700   44.7650 C   0  0  1  0  0  3  0  0  0  0  0  0
   42.3290   26.5980   44.7170 C   0  0  2  0  0  3  0  0  0  0  0  0
   40.3970   27.8480   45.2840 O   0  0  0  0  0  0  0  0  0  0  0  0
   39.4700   27.9260   44.9820 H   0  0  0  0  0  0  0  0  0  0  0  0
   41.6720   24.7930   46.0880 O   0  0  0  0  0  0  0  0  0  0  0  0
   42.3960   25.1940   46.6320 H   0  0  0  0  0  0  0  0  0  0  0  0
   42.6120   27.0480   46.0270 O   0  0  0  0  0  0  0  0  0  0  0  0
   42.7920   28.0340   45.9010 H   0  0  0  0  0  0  0  0  0  0  0  0
  1  2  1  0  0  0  0
  3  7  1  0  0  0  0
  3  1  1  0  0  0  0
  4  3  1  0  0  0  0
  5  3  1  0  0  0  0
  6  7  2  0  0  0  0
  6 11  1  0  0  0  0
  7  8  1  0  0  0  0
  8 12  1  0  0  0  0
  8  9  2  0  0  0  0
  9 13  1  0  0  0  0
 10  9  1  0  0  0  0
 10 14  1  0  0  0  0
 11 10  2  0  0  0  0
 15 11  1  0  0  0  0
 16 22  1  0  0  0  0
 16 17  1  0  0  0  0
 17 23  1  0  0  0  0
 18 17  2  0  0  0  0
 18  6  1  0  0  0  0
 19 18  1  0  0  0  0
 20 21  1  0  0  0  0
 20 19  2  0  0  0  0
 21 16  2  0  0  0  0
 24 20  1  0  0  0  0
 25  1  1  0  0  0  0
 25 28  1  0  0  0  0
 26 25  1  0  0  0  0
 26 27  1  0  0  0  0
 28 29  1  0  0  0  0
 30 31  1  0  0  0  0
 30 25  1  0  0  0  0
 31 33  1  0  0  0  0
 32 31  1  0  0  0  0
 34 31  1  0  0  0  0
 35 34  1  0  0  0  0
 36 34  1  0  0  0  0
 37 42  1  0  0  0  0
 37 43  1  1  0  0  0
 38 34  1  6  0  0  0
 38 37  1  0  0  0  0
 39 38  1  0  0  0  0
 39 40  1  0  0  0  0
 40 41  1  0  0  0  0
 41 45  1  1  0  0  0
 42 41  1  0  0  0  0
 42 47  1  1  0  0  0
 44 43  1  0  0  0  0
 45 46  1  0  0  0  0
 48 47  1  0  0  0  0
M  END
>  <minimizedAffinity>
-5.39079666

>  <minimizedRMSD>
1.54419696

$$$$
