
 OpenBabel03242522503D

 29 30  0  0  1  0  0  0  0  0999 V2000
   47.5940   32.1930   48.7700 O   0  0  0  0  0  0  0  0  0  0  0  0
   45.8640   30.3860   47.9980 O   0  0  0  0  0  0  0  0  0  0  0  0
   45.9960   31.7870   48.6400 P   0  0  1  0  0  0  0  0  0  0  0  0
   45.2540   31.6670   50.1430 O   0  0  0  0  0  0  0  0  0  0  0  0
   44.4450   32.2300   50.2400 H   0  0  0  0  0  0  0  0  0  0  0  0
   45.1800   32.8950   47.6660 O   0  0  0  0  0  0  0  0  0  0  0  0
   47.1400   32.7090   44.6120 C   0  0  0  0  0  0  0  0  0  0  0  0
   46.6320   32.4170   45.8900 C   0  0  0  0  0  0  0  0  0  0  0  0
   45.6440   33.2210   46.4100 C   0  0  0  0  0  0  0  0  0  0  0  0
   45.2120   34.2560   45.6550 N   0  0  0  0  0  0  0  0  0  0  0  0
   45.6910   34.5380   44.4380 C   0  0  0  0  0  0  0  0  0  0  0  0
   46.6680   33.7520   43.9130 N   0  0  0  0  0  0  0  0  0  0  0  0
   47.9140   32.1380   44.1180 H   0  0  0  0  0  0  0  0  0  0  0  0
   47.1060   31.5650   46.3030 H   0  0  0  0  0  0  0  0  0  0  0  0
   45.3260   35.3660   43.8660 H   0  0  0  0  0  0  0  0  0  0  0  0
   48.7210   31.4450   48.7140 C   0  0  0  0  0  0  0  0  0  0  0  0
   49.5930   31.7880   49.5860 O   0  0  0  0  0  0  0  0  0  0  0  0
   49.0670   29.2920   47.5420 C   0  0  2  0  0  3  0  0  0  0  0  0
   49.7100   30.4290   48.3050 C   0  0  2  0  0  3  0  0  0  0  0  0
   50.4640   29.9780   49.3800 O   0  0  0  0  0  0  0  0  0  0  0  0
   50.0470   28.7870   49.9250 C   0  0  0  0  0  2  0  0  0  0  0  0
   49.9880   27.6240   48.9870 C   0  0  2  0  0  3  0  0  0  0  0  0
   50.1020   28.1730   47.5770 C   0  0  1  0  0  3  0  0  0  0  0  0
   48.8310   29.6820   46.2020 O   0  0  0  0  0  0  0  0  0  0  0  0
   49.5910   29.3660   45.6450 H   0  0  0  0  0  0  0  0  0  0  0  0
   48.7080   27.0280   49.0390 O   0  0  0  0  0  0  0  0  0  0  0  0
   48.4230   26.8390   49.9580 H   0  0  0  0  0  0  0  0  0  0  0  0
   49.8580   27.1940   46.6280 O   0  0  0  0  0  0  0  0  0  0  0  0
   49.1010   27.4290   46.0590 H   0  0  0  0  0  0  0  0  0  0  0  0
  3  2  2  6  0  0  0
  3  1  1  0  0  0  0
  3  4  1  0  0  0  0
  4  5  1  0  0  0  0
  6  3  1  0  0  0  0
  7  8  1  0  0  0  0
  8 14  1  0  0  0  0
  8  9  2  0  0  0  0
  9  6  1  0  0  0  0
 10  9  1  0  0  0  0
 11 10  2  0  0  0  0
 12 11  1  0  0  0  0
 12  7  2  0  0  0  0
 13  7  1  0  0  0  0
 15 11  1  0  0  0  0
 16  1  1  0  0  0  0
 16 17  2  0  0  0  0
 18 24  1  6  0  0  0
 18 23  1  0  0  0  0
 18 19  1  0  0  0  0
 19 16  1  1  0  0  0
 19 20  1  0  0  0  0
 20 21  1  0  0  0  0
 22 26  1  6  0  0  0
 22 21  1  0  0  0  0
 23 28  1  6  0  0  0
 23 22  1  0  0  0  0
 25 24  1  0  0  0  0
 26 27  1  0  0  0  0
 29 28  1  0  0  0  0
M  END
>  <minimizedAffinity>
-4.66975737

>  <minimizedRMSD>
0.85425812

$$$$
