
 OpenBabel03242522503D

 29 30  0  0  1  0  0  0  0  0999 V2000
   47.3890   31.7020   48.4800 O   0  0  0  0  0  0  0  0  0  0  0  0
   45.1330   30.5650   47.7930 O   0  0  0  0  0  0  0  0  0  0  0  0
   45.7370   31.7990   48.5020 P   0  0  1  0  0  0  0  0  0  0  0  0
   45.1270   31.7650   50.0680 O   0  0  0  0  0  0  0  0  0  0  0  0
   44.5380   32.5300   50.2880 H   0  0  0  0  0  0  0  0  0  0  0  0
   45.2150   33.1840   47.6950 O   0  0  0  0  0  0  0  0  0  0  0  0
   47.0680   32.9140   44.5820 C   0  0  0  0  0  0  0  0  0  0  0  0
   46.6330   32.6830   45.8990 C   0  0  0  0  0  0  0  0  0  0  0  0
   45.6050   33.4470   46.4000 C   0  0  0  0  0  0  0  0  0  0  0  0
   45.0640   34.3860   45.5910 N   0  0  0  0  0  0  0  0  0  0  0  0
   45.4740   34.6100   44.3370 C   0  0  0  0  0  0  0  0  0  0  0  0
   46.4900   33.8620   43.8290 N   0  0  0  0  0  0  0  0  0  0  0  0
   47.8660   32.3680   44.0980 H   0  0  0  0  0  0  0  0  0  0  0  0
   47.1870   31.9030   46.3520 H   0  0  0  0  0  0  0  0  0  0  0  0
   45.0240   35.3620   43.7220 H   0  0  0  0  0  0  0  0  0  0  0  0
   48.2330   30.6710   48.7170 C   0  0  0  0  0  0  0  0  0  0  0  0
   48.7350   30.6960   49.8950 O   0  0  0  0  0  0  0  0  0  0  0  0
   50.4010   29.7470   47.9560 C   0  0  2  0  0  3  0  0  0  0  0  0
   49.0350   29.4460   48.5360 C   0  0  2  0  0  3  0  0  0  0  0  0
   48.3550   28.4850   47.8000 O   0  0  0  0  0  0  0  0  0  0  0  0
   48.6850   28.4290   46.4680 C   0  0  0  0  0  2  0  0  0  0  0  0
   50.1280   28.1910   46.1600 C   0  0  2  0  0  3  0  0  0  0  0  0
   50.9070   28.4030   47.4470 C   0  0  1  0  0  3  0  0  0  0  0  0
   51.2610   30.2270   48.9700 O   0  0  0  0  0  0  0  0  0  0  0  0
   51.7940   29.4640   49.3180 H   0  0  0  0  0  0  0  0  0  0  0  0
   50.6060   29.1900   45.2810 O   0  0  0  0  0  0  0  0  0  0  0  0
   50.0250   29.3060   44.5000 H   0  0  0  0  0  0  0  0  0  0  0  0
   52.2720   28.4000   47.2220 O   0  0  0  0  0  0  0  0  0  0  0  0
   52.6810   29.2420   47.4940 H   0  0  0  0  0  0  0  0  0  0  0  0
  1  3  1  0  0  0  0
  1 16  1  0  0  0  0
  3  2  2  6  0  0  0
  3  4  1  0  0  0  0
  4  5  1  0  0  0  0
  6  3  1  0  0  0  0
  7  8  1  0  0  0  0
  8 14  1  0  0  0  0
  8  9  2  0  0  0  0
  9  6  1  0  0  0  0
 10  9  1  0  0  0  0
 11 10  2  0  0  0  0
 12 11  1  0  0  0  0
 12  7  2  0  0  0  0
 13  7  1  0  0  0  0
 15 11  1  0  0  0  0
 16 17  2  0  0  0  0
 18 19  1  0  0  0  0
 18 24  1  1  0  0  0
 19 16  1  6  0  0  0
 20 19  1  0  0  0  0
 21 20  1  0  0  0  0
 22 26  1  6  0  0  0
 22 21  1  0  0  0  0
 22 23  1  0  0  0  0
 23 28  1  6  0  0  0
 23 18  1  0  0  0  0
 24 25  1  0  0  0  0
 27 26  1  0  0  0  0
 28 29  1  0  0  0  0
M  END
>  <minimizedAffinity>
-4.54415941

>  <minimizedRMSD>
1.23430526

$$$$
