
 OpenBabel03252508003D

 32 34  0  0  1  0  0  0  0  0999 V2000
   46.7360   34.5580   43.1820 C   0  0  0  0  0  0  0  0  0  0  0  0
   45.6710   35.5050   43.2920 C   0  0  0  0  0  0  0  0  0  0  0  0
   44.8090   35.3520   44.3840 C   0  0  0  0  0  0  0  0  0  0  0  0
   45.0350   34.3370   45.2480 N   0  0  0  0  0  0  0  0  0  0  0  0
   46.0830   33.4600   45.0780 C   0  0  0  0  0  0  0  0  0  0  0  0
   46.9220   33.5630   44.0640 N   0  0  0  0  0  0  0  0  0  0  0  0
   45.5510   36.2940   42.5620 H   0  0  0  0  0  0  0  0  0  0  0  0
   43.9880   36.0330   44.5230 H   0  0  0  0  0  0  0  0  0  0  0  0
   46.2780   32.3760   46.0880 C   0  0  1  0  0  0  0  0  0  0  0  0
   46.9880   32.7020   47.3830 C   0  0  0  0  0  0  0  0  0  0  0  0
   45.4920   32.5560   47.3260 C   0  0  1  0  0  0  0  0  0  0  0  0
   46.4580   31.3500   45.7270 H   0  0  0  0  0  0  0  0  0  0  0  0
   47.4460   33.7210   47.3820 H   0  0  0  0  0  0  0  0  0  0  0  0
   47.6160   31.9320   47.8400 H   0  0  0  0  0  0  0  0  0  0  0  0
   45.1160   31.7050   47.9180 H   0  0  0  0  0  0  0  0  0  0  0  0
   44.8000   33.7980   47.5780 N   0  0  0  0  0  0  0  0  0  0  0  0
   45.3650   34.6260   47.7070 H   0  0  0  0  0  0  0  0  0  0  0  0
   43.8410   33.8600   47.2620 H   0  0  0  0  0  0  0  0  0  0  0  0
   47.6000   34.7690   42.0470 C   0  0  0  0  0  0  0  0  0  0  0  0
   48.7340   35.3620   42.1290 O   0  0  0  0  0  0  0  0  0  0  0  0
   47.2680   32.7980   40.7120 C   0  0  1  0  0  3  0  0  0  0  0  0
   47.2480   34.3120   40.6710 C   0  0  2  0  0  3  0  0  0  0  0  0
   48.2250   34.8210   39.8220 O   0  0  0  0  0  0  0  0  0  0  0  0
   48.1460   34.3000   38.5410 C   0  0  0  0  0  2  0  0  0  0  0  0
   48.3140   32.8090   38.5010 C   0  0  1  0  0  3  0  0  0  0  0  0
   47.2380   32.1860   39.3460 C   0  0  1  0  0  3  0  0  0  0  0  0
   48.4130   32.3650   41.3740 O   0  0  0  0  0  0  0  0  0  0  0  0
   49.2300   32.4230   40.8130 H   0  0  0  0  0  0  0  0  0  0  0  0
   48.0720   32.3930   37.1850 O   0  0  0  0  0  0  0  0  0  0  0  0
   48.7660   31.7540   36.8910 H   0  0  0  0  0  0  0  0  0  0  0  0
   47.5430   30.8180   39.5240 O   0  0  0  0  0  0  0  0  0  0  0  0
   48.1330   30.6850   40.3190 H   0  0  0  0  0  0  0  0  0  0  0  0
  1  2  2  0  0  0  0
  1  6  1  0  0  0  0
  2  3  1  0  0  0  0
  3  8  1  0  0  0  0
  3  4  2  0  0  0  0
  5  4  1  0  0  0  0
  5  9  1  0  0  0  0
  6  5  2  0  0  0  0
  7  2  1  0  0  0  0
  9 12  1  6  0  0  0
  9 11  1  0  0  0  0
  9 10  1  0  0  0  0
 10 14  1  0  0  0  0
 11 10  1  0  0  0  0
 11 16  1  0  0  0  0
 11 15  1  1  0  0  0
 13 10  1  0  0  0  0
 16 17  1  0  0  0  0
 18 16  1  0  0  0  0
 19 20  2  0  0  0  0
 19  1  1  0  0  0  0
 21 27  1  6  0  0  0
 22 21  1  0  0  0  0
 22 19  1  1  0  0  0
 23 22  1  0  0  0  0
 24 23  1  0  0  0  0
 25 29  1  6  0  0  0
 25 24  1  0  0  0  0
 25 26  1  0  0  0  0
 26 31  1  1  0  0  0
 26 21  1  0  0  0  0
 28 27  1  0  0  0  0
 30 29  1  0  0  0  0
 31 32  1  0  0  0  0
M  END
>  <minimizedAffinity>
-5.70466757

>  <minimizedRMSD>
2.0024147

$$$$
