
 OpenBabel03252507463D

 40 42  0  0  1  0  0  0  0  0999 V2000
   48.8580   33.9040   41.2550 C   0  0  0  0  0  0  0  0  0  0  0  0
   48.9990   32.7000   40.5920 C   0  0  0  0  0  0  0  0  0  0  0  0
   50.0850   31.8680   40.8250 C   0  0  0  0  0  0  0  0  0  0  0  0
   51.0080   32.3020   41.7460 N   0  0  0  0  0  0  0  0  0  0  0  0
   50.8360   33.4810   42.3720 C   0  0  0  0  0  0  0  0  0  0  0  0
   49.7900   34.2580   42.1320 N   0  0  0  0  0  0  0  0  0  0  0  0
   50.1990   30.9260   40.3090 H   0  0  0  0  0  0  0  0  0  0  0  0
   51.5390   33.8590   43.1030 H   0  0  0  0  0  0  0  0  0  0  0  0
   47.6680   34.7140   40.9360 C   0  0  0  0  0  0  0  0  0  0  0  0
   46.9870   34.1740   40.2440 H   0  0  0  0  0  0  0  0  0  0  0  0
   47.9470   35.6620   40.4220 H   0  0  0  0  0  0  0  0  0  0  0  0
   46.8370   35.0360   42.1530 C   0  0  0  0  0  0  0  0  0  0  0  0
   47.1490   36.0330   42.5340 H   0  0  0  0  0  0  0  0  0  0  0  0
   47.0570   34.2620   42.9170 H   0  0  0  0  0  0  0  0  0  0  0  0
   45.3710   34.9770   41.9200 C   0  0  0  0  0  0  0  0  0  0  0  0
   44.4860   35.6430   42.8190 C   0  0  0  0  0  0  0  0  0  0  0  0
   42.8280   35.2790   42.1110 S   0  0  0  0  0  0  0  0  0  0  0  0
   43.6230   34.2730   40.7000 C   0  0  0  0  0  0  0  0  0  0  0  0
   44.7310   34.3660   40.9480 N   0  0  0  0  0  0  0  0  0  0  0  0
   44.7500   36.2130   43.6910 H   0  0  0  0  0  0  0  0  0  0  0  0
   42.8780   33.6480   39.6990 O   0  0  0  0  0  0  0  0  0  0  0  0
   40.9640   33.8010   37.8760 O   0  0  0  0  0  0  0  0  0  0  0  0
   41.9550   34.6420   38.6780 P   0  0  0  0  0  0  0  0  0  0  0  0
   41.1180   35.7440   39.6370 O   0  0  0  0  0  0  0  0  0  0  0  0
   40.2890   35.9770   39.1690 H   0  0  0  0  0  0  0  0  0  0  0  0
   42.9910   35.5000   37.6380 O   0  0  0  0  0  0  0  0  0  0  0  0
   42.5540   35.8570   36.8490 H   0  0  0  0  0  0  0  0  0  0  0  0
   47.7490   32.1820   39.3890 S   0  0  0  0  0  0  0  0  0  0  0  0
   48.8630   32.6830   37.0000 C   0  0  2  0  0  3  0  0  0  0  0  0
   48.5390   31.5140   37.9360 C   0  0  2  0  0  3  0  0  0  0  0  0
   47.6360   30.6350   37.3330 O   0  0  0  0  0  0  0  0  0  0  0  0
   46.6600   31.4150   36.7110 C   0  0  0  0  0  2  0  0  0  0  0  0
   47.2050   31.7740   35.3490 C   0  0  2  0  0  3  0  0  0  0  0  0
   48.6100   32.3050   35.5590 C   0  0  1  0  0  3  0  0  0  0  0  0
   50.2150   33.0070   37.1080 O   0  0  0  0  0  0  0  0  0  0  0  0
   50.4010   33.7030   36.4600 H   0  0  0  0  0  0  0  0  0  0  0  0
   46.3770   32.6930   34.7010 O   0  0  0  0  0  0  0  0  0  0  0  0
   46.8660   33.1900   34.0040 H   0  0  0  0  0  0  0  0  0  0  0  0
   48.7870   33.4470   34.7910 O   0  0  0  0  0  0  0  0  0  0  0  0
   48.8000   34.2840   35.2890 H   0  0  0  0  0  0  0  0  0  0  0  0
  1  6  1  0  0  0  0
  2  3  1  0  0  0  0
  2  1  2  0  0  0  0
  3  4  2  0  0  0  0
  4  5  1  0  0  0  0
  5  8  1  0  0  0  0
  6  5  2  0  0  0  0
  7  3  1  0  0  0  0
  9  1  1  0  0  0  0
  9 12  1  0  0  0  0
 10  9  1  0  0  0  0
 11  9  1  0  0  0  0
 12 13  1  0  0  0  0
 12 14  1  0  0  0  0
 15 12  1  0  0  0  0
 15 16  2  0  0  0  0
 16 20  1  0  0  0  0
 17 16  1  0  0  0  0
 18 19  2  0  0  0  0
 18 17  1  0  0  0  0
 19 15  1  0  0  0  0
 21 18  1  0  0  0  0
 22 23  2  0  0  0  0
 23 24  1  0  0  0  0
 23 21  1  0  0  0  0
 25 24  1  0  0  0  0
 26 23  1  0  0  0  0
 27 26  1  0  0  0  0
 28  2  1  0  0  0  0
 29 35  1  6  0  0  0
 29 30  1  0  0  0  0
 30 28  1  1  0  0  0
 31 30  1  0  0  0  0
 32 31  1  0  0  0  0
 33 37  1  1  0  0  0
 33 34  1  0  0  0  0
 33 32  1  0  0  0  0
 34 39  1  6  0  0  0
 34 29  1  0  0  0  0
 36 35  1  0  0  0  0
 38 37  1  0  0  0  0
 39 40  1  0  0  0  0
M  END
>  <minimizedAffinity>
-5.87327957

>  <minimizedRMSD>
2.02266049

$$$$
