
 OpenBabel03252505493D

 25 26  0  0  1  0  0  0  0  0999 V2000
   45.0620   33.1180   47.6000 O   0  0  0  0  0  0  0  0  0  0  0  0
   44.6520   35.5880   45.0360 C   0  0  0  0  0  0  0  0  0  0  0  0
   45.4490   35.0850   43.9960 C   0  0  0  0  0  0  0  0  0  0  0  0
   46.1160   33.8880   44.2110 C   0  0  0  0  0  0  0  0  0  0  0  0
   45.9640   33.2670   45.4100 N   0  0  0  0  0  0  0  0  0  0  0  0
   45.1960   33.7720   46.3880 C   0  0  0  0  0  0  0  0  0  0  0  0
   44.5380   34.9250   46.2170 N   0  0  0  0  0  0  0  0  0  0  0  0
   44.1080   36.5290   44.9130 H   0  0  0  0  0  0  0  0  0  0  0  0
   46.7190   33.5250   43.3940 H   0  0  0  0  0  0  0  0  0  0  0  0
   45.4960   35.8980   42.7510 C   0  0  0  0  0  0  0  0  0  0  0  0
   45.2610   37.2040   43.1220 F   0  0  0  0  0  0  0  0  0  0  0  0
   44.4940   35.4370   41.9090 F   0  0  0  0  0  0  0  0  0  0  0  0
   46.7330   35.7050   42.1660 F   0  0  0  0  0  0  0  0  0  0  0  0
   45.9680   30.9700   46.9820 C   0  0  1  0  0  0  0  0  0  0  0  0
   45.9260   32.0810   48.0130 C   0  0  1  0  0  0  0  0  0  0  0  0
   47.2050   32.6210   48.0550 O   0  0  0  0  0  0  0  0  0  0  0  0
   48.1230   31.7780   48.6580 C   0  0  0  0  0  0  0  0  0  0  0  0
   48.1410   30.3950   48.0790 C   0  0  2  0  0  0  0  0  0  0  0  0
   46.8520   29.8930   47.5430 C   0  0  1  0  0  0  0  0  0  0  0  0
   44.6930   30.4860   46.7410 O   0  0  0  0  0  0  0  0  0  0  0  0
   44.6720   30.0010   45.9020 H   0  0  0  0  0  0  0  0  0  0  0  0
   48.5260   29.5320   49.1150 O   0  0  0  0  0  0  0  0  0  0  0  0
   49.4110   29.1500   48.9960 H   0  0  0  0  0  0  0  0  0  0  0  0
   46.1110   29.2670   48.5640 O   0  0  0  0  0  0  0  0  0  0  0  0
   46.4600   29.5300   49.4480 H   0  0  0  0  0  0  0  0  0  0  0  0
  2  7  1  0  0  0  0
  3  4  1  0  0  0  0
  3  2  2  0  0  0  0
  4  5  2  0  0  0  0
  5  6  1  0  0  0  0
  6  1  1  0  0  0  0
  7  6  2  0  0  0  0
  8  2  1  0  0  0  0
  9  4  1  0  0  0  0
 10 11  1  0  0  0  0
 10  3  1  0  0  0  0
 12 10  1  0  0  0  0
 13 10  1  0  0  0  0
 14 20  1  1  0  0  0
 14 19  1  0  0  0  0
 14 15  1  0  0  0  0
 15  1  1  6  0  0  0
 15 16  1  0  0  0  0
 16 17  1  0  0  0  0
 18 17  1  0  0  0  0
 18 22  1  1  0  0  0
 19 18  1  0  0  0  0
 19 24  1  1  0  0  0
 21 20  1  0  0  0  0
 23 22  1  0  0  0  0
 24 25  1  0  0  0  0
M  END
>  <minimizedAffinity>
-6.10003471

>  <minimizedRMSD>
0.971744776

$$$$
