
 OpenBabel03252502573D

 40 42  0  0  1  0  0  0  0  0999 V2000
   39.0350   29.4580   42.9960 Br  0  0  0  0  0  0  0  0  0  0  0  0
   37.4960   29.5200   41.8290 C   0  0  0  0  0  0  0  0  0  0  0  0
   36.6980   28.4070   41.8430 C   0  0  0  0  0  0  0  0  0  0  0  0
   35.5950   28.4770   40.9930 C   0  0  0  0  0  0  0  0  0  0  0  0
   35.3180   29.5780   40.1920 C   0  0  0  0  0  0  0  0  0  0  0  0
   36.1730   30.6470   40.2440 C   0  0  0  0  0  0  0  0  0  0  0  0
   37.2770   30.6340   41.0630 C   0  0  0  0  0  0  0  0  0  0  0  0
   34.9030   27.6490   40.9310 H   0  0  0  0  0  0  0  0  0  0  0  0
   34.4410   29.5810   39.5450 H   0  0  0  0  0  0  0  0  0  0  0  0
   35.9690   31.5200   39.6200 H   0  0  0  0  0  0  0  0  0  0  0  0
   36.8760   27.1870   42.6340 C   0  0  0  0  0  0  0  0  0  0  0  0
   35.8540   26.8640   42.9610 H   0  0  0  0  0  0  0  0  0  0  0  0
   37.4400   27.3830   43.5690 H   0  0  0  0  0  0  0  0  0  0  0  0
   39.0970   25.1420   40.4290 C   0  0  0  0  0  0  0  0  0  0  0  0
   38.4900   23.8850   40.5340 C   0  0  0  0  0  0  0  0  0  0  0  0
   37.3660   23.7510   41.3290 C   0  0  0  0  0  0  0  0  0  0  0  0
   36.9010   24.8370   41.9700 N   0  0  0  0  0  0  0  0  0  0  0  0
   37.4910   26.0610   41.8700 C   0  0  0  0  0  0  0  0  0  0  0  0
   38.5870   26.1700   41.0880 N   0  0  0  0  0  0  0  0  0  0  0  0
   39.9740   25.4170   39.8550 H   0  0  0  0  0  0  0  0  0  0  0  0
   38.9680   23.1120   39.9680 H   0  0  0  0  0  0  0  0  0  0  0  0
   36.9170   22.7740   41.3930 H   0  0  0  0  0  0  0  0  0  0  0  0
   38.1420   31.7350   41.1050 O   0  0  0  0  0  0  0  0  0  0  0  0
   37.9500   33.7630   39.4800 O   0  0  0  0  0  0  0  0  0  0  0  0
   38.7530   32.4900   39.7090 P   0  0  2  0  0  0  0  0  0  0  0  0
   38.5620   31.4250   38.4250 O   0  0  0  0  0  0  0  0  0  0  0  0
   38.1920   31.8780   37.6190 H   0  0  0  0  0  0  0  0  0  0  0  0
   40.3800   32.9290   39.8820 O   0  0  0  0  0  0  0  0  0  0  0  0
   41.7540   32.6550   37.9320 C   0  0  2  0  0  3  0  0  0  0  0  0
   40.8610   33.5680   38.7420 C   0  0  2  0  0  3  0  0  0  0  0  0
   41.5620   34.7220   39.0720 O   0  0  0  0  0  0  0  0  0  0  0  0
   42.8140   34.4750   39.6150 C   0  0  0  0  0  2  0  0  0  0  0  0
   43.7620   33.7960   38.6770 C   0  0  1  0  0  3  0  0  0  0  0  0
   42.9640   33.4250   37.4290 C   0  0  2  0  0  3  0  0  0  0  0  0
   41.1100   32.1530   36.7880 O   0  0  0  0  0  0  0  0  0  0  0  0
   41.8390   31.8000   36.2200 H   0  0  0  0  0  0  0  0  0  0  0  0
   44.8160   34.5910   38.2850 O   0  0  0  0  0  0  0  0  0  0  0  0
   45.2020   34.1620   37.4780 H   0  0  0  0  0  0  0  0  0  0  0  0
   42.5170   34.5380   36.7320 O   0  0  0  0  0  0  0  0  0  0  0  0
   43.0130   35.3670   36.9270 H   0  0  0  0  0  0  0  0  0  0  0  0
  2  3  1  0  0  0  0
  2  1  1  0  0  0  0
  3 11  1  0  0  0  0
  4  3  2  0  0  0  0
  5  6  2  0  0  0  0
  5  4  1  0  0  0  0
  6  7  1  0  0  0  0
  7 23  1  0  0  0  0
  7  2  2  0  0  0  0
  8  4  1  0  0  0  0
  9  5  1  0  0  0  0
 10  6  1  0  0  0  0
 11 12  1  0  0  0  0
 11 13  1  0  0  0  0
 14 15  2  0  0  0  0
 14 19  1  0  0  0  0
 15 16  1  0  0  0  0
 16 22  1  0  0  0  0
 16 17  2  0  0  0  0
 18 17  1  0  0  0  0
 18 11  1  0  0  0  0
 19 18  2  0  0  0  0
 20 14  1  0  0  0  0
 21 15  1  0  0  0  0
 25 24  2  6  0  0  0
 25 28  1  0  0  0  0
 25 23  1  0  0  0  0
 26 25  1  0  0  0  0
 27 26  1  0  0  0  0
 29 35  1  6  0  0  0
 29 30  1  0  0  0  0
 30 31  1  0  0  0  0
 30 28  1  1  0  0  0
 31 32  1  0  0  0  0
 33 37  1  6  0  0  0
 33 32  1  0  0  0  0
 34 39  1  1  0  0  0
 34 29  1  0  0  0  0
 34 33  1  0  0  0  0
 36 35  1  0  0  0  0
 38 37  1  0  0  0  0
 39 40  1  0  0  0  0
M  END
>  <minimizedAffinity>
-6.99873781

$$$$

 OpenBabel03252502573D

 40 42  0  0  1  0  0  0  0  0999 V2000
   39.5750   27.1300   39.9740 Br  0  0  0  0  0  0  0  0  0  0  0  0
   38.5270   27.3960   41.5760 C   0  0  0  0  0  0  0  0  0  0  0  0
   39.0890   26.9280   42.7340 C   0  0  0  0  0  0  0  0  0  0  0  0
   38.3140   27.1330   43.8760 C   0  0  0  0  0  0  0  0  0  0  0  0
   37.0730   27.7570   43.8520 C   0  0  0  0  0  0  0  0  0  0  0  0
   36.5910   28.1930   42.6470 C   0  0  0  0  0  0  0  0  0  0  0  0
   37.3100   28.0190   41.4890 C   0  0  0  0  0  0  0  0  0  0  0  0
   38.6680   26.8000   44.8400 H   0  0  0  0  0  0  0  0  0  0  0  0
   36.5070   27.8920   44.7740 H   0  0  0  0  0  0  0  0  0  0  0  0
   35.6160   28.6860   42.6120 H   0  0  0  0  0  0  0  0  0  0  0  0
   40.3800   26.2560   42.8960 C   0  0  0  0  0  0  0  0  0  0  0  0
   40.7040   25.9300   41.8740 H   0  0  0  0  0  0  0  0  0  0  0  0
   40.2850   25.3240   43.4910 H   0  0  0  0  0  0  0  0  0  0  0  0
   43.1480   27.6440   44.9920 C   0  0  0  0  0  0  0  0  0  0  0  0
   43.3690   28.8730   44.3580 C   0  0  0  0  0  0  0  0  0  0  0  0
   42.5980   29.2050   43.2580 C   0  0  0  0  0  0  0  0  0  0  0  0
   41.6640   28.3320   42.8420 N   0  0  0  0  0  0  0  0  0  0  0  0
   41.4480   27.1360   43.4580 C   0  0  0  0  0  0  0  0  0  0  0  0
   42.2120   26.8310   44.5300 N   0  0  0  0  0  0  0  0  0  0  0  0
   43.6580   27.2350   45.8550 H   0  0  0  0  0  0  0  0  0  0  0  0
   44.1440   29.4670   44.7970 H   0  0  0  0  0  0  0  0  0  0  0  0
   42.7870   30.1560   42.7880 H   0  0  0  0  0  0  0  0  0  0  0  0
   36.8040   28.4700   40.2630 O   0  0  0  0  0  0  0  0  0  0  0  0
   35.8280   30.8420   40.7280 O   0  0  0  0  0  0  0  0  0  0  0  0
   36.7960   30.1090   39.8090 P   0  0  2  0  0  0  0  0  0  0  0  0
   36.2820   30.1950   38.2120 O   0  0  0  0  0  0  0  0  0  0  0  0
   35.6040   30.9120   38.0790 H   0  0  0  0  0  0  0  0  0  0  0  0
   38.3200   30.8270   39.9830 O   0  0  0  0  0  0  0  0  0  0  0  0
   38.1820   33.2210   39.8660 C   0  0  2  0  0  3  0  0  0  0  0  0
   38.2530   31.9910   40.7440 C   0  0  2  0  0  3  0  0  0  0  0  0
   39.3450   32.0970   41.5960 O   0  0  0  0  0  0  0  0  0  0  0  0
   40.5230   32.4380   40.9490 C   0  0  0  0  0  2  0  0  0  0  0  0
   40.4980   33.7920   40.3100 C   0  0  1  0  0  3  0  0  0  0  0  0
   39.0700   34.3150   40.4340 C   0  0  2  0  0  3  0  0  0  0  0  0
   36.8860   33.7630   39.8060 O   0  0  0  0  0  0  0  0  0  0  0  0
   37.0080   34.6740   39.4390 H   0  0  0  0  0  0  0  0  0  0  0  0
   41.3370   34.7020   40.9120 O   0  0  0  0  0  0  0  0  0  0  0  0
   41.0390   35.5980   40.6070 H   0  0  0  0  0  0  0  0  0  0  0  0
   38.6980   34.5430   41.7510 O   0  0  0  0  0  0  0  0  0  0  0  0
   39.4540   34.6480   42.3750 H   0  0  0  0  0  0  0  0  0  0  0  0
  1  2  1  0  0  0  0
  2  3  1  0  0  0  0
  3 11  1  0  0  0  0
  3  4  2  0  0  0  0
  4  8  1  0  0  0  0
  5  4  1  0  0  0  0
  5  9  1  0  0  0  0
  6  5  2  0  0  0  0
  7  2  2  0  0  0  0
  7  6  1  0  0  0  0
 10  6  1  0  0  0  0
 11 18  1  0  0  0  0
 11 13  1  0  0  0  0
 12 11  1  0  0  0  0
 14 20  1  0  0  0  0
 15 21  1  0  0  0  0
 15 14  2  0  0  0  0
 16 15  1  0  0  0  0
 17 16  2  0  0  0  0
 17 18  1  0  0  0  0
 18 19  2  0  0  0  0
 19 14  1  0  0  0  0
 22 16  1  0  0  0  0
 23  7  1  0  0  0  0
 25 28  1  0  0  0  0
 25 23  1  0  0  0  0
 25 24  2  1  0  0  0
 26 25  1  0  0  0  0
 27 26  1  0  0  0  0
 29 35  1  1  0  0  0
 29 34  1  0  0  0  0
 29 30  1  0  0  0  0
 30 28  1  6  0  0  0
 30 31  1  0  0  0  0
 32 31  1  0  0  0  0
 33 34  1  0  0  0  0
 33 37  1  1  0  0  0
 33 32  1  0  0  0  0
 34 39  1  1  0  0  0
 36 35  1  0  0  0  0
 38 37  1  0  0  0  0
 39 40  1  0  0  0  0
M  END
>  <minimizedAffinity>
-6.72217607

$$$$

 OpenBabel03252502573D

 40 42  0  0  1  0  0  0  0  0999 V2000
   35.8340   29.0390   40.8990 Br  0  0  0  0  0  0  0  0  0  0  0  0
   37.5700   28.8710   41.7320 C   0  0  0  0  0  0  0  0  0  0  0  0
   37.8140   27.6750   42.3530 C   0  0  0  0  0  0  0  0  0  0  0  0
   39.0730   27.5790   42.9460 C   0  0  0  0  0  0  0  0  0  0  0  0
   40.0100   28.6050   42.9160 C   0  0  0  0  0  0  0  0  0  0  0  0
   39.6770   29.7660   42.2710 C   0  0  0  0  0  0  0  0  0  0  0  0
   38.4510   29.9180   41.6690 C   0  0  0  0  0  0  0  0  0  0  0  0
   39.3640   26.6750   43.4610 H   0  0  0  0  0  0  0  0  0  0  0  0
   40.9800   28.4780   43.3950 H   0  0  0  0  0  0  0  0  0  0  0  0
   40.4030   30.5830   42.2390 H   0  0  0  0  0  0  0  0  0  0  0  0
   36.9200   26.5200   42.4570 C   0  0  0  0  0  0  0  0  0  0  0  0
   35.8920   26.8850   42.2020 H   0  0  0  0  0  0  0  0  0  0  0  0
   36.8550   26.1450   43.4990 H   0  0  0  0  0  0  0  0  0  0  0  0
   38.0730   23.2700   41.0110 C   0  0  0  0  0  0  0  0  0  0  0  0
   37.8260   23.4830   39.6490 C   0  0  0  0  0  0  0  0  0  0  0  0
   37.2860   24.6930   39.2510 C   0  0  0  0  0  0  0  0  0  0  0  0
   37.0210   25.6180   40.1900 N   0  0  0  0  0  0  0  0  0  0  0  0
   37.2600   25.4120   41.5150 C   0  0  0  0  0  0  0  0  0  0  0  0
   37.7870   24.2230   41.8830 N   0  0  0  0  0  0  0  0  0  0  0  0
   38.4870   22.3890   41.4870 H   0  0  0  0  0  0  0  0  0  0  0  0
   38.0860   22.6600   39.0170 H   0  0  0  0  0  0  0  0  0  0  0  0
   37.1050   24.8330   38.1980 H   0  0  0  0  0  0  0  0  0  0  0  0
   38.1250   31.1120   41.0130 O   0  0  0  0  0  0  0  0  0  0  0  0
   37.8970   32.5650   38.8620 O   0  0  0  0  0  0  0  0  0  0  0  0
   38.8480   31.5970   39.5530 P   0  0  2  0  0  0  0  0  0  0  0  0
   39.0840   30.2230   38.6170 O   0  0  0  0  0  0  0  0  0  0  0  0
   38.7990   30.3630   37.6730 H   0  0  0  0  0  0  0  0  0  0  0  0
   40.3150   32.4050   39.8040 O   0  0  0  0  0  0  0  0  0  0  0  0
   41.8340   32.2640   37.9490 C   0  0  2  0  0  3  0  0  0  0  0  0
   40.7480   33.0510   38.6490 C   0  0  2  0  0  3  0  0  0  0  0  0
   41.2170   34.3280   38.9340 O   0  0  0  0  0  0  0  0  0  0  0  0
   42.4570   34.3380   39.5550 C   0  0  0  0  0  2  0  0  0  0  0  0
   43.5640   33.7830   38.7140 C   0  0  1  0  0  3  0  0  0  0  0  0
   42.9210   33.2040   37.4570 C   0  0  2  0  0  3  0  0  0  0  0  0
   41.3570   31.5900   36.8110 O   0  0  0  0  0  0  0  0  0  0  0  0
   42.1700   31.3380   36.3060 H   0  0  0  0  0  0  0  0  0  0  0  0
   44.4870   34.7270   38.3220 O   0  0  0  0  0  0  0  0  0  0  0  0
   44.9900   34.3260   37.5670 H   0  0  0  0  0  0  0  0  0  0  0  0
   42.3320   34.1790   36.6630 O   0  0  0  0  0  0  0  0  0  0  0  0
   42.6650   35.0910   36.8260 H   0  0  0  0  0  0  0  0  0  0  0  0
  1  2  1  0  0  0  0
  2  3  1  0  0  0  0
  3 11  1  0  0  0  0
  3  4  2  0  0  0  0
  4  8  1  0  0  0  0
  5  4  1  0  0  0  0
  5  9  1  0  0  0  0
  6  5  2  0  0  0  0
  7  2  2  0  0  0  0
  7  6  1  0  0  0  0
 10  6  1  0  0  0  0
 11 13  1  0  0  0  0
 12 11  1  0  0  0  0
 14 20  1  0  0  0  0
 14 19  1  0  0  0  0
 15 14  2  0  0  0  0
 16 15  1  0  0  0  0
 16 17  2  0  0  0  0
 17 18  1  0  0  0  0
 18 19  2  0  0  0  0
 18 11  1  0  0  0  0
 21 15  1  0  0  0  0
 22 16  1  0  0  0  0
 23  7  1  0  0  0  0
 25 24  2  6  0  0  0
 25 28  1  0  0  0  0
 25 23  1  0  0  0  0
 26 25  1  0  0  0  0
 27 26  1  0  0  0  0
 29 35  1  6  0  0  0
 29 30  1  0  0  0  0
 30 31  1  0  0  0  0
 30 28  1  1  0  0  0
 31 32  1  0  0  0  0
 33 37  1  6  0  0  0
 33 32  1  0  0  0  0
 34 39  1  6  0  0  0
 34 29  1  0  0  0  0
 34 33  1  0  0  0  0
 36 35  1  0  0  0  0
 38 37  1  0  0  0  0
 39 40  1  0  0  0  0
M  END
>  <minimizedAffinity>
-6.63905287

$$$$

 OpenBabel03252502573D

 40 42  0  0  1  0  0  0  0  0999 V2000
   39.6090   29.2180   38.3850 Br  0  0  0  0  0  0  0  0  0  0  0  0
   37.9360   29.5850   39.2790 C   0  0  0  0  0  0  0  0  0  0  0  0
   37.0890   28.5160   39.4100 C   0  0  0  0  0  0  0  0  0  0  0  0
   35.8890   28.8070   40.0590 C   0  0  0  0  0  0  0  0  0  0  0  0
   35.5680   30.0720   40.5370 C   0  0  0  0  0  0  0  0  0  0  0  0
   36.4780   31.0800   40.3610 C   0  0  0  0  0  0  0  0  0  0  0  0
   37.6770   30.8520   39.7280 C   0  0  0  0  0  0  0  0  0  0  0  0
   35.1520   28.0320   40.2120 H   0  0  0  0  0  0  0  0  0  0  0  0
   34.6160   30.2450   41.0380 H   0  0  0  0  0  0  0  0  0  0  0  0
   36.2410   32.0800   40.7310 H   0  0  0  0  0  0  0  0  0  0  0  0
   37.3030   27.1410   38.9540 C   0  0  0  0  0  0  0  0  0  0  0  0
   38.3010   27.1230   38.4450 H   0  0  0  0  0  0  0  0  0  0  0  0
   36.5670   26.8470   38.1780 H   0  0  0  0  0  0  0  0  0  0  0  0
   36.6200   24.1770   41.1280 C   0  0  0  0  0  0  0  0  0  0  0  0
   37.5220   24.4030   42.1760 C   0  0  0  0  0  0  0  0  0  0  0  0
   38.3280   25.5270   42.1310 C   0  0  0  0  0  0  0  0  0  0  0  0
   38.2110   26.3590   41.0820 N   0  0  0  0  0  0  0  0  0  0  0  0
   37.3340   26.1410   40.0620 C   0  0  0  0  0  0  0  0  0  0  0  0
   36.5570   25.0370   40.1250 N   0  0  0  0  0  0  0  0  0  0  0  0
   35.9250   23.3550   41.0090 H   0  0  0  0  0  0  0  0  0  0  0  0
   37.5060   23.6590   42.9440 H   0  0  0  0  0  0  0  0  0  0  0  0
   39.0130   25.6790   42.9480 H   0  0  0  0  0  0  0  0  0  0  0  0
   38.5970   31.8940   39.5560 O   0  0  0  0  0  0  0  0  0  0  0  0
   39.5120   31.4860   41.9620 O   0  0  0  0  0  0  0  0  0  0  0  0
   39.5780   32.4850   40.8140 P   0  0  2  0  0  0  0  0  0  0  0  0
   38.9660   33.9760   41.2840 O   0  0  0  0  0  0  0  0  0  0  0  0
   38.9110   34.0580   42.2750 H   0  0  0  0  0  0  0  0  0  0  0  0
   41.2000   32.6280   40.3450 O   0  0  0  0  0  0  0  0  0  0  0  0
   41.5030   32.6060   37.9640 C   0  0  2  0  0  3  0  0  0  0  0  0
   41.3370   33.4340   39.2190 C   0  0  2  0  0  3  0  0  0  0  0  0
   42.4200   34.2950   39.3480 O   0  0  0  0  0  0  0  0  0  0  0  0
   43.6490   33.6680   39.2040 C   0  0  0  0  0  2  0  0  0  0  0  0
   43.8800   33.0830   37.8450 C   0  0  1  0  0  3  0  0  0  0  0  0
   42.5690   33.2220   37.0730 C   0  0  2  0  0  3  0  0  0  0  0  0
   40.3290   32.5630   37.1920 O   0  0  0  0  0  0  0  0  0  0  0  0
   40.6200   32.2330   36.3050 H   0  0  0  0  0  0  0  0  0  0  0  0
   44.8640   33.7250   37.1270 O   0  0  0  0  0  0  0  0  0  0  0  0
   44.7380   33.4550   36.1810 H   0  0  0  0  0  0  0  0  0  0  0  0
   42.2300   34.5460   36.8330 O   0  0  0  0  0  0  0  0  0  0  0  0
   42.9850   35.1760   36.8920 H   0  0  0  0  0  0  0  0  0  0  0  0
  1  2  1  0  0  0  0
  2  3  2  0  0  0  0
  2  7  1  0  0  0  0
  3  4  1  0  0  0  0
  4  8  1  0  0  0  0
  4  5  2  0  0  0  0
  5  9  1  0  0  0  0
  6  5  1  0  0  0  0
  6 10  1  0  0  0  0
  7  6  2  0  0  0  0
 11  3  1  0  0  0  0
 11 18  1  0  0  0  0
 12 11  1  0  0  0  0
 13 11  1  0  0  0  0
 14 15  1  0  0  0  0
 15 21  1  0  0  0  0
 16 15  2  0  0  0  0
 16 22  1  0  0  0  0
 17 16  1  0  0  0  0
 18 19  1  0  0  0  0
 18 17  2  0  0  0  0
 19 14  2  0  0  0  0
 20 14  1  0  0  0  0
 23  7  1  0  0  0  0
 23 25  1  0  0  0  0
 25 26  1  0  0  0  0
 25 24  2  1  0  0  0
 26 27  1  0  0  0  0
 28 25  1  0  0  0  0
 29 35  1  6  0  0  0
 29 30  1  0  0  0  0
 30 31  1  0  0  0  0
 30 28  1  1  0  0  0
 32 31  1  0  0  0  0
 33 37  1  6  0  0  0
 33 32  1  0  0  0  0
 34 39  1  1  0  0  0
 34 33  1  0  0  0  0
 34 29  1  0  0  0  0
 36 35  1  0  0  0  0
 38 37  1  0  0  0  0
 39 40  1  0  0  0  0
M  END
>  <minimizedAffinity>
-6.58241177

$$$$

 OpenBabel03252502573D

 40 42  0  0  1  0  0  0  0  0999 V2000
   38.2730   29.2200   39.3150 Br  0  0  0  0  0  0  0  0  0  0  0  0
   37.9050   28.7540   41.1540 C   0  0  0  0  0  0  0  0  0  0  0  0
   37.1590   27.6200   41.3390 C   0  0  0  0  0  0  0  0  0  0  0  0
   36.9080   27.3060   42.6750 C   0  0  0  0  0  0  0  0  0  0  0  0
   37.3710   28.0720   43.7380 C   0  0  0  0  0  0  0  0  0  0  0  0
   38.1100   29.1910   43.4560 C   0  0  0  0  0  0  0  0  0  0  0  0
   38.3890   29.5490   42.1590 C   0  0  0  0  0  0  0  0  0  0  0  0
   36.3280   26.4310   42.9280 H   0  0  0  0  0  0  0  0  0  0  0  0
   37.1460   27.7820   44.7640 H   0  0  0  0  0  0  0  0  0  0  0  0
   38.4810   29.8030   44.2810 H   0  0  0  0  0  0  0  0  0  0  0  0
   36.6130   26.7290   40.3140 C   0  0  0  0  0  0  0  0  0  0  0  0
   36.7060   27.2680   39.3360 H   0  0  0  0  0  0  0  0  0  0  0  0
   35.5270   26.5560   40.4570 H   0  0  0  0  0  0  0  0  0  0  0  0
   39.2630   24.1430   39.7900 C   0  0  0  0  0  0  0  0  0  0  0  0
   38.5350   22.9680   40.0170 C   0  0  0  0  0  0  0  0  0  0  0  0
   37.1920   23.0670   40.3360 C   0  0  0  0  0  0  0  0  0  0  0  0
   36.6390   24.2890   40.4150 N   0  0  0  0  0  0  0  0  0  0  0  0
   37.3460   25.4330   40.1940 C   0  0  0  0  0  0  0  0  0  0  0  0
   38.6560   25.3150   39.8850 N   0  0  0  0  0  0  0  0  0  0  0  0
   40.3110   24.2430   39.5340 H   0  0  0  0  0  0  0  0  0  0  0  0
   39.1040   22.0680   39.9200 H   0  0  0  0  0  0  0  0  0  0  0  0
   36.6540   22.1490   40.5060 H   0  0  0  0  0  0  0  0  0  0  0  0
   39.1470   30.6960   41.8870 O   0  0  0  0  0  0  0  0  0  0  0  0
   41.3170   29.2610   42.0470 O   0  0  0  0  0  0  0  0  0  0  0  0
   40.8420   30.6790   41.7560 P   0  0  2  0  0  0  0  0  0  0  0  0
   41.4550   31.7570   42.8880 O   0  0  0  0  0  0  0  0  0  0  0  0
   42.2220   31.3700   43.3910 H   0  0  0  0  0  0  0  0  0  0  0  0
   41.3660   31.0890   40.1980 O   0  0  0  0  0  0  0  0  0  0  0  0
   41.0790   33.4490   39.8550 C   0  0  2  0  0  3  0  0  0  0  0  0
   42.0250   32.3160   40.1870 C   0  0  2  0  0  3  0  0  0  0  0  0
   43.0750   32.3120   39.2770 O   0  0  0  0  0  0  0  0  0  0  0  0
   42.6640   32.3790   37.9540 C   0  0  0  0  0  2  0  0  0  0  0  0
   41.9530   33.6480   37.6000 C   0  0  1  0  0  3  0  0  0  0  0  0
   41.7500   34.4210   38.9000 C   0  0  2  0  0  3  0  0  0  0  0  0
   40.7240   34.1990   40.9890 O   0  0  0  0  0  0  0  0  0  0  0  0
   40.3350   35.0350   40.6290 H   0  0  0  0  0  0  0  0  0  0  0  0
   42.6580   34.4530   36.7330 O   0  0  0  0  0  0  0  0  0  0  0  0
   42.2450   35.3530   36.7930 H   0  0  0  0  0  0  0  0  0  0  0  0
   42.9480   34.8360   39.4660 O   0  0  0  0  0  0  0  0  0  0  0  0
   43.7050   34.8680   38.8360 H   0  0  0  0  0  0  0  0  0  0  0  0
  1  2  1  0  0  0  0
  2  3  2  0  0  0  0
  2  7  1  0  0  0  0
  3  4  1  0  0  0  0
  4  8  1  0  0  0  0
  4  5  2  0  0  0  0
  5  9  1  0  0  0  0
  6  5  1  0  0  0  0
  6 10  1  0  0  0  0
  7  6  2  0  0  0  0
 11 13  1  0  0  0  0
 11  3  1  0  0  0  0
 12 11  1  0  0  0  0
 14 19  2  0  0  0  0
 14 15  1  0  0  0  0
 15 16  2  0  0  0  0
 16 17  1  0  0  0  0
 16 22  1  0  0  0  0
 18 11  1  0  0  0  0
 18 17  2  0  0  0  0
 19 18  1  0  0  0  0
 20 14  1  0  0  0  0
 21 15  1  0  0  0  0
 23  7  1  0  0  0  0
 25 23  1  0  0  0  0
 25 24  2  1  0  0  0
 25 26  1  0  0  0  0
 26 27  1  0  0  0  0
 28 25  1  0  0  0  0
 29 30  1  0  0  0  0
 29 35  1  1  0  0  0
 30 28  1  6  0  0  0
 31 30  1  0  0  0  0
 32 31  1  0  0  0  0
 33 37  1  6  0  0  0
 33 32  1  0  0  0  0
 33 34  1  0  0  0  0
 34 39  1  1  0  0  0
 34 29  1  0  0  0  0
 36 35  1  0  0  0  0
 37 38  1  0  0  0  0
 40 39  1  0  0  0  0
M  END
>  <minimizedAffinity>
-6.477458

$$$$

 OpenBabel03252502573D

 40 42  0  0  1  0  0  0  0  0999 V2000
   36.9440   27.9920   42.5540 Br  0  0  0  0  0  0  0  0  0  0  0  0
   38.8160   28.4610   42.6550 C   0  0  0  0  0  0  0  0  0  0  0  0
   39.6500   27.4710   43.1030 C   0  0  0  0  0  0  0  0  0  0  0  0
   40.9950   27.8340   43.1660 C   0  0  0  0  0  0  0  0  0  0  0  0
   41.4630   29.0930   42.8070 C   0  0  0  0  0  0  0  0  0  0  0  0
   40.5540   30.0200   42.3700 C   0  0  0  0  0  0  0  0  0  0  0  0
   39.2150   29.7180   42.2870 C   0  0  0  0  0  0  0  0  0  0  0  0
   41.7350   27.1240   43.5060 H   0  0  0  0  0  0  0  0  0  0  0  0
   42.5250   29.3250   42.8760 H   0  0  0  0  0  0  0  0  0  0  0  0
   40.9060   31.0140   42.0850 H   0  0  0  0  0  0  0  0  0  0  0  0
   39.2900   26.1110   43.5100 C   0  0  0  0  0  0  0  0  0  0  0  0
   38.3630   26.1970   44.1330 H   0  0  0  0  0  0  0  0  0  0  0  0
   40.0570   25.6660   44.1750 H   0  0  0  0  0  0  0  0  0  0  0  0
   37.6850   23.6050   41.2470 C   0  0  0  0  0  0  0  0  0  0  0  0
   38.5910   23.5930   40.1790 C   0  0  0  0  0  0  0  0  0  0  0  0
   39.7040   24.4130   40.2400 C   0  0  0  0  0  0  0  0  0  0  0  0
   39.8700   25.1890   41.3240 N   0  0  0  0  0  0  0  0  0  0  0  0
   38.9890   25.2020   42.3640 C   0  0  0  0  0  0  0  0  0  0  0  0
   37.9090   24.3940   42.2850 N   0  0  0  0  0  0  0  0  0  0  0  0
   36.7720   23.0310   41.3570 H   0  0  0  0  0  0  0  0  0  0  0  0
   38.3310   22.9260   39.3830 H   0  0  0  0  0  0  0  0  0  0  0  0
   40.3860   24.3850   39.4070 H   0  0  0  0  0  0  0  0  0  0  0  0
   38.2990   30.6770   41.8380 O   0  0  0  0  0  0  0  0  0  0  0  0
   36.4040   30.8810   40.0600 O   0  0  0  0  0  0  0  0  0  0  0  0
   37.9210   30.9040   40.1960 P   0  0  2  0  0  0  0  0  0  0  0  0
   38.6160   29.6430   39.3310 O   0  0  0  0  0  0  0  0  0  0  0  0
   37.9820   29.2550   38.6680 H   0  0  0  0  0  0  0  0  0  0  0  0
   38.4700   32.3970   39.6140 O   0  0  0  0  0  0  0  0  0  0  0  0
   39.4120   34.4280   40.4810 C   0  0  2  0  0  3  0  0  0  0  0  0
   39.4810   32.9180   40.4170 C   0  0  2  0  0  3  0  0  0  0  0  0
   40.7350   32.5350   39.9570 O   0  0  0  0  0  0  0  0  0  0  0  0
   41.1320   33.2000   38.8070 C   0  0  0  0  0  2  0  0  0  0  0  0
   41.3080   34.6760   38.9870 C   0  0  1  0  0  3  0  0  0  0  0  0
   40.8100   35.0150   40.3900 C   0  0  2  0  0  3  0  0  0  0  0  0
   38.8750   34.8880   41.6960 O   0  0  0  0  0  0  0  0  0  0  0  0
   39.1160   35.8470   41.7330 H   0  0  0  0  0  0  0  0  0  0  0  0
   42.6160   35.0930   38.8890 O   0  0  0  0  0  0  0  0  0  0  0  0
   42.6500   35.9980   39.2930 H   0  0  0  0  0  0  0  0  0  0  0  0
   41.5920   34.4450   41.3850 O   0  0  0  0  0  0  0  0  0  0  0  0
   42.4970   34.1870   41.0930 H   0  0  0  0  0  0  0  0  0  0  0  0
  1  2  1  0  0  0  0
  2  3  1  0  0  0  0
  3  4  2  0  0  0  0
  3 11  1  0  0  0  0
  4  8  1  0  0  0  0
  5  9  1  0  0  0  0
  5  4  1  0  0  0  0
  6  5  2  0  0  0  0
  7  6  1  0  0  0  0
  7  2  2  0  0  0  0
 10  6  1  0  0  0  0
 11 12  1  0  0  0  0
 11 13  1  0  0  0  0
 14 20  1  0  0  0  0
 14 19  1  0  0  0  0
 15 16  1  0  0  0  0
 15 14  2  0  0  0  0
 16 17  2  0  0  0  0
 17 18  1  0  0  0  0
 18 11  1  0  0  0  0
 19 18  2  0  0  0  0
 21 15  1  0  0  0  0
 22 16  1  0  0  0  0
 23  7  1  0  0  0  0
 25 24  2  6  0  0  0
 25 23  1  0  0  0  0
 26 25  1  0  0  0  0
 27 26  1  0  0  0  0
 28 25  1  0  0  0  0
 29 35  1  1  0  0  0
 30 28  1  6  0  0  0
 30 29  1  0  0  0  0
 31 30  1  0  0  0  0
 32 33  1  0  0  0  0
 32 31  1  0  0  0  0
 33 37  1  1  0  0  0
 33 34  1  0  0  0  0
 34 29  1  0  0  0  0
 34 39  1  1  0  0  0
 35 36  1  0  0  0  0
 37 38  1  0  0  0  0
 40 39  1  0  0  0  0
M  END
>  <minimizedAffinity>
-6.46625328

$$$$

 OpenBabel03252502573D

 40 42  0  0  1  0  0  0  0  0999 V2000
   40.4860   26.0080   41.7600 Br  0  0  0  0  0  0  0  0  0  0  0  0
   38.9080   26.7860   42.5600 C   0  0  0  0  0  0  0  0  0  0  0  0
   37.7970   25.9850   42.5760 C   0  0  0  0  0  0  0  0  0  0  0  0
   36.6730   26.5700   43.1580 C   0  0  0  0  0  0  0  0  0  0  0  0
   36.6670   27.8570   43.6820 C   0  0  0  0  0  0  0  0  0  0  0  0
   37.8260   28.5850   43.6210 C   0  0  0  0  0  0  0  0  0  0  0  0
   38.9650   28.0610   43.0580 C   0  0  0  0  0  0  0  0  0  0  0  0
   35.7450   26.0200   43.2200 H   0  0  0  0  0  0  0  0  0  0  0  0
   35.7600   28.2670   44.1260 H   0  0  0  0  0  0  0  0  0  0  0  0
   37.8380   29.5990   44.0280 H   0  0  0  0  0  0  0  0  0  0  0  0
   37.6690   24.6200   42.0620 C   0  0  0  0  0  0  0  0  0  0  0  0
   37.0480   24.0540   42.8030 H   0  0  0  0  0  0  0  0  0  0  0  0
   38.6480   24.1000   42.0330 H   0  0  0  0  0  0  0  0  0  0  0  0
   36.6420   25.2180   38.5160 C   0  0  0  0  0  0  0  0  0  0  0  0
   35.6320   24.2600   38.3680 C   0  0  0  0  0  0  0  0  0  0  0  0
   35.3210   23.4460   39.4430 C   0  0  0  0  0  0  0  0  0  0  0  0
   36.0030   23.6090   40.5900 N   0  0  0  0  0  0  0  0  0  0  0  0
   36.9870   24.5410   40.7360 C   0  0  0  0  0  0  0  0  0  0  0  0
   37.2750   25.3250   39.6740 N   0  0  0  0  0  0  0  0  0  0  0  0
   37.0060   25.9270   37.7820 H   0  0  0  0  0  0  0  0  0  0  0  0
   35.1740   24.2420   37.4010 H   0  0  0  0  0  0  0  0  0  0  0  0
   34.5400   22.7170   39.3040 H   0  0  0  0  0  0  0  0  0  0  0  0
   40.1430   28.8180   43.0040 O   0  0  0  0  0  0  0  0  0  0  0  0
   41.7610   30.2320   41.5310 O   0  0  0  0  0  0  0  0  0  0  0  0
   40.3190   30.1930   42.0200 P   0  0  2  0  0  0  0  0  0  0  0  0
   39.9690   31.5420   42.9560 O   0  0  0  0  0  0  0  0  0  0  0  0
   40.6410   32.2670   42.8270 H   0  0  0  0  0  0  0  0  0  0  0  0
   39.3130   30.1360   40.6580 O   0  0  0  0  0  0  0  0  0  0  0  0
   37.4730   31.4300   39.8200 C   0  0  2  0  0  3  0  0  0  0  0  0
   38.9200   31.4110   40.2590 C   0  0  2  0  0  3  0  0  0  0  0  0
   39.7210   31.8810   39.2240 O   0  0  0  0  0  0  0  0  0  0  0  0
   39.4580   31.2800   38.0020 C   0  0  0  0  0  2  0  0  0  0  0  0
   38.0830   31.5470   37.4740 C   0  0  1  0  0  3  0  0  0  0  0  0
   37.3210   32.2840   38.5730 C   0  0  2  0  0  3  0  0  0  0  0  0
   36.6280   32.0010   40.7880 O   0  0  0  0  0  0  0  0  0  0  0  0
   35.7860   32.1970   40.3060 H   0  0  0  0  0  0  0  0  0  0  0  0
   38.0680   32.3360   36.3460 O   0  0  0  0  0  0  0  0  0  0  0  0
   37.1390   32.6730   36.2550 H   0  0  0  0  0  0  0  0  0  0  0  0
   37.8460   33.5420   38.8340 O   0  0  0  0  0  0  0  0  0  0  0  0
   38.3970   33.9110   38.1060 H   0  0  0  0  0  0  0  0  0  0  0  0
  1  2  1  0  0  0  0
  2  3  2  0  0  0  0
  2  7  1  0  0  0  0
  3  4  1  0  0  0  0
  4  8  1  0  0  0  0
  4  5  2  0  0  0  0
  5  9  1  0  0  0  0
  6  5  1  0  0  0  0
  6 10  1  0  0  0  0
  7  6  2  0  0  0  0
 11  3  1  0  0  0  0
 11 12  1  0  0  0  0
 13 11  1  0  0  0  0
 14 19  1  0  0  0  0
 15 14  2  0  0  0  0
 15 16  1  0  0  0  0
 16 17  2  0  0  0  0
 17 18  1  0  0  0  0
 18 11  1  0  0  0  0
 19 18  2  0  0  0  0
 20 14  1  0  0  0  0
 21 15  1  0  0  0  0
 22 16  1  0  0  0  0
 23  7  1  0  0  0  0
 25 24  2  6  0  0  0
 25 26  1  0  0  0  0
 25 23  1  0  0  0  0
 27 26  1  0  0  0  0
 28 25  1  0  0  0  0
 29 30  1  0  0  0  0
 29 35  1  1  0  0  0
 30 28  1  6  0  0  0
 31 30  1  0  0  0  0
 32 31  1  0  0  0  0
 33 37  1  6  0  0  0
 33 32  1  0  0  0  0
 33 34  1  0  0  0  0
 34 39  1  1  0  0  0
 34 29  1  0  0  0  0
 36 35  1  0  0  0  0
 38 37  1  0  0  0  0
 40 39  1  0  0  0  0
M  END
>  <minimizedAffinity>
-6.45780754

$$$$

 OpenBabel03252502573D

 40 42  0  0  1  0  0  0  0  0999 V2000
   39.5080   30.4380   42.4130 Br  0  0  0  0  0  0  0  0  0  0  0  0
   37.8760   29.7860   41.6100 C   0  0  0  0  0  0  0  0  0  0  0  0
   37.2400   28.7840   42.2940 C   0  0  0  0  0  0  0  0  0  0  0  0
   36.0650   28.3310   41.6940 C   0  0  0  0  0  0  0  0  0  0  0  0
   35.5710   28.8450   40.5010 C   0  0  0  0  0  0  0  0  0  0  0  0
   36.2760   29.8460   39.8870 C   0  0  0  0  0  0  0  0  0  0  0  0
   37.4410   30.3330   40.4320 C   0  0  0  0  0  0  0  0  0  0  0  0
   35.4880   27.5430   42.1550 H   0  0  0  0  0  0  0  0  0  0  0  0
   34.6470   28.4550   40.0740 H   0  0  0  0  0  0  0  0  0  0  0  0
   35.9010   30.2610   38.9480 H   0  0  0  0  0  0  0  0  0  0  0  0
   37.6500   28.1570   43.5520 C   0  0  0  0  0  0  0  0  0  0  0  0
   36.7170   27.7730   44.0400 H   0  0  0  0  0  0  0  0  0  0  0  0
   38.0740   28.8990   44.2600 H   0  0  0  0  0  0  0  0  0  0  0  0
   40.6240   25.8950   43.6850 C   0  0  0  0  0  0  0  0  0  0  0  0
   40.1590   24.8020   42.9430 C   0  0  0  0  0  0  0  0  0  0  0  0
   38.8780   24.8460   42.4220 C   0  0  0  0  0  0  0  0  0  0  0  0
   38.1300   25.9400   42.6500 N   0  0  0  0  0  0  0  0  0  0  0  0
   38.5810   27.0030   43.3710 C   0  0  0  0  0  0  0  0  0  0  0  0
   39.8350   26.9400   43.8720 N   0  0  0  0  0  0  0  0  0  0  0  0
   41.5900   26.0200   44.1580 H   0  0  0  0  0  0  0  0  0  0  0  0
   40.8620   24.0020   42.8420 H   0  0  0  0  0  0  0  0  0  0  0  0
   38.5430   23.9940   41.8550 H   0  0  0  0  0  0  0  0  0  0  0  0
   38.1500   31.3570   39.7930 O   0  0  0  0  0  0  0  0  0  0  0  0
   38.1110   31.5680   37.1950 O   0  0  0  0  0  0  0  0  0  0  0  0
   39.0090   31.1280   38.3430 P   0  0  2  0  0  0  0  0  0  0  0  0
   39.3780   29.4940   38.2190 O   0  0  0  0  0  0  0  0  0  0  0  0
   39.1900   29.1400   37.3080 H   0  0  0  0  0  0  0  0  0  0  0  0
   40.4210   32.0620   38.2830 O   0  0  0  0  0  0  0  0  0  0  0  0
   40.7550   34.2380   39.2430 C   0  0  2  0  0  3  0  0  0  0  0  0
   40.6310   32.7480   39.4760 C   0  0  2  0  0  3  0  0  0  0  0  0
   41.7710   32.2890   40.1250 O   0  0  0  0  0  0  0  0  0  0  0  0
   42.9540   32.7040   39.5310 C   0  0  0  0  0  2  0  0  0  0  0  0
   43.1610   34.1870   39.5570 C   0  0  1  0  0  3  0  0  0  0  0  0
   41.8740   34.8060   40.0980 C   0  0  2  0  0  3  0  0  0  0  0  0
   39.5910   34.9350   39.6100 O   0  0  0  0  0  0  0  0  0  0  0  0
   39.8700   35.8840   39.6640 H   0  0  0  0  0  0  0  0  0  0  0  0
   44.1980   34.5860   40.3690 O   0  0  0  0  0  0  0  0  0  0  0  0
   44.0660   35.5560   40.5310 H   0  0  0  0  0  0  0  0  0  0  0  0
   41.6340   34.4620   41.4210 O   0  0  0  0  0  0  0  0  0  0  0  0
   42.4300   34.1570   41.9130 H   0  0  0  0  0  0  0  0  0  0  0  0
  2  3  1  0  0  0  0
  2  1  1  0  0  0  0
  3 11  1  0  0  0  0
  4  8  1  0  0  0  0
  4  3  2  0  0  0  0
  5  4  1  0  0  0  0
  6  7  1  0  0  0  0
  6  5  2  0  0  0  0
  7  2  2  0  0  0  0
  9  5  1  0  0  0  0
 10  6  1  0  0  0  0
 11 12  1  0  0  0  0
 11 13  1  0  0  0  0
 14 19  1  0  0  0  0
 14 20  1  0  0  0  0
 15 14  2  0  0  0  0
 16 17  2  0  0  0  0
 16 15  1  0  0  0  0
 17 18  1  0  0  0  0
 18 11  1  0  0  0  0
 18 19  2  0  0  0  0
 21 15  1  0  0  0  0
 22 16  1  0  0  0  0
 23  7  1  0  0  0  0
 25 24  2  6  0  0  0
 25 23  1  0  0  0  0
 26 25  1  0  0  0  0
 27 26  1  0  0  0  0
 28 25  1  0  0  0  0
 29 30  1  0  0  0  0
 29 35  1  1  0  0  0
 29 34  1  0  0  0  0
 30 28  1  6  0  0  0
 30 31  1  0  0  0  0
 32 33  1  0  0  0  0
 32 31  1  0  0  0  0
 33 34  1  0  0  0  0
 33 37  1  1  0  0  0
 34 39  1  1  0  0  0
 35 36  1  0  0  0  0
 37 38  1  0  0  0  0
 39 40  1  0  0  0  0
M  END
>  <minimizedAffinity>
-6.41735172

$$$$

 OpenBabel03252502573D

 40 42  0  0  1  0  0  0  0  0999 V2000
   37.7490   25.3690   38.9680 Br  0  0  0  0  0  0  0  0  0  0  0  0
   36.9620   26.8870   39.8700 C   0  0  0  0  0  0  0  0  0  0  0  0
   36.8840   26.7900   41.2340 C   0  0  0  0  0  0  0  0  0  0  0  0
   36.3130   27.8970   41.8600 C   0  0  0  0  0  0  0  0  0  0  0  0
   35.8560   29.0130   41.1680 C   0  0  0  0  0  0  0  0  0  0  0  0
   35.9740   29.0210   39.8040 C   0  0  0  0  0  0  0  0  0  0  0  0
   36.5290   27.9570   39.1320 C   0  0  0  0  0  0  0  0  0  0  0  0
   36.2060   27.9190   42.9350 H   0  0  0  0  0  0  0  0  0  0  0  0
   35.4160   29.8520   41.7060 H   0  0  0  0  0  0  0  0  0  0  0  0
   35.6200   29.8900   39.2450 H   0  0  0  0  0  0  0  0  0  0  0  0
   37.3250   25.6790   42.0800 C   0  0  0  0  0  0  0  0  0  0  0  0
   37.3250   24.7630   41.4340 H   0  0  0  0  0  0  0  0  0  0  0  0
   36.6010   25.4710   42.8940 H   0  0  0  0  0  0  0  0  0  0  0  0
   40.3280   26.9890   43.8810 C   0  0  0  0  0  0  0  0  0  0  0  0
   41.2810   26.0190   43.5480 C   0  0  0  0  0  0  0  0  0  0  0  0
   40.9030   24.9630   42.7390 C   0  0  0  0  0  0  0  0  0  0  0  0
   39.6320   24.9100   42.3040 N   0  0  0  0  0  0  0  0  0  0  0  0
   38.7030   25.8530   42.6280 C   0  0  0  0  0  0  0  0  0  0  0  0
   39.0930   26.8770   43.4190 N   0  0  0  0  0  0  0  0  0  0  0  0
   40.4570   27.8700   44.4980 H   0  0  0  0  0  0  0  0  0  0  0  0
   42.2520   26.1890   43.9650 H   0  0  0  0  0  0  0  0  0  0  0  0
   41.6540   24.2300   42.4960 H   0  0  0  0  0  0  0  0  0  0  0  0
   36.6440   27.9810   37.7370 O   0  0  0  0  0  0  0  0  0  0  0  0
   36.8450   30.2470   36.4640 O   0  0  0  0  0  0  0  0  0  0  0  0
   37.6760   29.0490   36.9080 P   0  0  2  0  0  0  0  0  0  0  0  0
   38.3000   28.2320   35.5800 O   0  0  0  0  0  0  0  0  0  0  0  0
   38.2650   28.7860   34.7530 H   0  0  0  0  0  0  0  0  0  0  0  0
   38.9260   29.6240   37.8950 O   0  0  0  0  0  0  0  0  0  0  0  0
   40.0380   31.7520   37.8610 C   0  0  2  0  0  3  0  0  0  0  0  0
   38.7750   30.9800   38.1740 C   0  0  2  0  0  3  0  0  0  0  0  0
   38.4300   31.1820   39.5050 O   0  0  0  0  0  0  0  0  0  0  0  0
   39.4830   30.9890   40.3870 C   0  0  0  0  0  2  0  0  0  0  0  0
   40.6120   31.9560   40.2100 C   0  0  1  0  0  3  0  0  0  0  0  0
   40.3070   32.7710   38.9560 C   0  0  2  0  0  3  0  0  0  0  0  0
   39.9360   32.4830   36.6650 O   0  0  0  0  0  0  0  0  0  0  0  0
   40.6850   33.1300   36.6980 H   0  0  0  0  0  0  0  0  0  0  0  0
   40.7570   32.8340   41.2610 O   0  0  0  0  0  0  0  0  0  0  0  0
   41.3190   33.5790   40.9250 H   0  0  0  0  0  0  0  0  0  0  0  0
   39.1810   33.5690   39.0990 O   0  0  0  0  0  0  0  0  0  0  0  0
   38.9270   33.7510   40.0340 H   0  0  0  0  0  0  0  0  0  0  0  0
  1  2  1  0  0  0  0
  2  3  1  0  0  0  0
  3  4  2  0  0  0  0
  3 11  1  0  0  0  0
  4  8  1  0  0  0  0
  5  9  1  0  0  0  0
  5  4  1  0  0  0  0
  6  5  2  0  0  0  0
  7  6  1  0  0  0  0
  7  2  2  0  0  0  0
 10  6  1  0  0  0  0
 11 18  1  0  0  0  0
 11 13  1  0  0  0  0
 12 11  1  0  0  0  0
 14 20  1  0  0  0  0
 15 14  1  0  0  0  0
 15 21  1  0  0  0  0
 16 15  2  0  0  0  0
 17 18  2  0  0  0  0
 17 16  1  0  0  0  0
 18 19  1  0  0  0  0
 19 14  2  0  0  0  0
 22 16  1  0  0  0  0
 23  7  1  0  0  0  0
 25 24  2  6  0  0  0
 25 23  1  0  0  0  0
 25 28  1  0  0  0  0
 26 25  1  0  0  0  0
 27 26  1  0  0  0  0
 29 35  1  6  0  0  0
 29 30  1  0  0  0  0
 29 34  1  0  0  0  0
 30 28  1  1  0  0  0
 30 31  1  0  0  0  0
 31 32  1  0  0  0  0
 33 32  1  0  0  0  0
 33 37  1  1  0  0  0
 34 39  1  1  0  0  0
 34 33  1  0  0  0  0
 35 36  1  0  0  0  0
 38 37  1  0  0  0  0
 39 40  1  0  0  0  0
M  END
>  <minimizedAffinity>
-6.38227272

$$$$
