
 OpenBabel03242521433D

 41 43  0  0  1  0  0  0  0  0999 V2000
   45.1960   35.7970   44.1290 C   0  0  0  0  0  0  0  0  0  0  0  0
   46.1470   35.0180   43.4720 C   0  0  0  0  0  0  0  0  0  0  0  0
   46.6120   33.8370   44.0760 C   0  0  0  0  0  0  0  0  0  0  0  0
   46.0990   33.5270   45.2740 N   0  0  0  0  0  0  0  0  0  0  0  0
   45.1770   34.2940   45.8970 C   0  0  0  0  0  0  0  0  0  0  0  0
   44.7220   35.4300   45.3300 N   0  0  0  0  0  0  0  0  0  0  0  0
   46.4900   35.3600   42.5150 H   0  0  0  0  0  0  0  0  0  0  0  0
   44.8200   33.9680   46.8600 H   0  0  0  0  0  0  0  0  0  0  0  0
   48.6120   33.8710   42.6150 C   0  0  2  0  0  0  0  0  0  0  0  0
   47.6040   33.0580   43.3490 C   0  0  2  0  0  0  0  0  0  0  0  0
   47.0590   32.2810   42.2850 O   0  0  0  0  0  0  0  0  0  0  0  0
   48.1970   31.7620   41.7040 C   0  0  0  0  0  0  0  0  0  0  0  0
   49.3390   32.7140   41.8960 C   0  0  1  0  0  0  0  0  0  0  0  0
   48.1820   34.4540   41.7720 H   0  0  0  0  0  0  0  0  0  0  0  0
   48.0770   32.3210   43.9980 H   0  0  0  0  0  0  0  0  0  0  0  0
   48.0350   31.4540   40.6550 H   0  0  0  0  0  0  0  0  0  0  0  0
   48.4550   30.8310   42.2600 H   0  0  0  0  0  0  0  0  0  0  0  0
   50.1480   32.3390   42.5360 H   0  0  0  0  0  0  0  0  0  0  0  0
   49.4160   34.6380   43.3980 O   0  0  0  0  0  0  0  0  0  0  0  0
   50.2710   34.8570   42.9140 H   0  0  0  0  0  0  0  0  0  0  0  0
   49.8950   33.1980   40.7180 O   0  0  0  0  0  0  0  0  0  0  0  0
   50.5850   32.6140   40.3630 H   0  0  0  0  0  0  0  0  0  0  0  0
   44.7220   37.0630   43.4610 C   0  0  0  0  0  0  0  0  0  0  0  0
   45.2790   37.2210   42.5380 H   0  0  0  0  0  0  0  0  0  0  0  0
   43.6320   36.9620   43.2800 H   0  0  0  0  0  0  0  0  0  0  0  0
   45.2840   39.4770   44.0730 C   0  0  0  0  0  0  0  0  0  0  0  0
   45.4240   39.7670   42.8530 O   0  0  0  0  0  0  0  0  0  0  0  0
   44.9850   38.1400   44.4110 N   0  0  0  0  0  0  0  0  0  0  0  0
   44.9470   37.9020   45.4300 H   0  0  0  0  0  0  0  0  0  0  0  0
   44.6600   41.7590   44.8870 C   0  0  2  0  0  3  0  0  0  0  0  0
   45.4240   40.5000   45.1700 C   0  0  1  0  0  3  0  0  0  0  0  0
   45.1260   39.9460   46.4030 O   0  0  0  0  0  0  0  0  0  0  0  0
   44.2190   40.6290   47.1650 C   0  0  0  0  0  2  0  0  0  0  0  0
   44.5050   42.1040   47.2840 C   0  0  2  0  0  3  0  0  0  0  0  0
   45.0450   42.7080   46.0300 C   0  0  2  0  0  3  0  0  0  0  0  0
   43.2820   41.5930   44.8870 O   0  0  0  0  0  0  0  0  0  0  0  0
   42.8680   42.4870   44.9510 H   0  0  0  0  0  0  0  0  0  0  0  0
   45.4040   42.3880   48.3050 O   0  0  0  0  0  0  0  0  0  0  0  0
   46.1210   41.7030   48.2990 H   0  0  0  0  0  0  0  0  0  0  0  0
   44.4650   43.9320   45.7180 O   0  0  0  0  0  0  0  0  0  0  0  0
   45.1610   44.6530   45.7210 H   0  0  0  0  0  0  0  0  0  0  0  0
  1  6  1  0  0  0  0
  2  3  1  0  0  0  0
  2  1  2  0  0  0  0
  3  4  2  0  0  0  0
  4  5  1  0  0  0  0
  5  8  1  0  0  0  0
  6  5  2  0  0  0  0
  7  2  1  0  0  0  0
  9 14  1  6  0  0  0
  9 10  1  0  0  0  0
  9 19  1  0  0  0  0
 10 15  1  1  0  0  0
 10  3  1  0  0  0  0
 11 10  1  0  0  0  0
 12 13  1  0  0  0  0
 12 17  1  0  0  0  0
 12 11  1  0  0  0  0
 13 18  1  1  0  0  0
 13  9  1  0  0  0  0
 16 12  1  0  0  0  0
 20 19  1  0  0  0  0
 21 13  1  0  0  0  0
 22 21  1  0  0  0  0
 23  1  1  0  0  0  0
 23 28  1  0  0  0  0
 24 23  1  0  0  0  0
 25 23  1  0  0  0  0
 26 28  1  0  0  0  0
 27 26  2  0  0  0  0
 28 29  1  0  0  0  0
 30 36  1  1  0  0  0
 30 31  1  0  0  0  0
 30 35  1  0  0  0  0
 31 26  1  6  0  0  0
 31 32  1  0  0  0  0
 32 33  1  0  0  0  0
 33 34  1  0  0  0  0
 34 38  1  1  0  0  0
 35 40  1  6  0  0  0
 35 34  1  0  0  0  0
 36 37  1  0  0  0  0
 39 38  1  0  0  0  0
 40 41  1  0  0  0  0
M  END
>  <minimizedAffinity>
-2.94233108

>  <minimizedRMSD>
0.497142196

$$$$
