
 OpenBabel03252502563D

 40 42  0  0  1  0  0  0  0  0999 V2000
   45.5930   29.9390   44.7000 Br  0  0  0  0  0  0  0  0  0  0  0  0
   45.6600   30.5310   46.5390 C   0  0  0  0  0  0  0  0  0  0  0  0
   46.3520   31.6920   46.7610 C   0  0  0  0  0  0  0  0  0  0  0  0
   46.3850   32.0980   48.0950 C   0  0  0  0  0  0  0  0  0  0  0  0
   45.7720   31.3900   49.1230 C   0  0  0  0  0  0  0  0  0  0  0  0
   45.1020   30.2380   48.8050 C   0  0  0  0  0  0  0  0  0  0  0  0
   45.0360   29.7900   47.5070 C   0  0  0  0  0  0  0  0  0  0  0  0
   46.9050   33.0020   48.3760 H   0  0  0  0  0  0  0  0  0  0  0  0
   45.8290   31.7510   50.1490 H   0  0  0  0  0  0  0  0  0  0  0  0
   44.6150   29.6710   49.6010 H   0  0  0  0  0  0  0  0  0  0  0  0
   47.0390   32.5290   45.7750 C   0  0  0  0  0  0  0  0  0  0  0  0
   47.2970   31.8630   44.9120 H   0  0  0  0  0  0  0  0  0  0  0  0
   48.0080   32.9060   46.1620 H   0  0  0  0  0  0  0  0  0  0  0  0
   44.5370   35.2890   45.4610 C   0  0  0  0  0  0  0  0  0  0  0  0
   44.7560   35.6970   44.1400 C   0  0  0  0  0  0  0  0  0  0  0  0
   45.7240   35.0480   43.3940 C   0  0  0  0  0  0  0  0  0  0  0  0
   46.4150   34.0490   43.9690 N   0  0  0  0  0  0  0  0  0  0  0  0
   46.2030   33.6510   45.2550 C   0  0  0  0  0  0  0  0  0  0  0  0
   45.2540   34.2980   45.9660 N   0  0  0  0  0  0  0  0  0  0  0  0
   43.8260   35.6870   46.1750 H   0  0  0  0  0  0  0  0  0  0  0  0
   44.1330   36.5040   43.8140 H   0  0  0  0  0  0  0  0  0  0  0  0
   45.8740   35.3800   42.3800 H   0  0  0  0  0  0  0  0  0  0  0  0
   44.3470   28.6100   47.1980 O   0  0  0  0  0  0  0  0  0  0  0  0
   44.1470   26.0410   46.8140 O   0  0  0  0  0  0  0  0  0  0  0  0
   44.8970   27.0670   47.6530 P   0  0  2  0  0  0  0  0  0  0  0  0
   44.5610   26.8630   49.2850 O   0  0  0  0  0  0  0  0  0  0  0  0
   44.1600   25.9710   49.4730 H   0  0  0  0  0  0  0  0  0  0  0  0
   46.5530   26.8670   47.3570 O   0  0  0  0  0  0  0  0  0  0  0  0
   48.6830   26.2390   48.2690 C   0  0  2  0  0  3  0  0  0  0  0  0
   47.1770   26.1710   48.3880 C   0  0  2  0  0  3  0  0  0  0  0  0
   46.7770   24.8390   48.4080 O   0  0  0  0  0  0  0  0  0  0  0  0
   47.3320   24.0780   47.3900 C   0  0  0  0  0  2  0  0  0  0  0  0
   48.8220   23.9550   47.4630 C   0  0  1  0  0  3  0  0  0  0  0  0
   49.2910   24.8830   48.5830 C   0  0  2  0  0  3  0  0  0  0  0  0
   49.2510   27.1410   49.1860 O   0  0  0  0  0  0  0  0  0  0  0  0
   50.2150   26.9150   49.2000 H   0  0  0  0  0  0  0  0  0  0  0  0
   49.2570   22.6820   47.7590 O   0  0  0  0  0  0  0  0  0  0  0  0
   50.2000   22.7730   48.0550 H   0  0  0  0  0  0  0  0  0  0  0  0
   48.8430   24.4780   49.8320 O   0  0  0  0  0  0  0  0  0  0  0  0
   48.5770   23.5300   49.8820 H   0  0  0  0  0  0  0  0  0  0  0  0
  1  2  1  0  0  0  0
  2  3  2  0  0  0  0
  2  7  1  0  0  0  0
  3  4  1  0  0  0  0
  4  8  1  0  0  0  0
  4  5  2  0  0  0  0
  5  9  1  0  0  0  0
  6  5  1  0  0  0  0
  6 10  1  0  0  0  0
  7  6  2  0  0  0  0
 11 13  1  0  0  0  0
 11  3  1  0  0  0  0
 12 11  1  0  0  0  0
 14 19  1  0  0  0  0
 14 20  1  0  0  0  0
 15 14  2  0  0  0  0
 16 17  2  0  0  0  0
 16 15  1  0  0  0  0
 17 18  1  0  0  0  0
 18 11  1  0  0  0  0
 18 19  2  0  0  0  0
 21 15  1  0  0  0  0
 22 16  1  0  0  0  0
 23  7  1  0  0  0  0
 23 25  1  0  0  0  0
 25 24  2  6  0  0  0
 25 26  1  0  0  0  0
 26 27  1  0  0  0  0
 28 25  1  0  0  0  0
 29 30  1  0  0  0  0
 29 34  1  0  0  0  0
 29 35  1  1  0  0  0
 30 28  1  6  0  0  0
 30 31  1  0  0  0  0
 32 33  1  0  0  0  0
 32 31  1  0  0  0  0
 33 37  1  1  0  0  0
 33 34  1  0  0  0  0
 34 39  1  1  0  0  0
 35 36  1  0  0  0  0
 37 38  1  0  0  0  0
 39 40  1  0  0  0  0
M  END
>  <minimizedAffinity>
-5.45675516

>  <minimizedRMSD>
0.748440146

$$$$
