
 OpenBabel03252505433D

 45 48  0  0  1  0  0  0  0  0999 V2000
   42.9190   33.9500   39.5190 C   0  0  0  0  0  0  0  0  0  0  0  0
   43.1880   32.9100   38.6600 C   0  0  0  0  0  0  0  0  0  0  0  0
   42.2460   32.3640   37.8290 C   0  0  0  0  0  0  0  0  0  0  0  0
   40.9930   32.8840   37.8680 N   0  0  0  0  0  0  0  0  0  0  0  0
   40.7100   33.9160   38.7160 C   0  0  0  0  0  0  0  0  0  0  0  0
   41.6490   34.4450   39.5290 N   0  0  0  0  0  0  0  0  0  0  0  0
   44.1750   32.5010   38.6320 H   0  0  0  0  0  0  0  0  0  0  0  0
   42.4640   31.5410   37.1510 H   0  0  0  0  0  0  0  0  0  0  0  0
   43.8720   34.0710   41.7990 C   0  0  1  0  0  0  0  0  0  0  0  0
   43.5120   35.5560   41.4510 C   0  0  0  0  0  0  0  0  0  0  0  0
   43.9790   34.5130   40.4400 C   0  0  2  0  0  0  0  0  0  0  0  0
   42.9560   33.5240   42.1530 H   0  0  0  0  0  0  0  0  0  0  0  0
   44.2420   36.3200   41.7700 H   0  0  0  0  0  0  0  0  0  0  0  0
   42.4480   35.8130   41.3780 H   0  0  0  0  0  0  0  0  0  0  0  0
   44.8660   34.8070   39.8850 H   0  0  0  0  0  0  0  0  0  0  0  0
   45.0190   33.9410   42.7240 C   0  0  0  0  0  0  0  0  0  0  0  0
   46.2910   34.3130   42.2390 C   0  0  0  0  0  0  0  0  0  0  0  0
   47.3840   34.2020   43.0870 C   0  0  0  0  0  0  0  0  0  0  0  0
   47.1690   33.7390   44.3460 N   0  0  0  0  0  0  0  0  0  0  0  0
   45.9510   33.3960   44.7690 C   0  0  0  0  0  0  0  0  0  0  0  0
   44.9060   33.5060   43.9440 N   0  0  0  0  0  0  0  0  0  0  0  0
   46.4040   34.6800   41.2180 H   0  0  0  0  0  0  0  0  0  0  0  0
   48.3950   34.4820   42.7500 H   0  0  0  0  0  0  0  0  0  0  0  0
   45.9220   32.9110   46.1930 C   0  0  0  0  0  0  0  0  0  0  0  0
   45.0080   33.6270   46.9520 F   0  0  0  0  0  0  0  0  0  0  0  0
   47.1850   33.1610   46.7810 F   0  0  0  0  0  0  0  0  0  0  0  0
   45.7320   31.5570   46.2200 F   0  0  0  0  0  0  0  0  0  0  0  0
   39.3570   34.4990   38.7860 C   0  0  0  0  0  0  0  0  0  0  0  0
   38.7800   34.0380   37.9350 H   0  0  0  0  0  0  0  0  0  0  0  0
   39.3740   35.5800   38.6610 H   0  0  0  0  0  0  0  0  0  0  0  0
   38.6360   34.0940   40.0400 C   0  0  0  0  0  0  0  0  0  0  0  0
   38.8650   34.7570   40.8870 H   0  0  0  0  0  0  0  0  0  0  0  0
   37.5320   34.1050   39.8160 H   0  0  0  0  0  0  0  0  0  0  0  0
   39.4900   32.6400   41.8750 C   0  0  1  0  0  0  0  0  0  0  0  0
   38.9740   32.7010   40.4510 C   0  0  1  0  0  0  0  0  0  0  0  0
   38.0250   31.7480   40.2290 O   0  0  0  0  0  0  0  0  0  0  0  0
   37.9550   30.7780   41.2220 C   0  0  0  0  0  0  0  0  0  0  0  0
   39.2850   30.2290   41.6220 C   0  0  2  0  0  0  0  0  0  0  0  0
   40.2270   31.3240   42.0190 C   0  0  2  0  0  0  0  0  0  0  0  0
   40.3040   33.7390   42.1400 O   0  0  0  0  0  0  0  0  0  0  0  0
   39.9970   34.1120   43.0110 H   0  0  0  0  0  0  0  0  0  0  0  0
   39.8070   29.3360   40.6940 O   0  0  0  0  0  0  0  0  0  0  0  0
   40.6450   29.6530   40.2670 H   0  0  0  0  0  0  0  0  0  0  0  0
   40.7650   31.1730   43.2950 O   0  0  0  0  0  0  0  0  0  0  0  0
   41.6640   31.6240   43.2960 H   0  0  0  0  0  0  0  0  0  0  0  0
  1  6  1  0  0  0  0
  1 11  1  0  0  0  0
  2  1  2  0  0  0  0
  3  4  2  0  0  0  0
  3  2  1  0  0  0  0
  4  5  1  0  0  0  0
  5 28  1  0  0  0  0
  5  6  2  0  0  0  0
  7  2  1  0  0  0  0
  8  3  1  0  0  0  0
  9 12  1  1  0  0  0
  9 16  1  0  0  0  0
 10 13  1  0  0  0  0
 10  9  1  0  0  0  0
 11 15  1  6  0  0  0
 11 10  1  0  0  0  0
 11  9  1  0  0  0  0
 14 10  1  0  0  0  0
 16 21  1  0  0  0  0
 17 16  2  0  0  0  0
 17 18  1  0  0  0  0
 18 19  2  0  0  0  0
 19 20  1  0  0  0  0
 20 24  1  0  0  0  0
 21 20  2  0  0  0  0
 22 17  1  0  0  0  0
 23 18  1  0  0  0  0
 24 27  1  0  0  0  0
 24 26  1  0  0  0  0
 24 25  1  0  0  0  0
 28 31  1  0  0  0  0
 29 28  1  0  0  0  0
 30 28  1  0  0  0  0
 31 32  1  0  0  0  0
 33 31  1  0  0  0  0
 34 39  1  0  0  0  0
 34 40  1  6  0  0  0
 35 31  1  1  0  0  0
 35 34  1  0  0  0  0
 36 35  1  0  0  0  0
 36 37  1  0  0  0  0
 37 38  1  0  0  0  0
 38 42  1  6  0  0  0
 38 39  1  0  0  0  0
 39 44  1  1  0  0  0
 40 41  1  0  0  0  0
 43 42  1  0  0  0  0
 44 45  1  0  0  0  0
M  END
>  <minimizedAffinity>
-6.8106451

>  <minimizedRMSD>
1.92633569

$$$$
