
 OpenBabel03252504313D

 36 37  0  0  1  0  0  0  0  0999 V2000
   37.1160   31.4100   39.8450 C   0  0  0  0  0  0  0  0  0  0  0  0
   38.0240   31.0860   39.3020 H   0  0  0  0  0  0  0  0  0  0  0  0
   36.2260   31.3180   39.1900 H   0  0  0  0  0  0  0  0  0  0  0  0
   37.7760   29.9150   41.8000 C   0  0  0  0  0  3  0  0  0  0  0  0
   36.8460   30.4930   41.0280 C   0  0  0  0  0  3  0  0  0  0  0  0
   37.3120   29.1160   42.8320 O   0  0  0  0  0  0  0  0  0  0  0  0
   36.8900   27.8110   42.7540 C   0  0  0  0  0  0  0  0  0  0  0  0
   36.1890   27.6420   43.6290 H   0  0  0  0  0  0  0  0  0  0  0  0
   36.3420   27.5430   41.8510 H   0  0  0  0  0  0  0  0  0  0  0  0
   37.7680   25.6060   42.3000 C   0  0  0  0  0  0  0  0  0  0  0  0
   37.9740   26.8210   42.9870 C   0  0  0  0  0  0  0  0  0  0  0  0
   39.0980   26.9220   43.7430 C   0  0  0  0  0  0  0  0  0  0  0  0
   39.9150   25.8690   43.7760 N   0  0  0  0  0  0  0  0  0  0  0  0
   39.7260   24.7310   43.1340 C   0  0  0  0  0  0  0  0  0  0  0  0
   38.5960   24.5460   42.3360 N   0  0  0  0  0  0  0  0  0  0  0  0
   36.9040   25.3980   41.6600 H   0  0  0  0  0  0  0  0  0  0  0  0
   39.1990   27.8750   44.2440 H   0  0  0  0  0  0  0  0  0  0  0  0
   40.4320   23.9080   43.2010 H   0  0  0  0  0  0  0  0  0  0  0  0
   37.2050   32.6870   40.3340 O   0  0  0  0  0  0  0  0  0  0  0  0
   38.7960   34.7860   40.0090 O   0  0  0  0  0  0  0  0  0  0  0  0
   38.7830   33.3010   40.2370 P   0  0  1  0  0  0  0  0  0  0  0  0
   39.6100   32.9730   41.6870 O   0  0  0  0  0  0  0  0  0  0  0  0
   40.1550   32.1570   41.6070 H   0  0  0  0  0  0  0  0  0  0  0  0
   39.5860   32.4890   38.9850 O   0  0  0  0  0  0  0  0  0  0  0  0
   41.1930   32.3930   37.2980 C   0  0  1  0  0  3  0  0  0  0  0  0
   40.6120   33.2020   38.4390 C   0  0  2  0  0  3  0  0  0  0  0  0
   41.5630   33.4840   39.4050 O   0  0  0  0  0  0  0  0  0  0  0  0
   42.6850   34.1360   38.9440 C   0  0  0  0  0  2  0  0  0  0  0  0
   43.2370   33.6350   37.6540 C   0  0  1  0  0  3  0  0  0  0  0  0
   42.6930   32.2400   37.4310 C   0  0  2  0  0  3  0  0  0  0  0  0
   40.6440   31.1120   37.2690 O   0  0  0  0  0  0  0  0  0  0  0  0
   41.1270   30.4460   37.7970 H   0  0  0  0  0  0  0  0  0  0  0  0
   42.8310   34.4490   36.5940 O   0  0  0  0  0  0  0  0  0  0  0  0
   42.8490   35.3990   36.8480 H   0  0  0  0  0  0  0  0  0  0  0  0
   43.1990   31.6390   36.2980 O   0  0  0  0  0  0  0  0  0  0  0  0
   44.1860   31.7290   36.3180 H   0  0  0  0  0  0  0  0  0  0  0  0
  1 19  1  0  0  0  0
  1  5  1  0  0  0  0
  2  1  1  0  0  0  0
  3  1  1  0  0  0  0
  4  6  1  0  0  0  0
  5  4  2  0  0  0  0
  7  6  1  0  0  0  0
  7 11  1  0  0  0  0
  7  8  1  0  0  0  0
  9  7  1  0  0  0  0
 10 15  2  0  0  0  0
 10 11  1  0  0  0  0
 11 12  2  0  0  0  0
 12 13  1  0  0  0  0
 12 17  1  0  0  0  0
 14 18  1  0  0  0  0
 14 13  2  0  0  0  0
 15 14  1  0  0  0  0
 16 10  1  0  0  0  0
 21 20  2  6  0  0  0
 21 19  1  0  0  0  0
 21 22  1  0  0  0  0
 23 22  1  0  0  0  0
 24 21  1  0  0  0  0
 25 31  1  1  0  0  0
 25 30  1  0  0  0  0
 25 26  1  0  0  0  0
 26 24  1  1  0  0  0
 26 27  1  0  0  0  0
 28 27  1  0  0  0  0
 29 33  1  6  0  0  0
 29 28  1  0  0  0  0
 30 35  1  6  0  0  0
 30 29  1  0  0  0  0
 31 32  1  0  0  0  0
 33 34  1  0  0  0  0
 35 36  1  0  0  0  0
M  END
>  <minimizedAffinity>
-6.11053276

$$$$

 OpenBabel03252504313D

 36 37  0  0  1  0  0  0  0  0999 V2000
   35.8710   29.8420   39.5020 C   0  0  0  0  0  0  0  0  0  0  0  0
   34.8100   29.6040   39.7040 H   0  0  0  0  0  0  0  0  0  0  0  0
   36.0270   30.9400   39.5240 H   0  0  0  0  0  0  0  0  0  0  0  0
   36.9690   29.8430   41.8010 C   0  0  0  0  0  3  0  0  0  0  0  0
   36.7620   29.2840   40.6020 C   0  0  0  0  0  3  0  0  0  0  0  0
   37.8200   29.1640   42.6590 O   0  0  0  0  0  0  0  0  0  0  0  0
   37.5000   28.1370   43.5130 C   0  0  0  0  0  0  0  0  0  0  0  0
   37.7240   28.5030   44.5630 H   0  0  0  0  0  0  0  0  0  0  0  0
   36.4580   27.8190   43.5030 H   0  0  0  0  0  0  0  0  0  0  0  0
   37.8540   25.9720   42.4990 C   0  0  0  0  0  0  0  0  0  0  0  0
   38.3820   26.9480   43.3700 C   0  0  0  0  0  0  0  0  0  0  0  0
   39.5850   26.6830   43.9420 C   0  0  0  0  0  0  0  0  0  0  0  0
   40.1700   25.5250   43.6360 N   0  0  0  0  0  0  0  0  0  0  0  0
   39.6800   24.6100   42.8210 C   0  0  0  0  0  0  0  0  0  0  0  0
   38.4490   24.8050   42.1920 N   0  0  0  0  0  0  0  0  0  0  0  0
   36.8960   26.0640   41.9760 H   0  0  0  0  0  0  0  0  0  0  0  0
   39.9350   27.4670   44.5980 H   0  0  0  0  0  0  0  0  0  0  0  0
   40.2080   23.6830   42.6110 H   0  0  0  0  0  0  0  0  0  0  0  0
   36.3240   29.3290   38.3140 O   0  0  0  0  0  0  0  0  0  0  0  0
   38.9270   29.5770   37.8670 O   0  0  0  0  0  0  0  0  0  0  0  0
   37.5960   30.2440   37.6660 P   0  0  1  0  0  0  0  0  0  0  0  0
   37.3480   30.4590   35.9970 O   0  0  0  0  0  0  0  0  0  0  0  0
   36.9180   31.3250   35.8120 H   0  0  0  0  0  0  0  0  0  0  0  0
   37.5690   31.7720   38.3980 O   0  0  0  0  0  0  0  0  0  0  0  0
   38.2590   32.8850   40.3280 C   0  0  1  0  0  3  0  0  0  0  0  0
   38.6800   32.0450   39.1400 C   0  0  2  0  0  3  0  0  0  0  0  0
   39.6240   32.6930   38.3620 O   0  0  0  0  0  0  0  0  0  0  0  0
   40.7610   33.0870   39.0340 C   0  0  0  0  0  2  0  0  0  0  0  0
   40.5380   33.6920   40.3770 C   0  0  1  0  0  3  0  0  0  0  0  0
   39.0940   34.1410   40.4460 C   0  0  2  0  0  3  0  0  0  0  0  0
   36.9270   33.2780   40.2110 O   0  0  0  0  0  0  0  0  0  0  0  0
   36.7890   34.1260   39.7450 H   0  0  0  0  0  0  0  0  0  0  0  0
   40.7630   32.7520   41.3850 O   0  0  0  0  0  0  0  0  0  0  0  0
   41.5420   32.1880   41.1770 H   0  0  0  0  0  0  0  0  0  0  0  0
   38.7880   34.7920   41.6220 O   0  0  0  0  0  0  0  0  0  0  0  0
   39.4740   35.4900   41.7740 H   0  0  0  0  0  0  0  0  0  0  0  0
  1  3  1  0  0  0  0
  1  2  1  0  0  0  0
  1  5  1  0  0  0  0
  4  6  1  0  0  0  0
  5  4  2  0  0  0  0
  6  7  1  0  0  0  0
  7  8  1  0  0  0  0
  9  7  1  0  0  0  0
 10 11  1  0  0  0  0
 11  7  1  0  0  0  0
 11 12  2  0  0  0  0
 12 17  1  0  0  0  0
 13 12  1  0  0  0  0
 14 13  2  0  0  0  0
 15 10  2  0  0  0  0
 15 14  1  0  0  0  0
 16 10  1  0  0  0  0
 18 14  1  0  0  0  0
 19  1  1  0  0  0  0
 21 20  2  1  0  0  0
 21 19  1  0  0  0  0
 21 24  1  0  0  0  0
 22 21  1  0  0  0  0
 23 22  1  0  0  0  0
 25 31  1  6  0  0  0
 25 30  1  0  0  0  0
 26 24  1  6  0  0  0
 26 25  1  0  0  0  0
 27 28  1  0  0  0  0
 27 26  1  0  0  0  0
 28 29  1  0  0  0  0
 29 30  1  0  0  0  0
 29 33  1  1  0  0  0
 30 35  1  1  0  0  0
 32 31  1  0  0  0  0
 34 33  1  0  0  0  0
 35 36  1  0  0  0  0
M  END
>  <minimizedAffinity>
-5.93399096

$$$$

 OpenBabel03252504313D

 36 37  0  0  1  0  0  0  0  0999 V2000
   37.3020   29.0270   42.6270 C   0  0  0  0  0  0  0  0  0  0  0  0
   36.8880   29.2180   43.6350 H   0  0  0  0  0  0  0  0  0  0  0  0
   37.7090   29.9640   42.1960 H   0  0  0  0  0  0  0  0  0  0  0  0
   38.7120   27.1890   43.6880 C   0  0  0  0  0  3  0  0  0  0  0  0
   38.4840   28.0720   42.7080 C   0  0  0  0  0  3  0  0  0  0  0  0
   39.8500   26.4090   43.5640 O   0  0  0  0  0  0  0  0  0  0  0  0
   39.9160   25.0520   43.3640 C   0  0  0  0  0  0  0  0  0  0  0  0
   41.0050   24.8030   43.1660 H   0  0  0  0  0  0  0  0  0  0  0  0
   39.5970   24.4330   44.2020 H   0  0  0  0  0  0  0  0  0  0  0  0
   39.9770   24.8560   40.9570 C   0  0  0  0  0  0  0  0  0  0  0  0
   39.2300   24.5980   42.1260 C   0  0  0  0  0  0  0  0  0  0  0  0
   38.0250   23.9900   41.9710 C   0  0  0  0  0  0  0  0  0  0  0  0
   37.6450   23.6850   40.7300 N   0  0  0  0  0  0  0  0  0  0  0  0
   38.3410   23.9230   39.6340 C   0  0  0  0  0  0  0  0  0  0  0  0
   39.5890   24.5450   39.7060 N   0  0  0  0  0  0  0  0  0  0  0  0
   40.9590   25.3390   40.9460 H   0  0  0  0  0  0  0  0  0  0  0  0
   37.5020   23.8210   42.9020 H   0  0  0  0  0  0  0  0  0  0  0  0
   37.9750   23.6480   38.6480 H   0  0  0  0  0  0  0  0  0  0  0  0
   36.3920   28.4730   41.7650 O   0  0  0  0  0  0  0  0  0  0  0  0
   34.5360   29.1820   40.0070 O   0  0  0  0  0  0  0  0  0  0  0  0
   35.8560   29.5830   40.6010 P   0  0  1  0  0  0  0  0  0  0  0  0
   35.6800   31.1160   41.3180 O   0  0  0  0  0  0  0  0  0  0  0  0
   36.4780   31.6710   41.1660 H   0  0  0  0  0  0  0  0  0  0  0  0
   37.0470   29.7030   39.4010 O   0  0  0  0  0  0  0  0  0  0  0  0
   37.9350   31.4310   38.1120 C   0  0  1  0  0  3  0  0  0  0  0  0
   37.8100   30.8290   39.4960 C   0  0  2  0  0  3  0  0  0  0  0  0
   39.0480   30.5220   40.0360 O   0  0  0  0  0  0  0  0  0  0  0  0
   39.9300   31.5780   40.1050 C   0  0  0  0  0  2  0  0  0  0  0  0
   39.9750   32.4590   38.9050 C   0  0  1  0  0  3  0  0  0  0  0  0
   39.3810   31.6900   37.7450 C   0  0  2  0  0  3  0  0  0  0  0  0
   37.4060   30.5740   37.1490 O   0  0  0  0  0  0  0  0  0  0  0  0
   38.0440   29.9370   36.7720 H   0  0  0  0  0  0  0  0  0  0  0  0
   39.2170   33.6130   39.1120 O   0  0  0  0  0  0  0  0  0  0  0  0
   39.3310   33.9540   40.0280 H   0  0  0  0  0  0  0  0  0  0  0  0
   39.4390   32.3800   36.5530 O   0  0  0  0  0  0  0  0  0  0  0  0
   40.3670   32.7080   36.4340 H   0  0  0  0  0  0  0  0  0  0  0  0
  1  5  1  0  0  0  0
  1  2  1  0  0  0  0
  3  1  1  0  0  0  0
  5  4  2  0  0  0  0
  6  4  1  0  0  0  0
  7  6  1  0  0  0  0
  7  9  1  0  0  0  0
  8  7  1  0  0  0  0
 10 11  1  0  0  0  0
 11  7  1  0  0  0  0
 12 11  2  0  0  0  0
 12 17  1  0  0  0  0
 13 12  1  0  0  0  0
 14 15  1  0  0  0  0
 14 13  2  0  0  0  0
 15 10  2  0  0  0  0
 16 10  1  0  0  0  0
 18 14  1  0  0  0  0
 19  1  1  0  0  0  0
 21 20  2  6  0  0  0
 21 22  1  0  0  0  0
 21 19  1  0  0  0  0
 23 22  1  0  0  0  0
 24 21  1  0  0  0  0
 25 31  1  6  0  0  0
 25 26  1  0  0  0  0
 26 24  1  6  0  0  0
 26 27  1  0  0  0  0
 27 28  1  0  0  0  0
 29 33  1  1  0  0  0
 29 28  1  0  0  0  0
 30 35  1  6  0  0  0
 30 25  1  0  0  0  0
 30 29  1  0  0  0  0
 32 31  1  0  0  0  0
 33 34  1  0  0  0  0
 36 35  1  0  0  0  0
M  END
>  <minimizedAffinity>
-5.80020714

$$$$

 OpenBabel03252504313D

 36 37  0  0  1  0  0  0  0  0999 V2000
   36.5200   27.7650   38.6260 C   0  0  0  0  0  0  0  0  0  0  0  0
   37.4340   27.4590   38.0840 H   0  0  0  0  0  0  0  0  0  0  0  0
   35.6450   27.1930   38.2570 H   0  0  0  0  0  0  0  0  0  0  0  0
   36.2850   28.2160   41.1230 C   0  0  0  0  0  3  0  0  0  0  0  0
   36.6350   27.4210   40.1040 C   0  0  0  0  0  3  0  0  0  0  0  0
   36.4690   27.7040   42.3970 O   0  0  0  0  0  0  0  0  0  0  0  0
   37.1410   28.2880   43.4430 C   0  0  0  0  0  0  0  0  0  0  0  0
   36.7430   29.3460   43.5360 H   0  0  0  0  0  0  0  0  0  0  0  0
   37.0110   27.8130   44.4140 H   0  0  0  0  0  0  0  0  0  0  0  0
   38.9090   29.8180   42.8290 C   0  0  0  0  0  0  0  0  0  0  0  0
   38.5910   28.4890   43.1810 C   0  0  0  0  0  0  0  0  0  0  0  0
   39.6170   27.5990   43.2340 C   0  0  0  0  0  0  0  0  0  0  0  0
   40.8380   28.0520   42.9510 N   0  0  0  0  0  0  0  0  0  0  0  0
   41.1390   29.2940   42.6220 C   0  0  0  0  0  0  0  0  0  0  0  0
   40.1440   30.2690   42.5450 N   0  0  0  0  0  0  0  0  0  0  0  0
   38.1750   30.6280   42.7510 H   0  0  0  0  0  0  0  0  0  0  0  0
   39.3090   26.6000   43.5080 H   0  0  0  0  0  0  0  0  0  0  0  0
   42.1590   29.6000   42.4030 H   0  0  0  0  0  0  0  0  0  0  0  0
   36.2670   29.1100   38.5430 O   0  0  0  0  0  0  0  0  0  0  0  0
   38.8990   29.3040   38.2720 O   0  0  0  0  0  0  0  0  0  0  0  0
   37.5950   29.9750   37.9420 P   0  0  1  0  0  0  0  0  0  0  0  0
   37.4700   30.1040   36.2500 O   0  0  0  0  0  0  0  0  0  0  0  0
   37.0680   30.9640   35.9890 H   0  0  0  0  0  0  0  0  0  0  0  0
   37.5400   31.5400   38.5890 O   0  0  0  0  0  0  0  0  0  0  0  0
   38.2590   32.7640   40.4390 C   0  0  1  0  0  3  0  0  0  0  0  0
   38.6680   31.8920   39.2690 C   0  0  2  0  0  3  0  0  0  0  0  0
   39.5490   32.5460   38.4250 O   0  0  0  0  0  0  0  0  0  0  0  0
   40.6930   33.0170   39.0300 C   0  0  0  0  0  2  0  0  0  0  0  0
   40.4990   33.6700   40.3550 C   0  0  1  0  0  3  0  0  0  0  0  0
   39.0410   34.0600   40.4680 C   0  0  2  0  0  3  0  0  0  0  0  0
   36.9070   33.0940   40.3630 O   0  0  0  0  0  0  0  0  0  0  0  0
   36.7120   33.9140   39.8690 H   0  0  0  0  0  0  0  0  0  0  0  0
   40.8090   32.7860   41.3900 O   0  0  0  0  0  0  0  0  0  0  0  0
   41.6020   32.2470   41.1730 H   0  0  0  0  0  0  0  0  0  0  0  0
   38.7560   34.7470   41.6280 O   0  0  0  0  0  0  0  0  0  0  0  0
   39.4150   35.4800   41.7210 H   0  0  0  0  0  0  0  0  0  0  0  0
  1  5  1  0  0  0  0
  2  1  1  0  0  0  0
  3  1  1  0  0  0  0
  4  6  1  0  0  0  0
  5  4  2  0  0  0  0
  6  7  1  0  0  0  0
  7  8  1  0  0  0  0
  7  9  1  0  0  0  0
 10 11  1  0  0  0  0
 11 12  2  0  0  0  0
 11  7  1  0  0  0  0
 12 17  1  0  0  0  0
 13 12  1  0  0  0  0
 14 13  2  0  0  0  0
 15 14  1  0  0  0  0
 15 10  2  0  0  0  0
 16 10  1  0  0  0  0
 18 14  1  0  0  0  0
 19  1  1  0  0  0  0
 21 20  2  1  0  0  0
 21 19  1  0  0  0  0
 21 24  1  0  0  0  0
 22 21  1  0  0  0  0
 23 22  1  0  0  0  0
 25 31  1  6  0  0  0
 25 30  1  0  0  0  0
 26 24  1  6  0  0  0
 26 25  1  0  0  0  0
 27 28  1  0  0  0  0
 27 26  1  0  0  0  0
 28 29  1  0  0  0  0
 29 30  1  0  0  0  0
 29 33  1  1  0  0  0
 30 35  1  1  0  0  0
 32 31  1  0  0  0  0
 34 33  1  0  0  0  0
 35 36  1  0  0  0  0
M  END
>  <minimizedAffinity>
-5.6536541

$$$$

 OpenBabel03252504313D

 36 37  0  0  1  0  0  0  0  0999 V2000
   38.5880   29.4220   39.4900 C   0  0  0  0  0  0  0  0  0  0  0  0
   39.6660   29.3270   39.7130 H   0  0  0  0  0  0  0  0  0  0  0  0
   38.3790   29.0790   38.4560 H   0  0  0  0  0  0  0  0  0  0  0  0
   36.9770   28.9040   41.3940 C   0  0  0  0  0  3  0  0  0  0  0  0
   37.7730   28.5080   40.3930 C   0  0  0  0  0  3  0  0  0  0  0  0
   36.3190   27.9040   42.0920 O   0  0  0  0  0  0  0  0  0  0  0  0
   36.6800   27.3500   43.2960 C   0  0  0  0  0  0  0  0  0  0  0  0
   36.9420   28.2110   43.9860 H   0  0  0  0  0  0  0  0  0  0  0  0
   35.9100   26.7650   43.7980 H   0  0  0  0  0  0  0  0  0  0  0  0
   37.8240   25.3990   42.4470 C   0  0  0  0  0  0  0  0  0  0  0  0
   37.9390   26.5630   43.2360 C   0  0  0  0  0  0  0  0  0  0  0  0
   39.1440   26.8020   43.8160 C   0  0  0  0  0  0  0  0  0  0  0  0
   40.1200   25.9220   43.5930 N   0  0  0  0  0  0  0  0  0  0  0  0
   40.0170   24.8320   42.8550 C   0  0  0  0  0  0  0  0  0  0  0  0
   38.8130   24.5130   42.2250 N   0  0  0  0  0  0  0  0  0  0  0  0
   36.9100   25.0930   41.9290 H   0  0  0  0  0  0  0  0  0  0  0  0
   39.1680   27.7070   44.4070 H   0  0  0  0  0  0  0  0  0  0  0  0
   40.8530   24.1530   42.7120 H   0  0  0  0  0  0  0  0  0  0  0  0
   38.1090   30.6950   39.6640 O   0  0  0  0  0  0  0  0  0  0  0  0
   37.3820   31.5200   37.2500 O   0  0  0  0  0  0  0  0  0  0  0  0
   38.4210   31.6850   38.3230 P   0  0  1  0  0  0  0  0  0  0  0  0
   38.4350   33.3140   38.8110 O   0  0  0  0  0  0  0  0  0  0  0  0
   39.3540   33.6240   38.9800 H   0  0  0  0  0  0  0  0  0  0  0  0
   39.9630   31.3030   37.7360 O   0  0  0  0  0  0  0  0  0  0  0  0
   41.9520   31.9730   36.7190 C   0  0  1  0  0  3  0  0  0  0  0  0
   40.7740   32.3880   37.5760 C   0  0  2  0  0  3  0  0  0  0  0  0
   41.1790   32.8650   38.8110 O   0  0  0  0  0  0  0  0  0  0  0  0
   42.0670   33.9170   38.7640 C   0  0  0  0  0  2  0  0  0  0  0  0
   43.1560   33.7970   37.7540 C   0  0  1  0  0  3  0  0  0  0  0  0
   43.2690   32.3370   37.3700 C   0  0  2  0  0  3  0  0  0  0  0  0
   41.9550   30.5950   36.5130 O   0  0  0  0  0  0  0  0  0  0  0  0
   42.4460   30.0810   37.1830 H   0  0  0  0  0  0  0  0  0  0  0  0
   42.8530   34.5390   36.6110 O   0  0  0  0  0  0  0  0  0  0  0  0
   42.4350   35.3990   36.8460 H   0  0  0  0  0  0  0  0  0  0  0  0
   44.3030   32.0900   36.4920 O   0  0  0  0  0  0  0  0  0  0  0  0
   45.1220   32.5140   36.8550 H   0  0  0  0  0  0  0  0  0  0  0  0
  1 19  1  0  0  0  0
  1  2  1  0  0  0  0
  1  5  1  0  0  0  0
  3  1  1  0  0  0  0
  4  6  1  0  0  0  0
  5  4  2  0  0  0  0
  6  7  1  0  0  0  0
  7  9  1  0  0  0  0
  7  8  1  0  0  0  0
 10 11  1  0  0  0  0
 11  7  1  0  0  0  0
 11 12  2  0  0  0  0
 12 17  1  0  0  0  0
 13 12  1  0  0  0  0
 14 13  2  0  0  0  0
 15 10  2  0  0  0  0
 15 14  1  0  0  0  0
 16 10  1  0  0  0  0
 18 14  1  0  0  0  0
 21 20  2  6  0  0  0
 21 22  1  0  0  0  0
 21 19  1  0  0  0  0
 22 23  1  0  0  0  0
 24 21  1  0  0  0  0
 25 31  1  1  0  0  0
 25 30  1  0  0  0  0
 25 26  1  0  0  0  0
 26 24  1  1  0  0  0
 26 27  1  0  0  0  0
 28 27  1  0  0  0  0
 29 33  1  6  0  0  0
 29 28  1  0  0  0  0
 30 35  1  6  0  0  0
 30 29  1  0  0  0  0
 31 32  1  0  0  0  0
 33 34  1  0  0  0  0
 35 36  1  0  0  0  0
M  END
>  <minimizedAffinity>
-5.49183989

$$$$

 OpenBabel03252504313D

 36 37  0  0  1  0  0  0  0  0999 V2000
   37.0920   30.2510   39.2430 C   0  0  0  0  0  0  0  0  0  0  0  0
   38.1310   30.3700   38.8830 H   0  0  0  0  0  0  0  0  0  0  0  0
   36.4470   29.8610   38.4300 H   0  0  0  0  0  0  0  0  0  0  0  0
   35.9900   29.0080   41.1740 C   0  0  0  0  0  3  0  0  0  0  0  0
   37.0250   29.2090   40.3490 C   0  0  0  0  0  3  0  0  0  0  0  0
   36.1350   27.9990   42.1120 O   0  0  0  0  0  0  0  0  0  0  0  0
   37.2240   27.7540   42.9140 C   0  0  0  0  0  0  0  0  0  0  0  0
   37.9650   28.5910   42.7220 H   0  0  0  0  0  0  0  0  0  0  0  0
   37.0300   27.7420   43.9860 H   0  0  0  0  0  0  0  0  0  0  0  0
   37.1420   25.4450   42.2050 C   0  0  0  0  0  0  0  0  0  0  0  0
   37.9800   26.5320   42.5350 C   0  0  0  0  0  0  0  0  0  0  0  0
   39.3210   26.3250   42.4640 C   0  0  0  0  0  0  0  0  0  0  0  0
   39.7370   25.1160   42.0880 N   0  0  0  0  0  0  0  0  0  0  0  0
   38.9560   24.0970   41.7770 C   0  0  0  0  0  0  0  0  0  0  0  0
   37.5680   24.2270   41.8260 N   0  0  0  0  0  0  0  0  0  0  0  0
   36.0480   25.4830   42.2230 H   0  0  0  0  0  0  0  0  0  0  0  0
   39.9080   27.1930   42.7280 H   0  0  0  0  0  0  0  0  0  0  0  0
   39.3600   23.1330   41.4770 H   0  0  0  0  0  0  0  0  0  0  0  0
   36.5590   31.4100   39.7470 O   0  0  0  0  0  0  0  0  0  0  0  0
   37.0120   33.9750   39.2440 O   0  0  0  0  0  0  0  0  0  0  0  0
   37.6620   32.6970   39.6930 P   0  0  1  0  0  0  0  0  0  0  0  0
   38.3210   32.9450   41.2420 O   0  0  0  0  0  0  0  0  0  0  0  0
   39.1890   32.4900   41.3330 H   0  0  0  0  0  0  0  0  0  0  0  0
   38.9260   32.2630   38.6520 O   0  0  0  0  0  0  0  0  0  0  0  0
   40.9940   32.9760   37.8440 C   0  0  1  0  0  3  0  0  0  0  0  0
   40.1520   32.6890   39.0700 C   0  0  2  0  0  3  0  0  0  0  0  0
   40.7370   31.7320   39.8820 O   0  0  0  0  0  0  0  0  0  0  0  0
   42.0160   32.0270   40.2990 C   0  0  0  0  0  2  0  0  0  0  0  0
   42.9170   32.5970   39.2590 C   0  0  1  0  0  3  0  0  0  0  0  0
   42.3280   32.2650   37.9050 C   0  0  2  0  0  3  0  0  0  0  0  0
   40.3460   32.5500   36.6860 O   0  0  0  0  0  0  0  0  0  0  0  0
   40.5370   31.6280   36.4240 H   0  0  0  0  0  0  0  0  0  0  0  0
   42.9980   33.9860   39.3830 O   0  0  0  0  0  0  0  0  0  0  0  0
   43.0360   34.2570   40.3280 H   0  0  0  0  0  0  0  0  0  0  0  0
   43.1210   32.6770   36.8560 O   0  0  0  0  0  0  0  0  0  0  0  0
   44.0440   32.3570   37.0250 H   0  0  0  0  0  0  0  0  0  0  0  0
  1 19  1  0  0  0  0
  1  5  1  0  0  0  0
  2  1  1  0  0  0  0
  3  1  1  0  0  0  0
  4  6  1  0  0  0  0
  5  4  2  0  0  0  0
  6  7  1  0  0  0  0
  7  9  1  0  0  0  0
  8  7  1  0  0  0  0
 10 16  1  0  0  0  0
 10 11  1  0  0  0  0
 11  7  1  0  0  0  0
 12 11  2  0  0  0  0
 12 17  1  0  0  0  0
 13 12  1  0  0  0  0
 14 15  1  0  0  0  0
 14 13  2  0  0  0  0
 15 10  2  0  0  0  0
 18 14  1  0  0  0  0
 21 20  2  6  0  0  0
 21 19  1  0  0  0  0
 21 22  1  0  0  0  0
 22 23  1  0  0  0  0
 24 21  1  0  0  0  0
 25 31  1  6  0  0  0
 25 30  1  0  0  0  0
 25 26  1  0  0  0  0
 26 24  1  6  0  0  0
 26 27  1  0  0  0  0
 27 28  1  0  0  0  0
 29 33  1  1  0  0  0
 29 28  1  0  0  0  0
 30 35  1  6  0  0  0
 30 29  1  0  0  0  0
 32 31  1  0  0  0  0
 33 34  1  0  0  0  0
 35 36  1  0  0  0  0
M  END
>  <minimizedAffinity>
-5.1341114

$$$$

 OpenBabel03252504313D

 36 37  0  0  1  0  0  0  0  0999 V2000
   39.8880   30.7300   41.6190 C   0  0  0  0  0  0  0  0  0  0  0  0
   40.8530   31.0130   42.0780 H   0  0  0  0  0  0  0  0  0  0  0  0
   40.0490   30.3530   40.5890 H   0  0  0  0  0  0  0  0  0  0  0  0
   39.8510   28.4110   42.6740 C   0  0  0  0  0  3  0  0  0  0  0  0
   39.2550   29.5730   42.3790 C   0  0  0  0  0  3  0  0  0  0  0  0
   39.0930   27.4900   43.3790 O   0  0  0  0  0  0  0  0  0  0  0  0
   37.7390   27.2790   43.2890 C   0  0  0  0  0  0  0  0  0  0  0  0
   37.4270   26.7510   44.2440 H   0  0  0  0  0  0  0  0  0  0  0  0
   37.1240   28.1750   43.2070 H   0  0  0  0  0  0  0  0  0  0  0  0
   36.9480   26.9480   41.0300 C   0  0  0  0  0  0  0  0  0  0  0  0
   37.3550   26.3160   42.2240 C   0  0  0  0  0  0  0  0  0  0  0  0
   37.3440   24.9570   42.2420 C   0  0  0  0  0  0  0  0  0  0  0  0
   36.9520   24.3310   41.1320 N   0  0  0  0  0  0  0  0  0  0  0  0
   36.5710   24.9180   40.0130 C   0  0  0  0  0  0  0  0  0  0  0  0
   36.5530   26.3100   39.9130 N   0  0  0  0  0  0  0  0  0  0  0  0
   36.9110   28.0330   40.8880 H   0  0  0  0  0  0  0  0  0  0  0  0
   37.6660   24.5340   43.1830 H   0  0  0  0  0  0  0  0  0  0  0  0
   36.2620   24.3490   39.1400 H   0  0  0  0  0  0  0  0  0  0  0  0
   38.9740   31.7520   41.6050 O   0  0  0  0  0  0  0  0  0  0  0  0
   36.6580   30.5020   41.2680 O   0  0  0  0  0  0  0  0  0  0  0  0
   37.6500   31.4120   40.6010 P   0  0  1  0  0  0  0  0  0  0  0  0
   36.8600   32.8620   40.1930 O   0  0  0  0  0  0  0  0  0  0  0  0
   37.1620   33.1950   39.3170 H   0  0  0  0  0  0  0  0  0  0  0  0
   38.2400   30.7200   39.1710 O   0  0  0  0  0  0  0  0  0  0  0  0
   38.1140   29.1600   37.4420 C   0  0  1  0  0  3  0  0  0  0  0  0
   37.4270   29.7550   38.6530 C   0  0  2  0  0  3  0  0  0  0  0  0
   36.1940   30.2960   38.3290 O   0  0  0  0  0  0  0  0  0  0  0  0
   35.3170   29.4230   37.7240 C   0  0  0  0  0  2  0  0  0  0  0  0
   35.9060   28.5410   36.6760 C   0  0  1  0  0  3  0  0  0  0  0  0
   37.2100   29.1650   36.2290 C   0  0  2  0  0  3  0  0  0  0  0  0
   39.2580   29.8850   37.1140 O   0  0  0  0  0  0  0  0  0  0  0  0
   39.1120   30.6220   36.4890 H   0  0  0  0  0  0  0  0  0  0  0  0
   36.1710   27.2710   37.1920 O   0  0  0  0  0  0  0  0  0  0  0  0
   35.4520   26.9750   37.7960 H   0  0  0  0  0  0  0  0  0  0  0  0
   37.8130   28.4750   35.1990 O   0  0  0  0  0  0  0  0  0  0  0  0
   37.1340   28.3210   34.4940 H   0  0  0  0  0  0  0  0  0  0  0  0
  1  2  1  0  0  0  0
  1  5  1  0  0  0  0
  3  1  1  0  0  0  0
  4  6  1  0  0  0  0
  5  4  2  0  0  0  0
  7  6  1  0  0  0  0
  7  8  1  0  0  0  0
  9  7  1  0  0  0  0
 10 11  1  0  0  0  0
 11 12  2  0  0  0  0
 11  7  1  0  0  0  0
 12 17  1  0  0  0  0
 13 12  1  0  0  0  0
 14 13  2  0  0  0  0
 15 14  1  0  0  0  0
 15 10  2  0  0  0  0
 16 10  1  0  0  0  0
 18 14  1  0  0  0  0
 19  1  1  0  0  0  0
 21 20  2  1  0  0  0
 21 19  1  0  0  0  0
 22 21  1  0  0  0  0
 23 22  1  0  0  0  0
 24 21  1  0  0  0  0
 25 31  1  6  0  0  0
 25 26  1  0  0  0  0
 26 24  1  6  0  0  0
 27 26  1  0  0  0  0
 28 27  1  0  0  0  0
 29 33  1  1  0  0  0
 29 28  1  0  0  0  0
 30 35  1  6  0  0  0
 30 29  1  0  0  0  0
 30 25  1  0  0  0  0
 32 31  1  0  0  0  0
 33 34  1  0  0  0  0
 36 35  1  0  0  0  0
M  END
>  <minimizedAffinity>
-5.06716299

$$$$

 OpenBabel03252504313D

 36 37  0  0  1  0  0  0  0  0999 V2000
   37.3820   29.0100   42.1330 C   0  0  0  0  0  0  0  0  0  0  0  0
   36.4840   28.3740   42.2350 H   0  0  0  0  0  0  0  0  0  0  0  0
   37.2850   29.9140   42.7680 H   0  0  0  0  0  0  0  0  0  0  0  0
   38.6320   27.3760   43.6360 C   0  0  0  0  0  3  0  0  0  0  0  0
   38.6140   28.2830   42.6510 C   0  0  0  0  0  3  0  0  0  0  0  0
   39.8660   26.8300   43.9490 O   0  0  0  0  0  0  0  0  0  0  0  0
   40.2840   25.5370   43.7450 C   0  0  0  0  0  0  0  0  0  0  0  0
   41.4150   25.5700   43.6580 H   0  0  0  0  0  0  0  0  0  0  0  0
   40.0480   24.8310   44.5410 H   0  0  0  0  0  0  0  0  0  0  0  0
   40.7320   25.2980   41.3830 C   0  0  0  0  0  0  0  0  0  0  0  0
   39.8560   24.9720   42.4390 C   0  0  0  0  0  0  0  0  0  0  0  0
   38.7740   24.2090   42.1340 C   0  0  0  0  0  0  0  0  0  0  0  0
   38.6270   23.8300   40.8640 N   0  0  0  0  0  0  0  0  0  0  0  0
   39.4450   24.1330   39.8730 C   0  0  0  0  0  0  0  0  0  0  0  0
   40.5790   24.9130   40.1030 N   0  0  0  0  0  0  0  0  0  0  0  0
   41.6370   25.9050   41.4970 H   0  0  0  0  0  0  0  0  0  0  0  0
   38.1420   23.9930   42.9840 H   0  0  0  0  0  0  0  0  0  0  0  0
   39.2690   23.7910   38.8570 H   0  0  0  0  0  0  0  0  0  0  0  0
   37.6420   29.3760   40.8380 O   0  0  0  0  0  0  0  0  0  0  0  0
   36.5910   30.9810   39.0050 O   0  0  0  0  0  0  0  0  0  0  0  0
   36.9770   30.8880   40.4540 P   0  0  1  0  0  0  0  0  0  0  0  0
   35.5880   31.1530   41.3990 O   0  0  0  0  0  0  0  0  0  0  0  0
   35.7990   31.6900   42.1960 H   0  0  0  0  0  0  0  0  0  0  0  0
   38.1140   32.0780   40.8550 O   0  0  0  0  0  0  0  0  0  0  0  0
   40.3890   31.6910   41.1940 C   0  0  1  0  0  3  0  0  0  0  0  0
   39.2950   31.9580   40.1820 C   0  0  2  0  0  3  0  0  0  0  0  0
   39.5430   33.1050   39.4480 O   0  0  0  0  0  0  0  0  0  0  0  0
   40.7520   33.1230   38.7880 C   0  0  0  0  0  2  0  0  0  0  0  0
   41.9170   32.6150   39.5660 C   0  0  1  0  0  3  0  0  0  0  0  0
   41.5450   32.6530   41.0320 C   0  0  2  0  0  3  0  0  0  0  0  0
   39.9070   31.8320   42.4950 O   0  0  0  0  0  0  0  0  0  0  0  0
   39.9830   32.7340   42.8650 H   0  0  0  0  0  0  0  0  0  0  0  0
   42.2100   31.2970   39.2110 O   0  0  0  0  0  0  0  0  0  0  0  0
   42.1160   31.1600   38.2420 H   0  0  0  0  0  0  0  0  0  0  0  0
   42.5810   32.2770   41.8610 O   0  0  0  0  0  0  0  0  0  0  0  0
   43.3860   32.7900   41.5980 H   0  0  0  0  0  0  0  0  0  0  0  0
  1  2  1  0  0  0  0
  1  5  1  0  0  0  0
  1  3  1  0  0  0  0
  4  6  1  0  0  0  0
  5  4  2  0  0  0  0
  7  6  1  0  0  0  0
  7  9  1  0  0  0  0
  8  7  1  0  0  0  0
 10 16  1  0  0  0  0
 10 11  1  0  0  0  0
 11  7  1  0  0  0  0
 12 11  2  0  0  0  0
 12 17  1  0  0  0  0
 13 12  1  0  0  0  0
 14 15  1  0  0  0  0
 14 13  2  0  0  0  0
 15 10  2  0  0  0  0
 18 14  1  0  0  0  0
 19  1  1  0  0  0  0
 21 20  2  6  0  0  0
 21 19  1  0  0  0  0
 21 24  1  0  0  0  0
 21 22  1  0  0  0  0
 22 23  1  0  0  0  0
 25 31  1  1  0  0  0
 26 24  1  1  0  0  0
 26 25  1  0  0  0  0
 27 26  1  0  0  0  0
 28 27  1  0  0  0  0
 28 29  1  0  0  0  0
 29 33  1  6  0  0  0
 29 30  1  0  0  0  0
 30 25  1  0  0  0  0
 30 35  1  1  0  0  0
 31 32  1  0  0  0  0
 34 33  1  0  0  0  0
 36 35  1  0  0  0  0
M  END
>  <minimizedAffinity>
-5.0489192

$$$$

 OpenBabel03252504313D

 36 37  0  0  1  0  0  0  0  0999 V2000
   37.3510   31.6540   38.6330 C   0  0  0  0  0  0  0  0  0  0  0  0
   37.2720   31.4620   37.5470 H   0  0  0  0  0  0  0  0  0  0  0  0
   36.8190   32.5910   38.8960 H   0  0  0  0  0  0  0  0  0  0  0  0
   37.1720   29.8860   40.4590 C   0  0  0  0  0  3  0  0  0  0  0  0
   36.6530   30.5570   39.4230 C   0  0  0  0  0  3  0  0  0  0  0  0
   36.3620   28.9250   41.0400 O   0  0  0  0  0  0  0  0  0  0  0  0
   36.7340   27.9410   41.9240 C   0  0  0  0  0  0  0  0  0  0  0  0
   37.7960   28.1760   42.2450 H   0  0  0  0  0  0  0  0  0  0  0  0
   36.1370   27.8700   42.8330 H   0  0  0  0  0  0  0  0  0  0  0  0
   37.2000   25.5900   42.2300 C   0  0  0  0  0  0  0  0  0  0  0  0
   36.8520   26.5960   41.3040 C   0  0  0  0  0  0  0  0  0  0  0  0
   36.6760   26.2150   40.0110 C   0  0  0  0  0  0  0  0  0  0  0  0
   36.8440   24.9250   39.7220 N   0  0  0  0  0  0  0  0  0  0  0  0
   37.1690   23.9810   40.5860 C   0  0  0  0  0  0  0  0  0  0  0  0
   37.3690   24.2890   41.9320 N   0  0  0  0  0  0  0  0  0  0  0  0
   37.3710   25.7660   43.2970 H   0  0  0  0  0  0  0  0  0  0  0  0
   36.4110   27.0290   39.3520 H   0  0  0  0  0  0  0  0  0  0  0  0
   37.2910   22.9430   40.2860 H   0  0  0  0  0  0  0  0  0  0  0  0
   38.6460   31.7130   39.0800 O   0  0  0  0  0  0  0  0  0  0  0  0
   37.9110   34.1680   39.7650 O   0  0  0  0  0  0  0  0  0  0  0  0
   38.9400   33.1010   40.0090 P   0  0  1  0  0  0  0  0  0  0  0  0
   38.9140   32.6950   41.6600 O   0  0  0  0  0  0  0  0  0  0  0  0
   39.8240   32.5390   42.0010 H   0  0  0  0  0  0  0  0  0  0  0  0
   40.4940   33.6630   39.6350 O   0  0  0  0  0  0  0  0  0  0  0  0
   42.4650   34.6680   40.3720 C   0  0  1  0  0  3  0  0  0  0  0  0
   41.3280   33.7270   40.7120 C   0  0  2  0  0  3  0  0  0  0  0  0
   41.7880   32.4620   41.0340 O   0  0  0  0  0  0  0  0  0  0  0  0
   42.7020   32.4200   42.0640 C   0  0  0  0  0  2  0  0  0  0  0  0
   43.7520   33.4770   42.0360 C   0  0  1  0  0  3  0  0  0  0  0  0
   43.8130   34.0290   40.6280 C   0  0  2  0  0  3  0  0  0  0  0  0
   42.4230   35.0310   39.0270 O   0  0  0  0  0  0  0  0  0  0  0  0
   42.9230   34.4420   38.4280 H   0  0  0  0  0  0  0  0  0  0  0  0
   43.4310   34.5150   42.9120 O   0  0  0  0  0  0  0  0  0  0  0  0
   43.0450   34.1690   43.7480 H   0  0  0  0  0  0  0  0  0  0  0  0
   44.8090   34.9670   40.4600 O   0  0  0  0  0  0  0  0  0  0  0  0
   45.6510   34.5880   40.8200 H   0  0  0  0  0  0  0  0  0  0  0  0
  1  3  1  0  0  0  0
  1 19  1  0  0  0  0
  1  5  1  0  0  0  0
  2  1  1  0  0  0  0
  4  6  1  0  0  0  0
  5  4  2  0  0  0  0
  6  7  1  0  0  0  0
  7  8  1  0  0  0  0
  7  9  1  0  0  0  0
 10 16  1  0  0  0  0
 11  7  1  0  0  0  0
 11 10  2  0  0  0  0
 12 11  1  0  0  0  0
 13 12  2  0  0  0  0
 13 14  1  0  0  0  0
 14 15  2  0  0  0  0
 15 10  1  0  0  0  0
 17 12  1  0  0  0  0
 18 14  1  0  0  0  0
 19 21  1  0  0  0  0
 21 20  2  6  0  0  0
 21 22  1  0  0  0  0
 22 23  1  0  0  0  0
 24 21  1  0  0  0  0
 25 31  1  6  0  0  0
 25 30  1  0  0  0  0
 25 26  1  0  0  0  0
 26 24  1  6  0  0  0
 26 27  1  0  0  0  0
 27 28  1  0  0  0  0
 29 28  1  0  0  0  0
 29 33  1  1  0  0  0
 30 35  1  1  0  0  0
 30 29  1  0  0  0  0
 32 31  1  0  0  0  0
 33 34  1  0  0  0  0
 35 36  1  0  0  0  0
M  END
>  <minimizedAffinity>
-5.0461936

$$$$
