
 OpenBabel03252509003D

 48 50  0  0  1  0  0  0  0  0999 V2000
   46.8220   34.3670   43.5860 N   0  0  0  0  0  0  0  0  0  0  0  0
   46.3900   35.3890   42.7010 C   0  0  0  0  0  0  0  0  0  0  0  0
   44.8930   35.6080   42.6510 C   0  0  0  0  0  0  0  0  0  0  0  0
   44.1820   35.3510   43.9460 C   0  0  0  0  0  0  0  0  0  0  0  0
   45.1500   35.0290   45.0600 C   0  0  0  0  0  0  0  0  0  0  0  0
   45.9470   33.7980   44.4980 C   0  0  2  0  0  0  0  0  0  0  0  0
   46.7280   35.3050   41.6650 H   0  0  0  0  0  0  0  0  0  0  0  0
   46.8290   36.3590   43.0750 H   0  0  0  0  0  0  0  0  0  0  0  0
   44.4670   35.0130   41.8050 H   0  0  0  0  0  0  0  0  0  0  0  0
   44.6930   36.6690   42.3540 H   0  0  0  0  0  0  0  0  0  0  0  0
   43.4850   36.1780   44.2240 H   0  0  0  0  0  0  0  0  0  0  0  0
   43.5470   34.4500   43.8110 H   0  0  0  0  0  0  0  0  0  0  0  0
   45.8390   35.8380   45.3110 H   0  0  0  0  0  0  0  0  0  0  0  0
   44.5580   34.6230   45.8920 H   0  0  0  0  0  0  0  0  0  0  0  0
   45.1740   33.0980   44.1360 H   0  0  0  0  0  0  0  0  0  0  0  0
   47.9110   33.5790   43.0870 C   0  0  0  0  0  0  0  0  0  0  0  0
   48.6230   34.2470   42.5860 H   0  0  0  0  0  0  0  0  0  0  0  0
   48.4190   33.1230   43.9740 H   0  0  0  0  0  0  0  0  0  0  0  0
   47.3610   32.4740   42.2400 C   0  0  0  0  0  0  0  0  0  0  0  0
   46.2600   32.5730   42.1320 H   0  0  0  0  0  0  0  0  0  0  0  0
   47.5430   31.4770   42.6410 H   0  0  0  0  0  0  0  0  0  0  0  0
   49.5330   31.8990   39.2300 C   0  0  0  0  0  0  0  0  0  0  0  0
   48.9950   31.8010   40.5270 C   0  0  0  0  0  0  0  0  0  0  0  0
   47.9190   32.5880   40.8660 C   0  0  0  0  0  0  0  0  0  0  0  0
   47.4350   33.4190   39.9300 N   0  0  0  0  0  0  0  0  0  0  0  0
   47.9580   33.5030   38.6970 C   0  0  0  0  0  0  0  0  0  0  0  0
   49.0020   32.7530   38.3330 N   0  0  0  0  0  0  0  0  0  0  0  0
   50.3680   31.2510   39.0500 H   0  0  0  0  0  0  0  0  0  0  0  0
   49.4110   31.1190   41.2570 H   0  0  0  0  0  0  0  0  0  0  0  0
   47.4550   34.2210   38.0520 H   0  0  0  0  0  0  0  0  0  0  0  0
   46.6110   33.3500   45.6350 O   0  0  0  0  0  0  0  0  0  0  0  0
   45.5820   31.0250   44.8670 O   0  0  0  0  0  0  0  0  0  0  0  0
   46.2000   31.7690   46.0440 P   0  0  2  0  0  0  0  0  0  0  0  0
   44.9460   31.8930   47.2020 O   0  0  0  0  0  0  0  0  0  0  0  0
   44.0690   31.9300   46.7420 H   0  0  0  0  0  0  0  0  0  0  0  0
   47.4520   30.9260   46.7420 O   0  0  0  0  0  0  0  0  0  0  0  0
   47.0140   28.6240   46.7050 C   0  0  2  0  0  3  0  0  0  0  0  0
   47.8130   29.7690   46.0820 C   0  0  2  0  0  3  0  0  0  0  0  0
   49.1810   29.5740   46.2590 O   0  0  0  0  0  0  0  0  0  0  0  0
   49.5610   28.2840   45.8970 C   0  0  0  0  0  2  0  0  0  0  0  0
   49.0090   27.2330   46.8290 C   0  0  1  0  0  3  0  0  0  0  0  0
   47.9250   27.9000   47.6660 C   0  0  1  0  0  3  0  0  0  0  0  0
   46.5870   27.7870   45.6610 O   0  0  0  0  0  0  0  0  0  0  0  0
   46.8020   28.1910   44.7650 H   0  0  0  0  0  0  0  0  0  0  0  0
   48.4290   26.1740   46.1070 O   0  0  0  0  0  0  0  0  0  0  0  0
   47.8210   25.7310   46.7530 H   0  0  0  0  0  0  0  0  0  0  0  0
   48.5930   28.8710   48.4280 O   0  0  0  0  0  0  0  0  0  0  0  0
   48.2900   28.8740   49.3710 H   0  0  0  0  0  0  0  0  0  0  0  0
  1  6  1  0  0  0  0
  2  8  1  0  0  0  0
  2  1  1  0  0  0  0
  3  2  1  0  0  0  0
  3  4  1  0  0  0  0
  4 11  1  0  0  0  0
  4  5  1  0  0  0  0
  5 13  1  0  0  0  0
  5 14  1  0  0  0  0
  6 15  1  6  0  0  0
  6  5  1  0  0  0  0
  6 31  1  0  0  0  0
  7  2  1  0  0  0  0
  9  3  1  0  0  0  0
 10  3  1  0  0  0  0
 12  4  1  0  0  0  0
 16  1  1  0  0  0  0
 16 18  1  0  0  0  0
 17 16  1  0  0  0  0
 19 21  1  0  0  0  0
 19 16  1  0  0  0  0
 20 19  1  0  0  0  0
 22 23  1  0  0  0  0
 23 24  2  0  0  0  0
 23 29  1  0  0  0  0
 24 19  1  0  0  0  0
 25 24  1  0  0  0  0
 26 25  2  0  0  0  0
 27 26  1  0  0  0  0
 27 22  2  0  0  0  0
 28 22  1  0  0  0  0
 30 26  1  0  0  0  0
 31 33  1  0  0  0  0
 33 32  2  6  0  0  0
 33 36  1  0  0  0  0
 33 34  1  0  0  0  0
 35 34  1  0  0  0  0
 37 43  1  6  0  0  0
 37 42  1  0  0  0  0
 38 39  1  0  0  0  0
 38 37  1  0  0  0  0
 38 36  1  1  0  0  0
 40 39  1  0  0  0  0
 40 41  1  0  0  0  0
 41 45  1  6  0  0  0
 41 42  1  0  0  0  0
 42 47  1  1  0  0  0
 44 43  1  0  0  0  0
 45 46  1  0  0  0  0
 47 48  1  0  0  0  0
M  END
>  <minimizedAffinity>
-4.40574455

>  <minimizedRMSD>
2.54909205

$$$$
