
 OpenBabel03252502243D

 37 39  0  0  1  0  0  0  0  0999 V2000
   45.0830   33.6990   41.2750 N   0  0  0  0  0  0  0  0  0  0  0  0
   46.2570   34.5480   41.2150 C   0  0  0  0  0  0  0  0  0  0  0  0
   46.4730   34.9910   42.6760 C   0  0  0  0  0  0  0  0  0  0  0  0
   45.3330   35.9040   43.0640 C   0  0  0  0  0  0  0  0  0  0  0  0
   43.9900   35.4400   42.6060 C   0  0  0  0  0  0  0  0  0  0  0  0
   43.9440   34.0480   42.0530 C   0  0  1  0  0  0  0  0  0  0  0  0
   47.1360   34.0590   40.8090 H   0  0  0  0  0  0  0  0  0  0  0  0
   45.9560   35.4810   40.6920 H   0  0  0  0  0  0  0  0  0  0  0  0
   46.4220   34.0450   43.2830 H   0  0  0  0  0  0  0  0  0  0  0  0
   47.4170   35.5210   42.8150 H   0  0  0  0  0  0  0  0  0  0  0  0
   45.3980   36.0760   44.1570 H   0  0  0  0  0  0  0  0  0  0  0  0
   45.5620   36.8930   42.5820 H   0  0  0  0  0  0  0  0  0  0  0  0
   43.5910   36.1210   41.8060 H   0  0  0  0  0  0  0  0  0  0  0  0
   43.2900   35.5540   43.4600 H   0  0  0  0  0  0  0  0  0  0  0  0
   43.9220   33.3380   42.9150 H   0  0  0  0  0  0  0  0  0  0  0  0
   44.9460   30.0720   40.3650 C   0  0  0  0  0  0  0  0  0  0  0  0
   44.9950   31.2140   41.1820 C   0  0  0  0  0  0  0  0  0  0  0  0
   45.0330   32.4720   40.5450 C   0  0  0  0  0  0  0  0  0  0  0  0
   45.0180   32.4870   39.1900 N   0  0  0  0  0  0  0  0  0  0  0  0
   44.9710   31.3640   38.4380 C   0  0  0  0  0  0  0  0  0  0  0  0
   44.9340   30.1430   39.0470 N   0  0  0  0  0  0  0  0  0  0  0  0
   44.9170   29.1030   40.8380 H   0  0  0  0  0  0  0  0  0  0  0  0
   45.0050   31.1800   42.2590 H   0  0  0  0  0  0  0  0  0  0  0  0
   44.9610   31.4160   37.3570 H   0  0  0  0  0  0  0  0  0  0  0  0
   42.7910   33.9360   41.2600 O   0  0  0  0  0  0  0  0  0  0  0  0
   42.1990   35.4750   39.4770 C   0  0  2  0  0  3  0  0  0  0  0  0
   42.2300   35.1420   40.9260 C   0  0  1  0  0  3  0  0  0  0  0  0
   41.0070   35.4150   41.4940 O   0  0  0  0  0  0  0  0  0  0  0  0
   40.1660   34.3100   41.2160 C   0  0  0  0  0  2  0  0  0  0  0  0
   40.1220   34.0650   39.7320 C   0  0  1  0  0  3  0  0  0  0  0  0
   40.8000   35.1900   38.9660 C   0  0  2  0  0  3  0  0  0  0  0  0
   43.0630   34.7110   38.7050 O   0  0  0  0  0  0  0  0  0  0  0  0
   43.1270   35.0810   37.8030 H   0  0  0  0  0  0  0  0  0  0  0  0
   40.7420   32.8550   39.4680 O   0  0  0  0  0  0  0  0  0  0  0  0
   40.7080   32.6630   38.4820 H   0  0  0  0  0  0  0  0  0  0  0  0
   40.8820   34.8350   37.6240 O   0  0  0  0  0  0  0  0  0  0  0  0
   41.2510   35.5790   37.1160 H   0  0  0  0  0  0  0  0  0  0  0  0
  1  6  1  0  0  0  0
  2  1  1  0  0  0  0
  2  3  1  0  0  0  0
  3 10  1  0  0  0  0
  3  4  1  0  0  0  0
  3  9  1  0  0  0  0
  4 11  1  0  0  0  0
  5  4  1  0  0  0  0
  5 14  1  0  0  0  0
  6  5  1  0  0  0  0
  6 15  1  1  0  0  0
  7  2  1  0  0  0  0
  8  2  1  0  0  0  0
 12  4  1  0  0  0  0
 13  5  1  0  0  0  0
 16 22  1  0  0  0  0
 16 17  1  0  0  0  0
 17 23  1  0  0  0  0
 18 17  2  0  0  0  0
 18  1  1  0  0  0  0
 19 18  1  0  0  0  0
 20 21  1  0  0  0  0
 20 19  2  0  0  0  0
 21 16  2  0  0  0  0
 24 20  1  0  0  0  0
 25  6  1  0  0  0  0
 26 32  1  6  0  0  0
 26 27  1  0  0  0  0
 27 25  1  6  0  0  0
 27 28  1  0  0  0  0
 29 28  1  0  0  0  0
 30 34  1  1  0  0  0
 30 29  1  0  0  0  0
 31 36  1  6  0  0  0
 31 26  1  0  0  0  0
 31 30  1  0  0  0  0
 33 32  1  0  0  0  0
 35 34  1  0  0  0  0
 37 36  1  0  0  0  0
M  END
>  <minimizedAffinity>
-4.883255

>  <minimizedRMSD>
4.9062624

$$$$
