
 OpenBabel03242511173D

 22 23  0  0  1  0  0  0  0  0999 V2000
   48.2450   34.4970   40.7710 C   0  0  1  0  0  0  0  0  0  0  0  0
   46.8090   34.4260   41.2640 C   0  0  2  0  0  0  0  0  0  0  0  0
   46.6940   33.6570   42.4260 O   0  0  0  0  0  0  0  0  0  0  0  0
   47.6050   34.0830   43.3930 C   0  0  0  0  0  0  0  0  0  0  0  0
   48.9950   33.6720   42.9430 C   0  0  1  0  0  0  0  0  0  0  0  0
   48.9720   33.3430   41.4710 C   0  0  2  0  0  0  0  0  0  0  0  0
   48.3310   34.3400   39.3910 O   0  0  0  0  0  0  0  0  0  0  0  0
   48.7930   35.1480   39.0280 H   0  0  0  0  0  0  0  0  0  0  0  0
   49.8700   34.7320   43.1590 O   0  0  0  0  0  0  0  0  0  0  0  0
   49.3580   35.5830   43.3150 H   0  0  0  0  0  0  0  0  0  0  0  0
   50.2450   33.1470   40.9780 O   0  0  0  0  0  0  0  0  0  0  0  0
   50.6880   33.9900   40.7440 H   0  0  0  0  0  0  0  0  0  0  0  0
   45.7090   33.6700   40.0170 S   0  0  0  0  0  0  0  0  0  0  0  0
   42.3130   35.4020   41.4180 C   0  0  0  0  0  0  0  0  0  0  0  0
   43.6620   35.2320   41.0400 C   0  0  0  0  0  0  0  0  0  0  0  0
   44.0300   33.9810   40.5230 C   0  0  0  0  0  0  0  0  0  0  0  0
   43.0780   33.0130   40.4180 N   0  0  0  0  0  0  0  0  0  0  0  0
   41.7940   33.2110   40.7900 C   0  0  0  0  0  0  0  0  0  0  0  0
   41.4130   34.4070   41.2910 N   0  0  0  0  0  0  0  0  0  0  0  0
   42.0330   36.3590   41.8140 H   0  0  0  0  0  0  0  0  0  0  0  0
   44.3820   36.0360   41.1450 H   0  0  0  0  0  0  0  0  0  0  0  0
   41.1410   32.3580   40.6530 H   0  0  0  0  0  0  0  0  0  0  0  0
  1  7  1  6  0  0  0
  1  2  1  0  0  0  0
  1  6  1  0  0  0  0
  2 13  1  6  0  0  0
  2  3  1  0  0  0  0
  3  4  1  0  0  0  0
  5  9  1  6  0  0  0
  5  4  1  0  0  0  0
  6 11  1  6  0  0  0
  6  5  1  0  0  0  0
  8  7  1  0  0  0  0
  9 10  1  0  0  0  0
 12 11  1  0  0  0  0
 13 16  1  0  0  0  0
 14 20  1  0  0  0  0
 15 21  1  0  0  0  0
 15 14  2  0  0  0  0
 16 15  1  0  0  0  0
 17 16  2  0  0  0  0
 17 18  1  0  0  0  0
 18 19  2  0  0  0  0
 19 14  1  0  0  0  0
 22 18  1  0  0  0  0
M  END
>  <minimizedAffinity>
-4.68028212

>  <minimizedRMSD>
3.39804387

$$$$
