
 OpenBabel03252504053D

 22 23  0  0  1  0  0  0  0  0999 V2000
   47.5190   35.1990   41.6040 C   0  0  2  0  0  3  0  0  0  0  0  0
   46.1480   34.6460   41.8590 C   0  0  1  0  0  3  0  0  0  0  0  0
   45.8730   33.4710   41.1780 O   0  0  0  0  0  0  0  0  0  0  0  0
   46.0630   33.6060   39.8220 C   0  0  0  0  0  2  0  0  0  0  0  0
   47.5210   33.7470   39.5260 C   0  0  2  0  0  3  0  0  0  0  0  0
   48.2940   34.5510   40.5240 C   0  0  2  0  0  3  0  0  0  0  0  0
   44.9410   34.9060   45.4430 C   0  0  0  0  0  0  0  0  0  0  0  0
   45.1240   35.2300   44.0910 C   0  0  0  0  0  0  0  0  0  0  0  0
   45.9030   34.3690   43.3140 C   0  0  0  0  0  0  0  0  0  0  0  0
   46.4420   33.2710   43.8900 N   0  0  0  0  0  0  0  0  0  0  0  0
   46.2490   32.9820   45.1990 C   0  0  0  0  0  0  0  0  0  0  0  0
   45.5010   33.8040   45.9570 N   0  0  0  0  0  0  0  0  0  0  0  0
   44.3350   35.5850   46.0290 H   0  0  0  0  0  0  0  0  0  0  0  0
   46.7030   32.0840   45.6240 H   0  0  0  0  0  0  0  0  0  0  0  0
   44.5770   36.3570   43.4830 O   0  0  0  0  0  0  0  0  0  0  0  0
   44.9340   37.2870   43.6000 H   0  0  0  0  0  0  0  0  0  0  0  0
   48.2230   35.1000   42.8150 O   0  0  0  0  0  0  0  0  0  0  0  0
   48.8740   35.8270   42.8900 H   0  0  0  0  0  0  0  0  0  0  0  0
   47.6660   34.2410   38.2130 O   0  0  0  0  0  0  0  0  0  0  0  0
   47.3530   33.5070   37.6190 H   0  0  0  0  0  0  0  0  0  0  0  0
   49.3100   33.7490   41.0930 O   0  0  0  0  0  0  0  0  0  0  0  0
   50.0740   33.6870   40.4680 H   0  0  0  0  0  0  0  0  0  0  0  0
  1  2  1  0  0  0  0
  1 17  1  1  0  0  0
  2  9  1  1  0  0  0
  3  2  1  0  0  0  0
  4  3  1  0  0  0  0
  5 19  1  6  0  0  0
  5  4  1  0  0  0  0
  5  6  1  0  0  0  0
  6 21  1  1  0  0  0
  6  1  1  0  0  0  0
  7 12  1  0  0  0  0
  7 13  1  0  0  0  0
  8  7  2  0  0  0  0
  9 10  2  0  0  0  0
  9  8  1  0  0  0  0
 10 11  1  0  0  0  0
 11 14  1  0  0  0  0
 11 12  2  0  0  0  0
 15 16  1  0  0  0  0
 15  8  1  0  0  0  0
 17 18  1  0  0  0  0
 20 19  1  0  0  0  0
 22 21  1  0  0  0  0
M  END
>  <minimizedAffinity>
-4.85080528

>  <minimizedRMSD>
1.07132244

$$$$
