
 OpenBabel03242515253D

 34 36  0  0  1  0  0  0  0  0999 V2000
   44.8210   35.3650   43.9930 C   0  0  0  0  0  0  0  0  0  0  0  0
   44.4440   34.7460   42.7880 C   0  0  0  0  0  0  0  0  0  0  0  0
   44.6340   33.3880   42.6910 C   0  0  0  0  0  0  0  0  0  0  0  0
   45.1670   32.7220   43.7400 N   0  0  0  0  0  0  0  0  0  0  0  0
   45.5170   33.3530   44.8790 C   0  0  0  0  0  0  0  0  0  0  0  0
   45.3600   34.6760   45.0460 N   0  0  0  0  0  0  0  0  0  0  0  0
   44.7130   36.4360   44.1740 H   0  0  0  0  0  0  0  0  0  0  0  0
   44.3420   32.9330   41.7690 H   0  0  0  0  0  0  0  0  0  0  0  0
   45.2620   32.6250   47.2420 C   0  0  1  0  0  0  0  0  0  0  0  0
   46.1000   32.5480   45.9960 C   0  0  1  0  0  0  0  0  0  0  0  0
   46.2230   31.2010   45.6840 O   0  0  0  0  0  0  0  0  0  0  0  0
   47.1280   30.6410   46.5610 C   0  0  0  0  0  0  0  0  0  0  0  0
   46.8170   30.8180   48.0100 C   0  0  1  0  0  0  0  0  0  0  0  0
   46.1510   32.1100   48.3710 C   0  0  1  0  0  0  0  0  0  0  0  0
   44.8620   33.9200   47.5370 O   0  0  0  0  0  0  0  0  0  0  0  0
   45.5850   34.5590   47.3260 H   0  0  0  0  0  0  0  0  0  0  0  0
   46.1200   29.7040   48.5030 O   0  0  0  0  0  0  0  0  0  0  0  0
   45.7760   30.0210   49.3980 H   0  0  0  0  0  0  0  0  0  0  0  0
   47.1340   33.0850   48.5590 O   0  0  0  0  0  0  0  0  0  0  0  0
   47.9910   32.8040   48.1410 H   0  0  0  0  0  0  0  0  0  0  0  0
   43.8860   35.6370   41.7710 C   0  0  0  0  0  0  0  0  0  0  0  0
   44.6260   35.6330   40.9170 H   0  0  0  0  0  0  0  0  0  0  0  0
   43.8380   36.6700   42.1040 H   0  0  0  0  0  0  0  0  0  0  0  0
   42.6190   35.0890   41.3100 N   0  0  0  0  0  0  0  0  0  0  0  0
   41.5100   35.2840   42.0230 C   0  0  0  0  0  0  0  0  0  0  0  0
   40.3180   34.7450   41.5500 C   0  0  0  0  0  0  0  0  0  0  0  0
   40.2940   34.0360   40.3850 C   0  0  0  0  0  0  0  0  0  0  0  0
   39.2130   33.5450   39.9520 O   0  0  0  0  0  0  0  0  0  0  0  0
   41.4350   33.8580   39.6880 N   0  0  0  0  0  0  0  0  0  0  0  0
   42.6020   34.3820   40.1450 C   0  0  0  0  0  0  0  0  0  0  0  0
   43.6310   34.1810   39.4480 O   0  0  0  0  0  0  0  0  0  0  0  0
   41.4830   35.8410   42.9560 H   0  0  0  0  0  0  0  0  0  0  0  0
   39.3770   34.8580   42.0700 H   0  0  0  0  0  0  0  0  0  0  0  0
   41.4470   33.3120   38.7800 H   0  0  0  0  0  0  0  0  0  0  0  0
  1  7  1  0  0  0  0
  1  6  1  0  0  0  0
  2  1  2  0  0  0  0
  3  2  1  0  0  0  0
  3  4  2  0  0  0  0
  4  5  1  0  0  0  0
  5  6  2  0  0  0  0
  8  3  1  0  0  0  0
  9 15  1  1  0  0  0
  9 14  1  0  0  0  0
 10  5  1  6  0  0  0
 10  9  1  0  0  0  0
 11 10  1  0  0  0  0
 11 12  1  0  0  0  0
 12 13  1  0  0  0  0
 13 14  1  0  0  0  0
 13 17  1  6  0  0  0
 14 19  1  6  0  0  0
 16 15  1  0  0  0  0
 17 18  1  0  0  0  0
 20 19  1  0  0  0  0
 21 23  1  0  0  0  0
 21  2  1  0  0  0  0
 22 21  1  0  0  0  0
 24 21  1  0  0  0  0
 24 25  1  0  0  0  0
 25 32  1  0  0  0  0
 26 25  2  0  0  0  0
 26 33  1  0  0  0  0
 27 26  1  0  0  0  0
 28 27  2  0  0  0  0
 29 30  1  0  0  0  0
 29 27  1  0  0  0  0
 30 24  1  0  0  0  0
 31 30  2  0  0  0  0
 34 29  1  0  0  0  0
M  END
>  <minimizedAffinity>
-6.2284565

>  <minimizedRMSD>
1.62620437

$$$$
