
 OpenBabel03252503133D

 37 40  0  0  1  0  0  0  0  0999 V2000
   46.5350   34.1830   40.5790 C   0  0  0  0  0  0  0  0  0  0  0  0
   45.2250   33.8340   40.3310 C   0  0  0  0  0  0  0  0  0  0  0  0
   45.2170   33.3170   39.0890 N   0  0  0  0  0  0  0  0  0  0  0  0
   46.4950   33.3500   38.5920 C   0  0  0  0  0  0  0  0  0  0  0  0
   47.3090   33.8880   39.5180 N   0  0  0  0  0  0  0  0  0  0  0  0
   44.3900   33.9600   41.0100 H   0  0  0  0  0  0  0  0  0  0  0  0
   44.4190   32.9460   38.5590 H   0  0  0  0  0  0  0  0  0  0  0  0
   48.4310   33.3490   37.0490 C   0  0  1  0  0  3  0  0  0  0  0  0
   47.0370   32.9060   37.2790 C   0  0  1  0  0  3  0  0  0  0  0  0
   46.7860   31.5670   37.1280 O   0  0  0  0  0  0  0  0  0  0  0  0
   47.8750   30.7420   36.9960 C   0  0  0  0  0  2  0  0  0  0  0  0
   48.9290   31.0790   38.0150 C   0  0  2  0  0  3  0  0  0  0  0  0
   49.4880   32.4320   37.6080 C   0  0  1  0  0  3  0  0  0  0  0  0
   48.6490   33.6280   35.6800 O   0  0  0  0  0  0  0  0  0  0  0  0
   47.8100   33.6390   35.1670 H   0  0  0  0  0  0  0  0  0  0  0  0
   49.9600   30.1290   37.8540 O   0  0  0  0  0  0  0  0  0  0  0  0
   50.8560   30.5830   37.9280 H   0  0  0  0  0  0  0  0  0  0  0  0
   50.3960   32.1750   36.5810 O   0  0  0  0  0  0  0  0  0  0  0  0
   51.2420   32.6470   36.6650 H   0  0  0  0  0  0  0  0  0  0  0  0
   47.0670   34.8060   41.8390 C   0  0  0  0  0  0  0  0  0  0  0  0
   48.2650   35.1950   41.9750 O   0  0  0  0  0  0  0  0  0  0  0  0
   45.5790   36.2150   43.1680 C   0  0  0  0  0  0  0  0  0  0  0  0
   46.2150   34.9860   42.9600 C   0  0  0  0  0  0  0  0  0  0  0  0
   45.9420   34.0050   43.9150 C   0  0  0  0  0  0  0  0  0  0  0  0
   45.1290   34.2310   44.9540 N   0  0  0  0  0  0  0  0  0  0  0  0
   44.5350   35.4480   45.1090 C   0  0  0  0  0  0  0  0  0  0  0  0
   44.7620   36.4260   44.2220 N   0  0  0  0  0  0  0  0  0  0  0  0
   45.7490   37.0280   42.4600 H   0  0  0  0  0  0  0  0  0  0  0  0
   43.8820   35.5980   45.9610 H   0  0  0  0  0  0  0  0  0  0  0  0
   46.5450   32.7450   43.7780 C   0  0  0  0  0  0  0  0  0  0  0  0
   47.7990   32.2580   44.0250 C   0  0  0  0  0  0  0  0  0  0  0  0
   48.1230   30.9870   43.7990 C   0  0  0  0  0  0  0  0  0  0  0  0
   47.1480   30.1720   43.3050 C   0  0  0  0  0  0  0  0  0  0  0  0
   45.6990   31.3140   43.1660 S   0  0  0  0  0  0  0  0  0  0  0  0
   48.5200   33.0000   44.4260 H   0  0  0  0  0  0  0  0  0  0  0  0
   49.0890   30.5320   43.9700 H   0  0  0  0  0  0  0  0  0  0  0  0
   47.1260   29.1310   43.0350 H   0  0  0  0  0  0  0  0  0  0  0  0
  1 20  1  0  0  0  0
  2  1  2  0  0  0  0
  2  6  1  0  0  0  0
  3  2  1  0  0  0  0
  4  3  1  0  0  0  0
  4  5  2  0  0  0  0
  5  1  1  0  0  0  0
  7  3  1  0  0  0  0
  8 14  1  6  0  0  0
  8  9  1  0  0  0  0
  8 13  1  0  0  0  0
  9  4  1  1  0  0  0
 10  9  1  0  0  0  0
 11 10  1  0  0  0  0
 11 12  1  0  0  0  0
 12 16  1  6  0  0  0
 13 18  1  6  0  0  0
 13 12  1  0  0  0  0
 15 14  1  0  0  0  0
 16 17  1  0  0  0  0
 18 19  1  0  0  0  0
 20 21  2  0  0  0  0
 20 23  1  0  0  0  0
 22 27  1  0  0  0  0
 23 22  2  0  0  0  0
 23 24  1  0  0  0  0
 24 25  2  0  0  0  0
 25 26  1  0  0  0  0
 26 29  1  0  0  0  0
 27 26  2  0  0  0  0
 28 22  1  0  0  0  0
 30 24  1  0  0  0  0
 30 31  2  0  0  0  0
 31 35  1  0  0  0  0
 32 36  1  0  0  0  0
 32 31  1  0  0  0  0
 33 32  2  0  0  0  0
 34 33  1  0  0  0  0
 34 30  1  0  0  0  0
 37 33  1  0  0  0  0
M  END
>  <minimizedAffinity>
-5.57390022

>  <minimizedRMSD>
1.21879554

$$$$
