
 OpenBabel03242523383D

 22 23  0  0  1  0  0  0  0  0999 V2000
   45.8630   32.5170   47.7650 C   0  0  2  0  0  0  0  0  0  0  0  0
   46.3060   32.4480   46.3380 C   0  0  1  0  0  0  0  0  0  0  0  0
   45.8230   31.2560   45.7960 O   0  0  0  0  0  0  0  0  0  0  0  0
   46.6730   30.2390   46.2240 C   0  0  0  0  0  0  0  0  0  0  0  0
   46.8530   30.1990   47.7060 C   0  0  2  0  0  0  0  0  0  0  0  0
   46.0490   31.2100   48.4590 C   0  0  1  0  0  0  0  0  0  0  0  0
   44.6020   35.5470   45.1190 C   0  0  0  0  0  0  0  0  0  0  0  0
   45.0900   35.6110   43.7840 C   0  0  0  0  0  0  0  0  0  0  0  0
   45.9730   34.5850   43.3930 C   0  0  0  0  0  0  0  0  0  0  0  0
   46.3000   33.6110   44.2970 N   0  0  0  0  0  0  0  0  0  0  0  0
   45.8030   33.6090   45.5420 C   0  0  0  0  0  0  0  0  0  0  0  0
   44.9570   34.5680   45.9600 N   0  0  0  0  0  0  0  0  0  0  0  0
   43.9160   36.3180   45.4700 H   0  0  0  0  0  0  0  0  0  0  0  0
   44.8040   36.3900   43.1230 H   0  0  0  0  0  0  0  0  0  0  0  0
   46.6350   34.5900   41.7320 S   0  0  0  0  0  0  0  0  0  0  0  0
   47.6050   33.5720   41.6720 H   0  0  0  0  0  0  0  0  0  0  0  0
   44.5050   32.8750   47.7760 O   0  0  0  0  0  0  0  0  0  0  0  0
   44.2760   33.0590   48.7290 H   0  0  0  0  0  0  0  0  0  0  0  0
   48.2280   30.2470   48.0210 O   0  0  0  0  0  0  0  0  0  0  0  0
   48.6950   29.8020   47.2650 H   0  0  0  0  0  0  0  0  0  0  0  0
   46.7320   31.4740   49.6670 O   0  0  0  0  0  0  0  0  0  0  0  0
   47.6720   31.1660   49.6200 H   0  0  0  0  0  0  0  0  0  0  0  0
  1 17  1  6  0  0  0
  1  6  1  0  0  0  0
  2 11  1  6  0  0  0
  2  1  1  0  0  0  0
  3  4  1  0  0  0  0
  3  2  1  0  0  0  0
  4  5  1  0  0  0  0
  5 19  1  6  0  0  0
  5  6  1  0  0  0  0
  6 21  1  1  0  0  0
  7 13  1  0  0  0  0
  7 12  1  0  0  0  0
  8  7  2  0  0  0  0
  9  8  1  0  0  0  0
  9 10  2  0  0  0  0
 10 11  1  0  0  0  0
 11 12  2  0  0  0  0
 14  8  1  0  0  0  0
 15  9  1  0  0  0  0
 16 15  1  0  0  0  0
 17 18  1  0  0  0  0
 20 19  1  0  0  0  0
 22 21  1  0  0  0  0
M  END
>  <minimizedAffinity>
-5.5447464

>  <minimizedRMSD>
0.945630312

$$$$
