
 OpenBabel03252506193D

 26 27  0  0  1  0  0  0  0  0999 V2000
   44.6770   35.6460   43.6100 C   0  0  0  0  0  0  0  0  0  0  0  0
   43.8820   35.5320   42.4290 C   0  0  0  0  0  0  0  0  0  0  0  0
   43.7490   34.2430   41.8840 C   0  0  0  0  0  0  0  0  0  0  0  0
   44.3720   33.1900   42.4940 N   0  0  0  0  0  0  0  0  0  0  0  0
   45.1220   33.3560   43.6230 C   0  0  0  0  0  0  0  0  0  0  0  0
   45.2570   34.5880   44.1580 N   0  0  0  0  0  0  0  0  0  0  0  0
   43.4360   36.4210   42.0310 H   0  0  0  0  0  0  0  0  0  0  0  0
   43.1560   34.1380   40.9990 H   0  0  0  0  0  0  0  0  0  0  0  0
   47.1900   32.0270   43.7320 C   0  0  2  0  0  3  0  0  0  0  0  0
   45.7800   32.2020   44.2570 C   0  0  1  0  0  3  0  0  0  0  0  0
   45.8910   32.3210   45.6440 O   0  0  0  0  0  0  0  0  0  0  0  0
   46.2000   31.0580   46.1430 C   0  0  0  0  0  2  0  0  0  0  0  0
   47.5090   30.5170   45.6330 C   0  0  2  0  0  3  0  0  0  0  0  0
   47.6220   30.6200   44.1250 C   0  0  2  0  0  3  0  0  0  0  0  0
   48.0950   32.9090   44.3190 O   0  0  0  0  0  0  0  0  0  0  0  0
   48.0110   33.8380   43.9910 H   0  0  0  0  0  0  0  0  0  0  0  0
   47.5380   29.1470   45.9380 O   0  0  0  0  0  0  0  0  0  0  0  0
   47.8490   29.0890   46.8790 H   0  0  0  0  0  0  0  0  0  0  0  0
   48.9590   30.4730   43.7500 O   0  0  0  0  0  0  0  0  0  0  0  0
   49.0290   30.0390   42.8580 H   0  0  0  0  0  0  0  0  0  0  0  0
   44.8210   36.9720   44.1900 C   0  0  0  0  0  3  0  0  0  0  0  0
   45.2800   37.9540   43.4440 C   0  0  0  0  0  3  0  0  0  0  0  0
   45.4590   39.3360   43.9290 C   0  0  0  0  0  0  0  0  0  0  0  0
   44.4750   39.8620   43.7850 H   0  0  0  0  0  0  0  0  0  0  0  0
   46.1750   39.8890   43.3150 H   0  0  0  0  0  0  0  0  0  0  0  0
   45.6570   39.3870   45.0090 H   0  0  0  0  0  0  0  0  0  0  0  0
  1  6  1  0  0  0  0
  1 21  1  0  0  0  0
  2  1  2  0  0  0  0
  3  2  1  0  0  0  0
  3  4  2  0  0  0  0
  4  5  1  0  0  0  0
  5  6  2  0  0  0  0
  7  2  1  0  0  0  0
  8  3  1  0  0  0  0
  9 14  1  0  0  0  0
  9 10  1  0  0  0  0
  9 15  1  1  0  0  0
 10  5  1  6  0  0  0
 10 11  1  0  0  0  0
 11 12  1  0  0  0  0
 13 17  1  6  0  0  0
 13 12  1  0  0  0  0
 14 19  1  1  0  0  0
 14 13  1  0  0  0  0
 16 15  1  0  0  0  0
 17 18  1  0  0  0  0
 20 19  1  0  0  0  0
 22 23  1  0  0  0  0
 22 21  2  0  0  0  0
 23 26  1  0  0  0  0
 24 23  1  0  0  0  0
 25 23  1  0  0  0  0
M  END
>  <minimizedAffinity>
-3.66985726

>  <minimizedRMSD>
0.3953363

$$$$
