
 OpenBabel03252507383D

 41 45  0  0  1  0  0  0  0  0999 V2000
   45.3290   34.6180   43.6840 C   0  0  0  0  0  0  0  0  0  0  0  0
   46.0830   33.5590   44.2570 C   0  0  0  0  0  0  0  0  0  0  0  0
   46.0080   33.4010   45.6310 C   0  0  0  0  0  0  0  0  0  0  0  0
   45.2360   34.2490   46.3490 N   0  0  0  0  0  0  0  0  0  0  0  0
   44.5250   35.2520   45.7800 C   0  0  0  0  0  0  0  0  0  0  0  0
   44.5770   35.4270   44.4630 N   0  0  0  0  0  0  0  0  0  0  0  0
   46.6920   32.8890   43.7040 H   0  0  0  0  0  0  0  0  0  0  0  0
   43.9050   35.9350   46.3450 H   0  0  0  0  0  0  0  0  0  0  0  0
   47.0760   32.6450   47.6800 C   0  0  0  0  0  0  0  0  0  0  0  0
   46.7180   32.3660   46.3690 C   0  0  0  0  0  0  0  0  0  0  0  0
   47.0510   31.1460   45.8570 C   0  0  0  0  0  0  0  0  0  0  0  0
   47.7240   30.1780   46.5760 C   0  0  0  0  0  0  0  0  0  0  0  0
   48.1450   28.9320   46.2790 N   0  0  0  0  0  0  0  0  0  0  0  0
   48.7680   28.4260   47.4060 C   0  0  0  0  0  0  0  0  0  0  0  0
   48.7140   29.3660   48.3550 N   0  0  0  0  0  0  0  0  0  0  0  0
   48.0800   30.4420   47.8670 C   0  0  0  0  0  0  0  0  0  0  0  0
   47.7570   31.6740   48.4210 C   0  0  0  0  0  0  0  0  0  0  0  0
   46.8590   33.5800   48.1780 H   0  0  0  0  0  0  0  0  0  0  0  0
   46.7790   30.9100   44.8300 H   0  0  0  0  0  0  0  0  0  0  0  0
   48.0020   28.4760   45.3520 H   0  0  0  0  0  0  0  0  0  0  0  0
   49.1810   27.4220   47.3700 H   0  0  0  0  0  0  0  0  0  0  0  0
   48.0340   31.9080   49.4590 H   0  0  0  0  0  0  0  0  0  0  0  0
   45.4040   34.7760   42.3020 O   0  0  0  0  0  0  0  0  0  0  0  0
   44.5030   34.1090   41.4760 C   0  0  0  0  0  0  0  0  0  0  0  0
   45.3040   33.8000   40.4370 C   0  0  0  0  0  0  0  0  0  0  0  0
   44.1040   32.8790   39.2790 S   0  0  0  0  0  0  0  0  0  0  0  0
   42.7220   33.1440   40.5470 C   0  0  0  0  0  0  0  0  0  0  0  0
   43.2750   33.6930   41.3250 N   0  0  0  0  0  0  0  0  0  0  0  0
   46.3080   33.7580   39.8080 H   0  0  0  0  0  0  0  0  0  0  0  0
   40.3980   33.8340   40.9500 C   0  0  1  0  0  3  0  0  0  0  0  0
   41.2410   32.7040   40.4890 C   0  0  1  0  0  3  0  0  0  0  0  0
   40.9610   32.1840   39.2620 O   0  0  0  0  0  0  0  0  0  0  0  0
   40.6260   33.1070   38.2900 C   0  0  0  0  0  2  0  0  0  0  0  0
   39.2910   33.7010   38.6920 C   0  0  1  0  0  3  0  0  0  0  0  0
   39.5870   34.5340   39.9300 C   0  0  2  0  0  3  0  0  0  0  0  0
   39.4940   33.3750   41.9360 O   0  0  0  0  0  0  0  0  0  0  0  0
   39.1790   32.4970   41.5780 H   0  0  0  0  0  0  0  0  0  0  0  0
   38.7490   34.5080   37.7100 O   0  0  0  0  0  0  0  0  0  0  0  0
   38.3020   33.8840   37.0530 H   0  0  0  0  0  0  0  0  0  0  0  0
   40.2140   35.7080   39.4820 O   0  0  0  0  0  0  0  0  0  0  0  0
   39.5820   36.2920   38.9970 H   0  0  0  0  0  0  0  0  0  0  0  0
  1  2  2  0  0  0  0
  1  6  1  0  0  0  0
  2  3  1  0  0  0  0
  3  4  2  0  0  0  0
  3 10  1  0  0  0  0
  5  8  1  0  0  0  0
  5  4  1  0  0  0  0
  6  5  2  0  0  0  0
  7  2  1  0  0  0  0
  9 18  1  0  0  0  0
  9 17  1  0  0  0  0
 10  9  2  0  0  0  0
 11 10  1  0  0  0  0
 11 12  2  0  0  0  0
 12 16  1  0  0  0  0
 13 12  1  0  0  0  0
 13 14  1  0  0  0  0
 14 15  2  0  0  0  0
 16 15  1  0  0  0  0
 16 17  2  0  0  0  0
 17 22  1  0  0  0  0
 19 11  1  0  0  0  0
 20 13  1  0  0  0  0
 21 14  1  0  0  0  0
 23  1  1  0  0  0  0
 24 23  1  0  0  0  0
 25 24  2  0  0  0  0
 26 25  1  0  0  0  0
 26 27  1  0  0  0  0
 27 28  2  0  0  0  0
 28 24  1  0  0  0  0
 29 25  1  0  0  0  0
 30 36  1  1  0  0  0
 31 27  1  6  0  0  0
 31 30  1  0  0  0  0
 32 31  1  0  0  0  0
 33 34  1  0  0  0  0
 33 32  1  0  0  0  0
 34 38  1  6  0  0  0
 34 35  1  0  0  0  0
 35 40  1  6  0  0  0
 35 30  1  0  0  0  0
 37 36  1  0  0  0  0
 39 38  1  0  0  0  0
 41 40  1  0  0  0  0
M  END
>  <minimizedAffinity>
-6.83576441

>  <minimizedRMSD>
2.13851833

$$$$
