
 OpenBabel03252504343D

 43 45  0  0  1  0  0  0  0  0999 V2000
   37.9180   30.1990   40.5190 C   0  0  0  0  0  0  0  0  0  0  0  0
   38.0460   29.2130   39.9920 H   0  0  0  0  0  0  0  0  0  0  0  0
   37.1290   30.7290   39.9440 H   0  0  0  0  0  0  0  0  0  0  0  0
   39.4470   32.0020   41.0970 C   0  0  0  0  0  0  0  0  0  0  0  0
   39.2120   30.9020   40.2530 C   0  0  0  0  0  0  0  0  0  0  0  0
   40.1470   30.5870   39.3280 C   0  0  0  0  0  0  0  0  0  0  0  0
   41.2250   31.3520   39.2890 N   0  0  0  0  0  0  0  0  0  0  0  0
   41.4780   32.3920   40.0670 C   0  0  0  0  0  0  0  0  0  0  0  0
   40.5510   32.7670   41.0420 N   0  0  0  0  0  0  0  0  0  0  0  0
   38.7530   32.3240   41.8640 H   0  0  0  0  0  0  0  0  0  0  0  0
   39.9260   29.7370   38.7010 H   0  0  0  0  0  0  0  0  0  0  0  0
   42.5550   34.3300   39.0330 C   0  0  1  0  0  3  0  0  0  0  0  0
   42.7140   33.2210   39.9800 C   0  0  2  0  0  3  0  0  0  0  0  0
   43.7570   32.3590   39.7950 O   0  0  0  0  0  0  0  0  0  0  0  0
   44.7650   32.7650   38.9690 C   0  0  0  0  0  2  0  0  0  0  0  0
   44.0820   32.9400   37.6050 C   0  0  1  0  0  3  0  0  0  0  0  0
   43.3380   34.2480   37.7550 C   0  0  1  0  0  3  0  0  0  0  0  0
   41.2120   34.5640   38.6570 O   0  0  0  0  0  0  0  0  0  0  0  0
   41.0190   34.2250   37.7630 H   0  0  0  0  0  0  0  0  0  0  0  0
   45.0750   33.0280   36.6610 O   0  0  0  0  0  0  0  0  0  0  0  0
   45.8360   32.4370   36.9240 H   0  0  0  0  0  0  0  0  0  0  0  0
   42.5520   34.3960   36.6110 O   0  0  0  0  0  0  0  0  0  0  0  0
   42.8340   35.1580   36.0460 H   0  0  0  0  0  0  0  0  0  0  0  0
   37.5720   30.1640   41.8310 O   0  0  0  0  0  0  0  0  0  0  0  0
   37.4570   29.0550   42.6600 C   0  0  0  0  0  3  0  0  0  0  0  0
   38.5440   28.2970   42.7750 C   0  0  0  0  0  3  0  0  0  0  0  0
   38.6620   27.0420   43.6200 C   0  0  0  0  0  0  0  0  0  0  0  0
   38.3860   27.2900   44.6650 H   0  0  0  0  0  0  0  0  0  0  0  0
   38.0080   26.2360   43.2460 H   0  0  0  0  0  0  0  0  0  0  0  0
   39.9860   26.6500   43.5850 O   0  0  0  0  0  0  0  0  0  0  0  0
   41.6050   24.9440   42.3400 O   0  0  0  0  0  0  0  0  0  0  0  0
   40.1690   25.2070   42.7320 P   0  0  1  0  0  0  0  0  0  0  0  0
   39.6690   23.8900   43.6930 O   0  0  0  0  0  0  0  0  0  0  0  0
   38.8910   24.2630   44.2180 H   0  0  0  0  0  0  0  0  0  0  0  0
   39.1860   25.2150   41.3610 O   0  0  0  0  0  0  0  0  0  0  0  0
   38.3030   24.1540   41.3390 C   0  0  0  0  0  0  0  0  0  0  0  0
   37.2640   24.1000   40.2610 C   0  0  0  0  0  0  0  0  0  0  0  0
   36.8720   24.4900   41.6780 C   0  0  0  0  0  0  0  0  0  0  0  0
   38.6970   23.2040   41.7450 H   0  0  0  0  0  0  0  0  0  0  0  0
   37.3440   24.9050   39.4980 H   0  0  0  0  0  0  0  0  0  0  0  0
   36.9560   23.0810   39.9550 H   0  0  0  0  0  0  0  0  0  0  0  0
   36.2720   23.7800   42.2800 H   0  0  0  0  0  0  0  0  0  0  0  0
   36.5770   25.5550   41.7730 H   0  0  0  0  0  0  0  0  0  0  0  0
  1 24  1  0  0  0  0
  2  1  1  0  0  0  0
  3  1  1  0  0  0  0
  4 10  1  0  0  0  0
  5  1  1  0  0  0  0
  5  4  2  0  0  0  0
  6  5  1  0  0  0  0
  7  6  2  0  0  0  0
  7  8  1  0  0  0  0
  8  9  2  0  0  0  0
  9  4  1  0  0  0  0
 11  6  1  0  0  0  0
 12 18  1  6  0  0  0
 12 13  1  0  0  0  0
 13  8  1  6  0  0  0
 14 13  1  0  0  0  0
 15 14  1  0  0  0  0
 16 20  1  6  0  0  0
 16 17  1  0  0  0  0
 16 15  1  0  0  0  0
 17 22  1  6  0  0  0
 17 12  1  0  0  0  0
 19 18  1  0  0  0  0
 20 21  1  0  0  0  0
 23 22  1  0  0  0  0
 24 25  1  0  0  0  0
 25 26  2  0  0  0  0
 26 27  1  0  0  0  0
 27 28  1  0  0  0  0
 29 27  1  0  0  0  0
 30 27  1  0  0  0  0
 32 31  2  6  0  0  0
 32 30  1  0  0  0  0
 32 33  1  0  0  0  0
 33 34  1  0  0  0  0
 35 32  1  0  0  0  0
 36 35  1  0  0  0  0
 36 38  1  0  0  0  0
 36 39  1  0  0  0  0
 37 36  1  0  0  0  0
 37 38  1  0  0  0  0
 38 43  1  0  0  0  0
 38 42  1  0  0  0  0
 40 37  1  0  0  0  0
 41 37  1  0  0  0  0
M  END
>  <minimizedAffinity>
-5.68562412

$$$$

 OpenBabel03252504343D

 43 45  0  0  1  0  0  0  0  0999 V2000
   41.9340   28.7240   42.9480 C   0  0  0  0  0  0  0  0  0  0  0  0
   42.0690   28.7720   44.0640 H   0  0  0  0  0  0  0  0  0  0  0  0
   42.6940   27.9910   42.6000 H   0  0  0  0  0  0  0  0  0  0  0  0
   42.3640   30.2390   41.0930 C   0  0  0  0  0  0  0  0  0  0  0  0
   42.3770   30.0780   42.4900 C   0  0  0  0  0  0  0  0  0  0  0  0
   42.7600   31.1240   43.2570 C   0  0  0  0  0  0  0  0  0  0  0  0
   43.0980   32.2330   42.6210 N   0  0  0  0  0  0  0  0  0  0  0  0
   43.0960   32.4200   41.3120 C   0  0  0  0  0  0  0  0  0  0  0  0
   42.7100   31.3770   40.4660 N   0  0  0  0  0  0  0  0  0  0  0  0
   42.0720   29.4550   40.4050 H   0  0  0  0  0  0  0  0  0  0  0  0
   42.7560   30.9570   44.3230 H   0  0  0  0  0  0  0  0  0  0  0  0
   42.3210   34.5500   40.3910 C   0  0  1  0  0  3  0  0  0  0  0  0
   43.4860   33.6960   40.6470 C   0  0  2  0  0  3  0  0  0  0  0  0
   44.2880   33.3660   39.5930 O   0  0  0  0  0  0  0  0  0  0  0  0
   44.1620   34.1070   38.4540 C   0  0  0  0  0  2  0  0  0  0  0  0
   42.7130   33.8630   38.0090 C   0  0  1  0  0  3  0  0  0  0  0  0
   41.9080   34.7220   38.9580 C   0  0  1  0  0  3  0  0  0  0  0  0
   41.1600   34.1450   41.0890 O   0  0  0  0  0  0  0  0  0  0  0  0
   40.5240   33.6890   40.5060 H   0  0  0  0  0  0  0  0  0  0  0  0
   42.6050   34.3050   36.7130 O   0  0  0  0  0  0  0  0  0  0  0  0
   43.4610   34.1270   36.2300 H   0  0  0  0  0  0  0  0  0  0  0  0
   40.5640   34.4260   38.7280 O   0  0  0  0  0  0  0  0  0  0  0  0
   40.0600   35.1890   38.3500 H   0  0  0  0  0  0  0  0  0  0  0  0
   40.7120   28.3590   42.4830 O   0  0  0  0  0  0  0  0  0  0  0  0
   39.4670   28.8300   42.8790 C   0  0  0  0  0  3  0  0  0  0  0  0
   38.4180   28.1230   42.4710 C   0  0  0  0  0  3  0  0  0  0  0  0
   36.9660   28.4360   42.7780 C   0  0  0  0  0  0  0  0  0  0  0  0
   36.6720   27.8950   43.7010 H   0  0  0  0  0  0  0  0  0  0  0  0
   36.8030   29.5190   42.9170 H   0  0  0  0  0  0  0  0  0  0  0  0
   36.2130   27.9630   41.7210 O   0  0  0  0  0  0  0  0  0  0  0  0
   36.6520   28.7800   39.2270 O   0  0  0  0  0  0  0  0  0  0  0  0
   36.0070   29.1510   40.5430 P   0  0  1  0  0  0  0  0  0  0  0  0
   34.3470   29.3870   40.2320 O   0  0  0  0  0  0  0  0  0  0  0  0
   33.9170   29.2610   41.1360 H   0  0  0  0  0  0  0  0  0  0  0  0
   36.6180   30.6240   41.0920 O   0  0  0  0  0  0  0  0  0  0  0  0
   37.3390   31.2910   40.1210 C   0  0  0  0  0  0  0  0  0  0  0  0
   38.8310   31.3610   40.2470 C   0  0  0  0  0  0  0  0  0  0  0  0
   37.9810   32.5840   40.5580 C   0  0  0  0  0  0  0  0  0  0  0  0
   36.8920   31.2780   39.1100 H   0  0  0  0  0  0  0  0  0  0  0  0
   39.2520   30.7840   41.0990 H   0  0  0  0  0  0  0  0  0  0  0  0
   39.3820   31.4060   39.2880 H   0  0  0  0  0  0  0  0  0  0  0  0
   38.0100   33.4440   39.8600 H   0  0  0  0  0  0  0  0  0  0  0  0
   37.9770   32.8510   41.6350 H   0  0  0  0  0  0  0  0  0  0  0  0
  1  2  1  0  0  0  0
  3  1  1  0  0  0  0
  4  5  1  0  0  0  0
  5  1  1  0  0  0  0
  5  6  2  0  0  0  0
  6 11  1  0  0  0  0
  7  6  1  0  0  0  0
  8  7  2  0  0  0  0
  9  4  2  0  0  0  0
  9  8  1  0  0  0  0
 10  4  1  0  0  0  0
 12 13  1  0  0  0  0
 12 18  1  1  0  0  0
 13  8  1  6  0  0  0
 14 13  1  0  0  0  0
 15 14  1  0  0  0  0
 16 20  1  6  0  0  0
 16 15  1  0  0  0  0
 16 17  1  0  0  0  0
 17 22  1  1  0  0  0
 17 12  1  0  0  0  0
 19 18  1  0  0  0  0
 21 20  1  0  0  0  0
 23 22  1  0  0  0  0
 24 25  1  0  0  0  0
 24  1  1  0  0  0  0
 26 27  1  0  0  0  0
 26 25  2  0  0  0  0
 27 29  1  0  0  0  0
 27 28  1  0  0  0  0
 30 27  1  0  0  0  0
 32 31  2  6  0  0  0
 32 35  1  0  0  0  0
 32 30  1  0  0  0  0
 33 32  1  0  0  0  0
 33 34  1  0  0  0  0
 36 37  1  0  0  0  0
 36 38  1  0  0  0  0
 36 35  1  0  0  0  0
 37 38  1  0  0  0  0
 37 40  1  0  0  0  0
 38 43  1  0  0  0  0
 39 36  1  0  0  0  0
 41 37  1  0  0  0  0
 42 38  1  0  0  0  0
M  END
>  <minimizedAffinity>
-5.36541939

$$$$

 OpenBabel03252504343D

 43 45  0  0  1  0  0  0  0  0999 V2000
   40.7560   27.5040   37.4400 C   0  0  0  0  0  0  0  0  0  0  0  0
   41.5440   27.5260   36.6370 H   0  0  0  0  0  0  0  0  0  0  0  0
   39.7930   27.4170   36.8920 H   0  0  0  0  0  0  0  0  0  0  0  0
   42.1080   29.4390   38.0310 C   0  0  0  0  0  0  0  0  0  0  0  0
   40.8160   28.8830   38.0190 C   0  0  0  0  0  0  0  0  0  0  0  0
   39.7910   29.6220   38.5000 C   0  0  0  0  0  0  0  0  0  0  0  0
   40.0890   30.8280   38.9520 N   0  0  0  0  0  0  0  0  0  0  0  0
   41.2890   31.3820   38.9760 C   0  0  0  0  0  0  0  0  0  0  0  0
   42.3900   30.6700   38.4930 N   0  0  0  0  0  0  0  0  0  0  0  0
   42.9850   28.9190   37.6660 H   0  0  0  0  0  0  0  0  0  0  0  0
   38.8170   29.1560   38.4730 H   0  0  0  0  0  0  0  0  0  0  0  0
   41.3840   33.7720   38.4590 C   0  0  1  0  0  3  0  0  0  0  0  0
   41.5690   32.7520   39.4970 C   0  0  2  0  0  3  0  0  0  0  0  0
   42.7730   32.6940   40.1380 O   0  0  0  0  0  0  0  0  0  0  0  0
   43.5950   33.7780   40.0250 C   0  0  0  0  0  2  0  0  0  0  0  0
   43.8920   33.8650   38.5210 C   0  0  1  0  0  3  0  0  0  0  0  0
   42.6210   34.4520   37.9490 C   0  0  1  0  0  3  0  0  0  0  0  0
   40.6960   33.2990   37.3180 O   0  0  0  0  0  0  0  0  0  0  0  0
   41.3000   33.1370   36.5690 H   0  0  0  0  0  0  0  0  0  0  0  0
   44.9570   34.7170   38.3650 O   0  0  0  0  0  0  0  0  0  0  0  0
   45.5830   34.6080   39.1350 H   0  0  0  0  0  0  0  0  0  0  0  0
   42.7470   34.4070   36.5600 O   0  0  0  0  0  0  0  0  0  0  0  0
   42.7950   35.3050   36.1480 H   0  0  0  0  0  0  0  0  0  0  0  0
   40.8360   26.5160   38.3660 O   0  0  0  0  0  0  0  0  0  0  0  0
   39.8640   26.1000   39.2660 C   0  0  0  0  0  3  0  0  0  0  0  0
   40.1990   26.1460   40.5520 C   0  0  0  0  0  3  0  0  0  0  0  0
   39.3070   25.7480   41.7140 C   0  0  0  0  0  0  0  0  0  0  0  0
   39.2710   24.6420   41.7720 H   0  0  0  0  0  0  0  0  0  0  0  0
   39.6780   26.1580   42.6700 H   0  0  0  0  0  0  0  0  0  0  0  0
   38.0410   26.2260   41.4380 O   0  0  0  0  0  0  0  0  0  0  0  0
   36.4120   27.5630   43.0640 O   0  0  0  0  0  0  0  0  0  0  0  0
   37.7210   27.6340   42.3100 P   0  0  1  0  0  0  0  0  0  0  0  0
   38.9460   27.8980   43.4670 O   0  0  0  0  0  0  0  0  0  0  0  0
   39.7820   27.5740   43.0030 H   0  0  0  0  0  0  0  0  0  0  0  0
   37.7240   28.9680   41.2780 O   0  0  0  0  0  0  0  0  0  0  0  0
   36.6150   29.7730   41.4540 C   0  0  0  0  0  0  0  0  0  0  0  0
   35.6680   29.9600   40.3080 C   0  0  0  0  0  0  0  0  0  0  0  0
   36.6290   31.0750   40.6930 C   0  0  0  0  0  0  0  0  0  0  0  0
   36.2150   29.8060   42.4840 H   0  0  0  0  0  0  0  0  0  0  0  0
   35.9040   29.3530   39.4060 H   0  0  0  0  0  0  0  0  0  0  0  0
   34.6130   30.1330   40.5930 H   0  0  0  0  0  0  0  0  0  0  0  0
   36.2210   31.9890   41.1670 H   0  0  0  0  0  0  0  0  0  0  0  0
   37.4220   31.2500   39.9380 H   0  0  0  0  0  0  0  0  0  0  0  0
  1  5  1  0  0  0  0
  1 24  1  0  0  0  0
  2  1  1  0  0  0  0
  3  1  1  0  0  0  0
  4  9  1  0  0  0  0
  5  4  2  0  0  0  0
  5  6  1  0  0  0  0
  6  7  2  0  0  0  0
  7  8  1  0  0  0  0
  9  8  2  0  0  0  0
 10  4  1  0  0  0  0
 11  6  1  0  0  0  0
 12 18  1  6  0  0  0
 12 13  1  0  0  0  0
 13  8  1  6  0  0  0
 13 14  1  0  0  0  0
 15 14  1  0  0  0  0
 16 20  1  1  0  0  0
 16 15  1  0  0  0  0
 17 22  1  6  0  0  0
 17 12  1  0  0  0  0
 17 16  1  0  0  0  0
 19 18  1  0  0  0  0
 20 21  1  0  0  0  0
 23 22  1  0  0  0  0
 24 25  1  0  0  0  0
 25 26  2  0  0  0  0
 26 27  1  0  0  0  0
 27 28  1  0  0  0  0
 27 29  1  0  0  0  0
 30 27  1  0  0  0  0
 30 32  1  0  0  0  0
 32 31  2  1  0  0  0
 32 33  1  0  0  0  0
 34 33  1  0  0  0  0
 35 36  1  0  0  0  0
 35 32  1  0  0  0  0
 36 39  1  0  0  0  0
 37 41  1  0  0  0  0
 37 38  1  0  0  0  0
 37 36  1  0  0  0  0
 38 42  1  0  0  0  0
 38 36  1  0  0  0  0
 40 37  1  0  0  0  0
 43 38  1  0  0  0  0
M  END
>  <minimizedAffinity>
-5.30962849

$$$$

 OpenBabel03252504343D

 43 45  0  0  1  0  0  0  0  0999 V2000
   36.3020   30.9160   40.9970 C   0  0  0  0  0  0  0  0  0  0  0  0
   35.4570   31.6500   40.8800 H   0  0  0  0  0  0  0  0  0  0  0  0
   36.4620   30.8390   42.0940 H   0  0  0  0  0  0  0  0  0  0  0  0
   38.6590   30.8890   40.3930 C   0  0  0  0  0  0  0  0  0  0  0  0
   37.4750   31.6470   40.4240 C   0  0  0  0  0  0  0  0  0  0  0  0
   37.5040   32.9100   39.9420 C   0  0  0  0  0  0  0  0  0  0  0  0
   38.6630   33.3390   39.4710 N   0  0  0  0  0  0  0  0  0  0  0  0
   39.7930   32.6540   39.4250 C   0  0  0  0  0  0  0  0  0  0  0  0
   39.8280   31.3440   39.9080 N   0  0  0  0  0  0  0  0  0  0  0  0
   38.7260   29.8720   40.7580 H   0  0  0  0  0  0  0  0  0  0  0  0
   36.5740   33.4570   39.9860 H   0  0  0  0  0  0  0  0  0  0  0  0
   41.2530   32.8290   37.4690 C   0  0  1  0  0  3  0  0  0  0  0  0
   41.0750   33.1880   38.8800 C   0  0  2  0  0  3  0  0  0  0  0  0
   42.0570   32.8420   39.7630 O   0  0  0  0  0  0  0  0  0  0  0  0
   43.2710   32.4970   39.2440 C   0  0  0  0  0  2  0  0  0  0  0  0
   42.9740   31.2530   38.3940 C   0  0  1  0  0  3  0  0  0  0  0  0
   42.3260   31.8280   37.1540 C   0  0  1  0  0  3  0  0  0  0  0  0
   40.0730   32.3470   36.8550 O   0  0  0  0  0  0  0  0  0  0  0  0
   40.0870   31.3780   36.7490 H   0  0  0  0  0  0  0  0  0  0  0  0
   44.1790   30.6610   38.1060 O   0  0  0  0  0  0  0  0  0  0  0  0
   44.7970   30.7710   38.8820 H   0  0  0  0  0  0  0  0  0  0  0  0
   41.8720   30.7450   36.4000 O   0  0  0  0  0  0  0  0  0  0  0  0
   42.3490   30.6480   35.5390 H   0  0  0  0  0  0  0  0  0  0  0  0
   36.1240   29.6730   40.4800 O   0  0  0  0  0  0  0  0  0  0  0  0
   35.9200   28.4810   41.1620 C   0  0  0  0  0  3  0  0  0  0  0  0
   37.0100   27.8850   41.6380 C   0  0  0  0  0  3  0  0  0  0  0  0
   37.0390   26.5830   42.4160 C   0  0  0  0  0  0  0  0  0  0  0  0
   36.2230   26.5970   43.1650 H   0  0  0  0  0  0  0  0  0  0  0  0
   36.9170   25.7100   41.7520 H   0  0  0  0  0  0  0  0  0  0  0  0
   38.2530   26.5280   43.0740 O   0  0  0  0  0  0  0  0  0  0  0  0
   40.4710   25.0730   43.2840 O   0  0  0  0  0  0  0  0  0  0  0  0
   39.2130   25.2800   42.4710 P   0  0  1  0  0  0  0  0  0  0  0  0
   38.3520   23.8080   42.5080 O   0  0  0  0  0  0  0  0  0  0  0  0
   37.4040   24.0830   42.2970 H   0  0  0  0  0  0  0  0  0  0  0  0
   39.6080   25.5780   40.8590 O   0  0  0  0  0  0  0  0  0  0  0  0
   40.7700   26.3110   40.7280 C   0  0  0  0  0  0  0  0  0  0  0  0
   40.7380   27.7780   41.0300 C   0  0  0  0  0  0  0  0  0  0  0  0
   40.7930   27.2990   39.5880 C   0  0  0  0  0  0  0  0  0  0  0  0
   41.7050   25.7510   40.9140 H   0  0  0  0  0  0  0  0  0  0  0  0
   39.7670   28.1500   41.4230 H   0  0  0  0  0  0  0  0  0  0  0  0
   41.6860   28.1990   41.4190 H   0  0  0  0  0  0  0  0  0  0  0  0
   41.7270   27.4480   39.0110 H   0  0  0  0  0  0  0  0  0  0  0  0
   39.8560   27.4950   39.0260 H   0  0  0  0  0  0  0  0  0  0  0  0
  1  3  1  0  0  0  0
  2  1  1  0  0  0  0
  4  5  1  0  0  0  0
  4 10  1  0  0  0  0
  5  1  1  0  0  0  0
  6 11  1  0  0  0  0
  6  5  2  0  0  0  0
  7  6  1  0  0  0  0
  8  7  2  0  0  0  0
  8  9  1  0  0  0  0
  9  4  2  0  0  0  0
 12 18  1  1  0  0  0
 12 13  1  0  0  0  0
 13  8  1  1  0  0  0
 13 14  1  0  0  0  0
 15 14  1  0  0  0  0
 16 20  1  6  0  0  0
 16 15  1  0  0  0  0
 17 22  1  1  0  0  0
 17 12  1  0  0  0  0
 17 16  1  0  0  0  0
 19 18  1  0  0  0  0
 20 21  1  0  0  0  0
 23 22  1  0  0  0  0
 24  1  1  0  0  0  0
 24 25  1  0  0  0  0
 25 26  2  0  0  0  0
 26 27  1  0  0  0  0
 27 30  1  0  0  0  0
 27 28  1  0  0  0  0
 29 27  1  0  0  0  0
 32 33  1  0  0  0  0
 32 30  1  0  0  0  0
 32 31  2  1  0  0  0
 34 33  1  0  0  0  0
 35 32  1  0  0  0  0
 36 35  1  0  0  0  0
 36 39  1  0  0  0  0
 36 37  1  0  0  0  0
 37 41  1  0  0  0  0
 37 40  1  0  0  0  0
 38 36  1  0  0  0  0
 38 37  1  0  0  0  0
 42 38  1  0  0  0  0
 43 38  1  0  0  0  0
M  END
>  <minimizedAffinity>
-5.26011896

$$$$

 OpenBabel03252504343D

 43 45  0  0  1  0  0  0  0  0999 V2000
   36.6200   29.2050   38.2640 C   0  0  0  0  0  0  0  0  0  0  0  0
   35.7650   28.6210   37.8220 H   0  0  0  0  0  0  0  0  0  0  0  0
   37.4770   29.0160   37.5820 H   0  0  0  0  0  0  0  0  0  0  0  0
   38.1040   27.7570   39.5380 C   0  0  0  0  0  0  0  0  0  0  0  0
   36.9010   28.4860   39.5460 C   0  0  0  0  0  0  0  0  0  0  0  0
   36.1490   28.4790   40.6700 C   0  0  0  0  0  0  0  0  0  0  0  0
   36.6130   27.7760   41.6890 N   0  0  0  0  0  0  0  0  0  0  0  0
   37.7380   27.0820   41.7170 C   0  0  0  0  0  0  0  0  0  0  0  0
   38.5580   27.0490   40.5870 N   0  0  0  0  0  0  0  0  0  0  0  0
   38.7650   27.7080   38.6820 H   0  0  0  0  0  0  0  0  0  0  0  0
   35.2350   29.0510   40.6330 H   0  0  0  0  0  0  0  0  0  0  0  0
   39.2350   27.0420   43.6520 C   0  0  1  0  0  3  0  0  0  0  0  0
   38.2140   26.3060   42.8980 C   0  0  2  0  0  3  0  0  0  0  0  0
   38.5200   25.0520   42.4520 O   0  0  0  0  0  0  0  0  0  0  0  0
   39.6020   24.4360   43.0120 C   0  0  0  0  0  2  0  0  0  0  0  0
   40.7830   25.3440   42.6400 C   0  0  1  0  0  3  0  0  0  0  0  0
   40.6370   26.5100   43.5930 C   0  0  1  0  0  3  0  0  0  0  0  0
   39.3180   28.4100   43.3030 O   0  0  0  0  0  0  0  0  0  0  0  0
   40.0920   28.5960   42.7390 H   0  0  0  0  0  0  0  0  0  0  0  0
   41.9330   24.6350   42.8820 O   0  0  0  0  0  0  0  0  0  0  0  0
   41.7780   23.6710   42.6730 H   0  0  0  0  0  0  0  0  0  0  0  0
   41.5780   27.4650   43.2070 O   0  0  0  0  0  0  0  0  0  0  0  0
   42.2870   27.6030   43.8830 H   0  0  0  0  0  0  0  0  0  0  0  0
   36.4500   30.5440   38.4110 O   0  0  0  0  0  0  0  0  0  0  0  0
   37.4230   31.5160   38.6030 C   0  0  0  0  0  3  0  0  0  0  0  0
   37.3280   32.2250   39.7250 C   0  0  0  0  0  3  0  0  0  0  0  0
   38.2700   33.3330   40.1540 C   0  0  0  0  0  0  0  0  0  0  0  0
   38.6030   33.8870   39.2530 H   0  0  0  0  0  0  0  0  0  0  0  0
   37.7850   34.0310   40.8590 H   0  0  0  0  0  0  0  0  0  0  0  0
   39.3660   32.7320   40.7430 O   0  0  0  0  0  0  0  0  0  0  0  0
   40.5620   34.7240   39.4440 O   0  0  0  0  0  0  0  0  0  0  0  0
   40.8010   33.4570   40.2340 P   0  0  1  0  0  0  0  0  0  0  0  0
   41.7500   33.8880   41.5840 O   0  0  0  0  0  0  0  0  0  0  0  0
   41.5740   33.1440   42.2440 H   0  0  0  0  0  0  0  0  0  0  0  0
   41.7100   32.3680   39.3220 O   0  0  0  0  0  0  0  0  0  0  0  0
   41.0870   32.0220   38.1400 C   0  0  0  0  0  0  0  0  0  0  0  0
   41.0450   30.5790   37.7390 C   0  0  0  0  0  0  0  0  0  0  0  0
   41.9990   31.5360   37.0410 C   0  0  0  0  0  0  0  0  0  0  0  0
   40.2540   32.6820   37.8350 H   0  0  0  0  0  0  0  0  0  0  0  0
   41.4650   29.8750   38.4920 H   0  0  0  0  0  0  0  0  0  0  0  0
   40.1610   30.2820   37.1430 H   0  0  0  0  0  0  0  0  0  0  0  0
   41.7910   31.8230   35.9910 H   0  0  0  0  0  0  0  0  0  0  0  0
   43.0650   31.3380   37.2730 H   0  0  0  0  0  0  0  0  0  0  0  0
  1 24  1  0  0  0  0
  1  5  1  0  0  0  0
  2  1  1  0  0  0  0
  3  1  1  0  0  0  0
  4  5  2  0  0  0  0
  4  9  1  0  0  0  0
  5  6  1  0  0  0  0
  6  7  2  0  0  0  0
  7  8  1  0  0  0  0
  9  8  2  0  0  0  0
 10  4  1  0  0  0  0
 11  6  1  0  0  0  0
 12 18  1  6  0  0  0
 13  8  1  6  0  0  0
 13 12  1  0  0  0  0
 14 13  1  0  0  0  0
 14 15  1  0  0  0  0
 16 20  1  1  0  0  0
 16 15  1  0  0  0  0
 16 17  1  0  0  0  0
 17 22  1  6  0  0  0
 17 12  1  0  0  0  0
 19 18  1  0  0  0  0
 21 20  1  0  0  0  0
 22 23  1  0  0  0  0
 24 25  1  0  0  0  0
 25 26  2  0  0  0  0
 26 27  1  0  0  0  0
 27 30  1  0  0  0  0
 27 29  1  0  0  0  0
 28 27  1  0  0  0  0
 32 31  2  6  0  0  0
 32 30  1  0  0  0  0
 32 33  1  0  0  0  0
 33 34  1  0  0  0  0
 35 32  1  0  0  0  0
 36 35  1  0  0  0  0
 37 36  1  0  0  0  0
 37 40  1  0  0  0  0
 38 43  1  0  0  0  0
 38 37  1  0  0  0  0
 38 36  1  0  0  0  0
 39 36  1  0  0  0  0
 41 37  1  0  0  0  0
 42 38  1  0  0  0  0
M  END
>  <minimizedAffinity>
-5.25048685

$$$$

 OpenBabel03252504343D

 43 45  0  0  1  0  0  0  0  0999 V2000
   40.4300   27.2010   43.8180 C   0  0  0  0  0  0  0  0  0  0  0  0
   40.4230   27.7390   44.8060 H   0  0  0  0  0  0  0  0  0  0  0  0
   41.4860   26.8860   43.6720 H   0  0  0  0  0  0  0  0  0  0  0  0
   41.1760   28.4850   41.8900 C   0  0  0  0  0  0  0  0  0  0  0  0
   40.1490   28.2910   42.8310 C   0  0  0  0  0  0  0  0  0  0  0  0
   39.0450   29.0670   42.7510 C   0  0  0  0  0  0  0  0  0  0  0  0
   39.0170   29.9620   41.7780 N   0  0  0  0  0  0  0  0  0  0  0  0
   39.9620   30.1700   40.8770 C   0  0  0  0  0  0  0  0  0  0  0  0
   41.1280   29.4010   40.9060 N   0  0  0  0  0  0  0  0  0  0  0  0
   42.0930   27.9100   41.8800 H   0  0  0  0  0  0  0  0  0  0  0  0
   38.2820   28.8850   43.4930 H   0  0  0  0  0  0  0  0  0  0  0  0
   40.1750   32.5390   40.3050 C   0  0  1  0  0  3  0  0  0  0  0  0
   39.8780   31.1950   39.7970 C   0  0  2  0  0  3  0  0  0  0  0  0
   38.6900   30.9970   39.1530 O   0  0  0  0  0  0  0  0  0  0  0  0
   38.0170   32.1050   38.7260 C   0  0  0  0  0  2  0  0  0  0  0  0
   37.7030   32.8730   40.0180 C   0  0  1  0  0  3  0  0  0  0  0  0
   39.0290   33.5060   40.3760 C   0  0  1  0  0  3  0  0  0  0  0  0
   40.7710   32.5400   41.5870 O   0  0  0  0  0  0  0  0  0  0  0  0
   40.1360   32.7900   42.2840 H   0  0  0  0  0  0  0  0  0  0  0  0
   36.7580   33.8190   39.7100 O   0  0  0  0  0  0  0  0  0  0  0  0
   36.1380   33.4550   39.0160 H   0  0  0  0  0  0  0  0  0  0  0  0
   38.8700   34.0870   41.6350 O   0  0  0  0  0  0  0  0  0  0  0  0
   38.9340   35.0740   41.6140 H   0  0  0  0  0  0  0  0  0  0  0  0
   39.6170   26.1220   43.6890 O   0  0  0  0  0  0  0  0  0  0  0  0
   39.3080   25.4110   42.5370 C   0  0  0  0  0  3  0  0  0  0  0  0
   38.0180   25.3370   42.2230 C   0  0  0  0  0  3  0  0  0  0  0  0
   37.4400   24.6230   41.0150 C   0  0  0  0  0  0  0  0  0  0  0  0
   38.2540   24.4460   40.2830 H   0  0  0  0  0  0  0  0  0  0  0  0
   36.9780   23.6600   41.2950 H   0  0  0  0  0  0  0  0  0  0  0  0
   36.5030   25.4660   40.4520 O   0  0  0  0  0  0  0  0  0  0  0  0
   38.1370   27.3820   39.5900 O   0  0  0  0  0  0  0  0  0  0  0  0
   37.1580   26.3170   39.1510 P   0  0  1  0  0  0  0  0  0  0  0  0
   38.0090   25.2550   38.1240 O   0  0  0  0  0  0  0  0  0  0  0  0
   37.4650   24.4050   38.1610 H   0  0  0  0  0  0  0  0  0  0  0  0
   35.9250   27.0080   38.2310 O   0  0  0  0  0  0  0  0  0  0  0  0
   35.4410   28.1750   38.7880 C   0  0  0  0  0  0  0  0  0  0  0  0
   34.1810   28.7710   38.2400 C   0  0  0  0  0  0  0  0  0  0  0  0
   35.5260   29.4000   37.9120 C   0  0  0  0  0  0  0  0  0  0  0  0
   35.6730   28.3170   39.8600 H   0  0  0  0  0  0  0  0  0  0  0  0
   33.6820   28.1610   37.4550 H   0  0  0  0  0  0  0  0  0  0  0  0
   33.5680   29.3320   38.9720 H   0  0  0  0  0  0  0  0  0  0  0  0
   35.7810   30.3790   38.3640 H   0  0  0  0  0  0  0  0  0  0  0  0
   35.8170   29.2830   36.8480 H   0  0  0  0  0  0  0  0  0  0  0  0
  1  2  1  0  0  0  0
  3  1  1  0  0  0  0
  4  5  1  0  0  0  0
  5  1  1  0  0  0  0
  6  5  2  0  0  0  0
  6 11  1  0  0  0  0
  7  6  1  0  0  0  0
  8  9  1  0  0  0  0
  8  7  2  0  0  0  0
  9  4  2  0  0  0  0
 10  4  1  0  0  0  0
 12 17  1  0  0  0  0
 12 18  1  1  0  0  0
 13 12  1  0  0  0  0
 13  8  1  1  0  0  0
 14 13  1  0  0  0  0
 15 14  1  0  0  0  0
 15 16  1  0  0  0  0
 16 20  1  6  0  0  0
 16 17  1  0  0  0  0
 17 22  1  1  0  0  0
 18 19  1  0  0  0  0
 21 20  1  0  0  0  0
 23 22  1  0  0  0  0
 24  1  1  0  0  0  0
 25 24  1  0  0  0  0
 26 25  2  0  0  0  0
 27 29  1  0  0  0  0
 27 26  1  0  0  0  0
 28 27  1  0  0  0  0
 30 27  1  0  0  0  0
 32 31  2  1  0  0  0
 32 30  1  0  0  0  0
 33 34  1  0  0  0  0
 33 32  1  0  0  0  0
 35 36  1  0  0  0  0
 35 32  1  0  0  0  0
 36 39  1  0  0  0  0
 37 36  1  0  0  0  0
 37 41  1  0  0  0  0
 38 37  1  0  0  0  0
 38 42  1  0  0  0  0
 38 36  1  0  0  0  0
 40 37  1  0  0  0  0
 43 38  1  0  0  0  0
M  END
>  <minimizedAffinity>
-5.19982004

$$$$

 OpenBabel03252504343D

 43 45  0  0  1  0  0  0  0  0999 V2000
   36.7560   31.0930   39.6870 C   0  0  0  0  0  0  0  0  0  0  0  0
   36.6630   30.2950   38.9000 H   0  0  0  0  0  0  0  0  0  0  0  0
   36.1500   31.9430   39.3050 H   0  0  0  0  0  0  0  0  0  0  0  0
   38.5730   32.4680   40.5420 C   0  0  0  0  0  0  0  0  0  0  0  0
   38.1950   31.4960   39.5990 C   0  0  0  0  0  0  0  0  0  0  0  0
   39.1320   31.0260   38.7450 C   0  0  0  0  0  0  0  0  0  0  0  0
   40.3500   31.5260   38.8660 N   0  0  0  0  0  0  0  0  0  0  0  0
   40.7400   32.4390   39.7410 C   0  0  0  0  0  0  0  0  0  0  0  0
   39.8180   32.9640   40.6500 N   0  0  0  0  0  0  0  0  0  0  0  0
   37.8880   32.8990   41.2620 H   0  0  0  0  0  0  0  0  0  0  0  0
   38.7990   30.2810   38.0380 H   0  0  0  0  0  0  0  0  0  0  0  0
   42.3130   34.1580   38.9960 C   0  0  1  0  0  3  0  0  0  0  0  0
   42.1310   32.9680   39.8340 C   0  0  2  0  0  3  0  0  0  0  0  0
   42.9720   31.9090   39.6430 O   0  0  0  0  0  0  0  0  0  0  0  0
   44.1200   32.1410   38.9420 C   0  0  0  0  0  2  0  0  0  0  0  0
   43.6290   32.5780   37.5550 C   0  0  1  0  0  3  0  0  0  0  0  0
   43.1800   34.0050   37.7800 C   0  0  1  0  0  3  0  0  0  0  0  0
   41.0980   34.7220   38.5440 O   0  0  0  0  0  0  0  0  0  0  0  0
   40.9240   34.5110   37.6080 H   0  0  0  0  0  0  0  0  0  0  0  0
   44.7050   32.5160   36.7040 O   0  0  0  0  0  0  0  0  0  0  0  0
   45.2870   31.7470   36.9620 H   0  0  0  0  0  0  0  0  0  0  0  0
   42.5620   34.4220   36.6010 O   0  0  0  0  0  0  0  0  0  0  0  0
   43.0580   35.1440   36.1400 H   0  0  0  0  0  0  0  0  0  0  0  0
   36.3500   30.7800   40.9440 O   0  0  0  0  0  0  0  0  0  0  0  0
   36.6550   29.6480   41.6880 C   0  0  0  0  0  3  0  0  0  0  0  0
   36.6390   28.4930   41.0290 C   0  0  0  0  0  3  0  0  0  0  0  0
   36.9410   27.1310   41.6240 C   0  0  0  0  0  0  0  0  0  0  0  0
   35.9890   26.6650   41.9500 H   0  0  0  0  0  0  0  0  0  0  0  0
   37.4450   26.4710   40.8960 H   0  0  0  0  0  0  0  0  0  0  0  0
   37.7430   27.3360   42.7300 O   0  0  0  0  0  0  0  0  0  0  0  0
   39.2730   25.1910   43.1040 O   0  0  0  0  0  0  0  0  0  0  0  0
   39.2440   26.5930   42.5370 P   0  0  1  0  0  0  0  0  0  0  0  0
   39.6270   26.4650   40.8800 O   0  0  0  0  0  0  0  0  0  0  0  0
   39.2430   27.3110   40.4840 H   0  0  0  0  0  0  0  0  0  0  0  0
   40.4520   27.5310   43.2490 O   0  0  0  0  0  0  0  0  0  0  0  0
   41.0670   28.3730   42.3450 C   0  0  0  0  0  0  0  0  0  0  0  0
   41.8440   29.5450   42.8610 C   0  0  0  0  0  0  0  0  0  0  0  0
   40.4740   29.7550   42.2340 C   0  0  0  0  0  0  0  0  0  0  0  0
   41.3900   27.8970   41.4010 H   0  0  0  0  0  0  0  0  0  0  0  0
   41.9280   29.5960   43.9690 H   0  0  0  0  0  0  0  0  0  0  0  0
   42.6990   29.8570   42.2310 H   0  0  0  0  0  0  0  0  0  0  0  0
   40.4110   30.2460   41.2430 H   0  0  0  0  0  0  0  0  0  0  0  0
   39.7020   30.0710   42.9660 H   0  0  0  0  0  0  0  0  0  0  0  0
  1 24  1  0  0  0  0
  2  1  1  0  0  0  0
  3  1  1  0  0  0  0
  4  9  1  0  0  0  0
  4 10  1  0  0  0  0
  5  1  1  0  0  0  0
  5  4  2  0  0  0  0
  6  7  2  0  0  0  0
  6  5  1  0  0  0  0
  7  8  1  0  0  0  0
  8  9  2  0  0  0  0
 11  6  1  0  0  0  0
 12 18  1  6  0  0  0
 12 13  1  0  0  0  0
 13  8  1  6  0  0  0
 14 13  1  0  0  0  0
 15 14  1  0  0  0  0
 16 20  1  6  0  0  0
 16 17  1  0  0  0  0
 16 15  1  0  0  0  0
 17 22  1  6  0  0  0
 17 12  1  0  0  0  0
 19 18  1  0  0  0  0
 20 21  1  0  0  0  0
 23 22  1  0  0  0  0
 24 25  1  0  0  0  0
 26 27  1  0  0  0  0
 26 25  2  0  0  0  0
 27 28  1  0  0  0  0
 27 30  1  0  0  0  0
 29 27  1  0  0  0  0
 32 30  1  0  0  0  0
 32 31  2  1  0  0  0
 32 35  1  0  0  0  0
 33 32  1  0  0  0  0
 34 33  1  0  0  0  0
 36 37  1  0  0  0  0
 36 35  1  0  0  0  0
 37 40  1  0  0  0  0
 38 36  1  0  0  0  0
 38 37  1  0  0  0  0
 38 43  1  0  0  0  0
 39 36  1  0  0  0  0
 41 37  1  0  0  0  0
 42 38  1  0  0  0  0
M  END
>  <minimizedAffinity>
-5.19355011

$$$$

 OpenBabel03252504343D

 43 45  0  0  1  0  0  0  0  0999 V2000
   34.9610   29.1270   40.4490 C   0  0  0  0  0  0  0  0  0  0  0  0
   34.8830   30.2270   40.6760 H   0  0  0  0  0  0  0  0  0  0  0  0
   34.1410   28.6560   41.0330 H   0  0  0  0  0  0  0  0  0  0  0  0
   36.9390   29.8070   41.6940 C   0  0  0  0  0  0  0  0  0  0  0  0
   36.2530   28.7350   41.0960 C   0  0  0  0  0  0  0  0  0  0  0  0
   36.7960   27.4980   41.1700 C   0  0  0  0  0  0  0  0  0  0  0  0
   37.9480   27.3940   41.8100 N   0  0  0  0  0  0  0  0  0  0  0  0
   38.6190   28.3780   42.3840 C   0  0  0  0  0  0  0  0  0  0  0  0
   38.1100   29.6790   42.3420 N   0  0  0  0  0  0  0  0  0  0  0  0
   36.5770   30.8270   41.6830 H   0  0  0  0  0  0  0  0  0  0  0  0
   36.2370   26.7060   40.6970 H   0  0  0  0  0  0  0  0  0  0  0  0
   41.0520   28.2450   42.1660 C   0  0  1  0  0  3  0  0  0  0  0  0
   39.9180   28.2030   43.0960 C   0  0  2  0  0  3  0  0  0  0  0  0
   39.7840   27.1080   43.9010 O   0  0  0  0  0  0  0  0  0  0  0  0
   40.8730   26.2960   44.0390 C   0  0  0  0  0  2  0  0  0  0  0  0
   41.1330   25.7770   42.6180 C   0  0  1  0  0  3  0  0  0  0  0  0
   41.7850   26.9560   41.9320 C   0  0  1  0  0  3  0  0  0  0  0  0
   40.7170   28.7450   40.8870 O   0  0  0  0  0  0  0  0  0  0  0  0
   40.6420   28.0330   40.2250 H   0  0  0  0  0  0  0  0  0  0  0  0
   41.9960   24.7140   42.7250 O   0  0  0  0  0  0  0  0  0  0  0  0
   41.7970   24.2100   43.5630 H   0  0  0  0  0  0  0  0  0  0  0  0
   41.9020   26.6210   40.5820 O   0  0  0  0  0  0  0  0  0  0  0  0
   42.8420   26.5260   40.2880 H   0  0  0  0  0  0  0  0  0  0  0  0
   34.8610   28.7500   39.1490 O   0  0  0  0  0  0  0  0  0  0  0  0
   35.4480   29.3380   38.0370 C   0  0  0  0  0  3  0  0  0  0  0  0
   36.7540   29.5740   38.1200 C   0  0  0  0  0  3  0  0  0  0  0  0
   37.6110   30.2020   37.0370 C   0  0  0  0  0  0  0  0  0  0  0  0
   37.2230   29.8870   36.0480 H   0  0  0  0  0  0  0  0  0  0  0  0
   37.6060   31.3040   37.1020 H   0  0  0  0  0  0  0  0  0  0  0  0
   38.8930   29.7110   37.1940 O   0  0  0  0  0  0  0  0  0  0  0  0
   41.3810   30.4830   37.7360 O   0  0  0  0  0  0  0  0  0  0  0  0
   39.9290   30.9000   37.7920 P   0  0  1  0  0  0  0  0  0  0  0  0
   39.7860   32.3230   36.8620 O   0  0  0  0  0  0  0  0  0  0  0  0
   38.8060   32.3500   36.6210 H   0  0  0  0  0  0  0  0  0  0  0  0
   39.5010   31.3010   39.3730 O   0  0  0  0  0  0  0  0  0  0  0  0
   39.1290   32.6250   39.4990 C   0  0  0  0  0  0  0  0  0  0  0  0
   38.6590   33.1210   40.8320 C   0  0  0  0  0  0  0  0  0  0  0  0
   37.6570   32.8700   39.7160 C   0  0  0  0  0  0  0  0  0  0  0  0
   39.6530   33.3280   38.8260 H   0  0  0  0  0  0  0  0  0  0  0  0
   38.7250   32.3750   41.6550 H   0  0  0  0  0  0  0  0  0  0  0  0
   38.8710   34.1880   41.0390 H   0  0  0  0  0  0  0  0  0  0  0  0
   37.1700   33.7390   39.2320 H   0  0  0  0  0  0  0  0  0  0  0  0
   36.9900   32.0060   39.9120 H   0  0  0  0  0  0  0  0  0  0  0  0
  1  2  1  0  0  0  0
  1  3  1  0  0  0  0
  1  5  1  0  0  0  0
  4  9  1  0  0  0  0
  5  6  1  0  0  0  0
  5  4  2  0  0  0  0
  6  7  2  0  0  0  0
  7  8  1  0  0  0  0
  9  8  2  0  0  0  0
 10  4  1  0  0  0  0
 11  6  1  0  0  0  0
 12 18  1  6  0  0  0
 12 13  1  0  0  0  0
 13  8  1  6  0  0  0
 13 14  1  0  0  0  0
 14 15  1  0  0  0  0
 16 20  1  1  0  0  0
 16 15  1  0  0  0  0
 17 22  1  6  0  0  0
 17 12  1  0  0  0  0
 17 16  1  0  0  0  0
 19 18  1  0  0  0  0
 20 21  1  0  0  0  0
 23 22  1  0  0  0  0
 24  1  1  0  0  0  0
 25 26  2  0  0  0  0
 25 24  1  0  0  0  0
 27 29  1  0  0  0  0
 27 30  1  0  0  0  0
 27 26  1  0  0  0  0
 28 27  1  0  0  0  0
 30 32  1  0  0  0  0
 32 31  2  6  0  0  0
 32 35  1  0  0  0  0
 33 32  1  0  0  0  0
 34 33  1  0  0  0  0
 35 36  1  0  0  0  0
 36 38  1  0  0  0  0
 36 37  1  0  0  0  0
 37 41  1  0  0  0  0
 37 40  1  0  0  0  0
 38 43  1  0  0  0  0
 38 37  1  0  0  0  0
 39 36  1  0  0  0  0
 42 38  1  0  0  0  0
M  END
>  <minimizedAffinity>
-5.18937254

$$$$

 OpenBabel03252504343D

 43 45  0  0  1  0  0  0  0  0999 V2000
   35.8510   28.5150   38.5070 C   0  0  0  0  0  0  0  0  0  0  0  0
   36.3100   28.6000   37.4830 H   0  0  0  0  0  0  0  0  0  0  0  0
   34.8170   28.9060   38.3890 H   0  0  0  0  0  0  0  0  0  0  0  0
   37.9250   29.7410   38.8460 C   0  0  0  0  0  0  0  0  0  0  0  0
   36.6180   29.5160   39.3130 C   0  0  0  0  0  0  0  0  0  0  0  0
   36.1900   30.2070   40.3940 C   0  0  0  0  0  0  0  0  0  0  0  0
   37.0490   31.0530   40.9350 N   0  0  0  0  0  0  0  0  0  0  0  0
   38.2830   31.2900   40.5230 C   0  0  0  0  0  0  0  0  0  0  0  0
   38.7840   30.6080   39.4120 N   0  0  0  0  0  0  0  0  0  0  0  0
   38.3490   29.2320   37.9900 H   0  0  0  0  0  0  0  0  0  0  0  0
   35.1800   30.0030   40.7180 H   0  0  0  0  0  0  0  0  0  0  0  0
   39.4390   33.4380   40.3280 C   0  0  1  0  0  3  0  0  0  0  0  0
   39.2110   32.2600   41.1730 C   0  0  2  0  0  3  0  0  0  0  0  0
   40.2970   31.5480   41.5950 O   0  0  0  0  0  0  0  0  0  0  0  0
   41.5170   32.1510   41.4970 C   0  0  0  0  0  2  0  0  0  0  0  0
   41.6960   32.3910   39.9910 C   0  0  1  0  0  3  0  0  0  0  0  0
   40.8040   33.5820   39.7210 C   0  0  1  0  0  3  0  0  0  0  0  0
   38.5190   33.5550   39.2620 O   0  0  0  0  0  0  0  0  0  0  0  0
   38.9130   33.2930   38.4090 H   0  0  0  0  0  0  0  0  0  0  0  0
   43.0190   32.6920   39.7800 O   0  0  0  0  0  0  0  0  0  0  0  0
   43.5830   32.1670   40.4160 H   0  0  0  0  0  0  0  0  0  0  0  0
   40.7800   33.7600   38.3370 O   0  0  0  0  0  0  0  0  0  0  0  0
   41.2070   34.6040   38.0490 H   0  0  0  0  0  0  0  0  0  0  0  0
   35.8020   27.2790   39.0680 O   0  0  0  0  0  0  0  0  0  0  0  0
   36.8580   26.4230   39.3510 C   0  0  0  0  0  3  0  0  0  0  0  0
   36.5790   25.3930   40.1440 C   0  0  0  0  0  3  0  0  0  0  0  0
   37.5630   24.3260   40.5880 C   0  0  0  0  0  0  0  0  0  0  0  0
   37.1530   23.3310   40.3240 H   0  0  0  0  0  0  0  0  0  0  0  0
   38.5500   24.4590   40.1120 H   0  0  0  0  0  0  0  0  0  0  0  0
   37.6700   24.4170   41.9630 O   0  0  0  0  0  0  0  0  0  0  0  0
   40.0630   24.1880   43.1050 O   0  0  0  0  0  0  0  0  0  0  0  0
   39.1220   25.1480   42.4110 P   0  0  1  0  0  0  0  0  0  0  0  0
   39.9370   25.7280   41.0300 O   0  0  0  0  0  0  0  0  0  0  0  0
   39.1890   26.0410   40.4280 H   0  0  0  0  0  0  0  0  0  0  0  0
   38.8210   26.4810   43.3990 O   0  0  0  0  0  0  0  0  0  0  0  0
   38.0720   27.4500   42.7630 C   0  0  0  0  0  0  0  0  0  0  0  0
   37.6000   28.6340   43.5510 C   0  0  0  0  0  0  0  0  0  0  0  0
   36.6230   27.5300   43.1750 C   0  0  0  0  0  0  0  0  0  0  0  0
   38.2870   27.5810   41.6860 H   0  0  0  0  0  0  0  0  0  0  0  0
   37.9710   28.6720   44.5990 H   0  0  0  0  0  0  0  0  0  0  0  0
   37.4910   29.5710   42.9730 H   0  0  0  0  0  0  0  0  0  0  0  0
   35.8480   27.7410   42.4130 H   0  0  0  0  0  0  0  0  0  0  0  0
   36.2770   26.9360   44.0470 H   0  0  0  0  0  0  0  0  0  0  0  0
  1 24  1  0  0  0  0
  1  5  1  0  0  0  0
  2  1  1  0  0  0  0
  3  1  1  0  0  0  0
  4  5  2  0  0  0  0
  4  9  1  0  0  0  0
  5  6  1  0  0  0  0
  6 11  1  0  0  0  0
  6  7  2  0  0  0  0
  8  7  1  0  0  0  0
  9  8  2  0  0  0  0
 10  4  1  0  0  0  0
 12 18  1  6  0  0  0
 12 13  1  0  0  0  0
 13  8  1  6  0  0  0
 13 14  1  0  0  0  0
 15 14  1  0  0  0  0
 16 20  1  1  0  0  0
 16 15  1  0  0  0  0
 17 22  1  6  0  0  0
 17 16  1  0  0  0  0
 17 12  1  0  0  0  0
 19 18  1  0  0  0  0
 20 21  1  0  0  0  0
 23 22  1  0  0  0  0
 24 25  1  0  0  0  0
 25 26  2  0  0  0  0
 26 27  1  0  0  0  0
 27 30  1  0  0  0  0
 28 27  1  0  0  0  0
 29 27  1  0  0  0  0
 30 32  1  0  0  0  0
 32 31  2  1  0  0  0
 32 35  1  0  0  0  0
 33 32  1  0  0  0  0
 34 33  1  0  0  0  0
 36 38  1  0  0  0  0
 36 35  1  0  0  0  0
 36 37  1  0  0  0  0
 37 40  1  0  0  0  0
 38 37  1  0  0  0  0
 38 43  1  0  0  0  0
 39 36  1  0  0  0  0
 41 37  1  0  0  0  0
 42 38  1  0  0  0  0
M  END
>  <minimizedAffinity>
-5.13848925

$$$$
