
 OpenBabel03252507133D

 45 47  0  0  1  0  0  0  0  0999 V2000
   45.7070   33.8310   44.5480 C   0  0  2  0  0  0  0  0  0  0  0  0
   44.9400   35.1040   44.5420 C   0  0  0  0  0  0  0  0  0  0  0  0
   45.3200   35.9280   43.3560 C   0  0  0  0  0  0  0  0  0  0  0  0
   44.9560   35.3620   42.1490 O   0  0  0  0  0  0  0  0  0  0  0  0
   44.8110   33.9930   42.2620 C   0  0  0  0  0  0  0  0  0  0  0  0
   45.9570   33.4340   43.1010 C   0  0  1  0  0  0  0  0  0  0  0  0
   46.7430   34.0310   44.9160 H   0  0  0  0  0  0  0  0  0  0  0  0
   45.0070   35.6720   45.4920 H   0  0  0  0  0  0  0  0  0  0  0  0
   43.8440   34.8710   44.4350 H   0  0  0  0  0  0  0  0  0  0  0  0
   46.3010   36.4100   43.3940 H   0  0  0  0  0  0  0  0  0  0  0  0
   44.6130   36.8320   43.4280 H   0  0  0  0  0  0  0  0  0  0  0  0
   43.8620   33.7070   42.7760 H   0  0  0  0  0  0  0  0  0  0  0  0
   44.8350   33.5530   41.2500 H   0  0  0  0  0  0  0  0  0  0  0  0
   45.7460   32.3170   43.0820 H   0  0  0  0  0  0  0  0  0  0  0  0
   47.9150   32.3180   42.1850 C   0  0  2  0  0  3  0  0  0  0  0  0
   47.2940   33.6790   42.5370 C   0  0  2  0  0  3  0  0  0  0  0  0
   48.1950   34.2570   43.4190 O   0  0  0  0  0  0  0  0  0  0  0  0
   49.3190   34.7290   42.7570 C   0  0  0  0  0  2  0  0  0  0  0  0
   50.0660   33.6200   42.0610 C   0  0  2  0  0  3  0  0  0  0  0  0
   49.3960   32.2860   42.2230 C   0  0  2  0  0  3  0  0  0  0  0  0
   47.4400   32.0040   40.8900 O   0  0  0  0  0  0  0  0  0  0  0  0
   47.6640   31.0810   40.6460 H   0  0  0  0  0  0  0  0  0  0  0  0
   51.3860   33.5710   42.4960 O   0  0  0  0  0  0  0  0  0  0  0  0
   51.8050   32.7160   42.2130 H   0  0  0  0  0  0  0  0  0  0  0  0
   49.8250   31.3990   41.2260 O   0  0  0  0  0  0  0  0  0  0  0  0
   49.6010   31.6860   40.3200 H   0  0  0  0  0  0  0  0  0  0  0  0
   45.1820   32.8290   45.2830 O   0  0  0  0  0  0  0  0  0  0  0  0
   45.1680   32.3140   47.8520 O   0  0  0  0  0  0  0  0  0  0  0  0
   45.9960   32.3130   46.6210 P   0  0  2  0  0  0  0  0  0  0  0  0
   47.2630   33.3910   46.9050 O   0  0  0  0  0  0  0  0  0  0  0  0
   46.8550   34.2160   47.2780 H   0  0  0  0  0  0  0  0  0  0  0  0
   46.6710   30.7520   46.3510 O   0  0  0  0  0  0  0  0  0  0  0  0
   44.9230   29.3220   45.6690 C   0  0  0  0  0  0  0  0  0  0  0  0
   45.9360   29.6020   46.5590 C   0  0  0  0  0  0  0  0  0  0  0  0
   46.1710   28.7070   47.6320 C   0  0  0  0  0  0  0  0  0  0  0  0
   45.3720   27.6150   47.7160 N   0  0  0  0  0  0  0  0  0  0  0  0
   44.4120   27.3810   46.8460 C   0  0  0  0  0  0  0  0  0  0  0  0
   44.1920   28.2450   45.8180 N   0  0  0  0  0  0  0  0  0  0  0  0
   45.0710   29.8760   43.2500 C   0  0  0  0  0  0  0  0  0  0  0  0
   46.2760   29.4440   43.1400 O   0  0  0  0  0  0  0  0  0  0  0  0
   44.3120   29.8550   44.5040 N   0  0  0  0  0  0  0  0  0  0  0  0
   46.9650   28.9460   48.3110 H   0  0  0  0  0  0  0  0  0  0  0  0
   43.7360   26.5250   46.8550 H   0  0  0  0  0  0  0  0  0  0  0  0
   44.6900   30.2500   42.3200 H   0  0  0  0  0  0  0  0  0  0  0  0
   43.3740   30.2540   44.4010 H   0  0  0  0  0  0  0  0  0  0  0  0
  1  7  1  1  0  0  0
  1 27  1  0  0  0  0
  2  1  1  0  0  0  0
  2  8  1  0  0  0  0
  3 10  1  0  0  0  0
  3 11  1  0  0  0  0
  3  2  1  0  0  0  0
  4  5  1  0  0  0  0
  4  3  1  0  0  0  0
  5 12  1  0  0  0  0
  5  6  1  0  0  0  0
  6 14  1  6  0  0  0
  6  1  1  0  0  0  0
  9  2  1  0  0  0  0
 13  5  1  0  0  0  0
 15 21  1  6  0  0  0
 15 20  1  0  0  0  0
 15 16  1  0  0  0  0
 16  6  1  0  0  0  0
 16 17  1  1  0  0  0
 18 17  1  0  0  0  0
 19 20  1  0  0  0  0
 19 23  1  1  0  0  0
 19 18  1  0  0  0  0
 20 25  1  6  0  0  0
 22 21  1  0  0  0  0
 24 23  1  0  0  0  0
 26 25  1  0  0  0  0
 27 29  1  0  0  0  0
 29 30  1  0  0  0  0
 29 28  2  1  0  0  0
 30 31  1  0  0  0  0
 32 34  1  0  0  0  0
 32 29  1  0  0  0  0
 33 38  2  0  0  0  0
 33 34  1  0  0  0  0
 34 35  2  0  0  0  0
 35 36  1  0  0  0  0
 35 42  1  0  0  0  0
 37 43  1  0  0  0  0
 37 36  2  0  0  0  0
 38 37  1  0  0  0  0
 39 41  1  0  0  0  0
 40 39  2  0  0  0  0
 41 33  1  0  0  0  0
 44 39  1  0  0  0  0
 45 41  1  0  0  0  0
M  END
>  <minimizedAffinity>
-5.74368811

>  <minimizedRMSD>
6.02794456

$$$$
