
 OpenBabel03252503413D

 24 25  0  0  1  0  0  0  0  0999 V2000
   44.4020   33.6520   42.7150 C   0  0  0  0  0  0  0  0  0  0  0  0
   44.4610   35.0120   42.4550 C   0  0  0  0  0  0  0  0  0  0  0  0
   43.6610   35.5290   41.4450 C   0  0  0  0  0  0  0  0  0  0  0  0
   42.8610   34.6850   40.7630 N   0  0  0  0  0  0  0  0  0  0  0  0
   42.8180   33.3550   41.0340 C   0  0  0  0  0  0  0  0  0  0  0  0
   43.5870   32.8190   42.0140 N   0  0  0  0  0  0  0  0  0  0  0  0
   45.0100   33.2080   43.4940 H   0  0  0  0  0  0  0  0  0  0  0  0
   43.7280   36.5930   41.2640 H   0  0  0  0  0  0  0  0  0  0  0  0
   41.5500   31.2010   41.0020 C   0  0  2  0  0  3  0  0  0  0  0  0
   41.9300   32.4880   40.2600 C   0  0  1  0  0  3  0  0  0  0  0  0
   40.6930   33.0750   39.9680 O   0  0  0  0  0  0  0  0  0  0  0  0
   40.2050   32.4130   38.8580 C   0  0  0  0  0  2  0  0  0  0  0  0
   40.0480   30.9320   39.0150 C   0  0  1  0  0  3  0  0  0  0  0  0
   41.0590   30.2690   39.8940 C   0  0  1  0  0  3  0  0  0  0  0  0
   40.4840   31.5000   41.8690 O   0  0  0  0  0  0  0  0  0  0  0  0
   40.7310   31.2860   42.8040 H   0  0  0  0  0  0  0  0  0  0  0  0
   38.7760   30.6670   39.5170 O   0  0  0  0  0  0  0  0  0  0  0  0
   38.1060   30.9580   38.8510 H   0  0  0  0  0  0  0  0  0  0  0  0
   42.1800   29.9640   39.1190 O   0  0  0  0  0  0  0  0  0  0  0  0
   42.0330   30.1340   38.1680 H   0  0  0  0  0  0  0  0  0  0  0  0
   45.3950   35.8050   43.2980 C   0  0  0  0  0  0  0  0  0  0  0  0
   44.8400   36.0940   44.2130 H   0  0  0  0  0  0  0  0  0  0  0  0
   45.6550   36.7150   42.6970 H   0  0  0  0  0  0  0  0  0  0  0  0
   46.2870   35.2080   43.4810 H   0  0  0  0  0  0  0  0  0  0  0  0
  1  7  1  0  0  0  0
  2  1  1  0  0  0  0
  2 21  1  0  0  0  0
  3  2  2  0  0  0  0
  4  5  2  0  0  0  0
  4  3  1  0  0  0  0
  5  6  1  0  0  0  0
  6  1  2  0  0  0  0
  8  3  1  0  0  0  0
  9 15  1  1  0  0  0
 10  9  1  0  0  0  0
 10  5  1  1  0  0  0
 11 10  1  0  0  0  0
 12 13  1  0  0  0  0
 12 11  1  0  0  0  0
 13 17  1  1  0  0  0
 13 14  1  0  0  0  0
 14 19  1  6  0  0  0
 14  9  1  0  0  0  0
 15 16  1  0  0  0  0
 18 17  1  0  0  0  0
 20 19  1  0  0  0  0
 21 24  1  0  0  0  0
 21 22  1  0  0  0  0
 23 21  1  0  0  0  0
M  END
>  <minimizedAffinity>
-3.3617847

>  <minimizedRMSD>
8.14170933

$$$$
