
 OpenBabel03242515233D

 24 25  0  0  1  0  0  0  0  0999 V2000
   43.8310   35.6800   41.4670 C   0  0  0  0  0  0  0  0  0  0  0  0
   44.5920   35.4470   40.6710 H   0  0  0  0  0  0  0  0  0  0  0  0
   43.7460   36.7640   41.5960 H   0  0  0  0  0  0  0  0  0  0  0  0
   44.3510   35.8720   43.8320 C   0  0  0  0  0  0  0  0  0  0  0  0
   44.3500   35.0460   42.6930 C   0  0  0  0  0  0  0  0  0  0  0  0
   44.8260   33.7520   42.8440 C   0  0  0  0  0  0  0  0  0  0  0  0
   45.2590   33.3620   44.0590 N   0  0  0  0  0  0  0  0  0  0  0  0
   45.2490   34.1730   45.1270 C   0  0  0  0  0  0  0  0  0  0  0  0
   44.7910   35.4580   45.0380 N   0  0  0  0  0  0  0  0  0  0  0  0
   44.0020   36.9120   43.8480 H   0  0  0  0  0  0  0  0  0  0  0  0
   44.8050   33.1540   41.9440 H   0  0  0  0  0  0  0  0  0  0  0  0
   45.6100   33.8040   46.0780 H   0  0  0  0  0  0  0  0  0  0  0  0
   42.5470   34.4770   39.7280 C   0  0  1  0  0  0  0  0  0  0  0  0
   42.4790   35.1290   41.0650 C   0  0  2  0  0  0  0  0  0  0  0  0
   41.4540   35.9890   41.2680 O   0  0  0  0  0  0  0  0  0  0  0  0
   40.2570   35.7140   40.7290 C   0  0  0  0  0  0  0  0  0  0  0  0
   40.1870   35.1010   39.3830 C   0  0  1  0  0  0  0  0  0  0  0  0
   41.2240   34.0150   39.2010 C   0  0  1  0  0  0  0  0  0  0  0  0
   43.0430   35.4550   38.8430 O   0  0  0  0  0  0  0  0  0  0  0  0
   43.3550   35.0520   38.0030 H   0  0  0  0  0  0  0  0  0  0  0  0
   38.9380   34.4940   39.2400 O   0  0  0  0  0  0  0  0  0  0  0  0
   38.2510   35.1140   38.9280 H   0  0  0  0  0  0  0  0  0  0  0  0
   41.2480   33.7240   37.8500 O   0  0  0  0  0  0  0  0  0  0  0  0
   40.7540   34.3540   37.3030 H   0  0  0  0  0  0  0  0  0  0  0  0
  1  3  1  0  0  0  0
  1  5  1  0  0  0  0
  2  1  1  0  0  0  0
  4 10  1  0  0  0  0
  4  9  1  0  0  0  0
  5  6  1  0  0  0  0
  5  4  2  0  0  0  0
  6  7  2  0  0  0  0
  7  8  1  0  0  0  0
  8 12  1  0  0  0  0
  9  8  2  0  0  0  0
 11  6  1  0  0  0  0
 13 19  1  6  0  0  0
 13 14  1  0  0  0  0
 14 15  1  0  0  0  0
 14  1  1  6  0  0  0
 16 15  1  0  0  0  0
 17 21  1  1  0  0  0
 17 16  1  0  0  0  0
 18 23  1  6  0  0  0
 18 17  1  0  0  0  0
 18 13  1  0  0  0  0
 20 19  1  0  0  0  0
 22 21  1  0  0  0  0
 24 23  1  0  0  0  0
M  END
>  <minimizedAffinity>
-5.21845293

>  <minimizedRMSD>
1.60431445

$$$$
