
 OpenBabel03252507093D

 27 28  0  0  1  0  0  0  0  0999 V2000
   38.6130   34.1040   40.2700 C   0  0  0  0  0  0  0  0  0  0  0  0
   39.8830   34.0410   39.6640 C   0  0  0  0  0  0  0  0  0  0  0  0
   40.5410   32.8170   39.6570 C   0  0  0  0  0  0  0  0  0  0  0  0
   39.9390   31.7280   40.2340 N   0  0  0  0  0  0  0  0  0  0  0  0
   38.7300   31.8280   40.8010 C   0  0  0  0  0  0  0  0  0  0  0  0
   38.0590   33.0050   40.8270 N   0  0  0  0  0  0  0  0  0  0  0  0
   38.1300   35.0650   40.2590 H   0  0  0  0  0  0  0  0  0  0  0  0
   40.3340   34.8980   39.2210 H   0  0  0  0  0  0  0  0  0  0  0  0
   37.7350   29.6790   40.3090 C   0  0  1  0  0  3  0  0  0  0  0  0
   38.1010   30.6410   41.4170 C   0  0  1  0  0  3  0  0  0  0  0  0
   38.9160   29.9850   42.3210 O   0  0  0  0  0  0  0  0  0  0  0  0
   38.1380   29.0100   42.9450 C   0  0  0  0  0  2  0  0  0  0  0  0
   37.7670   27.9140   41.9700 C   0  0  2  0  0  3  0  0  0  0  0  0
   36.9180   28.5390   40.8780 C   0  0  1  0  0  3  0  0  0  0  0  0
   37.0450   30.3270   39.2790 O   0  0  0  0  0  0  0  0  0  0  0  0
   36.4160   30.9980   39.6440 H   0  0  0  0  0  0  0  0  0  0  0  0
   37.0730   26.9260   42.6360 O   0  0  0  0  0  0  0  0  0  0  0  0
   36.3090   27.2940   43.1190 H   0  0  0  0  0  0  0  0  0  0  0  0
   35.7310   28.9530   41.4360 O   0  0  0  0  0  0  0  0  0  0  0  0
   35.5130   29.8990   41.3420 H   0  0  0  0  0  0  0  0  0  0  0  0
   41.7990   32.7830   39.0480 O   0  0  0  0  0  0  0  0  0  0  0  0
   42.8660   31.5830   36.9390 O   0  0  0  0  0  0  0  0  0  0  0  0
   41.8840   32.6700   37.3330 P   0  0  0  0  0  0  0  0  0  0  0  0
   40.3410   32.3630   36.7500 O   0  0  0  0  0  0  0  0  0  0  0  0
   39.8430   33.2180   36.7640 H   0  0  0  0  0  0  0  0  0  0  0  0
   42.4770   34.1470   36.7500 O   0  0  0  0  0  0  0  0  0  0  0  0
   41.7280   34.7000   36.3720 H   0  0  0  0  0  0  0  0  0  0  0  0
  1  6  1  0  0  0  0
  2  1  2  0  0  0  0
  3  2  1  0  0  0  0
  3  4  2  0  0  0  0
  4  5  1  0  0  0  0
  5  6  2  0  0  0  0
  7  1  1  0  0  0  0
  8  2  1  0  0  0  0
  9 15  1  6  0  0  0
  9 14  1  0  0  0  0
  9 10  1  0  0  0  0
 10  5  1  6  0  0  0
 10 11  1  0  0  0  0
 11 12  1  0  0  0  0
 13 17  1  1  0  0  0
 13 12  1  0  0  0  0
 14 19  1  1  0  0  0
 14 13  1  0  0  0  0
 15 16  1  0  0  0  0
 17 18  1  0  0  0  0
 20 19  1  0  0  0  0
 21  3  1  0  0  0  0
 22 23  2  0  0  0  0
 23 21  1  0  0  0  0
 24 25  1  0  0  0  0
 24 23  1  0  0  0  0
 26 23  1  0  0  0  0
 27 26  1  0  0  0  0
M  END
>  <minimizedAffinity>
-5.8823247

$$$$

 OpenBabel03252507093D

 27 28  0  0  1  0  0  0  0  0999 V2000
   40.2440   27.1130   43.5070 C   0  0  0  0  0  0  0  0  0  0  0  0
   39.9080   25.7530   43.3580 C   0  0  0  0  0  0  0  0  0  0  0  0
   38.8910   25.4290   42.4680 C   0  0  0  0  0  0  0  0  0  0  0  0
   38.2590   26.4310   41.7770 N   0  0  0  0  0  0  0  0  0  0  0  0
   38.6070   27.7120   41.9460 C   0  0  0  0  0  0  0  0  0  0  0  0
   39.5940   28.0660   42.8050 N   0  0  0  0  0  0  0  0  0  0  0  0
   41.0350   27.3320   44.2030 H   0  0  0  0  0  0  0  0  0  0  0  0
   40.4110   24.9900   43.9040 H   0  0  0  0  0  0  0  0  0  0  0  0
   37.4590   29.8290   42.1760 C   0  0  1  0  0  3  0  0  0  0  0  0
   37.9110   28.7750   41.1900 C   0  0  1  0  0  3  0  0  0  0  0  0
   38.6980   29.3780   40.2270 O   0  0  0  0  0  0  0  0  0  0  0  0
   37.8680   30.2200   39.4850 C   0  0  0  0  0  2  0  0  0  0  0  0
   37.4040   31.3920   40.3240 C   0  0  2  0  0  3  0  0  0  0  0  0
   36.5780   30.8370   41.4700 C   0  0  1  0  0  3  0  0  0  0  0  0
   36.7940   29.2560   43.2660 O   0  0  0  0  0  0  0  0  0  0  0  0
   36.2190   28.5060   42.9730 H   0  0  0  0  0  0  0  0  0  0  0  0
   36.6590   32.2470   39.5410 O   0  0  0  0  0  0  0  0  0  0  0  0
   35.9310   31.7740   39.0940 H   0  0  0  0  0  0  0  0  0  0  0  0
   35.4330   30.2810   40.9490 O   0  0  0  0  0  0  0  0  0  0  0  0
   35.2780   29.3390   41.1490 H   0  0  0  0  0  0  0  0  0  0  0  0
   38.5780   24.0730   42.3400 O   0  0  0  0  0  0  0  0  0  0  0  0
   36.3710   23.7680   40.9020 O   0  0  0  0  0  0  0  0  0  0  0  0
   37.8680   23.5240   40.8710 P   0  0  0  0  0  0  0  0  0  0  0  0
   38.6080   24.3270   39.5980 O   0  0  0  0  0  0  0  0  0  0  0  0
   39.4860   23.8960   39.4460 H   0  0  0  0  0  0  0  0  0  0  0  0
   38.1230   21.8510   40.7720 O   0  0  0  0  0  0  0  0  0  0  0  0
   38.8700   21.6480   40.1310 H   0  0  0  0  0  0  0  0  0  0  0  0
  1  7  1  0  0  0  0
  2  1  1  0  0  0  0
  2  8  1  0  0  0  0
  3  2  2  0  0  0  0
  4  5  2  0  0  0  0
  4  3  1  0  0  0  0
  5  6  1  0  0  0  0
  6  1  2  0  0  0  0
  9 15  1  1  0  0  0
 10  5  1  1  0  0  0
 10  9  1  0  0  0  0
 11 10  1  0  0  0  0
 12 11  1  0  0  0  0
 12 13  1  0  0  0  0
 13 17  1  6  0  0  0
 13 14  1  0  0  0  0
 14 19  1  6  0  0  0
 14  9  1  0  0  0  0
 16 15  1  0  0  0  0
 18 17  1  0  0  0  0
 19 20  1  0  0  0  0
 21  3  1  0  0  0  0
 23 22  2  0  0  0  0
 23 21  1  0  0  0  0
 24 23  1  0  0  0  0
 25 24  1  0  0  0  0
 26 23  1  0  0  0  0
 27 26  1  0  0  0  0
M  END
>  <minimizedAffinity>
-5.70336151

$$$$

 OpenBabel03252507093D

 27 28  0  0  1  0  0  0  0  0999 V2000
   37.0440   28.1060   43.5820 C   0  0  0  0  0  0  0  0  0  0  0  0
   36.8980   26.8130   43.0430 C   0  0  0  0  0  0  0  0  0  0  0  0
   37.1130   26.6490   41.6800 C   0  0  0  0  0  0  0  0  0  0  0  0
   37.4530   27.7370   40.9190 N   0  0  0  0  0  0  0  0  0  0  0  0
   37.5820   28.9510   41.4680 C   0  0  0  0  0  0  0  0  0  0  0  0
   37.3810   29.1490   42.7930 N   0  0  0  0  0  0  0  0  0  0  0  0
   36.8710   28.2000   44.6400 H   0  0  0  0  0  0  0  0  0  0  0  0
   36.6320   25.9800   43.6520 H   0  0  0  0  0  0  0  0  0  0  0  0
   37.1340   31.2970   41.0850 C   0  0  1  0  0  3  0  0  0  0  0  0
   37.9510   30.1100   40.6270 C   0  0  1  0  0  3  0  0  0  0  0  0
   39.2910   30.4420   40.6950 O   0  0  0  0  0  0  0  0  0  0  0  0
   39.5210   31.4210   39.7280 C   0  0  0  0  0  2  0  0  0  0  0  0
   38.8330   32.7170   40.1010 C   0  0  2  0  0  3  0  0  0  0  0  0
   37.3390   32.4520   40.1290 C   0  0  1  0  0  3  0  0  0  0  0  0
   35.7770   30.9700   41.1950 O   0  0  0  0  0  0  0  0  0  0  0  0
   35.4980   30.3720   40.4580 H   0  0  0  0  0  0  0  0  0  0  0  0
   39.1500   33.6850   39.1730 O   0  0  0  0  0  0  0  0  0  0  0  0
   38.9510   33.3850   38.2660 H   0  0  0  0  0  0  0  0  0  0  0  0
   36.9250   32.1710   38.8480 O   0  0  0  0  0  0  0  0  0  0  0  0
   36.4870   31.3100   38.7120 H   0  0  0  0  0  0  0  0  0  0  0  0
   36.9610   25.3550   41.1720 O   0  0  0  0  0  0  0  0  0  0  0  0
   38.0880   23.2700   39.9840 O   0  0  0  0  0  0  0  0  0  0  0  0
   38.3610   24.3690   40.9920 P   0  0  0  0  0  0  0  0  0  0  0  0
   39.6370   25.3500   40.5210 O   0  0  0  0  0  0  0  0  0  0  0  0
   39.9590   25.8270   41.3270 H   0  0  0  0  0  0  0  0  0  0  0  0
   38.6700   23.6400   42.4910 O   0  0  0  0  0  0  0  0  0  0  0  0
   39.4300   24.1040   42.9560 H   0  0  0  0  0  0  0  0  0  0  0  0
  1  7  1  0  0  0  0
  2  1  1  0  0  0  0
  2  8  1  0  0  0  0
  3  2  2  0  0  0  0
  4  5  2  0  0  0  0
  4  3  1  0  0  0  0
  5  6  1  0  0  0  0
  6  1  2  0  0  0  0
  9 15  1  6  0  0  0
 10 11  1  0  0  0  0
 10  9  1  0  0  0  0
 10  5  1  1  0  0  0
 12 13  1  0  0  0  0
 12 11  1  0  0  0  0
 13 17  1  6  0  0  0
 13 14  1  0  0  0  0
 14 19  1  6  0  0  0
 14  9  1  0  0  0  0
 16 15  1  0  0  0  0
 18 17  1  0  0  0  0
 20 19  1  0  0  0  0
 21  3  1  0  0  0  0
 22 23  2  0  0  0  0
 23 21  1  0  0  0  0
 23 26  1  0  0  0  0
 24 23  1  0  0  0  0
 24 25  1  0  0  0  0
 26 27  1  0  0  0  0
M  END
>  <minimizedAffinity>
-5.63275909

$$$$

 OpenBabel03252507093D

 27 28  0  0  1  0  0  0  0  0999 V2000
   41.7490   28.9470   36.6520 C   0  0  0  0  0  0  0  0  0  0  0  0
   42.9130   29.6770   36.3420 C   0  0  0  0  0  0  0  0  0  0  0  0
   43.0270   30.9650   36.8530 C   0  0  0  0  0  0  0  0  0  0  0  0
   42.0150   31.4720   37.6270 N   0  0  0  0  0  0  0  0  0  0  0  0
   40.9240   30.7460   37.8990 C   0  0  0  0  0  0  0  0  0  0  0  0
   40.7780   29.4870   37.4190 N   0  0  0  0  0  0  0  0  0  0  0  0
   41.6910   27.9530   36.2420 H   0  0  0  0  0  0  0  0  0  0  0  0
   43.6870   29.2660   35.7380 H   0  0  0  0  0  0  0  0  0  0  0  0
   38.6490   31.5660   37.8490 C   0  0  1  0  0  3  0  0  0  0  0  0
   39.8460   31.3130   38.7370 C   0  0  1  0  0  3  0  0  0  0  0  0
   39.4590   30.4890   39.7780 O   0  0  0  0  0  0  0  0  0  0  0  0
   38.5780   31.2210   40.5750 C   0  0  0  0  0  2  0  0  0  0  0  0
   37.2770   31.4750   39.8440 C   0  0  2  0  0  3  0  0  0  0  0  0
   37.5930   32.3230   38.6260 C   0  0  1  0  0  3  0  0  0  0  0  0
   39.0130   32.2600   36.6890 O   0  0  0  0  0  0  0  0  0  0  0  0
   39.6940   32.9490   36.8890 H   0  0  0  0  0  0  0  0  0  0  0  0
   36.3990   32.1230   40.6870 O   0  0  0  0  0  0  0  0  0  0  0  0
   36.8000   32.9290   41.0640 H   0  0  0  0  0  0  0  0  0  0  0  0
   38.0210   33.5570   39.0560 O   0  0  0  0  0  0  0  0  0  0  0  0
   38.9070   33.8370   38.7590 H   0  0  0  0  0  0  0  0  0  0  0  0
   44.1910   31.6670   36.5300 O   0  0  0  0  0  0  0  0  0  0  0  0
   44.5390   33.1170   38.7230 O   0  0  0  0  0  0  0  0  0  0  0  0
   44.4300   33.2290   37.2140 P   0  0  0  0  0  0  0  0  0  0  0  0
   45.8110   33.8940   36.5330 O   0  0  0  0  0  0  0  0  0  0  0  0
   45.5690   34.2220   35.6300 H   0  0  0  0  0  0  0  0  0  0  0  0
   43.0600   34.1610   36.8560 O   0  0  0  0  0  0  0  0  0  0  0  0
   43.2560   34.7960   36.1020 H   0  0  0  0  0  0  0  0  0  0  0  0
  1  6  1  0  0  0  0
  2  1  2  0  0  0  0
  2  3  1  0  0  0  0
  3  4  2  0  0  0  0
  4  5  1  0  0  0  0
  6  5  2  0  0  0  0
  7  1  1  0  0  0  0
  8  2  1  0  0  0  0
  9 15  1  6  0  0  0
  9 14  1  0  0  0  0
  9 10  1  0  0  0  0
 10  5  1  6  0  0  0
 10 11  1  0  0  0  0
 11 12  1  0  0  0  0
 13 12  1  0  0  0  0
 13 17  1  1  0  0  0
 14 19  1  1  0  0  0
 14 13  1  0  0  0  0
 15 16  1  0  0  0  0
 17 18  1  0  0  0  0
 20 19  1  0  0  0  0
 21  3  1  0  0  0  0
 21 23  1  0  0  0  0
 23 22  2  0  0  0  0
 24 23  1  0  0  0  0
 25 24  1  0  0  0  0
 26 23  1  0  0  0  0
 27 26  1  0  0  0  0
M  END
>  <minimizedAffinity>
-5.6113553

$$$$

 OpenBabel03252507093D

 27 28  0  0  1  0  0  0  0  0999 V2000
   36.5130   25.2860   39.1890 C   0  0  0  0  0  0  0  0  0  0  0  0
   37.6710   24.7310   39.7670 C   0  0  0  0  0  0  0  0  0  0  0  0
   38.5560   25.5920   40.4040 C   0  0  0  0  0  0  0  0  0  0  0  0
   38.2750   26.9330   40.4470 N   0  0  0  0  0  0  0  0  0  0  0  0
   37.1630   27.4230   39.8850 C   0  0  0  0  0  0  0  0  0  0  0  0
   36.2770   26.6140   39.2550 N   0  0  0  0  0  0  0  0  0  0  0  0
   35.8480   24.5930   38.7030 H   0  0  0  0  0  0  0  0  0  0  0  0
   37.8720   23.6860   39.7230 H   0  0  0  0  0  0  0  0  0  0  0  0
   37.3140   29.3790   41.3010 C   0  0  1  0  0  3  0  0  0  0  0  0
   36.8800   28.8730   39.9430 C   0  0  1  0  0  3  0  0  0  0  0  0
   37.5320   29.6060   38.9690 O   0  0  0  0  0  0  0  0  0  0  0  0
   37.0360   30.9090   39.0330 C   0  0  0  0  0  2  0  0  0  0  0  0
   37.4730   31.5870   40.3140 C   0  0  2  0  0  3  0  0  0  0  0  0
   36.8670   30.8150   41.4720 C   0  0  1  0  0  3  0  0  0  0  0  0
   36.8140   28.5710   42.3280 O   0  0  0  0  0  0  0  0  0  0  0  0
   35.8910   28.2780   42.1300 H   0  0  0  0  0  0  0  0  0  0  0  0
   37.0410   32.8960   40.3080 O   0  0  0  0  0  0  0  0  0  0  0  0
   36.0800   32.9500   40.1450 H   0  0  0  0  0  0  0  0  0  0  0  0
   35.5010   30.9640   41.4240 O   0  0  0  0  0  0  0  0  0  0  0  0
   34.9770   30.1440   41.3620 H   0  0  0  0  0  0  0  0  0  0  0  0
   39.6970   25.0150   40.9690 O   0  0  0  0  0  0  0  0  0  0  0  0
   41.3860   25.4530   42.9660 O   0  0  0  0  0  0  0  0  0  0  0  0
   39.9310   25.1410   42.6700 P   0  0  0  0  0  0  0  0  0  0  0  0
   38.9030   26.3310   43.2540 O   0  0  0  0  0  0  0  0  0  0  0  0
   37.9970   25.9380   43.3120 H   0  0  0  0  0  0  0  0  0  0  0  0
   39.5710   23.6310   43.3510 O   0  0  0  0  0  0  0  0  0  0  0  0
   38.6630   23.6490   43.7820 H   0  0  0  0  0  0  0  0  0  0  0  0
  1  6  2  0  0  0  0
  1  2  1  0  0  0  0
  2  3  2  0  0  0  0
  3  4  1  0  0  0  0
  3 21  1  0  0  0  0
  5  4  2  0  0  0  0
  6  5  1  0  0  0  0
  7  1  1  0  0  0  0
  8  2  1  0  0  0  0
  9 14  1  0  0  0  0
  9 15  1  1  0  0  0
 10  5  1  1  0  0  0
 10  9  1  0  0  0  0
 11 12  1  0  0  0  0
 11 10  1  0  0  0  0
 12 13  1  0  0  0  0
 13 17  1  6  0  0  0
 13 14  1  0  0  0  0
 14 19  1  6  0  0  0
 16 15  1  0  0  0  0
 18 17  1  0  0  0  0
 20 19  1  0  0  0  0
 21 23  1  0  0  0  0
 23 22  2  0  0  0  0
 23 24  1  0  0  0  0
 23 26  1  0  0  0  0
 24 25  1  0  0  0  0
 26 27  1  0  0  0  0
M  END
>  <minimizedAffinity>
-5.55200672

$$$$

 OpenBabel03252507093D

 27 28  0  0  1  0  0  0  0  0999 V2000
   40.8160   34.1610   39.9580 C   0  0  0  0  0  0  0  0  0  0  0  0
   41.3320   33.7600   38.7100 C   0  0  0  0  0  0  0  0  0  0  0  0
   40.8780   32.5620   38.1730 C   0  0  0  0  0  0  0  0  0  0  0  0
   39.9570   31.8210   38.8690 N   0  0  0  0  0  0  0  0  0  0  0  0
   39.4900   32.2360   40.0530 C   0  0  0  0  0  0  0  0  0  0  0  0
   39.9100   33.3990   40.6070 N   0  0  0  0  0  0  0  0  0  0  0  0
   41.1870   35.0940   40.3460 H   0  0  0  0  0  0  0  0  0  0  0  0
   42.0470   34.3500   38.1850 H   0  0  0  0  0  0  0  0  0  0  0  0
   37.4410   30.9760   39.7980 C   0  0  1  0  0  3  0  0  0  0  0  0
   38.4970   31.4210   40.7840 C   0  0  1  0  0  3  0  0  0  0  0  0
   39.0360   30.3010   41.3900 O   0  0  0  0  0  0  0  0  0  0  0  0
   38.0330   29.7380   42.1800 C   0  0  0  0  0  2  0  0  0  0  0  0
   36.9320   29.1580   41.3170 C   0  0  2  0  0  3  0  0  0  0  0  0
   36.3070   30.3020   40.5410 C   0  0  1  0  0  3  0  0  0  0  0  0
   36.9720   32.0520   39.0350 O   0  0  0  0  0  0  0  0  0  0  0  0
   36.8880   32.8680   39.5890 H   0  0  0  0  0  0  0  0  0  0  0  0
   36.0010   28.5360   42.1220 O   0  0  0  0  0  0  0  0  0  0  0  0
   35.6760   29.1380   42.8180 H   0  0  0  0  0  0  0  0  0  0  0  0
   35.6750   31.1370   41.4320 O   0  0  0  0  0  0  0  0  0  0  0  0
   35.9660   32.0680   41.4370 H   0  0  0  0  0  0  0  0  0  0  0  0
   41.4060   32.1880   36.9340 O   0  0  0  0  0  0  0  0  0  0  0  0
   42.5780   30.0650   35.8630 O   0  0  0  0  0  0  0  0  0  0  0  0
   42.7800   31.1520   36.9000 P   0  0  0  0  0  0  0  0  0  0  0  0
   44.1340   32.0870   36.5730 O   0  0  0  0  0  0  0  0  0  0  0  0
   44.3850   32.5500   37.4110 H   0  0  0  0  0  0  0  0  0  0  0  0
   42.9010   30.4100   38.4200 O   0  0  0  0  0  0  0  0  0  0  0  0
   43.6230   30.8460   38.9660 H   0  0  0  0  0  0  0  0  0  0  0  0
  1  7  1  0  0  0  0
  1  6  1  0  0  0  0
  2  1  2  0  0  0  0
  3  2  1  0  0  0  0
  3  4  2  0  0  0  0
  4  5  1  0  0  0  0
  5  6  2  0  0  0  0
  8  2  1  0  0  0  0
  9 15  1  1  0  0  0
  9 14  1  0  0  0  0
  9 10  1  0  0  0  0
 10  5  1  6  0  0  0
 10 11  1  0  0  0  0
 11 12  1  0  0  0  0
 13 17  1  1  0  0  0
 13 12  1  0  0  0  0
 14 13  1  0  0  0  0
 14 19  1  1  0  0  0
 15 16  1  0  0  0  0
 17 18  1  0  0  0  0
 19 20  1  0  0  0  0
 21  3  1  0  0  0  0
 22 23  2  0  0  0  0
 23 21  1  0  0  0  0
 23 26  1  0  0  0  0
 24 23  1  0  0  0  0
 24 25  1  0  0  0  0
 26 27  1  0  0  0  0
M  END
>  <minimizedAffinity>
-5.53707123

$$$$

 OpenBabel03252507093D

 27 28  0  0  1  0  0  0  0  0999 V2000
   35.1430   29.4080   39.8760 C   0  0  0  0  0  0  0  0  0  0  0  0
   34.8380   28.9900   38.5650 C   0  0  0  0  0  0  0  0  0  0  0  0
   35.7010   29.3700   37.5450 C   0  0  0  0  0  0  0  0  0  0  0  0
   36.8040   30.1280   37.8450 N   0  0  0  0  0  0  0  0  0  0  0  0
   37.0590   30.5050   39.1040 C   0  0  0  0  0  0  0  0  0  0  0  0
   36.2400   30.1540   40.1250 N   0  0  0  0  0  0  0  0  0  0  0  0
   34.4550   29.0970   40.6430 H   0  0  0  0  0  0  0  0  0  0  0  0
   33.9760   28.4020   38.3530 H   0  0  0  0  0  0  0  0  0  0  0  0
   37.8600   32.3690   40.4220 C   0  0  1  0  0  3  0  0  0  0  0  0
   38.2550   31.3230   39.4040 C   0  0  1  0  0  3  0  0  0  0  0  0
   39.3150   30.5920   39.9080 O   0  0  0  0  0  0  0  0  0  0  0  0
   40.4120   31.4520   39.9710 C   0  0  0  0  0  2  0  0  0  0  0  0
   40.2020   32.5140   41.0290 C   0  0  2  0  0  3  0  0  0  0  0  0
   39.0020   33.3440   40.6130 C   0  0  1  0  0  3  0  0  0  0  0  0
   36.6890   33.0340   40.0420 O   0  0  0  0  0  0  0  0  0  0  0  0
   36.6760   33.1960   39.0660 H   0  0  0  0  0  0  0  0  0  0  0  0
   41.3360   33.2920   41.1260 O   0  0  0  0  0  0  0  0  0  0  0  0
   41.5940   33.6520   40.2560 H   0  0  0  0  0  0  0  0  0  0  0  0
   39.3250   34.0270   39.4640 O   0  0  0  0  0  0  0  0  0  0  0  0
   38.7520   33.8710   38.6900 H   0  0  0  0  0  0  0  0  0  0  0  0
   35.3750   28.9420   36.2550 O   0  0  0  0  0  0  0  0  0  0  0  0
   35.9690   28.6290   33.6900 O   0  0  0  0  0  0  0  0  0  0  0  0
   36.5070   29.2050   34.9860 P   0  0  0  0  0  0  0  0  0  0  0  0
   36.7910   30.8540   34.8690 O   0  0  0  0  0  0  0  0  0  0  0  0
   37.4100   31.1020   35.6010 H   0  0  0  0  0  0  0  0  0  0  0  0
   37.9260   28.3660   35.3820 O   0  0  0  0  0  0  0  0  0  0  0  0
   38.6240   29.0020   35.7260 H   0  0  0  0  0  0  0  0  0  0  0  0
  1  6  1  0  0  0  0
  1  7  1  0  0  0  0
  2  1  2  0  0  0  0
  3  4  2  0  0  0  0
  3  2  1  0  0  0  0
  4  5  1  0  0  0  0
  5  6  2  0  0  0  0
  8  2  1  0  0  0  0
  9 15  1  6  0  0  0
  9 14  1  0  0  0  0
 10  5  1  1  0  0  0
 10 11  1  0  0  0  0
 10  9  1  0  0  0  0
 11 12  1  0  0  0  0
 12 13  1  0  0  0  0
 13 17  1  6  0  0  0
 14 19  1  6  0  0  0
 14 13  1  0  0  0  0
 16 15  1  0  0  0  0
 18 17  1  0  0  0  0
 20 19  1  0  0  0  0
 21  3  1  0  0  0  0
 22 23  2  0  0  0  0
 23 26  1  0  0  0  0
 23 21  1  0  0  0  0
 24 23  1  0  0  0  0
 24 25  1  0  0  0  0
 26 27  1  0  0  0  0
M  END
>  <minimizedAffinity>
-5.5223794

$$$$

 OpenBabel03252507093D

 27 28  0  0  1  0  0  0  0  0999 V2000
   37.4550   28.7470   43.1130 C   0  0  0  0  0  0  0  0  0  0  0  0
   38.5030   27.9040   43.5310 C   0  0  0  0  0  0  0  0  0  0  0  0
   39.6680   27.8900   42.7730 C   0  0  0  0  0  0  0  0  0  0  0  0
   39.7550   28.6880   41.6610 N   0  0  0  0  0  0  0  0  0  0  0  0
   38.7360   29.4760   41.2960 C   0  0  0  0  0  0  0  0  0  0  0  0
   37.5850   29.5150   42.0100 N   0  0  0  0  0  0  0  0  0  0  0  0
   36.5670   28.7350   43.7210 H   0  0  0  0  0  0  0  0  0  0  0  0
   38.4160   27.2920   44.3980 H   0  0  0  0  0  0  0  0  0  0  0  0
   39.8770   31.4020   40.3790 C   0  0  1  0  0  3  0  0  0  0  0  0
   38.8520   30.3270   40.0930 C   0  0  1  0  0  3  0  0  0  0  0  0
   39.2400   29.6370   38.9590 O   0  0  0  0  0  0  0  0  0  0  0  0
   39.1330   30.5190   37.8840 C   0  0  0  0  0  2  0  0  0  0  0  0
   40.1720   31.6150   37.9830 C   0  0  2  0  0  3  0  0  0  0  0  0
   39.8860   32.4060   39.2460 C   0  0  1  0  0  3  0  0  0  0  0  0
   39.6280   32.0300   41.6050 O   0  0  0  0  0  0  0  0  0  0  0  0
   38.6570   32.1550   41.7460 H   0  0  0  0  0  0  0  0  0  0  0  0
   40.0960   32.4190   36.8650 O   0  0  0  0  0  0  0  0  0  0  0  0
   39.1890   32.7520   36.7290 H   0  0  0  0  0  0  0  0  0  0  0  0
   38.6820   33.0520   39.0890 O   0  0  0  0  0  0  0  0  0  0  0  0
   37.9950   32.8570   39.7520 H   0  0  0  0  0  0  0  0  0  0  0  0
   40.6920   27.0450   43.2100 O   0  0  0  0  0  0  0  0  0  0  0  0
   39.6700   24.6040   43.3770 O   0  0  0  0  0  0  0  0  0  0  0  0
   40.7180   25.4190   42.6450 P   0  0  0  0  0  0  0  0  0  0  0  0
   40.4560   25.4360   40.9880 O   0  0  0  0  0  0  0  0  0  0  0  0
   41.3050   25.7010   40.5550 H   0  0  0  0  0  0  0  0  0  0  0  0
   42.2400   24.7710   43.0170 O   0  0  0  0  0  0  0  0  0  0  0  0
   42.8200   24.7450   42.1970 H   0  0  0  0  0  0  0  0  0  0  0  0
  1  2  1  0  0  0  0
  1  7  1  0  0  0  0
  2  8  1  0  0  0  0
  3 21  1  0  0  0  0
  3  2  2  0  0  0  0
  4  3  1  0  0  0  0
  5  4  2  0  0  0  0
  5  6  1  0  0  0  0
  6  1  2  0  0  0  0
  9 15  1  1  0  0  0
 10  9  1  0  0  0  0
 10  5  1  1  0  0  0
 11 10  1  0  0  0  0
 12 13  1  0  0  0  0
 12 11  1  0  0  0  0
 13 17  1  6  0  0  0
 13 14  1  0  0  0  0
 14 19  1  6  0  0  0
 14  9  1  0  0  0  0
 15 16  1  0  0  0  0
 18 17  1  0  0  0  0
 19 20  1  0  0  0  0
 23 26  1  0  0  0  0
 23 21  1  0  0  0  0
 23 22  2  0  0  0  0
 24 23  1  0  0  0  0
 25 24  1  0  0  0  0
 27 26  1  0  0  0  0
M  END
>  <minimizedAffinity>
-5.48749828

$$$$

 OpenBabel03252507093D

 27 28  0  0  1  0  0  0  0  0999 V2000
   38.0240   29.2190   43.2170 C   0  0  0  0  0  0  0  0  0  0  0  0
   37.8910   27.8200   43.3160 C   0  0  0  0  0  0  0  0  0  0  0  0
   38.1260   27.0610   42.1760 C   0  0  0  0  0  0  0  0  0  0  0  0
   38.4740   27.6930   41.0100 N   0  0  0  0  0  0  0  0  0  0  0  0
   38.5900   29.0260   40.9550 C   0  0  0  0  0  0  0  0  0  0  0  0
   38.3680   29.7970   42.0460 N   0  0  0  0  0  0  0  0  0  0  0  0
   37.8360   29.7770   44.1170 H   0  0  0  0  0  0  0  0  0  0  0  0
   37.6200   27.3480   44.2320 H   0  0  0  0  0  0  0  0  0  0  0  0
   37.7700   30.4690   39.1950 C   0  0  1  0  0  3  0  0  0  0  0  0
   38.9660   29.6850   39.6860 C   0  0  1  0  0  3  0  0  0  0  0  0
   40.0410   30.5460   39.8040 O   0  0  0  0  0  0  0  0  0  0  0  0
   40.3900   30.9490   38.5150 C   0  0  0  0  0  2  0  0  0  0  0  0
   39.3140   31.8320   37.9190 C   0  0  2  0  0  3  0  0  0  0  0  0
   38.0490   31.0020   37.8060 C   0  0  1  0  0  3  0  0  0  0  0  0
   36.6080   29.6880   39.2100 O   0  0  0  0  0  0  0  0  0  0  0  0
   36.8020   28.7610   38.9250 H   0  0  0  0  0  0  0  0  0  0  0  0
   39.7260   32.2810   36.6820 O   0  0  0  0  0  0  0  0  0  0  0  0
   39.9870   31.5390   36.1040 H   0  0  0  0  0  0  0  0  0  0  0  0
   38.2640   30.0070   36.8810 O   0  0  0  0  0  0  0  0  0  0  0  0
   38.1420   29.0910   37.1920 H   0  0  0  0  0  0  0  0  0  0  0  0
   37.9870   25.6760   42.3030 O   0  0  0  0  0  0  0  0  0  0  0  0
   38.9450   23.7400   40.7670 O   0  0  0  0  0  0  0  0  0  0  0  0
   39.3260   24.6720   41.9010 P   0  0  0  0  0  0  0  0  0  0  0  0
   40.6200   25.6590   41.4960 O   0  0  0  0  0  0  0  0  0  0  0  0
   41.0090   26.0010   42.3390 H   0  0  0  0  0  0  0  0  0  0  0  0
   39.6810   23.7230   43.2600 O   0  0  0  0  0  0  0  0  0  0  0  0
   40.4870   24.0850   43.7390 H   0  0  0  0  0  0  0  0  0  0  0  0
  1  2  1  0  0  0  0
  1  7  1  0  0  0  0
  2  8  1  0  0  0  0
  3 21  1  0  0  0  0
  3  2  2  0  0  0  0
  4  3  1  0  0  0  0
  5  4  2  0  0  0  0
  5  6  1  0  0  0  0
  6  1  2  0  0  0  0
  9 15  1  6  0  0  0
  9 10  1  0  0  0  0
 10 11  1  0  0  0  0
 10  5  1  1  0  0  0
 12 11  1  0  0  0  0
 13 17  1  6  0  0  0
 13 12  1  0  0  0  0
 14 19  1  6  0  0  0
 14 13  1  0  0  0  0
 14  9  1  0  0  0  0
 16 15  1  0  0  0  0
 18 17  1  0  0  0  0
 19 20  1  0  0  0  0
 22 23  2  0  0  0  0
 23 21  1  0  0  0  0
 23 26  1  0  0  0  0
 24 23  1  0  0  0  0
 24 25  1  0  0  0  0
 26 27  1  0  0  0  0
M  END
>  <minimizedAffinity>
-5.31697369

$$$$
