
 OpenBabel03242522043D

 38 40  0  0  1  0  0  0  0  0999 V2000
   37.6580   32.9020   39.8890 C   0  0  0  0  0  0  0  0  0  0  0  0
   37.4450   31.5620   40.2060 C   0  0  0  0  0  0  0  0  0  0  0  0
   38.5410   30.6990   40.3510 C   0  0  0  0  0  0  0  0  0  0  0  0
   39.7660   31.2600   40.1640 N   0  0  0  0  0  0  0  0  0  0  0  0
   39.9490   32.5530   39.8590 C   0  0  0  0  0  0  0  0  0  0  0  0
   38.8840   33.3820   39.7200 N   0  0  0  0  0  0  0  0  0  0  0  0
   36.7680   33.4930   39.7960 H   0  0  0  0  0  0  0  0  0  0  0  0
   36.4780   31.1310   40.3510 H   0  0  0  0  0  0  0  0  0  0  0  0
   38.4380   29.3280   40.6700 N   0  0  0  0  0  0  0  0  0  0  0  0
   39.6390   28.5080   40.8080 C   0  0  0  0  0  0  0  0  0  0  0  0
   39.3580   27.0540   40.6250 C   0  0  0  0  0  0  0  0  0  0  0  0
   38.2700   26.5630   41.3980 N   0  0  0  0  0  0  0  0  0  0  0  0
   37.1760   27.4360   41.6020 C   0  0  2  0  0  0  0  0  0  0  0  0
   37.1670   28.7160   40.8650 C   0  0  0  0  0  0  0  0  0  0  0  0
   40.3340   28.8270   39.9800 H   0  0  0  0  0  0  0  0  0  0  0  0
   40.1550   28.7120   41.7590 H   0  0  0  0  0  0  0  0  0  0  0  0
   40.2780   26.5100   40.9890 H   0  0  0  0  0  0  0  0  0  0  0  0
   39.2630   26.7700   39.5580 H   0  0  0  0  0  0  0  0  0  0  0  0
   38.5330   26.0240   42.2530 H   0  0  0  0  0  0  0  0  0  0  0  0
   36.2460   26.8650   41.3600 H   0  0  0  0  0  0  0  0  0  0  0  0
   36.6560   28.5350   39.8790 H   0  0  0  0  0  0  0  0  0  0  0  0
   36.5140   29.4430   41.4140 H   0  0  0  0  0  0  0  0  0  0  0  0
   37.0870   27.7610   43.0920 C   0  0  0  0  0  0  0  0  0  0  0  0
   37.1720   29.1380   43.2770 F   0  0  0  0  0  0  0  0  0  0  0  0
   38.2220   27.2330   43.6650 F   0  0  0  0  0  0  0  0  0  0  0  0
   35.9380   27.3230   43.6740 F   0  0  0  0  0  0  0  0  0  0  0  0
   41.4000   33.7600   38.3530 C   0  0  1  0  0  3  0  0  0  0  0  0
   41.3350   33.0660   39.6760 C   0  0  2  0  0  3  0  0  0  0  0  0
   42.2760   32.0830   39.8750 O   0  0  0  0  0  0  0  0  0  0  0  0
   42.9240   31.6820   38.7310 C   0  0  0  0  0  2  0  0  0  0  0  0
   43.6740   32.7660   38.0200 C   0  0  2  0  0  3  0  0  0  0  0  0
   42.8100   33.9810   37.8690 C   0  0  1  0  0  3  0  0  0  0  0  0
   40.5920   33.1160   37.4220 O   0  0  0  0  0  0  0  0  0  0  0  0
   40.0200   33.7600   36.9240 H   0  0  0  0  0  0  0  0  0  0  0  0
   43.9990   32.2570   36.7490 O   0  0  0  0  0  0  0  0  0  0  0  0
   43.1860   32.0480   36.2280 H   0  0  0  0  0  0  0  0  0  0  0  0
   42.7310   34.3420   36.5240 O   0  0  0  0  0  0  0  0  0  0  0  0
   41.9140   34.8840   36.3800 H   0  0  0  0  0  0  0  0  0  0  0  0
  1  2  1  0  0  0  0
  2  3  2  0  0  0  0
  2  8  1  0  0  0  0
  3  9  1  0  0  0  0
  4  3  1  0  0  0  0
  5  4  2  0  0  0  0
  6  5  1  0  0  0  0
  6  1  2  0  0  0  0
  7  1  1  0  0  0  0
  9 10  1  0  0  0  0
  9 14  1  0  0  0  0
 10 16  1  0  0  0  0
 11 10  1  0  0  0  0
 11 17  1  0  0  0  0
 11 12  1  0  0  0  0
 12 13  1  0  0  0  0
 12 19  1  0  0  0  0
 13 20  1  6  0  0  0
 13 23  1  0  0  0  0
 14 22  1  0  0  0  0
 14 13  1  0  0  0  0
 15 10  1  0  0  0  0
 18 11  1  0  0  0  0
 21 14  1  0  0  0  0
 23 24  1  0  0  0  0
 23 25  1  0  0  0  0
 23 26  1  0  0  0  0
 27 33  1  6  0  0  0
 27 28  1  0  0  0  0
 28  5  1  6  0  0  0
 28 29  1  0  0  0  0
 30 29  1  0  0  0  0
 31 35  1  6  0  0  0
 31 30  1  0  0  0  0
 32 37  1  6  0  0  0
 32 31  1  0  0  0  0
 32 27  1  0  0  0  0
 34 33  1  0  0  0  0
 36 35  1  0  0  0  0
 38 37  1  0  0  0  0
M  END
>  <minimizedAffinity>
-7.06764793

$$$$

 OpenBabel03242522043D

 38 40  0  0  1  0  0  0  0  0999 V2000
   37.7460   32.9270   40.1760 C   0  0  0  0  0  0  0  0  0  0  0  0
   37.6550   31.6280   40.6740 C   0  0  0  0  0  0  0  0  0  0  0  0
   38.8230   30.8820   40.8860 C   0  0  0  0  0  0  0  0  0  0  0  0
   39.9910   31.5080   40.5800 N   0  0  0  0  0  0  0  0  0  0  0  0
   40.0560   32.7590   40.1020 C   0  0  0  0  0  0  0  0  0  0  0  0
   38.9220   33.4760   39.8980 N   0  0  0  0  0  0  0  0  0  0  0  0
   36.8060   33.4270   40.0430 H   0  0  0  0  0  0  0  0  0  0  0  0
   36.7310   31.1450   40.9120 H   0  0  0  0  0  0  0  0  0  0  0  0
   38.8450   29.5620   41.3850 N   0  0  0  0  0  0  0  0  0  0  0  0
   38.8670   29.3150   42.8240 C   0  0  0  0  0  0  0  0  0  0  0  0
   39.4020   27.9630   43.1600 C   0  0  0  0  0  0  0  0  0  0  0  0
   38.8060   26.8960   42.4330 N   0  0  0  0  0  0  0  0  0  0  0  0
   38.4360   27.1550   41.0920 C   0  0  2  0  0  0  0  0  0  0  0  0
   38.8450   28.4450   40.5000 C   0  0  0  0  0  0  0  0  0  0  0  0
   39.5700   30.0780   43.2630 H   0  0  0  0  0  0  0  0  0  0  0  0
   37.8780   29.4910   43.2750 H   0  0  0  0  0  0  0  0  0  0  0  0
   39.1490   27.7880   44.2470 H   0  0  0  0  0  0  0  0  0  0  0  0
   40.5080   27.9200   43.1170 H   0  0  0  0  0  0  0  0  0  0  0  0
   38.0970   26.3360   42.9550 H   0  0  0  0  0  0  0  0  0  0  0  0
   38.8390   26.3200   40.4680 H   0  0  0  0  0  0  0  0  0  0  0  0
   39.8620   28.3000   40.0420 H   0  0  0  0  0  0  0  0  0  0  0  0
   38.1610   28.6820   39.6450 H   0  0  0  0  0  0  0  0  0  0  0  0
   36.9160   27.0590   40.9820 C   0  0  0  0  0  0  0  0  0  0  0  0
   36.3330   27.4550   42.1820 F   0  0  0  0  0  0  0  0  0  0  0  0
   36.6290   25.7180   40.8470 F   0  0  0  0  0  0  0  0  0  0  0  0
   36.3960   27.8220   39.9830 F   0  0  0  0  0  0  0  0  0  0  0  0
   41.3490   33.8870   38.4020 C   0  0  1  0  0  3  0  0  0  0  0  0
   41.3880   33.3520   39.7980 C   0  0  2  0  0  3  0  0  0  0  0  0
   42.4130   32.4740   40.0670 O   0  0  0  0  0  0  0  0  0  0  0  0
   43.0490   31.9920   38.9490 C   0  0  0  0  0  2  0  0  0  0  0  0
   43.6830   33.0370   38.0840 C   0  0  2  0  0  3  0  0  0  0  0  0
   42.7180   34.1560   37.8330 C   0  0  1  0  0  3  0  0  0  0  0  0
   40.5640   33.0770   37.5890 O   0  0  0  0  0  0  0  0  0  0  0  0
   39.9230   33.6110   37.0460 H   0  0  0  0  0  0  0  0  0  0  0  0
   44.0030   32.4080   36.8680 O   0  0  0  0  0  0  0  0  0  0  0  0
   43.1920   32.0770   36.4110 H   0  0  0  0  0  0  0  0  0  0  0  0
   42.5630   34.3480   36.4610 O   0  0  0  0  0  0  0  0  0  0  0  0
   41.6990   34.8050   36.2910 H   0  0  0  0  0  0  0  0  0  0  0  0
  1  2  1  0  0  0  0
  2  3  2  0  0  0  0
  2  8  1  0  0  0  0
  3  9  1  0  0  0  0
  4  3  1  0  0  0  0
  5  4  2  0  0  0  0
  6  5  1  0  0  0  0
  6  1  2  0  0  0  0
  7  1  1  0  0  0  0
  9 10  1  0  0  0  0
 10 11  1  0  0  0  0
 10 15  1  0  0  0  0
 10 16  1  0  0  0  0
 11 17  1  0  0  0  0
 12 19  1  0  0  0  0
 12 11  1  0  0  0  0
 13 20  1  6  0  0  0
 13 12  1  0  0  0  0
 14 13  1  0  0  0  0
 14  9  1  0  0  0  0
 18 11  1  0  0  0  0
 21 14  1  0  0  0  0
 22 14  1  0  0  0  0
 23 13  1  0  0  0  0
 23 24  1  0  0  0  0
 25 23  1  0  0  0  0
 26 23  1  0  0  0  0
 27 33  1  6  0  0  0
 27 28  1  0  0  0  0
 28 29  1  0  0  0  0
 28  5  1  6  0  0  0
 30 29  1  0  0  0  0
 31 35  1  6  0  0  0
 31 30  1  0  0  0  0
 32 37  1  6  0  0  0
 32 31  1  0  0  0  0
 32 27  1  0  0  0  0
 34 33  1  0  0  0  0
 36 35  1  0  0  0  0
 38 37  1  0  0  0  0
M  END
>  <minimizedAffinity>
-6.68324232

$$$$

 OpenBabel03242522043D

 38 40  0  0  1  0  0  0  0  0999 V2000
   37.3160   28.3570   43.6800 C   0  0  0  0  0  0  0  0  0  0  0  0
   36.9990   27.1890   42.9870 C   0  0  0  0  0  0  0  0  0  0  0  0
   37.2510   27.1080   41.6100 C   0  0  0  0  0  0  0  0  0  0  0  0
   37.8040   28.2130   41.0410 N   0  0  0  0  0  0  0  0  0  0  0  0
   38.1010   29.3270   41.7260 C   0  0  0  0  0  0  0  0  0  0  0  0
   37.8540   29.4000   43.0590 N   0  0  0  0  0  0  0  0  0  0  0  0
   37.0920   28.3370   44.7280 H   0  0  0  0  0  0  0  0  0  0  0  0
   36.5650   26.3260   43.4440 H   0  0  0  0  0  0  0  0  0  0  0  0
   36.9700   25.9760   40.8150 N   0  0  0  0  0  0  0  0  0  0  0  0
   36.8620   26.0990   39.3640 C   0  0  0  0  0  0  0  0  0  0  0  0
   36.0760   24.9860   38.7570 C   0  0  0  0  0  0  0  0  0  0  0  0
   36.4830   23.6860   39.1650 N   0  0  0  0  0  0  0  0  0  0  0  0
   36.9320   23.5380   40.4980 C   0  0  2  0  0  0  0  0  0  0  0  0
   36.7870   24.6930   41.4080 C   0  0  0  0  0  0  0  0  0  0  0  0
   36.3010   27.0570   39.1710 H   0  0  0  0  0  0  0  0  0  0  0  0
   37.8540   26.2060   38.8980 H   0  0  0  0  0  0  0  0  0  0  0  0
   36.2610   25.0430   37.6440 H   0  0  0  0  0  0  0  0  0  0  0  0
   34.9820   25.1270   38.8690 H   0  0  0  0  0  0  0  0  0  0  0  0
   37.0600   23.1580   38.4750 H   0  0  0  0  0  0  0  0  0  0  0  0
   36.3980   22.6580   40.9340 H   0  0  0  0  0  0  0  0  0  0  0  0
   35.7730   24.6180   41.8910 H   0  0  0  0  0  0  0  0  0  0  0  0
   37.5260   24.5900   42.2430 H   0  0  0  0  0  0  0  0  0  0  0  0
   38.4100   23.1550   40.4720 C   0  0  0  0  0  0  0  0  0  0  0  0
   38.5350   21.7690   40.4780 F   0  0  0  0  0  0  0  0  0  0  0  0
   38.9350   23.5870   41.6700 F   0  0  0  0  0  0  0  0  0  0  0  0
   39.0760   23.6380   39.3890 F   0  0  0  0  0  0  0  0  0  0  0  0
   37.7260   31.6120   41.0420 C   0  0  1  0  0  3  0  0  0  0  0  0
   38.7050   30.4820   41.0060 C   0  0  2  0  0  3  0  0  0  0  0  0
   39.1540   30.1280   39.7550 O   0  0  0  0  0  0  0  0  0  0  0  0
   38.4140   30.6500   38.7220 C   0  0  0  0  0  2  0  0  0  0  0  0
   38.3600   32.1470   38.6790 C   0  0  2  0  0  3  0  0  0  0  0  0
   38.0310   32.6920   40.0360 C   0  0  1  0  0  3  0  0  0  0  0  0
   36.4230   31.1350   40.9600 O   0  0  0  0  0  0  0  0  0  0  0  0
   35.8350   31.5490   41.6470 H   0  0  0  0  0  0  0  0  0  0  0  0
   37.3370   32.4830   37.7750 O   0  0  0  0  0  0  0  0  0  0  0  0
   36.4600   32.1500   38.0850 H   0  0  0  0  0  0  0  0  0  0  0  0
   36.9060   33.5110   39.9570 O   0  0  0  0  0  0  0  0  0  0  0  0
   36.4850   33.5730   40.8530 H   0  0  0  0  0  0  0  0  0  0  0  0
  1  7  1  0  0  0  0
  2  8  1  0  0  0  0
  2  1  2  0  0  0  0
  3  2  1  0  0  0  0
  4  3  2  0  0  0  0
  4  5  1  0  0  0  0
  5  6  2  0  0  0  0
  6  1  1  0  0  0  0
  9 14  1  0  0  0  0
  9  3  1  0  0  0  0
 10  9  1  0  0  0  0
 11 18  1  0  0  0  0
 11 12  1  0  0  0  0
 11 10  1  0  0  0  0
 12 13  1  0  0  0  0
 13 20  1  1  0  0  0
 13 14  1  0  0  0  0
 14 21  1  0  0  0  0
 14 22  1  0  0  0  0
 15 10  1  0  0  0  0
 16 10  1  0  0  0  0
 17 11  1  0  0  0  0
 19 12  1  0  0  0  0
 23 24  1  0  0  0  0
 23 13  1  0  0  0  0
 23 25  1  0  0  0  0
 26 23  1  0  0  0  0
 27 33  1  6  0  0  0
 28 27  1  0  0  0  0
 28  5  1  6  0  0  0
 29 28  1  0  0  0  0
 30 29  1  0  0  0  0
 31 35  1  6  0  0  0
 31 30  1  0  0  0  0
 31 32  1  0  0  0  0
 32 37  1  6  0  0  0
 32 27  1  0  0  0  0
 33 34  1  0  0  0  0
 35 36  1  0  0  0  0
 37 38  1  0  0  0  0
M  END
>  <minimizedAffinity>
-6.3302393

$$$$

 OpenBabel03242522043D

 38 40  0  0  1  0  0  0  0  0999 V2000
   42.4530   28.9190   40.2330 C   0  0  0  0  0  0  0  0  0  0  0  0
   41.1130   28.8380   40.6100 C   0  0  0  0  0  0  0  0  0  0  0  0
   40.3520   30.0110   40.7250 C   0  0  0  0  0  0  0  0  0  0  0  0
   41.0050   31.1720   40.4500 N   0  0  0  0  0  0  0  0  0  0  0  0
   42.2950   31.2260   40.0890 C   0  0  0  0  0  0  0  0  0  0  0  0
   43.0260   30.0880   39.9790 N   0  0  0  0  0  0  0  0  0  0  0  0
   42.9620   27.9770   40.1690 H   0  0  0  0  0  0  0  0  0  0  0  0
   40.6080   27.9200   40.8240 H   0  0  0  0  0  0  0  0  0  0  0  0
   38.9910   30.0430   41.0990 N   0  0  0  0  0  0  0  0  0  0  0  0
   37.9720   30.4750   40.1450 C   0  0  0  0  0  0  0  0  0  0  0  0
   36.7250   30.9400   40.8190 C   0  0  0  0  0  0  0  0  0  0  0  0
   36.2130   30.0420   41.7960 N   0  0  0  0  0  0  0  0  0  0  0  0
   37.1540   29.3120   42.5600 C   0  0  2  0  0  0  0  0  0  0  0  0
   38.5830   29.6560   42.4070 C   0  0  0  0  0  0  0  0  0  0  0  0
   38.4100   31.3540   39.5940 H   0  0  0  0  0  0  0  0  0  0  0  0
   37.7700   29.6930   39.3970 H   0  0  0  0  0  0  0  0  0  0  0  0
   35.9410   31.0110   40.0100 H   0  0  0  0  0  0  0  0  0  0  0  0
   36.8160   31.9700   41.2180 H   0  0  0  0  0  0  0  0  0  0  0  0
   35.3940   29.4700   41.4960 H   0  0  0  0  0  0  0  0  0  0  0  0
   36.8640   29.4160   43.6340 H   0  0  0  0  0  0  0  0  0  0  0  0
   38.8170   30.4650   43.1540 H   0  0  0  0  0  0  0  0  0  0  0  0
   39.2010   28.7740   42.7160 H   0  0  0  0  0  0  0  0  0  0  0  0
   37.0000   27.8290   42.2300 C   0  0  0  0  0  0  0  0  0  0  0  0
   36.3120   27.6850   41.0280 F   0  0  0  0  0  0  0  0  0  0  0  0
   36.1740   27.3080   43.2020 F   0  0  0  0  0  0  0  0  0  0  0  0
   38.1860   27.1720   42.1240 F   0  0  0  0  0  0  0  0  0  0  0  0
   42.3570   33.0580   38.5160 C   0  0  1  0  0  3  0  0  0  0  0  0
   42.9150   32.5520   39.8080 C   0  0  2  0  0  3  0  0  0  0  0  0
   44.2880   32.5020   39.8810 O   0  0  0  0  0  0  0  0  0  0  0  0
   44.9210   32.6290   38.6690 C   0  0  0  0  0  2  0  0  0  0  0  0
   44.6410   33.9090   37.9430 C   0  0  2  0  0  3  0  0  0  0  0  0
   43.1680   34.1810   37.9210 C   0  0  1  0  0  3  0  0  0  0  0  0
   42.1380   32.0080   37.6320 O   0  0  0  0  0  0  0  0  0  0  0  0
   41.2360   32.0600   37.2140 H   0  0  0  0  0  0  0  0  0  0  0  0
   45.1080   33.7310   36.6280 O   0  0  0  0  0  0  0  0  0  0  0  0
   44.6220   33.0030   36.1710 H   0  0  0  0  0  0  0  0  0  0  0  0
   42.7360   34.3480   36.6060 O   0  0  0  0  0  0  0  0  0  0  0  0
   41.7620   34.1680   36.5580 H   0  0  0  0  0  0  0  0  0  0  0  0
  1  2  1  0  0  0  0
  2  3  2  0  0  0  0
  2  8  1  0  0  0  0
  3  9  1  0  0  0  0
  4  3  1  0  0  0  0
  5  4  2  0  0  0  0
  6  5  1  0  0  0  0
  6  1  2  0  0  0  0
  7  1  1  0  0  0  0
  9 14  1  0  0  0  0
 10 11  1  0  0  0  0
 10  9  1  0  0  0  0
 11 18  1  0  0  0  0
 11 12  1  0  0  0  0
 12 13  1  0  0  0  0
 13 20  1  1  0  0  0
 14 13  1  0  0  0  0
 14 22  1  0  0  0  0
 14 21  1  0  0  0  0
 15 10  1  0  0  0  0
 16 10  1  0  0  0  0
 17 11  1  0  0  0  0
 19 12  1  0  0  0  0
 23 13  1  0  0  0  0
 23 25  1  0  0  0  0
 24 23  1  0  0  0  0
 26 23  1  0  0  0  0
 27 33  1  6  0  0  0
 27 28  1  0  0  0  0
 28 29  1  0  0  0  0
 28  5  1  6  0  0  0
 30 29  1  0  0  0  0
 31 35  1  6  0  0  0
 31 30  1  0  0  0  0
 32 37  1  6  0  0  0
 32 31  1  0  0  0  0
 32 27  1  0  0  0  0
 34 33  1  0  0  0  0
 36 35  1  0  0  0  0
 38 37  1  0  0  0  0
M  END
>  <minimizedAffinity>
-6.28757524

$$$$

 OpenBabel03242522043D

 38 40  0  0  1  0  0  0  0  0999 V2000
   36.6320   30.1490   41.4870 C   0  0  0  0  0  0  0  0  0  0  0  0
   36.9590   28.8460   41.8600 C   0  0  0  0  0  0  0  0  0  0  0  0
   38.2560   28.3640   41.6330 C   0  0  0  0  0  0  0  0  0  0  0  0
   39.1200   29.2370   41.0470 N   0  0  0  0  0  0  0  0  0  0  0  0
   38.7840   30.4860   40.6970 C   0  0  0  0  0  0  0  0  0  0  0  0
   37.5270   30.9470   40.9190 N   0  0  0  0  0  0  0  0  0  0  0  0
   35.6200   30.4390   41.6960 H   0  0  0  0  0  0  0  0  0  0  0  0
   36.2730   28.1680   42.3200 H   0  0  0  0  0  0  0  0  0  0  0  0
   38.6930   27.0650   41.9700 N   0  0  0  0  0  0  0  0  0  0  0  0
   38.9200   26.7000   43.3660 C   0  0  0  0  0  0  0  0  0  0  0  0
   39.8400   25.5340   43.5050 C   0  0  0  0  0  0  0  0  0  0  0  0
   39.4990   24.4140   42.6970 N   0  0  0  0  0  0  0  0  0  0  0  0
   38.9450   24.6810   41.4230 C   0  0  2  0  0  0  0  0  0  0  0  0
   38.9190   26.0840   40.9620 C   0  0  0  0  0  0  0  0  0  0  0  0
   39.4220   27.5880   43.8450 H   0  0  0  0  0  0  0  0  0  0  0  0
   37.9690   26.5410   43.8970 H   0  0  0  0  0  0  0  0  0  0  0  0
   39.7510   25.1910   44.5770 H   0  0  0  0  0  0  0  0  0  0  0  0
   40.9060   25.8150   43.3850 H   0  0  0  0  0  0  0  0  0  0  0  0
   39.0270   23.6270   43.1940 H   0  0  0  0  0  0  0  0  0  0  0  0
   39.5030   24.0600   40.6800 H   0  0  0  0  0  0  0  0  0  0  0  0
   39.8880   26.2810   40.4240 H   0  0  0  0  0  0  0  0  0  0  0  0
   38.1180   26.1940   40.1870 H   0  0  0  0  0  0  0  0  0  0  0  0
   37.5080   24.1630   41.4010 C   0  0  0  0  0  0  0  0  0  0  0  0
   36.7330   24.9670   40.5700 F   0  0  0  0  0  0  0  0  0  0  0  0
   37.0170   24.3520   42.6740 F   0  0  0  0  0  0  0  0  0  0  0  0
   37.4030   22.8770   40.9710 F   0  0  0  0  0  0  0  0  0  0  0  0
   39.2940   31.7740   38.7180 C   0  0  1  0  0  3  0  0  0  0  0  0
   39.8080   31.3620   40.0610 C   0  0  2  0  0  3  0  0  0  0  0  0
   41.0540   30.7790   40.0640 O   0  0  0  0  0  0  0  0  0  0  0  0
   41.4970   30.3890   38.8230 C   0  0  0  0  0  2  0  0  0  0  0  0
   41.6150   31.4950   37.8200 C   0  0  2  0  0  3  0  0  0  0  0  0
   40.3690   32.3270   37.8170 C   0  0  1  0  0  3  0  0  0  0  0  0
   38.5630   30.7440   38.1360 O   0  0  0  0  0  0  0  0  0  0  0  0
   37.6960   31.0690   37.7710 H   0  0  0  0  0  0  0  0  0  0  0  0
   41.7740   30.8790   36.5660 O   0  0  0  0  0  0  0  0  0  0  0  0
   40.9860   30.3320   36.3320 H   0  0  0  0  0  0  0  0  0  0  0  0
   39.8380   32.3810   36.5290 O   0  0  0  0  0  0  0  0  0  0  0  0
   38.8730   32.6030   36.5830 H   0  0  0  0  0  0  0  0  0  0  0  0
  1  7  1  0  0  0  0
  1  2  1  0  0  0  0
  2  8  1  0  0  0  0
  3  2  2  0  0  0  0
  3  9  1  0  0  0  0
  4  3  1  0  0  0  0
  5  6  1  0  0  0  0
  5  4  2  0  0  0  0
  6  1  2  0  0  0  0
  9 10  1  0  0  0  0
 10 11  1  0  0  0  0
 10 15  1  0  0  0  0
 10 16  1  0  0  0  0
 11 17  1  0  0  0  0
 12 19  1  0  0  0  0
 12 11  1  0  0  0  0
 13 20  1  6  0  0  0
 13 12  1  0  0  0  0
 14 13  1  0  0  0  0
 14  9  1  0  0  0  0
 18 11  1  0  0  0  0
 21 14  1  0  0  0  0
 22 14  1  0  0  0  0
 23 13  1  0  0  0  0
 23 25  1  0  0  0  0
 24 23  1  0  0  0  0
 26 23  1  0  0  0  0
 27 33  1  6  0  0  0
 27 28  1  0  0  0  0
 28 29  1  0  0  0  0
 28  5  1  6  0  0  0
 30 29  1  0  0  0  0
 31 35  1  6  0  0  0
 31 30  1  0  0  0  0
 32 37  1  6  0  0  0
 32 31  1  0  0  0  0
 32 27  1  0  0  0  0
 34 33  1  0  0  0  0
 36 35  1  0  0  0  0
 37 38  1  0  0  0  0
M  END
>  <minimizedAffinity>
-6.25351477

$$$$

 OpenBabel03242522043D

 38 40  0  0  1  0  0  0  0  0999 V2000
   37.7140   33.3240   40.0340 C   0  0  0  0  0  0  0  0  0  0  0  0
   37.5400   32.1000   40.6800 C   0  0  0  0  0  0  0  0  0  0  0  0
   38.6620   31.3490   41.0590 C   0  0  0  0  0  0  0  0  0  0  0  0
   39.8710   31.8940   40.7570 N   0  0  0  0  0  0  0  0  0  0  0  0
   40.0150   33.0730   40.1350 C   0  0  0  0  0  0  0  0  0  0  0  0
   38.9260   33.7950   39.7700 N   0  0  0  0  0  0  0  0  0  0  0  0
   36.8060   33.8330   39.7790 H   0  0  0  0  0  0  0  0  0  0  0  0
   36.5850   31.6800   40.9130 H   0  0  0  0  0  0  0  0  0  0  0  0
   38.5990   30.1010   41.7160 N   0  0  0  0  0  0  0  0  0  0  0  0
   37.3680   29.3160   41.6980 C   0  0  0  0  0  0  0  0  0  0  0  0
   37.3030   28.3370   42.8220 C   0  0  0  0  0  0  0  0  0  0  0  0
   38.4630   27.5280   42.9670 N   0  0  0  0  0  0  0  0  0  0  0  0
   39.7100   28.1280   42.6740 C   0  0  2  0  0  0  0  0  0  0  0  0
   39.7320   29.5810   42.4060 C   0  0  0  0  0  0  0  0  0  0  0  0
   36.5250   30.0510   41.8370 H   0  0  0  0  0  0  0  0  0  0  0  0
   37.2170   28.8320   40.7200 H   0  0  0  0  0  0  0  0  0  0  0  0
   36.4540   27.6340   42.5750 H   0  0  0  0  0  0  0  0  0  0  0  0
   37.0100   28.8090   43.7810 H   0  0  0  0  0  0  0  0  0  0  0  0
   38.3800   26.5530   42.6050 H   0  0  0  0  0  0  0  0  0  0  0  0
   40.3970   27.9010   43.5260 H   0  0  0  0  0  0  0  0  0  0  0  0
   39.8720   30.1040   43.3920 H   0  0  0  0  0  0  0  0  0  0  0  0
   40.6450   29.8230   41.8050 H   0  0  0  0  0  0  0  0  0  0  0  0
   40.3120   27.4270   41.4570 C   0  0  0  0  0  0  0  0  0  0  0  0
   41.1520   26.4000   41.8770 F   0  0  0  0  0  0  0  0  0  0  0  0
   41.1260   28.3560   40.8480 F   0  0  0  0  0  0  0  0  0  0  0  0
   39.3790   26.8990   40.6200 F   0  0  0  0  0  0  0  0  0  0  0  0
   41.4230   34.0470   38.4300 C   0  0  1  0  0  3  0  0  0  0  0  0
   41.3870   33.5800   39.8510 C   0  0  2  0  0  3  0  0  0  0  0  0
   42.3540   32.6650   40.1970 O   0  0  0  0  0  0  0  0  0  0  0  0
   43.0000   32.0950   39.1270 C   0  0  0  0  0  2  0  0  0  0  0  0
   43.7170   33.0620   38.2360 C   0  0  2  0  0  3  0  0  0  0  0  0
   42.8220   34.2160   37.8980 C   0  0  1  0  0  3  0  0  0  0  0  0
   40.6220   33.2400   37.6300 O   0  0  0  0  0  0  0  0  0  0  0  0
   40.0290   33.7790   37.0400 H   0  0  0  0  0  0  0  0  0  0  0  0
   44.0420   32.3580   37.0630 O   0  0  0  0  0  0  0  0  0  0  0  0
   43.2300   32.0480   36.5940 H   0  0  0  0  0  0  0  0  0  0  0  0
   42.7220   34.3480   36.5130 O   0  0  0  0  0  0  0  0  0  0  0  0
   41.8900   34.8400   36.2920 H   0  0  0  0  0  0  0  0  0  0  0  0
  1  2  1  0  0  0  0
  2  8  1  0  0  0  0
  2  3  2  0  0  0  0
  3  9  1  0  0  0  0
  4  3  1  0  0  0  0
  5  4  2  0  0  0  0
  6  1  2  0  0  0  0
  6  5  1  0  0  0  0
  7  1  1  0  0  0  0
  9 14  1  0  0  0  0
 10  9  1  0  0  0  0
 10 15  1  0  0  0  0
 10 11  1  0  0  0  0
 11 12  1  0  0  0  0
 11 18  1  0  0  0  0
 13 12  1  0  0  0  0
 13 20  1  1  0  0  0
 14 13  1  0  0  0  0
 14 21  1  0  0  0  0
 16 10  1  0  0  0  0
 17 11  1  0  0  0  0
 19 12  1  0  0  0  0
 22 14  1  0  0  0  0
 23 24  1  0  0  0  0
 23 13  1  0  0  0  0
 25 23  1  0  0  0  0
 26 23  1  0  0  0  0
 27 33  1  6  0  0  0
 27 28  1  0  0  0  0
 28  5  1  6  0  0  0
 28 29  1  0  0  0  0
 30 29  1  0  0  0  0
 31 35  1  6  0  0  0
 31 30  1  0  0  0  0
 32 37  1  6  0  0  0
 32 31  1  0  0  0  0
 32 27  1  0  0  0  0
 34 33  1  0  0  0  0
 36 35  1  0  0  0  0
 38 37  1  0  0  0  0
M  END
>  <minimizedAffinity>
-6.1872015

$$$$

 OpenBabel03242522043D

 38 40  0  0  1  0  0  0  0  0999 V2000
   42.2550   28.4850   39.3360 C   0  0  0  0  0  0  0  0  0  0  0  0
   41.0400   28.2370   39.9730 C   0  0  0  0  0  0  0  0  0  0  0  0
   40.3100   29.3040   40.5160 C   0  0  0  0  0  0  0  0  0  0  0  0
   40.8660   30.5380   40.3720 N   0  0  0  0  0  0  0  0  0  0  0  0
   42.0370   30.7530   39.7550 C   0  0  0  0  0  0  0  0  0  0  0  0
   42.7390   29.7160   39.2320 N   0  0  0  0  0  0  0  0  0  0  0  0
   42.7490   27.6140   38.9490 H   0  0  0  0  0  0  0  0  0  0  0  0
   40.6120   27.2640   40.0800 H   0  0  0  0  0  0  0  0  0  0  0  0
   39.0720   29.1660   41.1790 N   0  0  0  0  0  0  0  0  0  0  0  0
   38.8970   29.6820   42.5340 C   0  0  0  0  0  0  0  0  0  0  0  0
   37.7700   29.0190   43.2530 C   0  0  0  0  0  0  0  0  0  0  0  0
   36.5500   28.9770   42.5230 N   0  0  0  0  0  0  0  0  0  0  0  0
   36.6410   28.8090   41.1220 C   0  0  2  0  0  0  0  0  0  0  0  0
   37.9700   28.5240   40.5440 C   0  0  0  0  0  0  0  0  0  0  0  0
   39.8460   29.4360   43.0890 H   0  0  0  0  0  0  0  0  0  0  0  0
   38.7980   30.7790   42.5340 H   0  0  0  0  0  0  0  0  0  0  0  0
   37.5710   29.6480   44.1690 H   0  0  0  0  0  0  0  0  0  0  0  0
   38.0460   28.0210   43.6480 H   0  0  0  0  0  0  0  0  0  0  0  0
   35.8300   29.6760   42.8090 H   0  0  0  0  0  0  0  0  0  0  0  0
   35.9330   27.9920   40.8370 H   0  0  0  0  0  0  0  0  0  0  0  0
   38.1060   27.4070   40.5440 H   0  0  0  0  0  0  0  0  0  0  0  0
   37.9680   28.8270   39.4660 H   0  0  0  0  0  0  0  0  0  0  0  0
   36.1070   30.0720   40.4470 C   0  0  0  0  0  0  0  0  0  0  0  0
   35.9980   31.0940   41.3860 F   0  0  0  0  0  0  0  0  0  0  0  0
   34.8190   29.7790   40.0570 F   0  0  0  0  0  0  0  0  0  0  0  0
   36.8900   30.5120   39.4260 F   0  0  0  0  0  0  0  0  0  0  0  0
   42.0370   32.7390   38.3810 C   0  0  1  0  0  3  0  0  0  0  0  0
   42.5570   32.1460   39.6520 C   0  0  2  0  0  3  0  0  0  0  0  0
   43.9220   32.1960   39.8130 O   0  0  0  0  0  0  0  0  0  0  0  0
   44.6140   32.5000   38.6650 C   0  0  0  0  0  2  0  0  0  0  0  0
   44.2700   33.8230   38.0530 C   0  0  2  0  0  3  0  0  0  0  0  0
   42.7820   33.9790   37.9580 C   0  0  1  0  0  3  0  0  0  0  0  0
   41.9610   31.7740   37.3840 O   0  0  0  0  0  0  0  0  0  0  0  0
   41.0850   31.7980   36.9130 H   0  0  0  0  0  0  0  0  0  0  0  0
   44.8280   33.8210   36.7620 O   0  0  0  0  0  0  0  0  0  0  0  0
   44.4340   33.1090   36.2020 H   0  0  0  0  0  0  0  0  0  0  0  0
   42.4170   34.2480   36.6400 O   0  0  0  0  0  0  0  0  0  0  0  0
   41.4680   33.9980   36.5070 H   0  0  0  0  0  0  0  0  0  0  0  0
  1  2  1  0  0  0  0
  2  8  1  0  0  0  0
  2  3  2  0  0  0  0
  3  9  1  0  0  0  0
  4  3  1  0  0  0  0
  5  4  2  0  0  0  0
  6  1  2  0  0  0  0
  6  5  1  0  0  0  0
  7  1  1  0  0  0  0
  9 10  1  0  0  0  0
 10 15  1  0  0  0  0
 10 11  1  0  0  0  0
 11 18  1  0  0  0  0
 11 17  1  0  0  0  0
 12 19  1  0  0  0  0
 12 11  1  0  0  0  0
 13 20  1  6  0  0  0
 13 12  1  0  0  0  0
 14 13  1  0  0  0  0
 14  9  1  0  0  0  0
 16 10  1  0  0  0  0
 21 14  1  0  0  0  0
 22 14  1  0  0  0  0
 23 13  1  0  0  0  0
 23 24  1  0  0  0  0
 25 23  1  0  0  0  0
 26 23  1  0  0  0  0
 27 33  1  6  0  0  0
 27 28  1  0  0  0  0
 28  5  1  6  0  0  0
 28 29  1  0  0  0  0
 30 29  1  0  0  0  0
 31 35  1  6  0  0  0
 31 30  1  0  0  0  0
 32 37  1  6  0  0  0
 32 31  1  0  0  0  0
 32 27  1  0  0  0  0
 34 33  1  0  0  0  0
 36 35  1  0  0  0  0
 38 37  1  0  0  0  0
M  END
>  <minimizedAffinity>
-6.09672117

$$$$

 OpenBabel03242522043D

 38 40  0  0  1  0  0  0  0  0999 V2000
   37.3370   28.2920   43.6770 C   0  0  0  0  0  0  0  0  0  0  0  0
   37.1900   27.0790   43.0050 C   0  0  0  0  0  0  0  0  0  0  0  0
   37.5900   26.9740   41.6660 C   0  0  0  0  0  0  0  0  0  0  0  0
   38.1080   28.1030   41.1110 N   0  0  0  0  0  0  0  0  0  0  0  0
   38.2400   29.2600   41.7760 C   0  0  0  0  0  0  0  0  0  0  0  0
   37.8500   29.3560   43.0720 N   0  0  0  0  0  0  0  0  0  0  0  0
   37.0060   28.2870   44.6980 H   0  0  0  0  0  0  0  0  0  0  0  0
   36.7820   26.1970   43.4510 H   0  0  0  0  0  0  0  0  0  0  0  0
   37.4870   25.7970   40.8940 N   0  0  0  0  0  0  0  0  0  0  0  0
   37.0000   24.5590   41.4940 C   0  0  0  0  0  0  0  0  0  0  0  0
   37.4340   23.3500   40.7350 C   0  0  0  0  0  0  0  0  0  0  0  0
   37.1860   23.4120   39.3360 N   0  0  0  0  0  0  0  0  0  0  0  0
   37.3120   24.6760   38.7130 C   0  0  2  0  0  0  0  0  0  0  0  0
   37.8520   25.7920   39.5170 C   0  0  0  0  0  0  0  0  0  0  0  0
   37.4650   24.5020   42.5190 H   0  0  0  0  0  0  0  0  0  0  0  0
   35.9080   24.5860   41.6370 H   0  0  0  0  0  0  0  0  0  0  0  0
   36.8150   22.4930   41.1300 H   0  0  0  0  0  0  0  0  0  0  0  0
   38.4830   23.0650   40.9520 H   0  0  0  0  0  0  0  0  0  0  0  0
   36.3600   22.8690   39.0010 H   0  0  0  0  0  0  0  0  0  0  0  0
   37.9480   24.5370   37.8040 H   0  0  0  0  0  0  0  0  0  0  0  0
   38.9710   25.7810   39.4010 H   0  0  0  0  0  0  0  0  0  0  0  0
   37.5130   26.7590   39.0650 H   0  0  0  0  0  0  0  0  0  0  0  0
   35.9390   25.1020   38.1970 C   0  0  0  0  0  0  0  0  0  0  0  0
   35.6390   26.3790   38.6650 F   0  0  0  0  0  0  0  0  0  0  0  0
   35.0300   24.2580   38.7960 F   0  0  0  0  0  0  0  0  0  0  0  0
   35.8490   25.1120   36.8400 F   0  0  0  0  0  0  0  0  0  0  0  0
   37.8100   31.5410   41.1080 C   0  0  1  0  0  3  0  0  0  0  0  0
   38.8210   30.4390   41.0730 C   0  0  2  0  0  3  0  0  0  0  0  0
   39.2940   30.1090   39.8240 O   0  0  0  0  0  0  0  0  0  0  0  0
   38.5510   30.6210   38.7870 C   0  0  0  0  0  2  0  0  0  0  0  0
   38.4570   32.1160   38.7580 C   0  0  2  0  0  3  0  0  0  0  0  0
   38.0970   32.6390   40.1160 C   0  0  1  0  0  3  0  0  0  0  0  0
   36.5220   31.0280   41.0060 O   0  0  0  0  0  0  0  0  0  0  0  0
   35.9140   31.4200   41.6900 H   0  0  0  0  0  0  0  0  0  0  0  0
   37.4350   32.4320   37.8450 O   0  0  0  0  0  0  0  0  0  0  0  0
   36.5650   32.0720   38.1420 H   0  0  0  0  0  0  0  0  0  0  0  0
   36.9510   33.4270   40.0310 O   0  0  0  0  0  0  0  0  0  0  0  0
   36.5170   33.4690   40.9220 H   0  0  0  0  0  0  0  0  0  0  0  0
  1  7  1  0  0  0  0
  2  8  1  0  0  0  0
  2  1  2  0  0  0  0
  3  2  1  0  0  0  0
  4  3  2  0  0  0  0
  4  5  1  0  0  0  0
  5  6  2  0  0  0  0
  6  1  1  0  0  0  0
  9 10  1  0  0  0  0
  9  3  1  0  0  0  0
 10 16  1  0  0  0  0
 10 15  1  0  0  0  0
 11 18  1  0  0  0  0
 11 17  1  0  0  0  0
 11 10  1  0  0  0  0
 12 11  1  0  0  0  0
 13 20  1  6  0  0  0
 13 12  1  0  0  0  0
 13 14  1  0  0  0  0
 14  9  1  0  0  0  0
 19 12  1  0  0  0  0
 21 14  1  0  0  0  0
 22 14  1  0  0  0  0
 23 24  1  0  0  0  0
 23 13  1  0  0  0  0
 23 25  1  0  0  0  0
 26 23  1  0  0  0  0
 27 33  1  6  0  0  0
 28 27  1  0  0  0  0
 28  5  1  6  0  0  0
 29 28  1  0  0  0  0
 30 29  1  0  0  0  0
 31 35  1  6  0  0  0
 31 30  1  0  0  0  0
 31 32  1  0  0  0  0
 32 37  1  6  0  0  0
 32 27  1  0  0  0  0
 33 34  1  0  0  0  0
 35 36  1  0  0  0  0
 37 38  1  0  0  0  0
M  END
>  <minimizedAffinity>
-5.95795059

$$$$

 OpenBabel03242522043D

 38 40  0  0  1  0  0  0  0  0999 V2000
   37.5390   27.9520   43.5460 C   0  0  0  0  0  0  0  0  0  0  0  0
   38.0510   29.0430   42.8460 C   0  0  0  0  0  0  0  0  0  0  0  0
   38.1560   28.9850   41.4490 C   0  0  0  0  0  0  0  0  0  0  0  0
   37.7350   27.8280   40.8690 N   0  0  0  0  0  0  0  0  0  0  0  0
   37.2470   26.7900   41.5630 C   0  0  0  0  0  0  0  0  0  0  0  0
   37.1480   26.8520   42.9140 N   0  0  0  0  0  0  0  0  0  0  0  0
   37.4930   28.0780   44.6100 H   0  0  0  0  0  0  0  0  0  0  0  0
   38.3780   29.9490   43.3110 H   0  0  0  0  0  0  0  0  0  0  0  0
   38.6570   30.0310   40.6440 N   0  0  0  0  0  0  0  0  0  0  0  0
   39.3360   29.7350   39.3850 C   0  0  0  0  0  0  0  0  0  0  0  0
   40.2280   30.8480   38.9460 C   0  0  0  0  0  0  0  0  0  0  0  0
   39.6130   32.1300   38.9460 N   0  0  0  0  0  0  0  0  0  0  0  0
   38.6670   32.3930   39.9640 C   0  0  2  0  0  0  0  0  0  0  0  0
   38.5120   31.3920   41.0390 C   0  0  0  0  0  0  0  0  0  0  0  0
   39.9860   28.8360   39.5820 H   0  0  0  0  0  0  0  0  0  0  0  0
   38.6170   29.4490   38.6010 H   0  0  0  0  0  0  0  0  0  0  0  0
   40.5000   30.6260   37.8730 H   0  0  0  0  0  0  0  0  0  0  0  0
   41.1950   30.8570   39.4870 H   0  0  0  0  0  0  0  0  0  0  0  0
   39.3230   32.4910   38.0110 H   0  0  0  0  0  0  0  0  0  0  0  0
   38.9300   33.3810   40.4170 H   0  0  0  0  0  0  0  0  0  0  0  0
   39.2460   31.6510   41.8510 H   0  0  0  0  0  0  0  0  0  0  0  0
   37.4980   31.5120   41.5000 H   0  0  0  0  0  0  0  0  0  0  0  0
   37.2980   32.5870   39.3140 C   0  0  0  0  0  0  0  0  0  0  0  0
   36.9650   33.9390   39.3180 F   0  0  0  0  0  0  0  0  0  0  0  0
   36.3910   31.9730   40.1500 F   0  0  0  0  0  0  0  0  0  0  0  0
   37.2380   32.1360   38.0330 F   0  0  0  0  0  0  0  0  0  0  0  0
   37.5200   24.3940   41.4300 C   0  0  1  0  0  3  0  0  0  0  0  0
   36.8140   25.5680   40.8290 C   0  0  2  0  0  3  0  0  0  0  0  0
   36.9540   25.7100   39.4680 O   0  0  0  0  0  0  0  0  0  0  0  0
   37.9570   24.9450   38.9220 C   0  0  0  0  0  2  0  0  0  0  0  0
   37.8010   23.4680   39.1200 C   0  0  2  0  0  3  0  0  0  0  0  0
   37.4820   23.1680   40.5530 C   0  0  1  0  0  3  0  0  0  0  0  0
   38.8040   24.7460   41.8290 O   0  0  0  0  0  0  0  0  0  0  0  0
   39.0040   24.4270   42.7500 H   0  0  0  0  0  0  0  0  0  0  0  0
   39.0370   22.8890   38.7810 O   0  0  0  0  0  0  0  0  0  0  0  0
   39.7580   23.2070   39.3770 H   0  0  0  0  0  0  0  0  0  0  0  0
   38.4120   22.2660   41.0670 O   0  0  0  0  0  0  0  0  0  0  0  0
   38.4300   22.3440   42.0550 H   0  0  0  0  0  0  0  0  0  0  0  0
  1  7  1  0  0  0  0
  2  8  1  0  0  0  0
  2  1  2  0  0  0  0
  3  2  1  0  0  0  0
  4  3  2  0  0  0  0
  4  5  1  0  0  0  0
  5  6  2  0  0  0  0
  6  1  1  0  0  0  0
  9 14  1  0  0  0  0
  9  3  1  0  0  0  0
 10 15  1  0  0  0  0
 10  9  1  0  0  0  0
 11 10  1  0  0  0  0
 11 18  1  0  0  0  0
 12 11  1  0  0  0  0
 12 13  1  0  0  0  0
 13 20  1  1  0  0  0
 13 14  1  0  0  0  0
 14 22  1  0  0  0  0
 14 21  1  0  0  0  0
 16 10  1  0  0  0  0
 17 11  1  0  0  0  0
 19 12  1  0  0  0  0
 23 24  1  0  0  0  0
 23 13  1  0  0  0  0
 23 25  1  0  0  0  0
 26 23  1  0  0  0  0
 27 33  1  6  0  0  0
 28 27  1  0  0  0  0
 28  5  1  1  0  0  0
 29 28  1  0  0  0  0
 30 31  1  0  0  0  0
 30 29  1  0  0  0  0
 31 35  1  1  0  0  0
 31 32  1  0  0  0  0
 32 37  1  1  0  0  0
 32 27  1  0  0  0  0
 33 34  1  0  0  0  0
 35 36  1  0  0  0  0
 37 38  1  0  0  0  0
M  END
>  <minimizedAffinity>
-5.79228449

$$$$
