
 OpenBabel03252504213D

 22 23  0  0  1  0  0  0  0  0999 V2000
   47.1850   32.0080   47.0200 C   0  0  2  0  0  3  0  0  0  0  0  0
   45.9820   32.1360   46.1440 C   0  0  2  0  0  3  0  0  0  0  0  0
   45.6680   30.8960   45.6460 O   0  0  0  0  0  0  0  0  0  0  0  0
   45.2910   29.9490   46.5530 C   0  0  0  0  0  2  0  0  0  0  0  0
   45.9130   30.0310   47.9030 C   0  0  2  0  0  3  0  0  0  0  0  0
   47.1050   30.9000   48.0110 C   0  0  2  0  0  3  0  0  0  0  0  0
   45.6610   34.7030   43.5050 C   0  0  0  0  0  0  0  0  0  0  0  0
   46.8930   34.6520   42.8530 C   0  0  0  0  0  0  0  0  0  0  0  0
   47.8480   33.7170   43.3310 C   0  0  0  0  0  0  0  0  0  0  0  0
   47.4920   32.9470   44.3820 N   0  0  0  0  0  0  0  0  0  0  0  0
   46.2900   33.0270   44.9880 C   0  0  0  0  0  0  0  0  0  0  0  0
   45.3650   33.9080   44.5500 N   0  0  0  0  0  0  0  0  0  0  0  0
   47.1540   35.2790   42.0130 H   0  0  0  0  0  0  0  0  0  0  0  0
   48.8050   33.6580   42.8460 H   0  0  0  0  0  0  0  0  0  0  0  0
   44.5070   35.9210   42.8290 S   0  0  0  0  0  0  0  0  0  0  0  0
   43.2600   35.2890   42.7250 H   0  0  0  0  0  0  0  0  0  0  0  0
   47.3580   33.2200   47.7000 O   0  0  0  0  0  0  0  0  0  0  0  0
   46.4680   33.6120   47.8940 H   0  0  0  0  0  0  0  0  0  0  0  0
   46.2680   28.7420   48.3210 O   0  0  0  0  0  0  0  0  0  0  0  0
   46.8620   28.3610   47.6160 H   0  0  0  0  0  0  0  0  0  0  0  0
   47.1330   31.3800   49.3400 O   0  0  0  0  0  0  0  0  0  0  0  0
   47.0100   32.3420   49.4040 H   0  0  0  0  0  0  0  0  0  0  0  0
  1 17  1  1  0  0  0
  1  6  1  0  0  0  0
  2 11  1  6  0  0  0
  2  1  1  0  0  0  0
  3  2  1  0  0  0  0
  3  4  1  0  0  0  0
  4  5  1  0  0  0  0
  5  6  1  0  0  0  0
  5 19  1  6  0  0  0
  6 21  1  1  0  0  0
  7 12  1  0  0  0  0
  8  9  1  0  0  0  0
  8  7  2  0  0  0  0
  9 10  2  0  0  0  0
 10 11  1  0  0  0  0
 12 11  2  0  0  0  0
 13  8  1  0  0  0  0
 14  9  1  0  0  0  0
 15  7  1  0  0  0  0
 16 15  1  0  0  0  0
 17 18  1  0  0  0  0
 20 19  1  0  0  0  0
 21 22  1  0  0  0  0
M  END
>  <minimizedAffinity>
-5.07902622

>  <minimizedRMSD>
2.41787791

$$$$
