
 OpenBabel03252506193D

 26 27  0  0  1  0  0  0  0  0999 V2000
   44.6450   35.6180   43.5580 C   0  0  0  0  0  0  0  0  0  0  0  0
   43.7900   35.5380   42.4170 C   0  0  0  0  0  0  0  0  0  0  0  0
   43.6320   34.2660   41.8400 C   0  0  0  0  0  0  0  0  0  0  0  0
   44.2870   33.1970   42.3840 N   0  0  0  0  0  0  0  0  0  0  0  0
   45.0940   33.3300   43.4780 C   0  0  0  0  0  0  0  0  0  0  0  0
   45.2540   34.5460   44.0430 N   0  0  0  0  0  0  0  0  0  0  0  0
   43.3240   36.4370   42.0690 H   0  0  0  0  0  0  0  0  0  0  0  0
   42.9940   34.1870   40.9830 H   0  0  0  0  0  0  0  0  0  0  0  0
   47.2210   32.0970   43.5630 C   0  0  2  0  0  3  0  0  0  0  0  0
   45.7850   32.1590   44.0420 C   0  0  1  0  0  3  0  0  0  0  0  0
   45.8390   32.1670   45.4360 O   0  0  0  0  0  0  0  0  0  0  0  0
   46.1920   30.8820   45.8430 C   0  0  0  0  0  2  0  0  0  0  0  0
   47.5450   30.4480   45.3440 C   0  0  2  0  0  3  0  0  0  0  0  0
   47.7080   30.6830   43.8560 C   0  0  2  0  0  3  0  0  0  0  0  0
   48.0570   32.9670   44.2560 O   0  0  0  0  0  0  0  0  0  0  0  0
   47.9390   33.9160   44.0030 H   0  0  0  0  0  0  0  0  0  0  0  0
   47.6320   29.0610   45.5370 O   0  0  0  0  0  0  0  0  0  0  0  0
   47.9110   28.9380   46.4820 H   0  0  0  0  0  0  0  0  0  0  0  0
   49.0630   30.6310   43.5240 O   0  0  0  0  0  0  0  0  0  0  0  0
   49.1880   30.2780   42.6050 H   0  0  0  0  0  0  0  0  0  0  0  0
   44.8170   36.9270   44.1700 C   0  0  0  0  0  3  0  0  0  0  0  0
   45.2530   37.9280   43.4370 C   0  0  0  0  0  3  0  0  0  0  0  0
   45.4570   39.2940   43.9540 C   0  0  0  0  0  0  0  0  0  0  0  0
   44.4710   39.8290   43.8620 H   0  0  0  0  0  0  0  0  0  0  0  0
   46.1520   39.8620   43.3310 H   0  0  0  0  0  0  0  0  0  0  0  0
   45.6940   39.3130   45.0270 H   0  0  0  0  0  0  0  0  0  0  0  0
  1  6  1  0  0  0  0
  1 21  1  0  0  0  0
  2  1  2  0  0  0  0
  3  4  2  0  0  0  0
  3  2  1  0  0  0  0
  4  5  1  0  0  0  0
  5  6  2  0  0  0  0
  7  2  1  0  0  0  0
  8  3  1  0  0  0  0
  9 14  1  0  0  0  0
  9 10  1  0  0  0  0
  9 15  1  1  0  0  0
 10  5  1  6  0  0  0
 10 11  1  0  0  0  0
 11 12  1  0  0  0  0
 13 17  1  6  0  0  0
 13 12  1  0  0  0  0
 14 19  1  1  0  0  0
 14 13  1  0  0  0  0
 16 15  1  0  0  0  0
 17 18  1  0  0  0  0
 20 19  1  0  0  0  0
 22 23  1  0  0  0  0
 22 21  2  0  0  0  0
 23 26  1  0  0  0  0
 24 23  1  0  0  0  0
 25 23  1  0  0  0  0
M  END
>  <minimizedAffinity>
-3.65115476

>  <minimizedRMSD>
0.384748399

$$$$
