
 OpenBabel03242519323D

 51 54  0  0  1  0  0  0  0  0999 V2000
   50.4550   31.1810   42.1900 C   0  0  0  0  0  0  0  0  0  0  0  0
   50.9980   30.9230   40.9940 N   0  0  0  0  0  0  0  0  0  0  0  0
   51.6310   29.7210   41.0410 C   0  0  0  0  0  0  0  0  0  0  0  0
   51.4660   29.2480   42.2930 N   0  0  0  0  0  0  0  0  0  0  0  0
   50.7530   30.1240   43.0030 N   0  0  0  0  0  0  0  0  0  0  0  0
   52.1610   29.2470   40.2290 H   0  0  0  0  0  0  0  0  0  0  0  0
   47.8500   33.6930   42.8480 C   0  0  0  0  0  0  0  0  0  0  0  0
   48.6080   34.8890   42.7120 C   0  0  0  0  0  0  0  0  0  0  0  0
   49.9710   34.8060   42.4000 C   0  0  0  0  0  0  0  0  0  0  0  0
   50.5010   33.5500   42.2430 N   0  0  0  0  0  0  0  0  0  0  0  0
   49.7160   32.4240   42.3880 C   0  0  0  0  0  0  0  0  0  0  0  0
   48.4230   32.4960   42.6830 N   0  0  0  0  0  0  0  0  0  0  0  0
   48.2590   35.8780   42.8200 H   0  0  0  0  0  0  0  0  0  0  0  0
   50.5910   35.6800   42.2860 H   0  0  0  0  0  0  0  0  0  0  0  0
   46.4370   33.9050   43.1830 C   0  0  0  0  0  0  0  0  0  0  0  0
   45.7770   34.9360   42.4220 C   0  0  0  0  0  0  0  0  0  0  0  0
   45.3850   36.1230   43.1990 C   0  0  0  0  0  0  0  0  0  0  0  0
   44.5060   35.7290   44.3920 C   0  0  0  0  0  0  0  0  0  0  0  0
   44.9930   34.5260   45.1330 C   0  0  0  0  0  0  0  0  0  0  0  0
   46.4100   34.1580   44.7270 C   0  0  0  0  0  0  0  0  0  0  0  0
   45.9290   32.8970   43.1220 H   0  0  0  0  0  0  0  0  0  0  0  0
   44.8290   34.5260   41.9620 H   0  0  0  0  0  0  0  0  0  0  0  0
   46.3730   35.2790   41.5400 H   0  0  0  0  0  0  0  0  0  0  0  0
   44.7040   36.7410   42.5450 H   0  0  0  0  0  0  0  0  0  0  0  0
   46.1760   36.8100   43.5150 H   0  0  0  0  0  0  0  0  0  0  0  0
   43.5050   35.4480   43.9500 H   0  0  0  0  0  0  0  0  0  0  0  0
   44.3200   36.6230   45.0140 H   0  0  0  0  0  0  0  0  0  0  0  0
   45.0590   34.8120   46.2020 H   0  0  0  0  0  0  0  0  0  0  0  0
   44.3150   33.6480   45.0800 H   0  0  0  0  0  0  0  0  0  0  0  0
   47.0500   35.0310   44.9350 H   0  0  0  0  0  0  0  0  0  0  0  0
   46.7040   33.2300   45.2580 H   0  0  0  0  0  0  0  0  0  0  0  0
   51.9810   28.0160   42.8290 C   0  0  0  0  0  0  0  0  0  0  0  0
   51.7190   27.1310   42.2650 H   0  0  0  0  0  0  0  0  0  0  0  0
   51.5190   27.8620   43.8520 H   0  0  0  0  0  0  0  0  0  0  0  0
   53.4330   28.1100   42.9790 C   0  0  0  0  0  3  0  0  0  0  0  0
   54.2390   28.8050   43.7740 C   0  0  0  0  0  3  0  0  0  0  0  0
   55.7740   28.6900   43.8380 C   0  0  0  0  0  0  0  0  0  0  0  0
   56.0040   28.0180   44.6610 H   0  0  0  0  0  0  0  0  0  0  0  0
   56.0720   28.2390   42.8770 H   0  0  0  0  0  0  0  0  0  0  0  0
   57.5190   30.0660   42.8840 C   0  0  1  0  0  3  0  0  0  0  0  0
   56.4150   30.0390   43.9280 C   0  0  2  0  0  3  0  0  0  0  0  0
   56.8230   30.4190   45.1810 O   0  0  0  0  0  0  0  0  0  0  0  0
   57.9380   29.7860   45.6700 C   0  0  0  0  0  2  0  0  0  0  0  0
   59.1470   29.8770   44.7670 C   0  0  1  0  0  3  0  0  0  0  0  0
   58.7700   29.3620   43.3970 C   0  0  2  0  0  3  0  0  0  0  0  0
   57.0960   29.2980   41.7840 O   0  0  0  0  0  0  0  0  0  0  0  0
   56.4240   29.7690   41.2560 H   0  0  0  0  0  0  0  0  0  0  0  0
   59.6030   31.1810   44.6400 O   0  0  0  0  0  0  0  0  0  0  0  0
   59.0290   31.7100   44.0330 H   0  0  0  0  0  0  0  0  0  0  0  0
   59.7900   29.6280   42.5090 O   0  0  0  0  0  0  0  0  0  0  0  0
   59.5890   29.3260   41.6020 H   0  0  0  0  0  0  0  0  0  0  0  0
  1 11  1  0  0  0  0
  1  5  2  0  0  0  0
  2  3  2  0  0  0  0
  2  1  1  0  0  0  0
  3  4  1  0  0  0  0
  4 32  1  0  0  0  0
  4  5  1  0  0  0  0
  6  3  1  0  0  0  0
  7 15  1  0  0  0  0
  8 13  1  0  0  0  0
  8  7  1  0  0  0  0
  9  8  2  0  0  0  0
 10 11  2  0  0  0  0
 10  9  1  0  0  0  0
 11 12  1  0  0  0  0
 12  7  2  0  0  0  0
 14  9  1  0  0  0  0
 15 20  1  0  0  0  0
 16 15  1  0  0  0  0
 16 17  1  0  0  0  0
 17 25  1  0  0  0  0
 17 18  1  0  0  0  0
 18 27  1  0  0  0  0
 18 19  1  0  0  0  0
 19 28  1  0  0  0  0
 20 30  1  0  0  0  0
 20 19  1  0  0  0  0
 20 31  1  0  0  0  0
 21 15  1  0  0  0  0
 22 16  1  0  0  0  0
 23 16  1  0  0  0  0
 24 17  1  0  0  0  0
 26 18  1  0  0  0  0
 29 19  1  0  0  0  0
 32 35  1  0  0  0  0
 32 34  1  0  0  0  0
 33 32  1  0  0  0  0
 35 36  2  0  0  0  0
 36 37  1  0  0  0  0
 37 38  1  0  0  0  0
 39 37  1  0  0  0  0
 40 46  1  6  0  0  0
 40 45  1  0  0  0  0
 40 41  1  0  0  0  0
 41 37  1  1  0  0  0
 41 42  1  0  0  0  0
 42 43  1  0  0  0  0
 44 48  1  6  0  0  0
 44 43  1  0  0  0  0
 45 50  1  6  0  0  0
 45 44  1  0  0  0  0
 47 46  1  0  0  0  0
 49 48  1  0  0  0  0
 51 50  1  0  0  0  0
M  END
>  <minimizedAffinity>
-4.11913633

>  <minimizedRMSD>
1.12119746

$$$$
