
 OpenBabel03242523483D

 22 23  0  0  1  0  0  0  0  0999 V2000
   37.4880   31.4240   40.3760 C   0  0  1  0  0  3  0  0  0  0  0  0
   38.8240   31.5690   41.0410 C   0  0  1  0  0  3  0  0  0  0  0  0
   39.4450   30.3750   41.3580 O   0  0  0  0  0  0  0  0  0  0  0  0
   38.5660   29.3040   41.4150 C   0  0  0  0  0  2  0  0  0  0  0  0
   37.2710   29.6960   42.1100 C   0  0  1  0  0  3  0  0  0  0  0  0
   36.5090   30.5560   41.1000 C   0  0  1  0  0  3  0  0  0  0  0  0
   40.7450   32.6460   37.9560 C   0  0  0  0  0  0  0  0  0  0  0  0
   39.8980   31.8810   38.7880 C   0  0  0  0  0  0  0  0  0  0  0  0
   39.7010   32.3200   40.1030 C   0  0  0  0  0  0  0  0  0  0  0  0
   40.3390   33.4600   40.4980 N   0  0  0  0  0  0  0  0  0  0  0  0
   41.1370   34.1610   39.6800 C   0  0  0  0  0  0  0  0  0  0  0  0
   41.3370   33.7520   38.4130 N   0  0  0  0  0  0  0  0  0  0  0  0
   39.3940   30.9780   38.4710 H   0  0  0  0  0  0  0  0  0  0  0  0
   41.6090   35.0650   40.0840 H   0  0  0  0  0  0  0  0  0  0  0  0
   40.9280   32.2040   36.6750 O   0  0  0  0  0  0  0  0  0  0  0  0
   41.8190   31.9640   36.2540 H   0  0  0  0  0  0  0  0  0  0  0  0
   36.9290   32.7200   40.3630 O   0  0  0  0  0  0  0  0  0  0  0  0
   35.9540   32.6470   40.1160 H   0  0  0  0  0  0  0  0  0  0  0  0
   36.5600   28.5240   42.3400 O   0  0  0  0  0  0  0  0  0  0  0  0
   37.1610   27.8970   42.8180 H   0  0  0  0  0  0  0  0  0  0  0  0
   35.5210   31.2690   41.7380 O   0  0  0  0  0  0  0  0  0  0  0  0
   34.6010   30.9780   41.5150 H   0  0  0  0  0  0  0  0  0  0  0  0
  1 17  1  1  0  0  0
  1  2  1  0  0  0  0
  1  6  1  0  0  0  0
  2  9  1  6  0  0  0
  2  3  1  0  0  0  0
  3  4  1  0  0  0  0
  4  5  1  0  0  0  0
  5 19  1  6  0  0  0
  6 21  1  1  0  0  0
  6  5  1  0  0  0  0
  7 12  2  0  0  0  0
  7  8  1  0  0  0  0
  8  9  2  0  0  0  0
  9 10  1  0  0  0  0
 11 14  1  0  0  0  0
 11 10  2  0  0  0  0
 12 11  1  0  0  0  0
 13  8  1  0  0  0  0
 15  7  1  0  0  0  0
 16 15  1  0  0  0  0
 18 17  1  0  0  0  0
 19 20  1  0  0  0  0
 22 21  1  0  0  0  0
M  END
>  <minimizedAffinity>
-5.65462589

$$$$

 OpenBabel03242523483D

 22 23  0  0  1  0  0  0  0  0999 V2000
   37.5360   29.5640   41.7890 C   0  0  1  0  0  3  0  0  0  0  0  0
   37.5440   28.1990   41.1690 C   0  0  1  0  0  3  0  0  0  0  0  0
   38.0440   28.1540   39.8800 O   0  0  0  0  0  0  0  0  0  0  0  0
   38.0300   29.3880   39.2480 C   0  0  0  0  0  2  0  0  0  0  0  0
   36.7360   30.1350   39.5370 C   0  0  1  0  0  3  0  0  0  0  0  0
   36.8610   30.6260   40.9800 C   0  0  1  0  0  3  0  0  0  0  0  0
   39.1120   25.1780   42.8380 C   0  0  0  0  0  0  0  0  0  0  0  0
   38.2750   25.9370   41.9900 C   0  0  0  0  0  0  0  0  0  0  0  0
   38.3910   27.3310   42.0310 C   0  0  0  0  0  0  0  0  0  0  0  0
   39.3070   27.8710   42.8860 N   0  0  0  0  0  0  0  0  0  0  0  0
   40.0860   27.1190   43.6780 C   0  0  0  0  0  0  0  0  0  0  0  0
   39.9850   25.7770   43.6500 N   0  0  0  0  0  0  0  0  0  0  0  0
   37.5500   25.5040   41.3130 H   0  0  0  0  0  0  0  0  0  0  0  0
   40.7940   27.6400   44.3350 H   0  0  0  0  0  0  0  0  0  0  0  0
   38.9860   23.8170   42.7870 O   0  0  0  0  0  0  0  0  0  0  0  0
   38.7510   23.2160   43.5690 H   0  0  0  0  0  0  0  0  0  0  0  0
   36.7800   29.4350   42.9750 O   0  0  0  0  0  0  0  0  0  0  0  0
   36.5700   30.3580   43.3230 H   0  0  0  0  0  0  0  0  0  0  0  0
   36.6990   31.2310   38.6830 O   0  0  0  0  0  0  0  0  0  0  0  0
   36.8350   30.8980   37.7600 H   0  0  0  0  0  0  0  0  0  0  0  0
   35.6250   30.9750   41.4680 O   0  0  0  0  0  0  0  0  0  0  0  0
   35.5060   31.9480   41.6170 H   0  0  0  0  0  0  0  0  0  0  0  0
  1 17  1  1  0  0  0
  2  1  1  0  0  0  0
  2  9  1  1  0  0  0
  3  2  1  0  0  0  0
  4  5  1  0  0  0  0
  4  3  1  0  0  0  0
  5 19  1  6  0  0  0
  5  6  1  0  0  0  0
  6 21  1  1  0  0  0
  6  1  1  0  0  0  0
  7 12  1  0  0  0  0
  8  9  1  0  0  0  0
  8  7  2  0  0  0  0
  9 10  2  0  0  0  0
 10 11  1  0  0  0  0
 11 14  1  0  0  0  0
 12 11  2  0  0  0  0
 13  8  1  0  0  0  0
 15  7  1  0  0  0  0
 15 16  1  0  0  0  0
 17 18  1  0  0  0  0
 20 19  1  0  0  0  0
 21 22  1  0  0  0  0
M  END
>  <minimizedAffinity>
-5.58607578

$$$$

 OpenBabel03242523483D

 22 23  0  0  1  0  0  0  0  0999 V2000
   41.2270   32.3110   39.9490 C   0  0  1  0  0  3  0  0  0  0  0  0
   39.7950   32.4870   39.5420 C   0  0  1  0  0  3  0  0  0  0  0  0
   39.5350   32.2110   38.2110 O   0  0  0  0  0  0  0  0  0  0  0  0
   40.6700   32.2550   37.4150 C   0  0  0  0  0  2  0  0  0  0  0  0
   41.5530   33.4350   37.7880 C   0  0  1  0  0  3  0  0  0  0  0  0
   42.2220   33.0450   39.1070 C   0  0  1  0  0  3  0  0  0  0  0  0
   36.8930   30.7940   41.2970 C   0  0  0  0  0  0  0  0  0  0  0  0
   37.5950   31.7090   40.4820 C   0  0  0  0  0  0  0  0  0  0  0  0
   38.9840   31.5640   40.3810 C   0  0  0  0  0  0  0  0  0  0  0  0
   39.5720   30.5470   41.0740 N   0  0  0  0  0  0  0  0  0  0  0  0
   38.8730   29.6970   41.8400 C   0  0  0  0  0  0  0  0  0  0  0  0
   37.5370   29.8240   41.9480 N   0  0  0  0  0  0  0  0  0  0  0  0
   37.1250   32.5140   39.9320 H   0  0  0  0  0  0  0  0  0  0  0  0
   39.4290   28.9090   42.3630 H   0  0  0  0  0  0  0  0  0  0  0  0
   35.5370   30.9510   41.3870 O   0  0  0  0  0  0  0  0  0  0  0  0
   35.0150   31.1060   42.2420 H   0  0  0  0  0  0  0  0  0  0  0  0
   41.3220   32.8680   41.2440 O   0  0  0  0  0  0  0  0  0  0  0  0
   42.2970   32.9620   41.4810 H   0  0  0  0  0  0  0  0  0  0  0  0
   42.5230   33.5470   36.8000 O   0  0  0  0  0  0  0  0  0  0  0  0
   42.0580   33.5850   35.9260 H   0  0  0  0  0  0  0  0  0  0  0  0
   42.7360   34.1610   39.7250 O   0  0  0  0  0  0  0  0  0  0  0  0
   43.7250   34.1950   39.7450 H   0  0  0  0  0  0  0  0  0  0  0  0
  1 17  1  1  0  0  0
  2  1  1  0  0  0  0
  2  9  1  1  0  0  0
  3  2  1  0  0  0  0
  4  5  1  0  0  0  0
  4  3  1  0  0  0  0
  5 19  1  6  0  0  0
  5  6  1  0  0  0  0
  6 21  1  1  0  0  0
  6  1  1  0  0  0  0
  7 15  1  0  0  0  0
  7 12  1  0  0  0  0
  8  7  2  0  0  0  0
  9  8  1  0  0  0  0
  9 10  2  0  0  0  0
 10 11  1  0  0  0  0
 11 12  2  0  0  0  0
 11 14  1  0  0  0  0
 13  8  1  0  0  0  0
 15 16  1  0  0  0  0
 17 18  1  0  0  0  0
 20 19  1  0  0  0  0
 21 22  1  0  0  0  0
M  END
>  <minimizedAffinity>
-5.22739601

$$$$

 OpenBabel03242523483D

 22 23  0  0  1  0  0  0  0  0999 V2000
   39.4190   31.5110   40.2100 C   0  0  1  0  0  3  0  0  0  0  0  0
   38.2420   30.5890   40.0990 C   0  0  1  0  0  3  0  0  0  0  0  0
   38.2120   29.8250   38.9450 O   0  0  0  0  0  0  0  0  0  0  0  0
   38.9970   30.3480   37.9280 C   0  0  0  0  0  2  0  0  0  0  0  0
   38.8480   31.8600   37.8450 C   0  0  1  0  0  3  0  0  0  0  0  0
   39.6310   32.4140   39.0370 C   0  0  1  0  0  3  0  0  0  0  0  0
   37.2510   28.2880   42.9450 C   0  0  0  0  0  0  0  0  0  0  0  0
   37.1220   29.1550   41.8360 C   0  0  0  0  0  0  0  0  0  0  0  0
   38.2940   29.6690   41.2680 C   0  0  0  0  0  0  0  0  0  0  0  0
   39.4860   29.3020   41.8190 N   0  0  0  0  0  0  0  0  0  0  0  0
   39.5710   28.4760   42.8730 C   0  0  0  0  0  0  0  0  0  0  0  0
   38.4530   27.9730   43.4310 N   0  0  0  0  0  0  0  0  0  0  0  0
   36.1750   29.4440   41.4020 H   0  0  0  0  0  0  0  0  0  0  0  0
   40.5720   28.2360   43.2500 H   0  0  0  0  0  0  0  0  0  0  0  0
   36.0970   27.7940   43.4890 O   0  0  0  0  0  0  0  0  0  0  0  0
   35.7980   27.9150   44.4500 H   0  0  0  0  0  0  0  0  0  0  0  0
   39.1370   32.3530   41.3080 O   0  0  0  0  0  0  0  0  0  0  0  0
   39.7920   33.1190   41.3000 H   0  0  0  0  0  0  0  0  0  0  0  0
   39.4630   32.2660   36.6670 O   0  0  0  0  0  0  0  0  0  0  0  0
   39.0780   31.7290   35.9270 H   0  0  0  0  0  0  0  0  0  0  0  0
   39.2610   33.7150   39.2810 O   0  0  0  0  0  0  0  0  0  0  0  0
   39.9630   34.3830   39.0770 H   0  0  0  0  0  0  0  0  0  0  0  0
  1 17  1  1  0  0  0
  2  1  1  0  0  0  0
  2  9  1  1  0  0  0
  3  2  1  0  0  0  0
  4  3  1  0  0  0  0
  5 19  1  6  0  0  0
  5  4  1  0  0  0  0
  5  6  1  0  0  0  0
  6 21  1  1  0  0  0
  6  1  1  0  0  0  0
  7 12  1  0  0  0  0
  7 15  1  0  0  0  0
  8  7  2  0  0  0  0
  9 10  2  0  0  0  0
  9  8  1  0  0  0  0
 10 11  1  0  0  0  0
 11 14  1  0  0  0  0
 11 12  2  0  0  0  0
 13  8  1  0  0  0  0
 15 16  1  0  0  0  0
 18 17  1  0  0  0  0
 20 19  1  0  0  0  0
 22 21  1  0  0  0  0
M  END
>  <minimizedAffinity>
-5.12811184

$$$$

 OpenBabel03242523483D

 22 23  0  0  1  0  0  0  0  0999 V2000
   40.0870   32.7240   38.1370 C   0  0  1  0  0  3  0  0  0  0  0  0
   40.0680   31.4540   38.9320 C   0  0  1  0  0  3  0  0  0  0  0  0
   40.5700   31.5680   40.2160 O   0  0  0  0  0  0  0  0  0  0  0  0
   41.3840   32.6780   40.3850 C   0  0  0  0  0  2  0  0  0  0  0  0
   42.3040   32.8670   39.1880 C   0  0  1  0  0  3  0  0  0  0  0  0
   41.4140   33.4120   38.0700 C   0  0  1  0  0  3  0  0  0  0  0  0
   36.5330   30.8470   40.1610 C   0  0  0  0  0  0  0  0  0  0  0  0
   37.8720   31.2990   40.1490 C   0  0  0  0  0  0  0  0  0  0  0  0
   38.6490   31.0130   39.0210 C   0  0  0  0  0  0  0  0  0  0  0  0
   38.0660   30.3180   38.0020 N   0  0  0  0  0  0  0  0  0  0  0  0
   36.7900   29.9050   38.0480 C   0  0  0  0  0  0  0  0  0  0  0  0
   36.0300   30.1720   39.1260 N   0  0  0  0  0  0  0  0  0  0  0  0
   38.3310   31.8500   40.9590 H   0  0  0  0  0  0  0  0  0  0  0  0
   36.4050   29.3520   37.1820 H   0  0  0  0  0  0  0  0  0  0  0  0
   35.7870   31.1330   41.2710 O   0  0  0  0  0  0  0  0  0  0  0  0
   35.3330   30.4530   41.8700 H   0  0  0  0  0  0  0  0  0  0  0  0
   39.7730   32.3460   36.8130 O   0  0  0  0  0  0  0  0  0  0  0  0
   39.9720   33.1230   36.2020 H   0  0  0  0  0  0  0  0  0  0  0  0
   43.2370   33.8340   39.5400 O   0  0  0  0  0  0  0  0  0  0  0  0
   43.6540   33.5530   40.3940 H   0  0  0  0  0  0  0  0  0  0  0  0
   42.0390   33.2640   36.8540 O   0  0  0  0  0  0  0  0  0  0  0  0
   42.3240   34.1160   36.4370 H   0  0  0  0  0  0  0  0  0  0  0  0
  1 17  1  6  0  0  0
  1  2  1  0  0  0  0
  2  9  1  1  0  0  0
  2  3  1  0  0  0  0
  3  4  1  0  0  0  0
  5 19  1  1  0  0  0
  5  4  1  0  0  0  0
  6 21  1  6  0  0  0
  6  1  1  0  0  0  0
  6  5  1  0  0  0  0
  7 15  1  0  0  0  0
  8  7  1  0  0  0  0
  8 13  1  0  0  0  0
  9  8  2  0  0  0  0
 10 11  2  0  0  0  0
 10  9  1  0  0  0  0
 11 12  1  0  0  0  0
 12  7  2  0  0  0  0
 14 11  1  0  0  0  0
 15 16  1  0  0  0  0
 18 17  1  0  0  0  0
 19 20  1  0  0  0  0
 22 21  1  0  0  0  0
M  END
>  <minimizedAffinity>
-5.1140151

$$$$

 OpenBabel03242523483D

 22 23  0  0  1  0  0  0  0  0999 V2000
   38.5230   28.7730   41.4180 C   0  0  1  0  0  3  0  0  0  0  0  0
   37.7870   28.0810   42.5260 C   0  0  1  0  0  3  0  0  0  0  0  0
   36.4360   27.8930   42.2930 O   0  0  0  0  0  0  0  0  0  0  0  0
   35.9300   28.7400   41.3180 C   0  0  0  0  0  2  0  0  0  0  0  0
   36.4870   30.1470   41.4750 C   0  0  1  0  0  3  0  0  0  0  0  0
   37.9310   30.0730   40.9770 C   0  0  1  0  0  3  0  0  0  0  0  0
   38.5580   24.3760   42.3080 C   0  0  0  0  0  0  0  0  0  0  0  0
   37.9010   25.6070   42.0870 C   0  0  0  0  0  0  0  0  0  0  0  0
   38.4220   26.7470   42.7090 C   0  0  0  0  0  0  0  0  0  0  0  0
   39.5310   26.6000   43.4890 N   0  0  0  0  0  0  0  0  0  0  0  0
   40.1290   25.4140   43.6770 C   0  0  0  0  0  0  0  0  0  0  0  0
   39.6400   24.3080   43.0850 N   0  0  0  0  0  0  0  0  0  0  0  0
   37.0220   25.7200   41.4670 H   0  0  0  0  0  0  0  0  0  0  0  0
   41.0160   25.3900   44.3210 H   0  0  0  0  0  0  0  0  0  0  0  0
   38.0370   23.2700   41.6930 O   0  0  0  0  0  0  0  0  0  0  0  0
   37.7120   22.4320   42.1620 H   0  0  0  0  0  0  0  0  0  0  0  0
   39.7960   29.0800   41.9460 O   0  0  0  0  0  0  0  0  0  0  0  0
   40.2560   29.7230   41.3200 H   0  0  0  0  0  0  0  0  0  0  0  0
   35.7540   30.9710   40.6300 O   0  0  0  0  0  0  0  0  0  0  0  0
   34.7940   30.8360   40.8360 H   0  0  0  0  0  0  0  0  0  0  0  0
   38.6380   31.1670   41.4160 O   0  0  0  0  0  0  0  0  0  0  0  0
   38.8920   31.8020   40.7000 H   0  0  0  0  0  0  0  0  0  0  0  0
  1 17  1  1  0  0  0
  1  2  1  0  0  0  0
  2  9  1  6  0  0  0
  3  2  1  0  0  0  0
  4  5  1  0  0  0  0
  4  3  1  0  0  0  0
  5 19  1  6  0  0  0
  6 21  1  1  0  0  0
  6  1  1  0  0  0  0
  6  5  1  0  0  0  0
  7 12  1  0  0  0  0
  8  7  2  0  0  0  0
  8  9  1  0  0  0  0
  9 10  2  0  0  0  0
 10 11  1  0  0  0  0
 11 14  1  0  0  0  0
 12 11  2  0  0  0  0
 13  8  1  0  0  0  0
 15 16  1  0  0  0  0
 15  7  1  0  0  0  0
 18 17  1  0  0  0  0
 19 20  1  0  0  0  0
 22 21  1  0  0  0  0
M  END
>  <minimizedAffinity>
-5.08663416

$$$$

 OpenBabel03242523483D

 22 23  0  0  1  0  0  0  0  0999 V2000
   38.5940   25.5280   41.8500 C   0  0  1  0  0  3  0  0  0  0  0  0
   38.5200   26.9240   42.3910 C   0  0  1  0  0  3  0  0  0  0  0  0
   39.7170   27.6180   42.3650 O   0  0  0  0  0  0  0  0  0  0  0  0
   40.8240   26.7880   42.2690 C   0  0  0  0  0  2  0  0  0  0  0  0
   40.6710   25.5670   43.1630 C   0  0  1  0  0  3  0  0  0  0  0  0
   39.6560   24.6670   42.4570 C   0  0  1  0  0  3  0  0  0  0  0  0
   36.1340   29.5730   41.1020 C   0  0  0  0  0  0  0  0  0  0  0  0
   37.0730   28.9320   41.9400 C   0  0  0  0  0  0  0  0  0  0  0  0
   37.5310   27.6640   41.5620 C   0  0  0  0  0  0  0  0  0  0  0  0
   37.0430   27.1270   40.4070 N   0  0  0  0  0  0  0  0  0  0  0  0
   36.1510   27.7650   39.6350 C   0  0  0  0  0  0  0  0  0  0  0  0
   35.7010   28.9840   39.9860 N   0  0  0  0  0  0  0  0  0  0  0  0
   37.4580   29.3620   42.8560 H   0  0  0  0  0  0  0  0  0  0  0  0
   35.8130   27.2570   38.7230 H   0  0  0  0  0  0  0  0  0  0  0  0
   35.6960   30.8100   41.4860 O   0  0  0  0  0  0  0  0  0  0  0  0
   34.7310   31.0670   41.6630 H   0  0  0  0  0  0  0  0  0  0  0  0
   37.3620   24.9270   42.1870 O   0  0  0  0  0  0  0  0  0  0  0  0
   37.4360   23.9340   42.0310 H   0  0  0  0  0  0  0  0  0  0  0  0
   41.9050   24.9280   43.1950 O   0  0  0  0  0  0  0  0  0  0  0  0
   42.5850   25.6000   43.4540 H   0  0  0  0  0  0  0  0  0  0  0  0
   39.1600   23.7340   43.3360 O   0  0  0  0  0  0  0  0  0  0  0  0
   39.4480   22.8050   43.1480 H   0  0  0  0  0  0  0  0  0  0  0  0
  1 17  1  1  0  0  0
  1  2  1  0  0  0  0
  1  6  1  0  0  0  0
  2  9  1  6  0  0  0
  3  2  1  0  0  0  0
  4  3  1  0  0  0  0
  4  5  1  0  0  0  0
  5 19  1  6  0  0  0
  6  5  1  0  0  0  0
  6 21  1  1  0  0  0
  7 15  1  0  0  0  0
  7  8  1  0  0  0  0
  8 13  1  0  0  0  0
  9  8  2  0  0  0  0
 10  9  1  0  0  0  0
 11 12  1  0  0  0  0
 11 10  2  0  0  0  0
 12  7  2  0  0  0  0
 14 11  1  0  0  0  0
 15 16  1  0  0  0  0
 18 17  1  0  0  0  0
 19 20  1  0  0  0  0
 22 21  1  0  0  0  0
M  END
>  <minimizedAffinity>
-5.02188063

$$$$

 OpenBabel03242523483D

 22 23  0  0  1  0  0  0  0  0999 V2000
   39.3490   31.0100   40.6440 C   0  0  1  0  0  3  0  0  0  0  0  0
   39.2600   31.8040   39.3760 C   0  0  1  0  0  3  0  0  0  0  0  0
   38.3030   32.8030   39.3850 O   0  0  0  0  0  0  0  0  0  0  0  0
   37.3280   32.6120   40.3530 C   0  0  0  0  0  2  0  0  0  0  0  0
   36.9060   31.1530   40.4220 C   0  0  1  0  0  3  0  0  0  0  0  0
   38.0560   30.4260   41.1200 C   0  0  1  0  0  3  0  0  0  0  0  0
   42.2070   33.5940   37.7980 C   0  0  0  0  0  0  0  0  0  0  0  0
   40.9230   33.0180   37.9300 C   0  0  0  0  0  0  0  0  0  0  0  0
   40.5920   32.4320   39.1580 C   0  0  0  0  0  0  0  0  0  0  0  0
   41.5270   32.4550   40.1500 N   0  0  0  0  0  0  0  0  0  0  0  0
   42.7370   33.0110   39.9890 C   0  0  0  0  0  0  0  0  0  0  0  0
   43.0710   33.5780   38.8140 N   0  0  0  0  0  0  0  0  0  0  0  0
   40.1840   33.0020   37.1400 H   0  0  0  0  0  0  0  0  0  0  0  0
   43.4260   32.9830   40.8420 H   0  0  0  0  0  0  0  0  0  0  0  0
   42.5150   34.1610   36.5920 O   0  0  0  0  0  0  0  0  0  0  0  0
   43.2910   33.8960   35.9960 H   0  0  0  0  0  0  0  0  0  0  0  0
   40.1880   29.9140   40.3450 O   0  0  0  0  0  0  0  0  0  0  0  0
   40.1170   29.2420   41.0940 H   0  0  0  0  0  0  0  0  0  0  0  0
   35.7740   31.0930   41.2260 O   0  0  0  0  0  0  0  0  0  0  0  0
   35.1160   31.7420   40.8670 H   0  0  0  0  0  0  0  0  0  0  0  0
   37.9610   29.0720   40.9020 O   0  0  0  0  0  0  0  0  0  0  0  0
   37.7280   28.5460   41.7080 H   0  0  0  0  0  0  0  0  0  0  0  0
  1 17  1  6  0  0  0
  1  6  1  0  0  0  0
  2  9  1  1  0  0  0
  2  3  1  0  0  0  0
  2  1  1  0  0  0  0
  3  4  1  0  0  0  0
  4  5  1  0  0  0  0
  5  6  1  0  0  0  0
  5 19  1  1  0  0  0
  6 21  1  6  0  0  0
  7  8  2  0  0  0  0
  7 12  1  0  0  0  0
  8  9  1  0  0  0  0
  9 10  2  0  0  0  0
 11 10  1  0  0  0  0
 11 14  1  0  0  0  0
 12 11  2  0  0  0  0
 13  8  1  0  0  0  0
 15  7  1  0  0  0  0
 16 15  1  0  0  0  0
 17 18  1  0  0  0  0
 20 19  1  0  0  0  0
 21 22  1  0  0  0  0
M  END
>  <minimizedAffinity>
-5.00346994

$$$$

 OpenBabel03242523483D

 22 23  0  0  1  0  0  0  0  0999 V2000
   38.9350   26.2410   40.9310 C   0  0  1  0  0  3  0  0  0  0  0  0
   38.0780   26.9370   41.9460 C   0  0  1  0  0  3  0  0  0  0  0  0
   38.5660   26.8980   43.2400 O   0  0  0  0  0  0  0  0  0  0  0  0
   39.4890   25.8830   43.4410 C   0  0  0  0  0  2  0  0  0  0  0  0
   39.0470   24.5990   42.7560 C   0  0  1  0  0  3  0  0  0  0  0  0
   39.2910   24.8270   41.2630 C   0  0  1  0  0  3  0  0  0  0  0  0
   36.7470   30.4180   41.2510 C   0  0  0  0  0  0  0  0  0  0  0  0
   36.7720   29.0690   41.6710 C   0  0  0  0  0  0  0  0  0  0  0  0
   37.9710   28.3610   41.5270 C   0  0  0  0  0  0  0  0  0  0  0  0
   39.0400   29.0160   40.9910 N   0  0  0  0  0  0  0  0  0  0  0  0
   38.9790   30.2980   40.6020 C   0  0  0  0  0  0  0  0  0  0  0  0
   37.8340   30.9930   40.7340 N   0  0  0  0  0  0  0  0  0  0  0  0
   35.9220   28.5530   42.0970 H   0  0  0  0  0  0  0  0  0  0  0  0
   39.8890   30.7440   40.1810 H   0  0  0  0  0  0  0  0  0  0  0  0
   35.5680   31.0960   41.3980 O   0  0  0  0  0  0  0  0  0  0  0  0
   35.0430   31.5370   40.6510 H   0  0  0  0  0  0  0  0  0  0  0  0
   38.1570   26.1840   39.7550 O   0  0  0  0  0  0  0  0  0  0  0  0
   38.6000   25.5500   39.1080 H   0  0  0  0  0  0  0  0  0  0  0  0
   39.8870   23.5860   43.2060 O   0  0  0  0  0  0  0  0  0  0  0  0
   39.8710   23.6020   44.1970 H   0  0  0  0  0  0  0  0  0  0  0  0
   38.5900   23.9040   40.5240 O   0  0  0  0  0  0  0  0  0  0  0  0
   39.1580   23.2370   40.0620 H   0  0  0  0  0  0  0  0  0  0  0  0
  1 17  1  6  0  0  0
  1  6  1  0  0  0  0
  1  2  1  0  0  0  0
  2  9  1  6  0  0  0
  2  3  1  0  0  0  0
  3  4  1  0  0  0  0
  5 19  1  1  0  0  0
  5  4  1  0  0  0  0
  6 21  1  6  0  0  0
  6  5  1  0  0  0  0
  7 15  1  0  0  0  0
  7  8  1  0  0  0  0
  8 13  1  0  0  0  0
  9  8  2  0  0  0  0
 10  9  1  0  0  0  0
 11 12  1  0  0  0  0
 11 10  2  0  0  0  0
 12  7  2  0  0  0  0
 14 11  1  0  0  0  0
 16 15  1  0  0  0  0
 18 17  1  0  0  0  0
 19 20  1  0  0  0  0
 22 21  1  0  0  0  0
M  END
>  <minimizedAffinity>
-4.93380499

$$$$
