
 OpenBabel03242515233D

 24 25  0  0  1  0  0  0  0  0999 V2000
   43.9650   35.5280   41.4080 C   0  0  0  0  0  0  0  0  0  0  0  0
   44.7080   35.1540   40.6510 H   0  0  0  0  0  0  0  0  0  0  0  0
   43.9670   36.6230   41.4230 H   0  0  0  0  0  0  0  0  0  0  0  0
   44.3520   35.8860   43.7790 C   0  0  0  0  0  0  0  0  0  0  0  0
   44.4260   34.9870   42.7000 C   0  0  0  0  0  0  0  0  0  0  0  0
   44.9130   33.7160   42.9620 C   0  0  0  0  0  0  0  0  0  0  0  0
   45.2860   33.4150   44.2220 N   0  0  0  0  0  0  0  0  0  0  0  0
   45.2040   34.2950   45.2320 C   0  0  0  0  0  0  0  0  0  0  0  0
   44.7310   35.5610   45.0330 N   0  0  0  0  0  0  0  0  0  0  0  0
   43.9850   36.9180   43.7070 H   0  0  0  0  0  0  0  0  0  0  0  0
   44.9520   33.0590   42.1040 H   0  0  0  0  0  0  0  0  0  0  0  0
   45.5190   33.9960   46.2230 H   0  0  0  0  0  0  0  0  0  0  0  0
   42.5600   34.4340   39.6930 C   0  0  1  0  0  3  0  0  0  0  0  0
   42.5750   35.0480   41.0480 C   0  0  2  0  0  3  0  0  0  0  0  0
   41.5980   35.9430   41.3190 O   0  0  0  0  0  0  0  0  0  0  0  0
   40.3680   35.7370   40.8240 C   0  0  0  0  0  2  0  0  0  0  0  0
   40.2170   35.1670   39.4660 C   0  0  1  0  0  3  0  0  0  0  0  0
   41.1970   34.0430   39.2110 C   0  0  1  0  0  3  0  0  0  0  0  0
   43.0610   35.4150   38.8140 O   0  0  0  0  0  0  0  0  0  0  0  0
   43.3210   35.0240   37.9520 H   0  0  0  0  0  0  0  0  0  0  0  0
   38.9370   34.6190   39.3580 O   0  0  0  0  0  0  0  0  0  0  0  0
   38.2650   35.2750   39.0930 H   0  0  0  0  0  0  0  0  0  0  0  0
   41.1530   33.7920   37.8510 O   0  0  0  0  0  0  0  0  0  0  0  0
   40.6650   34.4580   37.3440 H   0  0  0  0  0  0  0  0  0  0  0  0
  1  3  1  0  0  0  0
  1  5  1  0  0  0  0
  2  1  1  0  0  0  0
  4  9  1  0  0  0  0
  5  6  1  0  0  0  0
  5  4  2  0  0  0  0
  6  7  2  0  0  0  0
  7  8  1  0  0  0  0
  8 12  1  0  0  0  0
  9  8  2  0  0  0  0
 10  4  1  0  0  0  0
 11  6  1  0  0  0  0
 13 19  1  6  0  0  0
 13 14  1  0  0  0  0
 14 15  1  0  0  0  0
 14  1  1  6  0  0  0
 16 15  1  0  0  0  0
 17 21  1  1  0  0  0
 17 16  1  0  0  0  0
 18 23  1  6  0  0  0
 18 17  1  0  0  0  0
 18 13  1  0  0  0  0
 20 19  1  0  0  0  0
 22 21  1  0  0  0  0
 24 23  1  0  0  0  0
M  END
>  <minimizedAffinity>
-5.20062685

>  <minimizedRMSD>
0.821770906

$$$$
