
 OpenBabel03252507383D

 41 45  0  0  1  0  0  0  0  0999 V2000
   45.4880   34.5090   44.1070 C   0  0  0  0  0  0  0  0  0  0  0  0
   46.3030   33.4790   44.6480 C   0  0  0  0  0  0  0  0  0  0  0  0
   46.1880   33.2280   46.0050 C   0  0  0  0  0  0  0  0  0  0  0  0
   45.3210   33.9640   46.7380 N   0  0  0  0  0  0  0  0  0  0  0  0
   44.5530   34.9430   46.2010 C   0  0  0  0  0  0  0  0  0  0  0  0
   44.6430   35.2050   44.9000 N   0  0  0  0  0  0  0  0  0  0  0  0
   46.9860   32.8960   44.0820 H   0  0  0  0  0  0  0  0  0  0  0  0
   43.8580   35.5360   46.7790 H   0  0  0  0  0  0  0  0  0  0  0  0
   47.3790   32.5000   47.9960 C   0  0  0  0  0  0  0  0  0  0  0  0
   46.9510   32.2070   46.7090 C   0  0  0  0  0  0  0  0  0  0  0  0
   47.2680   30.9870   46.1880 C   0  0  0  0  0  0  0  0  0  0  0  0
   47.9920   30.0320   46.8750 C   0  0  0  0  0  0  0  0  0  0  0  0
   48.4100   28.7890   46.5640 N   0  0  0  0  0  0  0  0  0  0  0  0
   49.1020   28.2990   47.6580 C   0  0  0  0  0  0  0  0  0  0  0  0
   49.0910   29.2470   48.6010 N   0  0  0  0  0  0  0  0  0  0  0  0
   48.4170   30.3110   48.1420 C   0  0  0  0  0  0  0  0  0  0  0  0
   48.1120   31.5430   48.7040 C   0  0  0  0  0  0  0  0  0  0  0  0
   47.1790   33.4370   48.4980 H   0  0  0  0  0  0  0  0  0  0  0  0
   46.9410   30.7390   45.1800 H   0  0  0  0  0  0  0  0  0  0  0  0
   48.2210   28.3240   45.6510 H   0  0  0  0  0  0  0  0  0  0  0  0
   49.5240   27.3000   47.6060 H   0  0  0  0  0  0  0  0  0  0  0  0
   48.4450   31.7900   49.7230 H   0  0  0  0  0  0  0  0  0  0  0  0
   45.6040   34.7620   42.7420 O   0  0  0  0  0  0  0  0  0  0  0  0
   44.6840   34.2100   41.8530 C   0  0  0  0  0  0  0  0  0  0  0  0
   45.4470   34.1030   40.7470 C   0  0  0  0  0  0  0  0  0  0  0  0
   44.2210   33.3470   39.5000 S   0  0  0  0  0  0  0  0  0  0  0  0
   42.8900   33.3530   40.8480 C   0  0  0  0  0  0  0  0  0  0  0  0
   43.4630   33.7850   41.6840 N   0  0  0  0  0  0  0  0  0  0  0  0
   46.4230   34.1980   40.0810 H   0  0  0  0  0  0  0  0  0  0  0  0
   40.5480   33.9860   41.2440 C   0  0  1  0  0  3  0  0  0  0  0  0
   41.4190   32.8800   40.7760 C   0  0  1  0  0  3  0  0  0  0  0  0
   41.1590   32.3670   39.5420 O   0  0  0  0  0  0  0  0  0  0  0  0
   40.8080   33.2930   38.5790 C   0  0  0  0  0  2  0  0  0  0  0  0
   39.4580   33.8530   38.9770 C   0  0  1  0  0  3  0  0  0  0  0  0
   39.7280   34.6780   40.2260 C   0  0  2  0  0  3  0  0  0  0  0  0
   39.6490   33.4960   42.2190 O   0  0  0  0  0  0  0  0  0  0  0  0
   39.3570   32.6150   41.8500 H   0  0  0  0  0  0  0  0  0  0  0  0
   38.9040   34.6570   38.0000 O   0  0  0  0  0  0  0  0  0  0  0  0
   38.4750   34.0300   37.3350 H   0  0  0  0  0  0  0  0  0  0  0  0
   40.3310   35.8710   39.7940 O   0  0  0  0  0  0  0  0  0  0  0  0
   39.6890   36.4460   39.3110 H   0  0  0  0  0  0  0  0  0  0  0  0
  1  2  2  0  0  0  0
  1  6  1  0  0  0  0
  2  3  1  0  0  0  0
  3 10  1  0  0  0  0
  3  4  2  0  0  0  0
  5  4  1  0  0  0  0
  5  8  1  0  0  0  0
  6  5  2  0  0  0  0
  7  2  1  0  0  0  0
  9 18  1  0  0  0  0
  9 17  1  0  0  0  0
 10  9  2  0  0  0  0
 11 10  1  0  0  0  0
 11 12  2  0  0  0  0
 12 16  1  0  0  0  0
 13 12  1  0  0  0  0
 13 14  1  0  0  0  0
 14 15  2  0  0  0  0
 16 15  1  0  0  0  0
 16 17  2  0  0  0  0
 17 22  1  0  0  0  0
 19 11  1  0  0  0  0
 20 13  1  0  0  0  0
 21 14  1  0  0  0  0
 23  1  1  0  0  0  0
 24 23  1  0  0  0  0
 25 24  2  0  0  0  0
 26 25  1  0  0  0  0
 26 27  1  0  0  0  0
 27 28  2  0  0  0  0
 28 24  1  0  0  0  0
 29 25  1  0  0  0  0
 30 36  1  1  0  0  0
 31 27  1  6  0  0  0
 31 30  1  0  0  0  0
 32 31  1  0  0  0  0
 33 34  1  0  0  0  0
 33 32  1  0  0  0  0
 34 38  1  6  0  0  0
 34 35  1  0  0  0  0
 35 40  1  6  0  0  0
 35 30  1  0  0  0  0
 37 36  1  0  0  0  0
 39 38  1  0  0  0  0
 41 40  1  0  0  0  0
M  END
>  <minimizedAffinity>
-6.88657284

>  <minimizedRMSD>
2.09321928

$$$$
