
 OpenBabel03252506193D

 26 27  0  0  1  0  0  0  0  0999 V2000
   44.7370   35.5040   43.5860 C   0  0  0  0  0  0  0  0  0  0  0  0
   43.9170   35.3920   42.4220 C   0  0  0  0  0  0  0  0  0  0  0  0
   43.8120   34.1120   41.8490 C   0  0  0  0  0  0  0  0  0  0  0  0
   44.4830   33.0660   42.4190 N   0  0  0  0  0  0  0  0  0  0  0  0
   45.2550   33.2300   43.5330 C   0  0  0  0  0  0  0  0  0  0  0  0
   45.3640   34.4530   44.0940 N   0  0  0  0  0  0  0  0  0  0  0  0
   43.4340   36.2750   42.0550 H   0  0  0  0  0  0  0  0  0  0  0  0
   43.2020   34.0090   40.9760 H   0  0  0  0  0  0  0  0  0  0  0  0
   45.0970   30.8410   44.1040 C   0  0  2  0  0  3  0  0  0  0  0  0
   45.9640   32.0830   44.1240 C   0  0  1  0  0  3  0  0  0  0  0  0
   47.1380   31.7500   43.4460 O   0  0  0  0  0  0  0  0  0  0  0  0
   47.8710   30.9090   44.2800 C   0  0  0  0  0  2  0  0  0  0  0  0
   47.1600   29.6220   44.6040 C   0  0  2  0  0  3  0  0  0  0  0  0
   45.7380   29.8560   45.0730 C   0  0  2  0  0  3  0  0  0  0  0  0
   45.0700   30.2250   42.8570 O   0  0  0  0  0  0  0  0  0  0  0  0
   44.5190   30.7050   42.1890 H   0  0  0  0  0  0  0  0  0  0  0  0
   47.8400   29.0340   45.6820 O   0  0  0  0  0  0  0  0  0  0  0  0
   48.6040   28.5430   45.2810 H   0  0  0  0  0  0  0  0  0  0  0  0
   45.0200   28.6610   44.9920 O   0  0  0  0  0  0  0  0  0  0  0  0
   44.3290   28.6160   45.7040 H   0  0  0  0  0  0  0  0  0  0  0  0
   44.8530   36.8210   44.1930 C   0  0  0  0  0  3  0  0  0  0  0  0
   45.2660   37.8330   43.4620 C   0  0  0  0  0  3  0  0  0  0  0  0
   45.4140   39.2080   43.9750 C   0  0  0  0  0  0  0  0  0  0  0  0
   44.4110   39.7070   43.8640 H   0  0  0  0  0  0  0  0  0  0  0  0
   46.0980   39.7970   43.3600 H   0  0  0  0  0  0  0  0  0  0  0  0
   45.6330   39.2410   45.0510 H   0  0  0  0  0  0  0  0  0  0  0  0
  1  6  1  0  0  0  0
  1 21  1  0  0  0  0
  2  1  2  0  0  0  0
  3  4  2  0  0  0  0
  3  2  1  0  0  0  0
  4  5  1  0  0  0  0
  5  6  2  0  0  0  0
  7  2  1  0  0  0  0
  8  3  1  0  0  0  0
  9 15  1  6  0  0  0
  9 10  1  0  0  0  0
  9 14  1  0  0  0  0
 10  5  1  6  0  0  0
 11 10  1  0  0  0  0
 11 12  1  0  0  0  0
 12 13  1  0  0  0  0
 13 14  1  0  0  0  0
 13 17  1  1  0  0  0
 14 19  1  6  0  0  0
 16 15  1  0  0  0  0
 18 17  1  0  0  0  0
 19 20  1  0  0  0  0
 22 23  1  0  0  0  0
 22 21  2  0  0  0  0
 23 26  1  0  0  0  0
 24 23  1  0  0  0  0
 25 23  1  0  0  0  0
M  END
>  <minimizedAffinity>
-3.09074569

>  <minimizedRMSD>
0.363694459

$$$$
