
 OpenBabel03252507383D

 41 45  0  0  1  0  0  0  0  0999 V2000
   45.5440   34.7980   43.5420 C   0  0  0  0  0  0  0  0  0  0  0  0
   46.2640   33.7260   44.1340 C   0  0  0  0  0  0  0  0  0  0  0  0
   46.0630   33.5010   45.4860 C   0  0  0  0  0  0  0  0  0  0  0  0
   45.2060   34.2980   46.1650 N   0  0  0  0  0  0  0  0  0  0  0  0
   44.5290   35.3140   45.5780 C   0  0  0  0  0  0  0  0  0  0  0  0
   44.7030   35.5540   44.2820 N   0  0  0  0  0  0  0  0  0  0  0  0
   46.9380   33.0960   43.6110 H   0  0  0  0  0  0  0  0  0  0  0  0
   43.8430   35.9570   46.1130 H   0  0  0  0  0  0  0  0  0  0  0  0
   47.0230   32.6970   47.5700 C   0  0  0  0  0  0  0  0  0  0  0  0
   46.7240   32.4440   46.2390 C   0  0  0  0  0  0  0  0  0  0  0  0
   47.0630   31.2280   45.7230 C   0  0  0  0  0  0  0  0  0  0  0  0
   47.6880   30.2390   46.4570 C   0  0  0  0  0  0  0  0  0  0  0  0
   48.1060   28.9910   46.1600 N   0  0  0  0  0  0  0  0  0  0  0  0
   48.6690   28.4600   47.3060 C   0  0  0  0  0  0  0  0  0  0  0  0
   48.5830   29.3860   48.2670 N   0  0  0  0  0  0  0  0  0  0  0  0
   47.9870   30.4780   47.7670 C   0  0  0  0  0  0  0  0  0  0  0  0
   47.6570   31.7060   48.3250 C   0  0  0  0  0  0  0  0  0  0  0  0
   46.7970   33.6280   48.0720 H   0  0  0  0  0  0  0  0  0  0  0  0
   46.8350   31.0110   44.6810 H   0  0  0  0  0  0  0  0  0  0  0  0
   48.0000   28.5520   45.2210 H   0  0  0  0  0  0  0  0  0  0  0  0
   49.0690   27.4510   47.2730 H   0  0  0  0  0  0  0  0  0  0  0  0
   47.8880   31.9200   49.3790 H   0  0  0  0  0  0  0  0  0  0  0  0
   45.7460   35.0250   42.1820 O   0  0  0  0  0  0  0  0  0  0  0  0
   44.6930   34.8580   41.2860 C   0  0  0  0  0  0  0  0  0  0  0  0
   45.0250   33.6720   40.7370 C   0  0  0  0  0  0  0  0  0  0  0  0
   43.6010   33.4030   39.4990 S   0  0  0  0  0  0  0  0  0  0  0  0
   42.8490   35.0530   40.0490 C   0  0  0  0  0  0  0  0  0  0  0  0
   43.5900   35.3610   40.8040 N   0  0  0  0  0  0  0  0  0  0  0  0
   45.6710   32.6950   40.5590 H   0  0  0  0  0  0  0  0  0  0  0  0
   41.3440   35.4010   38.1380 C   0  0  1  0  0  3  0  0  0  0  0  0
   41.5590   35.7520   39.5630 C   0  0  1  0  0  3  0  0  0  0  0  0
   40.5390   35.4910   40.4260 O   0  0  0  0  0  0  0  0  0  0  0  0
   39.8650   34.3050   40.2030 C   0  0  0  0  0  2  0  0  0  0  0  0
   39.1310   34.4560   38.8860 C   0  0  1  0  0  3  0  0  0  0  0  0
   40.2240   34.4840   37.8280 C   0  0  2  0  0  3  0  0  0  0  0  0
   41.1140   36.5800   37.3920 O   0  0  0  0  0  0  0  0  0  0  0  0
   40.5070   37.1170   37.9780 H   0  0  0  0  0  0  0  0  0  0  0  0
   38.2670   33.4090   38.6320 O   0  0  0  0  0  0  0  0  0  0  0  0
   37.4260   33.6110   39.1530 H   0  0  0  0  0  0  0  0  0  0  0  0
   40.6650   33.1590   37.6730 O   0  0  0  0  0  0  0  0  0  0  0  0
   39.9780   32.6000   37.2340 H   0  0  0  0  0  0  0  0  0  0  0  0
  1  2  2  0  0  0  0
  1  6  1  0  0  0  0
  2  3  1  0  0  0  0
  3  4  2  0  0  0  0
  3 10  1  0  0  0  0
  5  8  1  0  0  0  0
  5  4  1  0  0  0  0
  6  5  2  0  0  0  0
  7  2  1  0  0  0  0
  9 18  1  0  0  0  0
  9 17  1  0  0  0  0
 10  9  2  0  0  0  0
 11 10  1  0  0  0  0
 11 12  2  0  0  0  0
 12 16  1  0  0  0  0
 13 12  1  0  0  0  0
 13 14  1  0  0  0  0
 14 15  2  0  0  0  0
 16 15  1  0  0  0  0
 16 17  2  0  0  0  0
 17 22  1  0  0  0  0
 19 11  1  0  0  0  0
 20 13  1  0  0  0  0
 21 14  1  0  0  0  0
 23  1  1  0  0  0  0
 24 23  1  0  0  0  0
 25 24  2  0  0  0  0
 26 27  1  0  0  0  0
 26 25  1  0  0  0  0
 27 28  2  0  0  0  0
 28 24  1  0  0  0  0
 29 25  1  0  0  0  0
 30 36  1  6  0  0  0
 30 31  1  0  0  0  0
 31 27  1  1  0  0  0
 31 32  1  0  0  0  0
 33 32  1  0  0  0  0
 34 38  1  6  0  0  0
 34 33  1  0  0  0  0
 35 40  1  1  0  0  0
 35 30  1  0  0  0  0
 35 34  1  0  0  0  0
 36 37  1  0  0  0  0
 38 39  1  0  0  0  0
 41 40  1  0  0  0  0
M  END
>  <minimizedAffinity>
-7.15326309

>  <minimizedRMSD>
0.241341963

$$$$
