
 OpenBabel03242511473D

 47 49  0  0  1  0  0  0  0  0999 V2000
   44.7250   35.7470   44.6330 C   0  0  0  0  0  0  0  0  0  0  0  0
   44.0860   35.9060   43.3790 C   0  0  0  0  0  0  0  0  0  0  0  0
   44.0880   34.8120   42.5350 C   0  0  0  0  0  0  0  0  0  0  0  0
   44.6830   33.6680   42.9280 N   0  0  0  0  0  0  0  0  0  0  0  0
   45.2750   33.5750   44.1320 C   0  0  0  0  0  0  0  0  0  0  0  0
   45.3040   34.5800   44.9780 N   0  0  0  0  0  0  0  0  0  0  0  0
   44.7300   36.5990   45.3040 H   0  0  0  0  0  0  0  0  0  0  0  0
   43.6170   36.8500   43.1010 H   0  0  0  0  0  0  0  0  0  0  0  0
   45.9020   32.2870   44.4850 C   0  0  0  0  0  0  0  0  0  0  0  0
   45.0610   31.5740   44.6840 H   0  0  0  0  0  0  0  0  0  0  0  0
   46.5230   31.8700   43.6680 H   0  0  0  0  0  0  0  0  0  0  0  0
   46.7140   32.4670   45.7460 C   0  0  0  0  0  0  0  0  0  0  0  0
   46.8260   33.5630   45.9790 H   0  0  0  0  0  0  0  0  0  0  0  0
   47.7550   32.1120   45.5410 H   0  0  0  0  0  0  0  0  0  0  0  0
   46.1370   31.7800   46.8770 C   0  0  0  0  0  0  0  0  0  0  0  0
   45.3860   32.2920   47.8970 C   0  0  0  0  0  0  0  0  0  0  0  0
   44.8850   31.5540   48.9220 C   0  0  0  0  0  0  0  0  0  0  0  0
   45.1520   30.2000   48.9350 C   0  0  0  0  0  0  0  0  0  0  0  0
   45.9060   29.6730   47.9150 C   0  0  0  0  0  0  0  0  0  0  0  0
   46.4020   30.4470   46.8870 C   0  0  0  0  0  0  0  0  0  0  0  0
   45.1960   33.3710   47.8510 H   0  0  0  0  0  0  0  0  0  0  0  0
   44.3020   32.0660   49.6760 H   0  0  0  0  0  0  0  0  0  0  0  0
   44.7250   29.6580   49.7800 H   0  0  0  0  0  0  0  0  0  0  0  0
   46.0240   28.5890   48.0750 H   0  0  0  0  0  0  0  0  0  0  0  0
   48.5050   29.3400   46.4150 C   0  0  0  0  0  0  0  0  0  0  0  0
   49.3190   29.6840   47.3440 O   0  0  0  0  0  0  0  0  0  0  0  0
   47.1420   29.5840   46.0080 N   0  0  0  0  0  0  0  0  0  0  0  0
   49.2860   28.7230   45.9770 H   0  0  0  0  0  0  0  0  0  0  0  0
   46.9190   29.0820   45.1230 H   0  0  0  0  0  0  0  0  0  0  0  0
   43.4170   34.9890   41.2240 C   0  0  0  0  0  0  0  0  0  0  0  0
   43.9960   35.7260   40.6380 H   0  0  0  0  0  0  0  0  0  0  0  0
   43.4620   34.0390   40.6710 H   0  0  0  0  0  0  0  0  0  0  0  0
   41.9820   35.4710   41.3980 C   0  0  0  0  0  0  0  0  0  0  0  0
   42.0200   36.4490   41.8980 H   0  0  0  0  0  0  0  0  0  0  0  0
   41.3990   34.7580   42.0080 H   0  0  0  0  0  0  0  0  0  0  0  0
   41.9870   34.8960   38.9840 C   0  0  1  0  0  3  0  0  0  0  0  0
   41.2430   35.5420   40.0680 C   0  0  1  0  0  3  0  0  0  0  0  0
   39.9590   35.1540   40.3270 O   0  0  0  0  0  0  0  0  0  0  0  0
   39.2660   34.6270   39.2690 C   0  0  0  0  0  2  0  0  0  0  0  0
   39.9930   33.3490   38.8930 C   0  0  1  0  0  3  0  0  0  0  0  0
   41.2620   33.8420   38.2030 C   0  0  2  0  0  3  0  0  0  0  0  0
   42.4830   35.8250   38.0460 O   0  0  0  0  0  0  0  0  0  0  0  0
   42.3910   36.7460   38.4040 H   0  0  0  0  0  0  0  0  0  0  0  0
   40.3170   32.5860   40.0170 O   0  0  0  0  0  0  0  0  0  0  0  0
   39.8680   32.9200   40.8300 H   0  0  0  0  0  0  0  0  0  0  0  0
   42.1050   32.7550   37.9130 O   0  0  0  0  0  0  0  0  0  0  0  0
   41.8760   32.0010   38.5420 H   0  0  0  0  0  0  0  0  0  0  0  0
  1  6  1  0  0  0  0
  1  7  1  0  0  0  0
  2  1  2  0  0  0  0
  3  4  2  0  0  0  0
  3  2  1  0  0  0  0
  4  5  1  0  0  0  0
  5  9  1  0  0  0  0
  5  6  2  0  0  0  0
  8  2  1  0  0  0  0
  9 10  1  0  0  0  0
  9 12  1  0  0  0  0
 11  9  1  0  0  0  0
 12 13  1  0  0  0  0
 12 15  1  0  0  0  0
 14 12  1  0  0  0  0
 15 20  2  0  0  0  0
 15 16  1  0  0  0  0
 16 17  2  0  0  0  0
 17 18  1  0  0  0  0
 17 22  1  0  0  0  0
 18 23  1  0  0  0  0
 19 24  1  0  0  0  0
 19 18  2  0  0  0  0
 20 19  1  0  0  0  0
 21 16  1  0  0  0  0
 25 26  2  0  0  0  0
 27 25  1  0  0  0  0
 27 20  1  0  0  0  0
 28 25  1  0  0  0  0
 29 27  1  0  0  0  0
 30 33  1  0  0  0  0
 30  3  1  0  0  0  0
 31 30  1  0  0  0  0
 32 30  1  0  0  0  0
 33 34  1  0  0  0  0
 33 35  1  0  0  0  0
 36 42  1  6  0  0  0
 36 37  1  0  0  0  0
 37 38  1  0  0  0  0
 37 33  1  1  0  0  0
 39 38  1  0  0  0  0
 40 39  1  0  0  0  0
 40 44  1  1  0  0  0
 41 46  1  1  0  0  0
 41 40  1  0  0  0  0
 41 36  1  0  0  0  0
 42 43  1  0  0  0  0
 44 45  1  0  0  0  0
 46 47  1  0  0  0  0
M  END
>  <minimizedAffinity>
-6.28030348

>  <minimizedRMSD>
0.781657577

$$$$
