
 OpenBabel03242519313D

 51 54  0  0  1  0  0  0  0  0999 V2000
   50.7220   31.4750   42.3470 C   0  0  0  0  0  0  0  0  0  0  0  0
   51.3460   31.2270   41.1890 N   0  0  0  0  0  0  0  0  0  0  0  0
   52.0540   30.0730   41.3020 C   0  0  0  0  0  0  0  0  0  0  0  0
   51.8530   29.6180   42.5550 N   0  0  0  0  0  0  0  0  0  0  0  0
   51.0460   30.4590   43.2030 N   0  0  0  0  0  0  0  0  0  0  0  0
   52.6580   29.6180   40.5310 H   0  0  0  0  0  0  0  0  0  0  0  0
   47.9330   33.8190   42.8550 C   0  0  0  0  0  0  0  0  0  0  0  0
   48.6020   35.0580   42.6550 C   0  0  0  0  0  0  0  0  0  0  0  0
   49.9690   35.0600   42.3520 C   0  0  0  0  0  0  0  0  0  0  0  0
   50.5920   33.8390   42.2680 N   0  0  0  0  0  0  0  0  0  0  0  0
   49.8910   32.6680   42.4730 C   0  0  0  0  0  0  0  0  0  0  0  0
   48.5950   32.6610   42.7600 N   0  0  0  0  0  0  0  0  0  0  0  0
   48.1800   36.0230   42.7060 H   0  0  0  0  0  0  0  0  0  0  0  0
   50.5240   35.9700   42.1910 H   0  0  0  0  0  0  0  0  0  0  0  0
   46.5060   33.9430   43.1740 C   0  0  0  0  0  0  0  0  0  0  0  0
   45.7970   34.9450   42.4180 C   0  0  0  0  0  0  0  0  0  0  0  0
   45.3260   36.0960   43.2050 C   0  0  0  0  0  0  0  0  0  0  0  0
   44.4560   35.6350   44.3810 C   0  0  0  0  0  0  0  0  0  0  0  0
   45.0030   34.4520   45.1120 C   0  0  0  0  0  0  0  0  0  0  0  0
   46.4450   34.1730   44.7210 C   0  0  0  0  0  0  0  0  0  0  0  0
   46.0590   32.9090   43.0920 H   0  0  0  0  0  0  0  0  0  0  0  0
   44.8810   34.4870   41.9400 H   0  0  0  0  0  0  0  0  0  0  0  0
   46.3830   35.3350   41.5480 H   0  0  0  0  0  0  0  0  0  0  0  0
   44.6190   36.6830   42.5510 H   0  0  0  0  0  0  0  0  0  0  0  0
   46.0720   36.8240   43.5410 H   0  0  0  0  0  0  0  0  0  0  0  0
   43.4800   35.3030   43.9220 H   0  0  0  0  0  0  0  0  0  0  0  0
   44.2110   36.5080   45.0120 H   0  0  0  0  0  0  0  0  0  0  0  0
   45.0390   34.7270   46.1860 H   0  0  0  0  0  0  0  0  0  0  0  0
   44.3790   33.5370   45.0380 H   0  0  0  0  0  0  0  0  0  0  0  0
   47.0300   35.0790   44.9490 H   0  0  0  0  0  0  0  0  0  0  0  0
   46.7860   33.2560   45.2440 H   0  0  0  0  0  0  0  0  0  0  0  0
   52.4200   28.4370   43.1500 C   0  0  0  0  0  0  0  0  0  0  0  0
   52.2430   27.5220   42.6000 H   0  0  0  0  0  0  0  0  0  0  0  0
   51.9200   28.2790   44.1530 H   0  0  0  0  0  0  0  0  0  0  0  0
   53.8540   28.6300   43.3640 C   0  0  0  0  0  3  0  0  0  0  0  0
   54.5740   29.4470   44.1250 C   0  0  0  0  0  3  0  0  0  0  0  0
   56.1070   29.4290   44.2800 C   0  0  0  0  0  0  0  0  0  0  0  0
   56.3280   29.8580   45.2550 H   0  0  0  0  0  0  0  0  0  0  0  0
   56.3900   28.3640   44.2550 H   0  0  0  0  0  0  0  0  0  0  0  0
   57.8200   29.1370   42.5980 C   0  0  1  0  0  3  0  0  0  0  0  0
   56.7770   30.1080   43.1270 C   0  0  2  0  0  3  0  0  0  0  0  0
   57.2620   31.3650   43.3800 O   0  0  0  0  0  0  0  0  0  0  0  0
   58.3910   31.4310   44.1580 C   0  0  0  0  0  2  0  0  0  0  0  0
   59.5480   30.6090   43.6380 C   0  0  1  0  0  3  0  0  0  0  0  0
   59.0850   29.1830   43.4470 C   0  0  2  0  0  3  0  0  0  0  0  0
   57.3210   27.8330   42.7600 O   0  0  0  0  0  0  0  0  0  0  0  0
   56.6290   27.6300   42.1020 H   0  0  0  0  0  0  0  0  0  0  0  0
   60.0200   31.0870   42.4240 O   0  0  0  0  0  0  0  0  0  0  0  0
   59.4230   30.8360   41.6770 H   0  0  0  0  0  0  0  0  0  0  0  0
   60.0580   28.4680   42.7820 O   0  0  0  0  0  0  0  0  0  0  0  0
   59.7980   27.5390   42.6220 H   0  0  0  0  0  0  0  0  0  0  0  0
  1 11  1  0  0  0  0
  1  5  2  0  0  0  0
  2  3  2  0  0  0  0
  2  1  1  0  0  0  0
  3  4  1  0  0  0  0
  4 32  1  0  0  0  0
  4  5  1  0  0  0  0
  6  3  1  0  0  0  0
  7 15  1  0  0  0  0
  8 13  1  0  0  0  0
  8  7  2  0  0  0  0
  9  8  1  0  0  0  0
 10  9  2  0  0  0  0
 10 11  1  0  0  0  0
 11 12  2  0  0  0  0
 12  7  1  0  0  0  0
 14  9  1  0  0  0  0
 15 20  1  0  0  0  0
 16 15  1  0  0  0  0
 16 17  1  0  0  0  0
 17 25  1  0  0  0  0
 17 18  1  0  0  0  0
 18 27  1  0  0  0  0
 18 19  1  0  0  0  0
 19 28  1  0  0  0  0
 20 30  1  0  0  0  0
 20 19  1  0  0  0  0
 20 31  1  0  0  0  0
 21 15  1  0  0  0  0
 22 16  1  0  0  0  0
 23 16  1  0  0  0  0
 24 17  1  0  0  0  0
 26 18  1  0  0  0  0
 29 19  1  0  0  0  0
 32 35  1  0  0  0  0
 32 34  1  0  0  0  0
 33 32  1  0  0  0  0
 35 36  2  0  0  0  0
 36 37  1  0  0  0  0
 37 38  1  0  0  0  0
 39 37  1  0  0  0  0
 40 46  1  1  0  0  0
 40 41  1  0  0  0  0
 40 45  1  0  0  0  0
 41 42  1  0  0  0  0
 41 37  1  1  0  0  0
 42 43  1  0  0  0  0
 44 48  1  6  0  0  0
 44 43  1  0  0  0  0
 45 50  1  6  0  0  0
 45 44  1  0  0  0  0
 47 46  1  0  0  0  0
 49 48  1  0  0  0  0
 51 50  1  0  0  0  0
M  END
>  <minimizedAffinity>
-4.25420618

>  <minimizedRMSD>
1.63525605

$$$$
