
 OpenBabel03252506193D

 26 27  0  0  1  0  0  0  0  0999 V2000
   44.8930   35.8130   43.7710 C   0  0  0  0  0  0  0  0  0  0  0  0
   44.3670   35.4870   42.4830 C   0  0  0  0  0  0  0  0  0  0  0  0
   44.4580   34.1400   42.0910 C   0  0  0  0  0  0  0  0  0  0  0  0
   45.0300   33.2320   42.9380 N   0  0  0  0  0  0  0  0  0  0  0  0
   45.5180   33.5990   44.1600 C   0  0  0  0  0  0  0  0  0  0  0  0
   45.4370   34.8890   44.5500 N   0  0  0  0  0  0  0  0  0  0  0  0
   43.9390   36.2740   41.8970 H   0  0  0  0  0  0  0  0  0  0  0  0
   44.0690   33.8770   41.1290 H   0  0  0  0  0  0  0  0  0  0  0  0
   46.3180   33.1590   46.4450 C   0  0  2  0  0  3  0  0  0  0  0  0
   46.1280   32.5980   45.0500 C   0  0  1  0  0  3  0  0  0  0  0  0
   45.3580   31.4440   45.1950 O   0  0  0  0  0  0  0  0  0  0  0  0
   46.1790   30.4680   45.7570 C   0  0  0  0  0  2  0  0  0  0  0  0
   46.6960   30.8360   47.1230 C   0  0  2  0  0  3  0  0  0  0  0  0
   47.2950   32.2280   47.1510 C   0  0  2  0  0  3  0  0  0  0  0  0
   45.1420   33.1540   47.1900 O   0  0  0  0  0  0  0  0  0  0  0  0
   44.4980   33.8540   46.9190 H   0  0  0  0  0  0  0  0  0  0  0  0
   47.7420   29.9500   47.4230 O   0  0  0  0  0  0  0  0  0  0  0  0
   47.3050   29.1320   47.7780 H   0  0  0  0  0  0  0  0  0  0  0  0
   47.4030   32.6590   48.4750 O   0  0  0  0  0  0  0  0  0  0  0  0
   48.1870   33.2580   48.5880 H   0  0  0  0  0  0  0  0  0  0  0  0
   44.8040   37.2020   44.1940 C   0  0  0  0  0  3  0  0  0  0  0  0
   45.4570   38.1230   43.5200 C   0  0  0  0  0  3  0  0  0  0  0  0
   45.4310   39.5590   43.8580 C   0  0  0  0  0  0  0  0  0  0  0  0
   44.5360   40.0000   43.3370 H   0  0  0  0  0  0  0  0  0  0  0  0
   46.2940   40.0870   43.4450 H   0  0  0  0  0  0  0  0  0  0  0  0
   45.2590   39.7420   44.9280 H   0  0  0  0  0  0  0  0  0  0  0  0
  1 21  1  0  0  0  0
  1  6  1  0  0  0  0
  2  1  2  0  0  0  0
  3  2  1  0  0  0  0
  3  4  2  0  0  0  0
  4  5  1  0  0  0  0
  5  6  2  0  0  0  0
  7  2  1  0  0  0  0
  8  3  1  0  0  0  0
  9 14  1  0  0  0  0
  9 15  1  1  0  0  0
 10  5  1  6  0  0  0
 10 11  1  0  0  0  0
 10  9  1  0  0  0  0
 11 12  1  0  0  0  0
 12 13  1  0  0  0  0
 13 14  1  0  0  0  0
 13 17  1  6  0  0  0
 14 19  1  1  0  0  0
 16 15  1  0  0  0  0
 17 18  1  0  0  0  0
 19 20  1  0  0  0  0
 22 23  1  0  0  0  0
 22 21  2  0  0  0  0
 23 26  1  0  0  0  0
 24 23  1  0  0  0  0
 25 23  1  0  0  0  0
M  END
>  <minimizedAffinity>
-4.33346367

>  <minimizedRMSD>
1.18581688

$$$$
