
 OpenBabel03242515133D

 30 31  0  0  1  0  0  0  0  0999 V2000
   46.1600   33.3500   46.1380 C   0  0  0  0  0  0  0  0  0  0  0  0
   46.1500   32.3100   45.6990 H   0  0  0  0  0  0  0  0  0  0  0  0
   47.2010   33.5550   46.4050 H   0  0  0  0  0  0  0  0  0  0  0  0
   44.6080   35.9010   43.8660 C   0  0  0  0  0  0  0  0  0  0  0  0
   45.4490   35.7750   42.7320 C   0  0  0  0  0  0  0  0  0  0  0  0
   46.4780   34.8390   42.8170 C   0  0  0  0  0  0  0  0  0  0  0  0
   46.6210   34.1030   43.9680 N   0  0  0  0  0  0  0  0  0  0  0  0
   45.7850   34.2680   45.0240 C   0  0  0  0  0  0  0  0  0  0  0  0
   44.7850   35.1600   44.9730 N   0  0  0  0  0  0  0  0  0  0  0  0
   43.7860   36.6030   43.8870 H   0  0  0  0  0  0  0  0  0  0  0  0
   45.2650   36.3890   41.8750 H   0  0  0  0  0  0  0  0  0  0  0  0
   47.3320   34.7180   41.6500 C   0  0  0  0  0  0  0  0  0  0  0  0
   48.1730   33.6090   41.7890 F   0  0  0  0  0  0  0  0  0  0  0  0
   48.1760   35.8170   41.6670 F   0  0  0  0  0  0  0  0  0  0  0  0
   46.6430   34.5830   40.4790 F   0  0  0  0  0  0  0  0  0  0  0  0
   45.1800   33.3750   47.2540 C   0  0  0  0  0  0  0  0  0  0  0  0
   44.9550   34.3880   47.6320 H   0  0  0  0  0  0  0  0  0  0  0  0
   44.2030   33.0110   46.8300 H   0  0  0  0  0  0  0  0  0  0  0  0
   44.8320   31.1000   48.2510 C   0  0  2  0  0  3  0  0  0  0  0  0
   45.5330   32.4200   48.3420 C   0  0  1  0  0  3  0  0  0  0  0  0
   46.9070   32.2010   48.3850 O   0  0  0  0  0  0  0  0  0  0  0  0
   47.3410   31.2480   47.4950 C   0  0  0  0  0  2  0  0  0  0  0  0
   46.9640   29.8980   48.0500 C   0  0  1  0  0  3  0  0  0  0  0  0
   45.7300   30.0580   48.9270 C   0  0  2  0  0  3  0  0  0  0  0  0
   44.6080   30.6340   46.9810 O   0  0  0  0  0  0  0  0  0  0  0  0
   44.6180   31.2790   46.2590 H   0  0  0  0  0  0  0  0  0  0  0  0
   46.7430   28.9510   47.0500 O   0  0  0  0  0  0  0  0  0  0  0  0
   47.1030   29.2800   46.1740 H   0  0  0  0  0  0  0  0  0  0  0  0
   45.0670   28.8370   49.0320 O   0  0  0  0  0  0  0  0  0  0  0  0
   44.7310   28.6530   49.9460 H   0  0  0  0  0  0  0  0  0  0  0  0
  1  3  1  0  0  0  0
  1 16  1  0  0  0  0
  2  1  1  0  0  0  0
  4 10  1  0  0  0  0
  4  9  1  0  0  0  0
  5  6  1  0  0  0  0
  5  4  2  0  0  0  0
  6  7  2  0  0  0  0
  7  8  1  0  0  0  0
  8  1  1  0  0  0  0
  9  8  2  0  0  0  0
 11  5  1  0  0  0  0
 12 14  1  0  0  0  0
 12 13  1  0  0  0  0
 12  6  1  0  0  0  0
 15 12  1  0  0  0  0
 16 17  1  0  0  0  0
 18 16  1  0  0  0  0
 19 25  1  6  0  0  0
 19 20  1  0  0  0  0
 19 24  1  0  0  0  0
 20 16  1  6  0  0  0
 20 21  1  0  0  0  0
 22 23  1  0  0  0  0
 22 21  1  0  0  0  0
 23 27  1  6  0  0  0
 23 24  1  0  0  0  0
 24 29  1  6  0  0  0
 26 25  1  0  0  0  0
 28 27  1  0  0  0  0
 29 30  1  0  0  0  0
M  END
>  <minimizedAffinity>
-5.74862146

>  <minimizedRMSD>
0.749674618

$$$$
