
 OpenBabel03242518023D

 40 42  0  0  1  0  0  0  0  0999 V2000
   46.2110   31.5980   46.2740 C   0  0  0  0  0  0  0  0  0  0  0  0
   45.3800   32.0750   46.7850 H   0  0  0  0  0  0  0  0  0  0  0  0
   45.8310   30.5670   46.0040 H   0  0  0  0  0  0  0  0  0  0  0  0
   47.6810   32.3610   48.1320 C   0  0  0  0  0  0  0  0  0  0  0  0
   47.3450   31.3920   47.1620 C   0  0  0  0  0  0  0  0  0  0  0  0
   48.1590   30.2510   47.1150 C   0  0  0  0  0  0  0  0  0  0  0  0
   49.1950   30.1370   47.9730 N   0  0  0  0  0  0  0  0  0  0  0  0
   49.4820   31.0880   48.8850 C   0  0  0  0  0  0  0  0  0  0  0  0
   48.7310   32.1830   48.9580 N   0  0  0  0  0  0  0  0  0  0  0  0
   47.1100   33.2770   48.2460 H   0  0  0  0  0  0  0  0  0  0  0  0
   47.9220   29.4950   46.3820 H   0  0  0  0  0  0  0  0  0  0  0  0
   50.4230   29.6430   50.5590 C   0  0  1  0  0  3  0  0  0  0  0  0
   50.6270   30.9480   49.8240 C   0  0  2  0  0  3  0  0  0  0  0  0
   50.8130   32.0200   50.6440 O   0  0  0  0  0  0  0  0  0  0  0  0
   51.2840   31.7330   51.8990 C   0  0  0  0  0  2  0  0  0  0  0  0
   52.2090   30.5540   51.9930 C   0  0  2  0  0  3  0  0  0  0  0  0
   51.6920   29.3240   51.3100 C   0  0  1  0  0  3  0  0  0  0  0  0
   49.3240   29.7780   51.3730 O   0  0  0  0  0  0  0  0  0  0  0  0
   49.0230   28.9390   51.7870 H   0  0  0  0  0  0  0  0  0  0  0  0
   52.3600   30.2620   53.3490 O   0  0  0  0  0  0  0  0  0  0  0  0
   53.1950   29.7550   53.5270 H   0  0  0  0  0  0  0  0  0  0  0  0
   51.4630   28.2490   52.1330 O   0  0  0  0  0  0  0  0  0  0  0  0
   51.6470   28.4970   53.0580 H   0  0  0  0  0  0  0  0  0  0  0  0
   46.7190   32.3180   45.0430 C   0  0  0  0  0  0  0  0  0  0  0  0
   47.8190   32.5640   45.1250 H   0  0  0  0  0  0  0  0  0  0  0  0
   46.6700   31.6020   44.2030 H   0  0  0  0  0  0  0  0  0  0  0  0
   46.2350   34.1960   43.5290 C   0  0  0  0  0  0  0  0  0  0  0  0
   46.0480   33.5940   44.7570 C   0  0  0  0  0  0  0  0  0  0  0  0
   45.2560   34.1250   45.7390 C   0  0  0  0  0  0  0  0  0  0  0  0
   44.6160   35.3180   45.4900 C   0  0  0  0  0  0  0  0  0  0  0  0
   44.7440   35.9840   44.3010 C   0  0  0  0  0  0  0  0  0  0  0  0
   45.5660   35.3840   43.3490 C   0  0  0  0  0  0  0  0  0  0  0  0
   45.0560   33.7400   46.7040 H   0  0  0  0  0  0  0  0  0  0  0  0
   43.9640   35.8190   46.2100 H   0  0  0  0  0  0  0  0  0  0  0  0
   44.2450   36.9250   44.0920 H   0  0  0  0  0  0  0  0  0  0  0  0
   45.6970   35.8820   42.3850 H   0  0  0  0  0  0  0  0  0  0  0  0
   47.2410   33.5490   42.2500 S   0  0  0  0  0  0  0  0  0  0  0  0
   48.7130   33.8030   42.4950 O   0  0  0  0  0  0  0  0  0  0  0  0
   46.9330   34.3030   40.9750 O   0  0  0  0  0  0  0  0  0  0  0  0
   46.9790   32.2420   41.9680 H   0  0  0  0  0  0  0  0  0  0  0  0
  1  2  1  0  0  0  0
  1  5  1  0  0  0  0
  3  1  1  0  0  0  0
  4 10  1  0  0  0  0
  4  9  1  0  0  0  0
  5  4  2  0  0  0  0
  6  5  1  0  0  0  0
  6  7  2  0  0  0  0
  7  8  1  0  0  0  0
  8  9  2  0  0  0  0
 11  6  1  0  0  0  0
 12 17  1  0  0  0  0
 12 18  1  1  0  0  0
 13  8  1  1  0  0  0
 13 12  1  0  0  0  0
 13 14  1  0  0  0  0
 14 15  1  0  0  0  0
 15 16  1  0  0  0  0
 16 20  1  1  0  0  0
 17 16  1  0  0  0  0
 17 22  1  1  0  0  0
 18 19  1  0  0  0  0
 20 21  1  0  0  0  0
 22 23  1  0  0  0  0
 24 25  1  0  0  0  0
 24  1  1  0  0  0  0
 26 24  1  0  0  0  0
 27 28  1  0  0  0  0
 28 24  1  0  0  0  0
 28 29  2  0  0  0  0
 29 33  1  0  0  0  0
 30 29  1  0  0  0  0
 30 34  1  0  0  0  0
 31 30  2  0  0  0  0
 32 27  2  0  0  0  0
 32 31  1  0  0  0  0
 35 31  1  0  0  0  0
 36 32  1  0  0  0  0
 37 38  2  0  0  0  0
 37 27  1  0  0  0  0
 39 37  2  0  0  0  0
 40 37  1  0  0  0  0
M  END
>  <minimizedAffinity>
-5.74856567

>  <minimizedRMSD>
1.14683485

$$$$
