
 OpenBabel03242518023D

 40 42  0  0  1  0  0  0  0  0999 V2000
   46.2410   31.8900   46.0060 C   0  0  0  0  0  0  0  0  0  0  0  0
   45.5040   32.4110   46.6080 H   0  0  0  0  0  0  0  0  0  0  0  0
   45.6730   31.0350   45.5290 H   0  0  0  0  0  0  0  0  0  0  0  0
   47.7110   31.9070   48.0150 C   0  0  0  0  0  0  0  0  0  0  0  0
   47.2770   31.2810   46.8250 C   0  0  0  0  0  0  0  0  0  0  0  0
   47.9000   30.0670   46.4990 C   0  0  0  0  0  0  0  0  0  0  0  0
   48.8550   29.5700   47.3120 N   0  0  0  0  0  0  0  0  0  0  0  0
   49.2400   30.2010   48.4400 C   0  0  0  0  0  0  0  0  0  0  0  0
   48.6710   31.3530   48.7800 N   0  0  0  0  0  0  0  0  0  0  0  0
   47.2880   32.8480   48.3510 H   0  0  0  0  0  0  0  0  0  0  0  0
   47.5850   29.5690   45.5950 H   0  0  0  0  0  0  0  0  0  0  0  0
   49.7850   29.7780   50.7420 C   0  0  1  0  0  0  0  0  0  0  0  0
   50.2950   29.6400   49.3260 C   0  0  2  0  0  0  0  0  0  0  0  0
   51.5320   30.1750   49.1310 O   0  0  0  0  0  0  0  0  0  0  0  0
   52.3160   30.2830   50.2510 C   0  0  0  0  0  0  0  0  0  0  0  0
   52.1210   29.2130   51.2870 C   0  0  2  0  0  0  0  0  0  0  0  0
   50.6860   28.9730   51.6450 C   0  0  1  0  0  0  0  0  0  0  0  0
   49.7450   31.1140   51.0550 O   0  0  0  0  0  0  0  0  0  0  0  0
   49.2940   31.3170   51.9040 H   0  0  0  0  0  0  0  0  0  0  0  0
   52.7880   29.6350   52.4380 O   0  0  0  0  0  0  0  0  0  0  0  0
   53.0160   28.8730   53.0330 H   0  0  0  0  0  0  0  0  0  0  0  0
   50.3570   29.2390   52.9530 O   0  0  0  0  0  0  0  0  0  0  0  0
   51.1370   29.5870   53.4240 H   0  0  0  0  0  0  0  0  0  0  0  0
   46.9280   32.7270   44.9480 C   0  0  0  0  0  0  0  0  0  0  0  0
   47.9410   33.0920   45.2940 H   0  0  0  0  0  0  0  0  0  0  0  0
   47.1640   32.0560   44.1020 H   0  0  0  0  0  0  0  0  0  0  0  0
   46.4810   34.5290   43.3320 C   0  0  0  0  0  0  0  0  0  0  0  0
   46.1910   33.9320   44.5430 C   0  0  0  0  0  0  0  0  0  0  0  0
   45.2350   34.4050   45.4010 C   0  0  0  0  0  0  0  0  0  0  0  0
   44.5300   35.5310   45.0390 C   0  0  0  0  0  0  0  0  0  0  0  0
   44.7520   36.1860   43.8580 C   0  0  0  0  0  0  0  0  0  0  0  0
   45.7390   35.6470   43.0350 C   0  0  0  0  0  0  0  0  0  0  0  0
   44.9460   34.0200   46.3440 H   0  0  0  0  0  0  0  0  0  0  0  0
   43.7490   35.9830   45.6570 H   0  0  0  0  0  0  0  0  0  0  0  0
   44.2030   37.0740   43.5610 H   0  0  0  0  0  0  0  0  0  0  0  0
   45.9490   36.1390   42.0820 H   0  0  0  0  0  0  0  0  0  0  0  0
   47.6970   33.9540   42.2110 S   0  0  0  0  0  0  0  0  0  0  0  0
   49.0880   34.4120   42.5900 O   0  0  0  0  0  0  0  0  0  0  0  0
   47.4410   34.5950   40.8640 O   0  0  0  0  0  0  0  0  0  0  0  0
   47.6340   32.6110   41.9890 H   0  0  0  0  0  0  0  0  0  0  0  0
  1  2  1  0  0  0  0
  1  5  1  0  0  0  0
  3  1  1  0  0  0  0
  4 10  1  0  0  0  0
  4  9  1  0  0  0  0
  5  4  2  0  0  0  0
  6  5  1  0  0  0  0
  6  7  2  0  0  0  0
  7  8  1  0  0  0  0
  8  9  2  0  0  0  0
 11  6  1  0  0  0  0
 12 18  1  1  0  0  0
 12 17  1  0  0  0  0
 13  8  1  6  0  0  0
 13 12  1  0  0  0  0
 14 13  1  0  0  0  0
 14 15  1  0  0  0  0
 15 16  1  0  0  0  0
 16 17  1  0  0  0  0
 16 20  1  1  0  0  0
 17 22  1  1  0  0  0
 18 19  1  0  0  0  0
 20 21  1  0  0  0  0
 22 23  1  0  0  0  0
 24 25  1  0  0  0  0
 24  1  1  0  0  0  0
 26 24  1  0  0  0  0
 27 28  1  0  0  0  0
 28 24  1  0  0  0  0
 28 29  2  0  0  0  0
 29 33  1  0  0  0  0
 30 29  1  0  0  0  0
 30 34  1  0  0  0  0
 31 30  2  0  0  0  0
 32 27  2  0  0  0  0
 32 31  1  0  0  0  0
 35 31  1  0  0  0  0
 36 32  1  0  0  0  0
 37 38  2  0  0  0  0
 37 27  1  0  0  0  0
 39 37  2  0  0  0  0
 40 37  1  0  0  0  0
M  END
>  <minimizedAffinity>
-6.43992949

>  <minimizedRMSD>
1.19230127

$$$$
