
 OpenBabel03242518263D

 48 52  0  0  1  0  0  0  0  0999 V2000
   47.0760   30.4030   45.1020 C   0  0  0  0  0  0  0  0  0  0  0  0
   46.5570   31.6420   45.3260 C   0  0  0  0  0  0  0  0  0  0  0  0
   46.8210   32.2420   46.5400 C   0  0  0  0  0  0  0  0  0  0  0  0
   47.5840   31.6050   47.4900 C   0  0  0  0  0  0  0  0  0  0  0  0
   48.1070   30.3400   47.2440 C   0  0  0  0  0  0  0  0  0  0  0  0
   47.8500   29.7210   46.0250 C   0  0  0  0  0  0  0  0  0  0  0  0
   48.8280   29.9480   48.3690 O   0  0  0  0  0  0  0  0  0  0  0  0
   48.4880   30.8380   49.4250 C   0  0  2  0  0  0  0  0  0  0  0  0
   47.9960   31.9830   48.7820 O   0  0  0  0  0  0  0  0  0  0  0  0
   46.9230   29.8520   44.1790 H   0  0  0  0  0  0  0  0  0  0  0  0
   46.4300   33.2240   46.7640 H   0  0  0  0  0  0  0  0  0  0  0  0
   48.2650   28.7550   45.8720 H   0  0  0  0  0  0  0  0  0  0  0  0
   47.6870   30.4170   50.0760 H   0  0  0  0  0  0  0  0  0  0  0  0
   44.9160   34.2680   43.3180 C   0  0  0  0  0  0  0  0  0  0  0  0
   44.2140   33.5330   42.3820 C   0  0  0  0  0  0  0  0  0  0  0  0
   44.3110   32.1450   42.4510 C   0  0  0  0  0  0  0  0  0  0  0  0
   45.0710   31.5510   43.4070 N   0  0  0  0  0  0  0  0  0  0  0  0
   45.7480   32.3090   44.3100 C   0  0  0  0  0  0  0  0  0  0  0  0
   45.6640   33.6570   44.2580 N   0  0  0  0  0  0  0  0  0  0  0  0
   44.9450   35.3450   43.3990 H   0  0  0  0  0  0  0  0  0  0  0  0
   43.7610   31.5950   41.7180 H   0  0  0  0  0  0  0  0  0  0  0  0
   43.4540   34.2490   41.4320 N   0  0  0  0  0  0  0  0  0  0  0  0
   43.0990   33.5820   40.2100 C   0  0  0  0  0  0  0  0  0  0  0  0
   42.3830   34.4380   39.2340 C   0  0  0  0  0  0  0  0  0  0  0  0
   41.3350   35.2130   39.8190 N   0  0  0  0  0  0  0  0  0  0  0  0
   41.5070   35.6770   41.1360 C   0  0  0  0  0  0  0  0  0  0  0  0
   42.9810   35.5970   41.5360 C   0  0  0  0  0  0  0  0  0  0  0  0
   42.5450   32.6430   40.4730 H   0  0  0  0  0  0  0  0  0  0  0  0
   44.0570   33.2370   39.7370 H   0  0  0  0  0  0  0  0  0  0  0  0
   43.0710   35.1050   38.7080 H   0  0  0  0  0  0  0  0  0  0  0  0
   41.9420   33.7680   38.4550 H   0  0  0  0  0  0  0  0  0  0  0  0
   41.1160   36.0150   39.1820 H   0  0  0  0  0  0  0  0  0  0  0  0
   40.9670   35.0110   41.8420 H   0  0  0  0  0  0  0  0  0  0  0  0
   41.1190   36.6900   41.3330 H   0  0  0  0  0  0  0  0  0  0  0  0
   43.0890   36.0430   42.5420 H   0  0  0  0  0  0  0  0  0  0  0  0
   43.5530   36.2270   40.8220 H   0  0  0  0  0  0  0  0  0  0  0  0
   50.1150   29.8760   51.0050 C   0  0  2  0  0  3  0  0  0  0  0  0
   49.7580   31.0850   50.1870 C   0  0  1  0  0  3  0  0  0  0  0  0
   50.7370   31.4830   49.3070 O   0  0  0  0  0  0  0  0  0  0  0  0
   51.9760   30.9270   49.5130 C   0  0  0  0  0  2  0  0  0  0  0  0
   52.3830   30.8060   50.9470 C   0  0  2  0  0  3  0  0  0  0  0  0
   51.3140   30.2940   51.8630 C   0  0  2  0  0  3  0  0  0  0  0  0
   50.3760   28.7460   50.2630 O   0  0  0  0  0  0  0  0  0  0  0  0
   49.6820   28.0470   50.3400 H   0  0  0  0  0  0  0  0  0  0  0  0
   52.9150   32.0140   51.4010 O   0  0  0  0  0  0  0  0  0  0  0  0
   52.2370   32.7040   51.5110 H   0  0  0  0  0  0  0  0  0  0  0  0
   51.7040   29.2330   52.6590 O   0  0  0  0  0  0  0  0  0  0  0  0
   51.5020   29.4140   53.6290 H   0  0  0  0  0  0  0  0  0  0  0  0
  1  2  2  0  0  0  0
  1  6  1  0  0  0  0
  2  3  1  0  0  0  0
  3 11  1  0  0  0  0
  3  4  2  0  0  0  0
  4  9  1  0  0  0  0
  5  4  1  0  0  0  0
  5  7  1  0  0  0  0
  6  5  2  0  0  0  0
  7  8  1  0  0  0  0
  8 13  1  1  0  0  0
  8 38  1  0  0  0  0
  9  8  1  0  0  0  0
 10  1  1  0  0  0  0
 12  6  1  0  0  0  0
 14 20  1  0  0  0  0
 14 19  1  0  0  0  0
 15 16  1  0  0  0  0
 15 14  2  0  0  0  0
 16 17  2  0  0  0  0
 17 18  1  0  0  0  0
 18  2  1  0  0  0  0
 19 18  2  0  0  0  0
 21 16  1  0  0  0  0
 22 27  1  0  0  0  0
 22 15  1  0  0  0  0
 23 28  1  0  0  0  0
 23 22  1  0  0  0  0
 24 25  1  0  0  0  0
 24 23  1  0  0  0  0
 25 26  1  0  0  0  0
 26 34  1  0  0  0  0
 26 27  1  0  0  0  0
 26 33  1  0  0  0  0
 27 35  1  0  0  0  0
 29 23  1  0  0  0  0
 30 24  1  0  0  0  0
 31 24  1  0  0  0  0
 32 25  1  0  0  0  0
 36 27  1  0  0  0  0
 37 43  1  6  0  0  0
 37 42  1  0  0  0  0
 38 39  1  6  0  0  0
 38 37  1  0  0  0  0
 39 40  1  0  0  0  0
 40 41  1  0  0  0  0
 41 45  1  1  0  0  0
 41 42  1  0  0  0  0
 42 47  1  6  0  0  0
 43 44  1  0  0  0  0
 45 46  1  0  0  0  0
 47 48  1  0  0  0  0
M  END
>  <minimizedAffinity>
-6.36545038

>  <minimizedRMSD>
1.35822392

$$$$
