
 OpenBabel03252505083D

 46 49  0  0  1  0  0  0  0  0999 V2000
   44.5780   35.5780   44.5950 C   0  0  0  0  0  0  0  0  0  0  0  0
   45.2410   35.5930   43.3470 C   0  0  0  0  0  0  0  0  0  0  0  0
   46.3310   34.6820   43.1780 C   0  0  0  0  0  0  0  0  0  0  0  0
   46.6700   33.8680   44.1940 N   0  0  0  0  0  0  0  0  0  0  0  0
   46.0110   33.8860   45.3670 C   0  0  0  0  0  0  0  0  0  0  0  0
   44.9600   34.7410   45.5770 N   0  0  0  0  0  0  0  0  0  0  0  0
   43.7440   36.2430   44.7910 H   0  0  0  0  0  0  0  0  0  0  0  0
   44.9210   36.2720   42.5680 H   0  0  0  0  0  0  0  0  0  0  0  0
   46.4380   32.9630   46.4520 C   0  0  2  0  0  0  0  0  0  0  0  0
   46.9550   31.7350   45.7560 C   0  0  0  0  0  0  0  0  0  0  0  0
   46.0790   30.5550   45.7730 C   0  0  0  0  0  0  0  0  0  0  0  0
   45.7830   30.2880   47.2440 C   0  0  0  0  0  0  0  0  0  0  0  0
   45.0010   31.3650   47.8490 C   0  0  0  0  0  0  0  0  0  0  0  0
   45.3770   32.7350   47.4070 C   0  0  0  0  0  0  0  0  0  0  0  0
   47.2820   33.4840   46.9560 H   0  0  0  0  0  0  0  0  0  0  0  0
   47.2620   31.9440   44.6980 H   0  0  0  0  0  0  0  0  0  0  0  0
   47.9090   31.4440   46.2560 H   0  0  0  0  0  0  0  0  0  0  0  0
   46.6310   29.6970   45.3750 H   0  0  0  0  0  0  0  0  0  0  0  0
   45.1420   30.7490   45.2190 H   0  0  0  0  0  0  0  0  0  0  0  0
   46.7420   30.1960   47.7840 H   0  0  0  0  0  0  0  0  0  0  0  0
   45.1430   29.4050   47.2570 H   0  0  0  0  0  0  0  0  0  0  0  0
   44.2080   31.3510   48.5490 H   0  0  0  0  0  0  0  0  0  0  0  0
   44.6840   33.8740   47.9240 N   0  0  0  0  0  0  0  0  0  0  0  0
   45.3030   34.3720   48.5940 H   0  0  0  0  0  0  0  0  0  0  0  0
   43.7110   34.1070   47.6260 H   0  0  0  0  0  0  0  0  0  0  0  0
   47.0260   34.6770   41.9020 C   0  0  0  0  0  0  0  0  0  0  0  0
   48.1710   35.4010   41.7920 C   0  0  0  0  0  0  0  0  0  0  0  0
   48.8070   35.3700   40.5390 C   0  0  0  0  0  0  0  0  0  0  0  0
   48.2160   34.6140   39.5500 C   0  0  0  0  0  0  0  0  0  0  0  0
   47.0590   33.8840   39.6690 C   0  0  0  0  0  0  0  0  0  0  0  0
   46.5000   33.9620   40.9070 N   0  0  0  0  0  0  0  0  0  0  0  0
   48.5790   35.9720   42.6150 H   0  0  0  0  0  0  0  0  0  0  0  0
   49.7230   35.9220   40.3780 H   0  0  0  0  0  0  0  0  0  0  0  0
   48.7480   34.6260   38.6060 H   0  0  0  0  0  0  0  0  0  0  0  0
   45.0000   33.2640   38.4300 C   0  0  2  0  0  3  0  0  0  0  0  0
   46.4730   33.0880   38.5580 C   0  0  2  0  0  3  0  0  0  0  0  0
   46.9660   31.8280   38.5720 O   0  0  0  0  0  0  0  0  0  0  0  0
   46.1400   30.7880   38.8510 C   0  0  0  0  0  2  0  0  0  0  0  0
   44.7590   30.8670   38.2470 C   0  0  1  0  0  3  0  0  0  0  0  0
   44.1510   32.1310   38.8690 C   0  0  1  0  0  3  0  0  0  0  0  0
   44.5850   33.6180   37.1330 O   0  0  0  0  0  0  0  0  0  0  0  0
   43.6270   33.3770   37.0290 H   0  0  0  0  0  0  0  0  0  0  0  0
   44.7720   30.9510   36.8660 O   0  0  0  0  0  0  0  0  0  0  0  0
   45.6680   30.9190   36.4580 H   0  0  0  0  0  0  0  0  0  0  0  0
   44.1080   31.9350   40.2300 O   0  0  0  0  0  0  0  0  0  0  0  0
   43.3340   32.4460   40.5860 H   0  0  0  0  0  0  0  0  0  0  0  0
  1  7  1  0  0  0  0
  1  6  1  0  0  0  0
  2  1  2  0  0  0  0
  3  2  1  0  0  0  0
  3  4  2  0  0  0  0
  4  5  1  0  0  0  0
  5  6  2  0  0  0  0
  5  9  1  0  0  0  0
  8  2  1  0  0  0  0
  9 15  1  1  0  0  0
  9 14  1  0  0  0  0
 10 11  1  0  0  0  0
 10 17  1  0  0  0  0
 10  9  1  0  0  0  0
 11 12  1  0  0  0  0
 12 21  1  0  0  0  0
 12 20  1  0  0  0  0
 12 13  1  0  0  0  0
 13 22  1  0  0  0  0
 14 13  2  0  0  0  0
 14 23  1  0  0  0  0
 16 10  1  0  0  0  0
 18 11  1  0  0  0  0
 19 11  1  0  0  0  0
 23 24  1  0  0  0  0
 25 23  1  0  0  0  0
 26  3  1  0  0  0  0
 27 26  1  0  0  0  0
 27 32  1  0  0  0  0
 28 27  2  0  0  0  0
 29 30  2  0  0  0  0
 29 28  1  0  0  0  0
 30 31  1  0  0  0  0
 31 26  2  0  0  0  0
 33 28  1  0  0  0  0
 34 29  1  0  0  0  0
 35 41  1  6  0  0  0
 35 36  1  0  0  0  0
 35 40  1  0  0  0  0
 36 37  1  0  0  0  0
 36 30  1  1  0  0  0
 37 38  1  0  0  0  0
 39 43  1  6  0  0  0
 39 38  1  0  0  0  0
 39 40  1  0  0  0  0
 40 45  1  1  0  0  0
 42 41  1  0  0  0  0
 44 43  1  0  0  0  0
 45 46  1  0  0  0  0
M  END
>  <minimizedAffinity>
-7.65776443

>  <minimizedRMSD>
0.342027009

$$$$
