
 OpenBabel03252503413D

 24 25  0  0  1  0  0  0  0  0999 V2000
   44.6520   35.2950   45.0810 C   0  0  0  0  0  0  0  0  0  0  0  0
   45.3010   35.2640   43.8570 C   0  0  0  0  0  0  0  0  0  0  0  0
   46.3200   34.3390   43.6710 C   0  0  0  0  0  0  0  0  0  0  0  0
   46.6320   33.5120   44.6890 N   0  0  0  0  0  0  0  0  0  0  0  0
   45.9830   33.5600   45.8810 C   0  0  0  0  0  0  0  0  0  0  0  0
   44.9830   34.4500   46.0950 N   0  0  0  0  0  0  0  0  0  0  0  0
   43.8510   36.0010   45.2670 H   0  0  0  0  0  0  0  0  0  0  0  0
   46.8100   34.3370   42.7070 H   0  0  0  0  0  0  0  0  0  0  0  0
   45.2180   31.7210   47.3910 C   0  0  2  0  0  0  0  0  0  0  0  0
   46.3650   32.6370   46.9500 C   0  0  1  0  0  0  0  0  0  0  0  0
   47.3750   31.7410   46.5790 O   0  0  0  0  0  0  0  0  0  0  0  0
   47.9710   31.3260   47.7530 C   0  0  0  0  0  0  0  0  0  0  0  0
   47.0540   30.6830   48.7450 C   0  0  1  0  0  0  0  0  0  0  0  0
   45.6580   31.2170   48.7660 C   0  0  1  0  0  0  0  0  0  0  0  0
   45.1580   30.6400   46.4940 O   0  0  0  0  0  0  0  0  0  0  0  0
   44.2640   30.5960   46.0680 H   0  0  0  0  0  0  0  0  0  0  0  0
   47.0040   29.3150   48.4890 O   0  0  0  0  0  0  0  0  0  0  0  0
   47.9040   28.9310   48.6400 H   0  0  0  0  0  0  0  0  0  0  0  0
   45.6280   32.3270   49.6140 O   0  0  0  0  0  0  0  0  0  0  0  0
   46.4690   32.4530   50.0940 H   0  0  0  0  0  0  0  0  0  0  0  0
   44.8380   36.2430   42.8390 C   0  0  0  0  0  0  0  0  0  0  0  0
   43.9900   35.7740   42.3010 H   0  0  0  0  0  0  0  0  0  0  0  0
   45.7030   36.3960   42.1420 H   0  0  0  0  0  0  0  0  0  0  0  0
   44.5910   37.1760   43.3420 H   0  0  0  0  0  0  0  0  0  0  0  0
  1  7  1  0  0  0  0
  1  6  1  0  0  0  0
  2  1  2  0  0  0  0
  3  2  1  0  0  0  0
  3  4  2  0  0  0  0
  4  5  1  0  0  0  0
  5  6  2  0  0  0  0
  8  3  1  0  0  0  0
  9 15  1  6  0  0  0
  9 14  1  0  0  0  0
 10  5  1  6  0  0  0
 10  9  1  0  0  0  0
 11 10  1  0  0  0  0
 11 12  1  0  0  0  0
 12 13  1  0  0  0  0
 13 17  1  6  0  0  0
 13 14  1  0  0  0  0
 14 19  1  1  0  0  0
 16 15  1  0  0  0  0
 17 18  1  0  0  0  0
 19 20  1  0  0  0  0
 21 24  1  0  0  0  0
 21  2  1  0  0  0  0
 22 21  1  0  0  0  0
 23 21  1  0  0  0  0
M  END
>  <minimizedAffinity>
-5.45578432

>  <minimizedRMSD>
1.73903775

$$$$
