
 OpenBabel03242521403D

 24 25  0  0  1  0  0  0  0  0999 V2000
   37.1820   26.6430   42.3300 C   0  0  0  0  0  0  0  0  0  0  0  0
   37.1260   27.4360   41.1840 C   0  0  0  0  0  0  0  0  0  0  0  0
   37.3020   28.8290   41.3350 C   0  0  0  0  0  0  0  0  0  0  0  0
   37.5160   29.3090   42.5990 N   0  0  0  0  0  0  0  0  0  0  0  0
   37.5610   28.4950   43.6770 C   0  0  0  0  0  0  0  0  0  0  0  0
   37.3950   27.1680   43.5470 N   0  0  0  0  0  0  0  0  0  0  0  0
   36.9550   27.0370   40.1840 H   0  0  0  0  0  0  0  0  0  0  0  0
   37.7360   28.9420   44.6590 H   0  0  0  0  0  0  0  0  0  0  0  0
   36.9090   31.1170   40.6860 C   0  0  1  0  0  3  0  0  0  0  0  0
   37.2580   29.7460   40.1690 C   0  0  1  0  0  3  0  0  0  0  0  0
   38.5230   29.8140   39.6280 O   0  0  0  0  0  0  0  0  0  0  0  0
   38.6560   30.6350   38.5420 C   0  0  0  0  0  2  0  0  0  0  0  0
   38.1150   32.0100   38.6730 C   0  0  2  0  0  3  0  0  0  0  0  0
   36.9470   32.1560   39.5990 C   0  0  2  0  0  3  0  0  0  0  0  0
   35.6650   31.0850   41.2850 O   0  0  0  0  0  0  0  0  0  0  0  0
   35.2520   31.9730   41.3310 H   0  0  0  0  0  0  0  0  0  0  0  0
   37.6810   32.4120   37.4080 O   0  0  0  0  0  0  0  0  0  0  0  0
   37.1260   33.2320   37.4740 H   0  0  0  0  0  0  0  0  0  0  0  0
   37.0060   33.4050   40.2170 O   0  0  0  0  0  0  0  0  0  0  0  0
   36.6720   33.4240   41.1290 H   0  0  0  0  0  0  0  0  0  0  0  0
   36.9910   25.1650   42.1440 C   0  0  0  0  0  0  0  0  0  0  0  0
   38.0120   24.7100   42.2640 H   0  0  0  0  0  0  0  0  0  0  0  0
   36.5280   24.9410   41.1860 H   0  0  0  0  0  0  0  0  0  0  0  0
   36.4100   24.7650   43.0130 H   0  0  0  0  0  0  0  0  0  0  0  0
  1  6  1  0  0  0  0
  2  3  1  0  0  0  0
  2  1  2  0  0  0  0
  3  4  2  0  0  0  0
  4  5  1  0  0  0  0
  5  8  1  0  0  0  0
  6  5  2  0  0  0  0
  7  2  1  0  0  0  0
  9 15  1  6  0  0  0
 10  9  1  0  0  0  0
 10  3  1  1  0  0  0
 11 10  1  0  0  0  0
 12 13  1  0  0  0  0
 12 11  1  0  0  0  0
 13 17  1  6  0  0  0
 13 14  1  0  0  0  0
 14 19  1  1  0  0  0
 14  9  1  0  0  0  0
 15 16  1  0  0  0  0
 17 18  1  0  0  0  0
 19 20  1  0  0  0  0
 21 22  1  0  0  0  0
 21  1  1  0  0  0  0
 21 24  1  0  0  0  0
 23 21  1  0  0  0  0
M  END
>  <minimizedAffinity>
-6.10568142

$$$$

 OpenBabel03242521403D

 24 25  0  0  1  0  0  0  0  0999 V2000
   41.0700   32.2040   38.2260 C   0  0  0  0  0  0  0  0  0  0  0  0
   40.3200   31.4550   39.1340 C   0  0  0  0  0  0  0  0  0  0  0  0
   39.7340   32.1330   40.2260 C   0  0  0  0  0  0  0  0  0  0  0  0
   39.9420   33.4830   40.3210 N   0  0  0  0  0  0  0  0  0  0  0  0
   40.6780   34.1610   39.4110 C   0  0  0  0  0  0  0  0  0  0  0  0
   41.2400   33.5280   38.3690 N   0  0  0  0  0  0  0  0  0  0  0  0
   40.1660   30.3800   39.0430 H   0  0  0  0  0  0  0  0  0  0  0  0
   40.8040   35.2380   39.5450 H   0  0  0  0  0  0  0  0  0  0  0  0
   37.5020   31.3810   40.7350 C   0  0  1  0  0  3  0  0  0  0  0  0
   38.9210   31.4130   41.2380 C   0  0  1  0  0  3  0  0  0  0  0  0
   39.3710   30.1130   41.3040 O   0  0  0  0  0  0  0  0  0  0  0  0
   38.7110   29.3070   42.1900 C   0  0  0  0  0  2  0  0  0  0  0  0
   37.2300   29.2990   42.1130 C   0  0  2  0  0  3  0  0  0  0  0  0
   36.6050   30.5720   41.6320 C   0  0  2  0  0  3  0  0  0  0  0  0
   37.0250   32.6700   40.6040 O   0  0  0  0  0  0  0  0  0  0  0  0
   36.0460   32.7060   40.6120 H   0  0  0  0  0  0  0  0  0  0  0  0
   36.7440   29.0730   43.4030 O   0  0  0  0  0  0  0  0  0  0  0  0
   35.7720   29.2620   43.4470 H   0  0  0  0  0  0  0  0  0  0  0  0
   35.4510   30.2720   40.9080 O   0  0  0  0  0  0  0  0  0  0  0  0
   35.2660   30.8740   40.1690 H   0  0  0  0  0  0  0  0  0  0  0  0
   41.6830   31.4610   37.0750 C   0  0  0  0  0  0  0  0  0  0  0  0
   41.0660   31.7320   36.1760 H   0  0  0  0  0  0  0  0  0  0  0  0
   41.7210   30.3920   37.2670 H   0  0  0  0  0  0  0  0  0  0  0  0
   42.6890   31.9010   36.8570 H   0  0  0  0  0  0  0  0  0  0  0  0
  1  6  2  0  0  0  0
  1  2  1  0  0  0  0
  2  3  2  0  0  0  0
  3  4  1  0  0  0  0
  5  8  1  0  0  0  0
  5  4  2  0  0  0  0
  6  5  1  0  0  0  0
  7  2  1  0  0  0  0
  9 15  1  1  0  0  0
  9 10  1  0  0  0  0
  9 14  1  0  0  0  0
 10  3  1  6  0  0  0
 10 11  1  0  0  0  0
 11 12  1  0  0  0  0
 13 12  1  0  0  0  0
 13 17  1  1  0  0  0
 14 19  1  6  0  0  0
 14 13  1  0  0  0  0
 15 16  1  0  0  0  0
 17 18  1  0  0  0  0
 20 19  1  0  0  0  0
 21 23  1  0  0  0  0
 21  1  1  0  0  0  0
 22 21  1  0  0  0  0
 24 21  1  0  0  0  0
M  END
>  <minimizedAffinity>
-5.2427907

$$$$

 OpenBabel03242521403D

 24 25  0  0  1  0  0  0  0  0999 V2000
   38.7710   24.3560   41.7060 C   0  0  0  0  0  0  0  0  0  0  0  0
   38.0220   25.5190   41.5270 C   0  0  0  0  0  0  0  0  0  0  0  0
   38.2370   26.5890   42.4220 C   0  0  0  0  0  0  0  0  0  0  0  0
   39.1690   26.4140   43.4090 N   0  0  0  0  0  0  0  0  0  0  0  0
   39.8700   25.2650   43.5380 C   0  0  0  0  0  0  0  0  0  0  0  0
   39.6740   24.2390   42.6930 N   0  0  0  0  0  0  0  0  0  0  0  0
   37.2830   25.6400   40.7340 H   0  0  0  0  0  0  0  0  0  0  0  0
   40.6000   25.1900   44.3480 H   0  0  0  0  0  0  0  0  0  0  0  0
   38.4450   28.9110   41.8100 C   0  0  1  0  0  3  0  0  0  0  0  0
   37.4830   27.8620   42.3020 C   0  0  1  0  0  3  0  0  0  0  0  0
   36.5150   27.6980   41.3370 O   0  0  0  0  0  0  0  0  0  0  0  0
   35.7330   28.7940   41.0950 C   0  0  0  0  0  2  0  0  0  0  0  0
   36.4370   30.0780   40.8560 C   0  0  2  0  0  3  0  0  0  0  0  0
   37.7590   30.2240   41.5430 C   0  0  2  0  0  3  0  0  0  0  0  0
   39.4650   29.0730   42.7260 O   0  0  0  0  0  0  0  0  0  0  0  0
   39.9120   29.9410   42.6350 H   0  0  0  0  0  0  0  0  0  0  0  0
   35.6170   31.1010   41.3370 O   0  0  0  0  0  0  0  0  0  0  0  0
   36.1200   31.9540   41.3930 H   0  0  0  0  0  0  0  0  0  0  0  0
   38.6110   30.9840   40.7410 O   0  0  0  0  0  0  0  0  0  0  0  0
   39.5480   30.7340   40.7910 H   0  0  0  0  0  0  0  0  0  0  0  0
   38.5240   23.2320   40.7420 C   0  0  0  0  0  0  0  0  0  0  0  0
   39.4130   23.2200   40.0550 H   0  0  0  0  0  0  0  0  0  0  0  0
   37.5770   23.3540   40.2230 H   0  0  0  0  0  0  0  0  0  0  0  0
   38.5950   22.2610   41.2960 H   0  0  0  0  0  0  0  0  0  0  0  0
  1  6  1  0  0  0  0
  2  1  2  0  0  0  0
  2  3  1  0  0  0  0
  3  4  2  0  0  0  0
  4  5  1  0  0  0  0
  5  8  1  0  0  0  0
  6  5  2  0  0  0  0
  7  2  1  0  0  0  0
  9 10  1  0  0  0  0
  9 15  1  1  0  0  0
 10  3  1  6  0  0  0
 11 10  1  0  0  0  0
 12 11  1  0  0  0  0
 13 12  1  0  0  0  0
 13 17  1  1  0  0  0
 13 14  1  0  0  0  0
 14 19  1  6  0  0  0
 14  9  1  0  0  0  0
 16 15  1  0  0  0  0
 17 18  1  0  0  0  0
 19 20  1  0  0  0  0
 21 24  1  0  0  0  0
 21  1  1  0  0  0  0
 22 21  1  0  0  0  0
 23 21  1  0  0  0  0
M  END
>  <minimizedAffinity>
-5.15099573

$$$$

 OpenBabel03242521403D

 24 25  0  0  1  0  0  0  0  0999 V2000
   38.8770   27.1920   42.7300 C   0  0  0  0  0  0  0  0  0  0  0  0
   38.7770   28.2450   41.8200 C   0  0  0  0  0  0  0  0  0  0  0  0
   37.6810   28.2480   40.9300 C   0  0  0  0  0  0  0  0  0  0  0  0
   36.7870   27.2140   41.0190 N   0  0  0  0  0  0  0  0  0  0  0  0
   36.9320   26.2180   41.9220 C   0  0  0  0  0  0  0  0  0  0  0  0
   37.9700   26.2040   42.7740 N   0  0  0  0  0  0  0  0  0  0  0  0
   39.4990   29.0600   41.7630 H   0  0  0  0  0  0  0  0  0  0  0  0
   36.1820   25.4230   41.9410 H   0  0  0  0  0  0  0  0  0  0  0  0
   37.0600   30.5620   40.6750 C   0  0  1  0  0  3  0  0  0  0  0  0
   37.4980   29.3290   39.9300 C   0  0  1  0  0  3  0  0  0  0  0  0
   38.7220   29.5990   39.3600 O   0  0  0  0  0  0  0  0  0  0  0  0
   38.7280   30.5900   38.4180 C   0  0  0  0  0  2  0  0  0  0  0  0
   38.0790   31.8710   38.7900 C   0  0  2  0  0  3  0  0  0  0  0  0
   36.9530   31.7600   39.7710 C   0  0  2  0  0  3  0  0  0  0  0  0
   35.8560   30.3210   41.3070 O   0  0  0  0  0  0  0  0  0  0  0  0
   35.3720   31.1480   41.5120 H   0  0  0  0  0  0  0  0  0  0  0  0
   37.5470   32.4260   37.6240 O   0  0  0  0  0  0  0  0  0  0  0  0
   36.9290   33.1700   37.8430 H   0  0  0  0  0  0  0  0  0  0  0  0
   36.9360   32.8950   40.5810 O   0  0  0  0  0  0  0  0  0  0  0  0
   36.6490   32.7380   41.4950 H   0  0  0  0  0  0  0  0  0  0  0  0
   40.0520   27.2120   43.6650 C   0  0  0  0  0  0  0  0  0  0  0  0
   39.6370   27.5100   44.6660 H   0  0  0  0  0  0  0  0  0  0  0  0
   40.8350   27.8750   43.3070 H   0  0  0  0  0  0  0  0  0  0  0  0
   40.4060   26.1610   43.8190 H   0  0  0  0  0  0  0  0  0  0  0  0
  1  6  1  0  0  0  0
  1 21  1  0  0  0  0
  2  1  2  0  0  0  0
  3  4  2  0  0  0  0
  3  2  1  0  0  0  0
  4  5  1  0  0  0  0
  5  8  1  0  0  0  0
  5  6  2  0  0  0  0
  7  2  1  0  0  0  0
  9 15  1  6  0  0  0
 10  9  1  0  0  0  0
 10  3  1  1  0  0  0
 11 10  1  0  0  0  0
 12 13  1  0  0  0  0
 12 11  1  0  0  0  0
 13 17  1  6  0  0  0
 13 14  1  0  0  0  0
 14 19  1  1  0  0  0
 14  9  1  0  0  0  0
 15 16  1  0  0  0  0
 17 18  1  0  0  0  0
 19 20  1  0  0  0  0
 21 24  1  0  0  0  0
 21 22  1  0  0  0  0
 23 21  1  0  0  0  0
M  END
>  <minimizedAffinity>
-5.10985851

$$$$

 OpenBabel03242521403D

 24 25  0  0  1  0  0  0  0  0999 V2000
   37.9010   25.8440   42.3170 C   0  0  0  0  0  0  0  0  0  0  0  0
   37.5200   27.1270   41.9210 C   0  0  0  0  0  0  0  0  0  0  0  0
   38.3220   28.2130   42.3350 C   0  0  0  0  0  0  0  0  0  0  0  0
   39.4230   27.9340   43.0990 N   0  0  0  0  0  0  0  0  0  0  0  0
   39.7480   26.6700   43.4540 C   0  0  0  0  0  0  0  0  0  0  0  0
   38.9930   25.6290   43.0670 N   0  0  0  0  0  0  0  0  0  0  0  0
   36.6390   27.3300   41.3120 H   0  0  0  0  0  0  0  0  0  0  0  0
   40.6410   26.5160   44.0650 H   0  0  0  0  0  0  0  0  0  0  0  0
   38.9140   30.0070   40.8390 C   0  0  1  0  0  3  0  0  0  0  0  0
   37.9890   29.6090   41.9590 C   0  0  1  0  0  3  0  0  0  0  0  0
   36.7040   29.6250   41.4640 O   0  0  0  0  0  0  0  0  0  0  0  0
   36.2450   30.8480   41.0570 C   0  0  0  0  0  2  0  0  0  0  0  0
   37.1210   31.6210   40.1440 C   0  0  2  0  0  3  0  0  0  0  0  0
   38.5890   31.3730   40.2980 C   0  0  2  0  0  3  0  0  0  0  0  0
   40.2230   29.9550   41.2770 O   0  0  0  0  0  0  0  0  0  0  0  0
   40.8190   30.5080   40.7290 H   0  0  0  0  0  0  0  0  0  0  0  0
   36.9100   32.9760   40.4080 O   0  0  0  0  0  0  0  0  0  0  0  0
   37.6130   33.5290   39.9780 H   0  0  0  0  0  0  0  0  0  0  0  0
   39.2070   31.4860   39.0530 O   0  0  0  0  0  0  0  0  0  0  0  0
   39.9630   30.8920   38.9180 H   0  0  0  0  0  0  0  0  0  0  0  0
   37.0320   24.7070   41.8640 C   0  0  0  0  0  0  0  0  0  0  0  0
   37.6070   24.1920   41.0470 H   0  0  0  0  0  0  0  0  0  0  0  0
   36.0520   25.0550   41.5500 H   0  0  0  0  0  0  0  0  0  0  0  0
   36.9820   23.9450   42.6830 H   0  0  0  0  0  0  0  0  0  0  0  0
  1  6  1  0  0  0  0
  2  1  2  0  0  0  0
  2  3  1  0  0  0  0
  3  4  2  0  0  0  0
  4  5  1  0  0  0  0
  5  8  1  0  0  0  0
  6  5  2  0  0  0  0
  7  2  1  0  0  0  0
  9 15  1  1  0  0  0
  9 10  1  0  0  0  0
 10  3  1  6  0  0  0
 11 10  1  0  0  0  0
 12 11  1  0  0  0  0
 13 14  1  0  0  0  0
 13 17  1  1  0  0  0
 13 12  1  0  0  0  0
 14 19  1  6  0  0  0
 14  9  1  0  0  0  0
 16 15  1  0  0  0  0
 18 17  1  0  0  0  0
 20 19  1  0  0  0  0
 21  1  1  0  0  0  0
 21 24  1  0  0  0  0
 22 21  1  0  0  0  0
 23 21  1  0  0  0  0
M  END
>  <minimizedAffinity>
-5.02912092

$$$$

 OpenBabel03242521403D

 24 25  0  0  1  0  0  0  0  0999 V2000
   38.4300   27.7400   42.5270 C   0  0  0  0  0  0  0  0  0  0  0  0
   38.9650   28.8770   41.9220 C   0  0  0  0  0  0  0  0  0  0  0  0
   38.2260   29.4850   40.8840 C   0  0  0  0  0  0  0  0  0  0  0  0
   37.0300   28.9150   40.5390 N   0  0  0  0  0  0  0  0  0  0  0  0
   36.5560   27.8110   41.1590 C   0  0  0  0  0  0  0  0  0  0  0  0
   37.2510   27.2240   42.1480 N   0  0  0  0  0  0  0  0  0  0  0  0
   39.9210   29.3170   42.2100 H   0  0  0  0  0  0  0  0  0  0  0  0
   35.5940   27.4060   40.8360 H   0  0  0  0  0  0  0  0  0  0  0  0
   38.2360   31.8930   40.9630 C   0  0  1  0  0  3  0  0  0  0  0  0
   38.7220   30.6980   40.1870 C   0  0  1  0  0  3  0  0  0  0  0  0
   40.0980   30.6940   40.2450 O   0  0  0  0  0  0  0  0  0  0  0  0
   40.7150   31.7610   39.6540 C   0  0  0  0  0  2  0  0  0  0  0  0
   40.2230   33.1100   40.0270 C   0  0  2  0  0  3  0  0  0  0  0  0
   38.7770   33.1830   40.4090 C   0  0  2  0  0  3  0  0  0  0  0  0
   36.8550   31.9100   40.9760 O   0  0  0  0  0  0  0  0  0  0  0  0
   36.4960   32.8040   41.1590 H   0  0  0  0  0  0  0  0  0  0  0  0
   40.3890   33.9390   38.9150 O   0  0  0  0  0  0  0  0  0  0  0  0
   39.8920   34.7890   39.0370 H   0  0  0  0  0  0  0  0  0  0  0  0
   38.6110   34.1610   41.3890 O   0  0  0  0  0  0  0  0  0  0  0  0
   37.9180   33.9700   42.0420 H   0  0  0  0  0  0  0  0  0  0  0  0
   39.2360   27.1120   43.6280 C   0  0  0  0  0  0  0  0  0  0  0  0
   38.7060   27.3800   44.5820 H   0  0  0  0  0  0  0  0  0  0  0  0
   40.2710   27.4420   43.6010 H   0  0  0  0  0  0  0  0  0  0  0  0
   39.1310   26.0000   43.5600 H   0  0  0  0  0  0  0  0  0  0  0  0
  1 21  1  0  0  0  0
  2  7  1  0  0  0  0
  2  1  2  0  0  0  0
  3  2  1  0  0  0  0
  4  3  2  0  0  0  0
  4  5  1  0  0  0  0
  5  6  2  0  0  0  0
  6  1  1  0  0  0  0
  8  5  1  0  0  0  0
  9 15  1  6  0  0  0
 10 11  1  0  0  0  0
 10  3  1  1  0  0  0
 10  9  1  0  0  0  0
 12 13  1  0  0  0  0
 12 11  1  0  0  0  0
 13 17  1  6  0  0  0
 13 14  1  0  0  0  0
 14  9  1  0  0  0  0
 14 19  1  1  0  0  0
 15 16  1  0  0  0  0
 17 18  1  0  0  0  0
 19 20  1  0  0  0  0
 21 22  1  0  0  0  0
 23 21  1  0  0  0  0
 24 21  1  0  0  0  0
M  END
>  <minimizedAffinity>
-4.93660545

$$$$

 OpenBabel03242521403D

 24 25  0  0  1  0  0  0  0  0999 V2000
   37.8200   28.0390   42.7120 C   0  0  0  0  0  0  0  0  0  0  0  0
   37.7060   28.7500   41.5180 C   0  0  0  0  0  0  0  0  0  0  0  0
   38.8660   29.3680   41.0010 C   0  0  0  0  0  0  0  0  0  0  0  0
   40.0290   29.2260   41.7090 N   0  0  0  0  0  0  0  0  0  0  0  0
   40.0850   28.5240   42.8640 C   0  0  0  0  0  0  0  0  0  0  0  0
   38.9880   27.9330   43.3650 N   0  0  0  0  0  0  0  0  0  0  0  0
   36.7700   28.8530   40.9670 H   0  0  0  0  0  0  0  0  0  0  0  0
   41.0460   28.4490   43.3800 H   0  0  0  0  0  0  0  0  0  0  0  0
   39.0220   31.5940   40.0920 C   0  0  1  0  0  3  0  0  0  0  0  0
   38.8330   30.1430   39.7360 C   0  0  1  0  0  3  0  0  0  0  0  0
   39.9100   29.7580   38.9690 O   0  0  0  0  0  0  0  0  0  0  0  0
   40.0320   30.3950   37.7640 C   0  0  0  0  0  2  0  0  0  0  0  0
   39.9580   31.8760   37.7790 C   0  0  2  0  0  3  0  0  0  0  0  0
   39.1190   32.4670   38.8700 C   0  0  2  0  0  3  0  0  0  0  0  0
   37.9880   32.0120   40.9070 O   0  0  0  0  0  0  0  0  0  0  0  0
   37.8720   32.9850   40.8920 H   0  0  0  0  0  0  0  0  0  0  0  0
   39.3890   32.2800   36.5690 O   0  0  0  0  0  0  0  0  0  0  0  0
   39.1270   33.2360   36.6090 H   0  0  0  0  0  0  0  0  0  0  0  0
   39.6740   33.6820   39.2690 O   0  0  0  0  0  0  0  0  0  0  0  0
   39.5710   33.8880   40.2120 H   0  0  0  0  0  0  0  0  0  0  0  0
   36.5730   27.3930   43.2410 C   0  0  0  0  0  0  0  0  0  0  0  0
   36.6920   26.2940   43.0410 H   0  0  0  0  0  0  0  0  0  0  0  0
   35.6810   27.8210   42.7900 H   0  0  0  0  0  0  0  0  0  0  0  0
   36.5740   27.4680   44.3580 H   0  0  0  0  0  0  0  0  0  0  0  0
  1 21  1  0  0  0  0
  1  6  1  0  0  0  0
  2  1  2  0  0  0  0
  3  2  1  0  0  0  0
  3  4  2  0  0  0  0
  4  5  1  0  0  0  0
  5  6  2  0  0  0  0
  5  8  1  0  0  0  0
  7  2  1  0  0  0  0
  9 15  1  1  0  0  0
 10  9  1  0  0  0  0
 10  3  1  1  0  0  0
 11 10  1  0  0  0  0
 12 13  1  0  0  0  0
 12 11  1  0  0  0  0
 13 17  1  6  0  0  0
 13 14  1  0  0  0  0
 14 19  1  1  0  0  0
 14  9  1  0  0  0  0
 16 15  1  0  0  0  0
 17 18  1  0  0  0  0
 19 20  1  0  0  0  0
 21 24  1  0  0  0  0
 22 21  1  0  0  0  0
 23 21  1  0  0  0  0
M  END
>  <minimizedAffinity>
-4.78292274

$$$$

 OpenBabel03242521403D

 24 25  0  0  1  0  0  0  0  0999 V2000
   35.5310   29.3210   36.7230 C   0  0  0  0  0  0  0  0  0  0  0  0
   36.5750   29.4580   37.6390 C   0  0  0  0  0  0  0  0  0  0  0  0
   36.2920   29.2300   39.0030 C   0  0  0  0  0  0  0  0  0  0  0  0
   35.0100   28.8870   39.3380 N   0  0  0  0  0  0  0  0  0  0  0  0
   34.0350   28.7670   38.4090 C   0  0  0  0  0  0  0  0  0  0  0  0
   34.2910   28.9820   37.1080 N   0  0  0  0  0  0  0  0  0  0  0  0
   37.5910   29.7320   37.3540 H   0  0  0  0  0  0  0  0  0  0  0  0
   33.0310   28.4900   38.7430 H   0  0  0  0  0  0  0  0  0  0  0  0
   36.6510   29.4350   41.3780 C   0  0  1  0  0  3  0  0  0  0  0  0
   37.3440   29.3540   40.0430 C   0  0  1  0  0  3  0  0  0  0  0  0
   38.0970   28.2010   40.0330 O   0  0  0  0  0  0  0  0  0  0  0  0
   39.1110   28.1510   40.9500 C   0  0  0  0  0  2  0  0  0  0  0  0
   38.7610   28.4830   42.3520 C   0  0  2  0  0  3  0  0  0  0  0  0
   37.6290   29.4490   42.5210 C   0  0  2  0  0  3  0  0  0  0  0  0
   35.8420   30.5530   41.4150 O   0  0  0  0  0  0  0  0  0  0  0  0
   35.6420   30.8360   42.3320 H   0  0  0  0  0  0  0  0  0  0  0  0
   39.8850   29.0720   42.9370 O   0  0  0  0  0  0  0  0  0  0  0  0
   39.6460   29.4980   43.8000 H   0  0  0  0  0  0  0  0  0  0  0  0
   36.9220   29.1290   43.6800 O   0  0  0  0  0  0  0  0  0  0  0  0
   35.9670   29.2990   43.6340 H   0  0  0  0  0  0  0  0  0  0  0  0
   35.8570   29.5700   35.2790 C   0  0  0  0  0  0  0  0  0  0  0  0
   35.8820   28.5560   34.7950 H   0  0  0  0  0  0  0  0  0  0  0  0
   36.7850   30.1240   35.1700 H   0  0  0  0  0  0  0  0  0  0  0  0
   34.9850   30.0800   34.7970 H   0  0  0  0  0  0  0  0  0  0  0  0
  1  6  2  0  0  0  0
  1  2  1  0  0  0  0
  2  3  2  0  0  0  0
  3  4  1  0  0  0  0
  5  8  1  0  0  0  0
  5  4  2  0  0  0  0
  6  5  1  0  0  0  0
  7  2  1  0  0  0  0
  9 15  1  6  0  0  0
  9 14  1  0  0  0  0
 10  3  1  6  0  0  0
 10  9  1  0  0  0  0
 11 10  1  0  0  0  0
 11 12  1  0  0  0  0
 12 13  1  0  0  0  0
 13 14  1  0  0  0  0
 13 17  1  6  0  0  0
 14 19  1  1  0  0  0
 15 16  1  0  0  0  0
 17 18  1  0  0  0  0
 20 19  1  0  0  0  0
 21  1  1  0  0  0  0
 22 21  1  0  0  0  0
 23 21  1  0  0  0  0
 24 21  1  0  0  0  0
M  END
>  <minimizedAffinity>
-4.71496153

$$$$

 OpenBabel03242521403D

 24 25  0  0  1  0  0  0  0  0999 V2000
   39.2840   26.0150   42.7370 C   0  0  0  0  0  0  0  0  0  0  0  0
   39.0100   27.1790   42.0180 C   0  0  0  0  0  0  0  0  0  0  0  0
   37.9160   27.1610   41.1250 C   0  0  0  0  0  0  0  0  0  0  0  0
   37.1960   26.0010   41.0240 N   0  0  0  0  0  0  0  0  0  0  0  0
   37.5060   24.9010   41.7460 C   0  0  0  0  0  0  0  0  0  0  0  0
   38.5440   24.9040   42.5990 N   0  0  0  0  0  0  0  0  0  0  0  0
   39.5940   28.0940   42.1110 H   0  0  0  0  0  0  0  0  0  0  0  0
   36.8910   24.0060   41.6190 H   0  0  0  0  0  0  0  0  0  0  0  0
   36.5840   29.1700   41.1350 C   0  0  1  0  0  3  0  0  0  0  0  0
   37.5540   28.3550   40.3210 C   0  0  1  0  0  3  0  0  0  0  0  0
   38.6890   29.1140   40.1440 O   0  0  0  0  0  0  0  0  0  0  0  0
   38.5220   30.2670   39.4270 C   0  0  0  0  0  2  0  0  0  0  0  0
   37.4100   31.1570   39.8410 C   0  0  2  0  0  3  0  0  0  0  0  0
   36.2330   30.4690   40.4620 C   0  0  2  0  0  3  0  0  0  0  0  0
   35.4460   28.4270   41.3820 O   0  0  0  0  0  0  0  0  0  0  0  0
   34.6740   28.9910   41.5990 H   0  0  0  0  0  0  0  0  0  0  0  0
   36.9410   31.8030   38.6950 O   0  0  0  0  0  0  0  0  0  0  0  0
   36.0730   32.2480   38.8760 H   0  0  0  0  0  0  0  0  0  0  0  0
   35.6720   31.3020   41.4290 O   0  0  0  0  0  0  0  0  0  0  0  0
   35.2950   30.8410   42.1950 H   0  0  0  0  0  0  0  0  0  0  0  0
   40.4520   26.0590   43.6800 C   0  0  0  0  0  0  0  0  0  0  0  0
   40.0080   26.1130   44.7100 H   0  0  0  0  0  0  0  0  0  0  0  0
   41.1180   26.8870   43.4510 H   0  0  0  0  0  0  0  0  0  0  0  0
   40.9690   25.0660   43.6580 H   0  0  0  0  0  0  0  0  0  0  0  0
  1 21  1  0  0  0  0
  2  7  1  0  0  0  0
  2  1  2  0  0  0  0
  3  2  1  0  0  0  0
  4  3  2  0  0  0  0
  4  5  1  0  0  0  0
  5  6  2  0  0  0  0
  6  1  1  0  0  0  0
  8  5  1  0  0  0  0
  9 15  1  6  0  0  0
 10  3  1  1  0  0  0
 10  9  1  0  0  0  0
 11 10  1  0  0  0  0
 12 13  1  0  0  0  0
 12 11  1  0  0  0  0
 13 17  1  6  0  0  0
 13 14  1  0  0  0  0
 14  9  1  0  0  0  0
 14 19  1  1  0  0  0
 15 16  1  0  0  0  0
 17 18  1  0  0  0  0
 19 20  1  0  0  0  0
 21 22  1  0  0  0  0
 23 21  1  0  0  0  0
 24 21  1  0  0  0  0
M  END
>  <minimizedAffinity>
-4.70682287

$$$$
