
 OpenBabel03252503133D

 37 40  0  0  1  0  0  0  0  0999 V2000
   46.0610   33.8380   40.5030 C   0  0  0  0  0  0  0  0  0  0  0  0
   44.7170   33.7740   40.2080 C   0  0  0  0  0  0  0  0  0  0  0  0
   44.6130   32.9230   39.1720 N   0  0  0  0  0  0  0  0  0  0  0  0
   45.8680   32.4790   38.8430 C   0  0  0  0  0  0  0  0  0  0  0  0
   46.7630   33.0470   39.6700 N   0  0  0  0  0  0  0  0  0  0  0  0
   43.9240   34.3080   40.7200 H   0  0  0  0  0  0  0  0  0  0  0  0
   43.7650   32.6240   38.6760 H   0  0  0  0  0  0  0  0  0  0  0  0
   45.1960   30.7940   37.1590 C   0  0  1  0  0  3  0  0  0  0  0  0
   46.3160   31.5330   37.7840 C   0  0  1  0  0  3  0  0  0  0  0  0
   47.1670   32.1930   36.9350 O   0  0  0  0  0  0  0  0  0  0  0  0
   46.7810   32.2880   35.6210 C   0  0  0  0  0  2  0  0  0  0  0  0
   45.3370   32.6950   35.5140 C   0  0  2  0  0  3  0  0  0  0  0  0
   44.5290   31.5070   36.0090 C   0  0  1  0  0  3  0  0  0  0  0  0
   45.5960   29.4860   36.8030 O   0  0  0  0  0  0  0  0  0  0  0  0
   46.4730   29.2520   37.1790 H   0  0  0  0  0  0  0  0  0  0  0  0
   45.0640   32.8480   34.1370 O   0  0  0  0  0  0  0  0  0  0  0  0
   44.1580   32.4610   33.9250 H   0  0  0  0  0  0  0  0  0  0  0  0
   44.4770   30.6110   34.9420 O   0  0  0  0  0  0  0  0  0  0  0  0
   43.5970   30.2330   34.7760 H   0  0  0  0  0  0  0  0  0  0  0  0
   46.6970   34.6580   41.5900 C   0  0  0  0  0  0  0  0  0  0  0  0
   47.8460   35.1810   41.4900 O   0  0  0  0  0  0  0  0  0  0  0  0
   45.3650   36.1060   43.0380 C   0  0  0  0  0  0  0  0  0  0  0  0
   46.0060   34.8840   42.8100 C   0  0  0  0  0  0  0  0  0  0  0  0
   45.9040   33.9540   43.8460 C   0  0  0  0  0  0  0  0  0  0  0  0
   45.2380   34.2210   44.9770 N   0  0  0  0  0  0  0  0  0  0  0  0
   44.6310   35.4300   45.1480 C   0  0  0  0  0  0  0  0  0  0  0  0
   44.6970   36.3580   44.1840 N   0  0  0  0  0  0  0  0  0  0  0  0
   45.4050   36.8790   42.2690 H   0  0  0  0  0  0  0  0  0  0  0  0
   44.1000   35.6130   46.0750 H   0  0  0  0  0  0  0  0  0  0  0  0
   46.5230   32.7040   43.6950 C   0  0  0  0  0  0  0  0  0  0  0  0
   47.8050   32.2520   43.8470 C   0  0  0  0  0  0  0  0  0  0  0  0
   48.1400   30.9830   43.6310 C   0  0  0  0  0  0  0  0  0  0  0  0
   47.1460   30.1320   43.2480 C   0  0  0  0  0  0  0  0  0  0  0  0
   45.6640   31.2370   43.2010 S   0  0  0  0  0  0  0  0  0  0  0  0
   48.5390   33.0220   44.1620 H   0  0  0  0  0  0  0  0  0  0  0  0
   49.1280   30.5550   43.7310 H   0  0  0  0  0  0  0  0  0  0  0  0
   47.1270   29.0820   43.0110 H   0  0  0  0  0  0  0  0  0  0  0  0
  1 20  1  0  0  0  0
  2  1  2  0  0  0  0
  2  6  1  0  0  0  0
  3  2  1  0  0  0  0
  4  3  1  0  0  0  0
  4  5  2  0  0  0  0
  5  1  1  0  0  0  0
  7  3  1  0  0  0  0
  8 14  1  6  0  0  0
  8  9  1  0  0  0  0
  9  4  1  1  0  0  0
 10  9  1  0  0  0  0
 11 10  1  0  0  0  0
 12 16  1  6  0  0  0
 12 11  1  0  0  0  0
 12 13  1  0  0  0  0
 13 18  1  6  0  0  0
 13  8  1  0  0  0  0
 14 15  1  0  0  0  0
 17 16  1  0  0  0  0
 19 18  1  0  0  0  0
 20 23  1  0  0  0  0
 21 20  2  0  0  0  0
 22 27  1  0  0  0  0
 23 22  2  0  0  0  0
 23 24  1  0  0  0  0
 24 25  2  0  0  0  0
 25 26  1  0  0  0  0
 26 29  1  0  0  0  0
 27 26  2  0  0  0  0
 28 22  1  0  0  0  0
 30 24  1  0  0  0  0
 30 31  2  0  0  0  0
 31 35  1  0  0  0  0
 32 36  1  0  0  0  0
 32 31  1  0  0  0  0
 33 32  2  0  0  0  0
 34 33  1  0  0  0  0
 34 30  1  0  0  0  0
 37 33  1  0  0  0  0
M  END
>  <minimizedAffinity>
-5.71500778

>  <minimizedRMSD>
0.796894789

$$$$
