
 OpenBabel03252507083D

 27 28  0  0  1  0  0  0  0  0999 V2000
   44.5400   35.8170   44.5850 C   0  0  0  0  0  0  0  0  0  0  0  0
   45.1520   35.8030   43.3160 C   0  0  0  0  0  0  0  0  0  0  0  0
   46.1370   34.8520   43.0800 C   0  0  0  0  0  0  0  0  0  0  0  0
   46.4740   33.9730   44.0770 N   0  0  0  0  0  0  0  0  0  0  0  0
   45.8690   34.0180   45.2710 C   0  0  0  0  0  0  0  0  0  0  0  0
   44.9040   34.9310   45.5370 N   0  0  0  0  0  0  0  0  0  0  0  0
   43.7810   36.5650   44.7360 H   0  0  0  0  0  0  0  0  0  0  0  0
   44.8760   36.4950   42.5550 H   0  0  0  0  0  0  0  0  0  0  0  0
   45.0760   32.9180   47.2730 C   0  0  1  0  0  3  0  0  0  0  0  0
   46.2490   33.0600   46.3310 C   0  0  1  0  0  3  0  0  0  0  0  0
   46.5860   31.8060   45.8530 O   0  0  0  0  0  0  0  0  0  0  0  0
   47.0890   31.0770   46.9300 C   0  0  0  0  0  2  0  0  0  0  0  0
   45.9920   30.7730   47.9300 C   0  0  2  0  0  3  0  0  0  0  0  0
   45.4890   32.0960   48.4760 C   0  0  1  0  0  3  0  0  0  0  0  0
   44.5840   34.1690   47.6650 O   0  0  0  0  0  0  0  0  0  0  0  0
   45.3230   34.8090   47.8130 H   0  0  0  0  0  0  0  0  0  0  0  0
   46.5010   29.9800   48.9370 O   0  0  0  0  0  0  0  0  0  0  0  0
   47.2940   30.3830   49.3380 H   0  0  0  0  0  0  0  0  0  0  0  0
   46.5020   32.6790   49.2040 O   0  0  0  0  0  0  0  0  0  0  0  0
   46.7840   33.5670   48.9210 H   0  0  0  0  0  0  0  0  0  0  0  0
   46.7270   34.8610   41.8130 O   0  0  0  0  0  0  0  0  0  0  0  0
   48.6990   33.2220   41.1400 O   0  0  0  0  0  0  0  0  0  0  0  0
   48.4250   34.6080   41.6910 P   0  0  0  0  0  0  0  0  0  0  0  0
   49.0660   35.8110   40.7140 O   0  0  0  0  0  0  0  0  0  0  0  0
   49.1320   36.6340   41.2590 H   0  0  0  0  0  0  0  0  0  0  0  0
   49.0690   34.6840   43.2580 O   0  0  0  0  0  0  0  0  0  0  0  0
   49.5190   35.5700   43.4090 H   0  0  0  0  0  0  0  0  0  0  0  0
  1  7  1  0  0  0  0
  1  6  1  0  0  0  0
  2  1  2  0  0  0  0
  3  2  1  0  0  0  0
  3  4  2  0  0  0  0
  4  5  1  0  0  0  0
  5  6  2  0  0  0  0
  8  2  1  0  0  0  0
  9 15  1  1  0  0  0
  9 14  1  0  0  0  0
 10  5  1  6  0  0  0
 10  9  1  0  0  0  0
 11 10  1  0  0  0  0
 11 12  1  0  0  0  0
 12 13  1  0  0  0  0
 13 14  1  0  0  0  0
 13 17  1  1  0  0  0
 14 19  1  6  0  0  0
 15 16  1  0  0  0  0
 17 18  1  0  0  0  0
 20 19  1  0  0  0  0
 21  3  1  0  0  0  0
 22 23  2  0  0  0  0
 23 21  1  0  0  0  0
 23 26  1  0  0  0  0
 24 25  1  0  0  0  0
 24 23  1  0  0  0  0
 26 27  1  0  0  0  0
M  END
>  <minimizedAffinity>
-7.01901484

>  <minimizedRMSD>
0.448173493

$$$$
