
 OpenBabel03252506193D

 26 27  0  0  1  0  0  0  0  0999 V2000
   44.8730   35.5450   43.7020 C   0  0  0  0  0  0  0  0  0  0  0  0
   44.0200   35.2390   42.5980 C   0  0  0  0  0  0  0  0  0  0  0  0
   44.0600   33.9170   42.1210 C   0  0  0  0  0  0  0  0  0  0  0  0
   44.8930   33.0140   42.7210 N   0  0  0  0  0  0  0  0  0  0  0  0
   45.6890   33.3600   43.7750 C   0  0  0  0  0  0  0  0  0  0  0  0
   45.6590   34.6260   44.2430 N   0  0  0  0  0  0  0  0  0  0  0  0
   43.4050   36.0210   42.2000 H   0  0  0  0  0  0  0  0  0  0  0  0
   43.4280   33.6690   41.2940 H   0  0  0  0  0  0  0  0  0  0  0  0
   45.8920   31.6940   45.5740 C   0  0  2  0  0  3  0  0  0  0  0  0
   46.5750   32.3650   44.4000 C   0  0  1  0  0  3  0  0  0  0  0  0
   46.9540   31.3390   43.5320 O   0  0  0  0  0  0  0  0  0  0  0  0
   48.0330   30.6810   44.1180 C   0  0  0  0  0  2  0  0  0  0  0  0
   47.6990   30.0470   45.4430 C   0  0  2  0  0  3  0  0  0  0  0  0
   46.9920   31.0100   46.3750 C   0  0  2  0  0  3  0  0  0  0  0  0
   44.9980   30.7030   45.1810 O   0  0  0  0  0  0  0  0  0  0  0  0
   44.1550   31.0560   44.8020 H   0  0  0  0  0  0  0  0  0  0  0  0
   48.9130   29.7160   46.0620 O   0  0  0  0  0  0  0  0  0  0  0  0
   49.1790   28.8400   45.6780 H   0  0  0  0  0  0  0  0  0  0  0  0
   46.3770   30.2920   47.4020 O   0  0  0  0  0  0  0  0  0  0  0  0
   46.3590   30.8230   48.2420 H   0  0  0  0  0  0  0  0  0  0  0  0
   44.8400   36.9070   44.2100 C   0  0  0  0  0  3  0  0  0  0  0  0
   45.3680   37.8750   43.4930 C   0  0  0  0  0  3  0  0  0  0  0  0
   45.3840   39.2900   43.9100 C   0  0  0  0  0  0  0  0  0  0  0  0
   44.4130   39.7420   43.5650 H   0  0  0  0  0  0  0  0  0  0  0  0
   46.1650   39.8540   43.3950 H   0  0  0  0  0  0  0  0  0  0  0  0
   45.3850   39.4120   45.0030 H   0  0  0  0  0  0  0  0  0  0  0  0
  1 21  1  0  0  0  0
  1  6  1  0  0  0  0
  2  1  2  0  0  0  0
  3  2  1  0  0  0  0
  3  4  2  0  0  0  0
  4  5  1  0  0  0  0
  5  6  2  0  0  0  0
  7  2  1  0  0  0  0
  8  3  1  0  0  0  0
  9 15  1  6  0  0  0
  9 14  1  0  0  0  0
 10  5  1  6  0  0  0
 10  9  1  0  0  0  0
 11 12  1  0  0  0  0
 11 10  1  0  0  0  0
 12 13  1  0  0  0  0
 13 17  1  1  0  0  0
 13 14  1  0  0  0  0
 14 19  1  1  0  0  0
 16 15  1  0  0  0  0
 18 17  1  0  0  0  0
 19 20  1  0  0  0  0
 22 23  1  0  0  0  0
 22 21  2  0  0  0  0
 23 26  1  0  0  0  0
 24 23  1  0  0  0  0
 25 23  1  0  0  0  0
M  END
>  <minimizedAffinity>
-3.70702338

>  <minimizedRMSD>
1.14417648

$$$$
