
 OpenBabel03242515133D

 30 31  0  0  1  0  0  0  0  0999 V2000
   46.3720   33.2080   46.3220 C   0  0  0  0  0  0  0  0  0  0  0  0
   46.6820   32.2670   45.7820 H   0  0  0  0  0  0  0  0  0  0  0  0
   47.2900   33.6330   46.7390 H   0  0  0  0  0  0  0  0  0  0  0  0
   44.5540   35.7590   44.2570 C   0  0  0  0  0  0  0  0  0  0  0  0
   45.2980   35.6860   43.0530 C   0  0  0  0  0  0  0  0  0  0  0  0
   46.3590   34.7840   43.0250 C   0  0  0  0  0  0  0  0  0  0  0  0
   46.6220   34.0260   44.1410 N   0  0  0  0  0  0  0  0  0  0  0  0
   45.8750   34.1380   45.2680 C   0  0  0  0  0  0  0  0  0  0  0  0
   44.8480   34.9980   45.3250 N   0  0  0  0  0  0  0  0  0  0  0  0
   43.7150   36.4320   44.3650 H   0  0  0  0  0  0  0  0  0  0  0  0
   45.0230   36.3140   42.2300 H   0  0  0  0  0  0  0  0  0  0  0  0
   47.1140   34.7170   41.7870 C   0  0  0  0  0  0  0  0  0  0  0  0
   47.9440   33.5930   41.7960 F   0  0  0  0  0  0  0  0  0  0  0  0
   47.9750   35.8040   41.7960 F   0  0  0  0  0  0  0  0  0  0  0  0
   46.3300   34.6580   40.6710 F   0  0  0  0  0  0  0  0  0  0  0  0
   45.3180   32.8360   47.3010 C   0  0  0  0  0  0  0  0  0  0  0  0
   44.8960   33.6940   47.8530 H   0  0  0  0  0  0  0  0  0  0  0  0
   44.4530   32.4360   46.7030 H   0  0  0  0  0  0  0  0  0  0  0  0
   44.8940   30.4950   48.0930 C   0  0  2  0  0  3  0  0  0  0  0  0
   45.7410   31.7250   48.1980 C   0  0  1  0  0  3  0  0  0  0  0  0
   47.0720   31.3810   47.9690 O   0  0  0  0  0  0  0  0  0  0  0  0
   47.2410   30.5110   46.9180 C   0  0  0  0  0  2  0  0  0  0  0  0
   46.8170   29.1420   47.3810 C   0  0  1  0  0  3  0  0  0  0  0  0
   45.7740   29.3010   48.4800 C   0  0  2  0  0  3  0  0  0  0  0  0
   44.4110   30.2130   46.8400 O   0  0  0  0  0  0  0  0  0  0  0  0
   44.3700   30.9410   46.2030 H   0  0  0  0  0  0  0  0  0  0  0  0
   46.3290   28.3510   46.3430 O   0  0  0  0  0  0  0  0  0  0  0  0
   46.5710   28.7540   45.4560 H   0  0  0  0  0  0  0  0  0  0  0  0
   45.0070   28.1390   48.5690 O   0  0  0  0  0  0  0  0  0  0  0  0
   44.8110   27.8720   49.5020 H   0  0  0  0  0  0  0  0  0  0  0  0
  1  3  1  0  0  0  0
  1 16  1  0  0  0  0
  2  1  1  0  0  0  0
  4 10  1  0  0  0  0
  4  9  1  0  0  0  0
  5  4  2  0  0  0  0
  6  5  1  0  0  0  0
  6  7  2  0  0  0  0
  7  8  1  0  0  0  0
  8  9  2  0  0  0  0
  8  1  1  0  0  0  0
 11  5  1  0  0  0  0
 12 13  1  0  0  0  0
 12 14  1  0  0  0  0
 12  6  1  0  0  0  0
 15 12  1  0  0  0  0
 16 17  1  0  0  0  0
 18 16  1  0  0  0  0
 19 25  1  6  0  0  0
 19 20  1  0  0  0  0
 19 24  1  0  0  0  0
 20 16  1  6  0  0  0
 21 20  1  0  0  0  0
 22 23  1  0  0  0  0
 22 21  1  0  0  0  0
 23 27  1  6  0  0  0
 23 24  1  0  0  0  0
 24 29  1  6  0  0  0
 26 25  1  0  0  0  0
 28 27  1  0  0  0  0
 29 30  1  0  0  0  0
M  END
>  <minimizedAffinity>
-5.55879498

>  <minimizedRMSD>
1.06668484

$$$$
