
 OpenBabel03242515243D

 24 25  0  0  1  0  0  0  0  0999 V2000
   36.6570   28.4810   41.6700 C   0  0  0  0  0  0  0  0  0  0  0  0
   36.1580   29.0370   42.5120 H   0  0  0  0  0  0  0  0  0  0  0  0
   35.9260   27.8460   41.1580 H   0  0  0  0  0  0  0  0  0  0  0  0
   37.6590   26.2930   41.9980 C   0  0  0  0  0  0  0  0  0  0  0  0
   37.6990   27.6620   42.3160 C   0  0  0  0  0  0  0  0  0  0  0  0
   38.6960   28.0850   43.1830 C   0  0  0  0  0  0  0  0  0  0  0  0
   39.5590   27.1710   43.6690 N   0  0  0  0  0  0  0  0  0  0  0  0
   39.4940   25.8700   43.3470 C   0  0  0  0  0  0  0  0  0  0  0  0
   38.5350   25.3960   42.4970 N   0  0  0  0  0  0  0  0  0  0  0  0
   36.9240   25.8300   41.3260 H   0  0  0  0  0  0  0  0  0  0  0  0
   38.6890   29.1450   43.3990 H   0  0  0  0  0  0  0  0  0  0  0  0
   40.2150   25.1830   43.7690 H   0  0  0  0  0  0  0  0  0  0  0  0
   37.0210   30.8660   41.1250 C   0  0  1  0  0  3  0  0  0  0  0  0
   37.2340   29.4630   40.6730 C   0  0  2  0  0  3  0  0  0  0  0  0
   36.9210   29.1870   39.3870 O   0  0  0  0  0  0  0  0  0  0  0  0
   37.1630   30.1110   38.4440 C   0  0  0  0  0  2  0  0  0  0  0  0
   36.9500   31.5430   38.7560 C   0  0  1  0  0  3  0  0  0  0  0  0
   37.4540   31.9030   40.1350 C   0  0  1  0  0  3  0  0  0  0  0  0
   35.6320   31.0070   41.3150 O   0  0  0  0  0  0  0  0  0  0  0  0
   35.4230   31.8080   41.8440 H   0  0  0  0  0  0  0  0  0  0  0  0
   37.6850   32.3050   37.8460 O   0  0  0  0  0  0  0  0  0  0  0  0
   37.1990   32.4750   37.0160 H   0  0  0  0  0  0  0  0  0  0  0  0
   36.9540   33.1620   40.4140 O   0  0  0  0  0  0  0  0  0  0  0  0
   36.2840   33.4680   39.7840 H   0  0  0  0  0  0  0  0  0  0  0  0
  1  5  1  0  0  0  0
  1  2  1  0  0  0  0
  3  1  1  0  0  0  0
  4  5  2  0  0  0  0
  4  9  1  0  0  0  0
  5  6  1  0  0  0  0
  6 11  1  0  0  0  0
  6  7  2  0  0  0  0
  8  7  1  0  0  0  0
  8 12  1  0  0  0  0
  9  8  2  0  0  0  0
 10  4  1  0  0  0  0
 13 19  1  6  0  0  0
 14 13  1  0  0  0  0
 14  1  1  1  0  0  0
 15 14  1  0  0  0  0
 16 17  1  0  0  0  0
 16 15  1  0  0  0  0
 17 21  1  6  0  0  0
 17 18  1  0  0  0  0
 18 23  1  1  0  0  0
 18 13  1  0  0  0  0
 19 20  1  0  0  0  0
 22 21  1  0  0  0  0
 24 23  1  0  0  0  0
M  END
>  <minimizedAffinity>
-5.52302694

$$$$

 OpenBabel03242515243D

 24 25  0  0  1  0  0  0  0  0999 V2000
   36.5640   30.2940   41.3040 C   0  0  0  0  0  0  0  0  0  0  0  0
   36.6390   31.1310   42.0520 H   0  0  0  0  0  0  0  0  0  0  0  0
   35.5210   30.1570   41.0010 H   0  0  0  0  0  0  0  0  0  0  0  0
   36.6560   27.8720   41.4600 C   0  0  0  0  0  0  0  0  0  0  0  0
   37.0650   29.1000   42.0100 C   0  0  0  0  0  0  0  0  0  0  0  0
   37.8780   29.0570   43.1330 C   0  0  0  0  0  0  0  0  0  0  0  0
   38.2270   27.8540   43.6300 N   0  0  0  0  0  0  0  0  0  0  0  0
   37.8210   26.6980   43.0830 C   0  0  0  0  0  0  0  0  0  0  0  0
   37.0190   26.6790   41.9770 N   0  0  0  0  0  0  0  0  0  0  0  0
   36.0160   27.7670   40.5760 H   0  0  0  0  0  0  0  0  0  0  0  0
   38.1680   30.0240   43.5200 H   0  0  0  0  0  0  0  0  0  0  0  0
   38.1330   25.7620   43.5270 H   0  0  0  0  0  0  0  0  0  0  0  0
   38.0550   31.9460   40.2250 C   0  0  1  0  0  3  0  0  0  0  0  0
   37.3890   30.6230   40.0770 C   0  0  2  0  0  3  0  0  0  0  0  0
   36.7490   30.3930   38.9080 O   0  0  0  0  0  0  0  0  0  0  0  0
   37.2770   30.8720   37.7710 C   0  0  0  0  0  2  0  0  0  0  0  0
   37.9330   32.1990   37.7750 C   0  0  1  0  0  3  0  0  0  0  0  0
   38.7920   32.4030   39.0030 C   0  0  1  0  0  3  0  0  0  0  0  0
   37.0250   32.8740   40.4760 O   0  0  0  0  0  0  0  0  0  0  0  0
   37.3820   33.7190   40.8300 H   0  0  0  0  0  0  0  0  0  0  0  0
   38.7840   32.2740   36.6710 O   0  0  0  0  0  0  0  0  0  0  0  0
   38.3260   32.5680   35.8600 H   0  0  0  0  0  0  0  0  0  0  0  0
   39.1130   33.7470   39.0330 O   0  0  0  0  0  0  0  0  0  0  0  0
   38.6140   34.2860   38.4010 H   0  0  0  0  0  0  0  0  0  0  0  0
  1  5  1  0  0  0  0
  1  2  1  0  0  0  0
  3  1  1  0  0  0  0
  4  9  2  0  0  0  0
  4  5  1  0  0  0  0
  5  6  2  0  0  0  0
  6 11  1  0  0  0  0
  6  7  1  0  0  0  0
  8 12  1  0  0  0  0
  8  7  2  0  0  0  0
  9  8  1  0  0  0  0
 10  4  1  0  0  0  0
 13 19  1  6  0  0  0
 14 13  1  0  0  0  0
 14  1  1  1  0  0  0
 15 14  1  0  0  0  0
 16 17  1  0  0  0  0
 16 15  1  0  0  0  0
 17 21  1  6  0  0  0
 17 18  1  0  0  0  0
 18 23  1  1  0  0  0
 18 13  1  0  0  0  0
 19 20  1  0  0  0  0
 22 21  1  0  0  0  0
 24 23  1  0  0  0  0
M  END
>  <minimizedAffinity>
-5.14035892

$$$$

 OpenBabel03242515243D

 24 25  0  0  1  0  0  0  0  0999 V2000
   38.5340   27.4190   42.6890 C   0  0  0  0  0  0  0  0  0  0  0  0
   39.5790   27.5070   43.0980 H   0  0  0  0  0  0  0  0  0  0  0  0
   37.8060   27.5330   43.4990 H   0  0  0  0  0  0  0  0  0  0  0  0
   37.1970   25.4560   42.1820 C   0  0  0  0  0  0  0  0  0  0  0  0
   38.4610   26.0670   42.1070 C   0  0  0  0  0  0  0  0  0  0  0  0
   39.4820   25.3450   41.5050 C   0  0  0  0  0  0  0  0  0  0  0  0
   39.2090   24.1130   41.0320 N   0  0  0  0  0  0  0  0  0  0  0  0
   37.9910   23.5570   41.1180 C   0  0  0  0  0  0  0  0  0  0  0  0
   36.9480   24.2210   41.7000 N   0  0  0  0  0  0  0  0  0  0  0  0
   36.3080   25.9180   42.6300 H   0  0  0  0  0  0  0  0  0  0  0  0
   40.4360   25.8530   41.4700 H   0  0  0  0  0  0  0  0  0  0  0  0
   37.8310   22.5640   40.7200 H   0  0  0  0  0  0  0  0  0  0  0  0
   37.2180   29.4310   42.1080 C   0  0  1  0  0  3  0  0  0  0  0  0
   38.2900   28.5010   41.6580 C   0  0  2  0  0  3  0  0  0  0  0  0
   38.2010   28.0400   40.3900 O   0  0  0  0  0  0  0  0  0  0  0  0
   37.7460   28.8590   39.4290 C   0  0  0  0  0  2  0  0  0  0  0  0
   36.6500   29.8060   39.7380 C   0  0  1  0  0  3  0  0  0  0  0  0
   36.8300   30.4590   41.0900 C   0  0  1  0  0  3  0  0  0  0  0  0
   36.0870   28.6290   42.3600 O   0  0  0  0  0  0  0  0  0  0  0  0
   35.4170   29.1120   42.8910 H   0  0  0  0  0  0  0  0  0  0  0  0
   36.6720   30.8300   38.7900 O   0  0  0  0  0  0  0  0  0  0  0  0
   36.1720   30.6070   37.9810 H   0  0  0  0  0  0  0  0  0  0  0  0
   35.6320   31.0860   41.3810 O   0  0  0  0  0  0  0  0  0  0  0  0
   34.9090   30.8510   40.7800 H   0  0  0  0  0  0  0  0  0  0  0  0
  1  2  1  0  0  0  0
  1  3  1  0  0  0  0
  4 10  1  0  0  0  0
  5  4  1  0  0  0  0
  5  1  1  0  0  0  0
  6  5  2  0  0  0  0
  7  8  2  0  0  0  0
  7  6  1  0  0  0  0
  8  9  1  0  0  0  0
  9  4  2  0  0  0  0
 11  6  1  0  0  0  0
 12  8  1  0  0  0  0
 13 19  1  6  0  0  0
 14 13  1  0  0  0  0
 14  1  1  1  0  0  0
 15 14  1  0  0  0  0
 16 17  1  0  0  0  0
 16 15  1  0  0  0  0
 17 21  1  6  0  0  0
 17 18  1  0  0  0  0
 18 23  1  1  0  0  0
 18 13  1  0  0  0  0
 19 20  1  0  0  0  0
 22 21  1  0  0  0  0
 24 23  1  0  0  0  0
M  END
>  <minimizedAffinity>
-4.89638901

$$$$

 OpenBabel03242515243D

 24 25  0  0  1  0  0  0  0  0999 V2000
   36.5520   27.5470   42.5010 C   0  0  0  0  0  0  0  0  0  0  0  0
   35.7170   26.9550   42.0330 H   0  0  0  0  0  0  0  0  0  0  0  0
   36.3300   27.7330   43.5580 H   0  0  0  0  0  0  0  0  0  0  0  0
   35.6050   28.9500   40.7590 C   0  0  0  0  0  0  0  0  0  0  0  0
   36.5980   28.8120   41.7460 C   0  0  0  0  0  0  0  0  0  0  0  0
   37.4940   29.8600   41.8980 C   0  0  0  0  0  0  0  0  0  0  0  0
   37.3660   30.9390   41.1010 N   0  0  0  0  0  0  0  0  0  0  0  0
   36.4070   31.0410   40.1680 C   0  0  0  0  0  0  0  0  0  0  0  0
   35.4960   30.0410   39.9740 N   0  0  0  0  0  0  0  0  0  0  0  0
   34.8370   28.1970   40.5390 H   0  0  0  0  0  0  0  0  0  0  0  0
   38.2390   29.7110   42.6670 H   0  0  0  0  0  0  0  0  0  0  0  0
   36.3530   31.9330   39.5570 H   0  0  0  0  0  0  0  0  0  0  0  0
   37.6160   25.4120   41.8480 C   0  0  1  0  0  3  0  0  0  0  0  0
   37.8500   26.7730   42.4040 C   0  0  2  0  0  3  0  0  0  0  0  0
   38.6190   26.8510   43.5140 O   0  0  0  0  0  0  0  0  0  0  0  0
   39.6640   26.0190   43.6420 C   0  0  0  0  0  2  0  0  0  0  0  0
   39.5460   24.6220   43.1650 C   0  0  1  0  0  3  0  0  0  0  0  0
   38.8320   24.5370   41.8340 C   0  0  1  0  0  3  0  0  0  0  0  0
   36.6620   24.8070   42.6900 O   0  0  0  0  0  0  0  0  0  0  0  0
   36.2640   24.0140   42.2670 H   0  0  0  0  0  0  0  0  0  0  0  0
   40.8310   24.1140   42.9660 O   0  0  0  0  0  0  0  0  0  0  0  0
   41.2190   23.7400   43.7810 H   0  0  0  0  0  0  0  0  0  0  0  0
   38.5370   23.2010   41.6370 O   0  0  0  0  0  0  0  0  0  0  0  0
   38.6830   22.6460   42.4180 H   0  0  0  0  0  0  0  0  0  0  0  0
  1  3  1  0  0  0  0
  2  1  1  0  0  0  0
  4  5  1  0  0  0  0
  5  6  2  0  0  0  0
  5  1  1  0  0  0  0
  6 11  1  0  0  0  0
  7  6  1  0  0  0  0
  8  7  2  0  0  0  0
  9  8  1  0  0  0  0
  9  4  2  0  0  0  0
 10  4  1  0  0  0  0
 12  8  1  0  0  0  0
 13 14  1  0  0  0  0
 13 19  1  1  0  0  0
 14  1  1  1  0  0  0
 14 15  1  0  0  0  0
 15 16  1  0  0  0  0
 17 21  1  6  0  0  0
 17 16  1  0  0  0  0
 18 23  1  1  0  0  0
 18 13  1  0  0  0  0
 18 17  1  0  0  0  0
 20 19  1  0  0  0  0
 21 22  1  0  0  0  0
 23 24  1  0  0  0  0
M  END
>  <minimizedAffinity>
-4.79465199

$$$$

 OpenBabel03242515243D

 24 25  0  0  1  0  0  0  0  0999 V2000
   39.5980   31.0150   42.3870 C   0  0  0  0  0  0  0  0  0  0  0  0
   40.5110   31.3100   42.9760 H   0  0  0  0  0  0  0  0  0  0  0  0
   38.7560   31.6610   42.6570 H   0  0  0  0  0  0  0  0  0  0  0  0
   40.4290   28.7500   42.6610 C   0  0  0  0  0  0  0  0  0  0  0  0
   39.3280   29.6170   42.7680 C   0  0  0  0  0  0  0  0  0  0  0  0
   38.1310   29.0750   43.2120 C   0  0  0  0  0  0  0  0  0  0  0  0
   38.0900   27.7610   43.5120 N   0  0  0  0  0  0  0  0  0  0  0  0
   39.1590   26.9590   43.3990 C   0  0  0  0  0  0  0  0  0  0  0  0
   40.3640   27.4380   42.9680 N   0  0  0  0  0  0  0  0  0  0  0  0
   41.4290   29.0520   42.3250 H   0  0  0  0  0  0  0  0  0  0  0  0
   37.3120   29.7770   43.2790 H   0  0  0  0  0  0  0  0  0  0  0  0
   39.0660   25.9110   43.6550 H   0  0  0  0  0  0  0  0  0  0  0  0
   40.3800   32.5270   40.5920 C   0  0  1  0  0  3  0  0  0  0  0  0
   39.8710   31.1630   40.9050 C   0  0  2  0  0  3  0  0  0  0  0  0
   38.8800   30.6900   40.1150 O   0  0  0  0  0  0  0  0  0  0  0  0
   38.8940   30.9840   38.8060 C   0  0  0  0  0  2  0  0  0  0  0  0
   39.3410   32.3250   38.3650 C   0  0  1  0  0  3  0  0  0  0  0  0
   40.5580   32.7960   39.1300 C   0  0  1  0  0  3  0  0  0  0  0  0
   39.4090   33.4260   41.0780 O   0  0  0  0  0  0  0  0  0  0  0  0
   39.7670   34.3390   41.1420 H   0  0  0  0  0  0  0  0  0  0  0  0
   39.7140   32.2460   37.0220 O   0  0  0  0  0  0  0  0  0  0  0  0
   38.9590   32.3630   36.4130 H   0  0  0  0  0  0  0  0  0  0  0  0
   40.7040   34.1390   38.8380 O   0  0  0  0  0  0  0  0  0  0  0  0
   39.9470   34.5250   38.3710 H   0  0  0  0  0  0  0  0  0  0  0  0
  1  3  1  0  0  0  0
  1  5  1  0  0  0  0
  1  2  1  0  0  0  0
  4  5  2  0  0  0  0
  4  9  1  0  0  0  0
  5  6  1  0  0  0  0
  6 11  1  0  0  0  0
  6  7  2  0  0  0  0
  8  7  1  0  0  0  0
  8 12  1  0  0  0  0
  9  8  2  0  0  0  0
 10  4  1  0  0  0  0
 13 14  1  0  0  0  0
 13 19  1  6  0  0  0
 14  1  1  1  0  0  0
 15 14  1  0  0  0  0
 16 15  1  0  0  0  0
 17 21  1  6  0  0  0
 17 16  1  0  0  0  0
 17 18  1  0  0  0  0
 18 23  1  1  0  0  0
 18 13  1  0  0  0  0
 19 20  1  0  0  0  0
 22 21  1  0  0  0  0
 24 23  1  0  0  0  0
M  END
>  <minimizedAffinity>
-4.67177916

$$$$

 OpenBabel03242515243D

 24 25  0  0  1  0  0  0  0  0999 V2000
   39.3840   30.5540   42.5730 C   0  0  0  0  0  0  0  0  0  0  0  0
   40.4410   30.9070   42.7280 H   0  0  0  0  0  0  0  0  0  0  0  0
   38.7260   31.0070   43.3220 H   0  0  0  0  0  0  0  0  0  0  0  0
   38.2970   28.5190   43.3300 C   0  0  0  0  0  0  0  0  0  0  0  0
   39.4380   29.0910   42.7400 C   0  0  0  0  0  0  0  0  0  0  0  0
   40.4700   28.2330   42.3860 C   0  0  0  0  0  0  0  0  0  0  0  0
   40.3240   26.9150   42.6260 N   0  0  0  0  0  0  0  0  0  0  0  0
   39.2220   26.3990   43.1910 C   0  0  0  0  0  0  0  0  0  0  0  0
   38.1740   27.1950   43.5600 N   0  0  0  0  0  0  0  0  0  0  0  0
   37.4140   29.0840   43.6550 H   0  0  0  0  0  0  0  0  0  0  0  0
   41.3260   28.7160   41.9360 H   0  0  0  0  0  0  0  0  0  0  0  0
   39.1610   25.3320   43.3590 H   0  0  0  0  0  0  0  0  0  0  0  0
   39.7520   32.0420   40.6320 C   0  0  1  0  0  3  0  0  0  0  0  0
   38.9030   30.9570   41.1940 C   0  0  2  0  0  3  0  0  0  0  0  0
   37.5640   31.1290   41.1100 O   0  0  0  0  0  0  0  0  0  0  0  0
   37.0510   31.7190   40.0190 C   0  0  0  0  0  2  0  0  0  0  0  0
   37.7800   32.8410   39.3860 C   0  0  1  0  0  3  0  0  0  0  0  0
   39.2690   32.5840   39.3220 C   0  0  1  0  0  3  0  0  0  0  0  0
   39.7140   33.0930   41.5700 O   0  0  0  0  0  0  0  0  0  0  0  0
   40.4330   33.7430   41.4090 H   0  0  0  0  0  0  0  0  0  0  0  0
   37.3350   32.9680   38.0690 O   0  0  0  0  0  0  0  0  0  0  0  0
   36.5350   33.5230   37.9920 H   0  0  0  0  0  0  0  0  0  0  0  0
   39.8560   33.7880   38.9820 O   0  0  0  0  0  0  0  0  0  0  0  0
   39.2520   34.5460   39.0210 H   0  0  0  0  0  0  0  0  0  0  0  0
  1  2  1  0  0  0  0
  1  5  1  0  0  0  0
  1  3  1  0  0  0  0
  4  9  1  0  0  0  0
  4 10  1  0  0  0  0
  5  4  2  0  0  0  0
  6  7  2  0  0  0  0
  6  5  1  0  0  0  0
  7  8  1  0  0  0  0
  8 12  1  0  0  0  0
  8  9  2  0  0  0  0
 11  6  1  0  0  0  0
 13 14  1  0  0  0  0
 13 19  1  1  0  0  0
 14  1  1  1  0  0  0
 15 14  1  0  0  0  0
 16 15  1  0  0  0  0
 17 21  1  6  0  0  0
 17 16  1  0  0  0  0
 18 23  1  1  0  0  0
 18 17  1  0  0  0  0
 18 13  1  0  0  0  0
 20 19  1  0  0  0  0
 22 21  1  0  0  0  0
 23 24  1  0  0  0  0
M  END
>  <minimizedAffinity>
-4.6277647

$$$$

 OpenBabel03242515243D

 24 25  0  0  1  0  0  0  0  0999 V2000
   37.1800   29.1780   39.6750 C   0  0  0  0  0  0  0  0  0  0  0  0
   36.0910   29.0860   39.4080 H   0  0  0  0  0  0  0  0  0  0  0  0
   37.7910   29.1370   38.7670 H   0  0  0  0  0  0  0  0  0  0  0  0
   36.7380   28.0000   41.7520 C   0  0  0  0  0  0  0  0  0  0  0  0
   37.4620   28.0230   40.5470 C   0  0  0  0  0  0  0  0  0  0  0  0
   38.3440   26.9780   40.3140 C   0  0  0  0  0  0  0  0  0  0  0  0
   38.4580   26.0100   41.2450 N   0  0  0  0  0  0  0  0  0  0  0  0
   37.7520   26.0160   42.3860 C   0  0  0  0  0  0  0  0  0  0  0  0
   36.8690   27.0190   42.6690 N   0  0  0  0  0  0  0  0  0  0  0  0
   36.0100   28.7630   42.0560 H   0  0  0  0  0  0  0  0  0  0  0  0
   38.8780   27.0370   39.3760 H   0  0  0  0  0  0  0  0  0  0  0  0
   37.8860   25.2120   43.0970 H   0  0  0  0  0  0  0  0  0  0  0  0
   36.8830   31.6310   39.5780 C   0  0  1  0  0  3  0  0  0  0  0  0
   37.4310   30.4980   40.3730 C   0  0  2  0  0  3  0  0  0  0  0  0
   38.6920   30.6400   40.8410 O   0  0  0  0  0  0  0  0  0  0  0  0
   39.1020   31.8490   41.2540 C   0  0  0  0  0  2  0  0  0  0  0  0
   38.6590   33.0580   40.5220 C   0  0  1  0  0  3  0  0  0  0  0  0
   37.1980   32.9840   40.1380 C   0  0  1  0  0  3  0  0  0  0  0  0
   37.4860   31.5430   38.3070 O   0  0  0  0  0  0  0  0  0  0  0  0
   37.0070   32.0890   37.6450 H   0  0  0  0  0  0  0  0  0  0  0  0
   38.7990   34.1600   41.3660 O   0  0  0  0  0  0  0  0  0  0  0  0
   39.6970   34.5450   41.3390 H   0  0  0  0  0  0  0  0  0  0  0  0
   36.9820   34.0100   39.2360 O   0  0  0  0  0  0  0  0  0  0  0  0
   37.7940   34.4330   38.9190 H   0  0  0  0  0  0  0  0  0  0  0  0
  1  5  1  0  0  0  0
  2  1  1  0  0  0  0
  3  1  1  0  0  0  0
  4 10  1  0  0  0  0
  4  9  1  0  0  0  0
  5  4  2  0  0  0  0
  6  5  1  0  0  0  0
  6  7  2  0  0  0  0
  7  8  1  0  0  0  0
  8  9  2  0  0  0  0
  8 12  1  0  0  0  0
 11  6  1  0  0  0  0
 13 19  1  6  0  0  0
 13 18  1  0  0  0  0
 13 14  1  0  0  0  0
 14  1  1  6  0  0  0
 14 15  1  0  0  0  0
 15 16  1  0  0  0  0
 17 16  1  0  0  0  0
 17 21  1  1  0  0  0
 18 23  1  6  0  0  0
 18 17  1  0  0  0  0
 20 19  1  0  0  0  0
 22 21  1  0  0  0  0
 24 23  1  0  0  0  0
M  END
>  <minimizedAffinity>
-4.60258579

$$$$

 OpenBabel03242515243D

 24 25  0  0  1  0  0  0  0  0999 V2000
   39.0400   30.7350   38.5640 C   0  0  0  0  0  0  0  0  0  0  0  0
   38.4690   31.6890   38.7390 H   0  0  0  0  0  0  0  0  0  0  0  0
   38.6480   30.2230   37.6790 H   0  0  0  0  0  0  0  0  0  0  0  0
   38.9040   30.6370   40.9870 C   0  0  0  0  0  0  0  0  0  0  0  0
   38.8190   29.9260   39.7770 C   0  0  0  0  0  0  0  0  0  0  0  0
   38.5410   28.5690   39.8540 C   0  0  0  0  0  0  0  0  0  0  0  0
   38.3710   28.0140   41.0690 N   0  0  0  0  0  0  0  0  0  0  0  0
   38.4590   28.7190   42.2070 C   0  0  0  0  0  0  0  0  0  0  0  0
   38.7300   30.0580   42.1930 N   0  0  0  0  0  0  0  0  0  0  0  0
   39.1170   31.7110   41.0650 H   0  0  0  0  0  0  0  0  0  0  0  0
   38.4840   28.0640   38.8990 H   0  0  0  0  0  0  0  0  0  0  0  0
   38.3130   28.2180   43.1560 H   0  0  0  0  0  0  0  0  0  0  0  0
   40.6830   32.4290   37.8240 C   0  0  1  0  0  3  0  0  0  0  0  0
   40.5060   31.0440   38.3410 C   0  0  2  0  0  3  0  0  0  0  0  0
   41.1800   30.0650   37.6950 O   0  0  0  0  0  0  0  0  0  0  0  0
   42.4100   30.3220   37.2250 C   0  0  0  0  0  2  0  0  0  0  0  0
   42.7060   31.6530   36.6460 C   0  0  1  0  0  3  0  0  0  0  0  0
   42.0950   32.7720   37.4590 C   0  0  1  0  0  3  0  0  0  0  0  0
   39.9050   32.5100   36.6520 O   0  0  0  0  0  0  0  0  0  0  0  0
   39.7620   33.4440   36.3820 H   0  0  0  0  0  0  0  0  0  0  0  0
   44.0880   31.8460   36.6690 O   0  0  0  0  0  0  0  0  0  0  0  0
   44.5340   31.4720   35.8850 H   0  0  0  0  0  0  0  0  0  0  0  0
   42.1940   33.9130   36.6840 O   0  0  0  0  0  0  0  0  0  0  0  0
   42.4590   33.7440   35.7670 H   0  0  0  0  0  0  0  0  0  0  0  0
  1  2  1  0  0  0  0
  1  5  1  0  0  0  0
  3  1  1  0  0  0  0
  4 10  1  0  0  0  0
  4  9  1  0  0  0  0
  5  6  1  0  0  0  0
  5  4  2  0  0  0  0
  6  7  2  0  0  0  0
  7  8  1  0  0  0  0
  8 12  1  0  0  0  0
  9  8  2  0  0  0  0
 11  6  1  0  0  0  0
 13 19  1  6  0  0  0
 13 14  1  0  0  0  0
 14  1  1  6  0  0  0
 15 14  1  0  0  0  0
 16 15  1  0  0  0  0
 17 21  1  1  0  0  0
 17 16  1  0  0  0  0
 17 18  1  0  0  0  0
 18 23  1  6  0  0  0
 18 13  1  0  0  0  0
 20 19  1  0  0  0  0
 22 21  1  0  0  0  0
 24 23  1  0  0  0  0
M  END
>  <minimizedAffinity>
-4.58528137

$$$$

 OpenBabel03242515243D

 24 25  0  0  1  0  0  0  0  0999 V2000
   38.2540   28.7350   39.4480 C   0  0  0  0  0  0  0  0  0  0  0  0
   37.2410   28.6370   38.9680 H   0  0  0  0  0  0  0  0  0  0  0  0
   38.9260   27.9610   39.0630 H   0  0  0  0  0  0  0  0  0  0  0  0
   37.8570   27.2120   41.2980 C   0  0  0  0  0  0  0  0  0  0  0  0
   38.0150   28.5480   40.8910 C   0  0  0  0  0  0  0  0  0  0  0  0
   37.9320   29.5270   41.8710 C   0  0  0  0  0  0  0  0  0  0  0  0
   37.7050   29.1460   43.1440 N   0  0  0  0  0  0  0  0  0  0  0  0
   37.5580   27.8610   43.5010 C   0  0  0  0  0  0  0  0  0  0  0  0
   37.6310   26.8550   42.5790 N   0  0  0  0  0  0  0  0  0  0  0  0
   37.9020   26.3460   40.6250 H   0  0  0  0  0  0  0  0  0  0  0  0
   38.0590   30.5390   41.5140 H   0  0  0  0  0  0  0  0  0  0  0  0
   37.3780   27.6160   44.5400 H   0  0  0  0  0  0  0  0  0  0  0  0
   38.2320   30.6690   37.9060 C   0  0  1  0  0  3  0  0  0  0  0  0
   38.8440   30.0940   39.1360 C   0  0  2  0  0  3  0  0  0  0  0  0
   40.1930   30.1390   39.2190 O   0  0  0  0  0  0  0  0  0  0  0  0
   40.8420   31.2070   38.7300 C   0  0  0  0  0  2  0  0  0  0  0  0
   40.3560   31.8480   37.4870 C   0  0  1  0  0  3  0  0  0  0  0  0
   38.8480   31.9580   37.4580 C   0  0  1  0  0  3  0  0  0  0  0  0
   38.4380   29.7170   36.8870 O   0  0  0  0  0  0  0  0  0  0  0  0
   37.8600   29.8920   36.1120 H   0  0  0  0  0  0  0  0  0  0  0  0
   40.8560   33.1500   37.4380 O   0  0  0  0  0  0  0  0  0  0  0  0
   41.7490   33.1970   37.0430 H   0  0  0  0  0  0  0  0  0  0  0  0
   38.5090   32.3000   36.1620 O   0  0  0  0  0  0  0  0  0  0  0  0
   39.2430   32.2350   35.5320 H   0  0  0  0  0  0  0  0  0  0  0  0
  1  5  1  0  0  0  0
  2  1  1  0  0  0  0
  3  1  1  0  0  0  0
  4  9  1  0  0  0  0
  5  4  2  0  0  0  0
  5  6  1  0  0  0  0
  6  7  2  0  0  0  0
  7  8  1  0  0  0  0
  8 12  1  0  0  0  0
  9  8  2  0  0  0  0
 10  4  1  0  0  0  0
 11  6  1  0  0  0  0
 13 19  1  6  0  0  0
 13 14  1  0  0  0  0
 14 15  1  0  0  0  0
 14  1  1  6  0  0  0
 16 15  1  0  0  0  0
 17 21  1  1  0  0  0
 17 16  1  0  0  0  0
 18 23  1  6  0  0  0
 18 17  1  0  0  0  0
 18 13  1  0  0  0  0
 20 19  1  0  0  0  0
 22 21  1  0  0  0  0
 24 23  1  0  0  0  0
M  END
>  <minimizedAffinity>
-4.57560635

$$$$
