
 OpenBabel03252506193D

 26 27  0  0  1  0  0  0  0  0999 V2000
   44.9390   35.3070   44.2320 C   0  0  0  0  0  0  0  0  0  0  0  0
   44.7470   34.6720   42.9670 C   0  0  0  0  0  0  0  0  0  0  0  0
   44.9800   33.2870   42.9180 C   0  0  0  0  0  0  0  0  0  0  0  0
   45.3700   32.6320   44.0530 N   0  0  0  0  0  0  0  0  0  0  0  0
   45.5400   33.2900   45.2380 C   0  0  0  0  0  0  0  0  0  0  0  0
   45.3180   34.6200   45.2990 N   0  0  0  0  0  0  0  0  0  0  0  0
   44.4390   35.2770   42.1380 H   0  0  0  0  0  0  0  0  0  0  0  0
   44.8410   32.7940   41.9780 H   0  0  0  0  0  0  0  0  0  0  0  0
   45.9120   31.0600   46.2110 C   0  0  2  0  0  3  0  0  0  0  0  0
   45.9600   32.5570   46.4440 C   0  0  1  0  0  3  0  0  0  0  0  0
   47.2650   32.8480   46.8400 O   0  0  0  0  0  0  0  0  0  0  0  0
   47.4150   32.3780   48.1440 C   0  0  0  0  0  2  0  0  0  0  0  0
   47.2300   30.8890   48.2670 C   0  0  2  0  0  3  0  0  0  0  0  0
   45.9630   30.4110   47.5880 C   0  0  2  0  0  3  0  0  0  0  0  0
   47.0130   30.5920   45.5000 O   0  0  0  0  0  0  0  0  0  0  0  0
   46.9860   30.8140   44.5360 H   0  0  0  0  0  0  0  0  0  0  0  0
   47.0800   30.6020   49.6330 O   0  0  0  0  0  0  0  0  0  0  0  0
   48.0010   30.5460   49.9970 H   0  0  0  0  0  0  0  0  0  0  0  0
   46.0310   29.0300   47.3980 O   0  0  0  0  0  0  0  0  0  0  0  0
   45.1270   28.6220   47.4500 H   0  0  0  0  0  0  0  0  0  0  0  0
   44.6980   36.7400   44.3010 C   0  0  0  0  0  3  0  0  0  0  0  0
   45.4350   37.5520   43.5750 C   0  0  0  0  0  3  0  0  0  0  0  0
   45.2720   39.0180   43.5640 C   0  0  0  0  0  0  0  0  0  0  0  0
   44.4870   39.2530   42.7930 H   0  0  0  0  0  0  0  0  0  0  0  0
   46.1770   39.5230   43.2190 H   0  0  0  0  0  0  0  0  0  0  0  0
   44.8700   39.4090   44.5100 H   0  0  0  0  0  0  0  0  0  0  0  0
  1 21  1  0  0  0  0
  1  6  1  0  0  0  0
  2  1  2  0  0  0  0
  3  2  1  0  0  0  0
  3  4  2  0  0  0  0
  4  5  1  0  0  0  0
  5  6  2  0  0  0  0
  7  2  1  0  0  0  0
  8  3  1  0  0  0  0
  9 15  1  6  0  0  0
  9 10  1  0  0  0  0
  9 14  1  0  0  0  0
 10  5  1  6  0  0  0
 10 11  1  0  0  0  0
 11 12  1  0  0  0  0
 12 13  1  0  0  0  0
 13 17  1  1  0  0  0
 14 19  1  6  0  0  0
 14 13  1  0  0  0  0
 16 15  1  0  0  0  0
 17 18  1  0  0  0  0
 19 20  1  0  0  0  0
 22 21  2  0  0  0  0
 23 22  1  0  0  0  0
 23 26  1  0  0  0  0
 24 23  1  0  0  0  0
 25 23  1  0  0  0  0
M  END
>  <minimizedAffinity>
-4.53119373

>  <minimizedRMSD>
2.46696663

$$$$
