
 OpenBabel03252506193D

 26 27  0  0  1  0  0  0  0  0999 V2000
   44.9580   35.1520   44.2380 C   0  0  0  0  0  0  0  0  0  0  0  0
   44.7530   34.5070   42.9800 C   0  0  0  0  0  0  0  0  0  0  0  0
   44.9940   33.1230   42.9380 C   0  0  0  0  0  0  0  0  0  0  0  0
   45.4020   32.4790   44.0740 N   0  0  0  0  0  0  0  0  0  0  0  0
   45.5830   33.1460   45.2520 C   0  0  0  0  0  0  0  0  0  0  0  0
   45.3540   34.4760   45.3060 N   0  0  0  0  0  0  0  0  0  0  0  0
   44.4320   35.1040   42.1510 H   0  0  0  0  0  0  0  0  0  0  0  0
   44.8450   32.6220   42.0040 H   0  0  0  0  0  0  0  0  0  0  0  0
   46.0910   30.9330   46.2000 C   0  0  2  0  0  3  0  0  0  0  0  0
   46.0220   32.4250   46.4570 C   0  0  1  0  0  3  0  0  0  0  0  0
   47.2920   32.8040   46.8960 O   0  0  0  0  0  0  0  0  0  0  0  0
   47.4400   32.3240   48.1950 C   0  0  0  0  0  2  0  0  0  0  0  0
   47.3610   30.8230   48.2900 C   0  0  2  0  0  3  0  0  0  0  0  0
   46.1510   30.2660   47.5680 C   0  0  2  0  0  3  0  0  0  0  0  0
   47.2430   30.5590   45.5140 O   0  0  0  0  0  0  0  0  0  0  0  0
   47.2260   30.7950   44.5540 H   0  0  0  0  0  0  0  0  0  0  0  0
   47.1950   30.5020   49.6460 O   0  0  0  0  0  0  0  0  0  0  0  0
   48.1080   30.5070   50.0360 H   0  0  0  0  0  0  0  0  0  0  0  0
   46.3250   28.8960   47.3590 O   0  0  0  0  0  0  0  0  0  0  0  0
   45.4520   28.4240   47.3790 H   0  0  0  0  0  0  0  0  0  0  0  0
   44.7100   36.5850   44.2990 C   0  0  0  0  0  3  0  0  0  0  0  0
   45.4030   37.3920   43.5260 C   0  0  0  0  0  3  0  0  0  0  0  0
   45.2280   38.8560   43.5040 C   0  0  0  0  0  0  0  0  0  0  0  0
   44.4030   39.0750   42.7700 H   0  0  0  0  0  0  0  0  0  0  0  0
   46.1100   39.3630   43.1060 H   0  0  0  0  0  0  0  0  0  0  0  0
   44.8710   39.2580   44.4630 H   0  0  0  0  0  0  0  0  0  0  0  0
  1 21  1  0  0  0  0
  1  6  1  0  0  0  0
  2  1  2  0  0  0  0
  3  2  1  0  0  0  0
  3  4  2  0  0  0  0
  4  5  1  0  0  0  0
  5  6  2  0  0  0  0
  7  2  1  0  0  0  0
  8  3  1  0  0  0  0
  9 15  1  6  0  0  0
  9 10  1  0  0  0  0
  9 14  1  0  0  0  0
 10  5  1  6  0  0  0
 10 11  1  0  0  0  0
 11 12  1  0  0  0  0
 12 13  1  0  0  0  0
 13 17  1  1  0  0  0
 14 19  1  6  0  0  0
 14 13  1  0  0  0  0
 16 15  1  0  0  0  0
 17 18  1  0  0  0  0
 19 20  1  0  0  0  0
 22 21  2  0  0  0  0
 23 22  1  0  0  0  0
 23 26  1  0  0  0  0
 24 23  1  0  0  0  0
 25 23  1  0  0  0  0
M  END
>  <minimizedAffinity>
-4.49025297

>  <minimizedRMSD>
2.50225997

$$$$
