
 OpenBabel03252503133D

 37 40  0  0  1  0  0  0  0  0999 V2000
   46.3820   34.1880   40.6540 C   0  0  0  0  0  0  0  0  0  0  0  0
   45.0500   33.9180   40.4280 C   0  0  0  0  0  0  0  0  0  0  0  0
   44.9850   33.4420   39.1710 N   0  0  0  0  0  0  0  0  0  0  0  0
   46.2520   33.4230   38.6440 C   0  0  0  0  0  0  0  0  0  0  0  0
   47.1140   33.8860   39.5660 N   0  0  0  0  0  0  0  0  0  0  0  0
   44.2390   34.0650   41.1310 H   0  0  0  0  0  0  0  0  0  0  0  0
   44.1570   33.1320   38.6500 H   0  0  0  0  0  0  0  0  0  0  0  0
   47.4570   31.7000   37.3380 C   0  0  1  0  0  3  0  0  0  0  0  0
   46.7390   32.9930   37.3050 C   0  0  1  0  0  3  0  0  0  0  0  0
   45.7080   33.1000   36.4070 O   0  0  0  0  0  0  0  0  0  0  0  0
   45.3020   31.9450   35.7860 C   0  0  0  0  0  2  0  0  0  0  0  0
   45.1640   30.8240   36.7800 C   0  0  2  0  0  3  0  0  0  0  0  0
   46.5760   30.4820   37.2260 C   0  0  1  0  0  3  0  0  0  0  0  0
   48.5020   31.6820   36.3860 O   0  0  0  0  0  0  0  0  0  0  0  0
   48.6660   32.5700   36.0000 H   0  0  0  0  0  0  0  0  0  0  0  0
   44.6660   29.7140   36.0660 O   0  0  0  0  0  0  0  0  0  0  0  0
   45.1360   28.8760   36.3670 H   0  0  0  0  0  0  0  0  0  0  0  0
   47.1090   29.6790   36.2190 O   0  0  0  0  0  0  0  0  0  0  0  0
   47.5800   28.8910   36.5390 H   0  0  0  0  0  0  0  0  0  0  0  0
   46.9760   34.7410   41.9190 C   0  0  0  0  0  0  0  0  0  0  0  0
   48.2000   35.0420   42.0430 O   0  0  0  0  0  0  0  0  0  0  0  0
   45.5430   36.1920   43.2640 C   0  0  0  0  0  0  0  0  0  0  0  0
   46.1560   34.9510   43.0590 C   0  0  0  0  0  0  0  0  0  0  0  0
   45.8950   33.9880   44.0360 C   0  0  0  0  0  0  0  0  0  0  0  0
   45.1120   34.2430   45.0930 N   0  0  0  0  0  0  0  0  0  0  0  0
   44.5400   35.4710   45.2440 C   0  0  0  0  0  0  0  0  0  0  0  0
   44.7570   36.4310   44.3350 N   0  0  0  0  0  0  0  0  0  0  0  0
   45.7050   36.9910   42.5390 H   0  0  0  0  0  0  0  0  0  0  0  0
   43.9120   35.6430   46.1100 H   0  0  0  0  0  0  0  0  0  0  0  0
   46.4760   32.7190   43.9040 C   0  0  0  0  0  0  0  0  0  0  0  0
   47.7000   32.1940   44.2160 C   0  0  0  0  0  0  0  0  0  0  0  0
   48.0090   30.9230   43.9780 C   0  0  0  0  0  0  0  0  0  0  0  0
   47.0490   30.1440   43.4030 C   0  0  0  0  0  0  0  0  0  0  0  0
   45.6380   31.3240   43.2030 S   0  0  0  0  0  0  0  0  0  0  0  0
   48.4110   32.9090   44.6810 H   0  0  0  0  0  0  0  0  0  0  0  0
   48.9520   30.4400   44.1960 H   0  0  0  0  0  0  0  0  0  0  0  0
   47.0200   29.1110   43.1040 H   0  0  0  0  0  0  0  0  0  0  0  0
  1 20  1  0  0  0  0
  2  1  2  0  0  0  0
  2  6  1  0  0  0  0
  3  2  1  0  0  0  0
  4  3  1  0  0  0  0
  4  5  2  0  0  0  0
  5  1  1  0  0  0  0
  7  3  1  0  0  0  0
  8 14  1  6  0  0  0
  9  8  1  0  0  0  0
  9  4  1  1  0  0  0
 10  9  1  0  0  0  0
 11 10  1  0  0  0  0
 11 12  1  0  0  0  0
 12 16  1  6  0  0  0
 12 13  1  0  0  0  0
 13 18  1  6  0  0  0
 13  8  1  0  0  0  0
 15 14  1  0  0  0  0
 16 17  1  0  0  0  0
 18 19  1  0  0  0  0
 20 21  2  0  0  0  0
 20 23  1  0  0  0  0
 22 27  1  0  0  0  0
 23 22  2  0  0  0  0
 23 24  1  0  0  0  0
 24 25  2  0  0  0  0
 25 26  1  0  0  0  0
 26 29  1  0  0  0  0
 27 26  2  0  0  0  0
 28 22  1  0  0  0  0
 30 24  1  0  0  0  0
 30 31  2  0  0  0  0
 31 35  1  0  0  0  0
 32 36  1  0  0  0  0
 32 31  1  0  0  0  0
 33 32  2  0  0  0  0
 34 33  1  0  0  0  0
 34 30  1  0  0  0  0
 37 33  1  0  0  0  0
M  END
>  <minimizedAffinity>
-5.05046082

>  <minimizedRMSD>
1.44729602

$$$$
