
 OpenBabel03252505083D

 46 49  0  0  1  0  0  0  0  0999 V2000
   44.6160   35.5360   44.5940 C   0  0  0  0  0  0  0  0  0  0  0  0
   45.2770   35.5120   43.3450 C   0  0  0  0  0  0  0  0  0  0  0  0
   46.3560   34.5850   43.1960 C   0  0  0  0  0  0  0  0  0  0  0  0
   46.6880   33.7920   44.2310 N   0  0  0  0  0  0  0  0  0  0  0  0
   46.0310   33.8470   45.4050 C   0  0  0  0  0  0  0  0  0  0  0  0
   44.9910   34.7190   45.5960 N   0  0  0  0  0  0  0  0  0  0  0  0
   43.7900   36.2150   44.7750 H   0  0  0  0  0  0  0  0  0  0  0  0
   44.9630   36.1760   42.5500 H   0  0  0  0  0  0  0  0  0  0  0  0
   46.4500   32.9460   46.5120 C   0  0  2  0  0  0  0  0  0  0  0  0
   46.9810   31.7090   45.8440 C   0  0  0  0  0  0  0  0  0  0  0  0
   46.1120   30.5230   45.8710 C   0  0  0  0  0  0  0  0  0  0  0  0
   45.7990   30.2820   47.3420 C   0  0  0  0  0  0  0  0  0  0  0  0
   45.0040   31.3640   47.9180 C   0  0  0  0  0  0  0  0  0  0  0  0
   45.3780   32.7280   47.4570 C   0  0  0  0  0  0  0  0  0  0  0  0
   47.2840   33.4800   47.0160 H   0  0  0  0  0  0  0  0  0  0  0  0
   47.3010   31.9010   44.7860 H   0  0  0  0  0  0  0  0  0  0  0  0
   47.9310   31.4320   46.3610 H   0  0  0  0  0  0  0  0  0  0  0  0
   46.6740   29.6620   45.4960 H   0  0  0  0  0  0  0  0  0  0  0  0
   45.1820   30.7030   45.3020 H   0  0  0  0  0  0  0  0  0  0  0  0
   46.7510   30.2040   47.8970 H   0  0  0  0  0  0  0  0  0  0  0  0
   45.1640   29.3940   47.3640 H   0  0  0  0  0  0  0  0  0  0  0  0
   44.2020   31.3590   48.6090 H   0  0  0  0  0  0  0  0  0  0  0  0
   44.6720   33.8730   47.9440 N   0  0  0  0  0  0  0  0  0  0  0  0
   45.2800   34.3860   48.6140 H   0  0  0  0  0  0  0  0  0  0  0  0
   43.7020   34.0940   47.6300 H   0  0  0  0  0  0  0  0  0  0  0  0
   47.0490   34.5400   41.9200 C   0  0  0  0  0  0  0  0  0  0  0  0
   48.0740   35.4090   41.7150 C   0  0  0  0  0  0  0  0  0  0  0  0
   48.7120   35.3320   40.4650 C   0  0  0  0  0  0  0  0  0  0  0  0
   48.2420   34.3920   39.5730 C   0  0  0  0  0  0  0  0  0  0  0  0
   47.2050   33.5180   39.7880 C   0  0  0  0  0  0  0  0  0  0  0  0
   46.6370   33.6490   41.0170 N   0  0  0  0  0  0  0  0  0  0  0  0
   48.3900   36.1220   42.4650 H   0  0  0  0  0  0  0  0  0  0  0  0
   49.5360   35.9920   40.2320 H   0  0  0  0  0  0  0  0  0  0  0  0
   48.7700   34.3780   38.6270 H   0  0  0  0  0  0  0  0  0  0  0  0
   47.7960   32.1870   37.7780 C   0  0  2  0  0  0  0  0  0  0  0  0
   46.7480   32.5250   38.7790 C   0  0  2  0  0  0  0  0  0  0  0  0
   45.5150   32.8480   38.3280 O   0  0  0  0  0  0  0  0  0  0  0  0
   45.3530   33.2260   37.0340 C   0  0  0  0  0  0  0  0  0  0  0  0
   46.1630   32.4560   36.0190 C   0  0  1  0  0  0  0  0  0  0  0  0
   47.6190   32.7370   36.4130 C   0  0  1  0  0  0  0  0  0  0  0  0
   48.0240   30.8040   37.6450 O   0  0  0  0  0  0  0  0  0  0  0  0
   48.4430   30.6350   36.7600 H   0  0  0  0  0  0  0  0  0  0  0  0
   45.8980   31.0970   36.0300 O   0  0  0  0  0  0  0  0  0  0  0  0
   45.2030   30.8160   36.6690 H   0  0  0  0  0  0  0  0  0  0  0  0
   47.8160   34.0930   36.3060 O   0  0  0  0  0  0  0  0  0  0  0  0
   48.7690   34.2440   36.0710 H   0  0  0  0  0  0  0  0  0  0  0  0
  1  7  1  0  0  0  0
  1  6  1  0  0  0  0
  2  1  2  0  0  0  0
  3  2  1  0  0  0  0
  3  4  2  0  0  0  0
  4  5  1  0  0  0  0
  5  6  2  0  0  0  0
  5  9  1  0  0  0  0
  8  2  1  0  0  0  0
  9 15  1  1  0  0  0
  9 14  1  0  0  0  0
 10 11  1  0  0  0  0
 10 17  1  0  0  0  0
 10  9  1  0  0  0  0
 11 12  1  0  0  0  0
 12 21  1  0  0  0  0
 12 20  1  0  0  0  0
 12 13  1  0  0  0  0
 13 22  1  0  0  0  0
 14 13  2  0  0  0  0
 14 23  1  0  0  0  0
 16 10  1  0  0  0  0
 18 11  1  0  0  0  0
 19 11  1  0  0  0  0
 23 24  1  0  0  0  0
 25 23  1  0  0  0  0
 26  3  1  0  0  0  0
 27 26  1  0  0  0  0
 27 32  1  0  0  0  0
 28 27  2  0  0  0  0
 29 30  2  0  0  0  0
 29 28  1  0  0  0  0
 30 31  1  0  0  0  0
 31 26  2  0  0  0  0
 33 28  1  0  0  0  0
 34 29  1  0  0  0  0
 35 41  1  6  0  0  0
 35 36  1  0  0  0  0
 36 30  1  6  0  0  0
 37 36  1  0  0  0  0
 38 37  1  0  0  0  0
 39 43  1  1  0  0  0
 39 40  1  0  0  0  0
 39 38  1  0  0  0  0
 40 45  1  1  0  0  0
 40 35  1  0  0  0  0
 42 41  1  0  0  0  0
 43 44  1  0  0  0  0
 46 45  1  0  0  0  0
M  END
>  <minimizedAffinity>
-7.94702959

>  <minimizedRMSD>
0.580134928

$$$$
