
 OpenBabel03242515133D

 30 31  0  0  1  0  0  0  0  0999 V2000
   46.2780   33.2580   46.3340 C   0  0  0  0  0  0  0  0  0  0  0  0
   46.4630   32.2710   45.8180 H   0  0  0  0  0  0  0  0  0  0  0  0
   47.2570   33.6090   46.6750 H   0  0  0  0  0  0  0  0  0  0  0  0
   44.5160   35.8330   44.2510 C   0  0  0  0  0  0  0  0  0  0  0  0
   45.2570   35.7340   43.0470 C   0  0  0  0  0  0  0  0  0  0  0  0
   46.2980   34.8080   43.0260 C   0  0  0  0  0  0  0  0  0  0  0  0
   46.5450   34.0530   44.1470 N   0  0  0  0  0  0  0  0  0  0  0  0
   45.8010   34.1910   45.2730 C   0  0  0  0  0  0  0  0  0  0  0  0
   44.7930   35.0740   45.3250 N   0  0  0  0  0  0  0  0  0  0  0  0
   43.6920   36.5250   44.3550 H   0  0  0  0  0  0  0  0  0  0  0  0
   44.9950   36.3620   42.2200 H   0  0  0  0  0  0  0  0  0  0  0  0
   47.0500   34.7150   41.7880 C   0  0  0  0  0  0  0  0  0  0  0  0
   47.8510   33.5700   41.8020 F   0  0  0  0  0  0  0  0  0  0  0  0
   47.9390   35.7790   41.7900 F   0  0  0  0  0  0  0  0  0  0  0  0
   46.2640   34.6700   40.6720 F   0  0  0  0  0  0  0  0  0  0  0  0
   45.2610   33.0250   47.3920 C   0  0  0  0  0  0  0  0  0  0  0  0
   44.9230   33.9460   47.8990 H   0  0  0  0  0  0  0  0  0  0  0  0
   44.3410   32.6390   46.8720 H   0  0  0  0  0  0  0  0  0  0  0  0
   44.8660   30.6980   48.2370 C   0  0  2  0  0  3  0  0  0  0  0  0
   45.6680   31.9570   48.3480 C   0  0  1  0  0  3  0  0  0  0  0  0
   47.0180   31.6500   48.2030 O   0  0  0  0  0  0  0  0  0  0  0  0
   47.2730   30.7540   47.1940 C   0  0  0  0  0  2  0  0  0  0  0  0
   46.8660   29.3860   47.6780 C   0  0  1  0  0  3  0  0  0  0  0  0
   45.7590   29.5460   48.7110 C   0  0  2  0  0  3  0  0  0  0  0  0
   44.4620   30.3610   46.9700 O   0  0  0  0  0  0  0  0  0  0  0  0
   44.4340   31.0670   46.3070 H   0  0  0  0  0  0  0  0  0  0  0  0
   46.4610   28.5480   46.6400 O   0  0  0  0  0  0  0  0  0  0  0  0
   46.7390   28.9290   45.7560 H   0  0  0  0  0  0  0  0  0  0  0  0
   45.0240   28.3630   48.7970 O   0  0  0  0  0  0  0  0  0  0  0  0
   44.7850   28.1200   49.7270 H   0  0  0  0  0  0  0  0  0  0  0  0
  1  3  1  0  0  0  0
  1 16  1  0  0  0  0
  2  1  1  0  0  0  0
  4 10  1  0  0  0  0
  4  9  1  0  0  0  0
  5  4  2  0  0  0  0
  6  5  1  0  0  0  0
  6  7  2  0  0  0  0
  7  8  1  0  0  0  0
  8  9  2  0  0  0  0
  8  1  1  0  0  0  0
 11  5  1  0  0  0  0
 12 14  1  0  0  0  0
 12 13  1  0  0  0  0
 12  6  1  0  0  0  0
 15 12  1  0  0  0  0
 16 17  1  0  0  0  0
 18 16  1  0  0  0  0
 19 25  1  6  0  0  0
 19 20  1  0  0  0  0
 19 24  1  0  0  0  0
 20 16  1  6  0  0  0
 21 20  1  0  0  0  0
 22 23  1  0  0  0  0
 22 21  1  0  0  0  0
 23 27  1  6  0  0  0
 23 24  1  0  0  0  0
 24 29  1  6  0  0  0
 26 25  1  0  0  0  0
 28 27  1  0  0  0  0
 29 30  1  0  0  0  0
M  END
>  <minimizedAffinity>
-5.61021948

>  <minimizedRMSD>
0.696961761

$$$$
