
 OpenBabel03242521403D

 24 25  0  0  1  0  0  0  0  0999 V2000
   44.7360   35.0620   43.2670 C   0  0  0  0  0  0  0  0  0  0  0  0
   45.5900   33.9740   43.4500 C   0  0  0  0  0  0  0  0  0  0  0  0
   45.9230   33.6100   44.7730 C   0  0  0  0  0  0  0  0  0  0  0  0
   45.3860   34.3520   45.7910 N   0  0  0  0  0  0  0  0  0  0  0  0
   44.5620   35.3990   45.5570 C   0  0  0  0  0  0  0  0  0  0  0  0
   44.2380   35.7550   44.3030 N   0  0  0  0  0  0  0  0  0  0  0  0
   46.0090   33.3940   42.6270 H   0  0  0  0  0  0  0  0  0  0  0  0
   44.1670   35.9490   46.4140 H   0  0  0  0  0  0  0  0  0  0  0  0
   45.9720   31.3430   45.5890 C   0  0  1  0  0  3  0  0  0  0  0  0
   46.8240   32.4660   45.0580 C   0  0  1  0  0  3  0  0  0  0  0  0
   47.3730   32.0440   43.8660 O   0  0  0  0  0  0  0  0  0  0  0  0
   48.2260   30.9780   43.9550 C   0  0  0  0  0  2  0  0  0  0  0  0
   47.7400   29.7940   44.7060 C   0  0  2  0  0  3  0  0  0  0  0  0
   46.7700   30.0850   45.8070 C   0  0  2  0  0  3  0  0  0  0  0  0
   45.3590   31.7390   46.7630 O   0  0  0  0  0  0  0  0  0  0  0  0
   45.0820   30.9780   47.3120 H   0  0  0  0  0  0  0  0  0  0  0  0
   48.8520   29.1890   45.2960 O   0  0  0  0  0  0  0  0  0  0  0  0
   48.5660   28.5200   45.9730 H   0  0  0  0  0  0  0  0  0  0  0  0
   45.8630   29.0300   45.9110 O   0  0  0  0  0  0  0  0  0  0  0  0
   44.9650   29.2890   46.1730 H   0  0  0  0  0  0  0  0  0  0  0  0
   44.3970   35.4300   41.8510 C   0  0  0  0  0  0  0  0  0  0  0  0
   43.3390   35.0850   41.6940 H   0  0  0  0  0  0  0  0  0  0  0  0
   45.1030   34.9960   41.1480 H   0  0  0  0  0  0  0  0  0  0  0  0
   44.3340   36.5440   41.7750 H   0  0  0  0  0  0  0  0  0  0  0  0
  1  2  2  0  0  0  0
  1  6  1  0  0  0  0
  2  3  1  0  0  0  0
  3  4  2  0  0  0  0
  5  4  1  0  0  0  0
  5  8  1  0  0  0  0
  6  5  2  0  0  0  0
  7  2  1  0  0  0  0
  9 14  1  0  0  0  0
  9 15  1  1  0  0  0
 10  3  1  6  0  0  0
 10  9  1  0  0  0  0
 11 12  1  0  0  0  0
 11 10  1  0  0  0  0
 12 13  1  0  0  0  0
 13 17  1  1  0  0  0
 13 14  1  0  0  0  0
 14 19  1  6  0  0  0
 15 16  1  0  0  0  0
 17 18  1  0  0  0  0
 19 20  1  0  0  0  0
 21  1  1  0  0  0  0
 22 21  1  0  0  0  0
 23 21  1  0  0  0  0
 24 21  1  0  0  0  0
M  END
>  <minimizedAffinity>
-4.03661823

>  <minimizedRMSD>
2.12886

$$$$
