
 OpenBabel03242515143D

 30 31  0  0  1  0  0  0  0  0999 V2000
   46.1220   33.3390   46.2280 C   0  0  0  0  0  0  0  0  0  0  0  0
   46.1230   32.3080   45.7690 H   0  0  0  0  0  0  0  0  0  0  0  0
   47.1630   33.5530   46.4910 H   0  0  0  0  0  0  0  0  0  0  0  0
   44.5410   35.9400   44.0340 C   0  0  0  0  0  0  0  0  0  0  0  0
   45.3370   35.8050   42.8690 C   0  0  0  0  0  0  0  0  0  0  0  0
   46.3480   34.8480   42.9080 C   0  0  0  0  0  0  0  0  0  0  0  0
   46.5180   34.1000   44.0480 N   0  0  0  0  0  0  0  0  0  0  0  0
   45.7250   34.2730   45.1350 C   0  0  0  0  0  0  0  0  0  0  0  0
   44.7440   35.1860   45.1280 N   0  0  0  0  0  0  0  0  0  0  0  0
   43.7350   36.6580   44.0900 H   0  0  0  0  0  0  0  0  0  0  0  0
   45.1340   36.4300   42.0230 H   0  0  0  0  0  0  0  0  0  0  0  0
   47.1560   34.7180   41.7100 C   0  0  0  0  0  0  0  0  0  0  0  0
   47.9670   33.5820   41.8030 F   0  0  0  0  0  0  0  0  0  0  0  0
   48.0340   35.7910   41.7120 F   0  0  0  0  0  0  0  0  0  0  0  0
   46.4220   34.6220   40.5630 F   0  0  0  0  0  0  0  0  0  0  0  0
   45.1510   33.3270   47.3520 C   0  0  0  0  0  0  0  0  0  0  0  0
   44.9320   34.3280   47.7660 H   0  0  0  0  0  0  0  0  0  0  0  0
   44.1700   32.9810   46.9240 H   0  0  0  0  0  0  0  0  0  0  0  0
   44.8190   31.0150   48.2640 C   0  0  2  0  0  0  0  0  0  0  0  0
   45.5090   32.3350   48.4040 C   0  0  1  0  0  0  0  0  0  0  0  0
   46.8860   32.1260   48.4420 O   0  0  0  0  0  0  0  0  0  0  0  0
   47.3270   31.2100   47.5180 C   0  0  0  0  0  0  0  0  0  0  0  0
   46.9620   29.8380   48.0200 C   0  0  1  0  0  0  0  0  0  0  0  0
   45.7250   29.9560   48.9020 C   0  0  2  0  0  0  0  0  0  0  0  0
   44.6010   30.5930   46.9760 O   0  0  0  0  0  0  0  0  0  0  0  0
   44.6060   31.2660   46.2790 H   0  0  0  0  0  0  0  0  0  0  0  0
   46.7490   28.9270   46.9860 O   0  0  0  0  0  0  0  0  0  0  0  0
   47.1070   29.2900   46.1230 H   0  0  0  0  0  0  0  0  0  0  0  0
   45.0710   28.7250   48.9590 O   0  0  0  0  0  0  0  0  0  0  0  0
   44.7360   28.5050   49.8640 H   0  0  0  0  0  0  0  0  0  0  0  0
  1  3  1  0  0  0  0
  1 16  1  0  0  0  0
  2  1  1  0  0  0  0
  4 10  1  0  0  0  0
  4  9  1  0  0  0  0
  5  6  1  0  0  0  0
  5  4  2  0  0  0  0
  6  7  2  0  0  0  0
  7  8  1  0  0  0  0
  8  1  1  0  0  0  0
  9  8  2  0  0  0  0
 11  5  1  0  0  0  0
 12 14  1  0  0  0  0
 12 13  1  0  0  0  0
 12  6  1  0  0  0  0
 15 12  1  0  0  0  0
 16 17  1  0  0  0  0
 18 16  1  0  0  0  0
 19 25  1  6  0  0  0
 19 20  1  0  0  0  0
 19 24  1  0  0  0  0
 20 16  1  6  0  0  0
 20 21  1  0  0  0  0
 22 23  1  0  0  0  0
 22 21  1  0  0  0  0
 23 27  1  6  0  0  0
 23 24  1  0  0  0  0
 24 29  1  6  0  0  0
 26 25  1  0  0  0  0
 28 27  1  0  0  0  0
 29 30  1  0  0  0  0
M  END
>  <minimizedAffinity>
-5.75899267

>  <minimizedRMSD>
1.92244303

$$$$
