
 OpenBabel03242521403D

 24 25  0  0  1  0  0  0  0  0999 V2000
   46.0410   34.6940   43.5820 C   0  0  0  0  0  0  0  0  0  0  0  0
   46.5700   33.5220   44.1220 C   0  0  0  0  0  0  0  0  0  0  0  0
   46.1550   33.1430   45.4170 C   0  0  0  0  0  0  0  0  0  0  0  0
   45.2580   33.9540   46.0590 N   0  0  0  0  0  0  0  0  0  0  0  0
   44.7750   35.0810   45.4890 C   0  0  0  0  0  0  0  0  0  0  0  0
   45.1630   35.4520   44.2570 N   0  0  0  0  0  0  0  0  0  0  0  0
   47.2850   32.8880   43.5960 H   0  0  0  0  0  0  0  0  0  0  0  0
   44.0610   35.6840   46.0550 H   0  0  0  0  0  0  0  0  0  0  0  0
   46.6540   32.1450   47.5530 C   0  0  1  0  0  0  0  0  0  0  0  0
   46.6680   31.9110   46.0660 C   0  0  1  0  0  0  0  0  0  0  0  0
   45.7890   30.8850   45.7960 O   0  0  0  0  0  0  0  0  0  0  0  0
   46.1150   29.6730   46.3380 C   0  0  0  0  0  0  0  0  0  0  0  0
   46.4460   29.6530   47.7840 C   0  0  2  0  0  0  0  0  0  0  0  0
   47.0500   30.9130   48.3220 C   0  0  2  0  0  0  0  0  0  0  0  0
   47.4850   33.2020   47.8660 O   0  0  0  0  0  0  0  0  0  0  0  0
   47.7740   33.1830   48.8030 H   0  0  0  0  0  0  0  0  0  0  0  0
   47.3850   28.6380   47.9850 O   0  0  0  0  0  0  0  0  0  0  0  0
   47.7930   28.7150   48.8850 H   0  0  0  0  0  0  0  0  0  0  0  0
   46.6350   31.0930   49.6410 O   0  0  0  0  0  0  0  0  0  0  0  0
   46.5140   32.0190   49.9070 H   0  0  0  0  0  0  0  0  0  0  0  0
   46.4990   35.0760   42.2040 C   0  0  0  0  0  0  0  0  0  0  0  0
   45.6350   34.8470   41.5230 H   0  0  0  0  0  0  0  0  0  0  0  0
   47.4140   34.5570   41.9310 H   0  0  0  0  0  0  0  0  0  0  0  0
   46.5980   36.1890   42.1540 H   0  0  0  0  0  0  0  0  0  0  0  0
  1  2  2  0  0  0  0
  1  6  1  0  0  0  0
  2  3  1  0  0  0  0
  3  4  2  0  0  0  0
  5  8  1  0  0  0  0
  5  4  1  0  0  0  0
  6  5  2  0  0  0  0
  7  2  1  0  0  0  0
  9 15  1  6  0  0  0
  9 14  1  0  0  0  0
 10  3  1  6  0  0  0
 10  9  1  0  0  0  0
 11 10  1  0  0  0  0
 11 12  1  0  0  0  0
 12 13  1  0  0  0  0
 13 17  1  6  0  0  0
 13 14  1  0  0  0  0
 14 19  1  1  0  0  0
 15 16  1  0  0  0  0
 17 18  1  0  0  0  0
 19 20  1  0  0  0  0
 21  1  1  0  0  0  0
 22 21  1  0  0  0  0
 23 21  1  0  0  0  0
 24 21  1  0  0  0  0
M  END
>  <minimizedAffinity>
-5.64241695

>  <minimizedRMSD>
3.38725424

$$$$
