
 OpenBabel03252503133D

 37 40  0  0  1  0  0  0  0  0999 V2000
   45.9470   34.2620   40.8430 C   0  0  0  0  0  0  0  0  0  0  0  0
   44.5970   34.2420   40.5650 C   0  0  0  0  0  0  0  0  0  0  0  0
   44.4730   33.5460   39.4210 N   0  0  0  0  0  0  0  0  0  0  0  0
   45.7210   33.1500   39.0110 C   0  0  0  0  0  0  0  0  0  0  0  0
   46.6320   33.5950   39.8940 N   0  0  0  0  0  0  0  0  0  0  0  0
   43.8150   34.6990   41.1600 H   0  0  0  0  0  0  0  0  0  0  0  0
   43.6150   33.3210   38.9020 H   0  0  0  0  0  0  0  0  0  0  0  0
   46.5110   33.2140   36.6650 C   0  0  1  0  0  3  0  0  0  0  0  0
   46.1470   32.3630   37.8220 C   0  0  1  0  0  3  0  0  0  0  0  0
   47.0750   31.4340   38.2160 O   0  0  0  0  0  0  0  0  0  0  0  0
   48.3230   31.5260   37.6520 C   0  0  0  0  0  2  0  0  0  0  0  0
   48.8100   32.9480   37.6560 C   0  0  2  0  0  3  0  0  0  0  0  0
   47.9390   33.6910   36.6550 C   0  0  1  0  0  3  0  0  0  0  0  0
   46.1580   32.5840   35.4490 O   0  0  0  0  0  0  0  0  0  0  0  0
   45.5950   31.7910   35.5930 H   0  0  0  0  0  0  0  0  0  0  0  0
   50.1230   32.9250   37.1390 O   0  0  0  0  0  0  0  0  0  0  0  0
   50.2570   33.7040   36.5150 H   0  0  0  0  0  0  0  0  0  0  0  0
   48.4650   33.3920   35.3980 O   0  0  0  0  0  0  0  0  0  0  0  0
   48.5600   34.1590   34.8080 H   0  0  0  0  0  0  0  0  0  0  0  0
   46.6040   34.9190   42.0240 C   0  0  0  0  0  0  0  0  0  0  0  0
   47.7780   35.3920   41.9970 O   0  0  0  0  0  0  0  0  0  0  0  0
   45.2560   36.2330   43.5810 C   0  0  0  0  0  0  0  0  0  0  0  0
   45.9050   35.0370   43.2540 C   0  0  0  0  0  0  0  0  0  0  0  0
   45.8010   34.0230   44.2080 C   0  0  0  0  0  0  0  0  0  0  0  0
   45.1280   34.1910   45.3530 N   0  0  0  0  0  0  0  0  0  0  0  0
   44.5140   35.3780   45.6210 C   0  0  0  0  0  0  0  0  0  0  0  0
   44.5810   36.3850   44.7400 N   0  0  0  0  0  0  0  0  0  0  0  0
   45.2970   37.0690   42.8800 H   0  0  0  0  0  0  0  0  0  0  0  0
   43.9770   35.4800   46.5580 H   0  0  0  0  0  0  0  0  0  0  0  0
   46.4280   32.7930   43.9550 C   0  0  0  0  0  0  0  0  0  0  0  0
   47.7080   32.3310   44.0930 C   0  0  0  0  0  0  0  0  0  0  0  0
   48.0510   31.0870   43.7680 C   0  0  0  0  0  0  0  0  0  0  0  0
   47.0690   30.2740   43.2850 C   0  0  0  0  0  0  0  0  0  0  0  0
   45.5850   31.3770   43.3070 S   0  0  0  0  0  0  0  0  0  0  0  0
   48.4320   33.0690   44.4950 H   0  0  0  0  0  0  0  0  0  0  0  0
   49.0380   30.6520   43.8500 H   0  0  0  0  0  0  0  0  0  0  0  0
   47.0580   29.2510   42.9510 H   0  0  0  0  0  0  0  0  0  0  0  0
  1 20  1  0  0  0  0
  2  1  2  0  0  0  0
  2  6  1  0  0  0  0
  3  2  1  0  0  0  0
  4  3  1  0  0  0  0
  4  5  2  0  0  0  0
  5  1  1  0  0  0  0
  7  3  1  0  0  0  0
  8 14  1  6  0  0  0
  8  9  1  0  0  0  0
  9 10  1  0  0  0  0
  9  4  1  1  0  0  0
 11 12  1  0  0  0  0
 11 10  1  0  0  0  0
 12 16  1  6  0  0  0
 13 18  1  6  0  0  0
 13  8  1  0  0  0  0
 13 12  1  0  0  0  0
 14 15  1  0  0  0  0
 17 16  1  0  0  0  0
 19 18  1  0  0  0  0
 20 23  1  0  0  0  0
 21 20  2  0  0  0  0
 22 27  1  0  0  0  0
 23 22  2  0  0  0  0
 23 24  1  0  0  0  0
 24 25  2  0  0  0  0
 25 26  1  0  0  0  0
 26 29  1  0  0  0  0
 27 26  2  0  0  0  0
 28 22  1  0  0  0  0
 30 31  2  0  0  0  0
 30 24  1  0  0  0  0
 31 35  1  0  0  0  0
 32 36  1  0  0  0  0
 32 31  1  0  0  0  0
 33 34  1  0  0  0  0
 33 32  2  0  0  0  0
 34 30  1  0  0  0  0
 37 33  1  0  0  0  0
M  END
>  <minimizedAffinity>
-5.95499086

>  <minimizedRMSD>
0.35588792

$$$$
