
 OpenBabel03242518263D

 48 52  0  0  1  0  0  0  0  0999 V2000
   46.6350   30.6880   44.6080 C   0  0  0  0  0  0  0  0  0  0  0  0
   46.1390   31.9330   44.8480 C   0  0  0  0  0  0  0  0  0  0  0  0
   46.4500   32.5280   46.0530 C   0  0  0  0  0  0  0  0  0  0  0  0
   47.2350   31.8810   46.9790 C   0  0  0  0  0  0  0  0  0  0  0  0
   47.7320   30.6100   46.7160 C   0  0  0  0  0  0  0  0  0  0  0  0
   47.4290   29.9950   45.5060 C   0  0  0  0  0  0  0  0  0  0  0  0
   48.4840   30.2070   47.8170 O   0  0  0  0  0  0  0  0  0  0  0  0
   48.1890   31.1010   48.8830 C   0  0  2  0  0  0  0  0  0  0  0  0
   47.6920   32.2530   48.2560 O   0  0  0  0  0  0  0  0  0  0  0  0
   46.4450   30.1390   43.6900 H   0  0  0  0  0  0  0  0  0  0  0  0
   46.0790   33.5160   46.2900 H   0  0  0  0  0  0  0  0  0  0  0  0
   47.8250   29.0230   45.3400 H   0  0  0  0  0  0  0  0  0  0  0  0
   47.4040   30.6910   49.5600 H   0  0  0  0  0  0  0  0  0  0  0  0
   44.4990   34.5810   42.8700 C   0  0  0  0  0  0  0  0  0  0  0  0
   43.7280   33.8560   41.9820 C   0  0  0  0  0  0  0  0  0  0  0  0
   43.7800   32.4670   42.0720 C   0  0  0  0  0  0  0  0  0  0  0  0
   44.5620   31.8620   43.0020 N   0  0  0  0  0  0  0  0  0  0  0  0
   45.3070   32.6110   43.8590 C   0  0  0  0  0  0  0  0  0  0  0  0
   45.2680   33.9610   43.7850 N   0  0  0  0  0  0  0  0  0  0  0  0
   44.5690   35.6580   42.9290 H   0  0  0  0  0  0  0  0  0  0  0  0
   43.1770   31.9250   41.3760 H   0  0  0  0  0  0  0  0  0  0  0  0
   42.9500   34.5820   41.0550 N   0  0  0  0  0  0  0  0  0  0  0  0
   43.1140   34.2890   39.6580 C   0  0  0  0  0  0  0  0  0  0  0  0
   42.3280   35.1620   38.7550 C   0  0  0  0  0  0  0  0  0  0  0  0
   40.9730   35.3400   39.1730 N   0  0  0  0  0  0  0  0  0  0  0  0
   40.7020   35.3660   40.5530 C   0  0  0  0  0  0  0  0  0  0  0  0
   41.9910   35.6080   41.3400 C   0  0  0  0  0  0  0  0  0  0  0  0
   42.9180   33.1940   39.5060 H   0  0  0  0  0  0  0  0  0  0  0  0
   44.2030   34.4290   39.4210 H   0  0  0  0  0  0  0  0  0  0  0  0
   42.7980   36.1410   38.6370 H   0  0  0  0  0  0  0  0  0  0  0  0
   42.3300   34.6910   37.7400 H   0  0  0  0  0  0  0  0  0  0  0  0
   40.5930   36.2030   38.7160 H   0  0  0  0  0  0  0  0  0  0  0  0
   40.3310   34.3720   40.8810 H   0  0  0  0  0  0  0  0  0  0  0  0
   39.9300   36.0870   40.8680 H   0  0  0  0  0  0  0  0  0  0  0  0
   41.7270   35.7020   42.4100 H   0  0  0  0  0  0  0  0  0  0  0  0
   42.4060   36.5820   41.0060 H   0  0  0  0  0  0  0  0  0  0  0  0
   49.6680   30.3010   50.6840 C   0  0  2  0  0  3  0  0  0  0  0  0
   49.4860   31.3310   49.6050 C   0  0  1  0  0  3  0  0  0  0  0  0
   50.5080   31.3750   48.6850 O   0  0  0  0  0  0  0  0  0  0  0  0
   51.6540   30.7080   49.0460 C   0  0  0  0  0  2  0  0  0  0  0  0
   52.0460   30.8590   50.4820 C   0  0  2  0  0  3  0  0  0  0  0  0
   50.9190   30.7280   51.4600 C   0  0  2  0  0  3  0  0  0  0  0  0
   49.7560   29.0060   50.2250 O   0  0  0  0  0  0  0  0  0  0  0  0
   48.9690   28.4500   50.4380 H   0  0  0  0  0  0  0  0  0  0  0  0
   52.7510   32.0490   50.6650 O   0  0  0  0  0  0  0  0  0  0  0  0
   52.1820   32.8360   50.5970 H   0  0  0  0  0  0  0  0  0  0  0  0
   51.1550   29.8300   52.4850 O   0  0  0  0  0  0  0  0  0  0  0  0
   50.9870   30.2530   53.3830 H   0  0  0  0  0  0  0  0  0  0  0  0
  1  2  2  0  0  0  0
  1  6  1  0  0  0  0
  2  3  1  0  0  0  0
  3 11  1  0  0  0  0
  3  4  2  0  0  0  0
  4  9  1  0  0  0  0
  5  4  1  0  0  0  0
  5  7  1  0  0  0  0
  6  5  2  0  0  0  0
  7  8  1  0  0  0  0
  8 13  1  1  0  0  0
  8 38  1  0  0  0  0
  9  8  1  0  0  0  0
 10  1  1  0  0  0  0
 12  6  1  0  0  0  0
 14 20  1  0  0  0  0
 14 19  1  0  0  0  0
 15 16  1  0  0  0  0
 15 14  2  0  0  0  0
 16 17  2  0  0  0  0
 17 18  1  0  0  0  0
 18  2  1  0  0  0  0
 19 18  2  0  0  0  0
 21 16  1  0  0  0  0
 22 27  1  0  0  0  0
 22 15  1  0  0  0  0
 23 22  1  0  0  0  0
 24 25  1  0  0  0  0
 24 23  1  0  0  0  0
 25 26  1  0  0  0  0
 26 34  1  0  0  0  0
 26 33  1  0  0  0  0
 26 27  1  0  0  0  0
 27 35  1  0  0  0  0
 28 23  1  0  0  0  0
 29 23  1  0  0  0  0
 30 24  1  0  0  0  0
 31 24  1  0  0  0  0
 32 25  1  0  0  0  0
 36 27  1  0  0  0  0
 37 43  1  6  0  0  0
 37 42  1  0  0  0  0
 38 39  1  6  0  0  0
 38 37  1  0  0  0  0
 39 40  1  0  0  0  0
 40 41  1  0  0  0  0
 41 45  1  6  0  0  0
 41 42  1  0  0  0  0
 42 47  1  1  0  0  0
 43 44  1  0  0  0  0
 46 45  1  0  0  0  0
 47 48  1  0  0  0  0
M  END
>  <minimizedAffinity>
-6.29935551

>  <minimizedRMSD>
0.569788992

$$$$
