
 OpenBabel03252505253D

 46 49  0  0  1  0  0  0  0  0999 V2000
   46.8200   33.4620   44.6710 F   0  0  0  0  0  0  0  0  0  0  0  0
   47.4150   32.2610   44.4590 C   0  0  0  0  0  0  0  0  0  0  0  0
   48.2080   32.1070   43.3560 C   0  0  0  0  0  0  0  0  0  0  0  0
   48.8000   30.8970   43.1500 C   0  0  0  0  0  0  0  0  0  0  0  0
   48.5870   29.8680   44.0500 C   0  0  0  0  0  0  0  0  0  0  0  0
   47.7950   30.0120   45.1560 C   0  0  0  0  0  0  0  0  0  0  0  0
   47.1950   31.2560   45.3550 C   0  0  0  0  0  0  0  0  0  0  0  0
   49.4270   30.7890   42.2710 H   0  0  0  0  0  0  0  0  0  0  0  0
   49.0870   28.9350   43.8260 H   0  0  0  0  0  0  0  0  0  0  0  0
   47.6480   29.1850   45.8430 H   0  0  0  0  0  0  0  0  0  0  0  0
   46.3780   31.3690   46.5170 N   0  0  0  0  0  0  0  0  0  0  0  0
   45.3110   30.5280   47.0080 C   0  0  0  0  0  0  0  0  0  0  0  0
   45.7100   30.3080   48.4780 C   0  0  0  0  0  0  0  0  0  0  0  0
   46.5720   31.4960   48.7810 C   0  0  0  0  0  0  0  0  0  0  0  0
   46.3670   32.3770   47.5740 C   0  0  2  0  0  0  0  0  0  0  0  0
   44.3300   31.0550   47.0270 H   0  0  0  0  0  0  0  0  0  0  0  0
   45.2580   29.5350   46.5270 H   0  0  0  0  0  0  0  0  0  0  0  0
   44.8200   30.2380   49.1080 H   0  0  0  0  0  0  0  0  0  0  0  0
   46.3480   29.3960   48.5110 H   0  0  0  0  0  0  0  0  0  0  0  0
   47.6500   31.2590   48.8420 H   0  0  0  0  0  0  0  0  0  0  0  0
   46.2670   32.0420   49.6790 H   0  0  0  0  0  0  0  0  0  0  0  0
   47.2090   33.0500   47.3620 H   0  0  0  0  0  0  0  0  0  0  0  0
   45.1170   33.1950   47.6080 C   0  0  0  0  0  0  0  0  0  0  0  0
   45.3570   34.2130   47.9960 H   0  0  0  0  0  0  0  0  0  0  0  0
   44.6520   33.2610   46.6030 H   0  0  0  0  0  0  0  0  0  0  0  0
   44.4280   32.7000   48.3380 H   0  0  0  0  0  0  0  0  0  0  0  0
   49.2580   35.3440   41.9790 C   0  0  0  0  0  0  0  0  0  0  0  0
   48.7460   35.3100   40.6810 C   0  0  0  0  0  0  0  0  0  0  0  0
   48.0400   34.1680   40.2900 C   0  0  0  0  0  0  0  0  0  0  0  0
   47.9070   33.1690   41.2120 N   0  0  0  0  0  0  0  0  0  0  0  0
   48.4010   33.2290   42.4290 C   0  0  0  0  0  0  0  0  0  0  0  0
   49.0700   34.3100   42.8080 N   0  0  0  0  0  0  0  0  0  0  0  0
   49.7890   36.2330   42.2390 H   0  0  0  0  0  0  0  0  0  0  0  0
   48.8160   36.0410   39.9290 H   0  0  0  0  0  0  0  0  0  0  0  0
   48.2300   33.9650   37.7810 C   0  0  2  0  0  0  0  0  0  0  0  0
   47.3820   33.8230   39.0160 C   0  0  1  0  0  0  0  0  0  0  0  0
   46.6610   32.6580   39.0420 O   0  0  0  0  0  0  0  0  0  0  0  0
   47.3440   31.4840   38.9830 C   0  0  0  0  0  0  0  0  0  0  0  0
   48.7460   31.6100   38.5000 C   0  0  1  0  0  0  0  0  0  0  0  0
   49.0420   32.7100   37.5530 C   0  0  2  0  0  0  0  0  0  0  0  0
   48.9510   35.1340   37.7020 O   0  0  0  0  0  0  0  0  0  0  0  0
   48.6280   35.8130   37.0920 H   0  0  0  0  0  0  0  0  0  0  0  0
   49.6770   31.5370   39.5660 O   0  0  0  0  0  0  0  0  0  0  0  0
   50.5630   31.8030   39.2000 H   0  0  0  0  0  0  0  0  0  0  0  0
   50.4130   32.9930   37.6010 O   0  0  0  0  0  0  0  0  0  0  0  0
   50.8700   32.2280   37.1680 H   0  0  0  0  0  0  0  0  0  0  0  0
  2  1  1  0  0  0  0
  2  7  1  0  0  0  0
  3  2  2  0  0  0  0
  4  3  1  0  0  0  0
  4  5  2  0  0  0  0
  5  6  1  0  0  0  0
  6  7  2  0  0  0  0
  6 10  1  0  0  0  0
  7 11  1  0  0  0  0
  8  4  1  0  0  0  0
  9  5  1  0  0  0  0
 11 12  1  0  0  0  0
 11 15  1  0  0  0  0
 12 16  1  0  0  0  0
 12 13  1  0  0  0  0
 13 19  1  0  0  0  0
 13 14  1  0  0  0  0
 13 18  1  0  0  0  0
 14 20  1  0  0  0  0
 14 21  1  0  0  0  0
 15 22  1  6  0  0  0
 15 23  1  0  0  0  0
 15 14  1  0  0  0  0
 17 12  1  0  0  0  0
 23 24  1  0  0  0  0
 23 26  1  0  0  0  0
 25 23  1  0  0  0  0
 27 33  1  0  0  0  0
 27 32  1  0  0  0  0
 28 27  2  0  0  0  0
 29 28  1  0  0  0  0
 29 30  2  0  0  0  0
 30 31  1  0  0  0  0
 31 32  2  0  0  0  0
 31  3  1  0  0  0  0
 34 28  1  0  0  0  0
 35 41  1  1  0  0  0
 35 36  1  0  0  0  0
 36 37  1  0  0  0  0
 36 29  1  1  0  0  0
 38 37  1  0  0  0  0
 39 38  1  0  0  0  0
 39 43  1  1  0  0  0
 40 45  1  1  0  0  0
 40 35  1  0  0  0  0
 40 39  1  0  0  0  0
 42 41  1  0  0  0  0
 44 43  1  0  0  0  0
 46 45  1  0  0  0  0
M  END
>  <minimizedAffinity>
-6.77985525

>  <minimizedRMSD>
0.770287871

$$$$
