
 OpenBabel03252507383D

 41 45  0  0  1  0  0  0  0  0999 V2000
   45.5390   34.8230   43.4660 C   0  0  0  0  0  0  0  0  0  0  0  0
   46.2470   33.7450   44.0620 C   0  0  0  0  0  0  0  0  0  0  0  0
   46.0410   33.5250   45.4140 C   0  0  0  0  0  0  0  0  0  0  0  0
   45.1930   34.3330   46.0900 N   0  0  0  0  0  0  0  0  0  0  0  0
   44.5270   35.3550   45.5000 C   0  0  0  0  0  0  0  0  0  0  0  0
   44.7060   35.5900   44.2040 N   0  0  0  0  0  0  0  0  0  0  0  0
   46.9150   33.1060   43.5420 H   0  0  0  0  0  0  0  0  0  0  0  0
   43.8470   36.0070   46.0320 H   0  0  0  0  0  0  0  0  0  0  0  0
   46.9830   32.7130   47.5040 C   0  0  0  0  0  0  0  0  0  0  0  0
   46.6890   32.4630   46.1710 C   0  0  0  0  0  0  0  0  0  0  0  0
   47.0220   31.2440   45.6560 C   0  0  0  0  0  0  0  0  0  0  0  0
   47.6360   30.2500   46.3940 C   0  0  0  0  0  0  0  0  0  0  0  0
   48.0450   29.0000   46.0980 N   0  0  0  0  0  0  0  0  0  0  0  0
   48.5970   28.4630   47.2480 C   0  0  0  0  0  0  0  0  0  0  0  0
   48.5130   29.3890   48.2090 N   0  0  0  0  0  0  0  0  0  0  0  0
   47.9280   30.4860   47.7060 C   0  0  0  0  0  0  0  0  0  0  0  0
   47.6030   31.7160   48.2620 C   0  0  0  0  0  0  0  0  0  0  0  0
   46.7600   33.6450   48.0050 H   0  0  0  0  0  0  0  0  0  0  0  0
   46.8000   31.0300   44.6130 H   0  0  0  0  0  0  0  0  0  0  0  0
   47.9420   28.5620   45.1580 H   0  0  0  0  0  0  0  0  0  0  0  0
   48.9900   27.4510   47.2170 H   0  0  0  0  0  0  0  0  0  0  0  0
   47.8300   31.9280   49.3180 H   0  0  0  0  0  0  0  0  0  0  0  0
   45.7460   35.0450   42.1060 O   0  0  0  0  0  0  0  0  0  0  0  0
   44.7120   34.8200   41.2010 C   0  0  0  0  0  0  0  0  0  0  0  0
   45.1270   33.6680   40.6370 C   0  0  0  0  0  0  0  0  0  0  0  0
   43.7320   33.3210   39.3870 S   0  0  0  0  0  0  0  0  0  0  0  0
   42.8660   34.9080   39.9550 C   0  0  0  0  0  0  0  0  0  0  0  0
   43.5800   35.2540   40.7200 N   0  0  0  0  0  0  0  0  0  0  0  0
   45.8390   32.7390   40.4500 H   0  0  0  0  0  0  0  0  0  0  0  0
   40.9890   34.6720   38.3870 C   0  0  1  0  0  3  0  0  0  0  0  0
   41.5340   35.5250   39.4710 C   0  0  1  0  0  3  0  0  0  0  0  0
   40.7220   35.7670   40.5370 O   0  0  0  0  0  0  0  0  0  0  0  0
   39.9610   34.6920   40.9560 C   0  0  0  0  0  2  0  0  0  0  0  0
   38.9580   34.4080   39.8540 C   0  0  1  0  0  3  0  0  0  0  0  0
   39.7870   33.8680   38.6980 C   0  0  2  0  0  3  0  0  0  0  0  0
   40.6540   35.4790   37.2760 O   0  0  0  0  0  0  0  0  0  0  0  0
   40.2200   36.2800   37.6870 H   0  0  0  0  0  0  0  0  0  0  0  0
   38.0120   33.4730   40.2230 O   0  0  0  0  0  0  0  0  0  0  0  0
   37.3190   33.9760   40.7590 H   0  0  0  0  0  0  0  0  0  0  0  0
   40.1180   32.5430   39.0290 O   0  0  0  0  0  0  0  0  0  0  0  0
   39.3240   31.9550   38.9970 H   0  0  0  0  0  0  0  0  0  0  0  0
  1  2  2  0  0  0  0
  1  6  1  0  0  0  0
  2  3  1  0  0  0  0
  3  4  2  0  0  0  0
  3 10  1  0  0  0  0
  5  8  1  0  0  0  0
  5  4  1  0  0  0  0
  6  5  2  0  0  0  0
  7  2  1  0  0  0  0
  9 18  1  0  0  0  0
  9 17  1  0  0  0  0
 10  9  2  0  0  0  0
 11 10  1  0  0  0  0
 11 12  2  0  0  0  0
 12 16  1  0  0  0  0
 13 12  1  0  0  0  0
 13 14  1  0  0  0  0
 14 15  2  0  0  0  0
 16 15  1  0  0  0  0
 16 17  2  0  0  0  0
 17 22  1  0  0  0  0
 19 11  1  0  0  0  0
 20 13  1  0  0  0  0
 21 14  1  0  0  0  0
 23  1  1  0  0  0  0
 24 23  1  0  0  0  0
 25 24  2  0  0  0  0
 26 27  1  0  0  0  0
 26 25  1  0  0  0  0
 27 28  2  0  0  0  0
 28 24  1  0  0  0  0
 29 25  1  0  0  0  0
 30 36  1  6  0  0  0
 30 35  1  0  0  0  0
 30 31  1  0  0  0  0
 31 27  1  1  0  0  0
 31 32  1  0  0  0  0
 32 33  1  0  0  0  0
 34 38  1  1  0  0  0
 34 33  1  0  0  0  0
 35 40  1  1  0  0  0
 35 34  1  0  0  0  0
 36 37  1  0  0  0  0
 38 39  1  0  0  0  0
 41 40  1  0  0  0  0
M  END
>  <minimizedAffinity>
-7.5811882

>  <minimizedRMSD>
0.255774707

$$$$
