
 OpenBabel03252504333D

 43 45  0  0  1  0  0  0  0  0999 V2000
   40.9520   35.1500   41.5810 C   0  0  0  0  0  0  0  0  0  0  0  0
   41.1660   34.8560   42.6460 H   0  0  0  0  0  0  0  0  0  0  0  0
   40.2590   36.0160   41.6590 H   0  0  0  0  0  0  0  0  0  0  0  0
   40.6340   32.7400   41.4860 C   0  0  0  0  0  0  0  0  0  0  0  0
   40.1610   33.9930   41.0570 C   0  0  0  0  0  0  0  0  0  0  0  0
   39.0740   34.0320   40.2540 C   0  0  0  0  0  0  0  0  0  0  0  0
   38.5320   32.8700   39.9310 N   0  0  0  0  0  0  0  0  0  0  0  0
   38.9480   31.6760   40.3170 C   0  0  0  0  0  0  0  0  0  0  0  0
   40.0670   31.5680   41.1470 N   0  0  0  0  0  0  0  0  0  0  0  0
   41.4960   32.6160   42.1290 H   0  0  0  0  0  0  0  0  0  0  0  0
   38.7460   35.0140   39.9470 H   0  0  0  0  0  0  0  0  0  0  0  0
   37.1980   30.0450   40.8310 C   0  0  1  0  0  0  0  0  0  0  0  0
   38.2960   30.3940   39.9220 C   0  0  2  0  0  0  0  0  0  0  0  0
   39.2950   29.4810   39.7370 O   0  0  0  0  0  0  0  0  0  0  0  0
   39.0490   28.1960   40.1260 C   0  0  0  0  0  0  0  0  0  0  0  0
   38.8150   28.3030   41.6400 C   0  0  1  0  0  0  0  0  0  0  0  0
   37.4150   28.8670   41.7350 C   0  0  1  0  0  0  0  0  0  0  0  0
   36.7940   31.1130   41.6640 O   0  0  0  0  0  0  0  0  0  0  0  0
   37.1240   31.0090   42.5760 H   0  0  0  0  0  0  0  0  0  0  0  0
   38.8830   27.0310   42.1520 O   0  0  0  0  0  0  0  0  0  0  0  0
   39.5660   26.5060   41.6460 H   0  0  0  0  0  0  0  0  0  0  0  0
   37.1890   29.1520   43.0830 O   0  0  0  0  0  0  0  0  0  0  0  0
   36.4850   28.5840   43.4840 H   0  0  0  0  0  0  0  0  0  0  0  0
   42.0100   35.4900   40.8020 O   0  0  0  0  0  0  0  0  0  0  0  0
   43.3610   35.4480   41.1230 C   0  0  0  0  0  0  0  0  0  0  0  0
   43.6560   35.5120   42.4180 C   0  0  0  0  0  0  0  0  0  0  0  0
   45.0530   35.4800   43.0100 C   0  0  0  0  0  0  0  0  0  0  0  0
   45.7320   34.9750   42.2940 H   0  0  0  0  0  0  0  0  0  0  0  0
   45.4280   36.4960   43.2220 H   0  0  0  0  0  0  0  0  0  0  0  0
   44.9880   34.7340   44.1710 O   0  0  0  0  0  0  0  0  0  0  0  0
   45.7240   32.5630   42.8180 O   0  0  0  0  0  0  0  0  0  0  0  0
   45.9760   33.3710   44.0720 P   0  0  1  0  0  0  0  0  0  0  0  0
   47.6160   33.8370   44.0400 O   0  0  0  0  0  0  0  0  0  0  0  0
   47.6450   34.6410   44.6500 H   0  0  0  0  0  0  0  0  0  0  0  0
   45.7670   32.4020   45.4360 O   0  0  0  0  0  0  0  0  0  0  0  0
   46.1060   33.0560   46.6040 C   0  0  0  0  0  0  0  0  0  0  0  0
   47.0380   32.3840   47.5650 C   0  0  0  0  0  0  0  0  0  0  0  0
   45.5500   32.4570   47.8720 C   0  0  0  0  0  0  0  0  0  0  0  0
   46.1130   34.1600   46.5420 H   0  0  0  0  0  0  0  0  0  0  0  0
   47.4540   31.4160   47.2090 H   0  0  0  0  0  0  0  0  0  0  0  0
   47.6720   33.0680   48.1620 H   0  0  0  0  0  0  0  0  0  0  0  0
   45.2050   33.1230   48.6870 H   0  0  0  0  0  0  0  0  0  0  0  0
   45.0450   31.4700   47.8250 H   0  0  0  0  0  0  0  0  0  0  0  0
  1  3  1  0  0  0  0
  1  2  1  0  0  0  0
  4 10  1  0  0  0  0
  5  4  2  0  0  0  0
  5  1  1  0  0  0  0
  6  5  1  0  0  0  0
  7  6  2  0  0  0  0
  7  8  1  0  0  0  0
  8  9  2  0  0  0  0
  9  4  1  0  0  0  0
 11  6  1  0  0  0  0
 12 18  1  1  0  0  0
 12 17  1  0  0  0  0
 13  8  1  1  0  0  0
 13 12  1  0  0  0  0
 14 13  1  0  0  0  0
 14 15  1  0  0  0  0
 15 16  1  0  0  0  0
 16 17  1  0  0  0  0
 16 20  1  1  0  0  0
 17 22  1  1  0  0  0
 18 19  1  0  0  0  0
 21 20  1  0  0  0  0
 22 23  1  0  0  0  0
 24 25  1  0  0  0  0
 24  1  1  0  0  0  0
 25 26  2  0  0  0  0
 26 27  1  0  0  0  0
 27 29  1  0  0  0  0
 27 30  1  0  0  0  0
 28 27  1  0  0  0  0
 32 31  2  6  0  0  0
 32 30  1  0  0  0  0
 32 35  1  0  0  0  0
 33 32  1  0  0  0  0
 33 34  1  0  0  0  0
 35 36  1  0  0  0  0
 36 37  1  0  0  0  0
 36 38  1  0  0  0  0
 37 38  1  0  0  0  0
 37 41  1  0  0  0  0
 38 42  1  0  0  0  0
 39 36  1  0  0  0  0
 40 37  1  0  0  0  0
 43 38  1  0  0  0  0
M  END
>  <minimizedAffinity>
-5.87764835

>  <minimizedRMSD>
1.20169044

$$$$
