
 OpenBabel03252507083D

 27 28  0  0  1  0  0  0  0  0999 V2000
   44.5400   35.8170   44.5880 C   0  0  0  0  0  0  0  0  0  0  0  0
   45.1520   35.8030   43.3190 C   0  0  0  0  0  0  0  0  0  0  0  0
   46.1360   34.8520   43.0820 C   0  0  0  0  0  0  0  0  0  0  0  0
   46.4730   33.9720   44.0780 N   0  0  0  0  0  0  0  0  0  0  0  0
   45.8690   34.0170   45.2720 C   0  0  0  0  0  0  0  0  0  0  0  0
   44.9050   34.9310   45.5390 N   0  0  0  0  0  0  0  0  0  0  0  0
   43.7820   36.5650   44.7400 H   0  0  0  0  0  0  0  0  0  0  0  0
   44.8760   36.4950   42.5580 H   0  0  0  0  0  0  0  0  0  0  0  0
   45.0760   32.9170   47.2750 C   0  0  1  0  0  3  0  0  0  0  0  0
   46.2490   33.0580   46.3320 C   0  0  1  0  0  3  0  0  0  0  0  0
   46.5850   31.8060   45.8530 O   0  0  0  0  0  0  0  0  0  0  0  0
   47.0870   31.0750   46.9310 C   0  0  0  0  0  2  0  0  0  0  0  0
   45.9910   30.7720   47.9300 C   0  0  2  0  0  3  0  0  0  0  0  0
   45.4890   32.0960   48.4770 C   0  0  1  0  0  3  0  0  0  0  0  0
   44.5850   34.1670   47.6660 O   0  0  0  0  0  0  0  0  0  0  0  0
   45.3240   34.8070   47.8150 H   0  0  0  0  0  0  0  0  0  0  0  0
   46.5000   29.9790   48.9370 O   0  0  0  0  0  0  0  0  0  0  0  0
   47.2940   30.3800   49.3380 H   0  0  0  0  0  0  0  0  0  0  0  0
   46.5010   32.6760   49.2040 O   0  0  0  0  0  0  0  0  0  0  0  0
   46.7850   33.5650   48.9210 H   0  0  0  0  0  0  0  0  0  0  0  0
   46.7260   34.8600   41.8150 O   0  0  0  0  0  0  0  0  0  0  0  0
   48.6970   33.2210   41.1390 O   0  0  0  0  0  0  0  0  0  0  0  0
   48.4240   34.6070   41.6920 P   0  0  0  0  0  0  0  0  0  0  0  0
   49.0650   35.8100   40.7150 O   0  0  0  0  0  0  0  0  0  0  0  0
   49.1310   36.6330   41.2610 H   0  0  0  0  0  0  0  0  0  0  0  0
   49.0680   34.6810   43.2580 O   0  0  0  0  0  0  0  0  0  0  0  0
   49.5190   35.5670   43.4100 H   0  0  0  0  0  0  0  0  0  0  0  0
  1  7  1  0  0  0  0
  1  6  1  0  0  0  0
  2  1  2  0  0  0  0
  3  2  1  0  0  0  0
  3  4  2  0  0  0  0
  4  5  1  0  0  0  0
  5  6  2  0  0  0  0
  8  2  1  0  0  0  0
  9 15  1  1  0  0  0
  9 14  1  0  0  0  0
 10  5  1  6  0  0  0
 10  9  1  0  0  0  0
 11 10  1  0  0  0  0
 11 12  1  0  0  0  0
 12 13  1  0  0  0  0
 13 14  1  0  0  0  0
 13 17  1  1  0  0  0
 14 19  1  6  0  0  0
 15 16  1  0  0  0  0
 17 18  1  0  0  0  0
 20 19  1  0  0  0  0
 21  3  1  0  0  0  0
 22 23  2  0  0  0  0
 23 21  1  0  0  0  0
 23 26  1  0  0  0  0
 24 25  1  0  0  0  0
 24 23  1  0  0  0  0
 26 27  1  0  0  0  0
M  END
>  <minimizedAffinity>
-7.01975965

>  <minimizedRMSD>
0.596256793

$$$$
