
 OpenBabel03252506193D

 26 27  0  0  1  0  0  0  0  0999 V2000
   44.9450   35.2530   44.2360 C   0  0  0  0  0  0  0  0  0  0  0  0
   44.7590   34.6160   42.9710 C   0  0  0  0  0  0  0  0  0  0  0  0
   44.9980   33.2310   42.9250 C   0  0  0  0  0  0  0  0  0  0  0  0
   45.3880   32.5800   44.0620 N   0  0  0  0  0  0  0  0  0  0  0  0
   45.5520   33.2400   45.2470 C   0  0  0  0  0  0  0  0  0  0  0  0
   45.3240   34.5700   45.3050 N   0  0  0  0  0  0  0  0  0  0  0  0
   44.4510   35.2180   42.1400 H   0  0  0  0  0  0  0  0  0  0  0  0
   44.8640   32.7360   41.9850 H   0  0  0  0  0  0  0  0  0  0  0  0
   45.9270   31.0140   46.2260 C   0  0  2  0  0  3  0  0  0  0  0  0
   45.9720   32.5110   46.4550 C   0  0  1  0  0  3  0  0  0  0  0  0
   47.2770   32.8060   46.8530 O   0  0  0  0  0  0  0  0  0  0  0  0
   47.4250   32.3390   48.1570 C   0  0  0  0  0  2  0  0  0  0  0  0
   47.2430   30.8500   48.2840 C   0  0  2  0  0  3  0  0  0  0  0  0
   45.9770   30.3690   47.6050 C   0  0  2  0  0  3  0  0  0  0  0  0
   47.0290   30.5450   45.5180 O   0  0  0  0  0  0  0  0  0  0  0  0
   47.0040   30.7640   44.5530 H   0  0  0  0  0  0  0  0  0  0  0  0
   47.0930   30.5660   49.6500 O   0  0  0  0  0  0  0  0  0  0  0  0
   48.0140   30.5130   50.0150 H   0  0  0  0  0  0  0  0  0  0  0  0
   46.0470   28.9860   47.4180 O   0  0  0  0  0  0  0  0  0  0  0  0
   45.1440   28.5770   47.4690 H   0  0  0  0  0  0  0  0  0  0  0  0
   44.6980   36.6850   44.3020 C   0  0  0  0  0  3  0  0  0  0  0  0
   45.4270   37.4990   43.5700 C   0  0  0  0  0  3  0  0  0  0  0  0
   45.2560   38.9640   43.5560 C   0  0  0  0  0  0  0  0  0  0  0  0
   44.4660   39.1930   42.7880 H   0  0  0  0  0  0  0  0  0  0  0  0
   46.1570   39.4720   43.2040 H   0  0  0  0  0  0  0  0  0  0  0  0
   44.8580   39.3560   44.5030 H   0  0  0  0  0  0  0  0  0  0  0  0
  1 21  1  0  0  0  0
  1  6  1  0  0  0  0
  2  1  2  0  0  0  0
  3  2  1  0  0  0  0
  3  4  2  0  0  0  0
  4  5  1  0  0  0  0
  5  6  2  0  0  0  0
  7  2  1  0  0  0  0
  8  3  1  0  0  0  0
  9 15  1  6  0  0  0
  9 10  1  0  0  0  0
  9 14  1  0  0  0  0
 10  5  1  6  0  0  0
 10 11  1  0  0  0  0
 11 12  1  0  0  0  0
 12 13  1  0  0  0  0
 13 17  1  1  0  0  0
 14 19  1  6  0  0  0
 14 13  1  0  0  0  0
 16 15  1  0  0  0  0
 17 18  1  0  0  0  0
 19 20  1  0  0  0  0
 22 21  2  0  0  0  0
 23 22  1  0  0  0  0
 23 26  1  0  0  0  0
 24 23  1  0  0  0  0
 25 23  1  0  0  0  0
M  END
>  <minimizedAffinity>
-4.51437473

>  <minimizedRMSD>
2.48834133

$$$$
