
 OpenBabel03252507083D

 27 28  0  0  1  0  0  0  0  0999 V2000
   44.5570   36.2030   44.5530 C   0  0  0  0  0  0  0  0  0  0  0  0
   45.1820   36.0940   43.2960 C   0  0  0  0  0  0  0  0  0  0  0  0
   45.9360   34.9550   43.0410 C   0  0  0  0  0  0  0  0  0  0  0  0
   46.0430   33.9910   44.0100 N   0  0  0  0  0  0  0  0  0  0  0  0
   45.4350   34.1310   45.1930 C   0  0  0  0  0  0  0  0  0  0  0  0
   44.6920   35.2280   45.4780 N   0  0  0  0  0  0  0  0  0  0  0  0
   43.9810   37.0960   44.7200 H   0  0  0  0  0  0  0  0  0  0  0  0
   45.0860   36.8540   42.5560 H   0  0  0  0  0  0  0  0  0  0  0  0
   47.0400   32.8180   46.4390 C   0  0  1  0  0  3  0  0  0  0  0  0
   45.5650   33.0780   46.2230 C   0  0  1  0  0  3  0  0  0  0  0  0
   44.9930   33.4120   47.4360 O   0  0  0  0  0  0  0  0  0  0  0  0
   45.0330   32.2720   48.2380 C   0  0  0  0  0  2  0  0  0  0  0  0
   46.4590   31.9340   48.6200 C   0  0  2  0  0  3  0  0  0  0  0  0
   47.2140   31.6150   47.3420 C   0  0  1  0  0  3  0  0  0  0  0  0
   47.7080   32.6330   45.2230 O   0  0  0  0  0  0  0  0  0  0  0  0
   47.1530   32.1120   44.5910 H   0  0  0  0  0  0  0  0  0  0  0  0
   46.4590   30.8570   49.4800 O   0  0  0  0  0  0  0  0  0  0  0  0
   45.9670   30.1040   49.1040 H   0  0  0  0  0  0  0  0  0  0  0  0
   46.6910   30.4600   46.8080 O   0  0  0  0  0  0  0  0  0  0  0  0
   46.3430   30.5210   45.9010 H   0  0  0  0  0  0  0  0  0  0  0  0
   46.5440   34.8730   41.7850 O   0  0  0  0  0  0  0  0  0  0  0  0
   48.4210   33.1190   41.1290 O   0  0  0  0  0  0  0  0  0  0  0  0
   48.2240   34.5090   41.7030 P   0  0  0  0  0  0  0  0  0  0  0  0
   48.9720   35.6850   40.7710 O   0  0  0  0  0  0  0  0  0  0  0  0
   49.0770   36.4910   41.3360 H   0  0  0  0  0  0  0  0  0  0  0  0
   48.8270   34.5090   43.2880 O   0  0  0  0  0  0  0  0  0  0  0  0
   49.3310   35.3590   43.4710 H   0  0  0  0  0  0  0  0  0  0  0  0
  1  7  1  0  0  0  0
  1  6  1  0  0  0  0
  2  1  2  0  0  0  0
  3  2  1  0  0  0  0
  3  4  2  0  0  0  0
  4  5  1  0  0  0  0
  5  6  2  0  0  0  0
  8  2  1  0  0  0  0
  9 15  1  6  0  0  0
  9 14  1  0  0  0  0
 10  5  1  6  0  0  0
 10  9  1  0  0  0  0
 10 11  1  0  0  0  0
 11 12  1  0  0  0  0
 12 13  1  0  0  0  0
 13 17  1  1  0  0  0
 14 19  1  6  0  0  0
 14 13  1  0  0  0  0
 16 15  1  0  0  0  0
 18 17  1  0  0  0  0
 20 19  1  0  0  0  0
 21  3  1  0  0  0  0
 22 23  2  0  0  0  0
 23 21  1  0  0  0  0
 23 26  1  0  0  0  0
 24 25  1  0  0  0  0
 24 23  1  0  0  0  0
 26 27  1  0  0  0  0
M  END
>  <minimizedAffinity>
-6.35425043

>  <minimizedRMSD>
0.473936528

$$$$
