
 OpenBabel03252505083D

 46 49  0  0  1  0  0  0  0  0999 V2000
   44.5780   35.5780   44.5960 C   0  0  0  0  0  0  0  0  0  0  0  0
   45.2420   35.5920   43.3480 C   0  0  0  0  0  0  0  0  0  0  0  0
   46.3310   34.6820   43.1780 C   0  0  0  0  0  0  0  0  0  0  0  0
   46.6700   33.8670   44.1940 N   0  0  0  0  0  0  0  0  0  0  0  0
   46.0120   33.8860   45.3670 C   0  0  0  0  0  0  0  0  0  0  0  0
   44.9610   34.7410   45.5770 N   0  0  0  0  0  0  0  0  0  0  0  0
   43.7450   36.2430   44.7910 H   0  0  0  0  0  0  0  0  0  0  0  0
   44.9210   36.2720   42.5680 H   0  0  0  0  0  0  0  0  0  0  0  0
   46.4390   32.9630   46.4530 C   0  0  2  0  0  0  0  0  0  0  0  0
   46.9540   31.7350   45.7560 C   0  0  0  0  0  0  0  0  0  0  0  0
   46.0780   30.5540   45.7730 C   0  0  0  0  0  0  0  0  0  0  0  0
   45.7820   30.2880   47.2440 C   0  0  0  0  0  0  0  0  0  0  0  0
   45.0010   31.3650   47.8490 C   0  0  0  0  0  0  0  0  0  0  0  0
   45.3770   32.7340   47.4070 C   0  0  0  0  0  0  0  0  0  0  0  0
   47.2830   33.4830   46.9560 H   0  0  0  0  0  0  0  0  0  0  0  0
   47.2620   31.9440   44.6980 H   0  0  0  0  0  0  0  0  0  0  0  0
   47.9080   31.4430   46.2560 H   0  0  0  0  0  0  0  0  0  0  0  0
   46.6300   29.6960   45.3750 H   0  0  0  0  0  0  0  0  0  0  0  0
   45.1420   30.7490   45.2190 H   0  0  0  0  0  0  0  0  0  0  0  0
   46.7410   30.1950   47.7840 H   0  0  0  0  0  0  0  0  0  0  0  0
   45.1430   29.4040   47.2570 H   0  0  0  0  0  0  0  0  0  0  0  0
   44.2080   31.3510   48.5490 H   0  0  0  0  0  0  0  0  0  0  0  0
   44.6850   33.8740   47.9240 N   0  0  0  0  0  0  0  0  0  0  0  0
   45.3040   34.3710   48.5940 H   0  0  0  0  0  0  0  0  0  0  0  0
   43.7120   34.1070   47.6260 H   0  0  0  0  0  0  0  0  0  0  0  0
   47.0260   34.6760   41.9020 C   0  0  0  0  0  0  0  0  0  0  0  0
   48.1720   35.4000   41.7920 C   0  0  0  0  0  0  0  0  0  0  0  0
   48.8070   35.3690   40.5390 C   0  0  0  0  0  0  0  0  0  0  0  0
   48.2160   34.6130   39.5500 C   0  0  0  0  0  0  0  0  0  0  0  0
   47.0580   33.8840   39.6690 C   0  0  0  0  0  0  0  0  0  0  0  0
   46.5000   33.9620   40.9070 N   0  0  0  0  0  0  0  0  0  0  0  0
   48.5790   35.9710   42.6150 H   0  0  0  0  0  0  0  0  0  0  0  0
   49.7230   35.9210   40.3780 H   0  0  0  0  0  0  0  0  0  0  0  0
   48.7480   34.6260   38.6060 H   0  0  0  0  0  0  0  0  0  0  0  0
   45.0000   33.2620   38.4310 C   0  0  2  0  0  3  0  0  0  0  0  0
   46.4720   33.0880   38.5570 C   0  0  2  0  0  3  0  0  0  0  0  0
   46.9660   31.8290   38.5710 O   0  0  0  0  0  0  0  0  0  0  0  0
   46.1420   30.7880   38.8500 C   0  0  0  0  0  2  0  0  0  0  0  0
   44.7600   30.8650   38.2470 C   0  0  1  0  0  3  0  0  0  0  0  0
   44.1520   32.1290   38.8720 C   0  0  1  0  0  3  0  0  0  0  0  0
   44.5820   33.6170   37.1340 O   0  0  0  0  0  0  0  0  0  0  0  0
   43.6240   33.3760   37.0320 H   0  0  0  0  0  0  0  0  0  0  0  0
   44.7730   30.9510   36.8660 O   0  0  0  0  0  0  0  0  0  0  0  0
   45.6670   30.9200   36.4570 H   0  0  0  0  0  0  0  0  0  0  0  0
   44.1100   31.9320   40.2310 O   0  0  0  0  0  0  0  0  0  0  0  0
   43.3360   32.4410   40.5890 H   0  0  0  0  0  0  0  0  0  0  0  0
  1  7  1  0  0  0  0
  1  6  1  0  0  0  0
  2  1  2  0  0  0  0
  3  2  1  0  0  0  0
  3  4  2  0  0  0  0
  4  5  1  0  0  0  0
  5  6  2  0  0  0  0
  5  9  1  0  0  0  0
  8  2  1  0  0  0  0
  9 15  1  1  0  0  0
  9 14  1  0  0  0  0
 10 11  1  0  0  0  0
 10 17  1  0  0  0  0
 10  9  1  0  0  0  0
 11 12  1  0  0  0  0
 12 21  1  0  0  0  0
 12 20  1  0  0  0  0
 12 13  1  0  0  0  0
 13 22  1  0  0  0  0
 14 13  2  0  0  0  0
 14 23  1  0  0  0  0
 16 10  1  0  0  0  0
 18 11  1  0  0  0  0
 19 11  1  0  0  0  0
 23 24  1  0  0  0  0
 25 23  1  0  0  0  0
 26  3  1  0  0  0  0
 27 26  1  0  0  0  0
 27 32  1  0  0  0  0
 28 27  2  0  0  0  0
 29 30  2  0  0  0  0
 29 28  1  0  0  0  0
 30 31  1  0  0  0  0
 31 26  2  0  0  0  0
 33 28  1  0  0  0  0
 34 29  1  0  0  0  0
 35 41  1  6  0  0  0
 35 36  1  0  0  0  0
 35 40  1  0  0  0  0
 36 37  1  0  0  0  0
 36 30  1  1  0  0  0
 37 38  1  0  0  0  0
 39 43  1  6  0  0  0
 39 38  1  0  0  0  0
 39 40  1  0  0  0  0
 40 45  1  1  0  0  0
 42 41  1  0  0  0  0
 44 43  1  0  0  0  0
 45 46  1  0  0  0  0
M  END
>  <minimizedAffinity>
-7.65822601

>  <minimizedRMSD>
0.110188827

$$$$
