
 OpenBabel03242523543D

 48 51  0  0  1  0  0  0  0  0999 V2000
   42.6560   34.2510   39.2730 C   0  0  1  0  0  0  0  0  0  0  0  0
   43.1180   35.1120   40.4420 C   0  0  1  0  0  0  0  0  0  0  0  0
   41.9860   35.7180   41.0150 O   0  0  0  0  0  0  0  0  0  0  0  0
   41.0280   36.0730   40.0640 C   0  0  0  0  0  0  0  0  0  0  0  0
   40.3590   34.8580   39.4510 C   0  0  2  0  0  0  0  0  0  0  0  0
   41.3470   33.6560   39.6760 C   0  0  1  0  0  0  0  0  0  0  0  0
   43.4290   33.4660   39.1050 H   0  0  0  0  0  0  0  0  0  0  0  0
   43.8670   35.8600   40.1420 H   0  0  0  0  0  0  0  0  0  0  0  0
   40.2500   36.6140   40.6170 H   0  0  0  0  0  0  0  0  0  0  0  0
   41.4230   36.7780   39.3150 H   0  0  0  0  0  0  0  0  0  0  0  0
   39.3890   34.6320   39.9130 H   0  0  0  0  0  0  0  0  0  0  0  0
   41.2230   33.6340   40.8060 H   0  0  0  0  0  0  0  0  0  0  0  0
   42.5100   35.0220   38.1120 O   0  0  0  0  0  0  0  0  0  0  0  0
   42.9360   34.5710   37.3460 H   0  0  0  0  0  0  0  0  0  0  0  0
   40.2880   35.0140   38.0740 O   0  0  0  0  0  0  0  0  0  0  0  0
   39.4400   34.7350   37.6890 H   0  0  0  0  0  0  0  0  0  0  0  0
   43.5410   34.2030   41.4220 O   0  0  0  0  0  0  0  0  0  0  0  0
   44.7140   34.2560   42.0610 C   0  0  0  0  0  0  0  0  0  0  0  0
   45.9190   34.4370   41.3630 C   0  0  0  0  0  0  0  0  0  0  0  0
   47.0970   34.4830   42.0890 C   0  0  0  0  0  0  0  0  0  0  0  0
   47.0540   34.3510   43.4680 N   0  0  0  0  0  0  0  0  0  0  0  0
   45.8770   34.1780   44.1050 C   0  0  0  0  0  0  0  0  0  0  0  0
   44.7110   34.1300   43.4110 N   0  0  0  0  0  0  0  0  0  0  0  0
   45.9390   34.5390   40.2920 H   0  0  0  0  0  0  0  0  0  0  0  0
   45.8730   34.0790   45.1700 H   0  0  0  0  0  0  0  0  0  0  0  0
   48.4210   34.6730   41.4130 C   0  0  0  0  0  0  0  0  0  0  0  0
   49.0400   36.0650   41.5190 C   0  0  0  0  0  0  0  0  0  0  0  0
   49.6190   34.8160   42.1710 C   0  0  0  0  0  0  0  0  0  0  0  0
   48.3800   34.3640   40.3330 H   0  0  0  0  0  0  0  0  0  0  0  0
   48.5290   36.7380   42.2600 H   0  0  0  0  0  0  0  0  0  0  0  0
   49.5570   36.5170   40.6760 H   0  0  0  0  0  0  0  0  0  0  0  0
   50.5810   34.4940   41.7160 H   0  0  0  0  0  0  0  0  0  0  0  0
   49.5830   34.6950   43.2610 H   0  0  0  0  0  0  0  0  0  0  0  0
   40.8950   32.6190   38.9480 O   0  0  0  0  0  0  0  0  0  0  0  0
   39.8370   31.8100   39.1960 C   0  0  0  0  0  0  0  0  0  0  0  0
   38.6810   32.0220   38.6290 O   0  0  0  0  0  0  0  0  0  0  0  0
   38.8140   30.9270   41.3150 C   0  0  1  0  0  3  0  0  0  0  0  0
   39.2130   30.6360   39.8730 C   0  0  1  0  0  3  0  0  0  0  0  0
   37.9900   30.3060   39.2750 O   0  0  0  0  0  0  0  0  0  0  0  0
   37.7590   28.9620   39.4400 C   0  0  0  0  0  2  0  0  0  0  0  0
   37.7840   28.6720   40.9300 C   0  0  1  0  0  3  0  0  0  0  0  0
   37.7370   29.9570   41.7500 C   0  0  2  0  0  3  0  0  0  0  0  0
   39.8860   30.9790   42.1730 O   0  0  0  0  0  0  0  0  0  0  0  0
   40.0880   31.9240   42.4500 H   0  0  0  0  0  0  0  0  0  0  0  0
   36.7020   27.8940   41.3310 O   0  0  0  0  0  0  0  0  0  0  0  0
   36.4130   28.0910   42.2570 H   0  0  0  0  0  0  0  0  0  0  0  0
   36.4700   30.5110   41.5920 O   0  0  0  0  0  0  0  0  0  0  0  0
   36.4720   31.4580   41.3520 H   0  0  0  0  0  0  0  0  0  0  0  0
  1  7  1  6  0  0  0
  1  6  1  0  0  0  0
  1  2  1  0  0  0  0
  2  8  1  6  0  0  0
  2  3  1  0  0  0  0
  2 17  1  0  0  0  0
  4  9  1  0  0  0  0
  4  3  1  0  0  0  0
  5  6  1  0  0  0  0
  5 11  1  1  0  0  0
  5  4  1  0  0  0  0
  6 12  1  1  0  0  0
 10  4  1  0  0  0  0
 13  1  1  0  0  0  0
 14 13  1  0  0  0  0
 15  5  1  0  0  0  0
 16 15  1  0  0  0  0
 17 18  1  0  0  0  0
 18 23  1  0  0  0  0
 19 18  2  0  0  0  0
 19 20  1  0  0  0  0
 20 21  2  0  0  0  0
 21 22  1  0  0  0  0
 22 25  1  0  0  0  0
 23 22  2  0  0  0  0
 24 19  1  0  0  0  0
 26 27  1  0  0  0  0
 26 20  1  0  0  0  0
 26 28  1  0  0  0  0
 27 28  1  0  0  0  0
 27 30  1  0  0  0  0
 28 33  1  0  0  0  0
 29 26  1  0  0  0  0
 31 27  1  0  0  0  0
 32 28  1  0  0  0  0
 34 35  1  0  0  0  0
 34  6  1  0  0  0  0
 36 35  2  0  0  0  0
 37 42  1  0  0  0  0
 37 43  1  1  0  0  0
 38 35  1  6  0  0  0
 38 37  1  0  0  0  0
 39 40  1  0  0  0  0
 39 38  1  0  0  0  0
 40 41  1  0  0  0  0
 41 45  1  1  0  0  0
 41 42  1  0  0  0  0
 42 47  1  6  0  0  0
 43 44  1  0  0  0  0
 45 46  1  0  0  0  0
 48 47  1  0  0  0  0
M  END
>  <minimizedAffinity>
-7.10696554

>  <minimizedRMSD>
1.89485884

$$$$
