
 OpenBabel03242523543D

 48 51  0  0  1  0  0  0  0  0999 V2000
   42.9120   34.1820   39.2040 C   0  0  1  0  0  0  0  0  0  0  0  0
   43.1220   35.1150   40.3910 C   0  0  1  0  0  0  0  0  0  0  0  0
   41.8670   35.6110   40.7850 O   0  0  0  0  0  0  0  0  0  0  0  0
   41.0160   35.8420   39.7020 C   0  0  0  0  0  0  0  0  0  0  0  0
   40.5620   34.5490   39.0520 C   0  0  2  0  0  0  0  0  0  0  0  0
   41.6270   33.4620   39.4530 C   0  0  1  0  0  0  0  0  0  0  0  0
   43.7760   33.4780   39.1700 H   0  0  0  0  0  0  0  0  0  0  0  0
   43.8260   35.9290   40.1640 H   0  0  0  0  0  0  0  0  0  0  0  0
   40.1200   36.3110   40.1260 H   0  0  0  0  0  0  0  0  0  0  0  0
   41.4370   36.5660   38.9860 H   0  0  0  0  0  0  0  0  0  0  0  0
   39.5660   34.2330   39.3910 H   0  0  0  0  0  0  0  0  0  0  0  0
   41.3530   33.4550   40.5560 H   0  0  0  0  0  0  0  0  0  0  0  0
   42.8480   34.9050   38.0050 O   0  0  0  0  0  0  0  0  0  0  0  0
   43.4180   34.4830   37.3200 H   0  0  0  0  0  0  0  0  0  0  0  0
   40.6640   34.6630   37.6740 O   0  0  0  0  0  0  0  0  0  0  0  0
   39.9090   34.2870   37.1910 H   0  0  0  0  0  0  0  0  0  0  0  0
   43.4970   34.2790   41.4510 O   0  0  0  0  0  0  0  0  0  0  0  0
   44.6780   34.3180   42.0770 C   0  0  0  0  0  0  0  0  0  0  0  0
   45.8770   34.4840   41.3650 C   0  0  0  0  0  0  0  0  0  0  0  0
   47.0630   34.5160   42.0780 C   0  0  0  0  0  0  0  0  0  0  0  0
   47.0350   34.3860   43.4570 N   0  0  0  0  0  0  0  0  0  0  0  0
   45.8640   34.2270   44.1080 C   0  0  0  0  0  0  0  0  0  0  0  0
   44.6890   34.1930   43.4270 N   0  0  0  0  0  0  0  0  0  0  0  0
   45.8860   34.5850   40.2940 H   0  0  0  0  0  0  0  0  0  0  0  0
   45.8700   34.1280   45.1730 H   0  0  0  0  0  0  0  0  0  0  0  0
   48.3820   34.6900   41.3860 C   0  0  0  0  0  0  0  0  0  0  0  0
   49.0360   36.0640   41.5130 C   0  0  0  0  0  0  0  0  0  0  0  0
   49.5940   34.7870   42.1300 C   0  0  0  0  0  0  0  0  0  0  0  0
   48.3180   34.4060   40.3010 H   0  0  0  0  0  0  0  0  0  0  0  0
   48.5510   36.7320   42.2770 H   0  0  0  0  0  0  0  0  0  0  0  0
   49.5510   36.5230   40.6730 H   0  0  0  0  0  0  0  0  0  0  0  0
   50.5410   34.4540   41.6530 H   0  0  0  0  0  0  0  0  0  0  0  0
   49.5700   34.6440   43.2170 H   0  0  0  0  0  0  0  0  0  0  0  0
   41.3850   32.3670   38.7110 O   0  0  0  0  0  0  0  0  0  0  0  0
   40.3840   31.4630   38.8400 C   0  0  0  0  0  0  0  0  0  0  0  0
   39.8210   30.9280   37.7910 O   0  0  0  0  0  0  0  0  0  0  0  0
   40.1490   29.4560   40.3350 C   0  0  1  0  0  3  0  0  0  0  0  0
   39.4560   30.6410   39.6710 C   0  0  1  0  0  3  0  0  0  0  0  0
   38.9810   31.3750   40.7650 O   0  0  0  0  0  0  0  0  0  0  0  0
   37.7400   30.9000   41.1180 C   0  0  0  0  0  2  0  0  0  0  0  0
   37.8860   29.4190   41.4200 C   0  0  1  0  0  3  0  0  0  0  0  0
   39.3510   29.0160   41.5430 C   0  0  2  0  0  3  0  0  0  0  0  0
   40.4320   28.4370   39.4610 O   0  0  0  0  0  0  0  0  0  0  0  0
   41.4160   28.3930   39.2540 H   0  0  0  0  0  0  0  0  0  0  0  0
   37.2630   29.0630   42.6140 O   0  0  0  0  0  0  0  0  0  0  0  0
   37.7190   28.3120   43.0700 H   0  0  0  0  0  0  0  0  0  0  0  0
   39.8490   29.5890   42.7090 O   0  0  0  0  0  0  0  0  0  0  0  0
   40.6890   30.0740   42.5920 H   0  0  0  0  0  0  0  0  0  0  0  0
  1  7  1  6  0  0  0
  1  6  1  0  0  0  0
  1  2  1  0  0  0  0
  2  8  1  6  0  0  0
  2  3  1  0  0  0  0
  2 17  1  0  0  0  0
  4  9  1  0  0  0  0
  4  3  1  0  0  0  0
  5 11  1  1  0  0  0
  5  6  1  0  0  0  0
  5  4  1  0  0  0  0
  6 12  1  1  0  0  0
 10  4  1  0  0  0  0
 13  1  1  0  0  0  0
 14 13  1  0  0  0  0
 15  5  1  0  0  0  0
 16 15  1  0  0  0  0
 17 18  1  0  0  0  0
 18 23  1  0  0  0  0
 19 18  2  0  0  0  0
 19 20  1  0  0  0  0
 20 21  2  0  0  0  0
 21 22  1  0  0  0  0
 22 25  1  0  0  0  0
 23 22  2  0  0  0  0
 24 19  1  0  0  0  0
 26 27  1  0  0  0  0
 26 20  1  0  0  0  0
 26 28  1  0  0  0  0
 27 28  1  0  0  0  0
 27 30  1  0  0  0  0
 28 33  1  0  0  0  0
 29 26  1  0  0  0  0
 31 27  1  0  0  0  0
 32 28  1  0  0  0  0
 34 35  1  0  0  0  0
 34  6  1  0  0  0  0
 36 35  2  0  0  0  0
 37 43  1  6  0  0  0
 37 42  1  0  0  0  0
 38 35  1  1  0  0  0
 38 37  1  0  0  0  0
 38 39  1  0  0  0  0
 39 40  1  0  0  0  0
 40 41  1  0  0  0  0
 41 42  1  0  0  0  0
 41 45  1  1  0  0  0
 42 47  1  1  0  0  0
 44 43  1  0  0  0  0
 45 46  1  0  0  0  0
 48 47  1  0  0  0  0
M  END
>  <minimizedAffinity>
-6.91490269

>  <minimizedRMSD>
2.57762694

$$$$
