
 OpenBabel03242523543D

 48 51  0  0  1  0  0  0  0  0999 V2000
   42.8690   34.2450   39.3430 C   0  0  1  0  0  0  0  0  0  0  0  0
   43.2530   35.1330   40.5200 C   0  0  1  0  0  0  0  0  0  0  0  0
   42.0800   35.7250   41.0240 O   0  0  0  0  0  0  0  0  0  0  0  0
   41.1670   36.0470   40.0170 C   0  0  0  0  0  0  0  0  0  0  0  0
   40.5540   34.8100   39.3900 C   0  0  2  0  0  0  0  0  0  0  0  0
   41.5510   33.6310   39.6870 C   0  0  1  0  0  0  0  0  0  0  0  0
   43.6640   33.4720   39.2280 H   0  0  0  0  0  0  0  0  0  0  0  0
   44.0020   35.8910   40.2470 H   0  0  0  0  0  0  0  0  0  0  0  0
   40.3510   36.5820   40.5200 H   0  0  0  0  0  0  0  0  0  0  0  0
   41.5890   36.7480   39.2790 H   0  0  0  0  0  0  0  0  0  0  0  0
   39.5660   34.5720   39.8050 H   0  0  0  0  0  0  0  0  0  0  0  0
   41.3680   33.6240   40.8090 H   0  0  0  0  0  0  0  0  0  0  0  0
   42.7700   34.9950   38.1630 O   0  0  0  0  0  0  0  0  0  0  0  0
   43.2440   34.5410   37.4280 H   0  0  0  0  0  0  0  0  0  0  0  0
   40.5530   34.9430   38.0090 O   0  0  0  0  0  0  0  0  0  0  0  0
   39.7320   34.6420   37.5850 H   0  0  0  0  0  0  0  0  0  0  0  0
   43.6400   34.2470   41.5360 O   0  0  0  0  0  0  0  0  0  0  0  0
   44.8250   34.2630   42.1540 C   0  0  0  0  0  0  0  0  0  0  0  0
   46.0170   34.4790   41.4450 C   0  0  0  0  0  0  0  0  0  0  0  0
   47.2080   34.4820   42.1510 C   0  0  0  0  0  0  0  0  0  0  0  0
   47.1910   34.2750   43.5200 N   0  0  0  0  0  0  0  0  0  0  0  0
   46.0260   34.0700   44.1690 C   0  0  0  0  0  0  0  0  0  0  0  0
   44.8470   34.0630   43.4950 N   0  0  0  0  0  0  0  0  0  0  0  0
   46.0170   34.6390   40.3800 H   0  0  0  0  0  0  0  0  0  0  0  0
   46.0410   33.9120   45.2270 H   0  0  0  0  0  0  0  0  0  0  0  0
   48.5200   34.7050   41.4610 C   0  0  0  0  0  0  0  0  0  0  0  0
   49.1020   36.1140   41.5540 C   0  0  0  0  0  0  0  0  0  0  0  0
   49.7210   34.8850   42.2070 C   0  0  0  0  0  0  0  0  0  0  0  0
   48.4780   34.3900   40.3830 H   0  0  0  0  0  0  0  0  0  0  0  0
   48.5780   36.7760   42.2970 H   0  0  0  0  0  0  0  0  0  0  0  0
   49.5970   36.5770   40.7040 H   0  0  0  0  0  0  0  0  0  0  0  0
   50.6870   34.5890   41.7440 H   0  0  0  0  0  0  0  0  0  0  0  0
   49.6980   34.7690   43.2980 H   0  0  0  0  0  0  0  0  0  0  0  0
   41.1580   32.5750   38.9530 O   0  0  0  0  0  0  0  0  0  0  0  0
   40.3030   31.5800   39.2940 C   0  0  0  0  0  0  0  0  0  0  0  0
   39.7910   30.7930   38.3870 O   0  0  0  0  0  0  0  0  0  0  0  0
   38.0900   31.2780   40.4470 C   0  0  1  0  0  3  0  0  0  0  0  0
   39.5310   30.8020   40.3060 C   0  0  1  0  0  3  0  0  0  0  0  0
   39.3790   29.4700   39.9030 O   0  0  0  0  0  0  0  0  0  0  0  0
   39.2660   28.6740   41.0170 C   0  0  0  0  0  2  0  0  0  0  0  0
   38.0870   29.1840   41.8280 C   0  0  1  0  0  3  0  0  0  0  0  0
   37.2420   30.1660   41.0250 C   0  0  2  0  0  3  0  0  0  0  0  0
   37.9770   32.4670   41.1260 O   0  0  0  0  0  0  0  0  0  0  0  0
   37.7550   33.2250   40.5030 H   0  0  0  0  0  0  0  0  0  0  0  0
   37.2420   28.1530   42.2280 O   0  0  0  0  0  0  0  0  0  0  0  0
   36.2980   28.4410   42.2970 H   0  0  0  0  0  0  0  0  0  0  0  0
   36.6020   29.4500   40.0190 O   0  0  0  0  0  0  0  0  0  0  0  0
   36.6930   29.8380   39.1280 H   0  0  0  0  0  0  0  0  0  0  0  0
  1  7  1  6  0  0  0
  1  6  1  0  0  0  0
  1  2  1  0  0  0  0
  2  8  1  6  0  0  0
  2  3  1  0  0  0  0
  2 17  1  0  0  0  0
  4  9  1  0  0  0  0
  4  3  1  0  0  0  0
  5  6  1  0  0  0  0
  5 11  1  1  0  0  0
  5  4  1  0  0  0  0
  6 12  1  1  0  0  0
 10  4  1  0  0  0  0
 13  1  1  0  0  0  0
 14 13  1  0  0  0  0
 15  5  1  0  0  0  0
 16 15  1  0  0  0  0
 17 18  1  0  0  0  0
 18 23  1  0  0  0  0
 19 20  1  0  0  0  0
 19 18  2  0  0  0  0
 20 21  2  0  0  0  0
 21 22  1  0  0  0  0
 22 25  1  0  0  0  0
 23 22  2  0  0  0  0
 24 19  1  0  0  0  0
 26 27  1  0  0  0  0
 26 20  1  0  0  0  0
 26 28  1  0  0  0  0
 27 28  1  0  0  0  0
 27 30  1  0  0  0  0
 28 33  1  0  0  0  0
 29 26  1  0  0  0  0
 31 27  1  0  0  0  0
 32 28  1  0  0  0  0
 34 35  1  0  0  0  0
 34  6  1  0  0  0  0
 36 35  2  0  0  0  0
 37 42  1  0  0  0  0
 37 43  1  1  0  0  0
 38 35  1  6  0  0  0
 38 37  1  0  0  0  0
 39 38  1  0  0  0  0
 39 40  1  0  0  0  0
 40 41  1  0  0  0  0
 41 45  1  6  0  0  0
 42 47  1  6  0  0  0
 42 41  1  0  0  0  0
 44 43  1  0  0  0  0
 45 46  1  0  0  0  0
 48 47  1  0  0  0  0
M  END
>  <minimizedAffinity>
-7.16335058

>  <minimizedRMSD>
2.00147033

$$$$
