
 OpenBabel03242523543D

 48 51  0  0  1  0  0  0  0  0999 V2000
   42.8710   34.2440   39.3440 C   0  0  1  0  0  0  0  0  0  0  0  0
   43.2540   35.1330   40.5210 C   0  0  1  0  0  0  0  0  0  0  0  0
   42.0810   35.7260   41.0220 O   0  0  0  0  0  0  0  0  0  0  0  0
   41.1690   36.0470   40.0140 C   0  0  0  0  0  0  0  0  0  0  0  0
   40.5570   34.8090   39.3870 C   0  0  2  0  0  0  0  0  0  0  0  0
   41.5530   33.6300   39.6870 C   0  0  1  0  0  0  0  0  0  0  0  0
   43.6670   33.4710   39.2310 H   0  0  0  0  0  0  0  0  0  0  0  0
   44.0030   35.8910   40.2480 H   0  0  0  0  0  0  0  0  0  0  0  0
   40.3520   36.5810   40.5150 H   0  0  0  0  0  0  0  0  0  0  0  0
   41.5910   36.7470   39.2750 H   0  0  0  0  0  0  0  0  0  0  0  0
   39.5670   34.5710   39.8010 H   0  0  0  0  0  0  0  0  0  0  0  0
   41.3690   33.6250   40.8090 H   0  0  0  0  0  0  0  0  0  0  0  0
   42.7740   34.9930   38.1630 O   0  0  0  0  0  0  0  0  0  0  0  0
   43.2490   34.5370   37.4290 H   0  0  0  0  0  0  0  0  0  0  0  0
   40.5570   34.9400   38.0060 O   0  0  0  0  0  0  0  0  0  0  0  0
   39.7370   34.6380   37.5810 H   0  0  0  0  0  0  0  0  0  0  0  0
   43.6390   34.2490   41.5380 O   0  0  0  0  0  0  0  0  0  0  0  0
   44.8250   34.2630   42.1560 C   0  0  0  0  0  0  0  0  0  0  0  0
   46.0170   34.4800   41.4460 C   0  0  0  0  0  0  0  0  0  0  0  0
   47.2080   34.4820   42.1510 C   0  0  0  0  0  0  0  0  0  0  0  0
   47.1910   34.2730   43.5200 N   0  0  0  0  0  0  0  0  0  0  0  0
   46.0270   34.0680   44.1700 C   0  0  0  0  0  0  0  0  0  0  0  0
   44.8470   34.0620   43.4960 N   0  0  0  0  0  0  0  0  0  0  0  0
   46.0170   34.6410   40.3820 H   0  0  0  0  0  0  0  0  0  0  0  0
   46.0420   33.9090   45.2280 H   0  0  0  0  0  0  0  0  0  0  0  0
   48.5200   34.7050   41.4610 C   0  0  0  0  0  0  0  0  0  0  0  0
   49.1010   36.1140   41.5540 C   0  0  0  0  0  0  0  0  0  0  0  0
   49.7210   34.8860   42.2070 C   0  0  0  0  0  0  0  0  0  0  0  0
   48.4780   34.3900   40.3830 H   0  0  0  0  0  0  0  0  0  0  0  0
   48.5770   36.7760   42.2970 H   0  0  0  0  0  0  0  0  0  0  0  0
   49.5960   36.5770   40.7040 H   0  0  0  0  0  0  0  0  0  0  0  0
   50.6870   34.5890   41.7440 H   0  0  0  0  0  0  0  0  0  0  0  0
   49.6990   34.7700   43.2980 H   0  0  0  0  0  0  0  0  0  0  0  0
   41.1610   32.5730   38.9540 O   0  0  0  0  0  0  0  0  0  0  0  0
   40.3040   31.5800   39.2940 C   0  0  0  0  0  0  0  0  0  0  0  0
   39.7870   30.7970   38.3860 O   0  0  0  0  0  0  0  0  0  0  0  0
   38.0900   31.2780   40.4460 C   0  0  1  0  0  3  0  0  0  0  0  0
   39.5320   30.8010   40.3060 C   0  0  1  0  0  3  0  0  0  0  0  0
   39.3800   29.4690   39.9020 O   0  0  0  0  0  0  0  0  0  0  0  0
   39.2670   28.6730   41.0180 C   0  0  0  0  0  2  0  0  0  0  0  0
   38.0880   29.1830   41.8270 C   0  0  1  0  0  3  0  0  0  0  0  0
   37.2430   30.1660   41.0240 C   0  0  2  0  0  3  0  0  0  0  0  0
   37.9770   32.4660   41.1250 O   0  0  0  0  0  0  0  0  0  0  0  0
   37.7550   33.2250   40.5020 H   0  0  0  0  0  0  0  0  0  0  0  0
   37.2430   28.1520   42.2290 O   0  0  0  0  0  0  0  0  0  0  0  0
   36.2980   28.4400   42.2960 H   0  0  0  0  0  0  0  0  0  0  0  0
   36.6030   29.4490   40.0180 O   0  0  0  0  0  0  0  0  0  0  0  0
   36.6950   29.8370   39.1260 H   0  0  0  0  0  0  0  0  0  0  0  0
  1  7  1  6  0  0  0
  1  6  1  0  0  0  0
  1  2  1  0  0  0  0
  2  8  1  6  0  0  0
  2  3  1  0  0  0  0
  2 17  1  0  0  0  0
  4  9  1  0  0  0  0
  4  3  1  0  0  0  0
  5  6  1  0  0  0  0
  5 11  1  1  0  0  0
  5  4  1  0  0  0  0
  6 12  1  1  0  0  0
 10  4  1  0  0  0  0
 13  1  1  0  0  0  0
 14 13  1  0  0  0  0
 15  5  1  0  0  0  0
 16 15  1  0  0  0  0
 17 18  1  0  0  0  0
 18 23  1  0  0  0  0
 19 20  1  0  0  0  0
 19 18  2  0  0  0  0
 20 21  2  0  0  0  0
 21 22  1  0  0  0  0
 22 25  1  0  0  0  0
 23 22  2  0  0  0  0
 24 19  1  0  0  0  0
 26 27  1  0  0  0  0
 26 20  1  0  0  0  0
 26 28  1  0  0  0  0
 27 28  1  0  0  0  0
 27 30  1  0  0  0  0
 28 33  1  0  0  0  0
 29 26  1  0  0  0  0
 31 27  1  0  0  0  0
 32 28  1  0  0  0  0
 34 35  1  0  0  0  0
 34  6  1  0  0  0  0
 36 35  2  0  0  0  0
 37 42  1  0  0  0  0
 37 43  1  1  0  0  0
 38 35  1  6  0  0  0
 38 37  1  0  0  0  0
 39 38  1  0  0  0  0
 39 40  1  0  0  0  0
 40 41  1  0  0  0  0
 41 45  1  6  0  0  0
 42 47  1  6  0  0  0
 42 41  1  0  0  0  0
 44 43  1  0  0  0  0
 45 46  1  0  0  0  0
 48 47  1  0  0  0  0
M  END
>  <minimizedAffinity>
-7.16540289

>  <minimizedRMSD>
2.54375577

$$$$
