
 OpenBabel03242523543D

 48 51  0  0  1  0  0  0  0  0999 V2000
   42.8200   34.3720   38.8540 C   0  0  1  0  0  0  0  0  0  0  0  0
   43.0410   35.1500   40.1460 C   0  0  1  0  0  0  0  0  0  0  0  0
   41.7840   35.5210   40.6550 O   0  0  0  0  0  0  0  0  0  0  0  0
   40.8710   35.8450   39.6490 C   0  0  0  0  0  0  0  0  0  0  0  0
   40.4500   34.6260   38.8510 C   0  0  2  0  0  0  0  0  0  0  0  0
   41.5850   33.5570   39.0570 C   0  0  1  0  0  0  0  0  0  0  0  0
   43.7150   33.7280   38.6900 H   0  0  0  0  0  0  0  0  0  0  0  0
   43.6920   36.0260   40.0020 H   0  0  0  0  0  0  0  0  0  0  0  0
   39.9740   36.2040   40.1690 H   0  0  0  0  0  0  0  0  0  0  0  0
   41.2200   36.6790   39.0200 H   0  0  0  0  0  0  0  0  0  0  0  0
   39.4890   34.2130   39.1840 H   0  0  0  0  0  0  0  0  0  0  0  0
   41.3660   33.3880   40.1600 H   0  0  0  0  0  0  0  0  0  0  0  0
   42.6630   35.2430   37.7670 O   0  0  0  0  0  0  0  0  0  0  0  0
   43.2180   34.9470   37.0090 H   0  0  0  0  0  0  0  0  0  0  0  0
   40.4790   34.9260   37.4970 O   0  0  0  0  0  0  0  0  0  0  0  0
   39.7210   34.5770   36.9990 H   0  0  0  0  0  0  0  0  0  0  0  0
   43.5070   34.2040   41.0680 O   0  0  0  0  0  0  0  0  0  0  0  0
   44.6330   34.3190   41.7800 C   0  0  0  0  0  0  0  0  0  0  0  0
   45.8860   34.4290   41.1560 C   0  0  0  0  0  0  0  0  0  0  0  0
   47.0090   34.5450   41.9560 C   0  0  0  0  0  0  0  0  0  0  0  0
   46.8680   34.5500   43.3340 N   0  0  0  0  0  0  0  0  0  0  0  0
   45.6480   34.4420   43.9000 C   0  0  0  0  0  0  0  0  0  0  0  0
   44.5340   34.3270   43.1330 N   0  0  0  0  0  0  0  0  0  0  0  0
   45.9820   34.4240   40.0840 H   0  0  0  0  0  0  0  0  0  0  0  0
   45.5680   34.4490   44.9670 H   0  0  0  0  0  0  0  0  0  0  0  0
   48.3790   34.6660   41.3590 C   0  0  0  0  0  0  0  0  0  0  0  0
   49.0410   36.0380   41.4580 C   0  0  0  0  0  0  0  0  0  0  0  0
   49.5320   34.7950   42.1880 C   0  0  0  0  0  0  0  0  0  0  0  0
   48.3950   34.3200   40.2900 H   0  0  0  0  0  0  0  0  0  0  0  0
   48.5080   36.7540   42.1430 H   0  0  0  0  0  0  0  0  0  0  0  0
   49.6250   36.4430   40.6360 H   0  0  0  0  0  0  0  0  0  0  0  0
   50.5080   34.4250   41.8060 H   0  0  0  0  0  0  0  0  0  0  0  0
   49.4230   34.7140   43.2770 H   0  0  0  0  0  0  0  0  0  0  0  0
   41.3620   32.5570   38.1850 O   0  0  0  0  0  0  0  0  0  0  0  0
   40.4510   31.5560   38.2620 C   0  0  0  0  0  0  0  0  0  0  0  0
   39.4390   31.5040   37.4400 O   0  0  0  0  0  0  0  0  0  0  0  0
   38.4170   30.3420   39.1010 C   0  0  1  0  0  3  0  0  0  0  0  0
   39.9250   30.3050   38.8810 C   0  0  1  0  0  3  0  0  0  0  0  0
   40.0850   29.2150   38.0180 O   0  0  0  0  0  0  0  0  0  0  0  0
   40.2050   28.0660   38.7650 C   0  0  0  0  0  2  0  0  0  0  0  0
   38.9660   27.9530   39.6340 C   0  0  1  0  0  3  0  0  0  0  0  0
   37.8820   28.9290   39.1910 C   0  0  2  0  0  3  0  0  0  0  0  0
   38.0420   31.1410   40.1520 O   0  0  0  0  0  0  0  0  0  0  0  0
   37.6220   31.9970   39.8310 H   0  0  0  0  0  0  0  0  0  0  0  0
   38.4090   26.6780   39.5890 O   0  0  0  0  0  0  0  0  0  0  0  0
   37.4260   26.6890   39.7020 H   0  0  0  0  0  0  0  0  0  0  0  0
   37.4020   28.4950   37.9600 O   0  0  0  0  0  0  0  0  0  0  0  0
   37.3670   29.1900   37.2730 H   0  0  0  0  0  0  0  0  0  0  0  0
  1  7  1  6  0  0  0
  1  6  1  0  0  0  0
  1  2  1  0  0  0  0
  2  8  1  6  0  0  0
  2  3  1  0  0  0  0
  2 17  1  0  0  0  0
  4  9  1  0  0  0  0
  4  3  1  0  0  0  0
  5  6  1  0  0  0  0
  5 11  1  1  0  0  0
  5  4  1  0  0  0  0
  6 12  1  1  0  0  0
 10  4  1  0  0  0  0
 13  1  1  0  0  0  0
 14 13  1  0  0  0  0
 15  5  1  0  0  0  0
 16 15  1  0  0  0  0
 17 18  1  0  0  0  0
 18 23  1  0  0  0  0
 19 18  2  0  0  0  0
 19 20  1  0  0  0  0
 20 21  2  0  0  0  0
 21 22  1  0  0  0  0
 22 25  1  0  0  0  0
 23 22  2  0  0  0  0
 24 19  1  0  0  0  0
 26 27  1  0  0  0  0
 26 20  1  0  0  0  0
 26 28  1  0  0  0  0
 27 30  1  0  0  0  0
 27 28  1  0  0  0  0
 28 33  1  0  0  0  0
 29 26  1  0  0  0  0
 31 27  1  0  0  0  0
 32 28  1  0  0  0  0
 34 35  1  0  0  0  0
 34  6  1  0  0  0  0
 36 35  2  0  0  0  0
 37 42  1  0  0  0  0
 37 43  1  1  0  0  0
 38 35  1  6  0  0  0
 38 37  1  0  0  0  0
 39 40  1  0  0  0  0
 39 38  1  0  0  0  0
 40 41  1  0  0  0  0
 41 45  1  6  0  0  0
 42 47  1  6  0  0  0
 42 41  1  0  0  0  0
 44 43  1  0  0  0  0
 45 46  1  0  0  0  0
 48 47  1  0  0  0  0
M  END
>  <minimizedAffinity>
-6.1834445

>  <minimizedRMSD>
0.93152529

$$$$
