
 OpenBabel03242523543D

 48 51  0  0  1  0  0  0  0  0999 V2000
   42.8190   34.3730   38.8540 C   0  0  1  0  0  0  0  0  0  0  0  0
   43.0400   35.1510   40.1460 C   0  0  1  0  0  0  0  0  0  0  0  0
   41.7830   35.5210   40.6550 O   0  0  0  0  0  0  0  0  0  0  0  0
   40.8700   35.8450   39.6490 C   0  0  0  0  0  0  0  0  0  0  0  0
   40.4500   34.6260   38.8500 C   0  0  2  0  0  0  0  0  0  0  0  0
   41.5850   33.5570   39.0570 C   0  0  1  0  0  0  0  0  0  0  0  0
   43.7140   33.7280   38.6900 H   0  0  0  0  0  0  0  0  0  0  0  0
   43.6910   36.0260   40.0020 H   0  0  0  0  0  0  0  0  0  0  0  0
   39.9740   36.2040   40.1680 H   0  0  0  0  0  0  0  0  0  0  0  0
   41.2200   36.6790   39.0200 H   0  0  0  0  0  0  0  0  0  0  0  0
   39.4880   34.2130   39.1840 H   0  0  0  0  0  0  0  0  0  0  0  0
   41.3650   33.3890   40.1590 H   0  0  0  0  0  0  0  0  0  0  0  0
   42.6630   35.2430   37.7670 O   0  0  0  0  0  0  0  0  0  0  0  0
   43.2180   34.9470   37.0080 H   0  0  0  0  0  0  0  0  0  0  0  0
   40.4790   34.9260   37.4960 O   0  0  0  0  0  0  0  0  0  0  0  0
   39.7210   34.5770   36.9990 H   0  0  0  0  0  0  0  0  0  0  0  0
   43.5070   34.2040   41.0680 O   0  0  0  0  0  0  0  0  0  0  0  0
   44.6330   34.3190   41.7800 C   0  0  0  0  0  0  0  0  0  0  0  0
   45.8850   34.4290   41.1550 C   0  0  0  0  0  0  0  0  0  0  0  0
   47.0090   34.5450   41.9550 C   0  0  0  0  0  0  0  0  0  0  0  0
   46.8680   34.5510   43.3330 N   0  0  0  0  0  0  0  0  0  0  0  0
   45.6480   34.4420   43.9000 C   0  0  0  0  0  0  0  0  0  0  0  0
   44.5340   34.3270   43.1320 N   0  0  0  0  0  0  0  0  0  0  0  0
   45.9810   34.4240   40.0830 H   0  0  0  0  0  0  0  0  0  0  0  0
   45.5680   34.4490   44.9670 H   0  0  0  0  0  0  0  0  0  0  0  0
   48.3790   34.6660   41.3590 C   0  0  0  0  0  0  0  0  0  0  0  0
   49.0410   36.0380   41.4590 C   0  0  0  0  0  0  0  0  0  0  0  0
   49.5320   34.7940   42.1870 C   0  0  0  0  0  0  0  0  0  0  0  0
   48.3950   34.3210   40.2900 H   0  0  0  0  0  0  0  0  0  0  0  0
   48.5080   36.7540   42.1440 H   0  0  0  0  0  0  0  0  0  0  0  0
   49.6250   36.4430   40.6370 H   0  0  0  0  0  0  0  0  0  0  0  0
   50.5080   34.4240   41.8050 H   0  0  0  0  0  0  0  0  0  0  0  0
   49.4230   34.7130   43.2760 H   0  0  0  0  0  0  0  0  0  0  0  0
   41.3620   32.5570   38.1850 O   0  0  0  0  0  0  0  0  0  0  0  0
   40.4510   31.5570   38.2620 C   0  0  0  0  0  0  0  0  0  0  0  0
   39.4380   31.5040   37.4400 O   0  0  0  0  0  0  0  0  0  0  0  0
   38.4160   30.3430   39.1000 C   0  0  1  0  0  3  0  0  0  0  0  0
   39.9240   30.3050   38.8810 C   0  0  1  0  0  3  0  0  0  0  0  0
   40.0850   29.2150   38.0180 O   0  0  0  0  0  0  0  0  0  0  0  0
   40.2060   28.0670   38.7650 C   0  0  0  0  0  2  0  0  0  0  0  0
   38.9660   27.9540   39.6340 C   0  0  1  0  0  3  0  0  0  0  0  0
   37.8820   28.9300   39.1910 C   0  0  2  0  0  3  0  0  0  0  0  0
   38.0420   31.1410   40.1530 O   0  0  0  0  0  0  0  0  0  0  0  0
   37.6220   31.9990   39.8320 H   0  0  0  0  0  0  0  0  0  0  0  0
   38.4080   26.6790   39.5900 O   0  0  0  0  0  0  0  0  0  0  0  0
   37.4250   26.6900   39.7030 H   0  0  0  0  0  0  0  0  0  0  0  0
   37.4010   28.4960   37.9600 O   0  0  0  0  0  0  0  0  0  0  0  0
   37.3660   29.1900   37.2740 H   0  0  0  0  0  0  0  0  0  0  0  0
  1  7  1  6  0  0  0
  1  6  1  0  0  0  0
  1  2  1  0  0  0  0
  2  8  1  6  0  0  0
  2  3  1  0  0  0  0
  2 17  1  0  0  0  0
  4  9  1  0  0  0  0
  4  3  1  0  0  0  0
  5  6  1  0  0  0  0
  5 11  1  1  0  0  0
  5  4  1  0  0  0  0
  6 12  1  1  0  0  0
 10  4  1  0  0  0  0
 13  1  1  0  0  0  0
 14 13  1  0  0  0  0
 15  5  1  0  0  0  0
 16 15  1  0  0  0  0
 17 18  1  0  0  0  0
 18 23  1  0  0  0  0
 19 18  2  0  0  0  0
 19 20  1  0  0  0  0
 20 21  2  0  0  0  0
 21 22  1  0  0  0  0
 22 25  1  0  0  0  0
 23 22  2  0  0  0  0
 24 19  1  0  0  0  0
 26 27  1  0  0  0  0
 26 20  1  0  0  0  0
 26 28  1  0  0  0  0
 27 30  1  0  0  0  0
 27 28  1  0  0  0  0
 28 33  1  0  0  0  0
 29 26  1  0  0  0  0
 31 27  1  0  0  0  0
 32 28  1  0  0  0  0
 34 35  1  0  0  0  0
 34  6  1  0  0  0  0
 36 35  2  0  0  0  0
 37 42  1  0  0  0  0
 37 43  1  1  0  0  0
 38 35  1  6  0  0  0
 38 37  1  0  0  0  0
 39 40  1  0  0  0  0
 39 38  1  0  0  0  0
 40 41  1  0  0  0  0
 41 45  1  6  0  0  0
 42 47  1  6  0  0  0
 42 41  1  0  0  0  0
 44 43  1  0  0  0  0
 45 46  1  0  0  0  0
 48 47  1  0  0  0  0
M  END
>  <minimizedAffinity>
-6.18358755

>  <minimizedRMSD>
1.29396951

$$$$
