
 OpenBabel03242523543D

 48 51  0  0  1  0  0  0  0  0999 V2000
   42.1950   34.2770   38.7520 C   0  0  1  0  0  0  0  0  0  0  0  0
   42.7900   35.0850   39.8990 C   0  0  1  0  0  0  0  0  0  0  0  0
   41.7310   35.5780   40.6820 O   0  0  0  0  0  0  0  0  0  0  0  0
   40.6180   35.9350   39.9180 C   0  0  0  0  0  0  0  0  0  0  0  0
   39.9260   34.7240   39.3230 C   0  0  2  0  0  0  0  0  0  0  0  0
   40.9980   33.5740   39.3040 C   0  0  1  0  0  0  0  0  0  0  0  0
   42.9720   33.5540   38.4090 H   0  0  0  0  0  0  0  0  0  0  0  0
   43.4420   35.8970   39.5460 H   0  0  0  0  0  0  0  0  0  0  0  0
   39.9090   36.3870   40.6220 H   0  0  0  0  0  0  0  0  0  0  0  0
   40.8550   36.7120   39.1730 H   0  0  0  0  0  0  0  0  0  0  0  0
   39.0530   34.4060   39.9100 H   0  0  0  0  0  0  0  0  0  0  0  0
   41.0540   33.4690   40.4340 H   0  0  0  0  0  0  0  0  0  0  0  0
   41.8300   35.1130   37.6880 O   0  0  0  0  0  0  0  0  0  0  0  0
   42.1530   34.7420   36.8340 H   0  0  0  0  0  0  0  0  0  0  0  0
   39.6320   34.9660   37.9890 O   0  0  0  0  0  0  0  0  0  0  0  0
   38.7500   34.6600   37.7180 H   0  0  0  0  0  0  0  0  0  0  0  0
   43.4070   34.1410   40.7310 O   0  0  0  0  0  0  0  0  0  0  0  0
   44.4780   34.3780   41.4950 C   0  0  0  0  0  0  0  0  0  0  0  0
   45.7760   34.3640   40.9600 C   0  0  0  0  0  0  0  0  0  0  0  0
   46.8390   34.6190   41.8100 C   0  0  0  0  0  0  0  0  0  0  0  0
   46.5950   34.8790   43.1480 N   0  0  0  0  0  0  0  0  0  0  0  0
   45.3340   34.8840   43.6280 C   0  0  0  0  0  0  0  0  0  0  0  0
   44.2780   34.6360   42.8110 N   0  0  0  0  0  0  0  0  0  0  0  0
   45.9520   34.1610   39.9170 H   0  0  0  0  0  0  0  0  0  0  0  0
   45.1740   35.0870   44.6660 H   0  0  0  0  0  0  0  0  0  0  0  0
   48.2520   34.6190   41.3090 C   0  0  0  0  0  0  0  0  0  0  0  0
   48.9990   35.9480   41.3960 C   0  0  0  0  0  0  0  0  0  0  0  0
   49.3500   34.7110   42.2130 C   0  0  0  0  0  0  0  0  0  0  0  0
   48.3180   34.2220   40.2600 H   0  0  0  0  0  0  0  0  0  0  0  0
   48.4710   36.7300   42.0080 H   0  0  0  0  0  0  0  0  0  0  0  0
   49.6660   36.2730   40.6010 H   0  0  0  0  0  0  0  0  0  0  0  0
   50.3230   34.2590   41.9190 H   0  0  0  0  0  0  0  0  0  0  0  0
   49.1610   34.6910   43.2930 H   0  0  0  0  0  0  0  0  0  0  0  0
   40.4930   32.5620   38.5760 O   0  0  0  0  0  0  0  0  0  0  0  0
   39.5530   31.6530   38.9320 C   0  0  0  0  0  0  0  0  0  0  0  0
   38.4240   31.5640   38.2820 O   0  0  0  0  0  0  0  0  0  0  0  0
   38.6820   31.0090   41.1990 C   0  0  1  0  0  3  0  0  0  0  0  0
   39.0620   30.5420   39.7990 C   0  0  1  0  0  3  0  0  0  0  0  0
   37.8590   30.0200   39.3080 O   0  0  0  0  0  0  0  0  0  0  0  0
   37.7600   28.6990   39.6770 C   0  0  0  0  0  2  0  0  0  0  0  0
   37.8570   28.6390   41.1910 C   0  0  1  0  0  3  0  0  0  0  0  0
   37.7140   30.0220   41.8160 C   0  0  2  0  0  3  0  0  0  0  0  0
   39.7680   31.2810   41.9920 O   0  0  0  0  0  0  0  0  0  0  0  0
   39.8900   32.2720   42.1200 H   0  0  0  0  0  0  0  0  0  0  0  0
   36.8650   27.8360   41.7480 O   0  0  0  0  0  0  0  0  0  0  0  0
   36.5880   28.1440   42.6470 H   0  0  0  0  0  0  0  0  0  0  0  0
   36.3960   30.4320   41.6350 O   0  0  0  0  0  0  0  0  0  0  0  0
   36.3020   31.3290   41.2610 H   0  0  0  0  0  0  0  0  0  0  0  0
  1  7  1  6  0  0  0
  1  6  1  0  0  0  0
  1  2  1  0  0  0  0
  2  8  1  6  0  0  0
  2  3  1  0  0  0  0
  2 17  1  0  0  0  0
  4  9  1  0  0  0  0
  4  3  1  0  0  0  0
  5 11  1  1  0  0  0
  5  4  1  0  0  0  0
  6  5  1  0  0  0  0
  6 12  1  1  0  0  0
 10  4  1  0  0  0  0
 13  1  1  0  0  0  0
 14 13  1  0  0  0  0
 15  5  1  0  0  0  0
 16 15  1  0  0  0  0
 17 18  1  0  0  0  0
 18 23  1  0  0  0  0
 19 18  2  0  0  0  0
 19 20  1  0  0  0  0
 20 21  2  0  0  0  0
 21 22  1  0  0  0  0
 22 25  1  0  0  0  0
 23 22  2  0  0  0  0
 24 19  1  0  0  0  0
 26 27  1  0  0  0  0
 26 20  1  0  0  0  0
 26 28  1  0  0  0  0
 27 30  1  0  0  0  0
 27 28  1  0  0  0  0
 28 33  1  0  0  0  0
 29 26  1  0  0  0  0
 31 27  1  0  0  0  0
 32 28  1  0  0  0  0
 34 35  1  0  0  0  0
 34  6  1  0  0  0  0
 36 35  2  0  0  0  0
 37 42  1  0  0  0  0
 37 43  1  1  0  0  0
 38 35  1  6  0  0  0
 38 37  1  0  0  0  0
 39 40  1  0  0  0  0
 39 38  1  0  0  0  0
 40 41  1  0  0  0  0
 41 45  1  1  0  0  0
 41 42  1  0  0  0  0
 42 47  1  6  0  0  0
 43 44  1  0  0  0  0
 45 46  1  0  0  0  0
 48 47  1  0  0  0  0
M  END
>  <minimizedAffinity>
-7.24324942

>  <minimizedRMSD>
1.87117982

$$$$
