
 OpenBabel03242514323D

 29 31  0  0  1  0  0  0  0  0999 V2000
   48.3810   35.0130   40.2040 O   0  0  0  0  0  0  0  0  0  0  0  0
   49.4020   35.2500   42.5490 O   0  0  0  0  0  0  0  0  0  0  0  0
   48.8380   34.2370   41.6170 P   0  0  2  0  0  0  0  0  0  0  0  0
   50.0690   33.1400   41.2630 O   0  0  0  0  0  0  0  0  0  0  0  0
   50.7310   33.5770   40.6730 H   0  0  0  0  0  0  0  0  0  0  0  0
   47.4920   33.4360   42.3090 O   0  0  0  0  0  0  0  0  0  0  0  0
   45.9900   35.2990   42.5390 C   0  0  0  0  0  0  0  0  0  0  0  0
   46.5720   34.1510   43.0900 C   0  0  0  0  0  0  0  0  0  0  0  0
   46.2080   33.7790   44.3810 C   0  0  0  0  0  0  0  0  0  0  0  0
   45.3050   34.5470   45.0480 N   0  0  0  0  0  0  0  0  0  0  0  0
   44.7660   35.6430   44.4870 C   0  0  0  0  0  0  0  0  0  0  0  0
   45.1080   36.0110   43.2460 N   0  0  0  0  0  0  0  0  0  0  0  0
   46.2310   35.6350   41.5480 H   0  0  0  0  0  0  0  0  0  0  0  0
   46.6590   32.8950   44.8020 H   0  0  0  0  0  0  0  0  0  0  0  0
   44.0560   36.2350   45.0310 H   0  0  0  0  0  0  0  0  0  0  0  0
   48.0980   34.3970   39.0260 C   0  0  2  0  0  3  0  0  0  0  0  0
   48.6590   35.0160   38.0470 O   0  0  0  0  0  0  0  0  0  0  0  0
   48.7730   32.5790   37.4910 C   0  0  1  0  0  3  0  0  0  0  0  0
   47.7840   33.7220   37.7440 C   0  0  1  0  0  0  0  0  0  0  0  0
   46.4920   33.2550   37.7810 O   0  0  0  0  0  0  0  0  0  0  0  0
   46.0250   32.8410   36.5420 C   0  0  0  0  0  2  0  0  0  0  0  0
   47.1230   32.1680   35.7430 C   0  0  1  0  0  3  0  0  0  0  0  0
   48.0140   31.4830   36.7780 C   0  0  1  0  0  3  0  0  0  0  0  0
   49.8200   32.9690   36.6590 O   0  0  0  0  0  0  0  0  0  0  0  0
   49.6880   33.8680   36.3010 H   0  0  0  0  0  0  0  0  0  0  0  0
   46.6590   31.2980   34.7860 O   0  0  0  0  0  0  0  0  0  0  0  0
   46.5880   31.7860   33.9290 H   0  0  0  0  0  0  0  0  0  0  0  0
   48.8770   30.6390   36.0720 O   0  0  0  0  0  0  0  0  0  0  0  0
   49.7330   30.6240   36.5420 H   0  0  0  0  0  0  0  0  0  0  0  0
  1  3  1  0  0  0  0
  3  6  1  0  0  0  0
  3  2  2  1  0  0  0
  4  3  1  0  0  0  0
  5  4  1  0  0  0  0
  6  8  1  0  0  0  0
  7  8  2  0  0  0  0
  7 12  1  0  0  0  0
  8  9  1  0  0  0  0
  9 14  1  0  0  0  0
  9 10  2  0  0  0  0
 11 15  1  0  0  0  0
 11 10  1  0  0  0  0
 12 11  2  0  0  0  0
 13  7  1  0  0  0  0
 16  1  1  6  0  0  0
 17 16  1  0  0  0  0
 18 24  1  6  0  0  0
 18 19  1  0  0  0  0
 19 20  1  6  0  0  0
 19 17  1  0  0  0  0
 19 16  1  0  0  0  0
 21 20  1  0  0  0  0
 22 26  1  6  0  0  0
 22 21  1  0  0  0  0
 22 23  1  0  0  0  0
 23 28  1  6  0  0  0
 23 18  1  0  0  0  0
 25 24  1  0  0  0  0
 27 26  1  0  0  0  0
 28 29  1  0  0  0  0
M  END
>  <minimizedAffinity>
-4.97496176

>  <minimizedRMSD>
1.67292857

$$$$
