
 OpenBabel03242514323D

 29 31  0  0  1  0  0  0  0  0999 V2000
   48.4580   34.9020   40.6020 O   0  0  0  0  0  0  0  0  0  0  0  0
   49.6260   35.3910   42.8370 O   0  0  0  0  0  0  0  0  0  0  0  0
   49.0720   34.2730   42.0270 P   0  0  2  0  0  0  0  0  0  0  0  0
   50.3510   33.2370   41.6600 O   0  0  0  0  0  0  0  0  0  0  0  0
   50.9350   33.6710   40.9900 H   0  0  0  0  0  0  0  0  0  0  0  0
   47.8420   33.4380   42.8790 O   0  0  0  0  0  0  0  0  0  0  0  0
   46.2440   35.2290   42.7350 C   0  0  0  0  0  0  0  0  0  0  0  0
   46.7750   34.1480   43.4490 C   0  0  0  0  0  0  0  0  0  0  0  0
   46.2170   33.8320   44.6850 C   0  0  0  0  0  0  0  0  0  0  0  0
   45.1830   34.5890   45.1420 N   0  0  0  0  0  0  0  0  0  0  0  0
   44.6990   35.6200   44.4290 C   0  0  0  0  0  0  0  0  0  0  0  0
   45.2270   35.9340   43.2390 N   0  0  0  0  0  0  0  0  0  0  0  0
   46.6330   35.5190   41.7780 H   0  0  0  0  0  0  0  0  0  0  0  0
   46.6280   33.0000   45.2320 H   0  0  0  0  0  0  0  0  0  0  0  0
   43.8840   36.2040   44.8090 H   0  0  0  0  0  0  0  0  0  0  0  0
   48.1390   34.1790   39.4970 C   0  0  2  0  0  3  0  0  0  0  0  0
   46.8640   34.0220   39.4120 O   0  0  0  0  0  0  0  0  0  0  0  0
   46.2840   33.1540   38.2210 C   0  0  2  0  0  0  0  0  0  0  0  0
   47.7980   33.3890   38.2890 C   0  0  1  0  0  3  0  0  0  0  0  0
   48.2420   34.0530   37.1710 O   0  0  0  0  0  0  0  0  0  0  0  0
   48.2010   33.2770   36.0220 C   0  0  0  0  0  2  0  0  0  0  0  0
   46.9810   32.3770   36.0150 C   0  0  1  0  0  3  0  0  0  0  0  0
   45.8980   33.1600   36.7590 C   0  0  1  0  0  3  0  0  0  0  0  0
   45.9260   31.9120   38.7400 O   0  0  0  0  0  0  0  0  0  0  0  0
   46.7060   31.3680   38.9640 H   0  0  0  0  0  0  0  0  0  0  0  0
   46.5850   31.9900   34.7590 O   0  0  0  0  0  0  0  0  0  0  0  0
   47.0010   31.1160   34.5570 H   0  0  0  0  0  0  0  0  0  0  0  0
   44.6950   32.4830   36.5450 O   0  0  0  0  0  0  0  0  0  0  0  0
   44.1500   32.5760   37.3510 H   0  0  0  0  0  0  0  0  0  0  0  0
  1  3  1  0  0  0  0
  3  2  2  1  0  0  0
  3  6  1  0  0  0  0
  4  3  1  0  0  0  0
  5  4  1  0  0  0  0
  6  8  1  0  0  0  0
  7 12  2  0  0  0  0
  7  8  1  0  0  0  0
  8  9  2  0  0  0  0
  9 10  1  0  0  0  0
  9 14  1  0  0  0  0
 11 15  1  0  0  0  0
 11 10  2  0  0  0  0
 12 11  1  0  0  0  0
 13  7  1  0  0  0  0
 16  1  1  1  0  0  0
 17 16  1  0  0  0  0
 18 19  1  0  0  0  0
 18 24  1  1  0  0  0
 18 17  1  0  0  0  0
 19 20  1  6  0  0  0
 19 16  1  0  0  0  0
 21 20  1  0  0  0  0
 22 26  1  6  0  0  0
 22 21  1  0  0  0  0
 22 23  1  0  0  0  0
 23 28  1  1  0  0  0
 23 18  1  0  0  0  0
 24 25  1  0  0  0  0
 27 26  1  0  0  0  0
 28 29  1  0  0  0  0
M  END
>  <minimizedAffinity>
-5.01785755

>  <minimizedRMSD>
0.828365207

$$$$
