
 OpenBabel03252500543D

 29 30  0  0  0  0  0  0  0  0999 V2000
   47.3920   34.1640   42.3260 C   0  0  0  0  0  0  0  0  0  0  0  0
   46.1270   34.0390   41.7870 C   0  0  0  0  0  0  0  0  0  0  0  0
   45.0710   33.7810   42.6780 C   0  0  0  0  0  0  0  0  0  0  0  0
   45.3590   33.6720   43.9870 N   0  0  0  0  0  0  0  0  0  0  0  0
   46.6020   33.7990   44.4800 C   0  0  0  0  0  0  0  0  0  0  0  0
   47.6120   34.0450   43.6430 N   0  0  0  0  0  0  0  0  0  0  0  0
   44.0890   33.6870   42.2350 H   0  0  0  0  0  0  0  0  0  0  0  0
   46.7450   33.6950   45.5600 H   0  0  0  0  0  0  0  0  0  0  0  0
   48.5480   34.4330   41.4680 C   0  0  0  0  0  0  0  0  0  0  0  0
   48.3300   34.2300   40.3960 H   0  0  0  0  0  0  0  0  0  0  0  0
   49.3720   33.7500   41.7640 H   0  0  0  0  0  0  0  0  0  0  0  0
   49.0280   35.8460   41.7060 C   0  0  0  0  0  0  0  0  0  0  0  0
   50.1350   35.8680   41.8920 H   0  0  0  0  0  0  0  0  0  0  0  0
   48.8430   36.4110   40.7490 H   0  0  0  0  0  0  0  0  0  0  0  0
   48.4760   36.3750   42.5020 H   0  0  0  0  0  0  0  0  0  0  0  0
   46.0060   34.1780   40.4170 O   0  0  0  0  0  0  0  0  0  0  0  0
   47.1790   32.8950   38.4440 O   0  0  0  0  0  0  0  0  0  0  0  0
   45.9000   32.9440   39.2760 P   0  0  1  0  0  0  0  0  0  0  0  0
   45.7830   31.4640   40.1250 O   0  0  0  0  0  0  0  0  0  0  0  0
   45.5910   30.7020   39.5240 H   0  0  0  0  0  0  0  0  0  0  0  0
   44.5420   33.0740   38.2750 O   0  0  0  0  0  0  0  0  0  0  0  0
   44.5220   32.4010   37.0610 C   0  0  0  0  0  0  0  0  0  0  0  0
   45.4200   32.9590   36.1440 C   0  0  0  0  0  0  0  0  0  0  0  0
   46.1440   33.7890   36.1160 H   0  0  0  0  0  0  0  0  0  0  0  0
   45.3450   32.2350   34.9540 C   0  0  0  0  0  0  0  0  0  0  0  0
   45.8070   32.2560   33.9850 H   0  0  0  0  0  0  0  0  0  0  0  0
   44.4090   31.2750   35.2010 N   0  0  0  0  0  0  0  0  0  0  0  0
   43.9650   30.4740   34.6750 H   0  0  0  0  0  0  0  0  0  0  0  0
   43.9370   31.3820   36.4330 N   0  0  0  0  0  0  0  0  0  0  0  0
  1  6  1  0  0  0  0
  2  1  2  0  0  0  0
  2  3  1  0  0  0  0
  3  4  2  0  0  0  0
  4  5  1  0  0  0  0
  5  8  1  0  0  0  0
  6  5  2  0  0  0  0
  7  3  1  0  0  0  0
  9 12  1  0  0  0  0
  9 11  1  0  0  0  0
  9  1  1  0  0  0  0
 10  9  1  0  0  0  0
 12 13  1  0  0  0  0
 12 15  1  0  0  0  0
 14 12  1  0  0  0  0
 16  2  1  0  0  0  0
 18 17  2  6  0  0  0
 18 19  1  0  0  0  0
 18 16  1  0  0  0  0
 20 19  1  0  0  0  0
 21 18  1  0  0  0  0
 22 21  1  0  0  0  0
 23 22  1  0  0  0  0
 24 23  1  0  0  0  0
 25 27  1  0  0  0  0
 25 23  2  0  0  0  0
 26 25  1  0  0  0  0
 27 29  1  0  0  0  0
 28 27  1  0  0  0  0
 29 22  2  0  0  0  0
M  END
>  <minimizedAffinity>
-3.42791152

>  <minimizedRMSD>
5.02255917

$$$$
