
 OpenBabel03242512093D

 32 34  0  0  1  0  0  0  0  0999 V2000
   48.2310   34.5050   41.1730 C   0  0  1  0  0  0  0  0  0  0  0  0
   48.8980   35.8120   41.7530 C   0  0  0  0  0  0  0  0  0  0  0  0
   49.1470   34.4740   42.3090 C   0  0  2  0  0  0  0  0  0  0  0  0
   48.6110   34.2630   40.1750 H   0  0  0  0  0  0  0  0  0  0  0  0
   49.6490   36.2940   41.0920 H   0  0  0  0  0  0  0  0  0  0  0  0
   48.2200   36.5090   42.2810 H   0  0  0  0  0  0  0  0  0  0  0  0
   48.6530   34.0300   43.1880 H   0  0  0  0  0  0  0  0  0  0  0  0
   46.7570   34.4940   41.3960 C   0  0  0  0  0  0  0  0  0  0  0  0
   46.0410   34.2660   40.4260 O   0  0  0  0  0  0  0  0  0  0  0  0
   45.4580   35.8680   42.9520 C   0  0  0  0  0  0  0  0  0  0  0  0
   46.1270   34.7270   42.6570 C   0  0  0  0  0  0  0  0  0  0  0  0
   46.1940   33.7260   43.6620 C   0  0  0  0  0  0  0  0  0  0  0  0
   45.6020   33.9230   44.8660 N   0  0  0  0  0  0  0  0  0  0  0  0
   44.9400   35.0890   45.1130 C   0  0  0  0  0  0  0  0  0  0  0  0
   44.8740   36.0250   44.1840 N   0  0  0  0  0  0  0  0  0  0  0  0
   45.4160   36.6160   42.1800 H   0  0  0  0  0  0  0  0  0  0  0  0
   46.6810   32.7950   43.5550 H   0  0  0  0  0  0  0  0  0  0  0  0
   44.4530   35.2980   46.0510 H   0  0  0  0  0  0  0  0  0  0  0  0
   50.4600   34.0390   42.1460 O   0  0  0  0  0  0  0  0  0  0  0  0
   49.1020   31.9610   42.8560 O   0  0  0  0  0  0  0  0  0  0  0  0
   50.4150   32.3410   42.1920 P   0  0  2  0  0  0  0  0  0  0  0  0
   51.7110   31.6500   42.9710 O   0  0  0  0  0  0  0  0  0  0  0  0
   52.4990   32.2280   42.9900 H   0  0  0  0  0  0  0  0  0  0  0  0
   50.2660   31.7760   40.5680 O   0  0  0  0  0  0  0  0  0  0  0  0
   51.4040   31.5980   39.7750 C   0  0  0  0  0  0  0  0  0  0  0  0
   52.7560   31.3290   39.8860 C   0  0  0  0  0  0  0  0  0  0  0  0
   53.0910   31.2080   40.9070 H   0  0  0  0  0  0  0  0  0  0  0  0
   53.2620   31.3010   38.5820 C   0  0  0  0  0  0  0  0  0  0  0  0
   54.3130   31.1020   38.4950 H   0  0  0  0  0  0  0  0  0  0  0  0
   52.2320   31.5470   37.7510 N   0  0  0  0  0  0  0  0  0  0  0  0
   52.4820   31.5530   36.7370 H   0  0  0  0  0  0  0  0  0  0  0  0
   51.1260   31.7240   38.4510 N   0  0  0  0  0  0  0  0  0  0  0  0
  1  4  1  6  0  0  0
  1  8  1  0  0  0  0
  1  2  1  0  0  0  0
  1  3  1  0  0  0  0
  2  6  1  0  0  0  0
  2  3  1  0  0  0  0
  3  7  1  1  0  0  0
  5  2  1  0  0  0  0
  8 11  1  0  0  0  0
  9  8  2  0  0  0  0
 10 15  1  0  0  0  0
 11 10  2  0  0  0  0
 11 12  1  0  0  0  0
 12 13  2  0  0  0  0
 13 14  1  0  0  0  0
 14 18  1  0  0  0  0
 15 14  2  0  0  0  0
 16 10  1  0  0  0  0
 17 12  1  0  0  0  0
 19 21  1  0  0  0  0
 19  3  1  0  0  0  0
 21 20  2  1  0  0  0
 21 22  1  0  0  0  0
 22 23  1  0  0  0  0
 24 21  1  0  0  0  0
 25 26  1  0  0  0  0
 25 24  1  0  0  0  0
 26 27  1  0  0  0  0
 28 26  2  0  0  0  0
 29 28  1  0  0  0  0
 30 32  1  0  0  0  0
 30 28  1  0  0  0  0
 31 30  1  0  0  0  0
 32 25  2  0  0  0  0
M  END
>  <minimizedAffinity>
-5.03344631

>  <minimizedRMSD>
0.558736265

$$$$
