
 OpenBabel03252509073D

 40 43  0  0  0  0  0  0  0  0999 V2000
   46.8510   31.6230   39.4150 C   0  0  0  0  0  0  0  0  0  0  0  0
   46.6710   32.9710   39.3310 C   0  0  0  0  0  0  0  0  0  0  0  0
   47.4780   33.7290   38.5000 C   0  0  0  0  0  0  0  0  0  0  0  0
   48.4620   33.1230   37.7550 C   0  0  0  0  0  0  0  0  0  0  0  0
   48.6780   31.7460   37.8100 C   0  0  0  0  0  0  0  0  0  0  0  0
   47.8490   31.0040   38.6590 C   0  0  0  0  0  0  0  0  0  0  0  0
   47.3770   34.7830   38.4010 H   0  0  0  0  0  0  0  0  0  0  0  0
   49.1440   33.6040   37.0800 H   0  0  0  0  0  0  0  0  0  0  0  0
   49.4170   31.2100   37.2640 H   0  0  0  0  0  0  0  0  0  0  0  0
   47.9910   29.9220   38.7280 H   0  0  0  0  0  0  0  0  0  0  0  0
   45.3900   35.9690   43.3380 Cl  0  0  0  0  0  0  0  0  0  0  0  0
   45.0450   35.0720   41.8760 C   0  0  0  0  0  0  0  0  0  0  0  0
   46.0270   34.4090   41.2140 C   0  0  0  0  0  0  0  0  0  0  0  0
   45.6510   33.7130   40.0760 C   0  0  0  0  0  0  0  0  0  0  0  0
   44.3510   33.6920   39.6340 C   0  0  0  0  0  0  0  0  0  0  0  0
   43.3860   34.3610   40.3090 C   0  0  0  0  0  0  0  0  0  0  0  0
   43.7430   35.0590   41.4450 C   0  0  0  0  0  0  0  0  0  0  0  0
   44.1080   33.1290   38.7310 H   0  0  0  0  0  0  0  0  0  0  0  0
   42.3760   34.3180   39.9260 H   0  0  0  0  0  0  0  0  0  0  0  0
   42.9530   35.5860   41.9690 H   0  0  0  0  0  0  0  0  0  0  0  0
   49.5380   35.5360   42.0110 C   0  0  0  0  0  0  0  0  0  0  0  0
   48.2320   35.5070   41.5090 C   0  0  0  0  0  0  0  0  0  0  0  0
   47.3780   34.4490   41.7280 C   0  0  0  0  0  0  0  0  0  0  0  0
   47.9090   33.4420   42.4710 N   0  0  0  0  0  0  0  0  0  0  0  0
   49.1540   33.4600   42.9550 C   0  0  0  0  0  0  0  0  0  0  0  0
   49.9600   34.5010   42.7250 N   0  0  0  0  0  0  0  0  0  0  0  0
   50.0910   36.4300   41.7580 H   0  0  0  0  0  0  0  0  0  0  0  0
   47.8420   36.3300   40.9190 H   0  0  0  0  0  0  0  0  0  0  0  0
   49.4800   32.6060   43.5360 H   0  0  0  0  0  0  0  0  0  0  0  0
   45.8600   30.6660   40.3820 S   0  0  0  0  0  0  0  0  0  0  0  0
   44.5390   30.3490   39.7150 O   0  0  0  0  0  0  0  0  0  0  0  0
   46.5850   29.2690   40.3850 O   0  0  0  0  0  0  0  0  0  0  0  0
   45.5160   30.9700   42.0380 C   0  0  0  0  0  0  0  0  0  0  0  0
   46.3340   30.3910   43.0450 C   0  0  0  0  0  0  0  0  0  0  0  0
   47.2240   29.7420   42.9190 H   0  0  0  0  0  0  0  0  0  0  0  0
   45.9510   30.6900   44.3300 C   0  0  0  0  0  0  0  0  0  0  0  0
   46.3720   30.3970   45.2650 H   0  0  0  0  0  0  0  0  0  0  0  0
   44.8870   31.4600   44.1160 N   0  0  0  0  0  0  0  0  0  0  0  0
   44.2500   31.9340   44.8270 H   0  0  0  0  0  0  0  0  0  0  0  0
   44.6660   31.6020   42.8660 N   0  0  0  0  0  0  0  0  0  0  0  0
  1 30  1  0  0  0  0
  2  1  1  0  0  0  0
  2 14  1  0  0  0  0
  3  2  2  0  0  0  0
  4  5  2  0  0  0  0
  4  3  1  0  0  0  0
  5  6  1  0  0  0  0
  6 10  1  0  0  0  0
  6  1  2  0  0  0  0
  7  3  1  0  0  0  0
  8  4  1  0  0  0  0
  9  5  1  0  0  0  0
 12 11  1  0  0  0  0
 13 23  1  0  0  0  0
 13 12  2  0  0  0  0
 14 13  1  0  0  0  0
 15 14  2  0  0  0  0
 15 16  1  0  0  0  0
 16 17  2  0  0  0  0
 17 12  1  0  0  0  0
 17 20  1  0  0  0  0
 18 15  1  0  0  0  0
 19 16  1  0  0  0  0
 21 26  1  0  0  0  0
 22 23  1  0  0  0  0
 22 21  2  0  0  0  0
 23 24  2  0  0  0  0
 24 25  1  0  0  0  0
 25 29  1  0  0  0  0
 26 25  2  0  0  0  0
 27 21  1  0  0  0  0
 28 22  1  0  0  0  0
 30 32  2  0  0  0  0
 30 33  1  0  0  0  0
 31 30  2  0  0  0  0
 33 40  2  0  0  0  0
 33 34  1  0  0  0  0
 34 36  2  0  0  0  0
 35 34  1  0  0  0  0
 36 37  1  0  0  0  0
 38 36  1  0  0  0  0
 38 39  1  0  0  0  0
 40 38  1  0  0  0  0
M  END
>  <minimizedAffinity>
-4.9544158

>  <minimizedRMSD>
1.07983613

$$$$
