
 OpenBabel03252500443D

 33 35  0  0  1  0  0  0  0  0999 V2000
   47.6650   35.2790   41.8610 C   0  0  1  0  0  0  0  0  0  0  0  0
   49.1870   35.3390   41.7390 C   0  0  0  0  0  0  0  0  0  0  0  0
   48.3240   35.0480   40.5320 C   0  0  1  0  0  0  0  0  0  0  0  0
   47.2550   36.2880   42.0840 H   0  0  0  0  0  0  0  0  0  0  0  0
   49.7160   36.2890   41.8190 H   0  0  0  0  0  0  0  0  0  0  0  0
   49.7430   34.4710   42.1530 H   0  0  0  0  0  0  0  0  0  0  0  0
   48.2900   35.8970   39.8120 H   0  0  0  0  0  0  0  0  0  0  0  0
   47.1070   34.0740   42.5050 C   0  0  0  0  0  0  0  0  0  0  0  0
   47.8630   33.2900   42.7160 H   0  0  0  0  0  0  0  0  0  0  0  0
   46.4230   33.5890   41.7480 H   0  0  0  0  0  0  0  0  0  0  0  0
   46.2670   34.3380   43.6820 C   0  0  0  0  0  0  0  0  0  0  0  0
   45.4370   35.4160   43.5390 C   0  0  0  0  0  0  0  0  0  0  0  0
   44.5890   35.8000   44.5840 C   0  0  0  0  0  0  0  0  0  0  0  0
   44.6620   35.0240   45.7210 N   0  0  0  0  0  0  0  0  0  0  0  0
   45.4860   33.9640   45.8440 C   0  0  0  0  0  0  0  0  0  0  0  0
   46.2740   33.6370   44.8290 N   0  0  0  0  0  0  0  0  0  0  0  0
   45.2250   36.1260   42.7520 H   0  0  0  0  0  0  0  0  0  0  0  0
   43.8800   36.6100   44.6470 H   0  0  0  0  0  0  0  0  0  0  0  0
   45.4500   33.4350   46.7860 H   0  0  0  0  0  0  0  0  0  0  0  0
   48.3330   33.7610   40.0590 O   0  0  0  0  0  0  0  0  0  0  0  0
   48.6230   35.0330   37.7300 O   0  0  0  0  0  0  0  0  0  0  0  0
   48.3530   33.6830   38.3710 P   0  0  1  0  0  0  0  0  0  0  0  0
   49.6310   32.6460   37.9080 O   0  0  0  0  0  0  0  0  0  0  0  0
   50.3640   32.6770   38.5690 H   0  0  0  0  0  0  0  0  0  0  0  0
   46.8990   33.0210   37.8380 O   0  0  0  0  0  0  0  0  0  0  0  0
   46.6240   31.6680   37.9730 C   0  0  0  0  0  0  0  0  0  0  0  0
   46.8210   30.4700   37.3180 C   0  0  0  0  0  0  0  0  0  0  0  0
   47.3630   30.5500   36.3870 H   0  0  0  0  0  0  0  0  0  0  0  0
   46.2240   29.4950   38.1180 C   0  0  0  0  0  0  0  0  0  0  0  0
   46.2890   28.4740   37.7400 H   0  0  0  0  0  0  0  0  0  0  0  0
   45.6930   30.1010   39.2060 N   0  0  0  0  0  0  0  0  0  0  0  0
   45.2020   29.5210   39.9210 H   0  0  0  0  0  0  0  0  0  0  0  0
   45.9410   31.4120   39.1070 N   0  0  0  0  0  0  0  0  0  0  0  0
  1  4  1  1  0  0  0
  1  8  1  0  0  0  0
  2  5  1  0  0  0  0
  2  1  1  0  0  0  0
  2  6  1  0  0  0  0
  3  7  1  6  0  0  0
  3  2  1  0  0  0  0
  3  1  1  0  0  0  0
  8  9  1  0  0  0  0
  8 11  1  0  0  0  0
 10  8  1  0  0  0  0
 11 16  1  0  0  0  0
 12 11  2  0  0  0  0
 12 13  1  0  0  0  0
 13 18  1  0  0  0  0
 13 14  2  0  0  0  0
 14 15  1  0  0  0  0
 15 19  1  0  0  0  0
 16 15  2  0  0  0  0
 17 12  1  0  0  0  0
 20  3  1  0  0  0  0
 22 21  2  6  0  0  0
 22 20  1  0  0  0  0
 23 22  1  0  0  0  0
 23 24  1  0  0  0  0
 25 26  1  0  0  0  0
 25 22  1  0  0  0  0
 26 33  2  0  0  0  0
 27 26  1  0  0  0  0
 27 29  2  0  0  0  0
 28 27  1  0  0  0  0
 29 31  1  0  0  0  0
 30 29  1  0  0  0  0
 31 32  1  0  0  0  0
 33 31  1  0  0  0  0
M  END
>  <minimizedAffinity>
-4.43112803

>  <minimizedRMSD>
0.813140392

$$$$
