
 OpenBabel03252500543D

 29 30  0  0  0  0  0  0  0  0999 V2000
   46.5120   34.4230   42.9360 C   0  0  0  0  0  0  0  0  0  0  0  0
   45.2800   34.8520   43.3900 C   0  0  0  0  0  0  0  0  0  0  0  0
   44.9310   34.5240   44.7110 C   0  0  0  0  0  0  0  0  0  0  0  0
   45.8110   33.8180   45.4420 N   0  0  0  0  0  0  0  0  0  0  0  0
   47.0020   33.4150   44.9710 C   0  0  0  0  0  0  0  0  0  0  0  0
   47.3450   33.7210   43.7180 N   0  0  0  0  0  0  0  0  0  0  0  0
   43.9630   34.8700   45.0460 H   0  0  0  0  0  0  0  0  0  0  0  0
   47.6580   32.8440   45.6370 H   0  0  0  0  0  0  0  0  0  0  0  0
   46.9530   34.7210   41.5720 C   0  0  0  0  0  0  0  0  0  0  0  0
   46.2220   35.3570   41.0260 H   0  0  0  0  0  0  0  0  0  0  0  0
   47.0320   33.7670   41.0120 H   0  0  0  0  0  0  0  0  0  0  0  0
   48.3350   35.3320   41.6180 C   0  0  0  0  0  0  0  0  0  0  0  0
   49.0270   34.8130   40.9020 H   0  0  0  0  0  0  0  0  0  0  0  0
   48.2260   36.3940   41.2580 H   0  0  0  0  0  0  0  0  0  0  0  0
   48.7670   35.3790   42.6320 H   0  0  0  0  0  0  0  0  0  0  0  0
   44.4950   35.5680   42.5050 O   0  0  0  0  0  0  0  0  0  0  0  0
   43.5100   35.4240   40.0710 O   0  0  0  0  0  0  0  0  0  0  0  0
   43.2790   34.9650   41.5090 P   0  0  1  0  0  0  0  0  0  0  0  0
   43.3940   33.2590   41.5280 O   0  0  0  0  0  0  0  0  0  0  0  0
   42.6340   32.8270   41.0640 H   0  0  0  0  0  0  0  0  0  0  0  0
   41.7230   35.3830   42.0250 O   0  0  0  0  0  0  0  0  0  0  0  0
   40.6380   35.1290   41.1980 C   0  0  0  0  0  0  0  0  0  0  0  0
   40.0510   33.8900   41.4760 C   0  0  0  0  0  0  0  0  0  0  0  0
   40.2100   33.0520   42.1740 H   0  0  0  0  0  0  0  0  0  0  0  0
   38.9740   33.7050   40.6100 C   0  0  0  0  0  0  0  0  0  0  0  0
   38.2290   32.9530   40.4220 H   0  0  0  0  0  0  0  0  0  0  0  0
   38.9550   34.8350   39.8490 N   0  0  0  0  0  0  0  0  0  0  0  0
   38.3730   35.2250   39.0570 H   0  0  0  0  0  0  0  0  0  0  0  0
   39.9290   35.6580   40.2000 N   0  0  0  0  0  0  0  0  0  0  0  0
  1  2  2  0  0  0  0
  1  6  1  0  0  0  0
  2  3  1  0  0  0  0
  3  7  1  0  0  0  0
  3  4  2  0  0  0  0
  5  4  1  0  0  0  0
  5  8  1  0  0  0  0
  6  5  2  0  0  0  0
  9 12  1  0  0  0  0
  9  1  1  0  0  0  0
 10  9  1  0  0  0  0
 11  9  1  0  0  0  0
 12 15  1  0  0  0  0
 13 12  1  0  0  0  0
 14 12  1  0  0  0  0
 16  2  1  0  0  0  0
 18 17  2  6  0  0  0
 18 19  1  0  0  0  0
 18 21  1  0  0  0  0
 18 16  1  0  0  0  0
 20 19  1  0  0  0  0
 22 23  1  0  0  0  0
 22 21  1  0  0  0  0
 23 24  1  0  0  0  0
 25 23  2  0  0  0  0
 26 25  1  0  0  0  0
 27 29  1  0  0  0  0
 27 25  1  0  0  0  0
 28 27  1  0  0  0  0
 29 22  2  0  0  0  0
M  END
>  <minimizedAffinity>
-4.62225008

>  <minimizedRMSD>
0.943355203

$$$$
