
 OpenBabel03242518293D

 20 21  0  0  0  0  0  0  0  0999 V2000
   37.6820   28.2630   42.7620 C   0  0  0  0  0  0  0  0  0  0  0  0
   37.6930   29.1160   43.6790 O   0  0  0  0  0  0  0  0  0  0  0  0
   38.2490   26.9600   42.7720 C   0  0  0  0  0  0  0  0  0  0  0  0
   39.3760   26.8590   43.5880 C   0  0  0  0  0  0  0  0  0  0  0  0
   39.9980   25.5970   43.6520 C   0  0  0  0  0  0  0  0  0  0  0  0
   39.4690   24.5680   42.9280 N   0  0  0  0  0  0  0  0  0  0  0  0
   38.3680   24.7370   42.1530 C   0  0  0  0  0  0  0  0  0  0  0  0
   37.7650   25.9380   42.0830 N   0  0  0  0  0  0  0  0  0  0  0  0
   39.8190   27.6480   44.1730 H   0  0  0  0  0  0  0  0  0  0  0  0
   40.8720   25.4170   44.2530 H   0  0  0  0  0  0  0  0  0  0  0  0
   38.0660   23.8340   41.6370 H   0  0  0  0  0  0  0  0  0  0  0  0
   37.0340   28.6310   41.5730 O   0  0  0  0  0  0  0  0  0  0  0  0
   37.1650   29.9580   41.1130 C   0  0  0  0  0  0  0  0  0  0  0  0
   38.2680   30.6020   40.5900 C   0  0  0  0  0  0  0  0  0  0  0  0
   39.2280   30.1070   40.4720 H   0  0  0  0  0  0  0  0  0  0  0  0
   37.8490   31.8850   40.3030 C   0  0  0  0  0  0  0  0  0  0  0  0
   38.5160   32.6350   39.8730 H   0  0  0  0  0  0  0  0  0  0  0  0
   36.5340   32.0030   40.6440 N   0  0  0  0  0  0  0  0  0  0  0  0
   36.0690   32.9230   40.4860 H   0  0  0  0  0  0  0  0  0  0  0  0
   36.1170   30.8340   41.1360 N   0  0  0  0  0  0  0  0  0  0  0  0
  1  3  1  0  0  0  0
  1  2  2  0  0  0  0
  3  4  1  0  0  0  0
  4  5  2  0  0  0  0
  4  9  1  0  0  0  0
  5 10  1  0  0  0  0
  6  5  1  0  0  0  0
  7  6  2  0  0  0  0
  8  7  1  0  0  0  0
  8  3  2  0  0  0  0
 11  7  1  0  0  0  0
 12  1  1  0  0  0  0
 13 20  2  0  0  0  0
 13 12  1  0  0  0  0
 14 13  1  0  0  0  0
 15 14  1  0  0  0  0
 16 14  2  0  0  0  0
 16 18  1  0  0  0  0
 17 16  1  0  0  0  0
 18 20  1  0  0  0  0
 19 18  1  0  0  0  0
M  END
>  <minimizedAffinity>
-4.24683237

$$$$

 OpenBabel03242518293D

 20 21  0  0  0  0  0  0  0  0999 V2000
   39.2620   30.4590   42.1100 C   0  0  0  0  0  0  0  0  0  0  0  0
   39.9060   31.1610   42.9250 O   0  0  0  0  0  0  0  0  0  0  0  0
   38.5230   29.2740   42.3700 C   0  0  0  0  0  0  0  0  0  0  0  0
   39.2880   28.2690   42.9630 C   0  0  0  0  0  0  0  0  0  0  0  0
   38.6280   27.0600   43.2520 C   0  0  0  0  0  0  0  0  0  0  0  0
   37.3030   26.9460   42.9440 N   0  0  0  0  0  0  0  0  0  0  0  0
   36.6180   27.9650   42.3670 C   0  0  0  0  0  0  0  0  0  0  0  0
   37.2370   29.1260   42.0850 N   0  0  0  0  0  0  0  0  0  0  0  0
   40.3330   28.3240   43.2200 H   0  0  0  0  0  0  0  0  0  0  0  0
   39.1310   26.2250   43.7090 H   0  0  0  0  0  0  0  0  0  0  0  0
   35.5770   27.7300   42.1800 H   0  0  0  0  0  0  0  0  0  0  0  0
   39.2650   30.8880   40.7740 O   0  0  0  0  0  0  0  0  0  0  0  0
   38.6020   32.0900   40.4470 C   0  0  0  0  0  0  0  0  0  0  0  0
   39.1190   33.3570   40.2690 C   0  0  0  0  0  0  0  0  0  0  0  0
   40.1790   33.5730   40.3710 H   0  0  0  0  0  0  0  0  0  0  0  0
   38.0390   34.1600   39.9640 C   0  0  0  0  0  0  0  0  0  0  0  0
   38.1430   35.2300   39.7680 H   0  0  0  0  0  0  0  0  0  0  0  0
   36.9110   33.3950   39.9610 N   0  0  0  0  0  0  0  0  0  0  0  0
   36.0040   33.8620   39.7460 H   0  0  0  0  0  0  0  0  0  0  0  0
   37.2510   32.1370   40.2540 N   0  0  0  0  0  0  0  0  0  0  0  0
  1  3  1  0  0  0  0
  1  2  2  0  0  0  0
  3  4  1  0  0  0  0
  4  9  1  0  0  0  0
  4  5  2  0  0  0  0
  5 10  1  0  0  0  0
  6  5  1  0  0  0  0
  7  6  2  0  0  0  0
  8  7  1  0  0  0  0
  8  3  2  0  0  0  0
 11  7  1  0  0  0  0
 12  1  1  0  0  0  0
 13 12  1  0  0  0  0
 14 15  1  0  0  0  0
 14 13  1  0  0  0  0
 16 14  2  0  0  0  0
 17 16  1  0  0  0  0
 18 16  1  0  0  0  0
 18 20  1  0  0  0  0
 19 18  1  0  0  0  0
 20 13  2  0  0  0  0
M  END
>  <minimizedAffinity>
-4.18856668

$$$$

 OpenBabel03242518293D

 20 21  0  0  0  0  0  0  0  0999 V2000
   36.7070   27.5210   42.5380 C   0  0  0  0  0  0  0  0  0  0  0  0
   36.2230   27.3240   43.6770 O   0  0  0  0  0  0  0  0  0  0  0  0
   36.8470   28.7550   41.8490 C   0  0  0  0  0  0  0  0  0  0  0  0
   35.7930   29.0180   40.9740 C   0  0  0  0  0  0  0  0  0  0  0  0
   35.8580   30.2240   40.2510 C   0  0  0  0  0  0  0  0  0  0  0  0
   36.9280   31.0490   40.4460 N   0  0  0  0  0  0  0  0  0  0  0  0
   37.9200   30.7320   41.3150 C   0  0  0  0  0  0  0  0  0  0  0  0
   37.8700   29.5810   42.0110 N   0  0  0  0  0  0  0  0  0  0  0  0
   34.9350   28.3910   40.7940 H   0  0  0  0  0  0  0  0  0  0  0  0
   35.0940   30.5170   39.5510 H   0  0  0  0  0  0  0  0  0  0  0  0
   38.7010   31.4800   41.3640 H   0  0  0  0  0  0  0  0  0  0  0  0
   37.1690   26.3880   41.8500 O   0  0  0  0  0  0  0  0  0  0  0  0
   38.2490   25.6600   42.3940 C   0  0  0  0  0  0  0  0  0  0  0  0
   39.4250   26.1180   42.9510 C   0  0  0  0  0  0  0  0  0  0  0  0
   39.6560   27.1770   43.0340 H   0  0  0  0  0  0  0  0  0  0  0  0
   40.1250   24.9880   43.3230 C   0  0  0  0  0  0  0  0  0  0  0  0
   41.1080   25.0400   43.7970 H   0  0  0  0  0  0  0  0  0  0  0  0
   39.3890   23.8890   42.9960 N   0  0  0  0  0  0  0  0  0  0  0  0
   39.7880   22.9500   43.2150 H   0  0  0  0  0  0  0  0  0  0  0  0
   38.2490   24.2950   42.4310 N   0  0  0  0  0  0  0  0  0  0  0  0
  1  2  2  0  0  0  0
  3  8  1  0  0  0  0
  3  1  1  0  0  0  0
  4  3  2  0  0  0  0
  5  6  2  0  0  0  0
  5  4  1  0  0  0  0
  6  7  1  0  0  0  0
  7 11  1  0  0  0  0
  7  8  2  0  0  0  0
  9  4  1  0  0  0  0
 10  5  1  0  0  0  0
 12 13  1  0  0  0  0
 12  1  1  0  0  0  0
 13 20  2  0  0  0  0
 13 14  1  0  0  0  0
 14 15  1  0  0  0  0
 14 16  2  0  0  0  0
 16 17  1  0  0  0  0
 18 19  1  0  0  0  0
 18 16  1  0  0  0  0
 20 18  1  0  0  0  0
M  END
>  <minimizedAffinity>
-4.1429286

$$$$

 OpenBabel03242518293D

 20 21  0  0  0  0  0  0  0  0999 V2000
   36.9930   27.6820   42.7820 C   0  0  0  0  0  0  0  0  0  0  0  0
   36.1900   27.3370   43.6790 O   0  0  0  0  0  0  0  0  0  0  0  0
   36.8960   28.7920   41.9000 C   0  0  0  0  0  0  0  0  0  0  0  0
   35.7960   28.7170   41.0440 C   0  0  0  0  0  0  0  0  0  0  0  0
   35.6290   29.7810   40.1370 C   0  0  0  0  0  0  0  0  0  0  0  0
   36.5340   30.8030   40.1500 N   0  0  0  0  0  0  0  0  0  0  0  0
   37.5820   30.8120   41.0110 C   0  0  0  0  0  0  0  0  0  0  0  0
   37.7540   29.8010   41.8830 N   0  0  0  0  0  0  0  0  0  0  0  0
   35.0640   27.9280   41.0060 H   0  0  0  0  0  0  0  0  0  0  0  0
   34.8130   29.8160   39.4360 H   0  0  0  0  0  0  0  0  0  0  0  0
   38.2150   31.6840   40.9060 H   0  0  0  0  0  0  0  0  0  0  0  0
   38.1330   26.8800   42.6190 O   0  0  0  0  0  0  0  0  0  0  0  0
   37.9710   25.5650   42.1320 C   0  0  0  0  0  0  0  0  0  0  0  0
   37.0130   25.0570   41.2800 C   0  0  0  0  0  0  0  0  0  0  0  0
   36.2190   25.6710   40.8630 H   0  0  0  0  0  0  0  0  0  0  0  0
   37.3190   23.7190   41.1320 C   0  0  0  0  0  0  0  0  0  0  0  0
   36.7250   23.0500   40.5050 H   0  0  0  0  0  0  0  0  0  0  0  0
   38.4260   23.4380   41.8750 N   0  0  0  0  0  0  0  0  0  0  0  0
   38.7840   22.4580   41.8670 H   0  0  0  0  0  0  0  0  0  0  0  0
   38.8240   24.5580   42.4830 N   0  0  0  0  0  0  0  0  0  0  0  0
  1  2  2  0  0  0  0
  3  1  1  0  0  0  0
  4  3  2  0  0  0  0
  5  6  2  0  0  0  0
  5  4  1  0  0  0  0
  6  7  1  0  0  0  0
  7  8  2  0  0  0  0
  8  3  1  0  0  0  0
  9  4  1  0  0  0  0
 10  5  1  0  0  0  0
 11  7  1  0  0  0  0
 12  1  1  0  0  0  0
 13 20  2  0  0  0  0
 13 12  1  0  0  0  0
 14 13  1  0  0  0  0
 15 14  1  0  0  0  0
 16 14  2  0  0  0  0
 16 18  1  0  0  0  0
 17 16  1  0  0  0  0
 18 20  1  0  0  0  0
 19 18  1  0  0  0  0
M  END
>  <minimizedAffinity>
-4.11896086

$$$$

 OpenBabel03242518293D

 20 21  0  0  0  0  0  0  0  0999 V2000
   36.1110   29.1880   40.4280 C   0  0  0  0  0  0  0  0  0  0  0  0
   34.8780   29.3160   40.2430 O   0  0  0  0  0  0  0  0  0  0  0  0
   36.7720   28.6130   41.5470 C   0  0  0  0  0  0  0  0  0  0  0  0
   36.8680   27.2230   41.4730 C   0  0  0  0  0  0  0  0  0  0  0  0
   37.5090   26.5770   42.5460 C   0  0  0  0  0  0  0  0  0  0  0  0
   37.9920   27.3340   43.5750 N   0  0  0  0  0  0  0  0  0  0  0  0
   37.8640   28.6850   43.5830 C   0  0  0  0  0  0  0  0  0  0  0  0
   37.2520   29.3150   42.5630 N   0  0  0  0  0  0  0  0  0  0  0  0
   36.5000   26.5950   40.6800 H   0  0  0  0  0  0  0  0  0  0  0  0
   37.6340   25.5080   42.5830 H   0  0  0  0  0  0  0  0  0  0  0  0
   38.2930   29.1500   44.4610 H   0  0  0  0  0  0  0  0  0  0  0  0
   36.9510   29.6690   39.4120 O   0  0  0  0  0  0  0  0  0  0  0  0
   37.1270   31.0630   39.2830 C   0  0  0  0  0  0  0  0  0  0  0  0
   37.1610   32.0380   40.2590 C   0  0  0  0  0  0  0  0  0  0  0  0
   37.0460   31.8080   41.3150 H   0  0  0  0  0  0  0  0  0  0  0  0
   37.3580   33.2290   39.5890 C   0  0  0  0  0  0  0  0  0  0  0  0
   37.4270   34.1870   40.1090 H   0  0  0  0  0  0  0  0  0  0  0  0
   37.4380   32.9710   38.2530 N   0  0  0  0  0  0  0  0  0  0  0  0
   37.5860   33.7780   37.6080 H   0  0  0  0  0  0  0  0  0  0  0  0
   37.2980   31.6570   38.0650 N   0  0  0  0  0  0  0  0  0  0  0  0
  1  3  1  0  0  0  0
  2  1  2  0  0  0  0
  3  8  1  0  0  0  0
  4  3  2  0  0  0  0
  4  5  1  0  0  0  0
  5 10  1  0  0  0  0
  5  6  2  0  0  0  0
  6  7  1  0  0  0  0
  7 11  1  0  0  0  0
  8  7  2  0  0  0  0
  9  4  1  0  0  0  0
 12  1  1  0  0  0  0
 13 12  1  0  0  0  0
 13 14  1  0  0  0  0
 14 15  1  0  0  0  0
 16 17  1  0  0  0  0
 16 14  2  0  0  0  0
 18 16  1  0  0  0  0
 19 18  1  0  0  0  0
 20 18  1  0  0  0  0
 20 13  2  0  0  0  0
M  END
>  <minimizedAffinity>
-4.0538516

$$$$

 OpenBabel03242518293D

 20 21  0  0  0  0  0  0  0  0999 V2000
   37.8390   28.4660   39.6970 C   0  0  0  0  0  0  0  0  0  0  0  0
   38.5820   28.1330   38.7450 O   0  0  0  0  0  0  0  0  0  0  0  0
   37.9700   28.1270   41.0700 C   0  0  0  0  0  0  0  0  0  0  0  0
   36.8090   27.5760   41.6130 C   0  0  0  0  0  0  0  0  0  0  0  0
   36.8580   27.2120   42.9720 C   0  0  0  0  0  0  0  0  0  0  0  0
   38.0170   27.4150   43.6640 N   0  0  0  0  0  0  0  0  0  0  0  0
   39.1120   27.9560   43.0730 C   0  0  0  0  0  0  0  0  0  0  0  0
   39.0780   28.3080   41.7750 N   0  0  0  0  0  0  0  0  0  0  0  0
   35.8790   27.4020   41.0980 H   0  0  0  0  0  0  0  0  0  0  0  0
   36.0150   26.7800   43.4830 H   0  0  0  0  0  0  0  0  0  0  0  0
   39.9550   28.0570   43.7440 H   0  0  0  0  0  0  0  0  0  0  0  0
   36.7370   29.2750   39.3780 O   0  0  0  0  0  0  0  0  0  0  0  0
   36.8780   30.6770   39.4660 C   0  0  0  0  0  0  0  0  0  0  0  0
   37.2730   31.5810   38.5010 C   0  0  0  0  0  0  0  0  0  0  0  0
   37.5370   31.2780   37.4920 H   0  0  0  0  0  0  0  0  0  0  0  0
   37.2380   32.8170   39.1150 C   0  0  0  0  0  0  0  0  0  0  0  0
   37.5040   33.7370   38.5900 H   0  0  0  0  0  0  0  0  0  0  0  0
   36.8350   32.6540   40.4060 N   0  0  0  0  0  0  0  0  0  0  0  0
   36.7590   33.5050   41.0060 H   0  0  0  0  0  0  0  0  0  0  0  0
   36.6160   31.3550   40.6220 N   0  0  0  0  0  0  0  0  0  0  0  0
  1  3  1  0  0  0  0
  2  1  2  0  0  0  0
  3  4  2  0  0  0  0
  3  8  1  0  0  0  0
  4  5  1  0  0  0  0
  5 10  1  0  0  0  0
  5  6  2  0  0  0  0
  7  6  1  0  0  0  0
  7 11  1  0  0  0  0
  8  7  2  0  0  0  0
  9  4  1  0  0  0  0
 12 13  1  0  0  0  0
 12  1  1  0  0  0  0
 13 20  2  0  0  0  0
 14 16  2  0  0  0  0
 14 13  1  0  0  0  0
 15 14  1  0  0  0  0
 16 18  1  0  0  0  0
 17 16  1  0  0  0  0
 18 20  1  0  0  0  0
 18 19  1  0  0  0  0
M  END
>  <minimizedAffinity>
-4.00581169

$$$$

 OpenBabel03242518293D

 20 21  0  0  0  0  0  0  0  0999 V2000
   39.0820   30.1460   39.8670 C   0  0  0  0  0  0  0  0  0  0  0  0
   39.0650   29.4300   38.8380 O   0  0  0  0  0  0  0  0  0  0  0  0
   38.7900   31.5320   39.9730 C   0  0  0  0  0  0  0  0  0  0  0  0
   37.5860   31.8870   39.3640 C   0  0  0  0  0  0  0  0  0  0  0  0
   37.2240   33.2460   39.4240 C   0  0  0  0  0  0  0  0  0  0  0  0
   38.0560   34.1180   40.0650 N   0  0  0  0  0  0  0  0  0  0  0  0
   39.2150   33.7040   40.6380 C   0  0  0  0  0  0  0  0  0  0  0  0
   39.5720   32.4080   40.5860 N   0  0  0  0  0  0  0  0  0  0  0  0
   36.9060   31.2270   38.8510 H   0  0  0  0  0  0  0  0  0  0  0  0
   36.3160   33.6200   38.9850 H   0  0  0  0  0  0  0  0  0  0  0  0
   39.7700   34.5060   41.1080 H   0  0  0  0  0  0  0  0  0  0  0  0
   39.4320   29.5080   41.0670 O   0  0  0  0  0  0  0  0  0  0  0  0
   38.4020   29.0130   41.8960 C   0  0  0  0  0  0  0  0  0  0  0  0
   37.5010   27.9950   41.6620 C   0  0  0  0  0  0  0  0  0  0  0  0
   37.4940   27.4240   40.7380 H   0  0  0  0  0  0  0  0  0  0  0  0
   36.7170   27.9250   42.7970 C   0  0  0  0  0  0  0  0  0  0  0  0
   35.9060   27.2010   42.9020 H   0  0  0  0  0  0  0  0  0  0  0  0
   37.1390   28.8730   43.6800 N   0  0  0  0  0  0  0  0  0  0  0  0
   36.6400   28.9460   44.5930 H   0  0  0  0  0  0  0  0  0  0  0  0
   38.1620   29.5350   43.1350 N   0  0  0  0  0  0  0  0  0  0  0  0
  1  3  1  0  0  0  0
  1 12  1  0  0  0  0
  2  1  2  0  0  0  0
  3  8  1  0  0  0  0
  4  5  1  0  0  0  0
  4  3  2  0  0  0  0
  5  6  2  0  0  0  0
  6  7  1  0  0  0  0
  7 11  1  0  0  0  0
  8  7  2  0  0  0  0
  9  4  1  0  0  0  0
 10  5  1  0  0  0  0
 12 13  1  0  0  0  0
 13 20  2  0  0  0  0
 14 13  1  0  0  0  0
 14 16  2  0  0  0  0
 15 14  1  0  0  0  0
 16 17  1  0  0  0  0
 16 18  1  0  0  0  0
 18 19  1  0  0  0  0
 20 18  1  0  0  0  0
M  END
>  <minimizedAffinity>
-3.77303481

$$$$

 OpenBabel03242518293D

 20 21  0  0  0  0  0  0  0  0999 V2000
   38.5190   30.9820   40.4720 C   0  0  0  0  0  0  0  0  0  0  0  0
   38.1620   32.1750   40.3360 O   0  0  0  0  0  0  0  0  0  0  0  0
   37.9200   29.9760   41.2780 C   0  0  0  0  0  0  0  0  0  0  0  0
   38.4900   29.8770   42.5470 C   0  0  0  0  0  0  0  0  0  0  0  0
   37.9520   28.9020   43.4070 C   0  0  0  0  0  0  0  0  0  0  0  0
   36.9220   28.1270   42.9570 N   0  0  0  0  0  0  0  0  0  0  0  0
   36.4130   28.2770   41.7080 C   0  0  0  0  0  0  0  0  0  0  0  0
   36.9200   29.2050   40.8760 N   0  0  0  0  0  0  0  0  0  0  0  0
   39.3010   30.4700   42.9350 H   0  0  0  0  0  0  0  0  0  0  0  0
   38.3220   28.7470   44.4060 H   0  0  0  0  0  0  0  0  0  0  0  0
   35.6020   27.5940   41.4910 H   0  0  0  0  0  0  0  0  0  0  0  0
   39.6490   30.5790   39.7450 O   0  0  0  0  0  0  0  0  0  0  0  0
   40.1410   31.4310   38.7320 C   0  0  0  0  0  0  0  0  0  0  0  0
   41.2130   32.2990   38.7600 C   0  0  0  0  0  0  0  0  0  0  0  0
   41.8390   32.4230   39.6400 H   0  0  0  0  0  0  0  0  0  0  0  0
   41.2510   32.8830   37.5100 C   0  0  0  0  0  0  0  0  0  0  0  0
   42.0050   33.6240   37.2340 H   0  0  0  0  0  0  0  0  0  0  0  0
   40.2320   32.3780   36.7600 N   0  0  0  0  0  0  0  0  0  0  0  0
   40.1260   32.7250   35.7810 H   0  0  0  0  0  0  0  0  0  0  0  0
   39.5560   31.4960   37.5000 N   0  0  0  0  0  0  0  0  0  0  0  0
  1  3  1  0  0  0  0
  2  1  2  0  0  0  0
  3  4  1  0  0  0  0
  4  9  1  0  0  0  0
  4  5  2  0  0  0  0
  5 10  1  0  0  0  0
  6  5  1  0  0  0  0
  7  6  2  0  0  0  0
  8  3  2  0  0  0  0
  8  7  1  0  0  0  0
 11  7  1  0  0  0  0
 12  1  1  0  0  0  0
 13 14  1  0  0  0  0
 13 12  1  0  0  0  0
 14 15  1  0  0  0  0
 16 14  2  0  0  0  0
 17 16  1  0  0  0  0
 18 20  1  0  0  0  0
 18 16  1  0  0  0  0
 19 18  1  0  0  0  0
 20 13  2  0  0  0  0
M  END
>  <minimizedAffinity>
-3.76284647

$$$$

 OpenBabel03242518293D

 20 21  0  0  0  0  0  0  0  0999 V2000
   38.8000   28.3620   41.9380 C   0  0  0  0  0  0  0  0  0  0  0  0
   39.9730   28.3440   41.4970 O   0  0  0  0  0  0  0  0  0  0  0  0
   37.6920   29.1020   41.4460 C   0  0  0  0  0  0  0  0  0  0  0  0
   36.6120   28.2970   41.0830 C   0  0  0  0  0  0  0  0  0  0  0  0
   35.4730   28.9560   40.5840 C   0  0  0  0  0  0  0  0  0  0  0  0
   35.4920   30.3180   40.4870 N   0  0  0  0  0  0  0  0  0  0  0  0
   36.5790   31.0400   40.8580 C   0  0  0  0  0  0  0  0  0  0  0  0
   37.6740   30.4220   41.3370 N   0  0  0  0  0  0  0  0  0  0  0  0
   36.5620   27.2230   41.1460 H   0  0  0  0  0  0  0  0  0  0  0  0
   34.5890   28.4240   40.2780 H   0  0  0  0  0  0  0  0  0  0  0  0
   36.4490   32.1070   40.7250 H   0  0  0  0  0  0  0  0  0  0  0  0
   38.5400   27.5560   43.0570 O   0  0  0  0  0  0  0  0  0  0  0  0
   38.8750   26.1860   42.9970 C   0  0  0  0  0  0  0  0  0  0  0  0
   39.9660   25.5260   43.5260 C   0  0  0  0  0  0  0  0  0  0  0  0
   40.7400   26.0400   44.0880 H   0  0  0  0  0  0  0  0  0  0  0  0
   39.8030   24.2010   43.1760 C   0  0  0  0  0  0  0  0  0  0  0  0
   40.5220   23.4290   43.4600 H   0  0  0  0  0  0  0  0  0  0  0  0
   38.6500   24.0750   42.4600 N   0  0  0  0  0  0  0  0  0  0  0  0
   38.3870   23.1240   42.1200 H   0  0  0  0  0  0  0  0  0  0  0  0
   38.0850   25.2790   42.3500 N   0  0  0  0  0  0  0  0  0  0  0  0
  1 12  1  0  0  0  0
  2  1  2  0  0  0  0
  3  1  1  0  0  0  0
  4  9  1  0  0  0  0
  4  3  2  0  0  0  0
  5  4  1  0  0  0  0
  6  5  2  0  0  0  0
  6  7  1  0  0  0  0
  7  8  2  0  0  0  0
  8  3  1  0  0  0  0
 10  5  1  0  0  0  0
 11  7  1  0  0  0  0
 13 12  1  0  0  0  0
 13 14  1  0  0  0  0
 14 15  1  0  0  0  0
 16 17  1  0  0  0  0
 16 14  2  0  0  0  0
 18 16  1  0  0  0  0
 19 18  1  0  0  0  0
 20 18  1  0  0  0  0
 20 13  2  0  0  0  0
M  END
>  <minimizedAffinity>
-3.7491107

$$$$
