
 OpenBabel03252500543D

 29 30  0  0  0  0  0  0  0  0999 V2000
   47.4580   34.3470   42.0570 C   0  0  0  0  0  0  0  0  0  0  0  0
   46.4590   34.2320   41.1100 C   0  0  0  0  0  0  0  0  0  0  0  0
   45.1490   34.0280   41.5770 C   0  0  0  0  0  0  0  0  0  0  0  0
   44.9550   33.9570   42.9060 N   0  0  0  0  0  0  0  0  0  0  0  0
   45.9480   34.0720   43.8020 C   0  0  0  0  0  0  0  0  0  0  0  0
   47.1960   34.2680   43.3690 N   0  0  0  0  0  0  0  0  0  0  0  0
   44.3840   33.9410   40.8190 H   0  0  0  0  0  0  0  0  0  0  0  0
   45.6990   34.0020   44.8660 H   0  0  0  0  0  0  0  0  0  0  0  0
   48.8500   34.5620   41.6560 C   0  0  0  0  0  0  0  0  0  0  0  0
   49.1070   34.0100   40.7250 H   0  0  0  0  0  0  0  0  0  0  0  0
   49.5100   34.1670   42.4560 H   0  0  0  0  0  0  0  0  0  0  0  0
   49.1140   36.0450   41.5450 C   0  0  0  0  0  0  0  0  0  0  0  0
   50.0420   36.3310   42.1090 H   0  0  0  0  0  0  0  0  0  0  0  0
   49.3140   36.2530   40.4560 H   0  0  0  0  0  0  0  0  0  0  0  0
   48.2560   36.6730   41.8390 H   0  0  0  0  0  0  0  0  0  0  0  0
   46.8330   34.3290   39.7820 O   0  0  0  0  0  0  0  0  0  0  0  0
   48.4110   32.8460   38.2890 O   0  0  0  0  0  0  0  0  0  0  0  0
   46.9490   33.0730   38.6660 P   0  0  1  0  0  0  0  0  0  0  0  0
   46.3900   31.6490   39.4310 O   0  0  0  0  0  0  0  0  0  0  0  0
   46.3100   30.8910   38.8000 H   0  0  0  0  0  0  0  0  0  0  0  0
   46.0080   33.3190   37.2820 O   0  0  0  0  0  0  0  0  0  0  0  0
   46.0170   32.3670   36.2720 C   0  0  0  0  0  0  0  0  0  0  0  0
   47.1310   31.5260   36.3630 C   0  0  0  0  0  0  0  0  0  0  0  0
   48.0100   31.4060   37.0160 H   0  0  0  0  0  0  0  0  0  0  0  0
   47.0730   30.6000   35.3210 C   0  0  0  0  0  0  0  0  0  0  0  0
   47.6600   29.7760   34.9610 H   0  0  0  0  0  0  0  0  0  0  0  0
   45.9310   30.9190   34.6490 N   0  0  0  0  0  0  0  0  0  0  0  0
   45.4060   30.5650   33.8030 H   0  0  0  0  0  0  0  0  0  0  0  0
   45.3240   31.9510   35.2130 N   0  0  0  0  0  0  0  0  0  0  0  0
  1  6  1  0  0  0  0
  2  3  1  0  0  0  0
  2  1  2  0  0  0  0
  3  4  2  0  0  0  0
  4  5  1  0  0  0  0
  5  8  1  0  0  0  0
  6  5  2  0  0  0  0
  7  3  1  0  0  0  0
  9  1  1  0  0  0  0
  9 11  1  0  0  0  0
 10  9  1  0  0  0  0
 12  9  1  0  0  0  0
 12 15  1  0  0  0  0
 12 13  1  0  0  0  0
 14 12  1  0  0  0  0
 16  2  1  0  0  0  0
 18 17  2  6  0  0  0
 18 19  1  0  0  0  0
 18 16  1  0  0  0  0
 20 19  1  0  0  0  0
 21 18  1  0  0  0  0
 22 23  1  0  0  0  0
 22 21  1  0  0  0  0
 23 24  1  0  0  0  0
 25 23  2  0  0  0  0
 26 25  1  0  0  0  0
 27 29  1  0  0  0  0
 27 25  1  0  0  0  0
 28 27  1  0  0  0  0
 29 22  2  0  0  0  0
M  END
>  <minimizedAffinity>
-3.43040919

>  <minimizedRMSD>
6.0317831

$$$$
