
 OpenBabel03242518283D

 20 21  0  0  0  0  0  0  0  0999 V2000
   47.1390   35.0190   41.9370 C   0  0  0  0  0  0  0  0  0  0  0  0
   48.2460   35.5870   41.7870 O   0  0  0  0  0  0  0  0  0  0  0  0
   46.3610   34.9210   43.1210 C   0  0  0  0  0  0  0  0  0  0  0  0
   45.3800   35.9080   43.2170 C   0  0  0  0  0  0  0  0  0  0  0  0
   44.5650   35.8800   44.3640 C   0  0  0  0  0  0  0  0  0  0  0  0
   44.7780   34.9060   45.2970 N   0  0  0  0  0  0  0  0  0  0  0  0
   45.7520   33.9740   45.1400 C   0  0  0  0  0  0  0  0  0  0  0  0
   46.5380   33.9910   44.0480 N   0  0  0  0  0  0  0  0  0  0  0  0
   45.1830   36.6900   42.5020 H   0  0  0  0  0  0  0  0  0  0  0  0
   43.7800   36.5980   44.5310 H   0  0  0  0  0  0  0  0  0  0  0  0
   45.8040   33.2670   45.9590 H   0  0  0  0  0  0  0  0  0  0  0  0
   46.5930   34.4010   40.8020 O   0  0  0  0  0  0  0  0  0  0  0  0
   47.4520   33.6790   39.9450 C   0  0  0  0  0  0  0  0  0  0  0  0
   47.8930   33.9920   38.6750 C   0  0  0  0  0  0  0  0  0  0  0  0
   47.5970   34.9040   38.1660 H   0  0  0  0  0  0  0  0  0  0  0  0
   48.7090   32.9440   38.2970 C   0  0  0  0  0  0  0  0  0  0  0  0
   49.2080   32.9150   37.3270 H   0  0  0  0  0  0  0  0  0  0  0  0
   48.7530   32.0360   39.3110 N   0  0  0  0  0  0  0  0  0  0  0  0
   49.3350   31.1800   39.1760 H   0  0  0  0  0  0  0  0  0  0  0  0
   47.9910   32.4790   40.3130 N   0  0  0  0  0  0  0  0  0  0  0  0
  1  3  1  0  0  0  0
  2  1  2  0  0  0  0
  3  4  2  0  0  0  0
  3  8  1  0  0  0  0
  4  5  1  0  0  0  0
  5 10  1  0  0  0  0
  5  6  2  0  0  0  0
  7  6  1  0  0  0  0
  7 11  1  0  0  0  0
  8  7  2  0  0  0  0
  9  4  1  0  0  0  0
 12  1  1  0  0  0  0
 13 20  2  0  0  0  0
 13 12  1  0  0  0  0
 14 13  1  0  0  0  0
 15 14  1  0  0  0  0
 16 14  2  0  0  0  0
 16 18  1  0  0  0  0
 17 16  1  0  0  0  0
 18 20  1  0  0  0  0
 19 18  1  0  0  0  0
M  END
>  <minimizedAffinity>
-3.96428132

>  <minimizedRMSD>
1.02349782

$$$$
