
 OpenBabel03252504223D

 31 34  0  0  0  0  0  0  0  0999 V2000
   47.6510   33.5410   40.1200 C   0  0  0  0  0  0  0  0  0  0  0  0
   48.9950   33.2750   40.3590 C   0  0  0  0  0  0  0  0  0  0  0  0
   49.4620   33.3440   41.6940 C   0  0  0  0  0  0  0  0  0  0  0  0
   48.5430   33.6710   42.6500 N   0  0  0  0  0  0  0  0  0  0  0  0
   47.2420   33.9220   42.3650 C   0  0  0  0  0  0  0  0  0  0  0  0
   46.8100   33.8550   41.1060 N   0  0  0  0  0  0  0  0  0  0  0  0
   46.3810   34.2540   43.4470 N   0  0  0  0  0  0  0  0  0  0  0  0
   45.4670   35.2580   43.4490 C   0  0  0  0  0  0  0  0  0  0  0  0
   44.8460   35.2560   44.6640 N   0  0  0  0  0  0  0  0  0  0  0  0
   45.3890   34.2610   45.3730 C   0  0  0  0  0  0  0  0  0  0  0  0
   45.1850   33.7740   46.6390 C   0  0  0  0  0  0  0  0  0  0  0  0
   45.8690   32.7450   47.1280 N   0  0  0  0  0  0  0  0  0  0  0  0
   46.8190   32.1050   46.4090 C   0  0  0  0  0  0  0  0  0  0  0  0
   47.0090   32.5970   45.1620 N   0  0  0  0  0  0  0  0  0  0  0  0
   46.3580   33.6170   44.6240 C   0  0  0  0  0  0  0  0  0  0  0  0
   49.7490   33.0140   39.6260 H   0  0  0  0  0  0  0  0  0  0  0  0
   50.4840   33.1490   41.9290 H   0  0  0  0  0  0  0  0  0  0  0  0
   45.2250   35.9680   42.6590 H   0  0  0  0  0  0  0  0  0  0  0  0
   47.3800   31.2680   46.8010 H   0  0  0  0  0  0  0  0  0  0  0  0
   44.2330   34.3290   47.5200 N   0  0  0  0  0  0  0  0  0  0  0  0
   43.4000   33.8570   47.9620 H   0  0  0  0  0  0  0  0  0  0  0  0
   44.4400   35.3460   47.7200 H   0  0  0  0  0  0  0  0  0  0  0  0
   47.1490   33.4350   38.3820 S   0  0  0  0  0  0  0  0  0  0  0  0
   48.1610   32.1970   37.5850 C   0  0  0  0  0  0  0  0  0  0  0  0
   49.0480   32.5580   36.5650 C   0  0  0  0  0  0  0  0  0  0  0  0
   49.2930   33.5180   36.0920 H   0  0  0  0  0  0  0  0  0  0  0  0
   49.7040   31.4010   36.1260 C   0  0  0  0  0  0  0  0  0  0  0  0
   50.4500   31.2060   35.3790 H   0  0  0  0  0  0  0  0  0  0  0  0
   49.1910   30.3940   36.8930 N   0  0  0  0  0  0  0  0  0  0  0  0
   49.4290   29.3610   36.8710 H   0  0  0  0  0  0  0  0  0  0  0  0
   48.2820   30.8490   37.7560 N   0  0  0  0  0  0  0  0  0  0  0  0
  1  2  2  0  0  0  0
  1  6  1  0  0  0  0
  2  3  1  0  0  0  0
  3 17  1  0  0  0  0
  3  4  2  0  0  0  0
  5  4  1  0  0  0  0
  5  7  1  0  0  0  0
  6  5  2  0  0  0  0
  7  8  1  0  0  0  0
  7 15  1  0  0  0  0
  8  9  2  0  0  0  0
  9 10  1  0  0  0  0
 10 11  1  0  0  0  0
 11 12  2  0  0  0  0
 11 20  1  0  0  0  0
 13 19  1  0  0  0  0
 13 12  1  0  0  0  0
 14 13  2  0  0  0  0
 15 14  1  0  0  0  0
 15 10  2  0  0  0  0
 16  2  1  0  0  0  0
 18  8  1  0  0  0  0
 20 22  1  0  0  0  0
 20 21  1  0  0  0  0
 23  1  1  0  0  0  0
 24 31  2  0  0  0  0
 24 23  1  0  0  0  0
 25 24  1  0  0  0  0
 26 25  1  0  0  0  0
 27 25  2  0  0  0  0
 27 29  1  0  0  0  0
 28 27  1  0  0  0  0
 29 31  1  0  0  0  0
 30 29  1  0  0  0  0
M  END
>  <minimizedAffinity>
-5.34127331

>  <minimizedRMSD>
0.777509987

$$$$
