
 OpenBabel03252504223D

 31 34  0  0  0  0  0  0  0  0999 V2000
   46.9210   33.4240   39.1140 C   0  0  0  0  0  0  0  0  0  0  0  0
   48.2890   33.2240   39.2620 C   0  0  0  0  0  0  0  0  0  0  0  0
   48.8700   33.4880   40.5260 C   0  0  0  0  0  0  0  0  0  0  0  0
   48.0290   33.9230   41.5100 N   0  0  0  0  0  0  0  0  0  0  0  0
   46.7000   34.1030   41.3160 C   0  0  0  0  0  0  0  0  0  0  0  0
   46.1600   33.8520   40.1230 N   0  0  0  0  0  0  0  0  0  0  0  0
   45.9260   34.5620   42.4180 N   0  0  0  0  0  0  0  0  0  0  0  0
   44.9820   35.5360   42.3680 C   0  0  0  0  0  0  0  0  0  0  0  0
   44.4710   35.6880   43.6240 N   0  0  0  0  0  0  0  0  0  0  0  0
   45.1090   34.8130   44.4080 C   0  0  0  0  0  0  0  0  0  0  0  0
   45.0360   34.5010   45.7420 C   0  0  0  0  0  0  0  0  0  0  0  0
   45.7960   33.5650   46.3000 N   0  0  0  0  0  0  0  0  0  0  0  0
   46.7010   32.8530   45.5900 C   0  0  0  0  0  0  0  0  0  0  0  0
   46.7620   33.1730   44.2760 N   0  0  0  0  0  0  0  0  0  0  0  0
   46.0300   34.0930   43.6670 C   0  0  0  0  0  0  0  0  0  0  0  0
   48.9840   32.8810   38.5050 H   0  0  0  0  0  0  0  0  0  0  0  0
   49.9150   33.3500   40.6900 H   0  0  0  0  0  0  0  0  0  0  0  0
   44.6460   36.1250   41.5150 H   0  0  0  0  0  0  0  0  0  0  0  0
   47.3220   32.0910   46.0390 H   0  0  0  0  0  0  0  0  0  0  0  0
   44.1470   35.1510   46.6230 N   0  0  0  0  0  0  0  0  0  0  0  0
   43.3730   34.7260   47.2010 H   0  0  0  0  0  0  0  0  0  0  0  0
   44.3350   36.1900   46.6640 H   0  0  0  0  0  0  0  0  0  0  0  0
   46.2710   33.0680   37.4610 S   0  0  0  0  0  0  0  0  0  0  0  0
   47.6270   32.5150   36.4380 C   0  0  0  0  0  0  0  0  0  0  0  0
   47.8420   31.1480   36.2290 C   0  0  0  0  0  0  0  0  0  0  0  0
   47.3230   30.2460   36.5800 H   0  0  0  0  0  0  0  0  0  0  0  0
   48.9590   31.0030   35.3970 C   0  0  0  0  0  0  0  0  0  0  0  0
   49.4770   30.1570   34.9840 H   0  0  0  0  0  0  0  0  0  0  0  0
   49.3720   32.2790   35.1390 N   0  0  0  0  0  0  0  0  0  0  0  0
   50.1910   32.6020   34.5450 H   0  0  0  0  0  0  0  0  0  0  0  0
   48.5970   33.1780   35.7450 N   0  0  0  0  0  0  0  0  0  0  0  0
  1  2  2  0  0  0  0
  1  6  1  0  0  0  0
  2  3  1  0  0  0  0
  3 17  1  0  0  0  0
  3  4  2  0  0  0  0
  5  4  1  0  0  0  0
  5  7  1  0  0  0  0
  6  5  2  0  0  0  0
  7 15  1  0  0  0  0
  8  7  1  0  0  0  0
  8  9  2  0  0  0  0
  9 10  1  0  0  0  0
 10 11  1  0  0  0  0
 11 12  2  0  0  0  0
 11 20  1  0  0  0  0
 13 19  1  0  0  0  0
 13 12  1  0  0  0  0
 14 13  2  0  0  0  0
 15 14  1  0  0  0  0
 15 10  2  0  0  0  0
 16  2  1  0  0  0  0
 18  8  1  0  0  0  0
 20 22  1  0  0  0  0
 20 21  1  0  0  0  0
 23  1  1  0  0  0  0
 24 23  1  0  0  0  0
 25 24  1  0  0  0  0
 25 26  1  0  0  0  0
 27 25  2  0  0  0  0
 28 27  1  0  0  0  0
 29 27  1  0  0  0  0
 29 31  1  0  0  0  0
 30 29  1  0  0  0  0
 31 24  2  0  0  0  0
M  END
>  <minimizedAffinity>
-5.98024797

>  <minimizedRMSD>
1.33265781

$$$$
