
 OpenBabel03242519263D

 39 42  0  0  0  0  0  0  0  0999 V2000
   37.0770   28.3030   41.5720 C   0  0  0  0  0  0  0  0  0  0  0  0
   35.8120   28.7240   41.1260 C   0  0  0  0  0  0  0  0  0  0  0  0
   35.6780   29.9280   40.4100 C   0  0  0  0  0  0  0  0  0  0  0  0
   36.8370   30.6290   40.1950 N   0  0  0  0  0  0  0  0  0  0  0  0
   38.0520   30.1870   40.6460 C   0  0  0  0  0  0  0  0  0  0  0  0
   38.1580   29.0460   41.3200 N   0  0  0  0  0  0  0  0  0  0  0  0
   34.8610   28.2300   41.2560 H   0  0  0  0  0  0  0  0  0  0  0  0
   34.7390   30.2980   40.0460 H   0  0  0  0  0  0  0  0  0  0  0  0
   37.0940   27.0290   42.3140 C   0  0  0  0  0  0  0  0  0  0  0  0
   38.2450   26.8830   43.2050 C   0  0  0  0  0  0  0  0  0  0  0  0
   39.2170   25.8370   42.8030 C   0  0  0  0  0  0  0  0  0  0  0  0
   38.5700   24.4820   42.5350 C   0  0  0  0  0  0  0  0  0  0  0  0
   37.2010   24.5660   41.9220 C   0  0  0  0  0  0  0  0  0  0  0  0
   37.0060   25.9160   41.2560 C   0  0  0  0  0  0  0  0  0  0  0  0
   36.1120   26.9220   42.8660 H   0  0  0  0  0  0  0  0  0  0  0  0
   38.7850   27.8310   43.2950 H   0  0  0  0  0  0  0  0  0  0  0  0
   37.8900   26.6430   44.2400 H   0  0  0  0  0  0  0  0  0  0  0  0
   39.8560   25.6440   43.7160 H   0  0  0  0  0  0  0  0  0  0  0  0
   39.9250   26.0810   42.0160 H   0  0  0  0  0  0  0  0  0  0  0  0
   38.5330   23.8390   43.4370 H   0  0  0  0  0  0  0  0  0  0  0  0
   39.2130   23.9430   41.8010 H   0  0  0  0  0  0  0  0  0  0  0  0
   36.9940   23.7860   41.1750 H   0  0  0  0  0  0  0  0  0  0  0  0
   36.4680   24.5400   42.7760 H   0  0  0  0  0  0  0  0  0  0  0  0
   36.0080   25.9850   40.8170 H   0  0  0  0  0  0  0  0  0  0  0  0
   37.7700   26.0550   40.4810 H   0  0  0  0  0  0  0  0  0  0  0  0
   39.1820   31.0590   40.3340 C   0  0  0  0  0  0  0  0  0  0  0  0
   40.0450   31.3470   41.3440 N   0  0  0  0  0  0  0  0  0  0  0  0
   41.0150   32.1540   40.8750 C   0  0  0  0  0  0  0  0  0  0  0  0
   40.7420   32.3680   39.5460 N   0  0  0  0  0  0  0  0  0  0  0  0
   39.6280   31.6990   39.2290 N   0  0  0  0  0  0  0  0  0  0  0  0
   41.8700   32.5890   41.3780 H   0  0  0  0  0  0  0  0  0  0  0  0
   41.4400   33.1390   38.5760 C   0  0  0  0  0  0  0  0  0  0  0  0
   41.8360   34.4260   38.8730 C   0  0  0  0  0  0  0  0  0  0  0  0
   41.7180   35.0240   39.7690 H   0  0  0  0  0  0  0  0  0  0  0  0
   42.4850   34.9070   37.7320 C   0  0  0  0  0  0  0  0  0  0  0  0
   42.9300   35.8870   37.6020 H   0  0  0  0  0  0  0  0  0  0  0  0
   42.4630   33.9160   36.7930 N   0  0  0  0  0  0  0  0  0  0  0  0
   42.8820   34.0120   35.8400 H   0  0  0  0  0  0  0  0  0  0  0  0
   41.8400   32.8670   37.3010 N   0  0  0  0  0  0  0  0  0  0  0  0
  1  9  1  0  0  0  0
  2  7  1  0  0  0  0
  2  1  2  0  0  0  0
  3  2  1  0  0  0  0
  4  3  2  0  0  0  0
  4  5  1  0  0  0  0
  5  6  2  0  0  0  0
  6  1  1  0  0  0  0
  8  3  1  0  0  0  0
  9 15  1  0  0  0  0
  9 10  1  0  0  0  0
 10 16  1  0  0  0  0
 10 17  1  0  0  0  0
 11 10  1  0  0  0  0
 11 18  1  0  0  0  0
 12 11  1  0  0  0  0
 12 20  1  0  0  0  0
 13 12  1  0  0  0  0
 13 23  1  0  0  0  0
 14 13  1  0  0  0  0
 14  9  1  0  0  0  0
 19 11  1  0  0  0  0
 21 12  1  0  0  0  0
 22 13  1  0  0  0  0
 24 14  1  0  0  0  0
 25 14  1  0  0  0  0
 26  5  1  0  0  0  0
 26 27  1  0  0  0  0
 28 27  2  0  0  0  0
 28 31  1  0  0  0  0
 29 28  1  0  0  0  0
 30 29  1  0  0  0  0
 30 26  2  0  0  0  0
 32 33  1  0  0  0  0
 32 29  1  0  0  0  0
 33 34  1  0  0  0  0
 35 33  2  0  0  0  0
 36 35  1  0  0  0  0
 37 39  1  0  0  0  0
 37 35  1  0  0  0  0
 38 37  1  0  0  0  0
 39 32  2  0  0  0  0
M  END
>  <minimizedAffinity>
-6.48976946

$$$$

 OpenBabel03242519263D

 39 42  0  0  0  0  0  0  0  0999 V2000
   32.6220   29.2940   36.4920 C   0  0  0  0  0  0  0  0  0  0  0  0
   33.3130   29.2860   35.2680 C   0  0  0  0  0  0  0  0  0  0  0  0
   34.6700   28.9190   35.2220 C   0  0  0  0  0  0  0  0  0  0  0  0
   35.2400   28.5840   36.4240 N   0  0  0  0  0  0  0  0  0  0  0  0
   34.5340   28.6040   37.5980 C   0  0  0  0  0  0  0  0  0  0  0  0
   33.2520   28.9540   37.6200 N   0  0  0  0  0  0  0  0  0  0  0  0
   32.9350   29.5360   34.2880 H   0  0  0  0  0  0  0  0  0  0  0  0
   35.2460   28.8950   34.3170 H   0  0  0  0  0  0  0  0  0  0  0  0
   31.2060   29.7010   36.4170 C   0  0  0  0  0  0  0  0  0  0  0  0
   30.9560   30.7860   35.4680 C   0  0  0  0  0  0  0  0  0  0  0  0
   30.5510   32.0730   36.0840 C   0  0  0  0  0  0  0  0  0  0  0  0
   29.3880   31.9360   37.0610 C   0  0  0  0  0  0  0  0  0  0  0  0
   29.3910   30.6520   37.8420 C   0  0  0  0  0  0  0  0  0  0  0  0
   30.7840   30.0490   37.8550 C   0  0  0  0  0  0  0  0  0  0  0  0
   30.5820   28.7860   36.1910 H   0  0  0  0  0  0  0  0  0  0  0  0
   31.8420   30.9700   34.8510 H   0  0  0  0  0  0  0  0  0  0  0  0
   30.1520   30.4790   34.7510 H   0  0  0  0  0  0  0  0  0  0  0  0
   30.1130   32.6920   35.2450 H   0  0  0  0  0  0  0  0  0  0  0  0
   31.3310   32.6970   36.5100 H   0  0  0  0  0  0  0  0  0  0  0  0
   28.4020   32.0710   36.5750 H   0  0  0  0  0  0  0  0  0  0  0  0
   29.4760   32.7590   37.8070 H   0  0  0  0  0  0  0  0  0  0  0  0
   29.0580   30.7590   38.8850 H   0  0  0  0  0  0  0  0  0  0  0  0
   28.7510   29.9270   37.2650 H   0  0  0  0  0  0  0  0  0  0  0  0
   30.7890   29.1100   38.4130 H   0  0  0  0  0  0  0  0  0  0  0  0
   31.4860   30.7600   38.3050 H   0  0  0  0  0  0  0  0  0  0  0  0
   35.2980   28.2240   38.7840 C   0  0  0  0  0  0  0  0  0  0  0  0
   35.9890   27.0540   38.7320 N   0  0  0  0  0  0  0  0  0  0  0  0
   36.6280   26.8700   39.9030 C   0  0  0  0  0  0  0  0  0  0  0  0
   36.3230   27.9510   40.6930 N   0  0  0  0  0  0  0  0  0  0  0  0
   35.5150   28.7660   40.0040 N   0  0  0  0  0  0  0  0  0  0  0  0
   37.2690   26.0620   40.2320 H   0  0  0  0  0  0  0  0  0  0  0  0
   36.7280   28.2650   42.0190 C   0  0  0  0  0  0  0  0  0  0  0  0
   36.6480   27.3090   43.0100 C   0  0  0  0  0  0  0  0  0  0  0  0
   36.3140   26.2780   42.9860 H   0  0  0  0  0  0  0  0  0  0  0  0
   37.1120   27.9190   44.1790 C   0  0  0  0  0  0  0  0  0  0  0  0
   37.1920   27.4650   45.1600 H   0  0  0  0  0  0  0  0  0  0  0  0
   37.4530   29.2040   43.8690 N   0  0  0  0  0  0  0  0  0  0  0  0
   37.8310   29.8860   44.5650 H   0  0  0  0  0  0  0  0  0  0  0  0
   37.2220   29.4050   42.5830 N   0  0  0  0  0  0  0  0  0  0  0  0
  1  6  1  0  0  0  0
  2  1  2  0  0  0  0
  3  2  1  0  0  0  0
  3  4  2  0  0  0  0
  4  5  1  0  0  0  0
  5  6  2  0  0  0  0
  5 26  1  0  0  0  0
  7  2  1  0  0  0  0
  8  3  1  0  0  0  0
  9  1  1  0  0  0  0
  9 14  1  0  0  0  0
 10 11  1  0  0  0  0
 10  9  1  0  0  0  0
 11 19  1  0  0  0  0
 11 12  1  0  0  0  0
 12 21  1  0  0  0  0
 12 13  1  0  0  0  0
 13 14  1  0  0  0  0
 13 22  1  0  0  0  0
 14 25  1  0  0  0  0
 14 24  1  0  0  0  0
 15  9  1  0  0  0  0
 16 10  1  0  0  0  0
 17 10  1  0  0  0  0
 18 11  1  0  0  0  0
 20 12  1  0  0  0  0
 23 13  1  0  0  0  0
 26 30  2  0  0  0  0
 27 26  1  0  0  0  0
 27 28  2  0  0  0  0
 28 31  1  0  0  0  0
 28 29  1  0  0  0  0
 29 32  1  0  0  0  0
 30 29  1  0  0  0  0
 32 39  2  0  0  0  0
 32 33  1  0  0  0  0
 33 35  2  0  0  0  0
 34 33  1  0  0  0  0
 35 36  1  0  0  0  0
 37 35  1  0  0  0  0
 37 38  1  0  0  0  0
 39 37  1  0  0  0  0
M  END
>  <minimizedAffinity>
-6.36173058

$$$$

 OpenBabel03242519263D

 39 42  0  0  0  0  0  0  0  0999 V2000
   37.3040   26.7050   42.1480 C   0  0  0  0  0  0  0  0  0  0  0  0
   37.0280   27.1450   43.4540 C   0  0  0  0  0  0  0  0  0  0  0  0
   37.2920   28.4770   43.8230 C   0  0  0  0  0  0  0  0  0  0  0  0
   37.8210   29.2760   42.8420 N   0  0  0  0  0  0  0  0  0  0  0  0
   38.0770   28.8110   41.5800 C   0  0  0  0  0  0  0  0  0  0  0  0
   37.8200   27.5490   41.2500 N   0  0  0  0  0  0  0  0  0  0  0  0
   36.6140   26.5790   44.2740 H   0  0  0  0  0  0  0  0  0  0  0  0
   37.1010   28.8670   44.8040 H   0  0  0  0  0  0  0  0  0  0  0  0
   36.9910   25.2890   41.8780 C   0  0  0  0  0  0  0  0  0  0  0  0
   38.0340   24.3620   42.3170 C   0  0  0  0  0  0  0  0  0  0  0  0
   38.7540   23.6690   41.2210 C   0  0  0  0  0  0  0  0  0  0  0  0
   37.8250   22.9950   40.2180 C   0  0  0  0  0  0  0  0  0  0  0  0
   36.5410   23.7380   39.9740 C   0  0  0  0  0  0  0  0  0  0  0  0
   36.6960   25.1950   40.3710 C   0  0  0  0  0  0  0  0  0  0  0  0
   35.9870   25.0490   42.3410 H   0  0  0  0  0  0  0  0  0  0  0  0
   38.7750   24.8810   42.9340 H   0  0  0  0  0  0  0  0  0  0  0  0
   37.5860   23.5810   42.9820 H   0  0  0  0  0  0  0  0  0  0  0  0
   39.2890   22.7980   41.7060 H   0  0  0  0  0  0  0  0  0  0  0  0
   39.5350   24.2190   40.7030 H   0  0  0  0  0  0  0  0  0  0  0  0
   37.5980   21.9430   40.4840 H   0  0  0  0  0  0  0  0  0  0  0  0
   38.3570   22.9540   39.2400 H   0  0  0  0  0  0  0  0  0  0  0  0
   36.1940   23.7050   38.9310 H   0  0  0  0  0  0  0  0  0  0  0  0
   35.7840   23.3080   40.6870 H   0  0  0  0  0  0  0  0  0  0  0  0
   35.7630   25.7380   40.2050 H   0  0  0  0  0  0  0  0  0  0  0  0
   37.5070   25.6490   39.7880 H   0  0  0  0  0  0  0  0  0  0  0  0
   38.6460   29.7950   40.6620 C   0  0  0  0  0  0  0  0  0  0  0  0
   38.7400   29.4450   39.3520 N   0  0  0  0  0  0  0  0  0  0  0  0
   39.2800   30.4670   38.6620 C   0  0  0  0  0  0  0  0  0  0  0  0
   39.5240   31.4690   39.5690 N   0  0  0  0  0  0  0  0  0  0  0  0
   39.1350   31.0510   40.7790 N   0  0  0  0  0  0  0  0  0  0  0  0
   39.5080   30.5580   37.6080 H   0  0  0  0  0  0  0  0  0  0  0  0
   40.0830   32.7640   39.3820 C   0  0  0  0  0  0  0  0  0  0  0  0
   41.2440   32.9140   38.6520 C   0  0  0  0  0  0  0  0  0  0  0  0
   41.8720   32.1900   38.1470 H   0  0  0  0  0  0  0  0  0  0  0  0
   41.5290   34.2830   38.6530 C   0  0  0  0  0  0  0  0  0  0  0  0
   42.3710   34.7710   38.1740 H   0  0  0  0  0  0  0  0  0  0  0  0
   40.5510   34.9100   39.3700 N   0  0  0  0  0  0  0  0  0  0  0  0
   40.5230   35.9430   39.5290 H   0  0  0  0  0  0  0  0  0  0  0  0
   39.6940   34.0020   39.8010 N   0  0  0  0  0  0  0  0  0  0  0  0
  1  2  1  0  0  0  0
  2  3  2  0  0  0  0
  2  7  1  0  0  0  0
  3  8  1  0  0  0  0
  4  3  1  0  0  0  0
  5  4  2  0  0  0  0
  6  5  1  0  0  0  0
  6  1  2  0  0  0  0
  9  1  1  0  0  0  0
  9 10  1  0  0  0  0
  9 15  1  0  0  0  0
 10 16  1  0  0  0  0
 10 17  1  0  0  0  0
 11 18  1  0  0  0  0
 11 10  1  0  0  0  0
 12 20  1  0  0  0  0
 12 11  1  0  0  0  0
 13 12  1  0  0  0  0
 13 14  1  0  0  0  0
 13 23  1  0  0  0  0
 14  9  1  0  0  0  0
 19 11  1  0  0  0  0
 21 12  1  0  0  0  0
 22 13  1  0  0  0  0
 24 14  1  0  0  0  0
 25 14  1  0  0  0  0
 26 30  2  0  0  0  0
 26  5  1  0  0  0  0
 27 26  1  0  0  0  0
 28 27  2  0  0  0  0
 28 29  1  0  0  0  0
 29 30  1  0  0  0  0
 31 28  1  0  0  0  0
 32 29  1  0  0  0  0
 32 39  2  0  0  0  0
 33 35  2  0  0  0  0
 33 32  1  0  0  0  0
 34 33  1  0  0  0  0
 35 37  1  0  0  0  0
 36 35  1  0  0  0  0
 37 38  1  0  0  0  0
 37 39  1  0  0  0  0
M  END
>  <minimizedAffinity>
-5.96629858

$$$$

 OpenBabel03242519263D

 39 42  0  0  0  0  0  0  0  0999 V2000
   38.6910   25.9520   42.3840 C   0  0  0  0  0  0  0  0  0  0  0  0
   39.5890   25.7370   43.4430 C   0  0  0  0  0  0  0  0  0  0  0  0
   40.4690   26.7590   43.8440 C   0  0  0  0  0  0  0  0  0  0  0  0
   40.3810   27.9340   43.1420 N   0  0  0  0  0  0  0  0  0  0  0  0
   39.4920   28.1060   42.1150 C   0  0  0  0  0  0  0  0  0  0  0  0
   38.6680   27.1290   41.7510 N   0  0  0  0  0  0  0  0  0  0  0  0
   39.7170   24.8460   44.0390 H   0  0  0  0  0  0  0  0  0  0  0  0
   41.1750   26.6510   44.6450 H   0  0  0  0  0  0  0  0  0  0  0  0
   37.8220   24.8080   42.0500 C   0  0  0  0  0  0  0  0  0  0  0  0
   38.5560   23.5750   41.7670 C   0  0  0  0  0  0  0  0  0  0  0  0
   38.4890   23.1190   40.3580 C   0  0  0  0  0  0  0  0  0  0  0  0
   37.0660   23.0320   39.8170 C   0  0  0  0  0  0  0  0  0  0  0  0
   36.1410   24.0890   40.3490 C   0  0  0  0  0  0  0  0  0  0  0  0
   36.9400   25.2680   40.8760 C   0  0  0  0  0  0  0  0  0  0  0  0
   37.0700   24.6730   42.8840 H   0  0  0  0  0  0  0  0  0  0  0  0
   39.6120   23.6850   42.0370 H   0  0  0  0  0  0  0  0  0  0  0  0
   38.1670   22.7490   42.4150 H   0  0  0  0  0  0  0  0  0  0  0  0
   38.8300   22.0400   40.3660 H   0  0  0  0  0  0  0  0  0  0  0  0
   39.1380   23.6080   39.6360 H   0  0  0  0  0  0  0  0  0  0  0  0
   36.6110   22.0320   39.9680 H   0  0  0  0  0  0  0  0  0  0  0  0
   37.1150   23.1810   38.7140 H   0  0  0  0  0  0  0  0  0  0  0  0
   35.4210   24.4700   39.6110 H   0  0  0  0  0  0  0  0  0  0  0  0
   35.6310   23.6430   41.2490 H   0  0  0  0  0  0  0  0  0  0  0  0
   36.2730   26.0360   41.2730 H   0  0  0  0  0  0  0  0  0  0  0  0
   37.5550   25.6830   40.0680 H   0  0  0  0  0  0  0  0  0  0  0  0
   39.5350   29.4180   41.4730 C   0  0  0  0  0  0  0  0  0  0  0  0
   40.7080   29.7920   40.8950 N   0  0  0  0  0  0  0  0  0  0  0  0
   40.5610   31.0170   40.3570 C   0  0  0  0  0  0  0  0  0  0  0  0
   39.2690   31.4070   40.6100 N   0  0  0  0  0  0  0  0  0  0  0  0
   38.6560   30.4300   41.2880 N   0  0  0  0  0  0  0  0  0  0  0  0
   41.2690   31.6350   39.8200 H   0  0  0  0  0  0  0  0  0  0  0  0
   38.5860   32.6060   40.2680 C   0  0  0  0  0  0  0  0  0  0  0  0
   39.1770   33.8290   40.5050 C   0  0  0  0  0  0  0  0  0  0  0  0
   40.1380   34.0890   40.9340 H   0  0  0  0  0  0  0  0  0  0  0  0
   38.2670   34.7940   40.0660 C   0  0  0  0  0  0  0  0  0  0  0  0
   38.3950   35.8700   40.0950 H   0  0  0  0  0  0  0  0  0  0  0  0
   37.1690   34.1400   39.5840 N   0  0  0  0  0  0  0  0  0  0  0  0
   36.3320   34.6270   39.1900 H   0  0  0  0  0  0  0  0  0  0  0  0
   37.3640   32.8390   39.7070 N   0  0  0  0  0  0  0  0  0  0  0  0
  1  2  1  0  0  0  0
  2  3  2  0  0  0  0
  2  7  1  0  0  0  0
  3  8  1  0  0  0  0
  4  3  1  0  0  0  0
  5  4  2  0  0  0  0
  6  5  1  0  0  0  0
  6  1  2  0  0  0  0
  9  1  1  0  0  0  0
  9 15  1  0  0  0  0
 10 16  1  0  0  0  0
 10  9  1  0  0  0  0
 10 17  1  0  0  0  0
 11 18  1  0  0  0  0
 11 10  1  0  0  0  0
 12 20  1  0  0  0  0
 12 13  1  0  0  0  0
 12 11  1  0  0  0  0
 13 14  1  0  0  0  0
 13 23  1  0  0  0  0
 14 24  1  0  0  0  0
 14  9  1  0  0  0  0
 19 11  1  0  0  0  0
 21 12  1  0  0  0  0
 22 13  1  0  0  0  0
 25 14  1  0  0  0  0
 26  5  1  0  0  0  0
 27 26  1  0  0  0  0
 28 29  1  0  0  0  0
 28 27  2  0  0  0  0
 29 30  1  0  0  0  0
 30 26  2  0  0  0  0
 31 28  1  0  0  0  0
 32 33  1  0  0  0  0
 32 29  1  0  0  0  0
 33 34  1  0  0  0  0
 35 36  1  0  0  0  0
 35 33  2  0  0  0  0
 37 39  1  0  0  0  0
 37 35  1  0  0  0  0
 38 37  1  0  0  0  0
 39 32  2  0  0  0  0
M  END
>  <minimizedAffinity>
-5.76849985

$$$$

 OpenBabel03242519263D

 39 42  0  0  0  0  0  0  0  0999 V2000
   37.8950   24.9070   41.6330 C   0  0  0  0  0  0  0  0  0  0  0  0
   38.9450   24.7620   42.5560 C   0  0  0  0  0  0  0  0  0  0  0  0
   39.5490   25.8980   43.1250 C   0  0  0  0  0  0  0  0  0  0  0  0
   39.0480   27.1090   42.7200 N   0  0  0  0  0  0  0  0  0  0  0  0
   38.0240   27.2100   41.8170 C   0  0  0  0  0  0  0  0  0  0  0  0
   37.4650   26.1250   41.2910 N   0  0  0  0  0  0  0  0  0  0  0  0
   39.3900   23.8490   42.9220 H   0  0  0  0  0  0  0  0  0  0  0  0
   40.3540   25.8480   43.8340 H   0  0  0  0  0  0  0  0  0  0  0  0
   37.3430   23.6470   41.1010 C   0  0  0  0  0  0  0  0  0  0  0  0
   38.3500   22.7710   40.5010 C   0  0  0  0  0  0  0  0  0  0  0  0
   38.2400   22.6070   39.0320 C   0  0  0  0  0  0  0  0  0  0  0  0
   36.8420   22.2100   38.5710 C   0  0  0  0  0  0  0  0  0  0  0  0
   35.7320   22.8150   39.3840 C   0  0  0  0  0  0  0  0  0  0  0  0
   36.2320   24.0480   40.1160 C   0  0  0  0  0  0  0  0  0  0  0  0
   36.7670   23.1300   41.9250 H   0  0  0  0  0  0  0  0  0  0  0  0
   39.3590   23.1340   40.7270 H   0  0  0  0  0  0  0  0  0  0  0  0
   38.2890   21.7540   40.9670 H   0  0  0  0  0  0  0  0  0  0  0  0
   38.8650   21.7000   38.7750 H   0  0  0  0  0  0  0  0  0  0  0  0
   38.6340   23.4010   38.4030 H   0  0  0  0  0  0  0  0  0  0  0  0
   36.7040   21.1120   38.5180 H   0  0  0  0  0  0  0  0  0  0  0  0
   36.7110   22.5850   37.5300 H   0  0  0  0  0  0  0  0  0  0  0  0
   34.8490   23.1040   38.7950 H   0  0  0  0  0  0  0  0  0  0  0  0
   35.4810   22.0670   40.1870 H   0  0  0  0  0  0  0  0  0  0  0  0
   35.4310   24.4870   40.7160 H   0  0  0  0  0  0  0  0  0  0  0  0
   36.6030   24.7800   39.3880 H   0  0  0  0  0  0  0  0  0  0  0  0
   37.6180   28.5760   41.4930 C   0  0  0  0  0  0  0  0  0  0  0  0
   36.2840   28.8280   41.4140 N   0  0  0  0  0  0  0  0  0  0  0  0
   36.1010   30.1270   41.1110 C   0  0  0  0  0  0  0  0  0  0  0  0
   37.3500   30.6860   41.0020 N   0  0  0  0  0  0  0  0  0  0  0  0
   38.2630   29.7370   41.2350 N   0  0  0  0  0  0  0  0  0  0  0  0
   35.1880   30.6900   40.9660 H   0  0  0  0  0  0  0  0  0  0  0  0
   37.7380   32.0210   40.7000 C   0  0  0  0  0  0  0  0  0  0  0  0
   37.1660   32.6800   39.6310 C   0  0  0  0  0  0  0  0  0  0  0  0
   36.4190   32.3670   38.9120 H   0  0  0  0  0  0  0  0  0  0  0  0
   37.7490   33.9510   39.6010 C   0  0  0  0  0  0  0  0  0  0  0  0
   37.5400   34.7440   38.8920 H   0  0  0  0  0  0  0  0  0  0  0  0
   38.6400   34.0240   40.6330 N   0  0  0  0  0  0  0  0  0  0  0  0
   39.2170   34.8700   40.8400 H   0  0  0  0  0  0  0  0  0  0  0  0
   38.6290   32.8730   41.2830 N   0  0  0  0  0  0  0  0  0  0  0  0
  1  2  1  0  0  0  0
  2  7  1  0  0  0  0
  2  3  2  0  0  0  0
  3  8  1  0  0  0  0
  4  3  1  0  0  0  0
  5  4  2  0  0  0  0
  6  1  2  0  0  0  0
  6  5  1  0  0  0  0
  9  1  1  0  0  0  0
  9 15  1  0  0  0  0
 10 16  1  0  0  0  0
 10 17  1  0  0  0  0
 10  9  1  0  0  0  0
 11 10  1  0  0  0  0
 12 11  1  0  0  0  0
 12 13  1  0  0  0  0
 13 14  1  0  0  0  0
 13 23  1  0  0  0  0
 14 24  1  0  0  0  0
 14  9  1  0  0  0  0
 18 11  1  0  0  0  0
 19 11  1  0  0  0  0
 20 12  1  0  0  0  0
 21 12  1  0  0  0  0
 22 13  1  0  0  0  0
 25 14  1  0  0  0  0
 26  5  1  0  0  0  0
 27 26  1  0  0  0  0
 28 27  2  0  0  0  0
 29 28  1  0  0  0  0
 29 30  1  0  0  0  0
 30 26  2  0  0  0  0
 31 28  1  0  0  0  0
 32 29  1  0  0  0  0
 32 39  2  0  0  0  0
 33 32  1  0  0  0  0
 34 33  1  0  0  0  0
 35 33  2  0  0  0  0
 35 37  1  0  0  0  0
 36 35  1  0  0  0  0
 37 38  1  0  0  0  0
 37 39  1  0  0  0  0
M  END
>  <minimizedAffinity>
-5.71511793

$$$$

 OpenBabel03242519263D

 39 42  0  0  0  0  0  0  0  0999 V2000
   37.2020   28.1480   41.6330 C   0  0  0  0  0  0  0  0  0  0  0  0
   37.2610   29.3890   42.2890 C   0  0  0  0  0  0  0  0  0  0  0  0
   36.9920   30.5770   41.5850 C   0  0  0  0  0  0  0  0  0  0  0  0
   36.6810   30.4280   40.2580 N   0  0  0  0  0  0  0  0  0  0  0  0
   36.6340   29.2010   39.6520 C   0  0  0  0  0  0  0  0  0  0  0  0
   36.8900   28.0900   40.3350 N   0  0  0  0  0  0  0  0  0  0  0  0
   37.4970   29.5850   43.3240 H   0  0  0  0  0  0  0  0  0  0  0  0
   37.0230   31.5510   42.0340 H   0  0  0  0  0  0  0  0  0  0  0  0
   37.5070   26.9740   42.4720 C   0  0  0  0  0  0  0  0  0  0  0  0
   38.2460   27.2990   43.6920 C   0  0  0  0  0  0  0  0  0  0  0  0
   39.6400   26.7940   43.7300 C   0  0  0  0  0  0  0  0  0  0  0  0
   39.7530   25.3070   43.4150 C   0  0  0  0  0  0  0  0  0  0  0  0
   38.7640   24.8180   42.3950 C   0  0  0  0  0  0  0  0  0  0  0  0
   38.2510   25.9800   41.5630 C   0  0  0  0  0  0  0  0  0  0  0  0
   36.5400   26.4290   42.6920 H   0  0  0  0  0  0  0  0  0  0  0  0
   38.2740   28.3830   43.8470 H   0  0  0  0  0  0  0  0  0  0  0  0
   37.7050   26.8840   44.5800 H   0  0  0  0  0  0  0  0  0  0  0  0
   39.9600   26.8550   44.8130 H   0  0  0  0  0  0  0  0  0  0  0  0
   40.3960   27.3540   43.1870 H   0  0  0  0  0  0  0  0  0  0  0  0
   39.6940   24.6710   44.3210 H   0  0  0  0  0  0  0  0  0  0  0  0
   40.7650   25.1300   42.9830 H   0  0  0  0  0  0  0  0  0  0  0  0
   39.1640   24.0590   41.7070 H   0  0  0  0  0  0  0  0  0  0  0  0
   37.8720   24.4400   42.9710 H   0  0  0  0  0  0  0  0  0  0  0  0
   37.5240   25.6320   40.8260 H   0  0  0  0  0  0  0  0  0  0  0  0
   39.0940   26.4700   41.0600 H   0  0  0  0  0  0  0  0  0  0  0  0
   36.2910   29.2250   38.2320 C   0  0  0  0  0  0  0  0  0  0  0  0
   35.2390   28.4630   37.8300 N   0  0  0  0  0  0  0  0  0  0  0  0
   35.0710   28.6110   36.5030 C   0  0  0  0  0  0  0  0  0  0  0  0
   36.0430   29.4840   36.0770 N   0  0  0  0  0  0  0  0  0  0  0  0
   36.7770   29.8500   37.1340 N   0  0  0  0  0  0  0  0  0  0  0  0
   34.3440   28.1680   35.8350 H   0  0  0  0  0  0  0  0  0  0  0  0
   36.3230   29.9870   34.7770 C   0  0  0  0  0  0  0  0  0  0  0  0
   36.3940   29.1240   33.7040 C   0  0  0  0  0  0  0  0  0  0  0  0
   36.2700   28.0490   33.6390 H   0  0  0  0  0  0  0  0  0  0  0  0
   36.6800   29.9130   32.5870 C   0  0  0  0  0  0  0  0  0  0  0  0
   36.8080   29.5730   31.5660 H   0  0  0  0  0  0  0  0  0  0  0  0
   36.7710   31.2090   33.0070 N   0  0  0  0  0  0  0  0  0  0  0  0
   36.9780   32.0110   32.3690 H   0  0  0  0  0  0  0  0  0  0  0  0
   36.5580   31.2470   34.3110 N   0  0  0  0  0  0  0  0  0  0  0  0
  1  2  1  0  0  0  0
  1  9  1  0  0  0  0
  2  7  1  0  0  0  0
  3  8  1  0  0  0  0
  3  2  2  0  0  0  0
  4  3  1  0  0  0  0
  5  4  2  0  0  0  0
  5  6  1  0  0  0  0
  6  1  2  0  0  0  0
  9 15  1  0  0  0  0
  9 10  1  0  0  0  0
 10 11  1  0  0  0  0
 10 16  1  0  0  0  0
 10 17  1  0  0  0  0
 11 18  1  0  0  0  0
 12 11  1  0  0  0  0
 12 20  1  0  0  0  0
 13 23  1  0  0  0  0
 13 12  1  0  0  0  0
 14 13  1  0  0  0  0
 14  9  1  0  0  0  0
 19 11  1  0  0  0  0
 21 12  1  0  0  0  0
 22 13  1  0  0  0  0
 24 14  1  0  0  0  0
 25 14  1  0  0  0  0
 26  5  1  0  0  0  0
 27 26  1  0  0  0  0
 28 27  2  0  0  0  0
 29 28  1  0  0  0  0
 29 30  1  0  0  0  0
 30 26  2  0  0  0  0
 31 28  1  0  0  0  0
 32 29  1  0  0  0  0
 33 32  1  0  0  0  0
 34 33  1  0  0  0  0
 35 37  1  0  0  0  0
 35 33  2  0  0  0  0
 36 35  1  0  0  0  0
 37 39  1  0  0  0  0
 38 37  1  0  0  0  0
 39 32  2  0  0  0  0
M  END
>  <minimizedAffinity>
-5.68805122

$$$$

 OpenBabel03242519263D

 39 42  0  0  0  0  0  0  0  0999 V2000
   37.8160   27.6530   41.5450 C   0  0  0  0  0  0  0  0  0  0  0  0
   37.5760   28.2420   42.7980 C   0  0  0  0  0  0  0  0  0  0  0  0
   38.2910   29.3880   43.1920 C   0  0  0  0  0  0  0  0  0  0  0  0
   39.2050   29.8620   42.2870 N   0  0  0  0  0  0  0  0  0  0  0  0
   39.4130   29.2610   41.0740 C   0  0  0  0  0  0  0  0  0  0  0  0
   38.7260   28.1790   40.7200 N   0  0  0  0  0  0  0  0  0  0  0  0
   36.8770   27.9280   43.5590 H   0  0  0  0  0  0  0  0  0  0  0  0
   38.1490   29.8780   44.1360 H   0  0  0  0  0  0  0  0  0  0  0  0
   37.0110   26.4550   41.2440 C   0  0  0  0  0  0  0  0  0  0  0  0
   37.0670   25.4310   42.2880 C   0  0  0  0  0  0  0  0  0  0  0  0
   37.7670   24.1820   41.9000 C   0  0  0  0  0  0  0  0  0  0  0  0
   37.2590   23.5860   40.5920 C   0  0  0  0  0  0  0  0  0  0  0  0
   36.8430   24.6080   39.5720 C   0  0  0  0  0  0  0  0  0  0  0  0
   37.4940   25.9460   39.8750 C   0  0  0  0  0  0  0  0  0  0  0  0
   35.9500   26.7800   41.0260 H   0  0  0  0  0  0  0  0  0  0  0  0
   37.5520   25.8250   43.1870 H   0  0  0  0  0  0  0  0  0  0  0  0
   36.0280   25.1600   42.6050 H   0  0  0  0  0  0  0  0  0  0  0  0
   37.4680   23.4100   42.6710 H   0  0  0  0  0  0  0  0  0  0  0  0
   38.8530   24.1840   41.9180 H   0  0  0  0  0  0  0  0  0  0  0  0
   36.4360   22.8590   40.7430 H   0  0  0  0  0  0  0  0  0  0  0  0
   38.0960   23.0090   40.1370 H   0  0  0  0  0  0  0  0  0  0  0  0
   37.0920   24.3370   38.5360 H   0  0  0  0  0  0  0  0  0  0  0  0
   35.7380   24.7690   39.7140 H   0  0  0  0  0  0  0  0  0  0  0  0
   37.1880   26.6960   39.1420 H   0  0  0  0  0  0  0  0  0  0  0  0
   38.5850   25.8320   39.8660 H   0  0  0  0  0  0  0  0  0  0  0  0
   40.4280   29.8940   40.2360 C   0  0  0  0  0  0  0  0  0  0  0  0
   41.5370   29.1650   39.9410 N   0  0  0  0  0  0  0  0  0  0  0  0
   42.3530   29.9020   39.1640 C   0  0  0  0  0  0  0  0  0  0  0  0
   41.7320   31.1130   38.9770 N   0  0  0  0  0  0  0  0  0  0  0  0
   40.5650   31.0970   39.6320 N   0  0  0  0  0  0  0  0  0  0  0  0
   43.3170   29.6620   38.7350 H   0  0  0  0  0  0  0  0  0  0  0  0
   42.1490   32.2570   38.2430 C   0  0  0  0  0  0  0  0  0  0  0  0
   43.4270   32.7490   38.4000 C   0  0  0  0  0  0  0  0  0  0  0  0
   44.2520   32.4170   39.0190 H   0  0  0  0  0  0  0  0  0  0  0  0
   43.5240   33.8600   37.5570 C   0  0  0  0  0  0  0  0  0  0  0  0
   44.3890   34.4980   37.4190 H   0  0  0  0  0  0  0  0  0  0  0  0
   42.3230   34.0060   36.9240 N   0  0  0  0  0  0  0  0  0  0  0  0
   42.1210   34.7640   36.2330 H   0  0  0  0  0  0  0  0  0  0  0  0
   41.5080   33.0500   37.3370 N   0  0  0  0  0  0  0  0  0  0  0  0
  1  2  1  0  0  0  0
  2  3  2  0  0  0  0
  2  7  1  0  0  0  0
  3  8  1  0  0  0  0
  4  3  1  0  0  0  0
  5  4  2  0  0  0  0
  6  5  1  0  0  0  0
  6  1  2  0  0  0  0
  9  1  1  0  0  0  0
  9 10  1  0  0  0  0
 10 17  1  0  0  0  0
 10 16  1  0  0  0  0
 11 19  1  0  0  0  0
 11 10  1  0  0  0  0
 11 18  1  0  0  0  0
 12 20  1  0  0  0  0
 12 11  1  0  0  0  0
 13 23  1  0  0  0  0
 13 14  1  0  0  0  0
 13 12  1  0  0  0  0
 14  9  1  0  0  0  0
 15  9  1  0  0  0  0
 21 12  1  0  0  0  0
 22 13  1  0  0  0  0
 24 14  1  0  0  0  0
 25 14  1  0  0  0  0
 26  5  1  0  0  0  0
 27 26  1  0  0  0  0
 28 27  2  0  0  0  0
 29 28  1  0  0  0  0
 29 30  1  0  0  0  0
 30 26  2  0  0  0  0
 31 28  1  0  0  0  0
 32 33  1  0  0  0  0
 32 29  1  0  0  0  0
 33 34  1  0  0  0  0
 35 33  2  0  0  0  0
 36 35  1  0  0  0  0
 37 39  1  0  0  0  0
 37 35  1  0  0  0  0
 38 37  1  0  0  0  0
 39 32  2  0  0  0  0
M  END
>  <minimizedAffinity>
-5.62090063

$$$$

 OpenBabel03242519263D

 39 42  0  0  0  0  0  0  0  0999 V2000
   39.8620   26.6900   43.1700 C   0  0  0  0  0  0  0  0  0  0  0  0
   41.0450   26.4490   43.8900 C   0  0  0  0  0  0  0  0  0  0  0  0
   42.0280   27.4510   43.9930 C   0  0  0  0  0  0  0  0  0  0  0  0
   41.7470   28.6320   43.3560 N   0  0  0  0  0  0  0  0  0  0  0  0
   40.5820   28.8300   42.6630 C   0  0  0  0  0  0  0  0  0  0  0  0
   39.6650   27.8720   42.5780 N   0  0  0  0  0  0  0  0  0  0  0  0
   41.3350   25.5520   44.4140 H   0  0  0  0  0  0  0  0  0  0  0  0
   42.9490   27.3230   44.5280 H   0  0  0  0  0  0  0  0  0  0  0  0
   38.9070   25.5660   43.1290 C   0  0  0  0  0  0  0  0  0  0  0  0
   39.4740   24.3340   42.5810 C   0  0  0  0  0  0  0  0  0  0  0  0
   38.9190   23.9200   41.2700 C   0  0  0  0  0  0  0  0  0  0  0  0
   37.3950   23.8650   41.2490 C   0  0  0  0  0  0  0  0  0  0  0  0
   36.7310   24.9170   42.0910 C   0  0  0  0  0  0  0  0  0  0  0  0
   37.6870   26.0700   42.3390 C   0  0  0  0  0  0  0  0  0  0  0  0
   38.4840   25.4160   44.1660 H   0  0  0  0  0  0  0  0  0  0  0  0
   40.5610   24.4240   42.4760 H   0  0  0  0  0  0  0  0  0  0  0  0
   39.3140   23.4940   43.3040 H   0  0  0  0  0  0  0  0  0  0  0  0
   39.2200   22.8370   41.1360 H   0  0  0  0  0  0  0  0  0  0  0  0
   39.2920   24.4220   40.3820 H   0  0  0  0  0  0  0  0  0  0  0  0
   36.9990   22.8670   41.5230 H   0  0  0  0  0  0  0  0  0  0  0  0
   37.0660   24.0460   40.2000 H   0  0  0  0  0  0  0  0  0  0  0  0
   35.8090   25.3270   41.6540 H   0  0  0  0  0  0  0  0  0  0  0  0
   36.5510   24.4500   43.1000 H   0  0  0  0  0  0  0  0  0  0  0  0
   37.2120   26.8340   42.9600 H   0  0  0  0  0  0  0  0  0  0  0  0
   37.9960   26.5020   41.3790 H   0  0  0  0  0  0  0  0  0  0  0  0
   40.4480   30.1450   42.0420 C   0  0  0  0  0  0  0  0  0  0  0  0
   39.1960   30.6670   41.9500 N   0  0  0  0  0  0  0  0  0  0  0  0
   39.2660   31.8740   41.3570 C   0  0  0  0  0  0  0  0  0  0  0  0
   40.5920   32.1000   41.0780 N   0  0  0  0  0  0  0  0  0  0  0  0
   41.3000   31.0450   41.4970 N   0  0  0  0  0  0  0  0  0  0  0  0
   38.4840   32.5820   41.1150 H   0  0  0  0  0  0  0  0  0  0  0  0
   41.2260   33.2130   40.4590 C   0  0  0  0  0  0  0  0  0  0  0  0
   40.7180   33.7300   39.2850 C   0  0  0  0  0  0  0  0  0  0  0  0
   39.8640   33.4420   38.6850 H   0  0  0  0  0  0  0  0  0  0  0  0
   41.5510   34.7980   38.9390 C   0  0  0  0  0  0  0  0  0  0  0  0
   41.4560   35.4410   38.0710 H   0  0  0  0  0  0  0  0  0  0  0  0
   42.5210   34.8950   39.8950 N   0  0  0  0  0  0  0  0  0  0  0  0
   43.2800   35.6140   39.8780 H   0  0  0  0  0  0  0  0  0  0  0  0
   42.3230   33.9490   40.7960 N   0  0  0  0  0  0  0  0  0  0  0  0
  1  2  1  0  0  0  0
  2  3  2  0  0  0  0
  2  7  1  0  0  0  0
  3  8  1  0  0  0  0
  4  3  1  0  0  0  0
  5  4  2  0  0  0  0
  6  5  1  0  0  0  0
  6  1  2  0  0  0  0
  9  1  1  0  0  0  0
  9 15  1  0  0  0  0
 10  9  1  0  0  0  0
 10 17  1  0  0  0  0
 11 10  1  0  0  0  0
 12 11  1  0  0  0  0
 12 20  1  0  0  0  0
 12 13  1  0  0  0  0
 13 14  1  0  0  0  0
 13 23  1  0  0  0  0
 14 24  1  0  0  0  0
 14  9  1  0  0  0  0
 16 10  1  0  0  0  0
 18 11  1  0  0  0  0
 19 11  1  0  0  0  0
 21 12  1  0  0  0  0
 22 13  1  0  0  0  0
 25 14  1  0  0  0  0
 26  5  1  0  0  0  0
 27 26  1  0  0  0  0
 28 27  2  0  0  0  0
 29 28  1  0  0  0  0
 29 30  1  0  0  0  0
 30 26  2  0  0  0  0
 31 28  1  0  0  0  0
 32 39  2  0  0  0  0
 32 29  1  0  0  0  0
 33 32  1  0  0  0  0
 34 33  1  0  0  0  0
 35 33  2  0  0  0  0
 35 37  1  0  0  0  0
 36 35  1  0  0  0  0
 37 39  1  0  0  0  0
 38 37  1  0  0  0  0
M  END
>  <minimizedAffinity>
-5.60031366

$$$$

 OpenBabel03242519263D

 39 42  0  0  0  0  0  0  0  0999 V2000
   36.5120   25.1390   39.9630 C   0  0  0  0  0  0  0  0  0  0  0  0
   36.9190   24.5160   41.1560 C   0  0  0  0  0  0  0  0  0  0  0  0
   37.3340   25.2910   42.2540 C   0  0  0  0  0  0  0  0  0  0  0  0
   37.3110   26.6500   42.0710 N   0  0  0  0  0  0  0  0  0  0  0  0
   36.9090   27.2210   40.8930 C   0  0  0  0  0  0  0  0  0  0  0  0
   36.5190   26.4720   39.8670 N   0  0  0  0  0  0  0  0  0  0  0  0
   36.9640   23.4600   41.3740 H   0  0  0  0  0  0  0  0  0  0  0  0
   37.6550   24.8700   43.1880 H   0  0  0  0  0  0  0  0  0  0  0  0
   36.1030   24.2260   38.8800 C   0  0  0  0  0  0  0  0  0  0  0  0
   35.5290   24.9080   37.7210 C   0  0  0  0  0  0  0  0  0  0  0  0
   34.0820   24.6630   37.5050 C   0  0  0  0  0  0  0  0  0  0  0  0
   33.7160   23.1820   37.4920 C   0  0  0  0  0  0  0  0  0  0  0  0
   34.5290   22.3400   38.4340 C   0  0  0  0  0  0  0  0  0  0  0  0
   35.1410   23.2090   39.5190 C   0  0  0  0  0  0  0  0  0  0  0  0
   36.9900   23.5830   38.5990 H   0  0  0  0  0  0  0  0  0  0  0  0
   35.6800   25.9900   37.7970 H   0  0  0  0  0  0  0  0  0  0  0  0
   36.0730   24.5960   36.7940 H   0  0  0  0  0  0  0  0  0  0  0  0
   33.8680   24.9920   36.4450 H   0  0  0  0  0  0  0  0  0  0  0  0
   33.3780   25.2210   38.1160 H   0  0  0  0  0  0  0  0  0  0  0  0
   33.7530   22.7410   36.4760 H   0  0  0  0  0  0  0  0  0  0  0  0
   32.6560   23.0950   37.8240 H   0  0  0  0  0  0  0  0  0  0  0  0
   33.9600   21.5370   38.9240 H   0  0  0  0  0  0  0  0  0  0  0  0
   35.3970   21.9420   37.8380 H   0  0  0  0  0  0  0  0  0  0  0  0
   35.7410   22.6020   40.2010 H   0  0  0  0  0  0  0  0  0  0  0  0
   34.3430   23.7220   40.0700 H   0  0  0  0  0  0  0  0  0  0  0  0
   36.9510   28.6810   40.8680 C   0  0  0  0  0  0  0  0  0  0  0  0
   35.7640   29.3410   40.9390 N   0  0  0  0  0  0  0  0  0  0  0  0
   35.9960   30.6670   40.9050 C   0  0  0  0  0  0  0  0  0  0  0  0
   37.3570   30.8260   40.8120 N   0  0  0  0  0  0  0  0  0  0  0  0
   37.9260   29.6160   40.7900 N   0  0  0  0  0  0  0  0  0  0  0  0
   35.3060   31.5000   40.9400 H   0  0  0  0  0  0  0  0  0  0  0  0
   38.1420   32.0100   40.7430 C   0  0  0  0  0  0  0  0  0  0  0  0
   37.7960   33.0170   39.8670 C   0  0  0  0  0  0  0  0  0  0  0  0
   36.9800   33.1030   39.1590 H   0  0  0  0  0  0  0  0  0  0  0  0
   38.7490   34.0260   40.0370 C   0  0  0  0  0  0  0  0  0  0  0  0
   38.7940   34.9730   39.5110 H   0  0  0  0  0  0  0  0  0  0  0  0
   39.6290   33.6080   40.9940 N   0  0  0  0  0  0  0  0  0  0  0  0
   40.4460   34.1760   41.3150 H   0  0  0  0  0  0  0  0  0  0  0  0
   39.2640   32.4090   41.4100 N   0  0  0  0  0  0  0  0  0  0  0  0
  1  2  1  0  0  0  0
  2  7  1  0  0  0  0
  2  3  2  0  0  0  0
  3  8  1  0  0  0  0
  4  3  1  0  0  0  0
  5  4  2  0  0  0  0
  6  1  2  0  0  0  0
  6  5  1  0  0  0  0
  9 14  1  0  0  0  0
  9  1  1  0  0  0  0
 10 16  1  0  0  0  0
 10  9  1  0  0  0  0
 11 10  1  0  0  0  0
 11 19  1  0  0  0  0
 12 11  1  0  0  0  0
 12 21  1  0  0  0  0
 12 13  1  0  0  0  0
 13 22  1  0  0  0  0
 13 14  1  0  0  0  0
 14 25  1  0  0  0  0
 14 24  1  0  0  0  0
 15  9  1  0  0  0  0
 17 10  1  0  0  0  0
 18 11  1  0  0  0  0
 20 12  1  0  0  0  0
 23 13  1  0  0  0  0
 26  5  1  0  0  0  0
 26 27  1  0  0  0  0
 28 27  2  0  0  0  0
 28 31  1  0  0  0  0
 29 28  1  0  0  0  0
 30 29  1  0  0  0  0
 30 26  2  0  0  0  0
 32 29  1  0  0  0  0
 32 39  2  0  0  0  0
 33 35  2  0  0  0  0
 33 32  1  0  0  0  0
 34 33  1  0  0  0  0
 35 37  1  0  0  0  0
 36 35  1  0  0  0  0
 37 38  1  0  0  0  0
 37 39  1  0  0  0  0
M  END
>  <minimizedAffinity>
-5.56403112

$$$$
