
 OpenBabel03242517033D

 32 34  0  0  0  0  0  0  0  0999 V2000
   46.6440   34.7750   41.9810 C   0  0  0  0  0  0  0  0  0  0  0  0
   47.9290   35.2930   41.9180 C   0  0  0  0  0  0  0  0  0  0  0  0
   48.6530   35.1150   40.7600 C   0  0  0  0  0  0  0  0  0  0  0  0
   48.1030   34.4440   39.7140 C   0  0  0  0  0  0  0  0  0  0  0  0
   46.8420   33.9210   39.7390 C   0  0  0  0  0  0  0  0  0  0  0  0
   46.1080   34.1050   40.9240 C   0  0  0  0  0  0  0  0  0  0  0  0
   48.3550   35.8320   42.7790 H   0  0  0  0  0  0  0  0  0  0  0  0
   49.6470   35.5310   40.7480 H   0  0  0  0  0  0  0  0  0  0  0  0
   48.6660   34.2950   38.7840 H   0  0  0  0  0  0  0  0  0  0  0  0
   46.3800   33.3830   38.9200 H   0  0  0  0  0  0  0  0  0  0  0  0
   44.5180   36.2010   44.7530 C   0  0  0  0  0  0  0  0  0  0  0  0
   45.1690   36.1030   43.5030 C   0  0  0  0  0  0  0  0  0  0  0  0
   45.9220   34.9920   43.2360 C   0  0  0  0  0  0  0  0  0  0  0  0
   46.0010   34.0330   44.2060 N   0  0  0  0  0  0  0  0  0  0  0  0
   45.3800   34.1240   45.3990 C   0  0  0  0  0  0  0  0  0  0  0  0
   44.6290   35.2200   45.6770 N   0  0  0  0  0  0  0  0  0  0  0  0
   43.9480   37.0950   44.8910 H   0  0  0  0  0  0  0  0  0  0  0  0
   45.0900   36.8820   42.7500 H   0  0  0  0  0  0  0  0  0  0  0  0
   45.5170   33.2960   46.0900 H   0  0  0  0  0  0  0  0  0  0  0  0
   43.5000   34.1030   40.8580 C   0  0  0  0  0  0  0  0  0  0  0  0
   43.2270   35.2070   40.4160 O   0  0  0  0  0  0  0  0  0  0  0  0
   44.7960   33.6150   41.1040 N   0  0  0  0  0  0  0  0  0  0  0  0
   44.9730   32.6540   41.5250 H   0  0  0  0  0  0  0  0  0  0  0  0
   42.4320   33.2460   41.1490 O   0  0  0  0  0  0  0  0  0  0  0  0
   41.2300   33.4450   40.5320 C   0  0  0  0  0  0  0  0  0  0  0  0
   40.1460   33.9430   41.1980 C   0  0  0  0  0  0  0  0  0  0  0  0
   40.0570   34.2340   42.2190 H   0  0  0  0  0  0  0  0  0  0  0  0
   39.1080   34.0200   40.2980 C   0  0  0  0  0  0  0  0  0  0  0  0
   38.0900   34.3770   40.5060 H   0  0  0  0  0  0  0  0  0  0  0  0
   39.5700   33.5740   39.1160 N   0  0  0  0  0  0  0  0  0  0  0  0
   38.9970   33.5130   38.2220 H   0  0  0  0  0  0  0  0  0  0  0  0
   40.8600   33.2200   39.2380 N   0  0  0  0  0  0  0  0  0  0  0  0
  1 13  1  0  0  0  0
  2  1  1  0  0  0  0
  2  7  1  0  0  0  0
  3  2  2  0  0  0  0
  4  5  2  0  0  0  0
  4  3  1  0  0  0  0
  5  6  1  0  0  0  0
  6 22  1  0  0  0  0
  6  1  2  0  0  0  0
  8  3  1  0  0  0  0
  9  4  1  0  0  0  0
 10  5  1  0  0  0  0
 11 17  1  0  0  0  0
 11 16  1  0  0  0  0
 12 11  2  0  0  0  0
 13 12  1  0  0  0  0
 13 14  2  0  0  0  0
 14 15  1  0  0  0  0
 15 16  2  0  0  0  0
 15 19  1  0  0  0  0
 18 12  1  0  0  0  0
 20 22  1  0  0  0  0
 20 24  1  0  0  0  0
 21 20  2  0  0  0  0
 22 23  1  0  0  0  0
 25 24  1  0  0  0  0
 25 26  1  0  0  0  0
 26 27  1  0  0  0  0
 28 29  1  0  0  0  0
 28 26  2  0  0  0  0
 30 32  1  0  0  0  0
 30 28  1  0  0  0  0
 31 30  1  0  0  0  0
 32 25  2  0  0  0  0
M  END
>  <minimizedAffinity>
-6.07883501

>  <minimizedRMSD>
0.481770784

$$$$
