
 OpenBabel03242512093D

 32 34  0  0  1  0  0  0  0  0999 V2000
   48.2340   34.5120   41.1750 C   0  0  1  0  0  0  0  0  0  0  0  0
   48.9010   35.8120   41.7700 C   0  0  0  0  0  0  0  0  0  0  0  0
   49.1500   34.4680   42.3110 C   0  0  2  0  0  0  0  0  0  0  0  0
   48.6150   34.2820   40.1740 H   0  0  0  0  0  0  0  0  0  0  0  0
   49.6530   36.3020   41.1150 H   0  0  0  0  0  0  0  0  0  0  0  0
   48.2230   36.5040   42.3060 H   0  0  0  0  0  0  0  0  0  0  0  0
   48.6550   34.0150   43.1840 H   0  0  0  0  0  0  0  0  0  0  0  0
   46.7600   34.4990   41.3960 C   0  0  0  0  0  0  0  0  0  0  0  0
   46.0460   34.2670   40.4260 O   0  0  0  0  0  0  0  0  0  0  0  0
   45.4540   35.8730   42.9460 C   0  0  0  0  0  0  0  0  0  0  0  0
   46.1290   34.7350   42.6570 C   0  0  0  0  0  0  0  0  0  0  0  0
   46.2000   33.7380   43.6660 C   0  0  0  0  0  0  0  0  0  0  0  0
   45.6070   33.9370   44.8680 N   0  0  0  0  0  0  0  0  0  0  0  0
   44.9390   35.1010   45.1110 C   0  0  0  0  0  0  0  0  0  0  0  0
   44.8690   36.0330   44.1770 N   0  0  0  0  0  0  0  0  0  0  0  0
   45.4090   36.6180   42.1720 H   0  0  0  0  0  0  0  0  0  0  0  0
   46.6920   32.8080   43.5620 H   0  0  0  0  0  0  0  0  0  0  0  0
   44.4510   35.3110   46.0470 H   0  0  0  0  0  0  0  0  0  0  0  0
   50.4620   34.0350   42.1430 O   0  0  0  0  0  0  0  0  0  0  0  0
   49.1040   31.9550   42.8460 O   0  0  0  0  0  0  0  0  0  0  0  0
   50.4190   32.3360   42.1880 P   0  0  2  0  0  0  0  0  0  0  0  0
   51.7140   31.6470   42.9690 O   0  0  0  0  0  0  0  0  0  0  0  0
   52.5010   32.2250   42.9920 H   0  0  0  0  0  0  0  0  0  0  0  0
   50.2760   31.7740   40.5620 O   0  0  0  0  0  0  0  0  0  0  0  0
   51.4170   31.5960   39.7740 C   0  0  0  0  0  0  0  0  0  0  0  0
   52.7690   31.3260   39.8890 C   0  0  0  0  0  0  0  0  0  0  0  0
   53.1000   31.2050   40.9120 H   0  0  0  0  0  0  0  0  0  0  0  0
   53.2790   31.2990   38.5870 C   0  0  0  0  0  0  0  0  0  0  0  0
   54.3300   31.0990   38.5030 H   0  0  0  0  0  0  0  0  0  0  0  0
   52.2530   31.5460   37.7520 N   0  0  0  0  0  0  0  0  0  0  0  0
   52.5050   31.5520   36.7390 H   0  0  0  0  0  0  0  0  0  0  0  0
   51.1440   31.7220   38.4480 N   0  0  0  0  0  0  0  0  0  0  0  0
  1  4  1  6  0  0  0
  1  8  1  0  0  0  0
  1  2  1  0  0  0  0
  1  3  1  0  0  0  0
  2  6  1  0  0  0  0
  2  3  1  0  0  0  0
  3  7  1  1  0  0  0
  5  2  1  0  0  0  0
  8 11  1  0  0  0  0
  9  8  2  0  0  0  0
 10 15  1  0  0  0  0
 11 10  2  0  0  0  0
 11 12  1  0  0  0  0
 12 13  2  0  0  0  0
 13 14  1  0  0  0  0
 14 18  1  0  0  0  0
 15 14  2  0  0  0  0
 16 10  1  0  0  0  0
 17 12  1  0  0  0  0
 19 21  1  0  0  0  0
 19  3  1  0  0  0  0
 21 20  2  1  0  0  0
 21 22  1  0  0  0  0
 22 23  1  0  0  0  0
 24 21  1  0  0  0  0
 25 26  1  0  0  0  0
 25 24  1  0  0  0  0
 26 27  1  0  0  0  0
 28 26  2  0  0  0  0
 29 28  1  0  0  0  0
 30 32  1  0  0  0  0
 30 28  1  0  0  0  0
 31 30  1  0  0  0  0
 32 25  2  0  0  0  0
M  END
>  <minimizedAffinity>
-5.0352807

>  <minimizedRMSD>
0.585663617

$$$$
