
 OpenBabel03242523133D

 45 49  0  0  1  0  0  0  0  0999 V2000
   37.5990   31.6050   36.8130 C   0  0  0  0  0  0  0  0  0  0  0  0
   37.8860   31.2440   38.1310 C   0  0  0  0  0  0  0  0  0  0  0  0
   37.5080   30.0170   38.5860 C   0  0  0  0  0  0  0  0  0  0  0  0
   36.8530   29.1970   37.7030 N   0  0  0  0  0  0  0  0  0  0  0  0
   36.5780   29.5490   36.4370 C   0  0  0  0  0  0  0  0  0  0  0  0
   36.9480   30.7290   36.0120 N   0  0  0  0  0  0  0  0  0  0  0  0
   37.9020   32.5870   36.4470 H   0  0  0  0  0  0  0  0  0  0  0  0
   36.0650   28.9410   35.7040 H   0  0  0  0  0  0  0  0  0  0  0  0
   38.5280   32.1930   38.9270 N   0  0  0  0  0  0  0  0  0  0  0  0
   37.7980   33.1400   39.7080 C   0  0  0  0  0  0  0  0  0  0  0  0
   38.6380   33.9710   40.6360 C   0  0  0  0  0  0  0  0  0  0  0  0
   39.6790   33.2870   41.2680 N   0  0  0  0  0  0  0  0  0  0  0  0
   40.4000   32.4020   40.4950 C   0  0  0  0  0  0  0  0  0  0  0  0
   39.9180   32.3490   39.0620 C   0  0  0  0  0  0  0  0  0  0  0  0
   36.9530   32.6900   40.3000 H   0  0  0  0  0  0  0  0  0  0  0  0
   37.3030   33.8350   38.9950 H   0  0  0  0  0  0  0  0  0  0  0  0
   39.0360   34.8490   40.0830 H   0  0  0  0  0  0  0  0  0  0  0  0
   37.9400   34.3960   41.4110 H   0  0  0  0  0  0  0  0  0  0  0  0
   39.5820   33.1100   42.2730 H   0  0  0  0  0  0  0  0  0  0  0  0
   40.4660   31.3510   40.8740 H   0  0  0  0  0  0  0  0  0  0  0  0
   41.4780   32.7280   40.4210 H   0  0  0  0  0  0  0  0  0  0  0  0
   40.4130   31.4720   38.5580 H   0  0  0  0  0  0  0  0  0  0  0  0
   40.2860   33.2670   38.5280 H   0  0  0  0  0  0  0  0  0  0  0  0
   36.4320   28.8230   40.2990 C   0  0  0  0  0  0  0  0  0  0  0  0
   37.6400   29.3530   39.8090 C   0  0  0  0  0  0  0  0  0  0  0  0
   38.6730   29.1390   40.6890 C   0  0  0  0  0  0  0  0  0  0  0  0
   38.5790   28.5040   41.8890 C   0  0  0  0  0  0  0  0  0  0  0  0
   37.3430   28.0170   42.2980 C   0  0  0  0  0  0  0  0  0  0  0  0
   36.2610   28.1770   41.4930 C   0  0  0  0  0  0  0  0  0  0  0  0
   37.5850   27.4500   43.5420 O   0  0  0  0  0  0  0  0  0  0  0  0
   38.9620   27.5460   43.8690 C   0  0  2  0  0  0  0  0  0  0  0  0
   39.5910   28.2580   42.8060 O   0  0  0  0  0  0  0  0  0  0  0  0
   35.4220   28.8150   39.8320 H   0  0  0  0  0  0  0  0  0  0  0  0
   39.5820   29.5230   40.3430 H   0  0  0  0  0  0  0  0  0  0  0  0
   35.3640   27.7610   41.9070 H   0  0  0  0  0  0  0  0  0  0  0  0
   39.0980   28.0860   44.8110 H   0  0  0  0  0  0  0  0  0  0  0  0
   39.4450   26.2240   43.8740 O   0  0  0  0  0  0  0  0  0  0  0  0
   40.7530   25.8450   43.6570 C   0  0  0  0  0  0  0  0  0  0  0  0
   41.8330   26.4200   44.3260 C   0  0  0  0  0  0  0  0  0  0  0  0
   41.8240   27.2100   45.0810 H   0  0  0  0  0  0  0  0  0  0  0  0
   42.9410   25.7660   43.8250 C   0  0  0  0  0  0  0  0  0  0  0  0
   43.9930   25.9250   44.0930 H   0  0  0  0  0  0  0  0  0  0  0  0
   42.5780   24.8570   42.9140 N   0  0  0  0  0  0  0  0  0  0  0  0
   43.1900   24.1960   42.3500 H   0  0  0  0  0  0  0  0  0  0  0  0
   41.2510   24.8990   42.8070 N   0  0  0  0  0  0  0  0  0  0  0  0
  1  2  1  0  0  0  0
  2  3  2  0  0  0  0
  2  9  1  0  0  0  0
  3 25  1  0  0  0  0
  4  3  1  0  0  0  0
  5  4  2  0  0  0  0
  6  5  1  0  0  0  0
  6  1  2  0  0  0  0
  7  1  1  0  0  0  0
  8  5  1  0  0  0  0
  9 14  1  0  0  0  0
  9 10  1  0  0  0  0
 10 15  1  0  0  0  0
 10 11  1  0  0  0  0
 11 12  1  0  0  0  0
 11 18  1  0  0  0  0
 12 19  1  0  0  0  0
 13 20  1  0  0  0  0
 13 12  1  0  0  0  0
 14 13  1  0  0  0  0
 16 10  1  0  0  0  0
 17 11  1  0  0  0  0
 21 13  1  0  0  0  0
 22 14  1  0  0  0  0
 23 14  1  0  0  0  0
 24 29  1  0  0  0  0
 25 24  2  0  0  0  0
 25 26  1  0  0  0  0
 26 27  2  0  0  0  0
 27 28  1  0  0  0  0
 27 32  1  0  0  0  0
 28 30  1  0  0  0  0
 29 35  1  0  0  0  0
 29 28  2  0  0  0  0
 30 31  1  0  0  0  0
 31 37  1  0  0  0  0
 31 36  1  1  0  0  0
 32 31  1  0  0  0  0
 33 24  1  0  0  0  0
 34 26  1  0  0  0  0
 38 37  1  0  0  0  0
 38 39  1  0  0  0  0
 39 40  1  0  0  0  0
 41 42  1  0  0  0  0
 41 39  2  0  0  0  0
 43 41  1  0  0  0  0
 44 43  1  0  0  0  0
 45 43  1  0  0  0  0
 45 38  2  0  0  0  0
M  END
>  <minimizedAffinity>
-6.20570803

$$$$

 OpenBabel03242523133D

 45 49  0  0  1  0  0  0  0  0999 V2000
   36.7180   28.2550   41.3490 C   0  0  0  0  0  0  0  0  0  0  0  0
   37.7390   29.1200   40.9520 C   0  0  0  0  0  0  0  0  0  0  0  0
   38.5870   29.6290   41.8890 C   0  0  0  0  0  0  0  0  0  0  0  0
   38.3760   29.2540   43.1920 N   0  0  0  0  0  0  0  0  0  0  0  0
   37.3920   28.4230   43.5680 C   0  0  0  0  0  0  0  0  0  0  0  0
   36.5870   27.9390   42.6590 N   0  0  0  0  0  0  0  0  0  0  0  0
   36.0390   27.8440   40.5980 H   0  0  0  0  0  0  0  0  0  0  0  0
   37.1850   28.0980   44.5790 H   0  0  0  0  0  0  0  0  0  0  0  0
   37.8120   29.4410   39.5960 N   0  0  0  0  0  0  0  0  0  0  0  0
   37.0050   30.4680   39.0200 C   0  0  0  0  0  0  0  0  0  0  0  0
   37.3330   30.8010   37.5920 C   0  0  0  0  0  0  0  0  0  0  0  0
   38.6950   30.8080   37.2820 N   0  0  0  0  0  0  0  0  0  0  0  0
   39.4580   29.7910   37.8140 C   0  0  0  0  0  0  0  0  0  0  0  0
   38.6470   28.8250   38.6480 C   0  0  0  0  0  0  0  0  0  0  0  0
   36.9890   31.4250   39.6130 H   0  0  0  0  0  0  0  0  0  0  0  0
   35.9540   30.1060   39.0440 H   0  0  0  0  0  0  0  0  0  0  0  0
   36.7900   30.1030   36.9190 H   0  0  0  0  0  0  0  0  0  0  0  0
   36.8940   31.8180   37.3880 H   0  0  0  0  0  0  0  0  0  0  0  0
   39.1310   31.7180   37.1010 H   0  0  0  0  0  0  0  0  0  0  0  0
   40.3480   30.1010   38.4170 H   0  0  0  0  0  0  0  0  0  0  0  0
   39.9010   29.1560   36.9920 H   0  0  0  0  0  0  0  0  0  0  0  0
   39.3610   28.1550   39.2040 H   0  0  0  0  0  0  0  0  0  0  0  0
   38.0640   28.1570   37.9550 H   0  0  0  0  0  0  0  0  0  0  0  0
   40.8050   30.0250   42.5510 C   0  0  0  0  0  0  0  0  0  0  0  0
   39.6860   30.4900   41.8360 C   0  0  0  0  0  0  0  0  0  0  0  0
   39.9210   31.7290   41.2900 C   0  0  0  0  0  0  0  0  0  0  0  0
   41.0720   32.4460   41.4070 C   0  0  0  0  0  0  0  0  0  0  0  0
   42.1270   31.9120   42.1390 C   0  0  0  0  0  0  0  0  0  0  0  0
   41.9910   30.6890   42.7130 C   0  0  0  0  0  0  0  0  0  0  0  0
   43.1220   32.8770   42.0740 O   0  0  0  0  0  0  0  0  0  0  0  0
   42.6990   33.9680   41.2710 C   0  0  2  0  0  0  0  0  0  0  0  0
   41.3590   33.6930   40.8710 O   0  0  0  0  0  0  0  0  0  0  0  0
   40.9480   29.0650   43.0960 H   0  0  0  0  0  0  0  0  0  0  0  0
   39.1020   32.0930   40.7520 H   0  0  0  0  0  0  0  0  0  0  0  0
   42.8650   30.3760   43.2490 H   0  0  0  0  0  0  0  0  0  0  0  0
   42.7340   34.9020   41.8410 H   0  0  0  0  0  0  0  0  0  0  0  0
   43.5250   33.9450   40.1310 O   0  0  0  0  0  0  0  0  0  0  0  0
   43.1040   33.7180   38.8380 C   0  0  0  0  0  0  0  0  0  0  0  0
   43.0210   32.4440   38.2770 C   0  0  0  0  0  0  0  0  0  0  0  0
   43.2580   31.4810   38.7360 H   0  0  0  0  0  0  0  0  0  0  0  0
   42.5650   32.6590   36.9920 C   0  0  0  0  0  0  0  0  0  0  0  0
   42.3650   31.9090   36.2160 H   0  0  0  0  0  0  0  0  0  0  0  0
   42.3800   33.9650   36.7700 N   0  0  0  0  0  0  0  0  0  0  0  0
   42.0390   34.4510   35.8890 H   0  0  0  0  0  0  0  0  0  0  0  0
   42.7050   34.6140   37.8870 N   0  0  0  0  0  0  0  0  0  0  0  0
  1  6  1  0  0  0  0
  2  1  2  0  0  0  0
  2  3  1  0  0  0  0
  3  4  2  0  0  0  0
  4  5  1  0  0  0  0
  5  8  1  0  0  0  0
  6  5  2  0  0  0  0
  7  1  1  0  0  0  0
  9  2  1  0  0  0  0
 10 16  1  0  0  0  0
 10  9  1  0  0  0  0
 10 15  1  0  0  0  0
 11 10  1  0  0  0  0
 12 11  1  0  0  0  0
 12 13  1  0  0  0  0
 13 20  1  0  0  0  0
 13 14  1  0  0  0  0
 14 22  1  0  0  0  0
 14  9  1  0  0  0  0
 17 11  1  0  0  0  0
 18 11  1  0  0  0  0
 19 12  1  0  0  0  0
 21 13  1  0  0  0  0
 23 14  1  0  0  0  0
 24 29  1  0  0  0  0
 24 33  1  0  0  0  0
 25  3  1  0  0  0  0
 25 24  2  0  0  0  0
 26 27  2  0  0  0  0
 26 25  1  0  0  0  0
 27 28  1  0  0  0  0
 28 29  2  0  0  0  0
 29 35  1  0  0  0  0
 30 28  1  0  0  0  0
 31 36  1  1  0  0  0
 31 30  1  0  0  0  0
 32 31  1  0  0  0  0
 32 27  1  0  0  0  0
 34 26  1  0  0  0  0
 37 31  1  0  0  0  0
 38 37  1  0  0  0  0
 39 40  1  0  0  0  0
 39 38  1  0  0  0  0
 41 39  2  0  0  0  0
 42 41  1  0  0  0  0
 43 41  1  0  0  0  0
 43 45  1  0  0  0  0
 44 43  1  0  0  0  0
 45 38  2  0  0  0  0
M  END
>  <minimizedAffinity>
-6.08218718

$$$$

 OpenBabel03242523133D

 45 49  0  0  1  0  0  0  0  0999 V2000
   40.8270   34.0490   39.2790 C   0  0  0  0  0  0  0  0  0  0  0  0
   40.4540   32.7500   39.6260 C   0  0  0  0  0  0  0  0  0  0  0  0
   39.4340   32.5600   40.5100 C   0  0  0  0  0  0  0  0  0  0  0  0
   38.8280   33.6830   41.0160 N   0  0  0  0  0  0  0  0  0  0  0  0
   39.1910   34.9300   40.6790 C   0  0  0  0  0  0  0  0  0  0  0  0
   40.1700   35.0980   39.8290 N   0  0  0  0  0  0  0  0  0  0  0  0
   41.6430   34.2030   38.5700 H   0  0  0  0  0  0  0  0  0  0  0  0
   38.7470   35.8440   41.0490 H   0  0  0  0  0  0  0  0  0  0  0  0
   41.1820   31.7040   39.0590 N   0  0  0  0  0  0  0  0  0  0  0  0
   40.7780   31.0790   37.8400 C   0  0  0  0  0  0  0  0  0  0  0  0
   41.7640   30.0920   37.2820 C   0  0  0  0  0  0  0  0  0  0  0  0
   43.1060   30.4640   37.3970 N   0  0  0  0  0  0  0  0  0  0  0  0
   43.4920   31.0330   38.5920 C   0  0  0  0  0  0  0  0  0  0  0  0
   42.3560   31.1380   39.5850 C   0  0  0  0  0  0  0  0  0  0  0  0
   40.5000   31.8030   37.0250 H   0  0  0  0  0  0  0  0  0  0  0  0
   39.8380   30.5240   38.0560 H   0  0  0  0  0  0  0  0  0  0  0  0
   41.5990   29.1010   37.7560 H   0  0  0  0  0  0  0  0  0  0  0  0
   41.5030   29.9530   36.1950 H   0  0  0  0  0  0  0  0  0  0  0  0
   43.5960   30.7270   36.5360 H   0  0  0  0  0  0  0  0  0  0  0  0
   43.9860   32.0360   38.5270 H   0  0  0  0  0  0  0  0  0  0  0  0
   44.2620   30.3880   39.1080 H   0  0  0  0  0  0  0  0  0  0  0  0
   42.6960   31.7870   40.4400 H   0  0  0  0  0  0  0  0  0  0  0  0
   42.1660   30.1190   40.0190 H   0  0  0  0  0  0  0  0  0  0  0  0
   37.5110   31.2140   40.5810 C   0  0  0  0  0  0  0  0  0  0  0  0
   38.8190   31.4290   41.0530 C   0  0  0  0  0  0  0  0  0  0  0  0
   39.1720   30.4920   41.9930 C   0  0  0  0  0  0  0  0  0  0  0  0
   38.3860   29.4750   42.4400 C   0  0  0  0  0  0  0  0  0  0  0  0
   37.1010   29.3410   41.9250 C   0  0  0  0  0  0  0  0  0  0  0  0
   36.6630   30.2180   40.9850 C   0  0  0  0  0  0  0  0  0  0  0  0
   36.5730   28.2400   42.5840 O   0  0  0  0  0  0  0  0  0  0  0  0
   37.5390   27.6770   43.4580 C   0  0  2  0  0  0  0  0  0  0  0  0
   38.6980   28.5040   43.3810 O   0  0  0  0  0  0  0  0  0  0  0  0
   36.9330   31.7770   39.8160 H   0  0  0  0  0  0  0  0  0  0  0  0
   40.1430   30.6320   42.3560 H   0  0  0  0  0  0  0  0  0  0  0  0
   35.6620   30.0180   40.6570 H   0  0  0  0  0  0  0  0  0  0  0  0
   37.1640   27.6570   44.4860 H   0  0  0  0  0  0  0  0  0  0  0  0
   37.8490   26.4140   42.9200 O   0  0  0  0  0  0  0  0  0  0  0  0
   39.1170   25.8990   42.7560 C   0  0  0  0  0  0  0  0  0  0  0  0
   39.7780   25.8820   41.5280 C   0  0  0  0  0  0  0  0  0  0  0  0
   39.4260   26.2480   40.5600 H   0  0  0  0  0  0  0  0  0  0  0  0
   40.9970   25.2930   41.7980 C   0  0  0  0  0  0  0  0  0  0  0  0
   41.8160   25.0920   41.0950 H   0  0  0  0  0  0  0  0  0  0  0  0
   41.0870   24.9690   43.0920 N   0  0  0  0  0  0  0  0  0  0  0  0
   41.8920   24.5060   43.6100 H   0  0  0  0  0  0  0  0  0  0  0  0
   39.9490   25.3340   43.6800 N   0  0  0  0  0  0  0  0  0  0  0  0
  1  2  2  0  0  0  0
  1  6  1  0  0  0  0
  2  3  1  0  0  0  0
  3  4  2  0  0  0  0
  3 25  1  0  0  0  0
  5  4  1  0  0  0  0
  5  8  1  0  0  0  0
  6  5  2  0  0  0  0
  7  1  1  0  0  0  0
  9 14  1  0  0  0  0
  9  2  1  0  0  0  0
 10 16  1  0  0  0  0
 10  9  1  0  0  0  0
 11 12  1  0  0  0  0
 11 17  1  0  0  0  0
 11 10  1  0  0  0  0
 12 13  1  0  0  0  0
 13 21  1  0  0  0  0
 13 14  1  0  0  0  0
 14 23  1  0  0  0  0
 14 22  1  0  0  0  0
 15 10  1  0  0  0  0
 18 11  1  0  0  0  0
 19 12  1  0  0  0  0
 20 13  1  0  0  0  0
 24 29  2  0  0  0  0
 24 25  1  0  0  0  0
 25 26  2  0  0  0  0
 26 34  1  0  0  0  0
 26 27  1  0  0  0  0
 27 32  1  0  0  0  0
 28 27  2  0  0  0  0
 28 30  1  0  0  0  0
 29 28  1  0  0  0  0
 30 31  1  0  0  0  0
 31 36  1  1  0  0  0
 32 31  1  0  0  0  0
 33 24  1  0  0  0  0
 35 29  1  0  0  0  0
 37 31  1  0  0  0  0
 38 37  1  0  0  0  0
 38 45  2  0  0  0  0
 39 41  2  0  0  0  0
 39 38  1  0  0  0  0
 40 39  1  0  0  0  0
 41 43  1  0  0  0  0
 42 41  1  0  0  0  0
 43 44  1  0  0  0  0
 43 45  1  0  0  0  0
M  END
>  <minimizedAffinity>
-6.02005196

$$$$

 OpenBabel03242523133D

 45 49  0  0  1  0  0  0  0  0999 V2000
   36.2350   27.9650   39.5240 C   0  0  0  0  0  0  0  0  0  0  0  0
   37.0920   28.9560   40.0040 C   0  0  0  0  0  0  0  0  0  0  0  0
   37.2590   30.1030   39.2870 C   0  0  0  0  0  0  0  0  0  0  0  0
   36.5610   30.2110   38.1100 N   0  0  0  0  0  0  0  0  0  0  0  0
   35.7390   29.2540   37.6520 C   0  0  0  0  0  0  0  0  0  0  0  0
   35.5860   28.1600   38.3510 N   0  0  0  0  0  0  0  0  0  0  0  0
   36.1000   27.0470   40.0980 H   0  0  0  0  0  0  0  0  0  0  0  0
   35.1690   29.2910   36.7340 H   0  0  0  0  0  0  0  0  0  0  0  0
   37.7630   28.6950   41.2000 N   0  0  0  0  0  0  0  0  0  0  0  0
   37.2390   29.1060   42.4630 C   0  0  0  0  0  0  0  0  0  0  0  0
   37.9970   28.5950   43.6550 C   0  0  0  0  0  0  0  0  0  0  0  0
   38.4530   27.2790   43.5490 N   0  0  0  0  0  0  0  0  0  0  0  0
   38.9900   26.9040   42.3360 C   0  0  0  0  0  0  0  0  0  0  0  0
   38.9930   28.0280   41.3250 C   0  0  0  0  0  0  0  0  0  0  0  0
   36.1490   28.8670   42.6060 H   0  0  0  0  0  0  0  0  0  0  0  0
   37.2890   30.2170   42.4880 H   0  0  0  0  0  0  0  0  0  0  0  0
   38.8460   29.2790   43.8700 H   0  0  0  0  0  0  0  0  0  0  0  0
   37.3070   28.6850   44.5400 H   0  0  0  0  0  0  0  0  0  0  0  0
   37.9910   26.5730   44.1320 H   0  0  0  0  0  0  0  0  0  0  0  0
   38.5350   26.0050   41.8490 H   0  0  0  0  0  0  0  0  0  0  0  0
   40.0770   26.6230   42.4530 H   0  0  0  0  0  0  0  0  0  0  0  0
   39.2520   27.5940   40.3180 H   0  0  0  0  0  0  0  0  0  0  0  0
   39.8250   28.7380   41.5830 H   0  0  0  0  0  0  0  0  0  0  0  0
   37.2340   32.4070   39.7410 C   0  0  0  0  0  0  0  0  0  0  0  0
   38.0120   31.2640   39.4760 C   0  0  0  0  0  0  0  0  0  0  0  0
   39.3490   31.5730   39.4110 C   0  0  0  0  0  0  0  0  0  0  0  0
   39.8900   32.8120   39.5710 C   0  0  0  0  0  0  0  0  0  0  0  0
   39.0450   33.8880   39.8220 C   0  0  0  0  0  0  0  0  0  0  0  0
   37.7070   33.6800   39.9100 C   0  0  0  0  0  0  0  0  0  0  0  0
   39.8930   34.9820   39.9200 O   0  0  0  0  0  0  0  0  0  0  0  0
   41.2450   34.5740   39.7770 C   0  0  2  0  0  0  0  0  0  0  0  0
   41.2290   33.1720   39.5200 O   0  0  0  0  0  0  0  0  0  0  0  0
   36.1330   32.4990   39.8680 H   0  0  0  0  0  0  0  0  0  0  0  0
   39.9460   30.7370   39.2170 H   0  0  0  0  0  0  0  0  0  0  0  0
   37.1540   34.5780   40.1100 H   0  0  0  0  0  0  0  0  0  0  0  0
   41.7210   35.1010   38.9440 H   0  0  0  0  0  0  0  0  0  0  0  0
   41.8440   34.7970   41.0320 O   0  0  0  0  0  0  0  0  0  0  0  0
   43.1950   34.7360   41.2990 C   0  0  0  0  0  0  0  0  0  0  0  0
   43.7440   35.0990   42.5290 C   0  0  0  0  0  0  0  0  0  0  0  0
   43.2310   35.4630   43.4230 H   0  0  0  0  0  0  0  0  0  0  0  0
   45.1010   34.8930   42.3780 C   0  0  0  0  0  0  0  0  0  0  0  0
   45.8920   35.0590   43.1200 H   0  0  0  0  0  0  0  0  0  0  0  0
   45.3740   34.4400   41.1500 N   0  0  0  0  0  0  0  0  0  0  0  0
   46.3150   34.1880   40.7260 H   0  0  0  0  0  0  0  0  0  0  0  0
   44.2220   34.3420   40.4890 N   0  0  0  0  0  0  0  0  0  0  0  0
  1  2  1  0  0  0  0
  1  7  1  0  0  0  0
  2  9  1  0  0  0  0
  3 25  1  0  0  0  0
  3  2  2  0  0  0  0
  4  3  1  0  0  0  0
  5  4  2  0  0  0  0
  5  6  1  0  0  0  0
  6  1  2  0  0  0  0
  8  5  1  0  0  0  0
  9 14  1  0  0  0  0
  9 10  1  0  0  0  0
 10 16  1  0  0  0  0
 10 15  1  0  0  0  0
 10 11  1  0  0  0  0
 11 17  1  0  0  0  0
 11 18  1  0  0  0  0
 12 11  1  0  0  0  0
 12 19  1  0  0  0  0
 13 21  1  0  0  0  0
 13 12  1  0  0  0  0
 14 23  1  0  0  0  0
 14 13  1  0  0  0  0
 20 13  1  0  0  0  0
 22 14  1  0  0  0  0
 24 33  1  0  0  0  0
 24 29  1  0  0  0  0
 25 24  2  0  0  0  0
 26 25  1  0  0  0  0
 26 27  2  0  0  0  0
 27 28  1  0  0  0  0
 28 29  2  0  0  0  0
 28 30  1  0  0  0  0
 29 35  1  0  0  0  0
 31 36  1  6  0  0  0
 31 30  1  0  0  0  0
 31 37  1  0  0  0  0
 32 27  1  0  0  0  0
 32 31  1  0  0  0  0
 34 26  1  0  0  0  0
 37 38  1  0  0  0  0
 38 39  1  0  0  0  0
 39 40  1  0  0  0  0
 41 39  2  0  0  0  0
 41 42  1  0  0  0  0
 43 41  1  0  0  0  0
 44 43  1  0  0  0  0
 45 43  1  0  0  0  0
 45 38  2  0  0  0  0
M  END
>  <minimizedAffinity>
-6.01728487

$$$$

 OpenBabel03242523133D

 45 49  0  0  1  0  0  0  0  0999 V2000
   38.1360   22.7230   40.6120 C   0  0  0  0  0  0  0  0  0  0  0  0
   38.2580   24.0820   40.9030 C   0  0  0  0  0  0  0  0  0  0  0  0
   37.2860   24.9440   40.4940 C   0  0  0  0  0  0  0  0  0  0  0  0
   36.2270   24.4110   39.8040 N   0  0  0  0  0  0  0  0  0  0  0  0
   36.1150   23.1030   39.5260 C   0  0  0  0  0  0  0  0  0  0  0  0
   37.0540   22.2850   39.9260 N   0  0  0  0  0  0  0  0  0  0  0  0
   38.9140   22.0310   40.9410 H   0  0  0  0  0  0  0  0  0  0  0  0
   35.3030   22.6340   38.9860 H   0  0  0  0  0  0  0  0  0  0  0  0
   39.4070   24.4890   41.5830 N   0  0  0  0  0  0  0  0  0  0  0  0
   40.5090   25.0930   40.9050 C   0  0  0  0  0  0  0  0  0  0  0  0
   41.5870   25.6260   41.8070 C   0  0  0  0  0  0  0  0  0  0  0  0
   41.1330   26.2490   42.9710 N   0  0  0  0  0  0  0  0  0  0  0  0
   40.0920   25.6370   43.6370 C   0  0  0  0  0  0  0  0  0  0  0  0
   39.6350   24.3620   42.9630 C   0  0  0  0  0  0  0  0  0  0  0  0
   40.2140   25.9060   40.1850 H   0  0  0  0  0  0  0  0  0  0  0  0
   40.9680   24.3060   40.2670 H   0  0  0  0  0  0  0  0  0  0  0  0
   42.2920   24.8050   42.0600 H   0  0  0  0  0  0  0  0  0  0  0  0
   42.1860   26.3590   41.1960 H   0  0  0  0  0  0  0  0  0  0  0  0
   41.2340   27.2670   43.0300 H   0  0  0  0  0  0  0  0  0  0  0  0
   39.1870   26.2670   43.8290 H   0  0  0  0  0  0  0  0  0  0  0  0
   40.4170   25.3130   44.6690 H   0  0  0  0  0  0  0  0  0  0  0  0
   38.6690   24.0390   43.4430 H   0  0  0  0  0  0  0  0  0  0  0  0
   40.3830   23.5530   43.1870 H   0  0  0  0  0  0  0  0  0  0  0  0
   36.9910   26.7610   41.9530 C   0  0  0  0  0  0  0  0  0  0  0  0
   37.0970   26.3230   40.6190 C   0  0  0  0  0  0  0  0  0  0  0  0
   36.9330   27.3630   39.7370 C   0  0  0  0  0  0  0  0  0  0  0  0
   36.6930   28.6610   40.0700 C   0  0  0  0  0  0  0  0  0  0  0  0
   36.5960   29.0040   41.4140 C   0  0  0  0  0  0  0  0  0  0  0  0
   36.7490   28.0450   42.3620 C   0  0  0  0  0  0  0  0  0  0  0  0
   36.3400   30.3690   41.4090 O   0  0  0  0  0  0  0  0  0  0  0  0
   36.3290   30.8640   40.0790 C   0  0  2  0  0  0  0  0  0  0  0  0
   36.5270   29.7440   39.2190 O   0  0  0  0  0  0  0  0  0  0  0  0
   37.0870   26.1810   42.8980 H   0  0  0  0  0  0  0  0  0  0  0  0
   37.0110   27.0600   38.7400 H   0  0  0  0  0  0  0  0  0  0  0  0
   36.6580   28.4220   43.3620 H   0  0  0  0  0  0  0  0  0  0  0  0
   35.3710   31.3420   39.8540 H   0  0  0  0  0  0  0  0  0  0  0  0
   37.4480   31.7130   39.9790 O   0  0  0  0  0  0  0  0  0  0  0  0
   38.2780   31.8230   38.8850 C   0  0  0  0  0  0  0  0  0  0  0  0
   39.6440   31.5450   38.9340 C   0  0  0  0  0  0  0  0  0  0  0  0
   40.2410   31.2150   39.7880 H   0  0  0  0  0  0  0  0  0  0  0  0
   40.0930   31.7770   37.6500 C   0  0  0  0  0  0  0  0  0  0  0  0
   41.1160   31.6720   37.2660 H   0  0  0  0  0  0  0  0  0  0  0  0
   39.0860   32.1690   36.8630 N   0  0  0  0  0  0  0  0  0  0  0  0
   39.1040   32.4220   35.8310 H   0  0  0  0  0  0  0  0  0  0  0  0
   37.9810   32.2000   37.6060 N   0  0  0  0  0  0  0  0  0  0  0  0
  1  2  1  0  0  0  0
  1  7  1  0  0  0  0
  2  9  1  0  0  0  0
  3 25  1  0  0  0  0
  3  2  2  0  0  0  0
  4  3  1  0  0  0  0
  5  4  2  0  0  0  0
  5  6  1  0  0  0  0
  6  1  2  0  0  0  0
  8  5  1  0  0  0  0
  9 14  1  0  0  0  0
 10  9  1  0  0  0  0
 10 11  1  0  0  0  0
 11 17  1  0  0  0  0
 11 12  1  0  0  0  0
 12 19  1  0  0  0  0
 12 13  1  0  0  0  0
 13 20  1  0  0  0  0
 13 21  1  0  0  0  0
 14 23  1  0  0  0  0
 14 22  1  0  0  0  0
 14 13  1  0  0  0  0
 15 10  1  0  0  0  0
 16 10  1  0  0  0  0
 18 11  1  0  0  0  0
 24 29  1  0  0  0  0
 24 33  1  0  0  0  0
 25 24  2  0  0  0  0
 26 27  2  0  0  0  0
 26 25  1  0  0  0  0
 27 28  1  0  0  0  0
 28 29  2  0  0  0  0
 29 35  1  0  0  0  0
 30 28  1  0  0  0  0
 31 36  1  6  0  0  0
 31 30  1  0  0  0  0
 32 27  1  0  0  0  0
 32 31  1  0  0  0  0
 34 26  1  0  0  0  0
 37 31  1  0  0  0  0
 38 39  1  0  0  0  0
 38 37  1  0  0  0  0
 39 40  1  0  0  0  0
 41 39  2  0  0  0  0
 42 41  1  0  0  0  0
 43 45  1  0  0  0  0
 43 41  1  0  0  0  0
 44 43  1  0  0  0  0
 45 38  2  0  0  0  0
M  END
>  <minimizedAffinity>
-6.01020718

$$$$

 OpenBabel03242523133D

 45 49  0  0  1  0  0  0  0  0999 V2000
   36.6100   24.2100   41.0390 C   0  0  0  0  0  0  0  0  0  0  0  0
   36.9390   25.5660   40.9930 C   0  0  0  0  0  0  0  0  0  0  0  0
   36.6810   26.2780   39.8600 C   0  0  0  0  0  0  0  0  0  0  0  0
   36.1050   25.6030   38.8140 N   0  0  0  0  0  0  0  0  0  0  0  0
   35.7920   24.2990   38.8640 C   0  0  0  0  0  0  0  0  0  0  0  0
   36.0430   23.6270   39.9570 N   0  0  0  0  0  0  0  0  0  0  0  0
   36.8150   23.6380   41.9460 H   0  0  0  0  0  0  0  0  0  0  0  0
   35.3390   23.7230   38.0690 H   0  0  0  0  0  0  0  0  0  0  0  0
   37.5520   26.1130   42.1200 N   0  0  0  0  0  0  0  0  0  0  0  0
   38.9130   25.8310   42.4490 C   0  0  0  0  0  0  0  0  0  0  0  0
   39.4630   26.6350   43.5930 C   0  0  0  0  0  0  0  0  0  0  0  0
   39.0610   27.9720   43.6270 N   0  0  0  0  0  0  0  0  0  0  0  0
   37.7360   28.2290   43.3430 C   0  0  0  0  0  0  0  0  0  0  0  0
   36.9460   26.9730   43.0520 C   0  0  0  0  0  0  0  0  0  0  0  0
   39.6220   25.9190   41.5800 H   0  0  0  0  0  0  0  0  0  0  0  0
   38.9600   24.7590   42.7430 H   0  0  0  0  0  0  0  0  0  0  0  0
   39.2080   26.1330   44.5500 H   0  0  0  0  0  0  0  0  0  0  0  0
   40.5850   26.5810   43.5160 H   0  0  0  0  0  0  0  0  0  0  0  0
   39.7660   28.6820   43.4040 H   0  0  0  0  0  0  0  0  0  0  0  0
   37.5380   28.9590   42.5170 H   0  0  0  0  0  0  0  0  0  0  0  0
   37.2210   28.6890   44.2360 H   0  0  0  0  0  0  0  0  0  0  0  0
   35.9440   27.2770   42.6360 H   0  0  0  0  0  0  0  0  0  0  0  0
   36.7370   26.4490   44.0240 H   0  0  0  0  0  0  0  0  0  0  0  0
   35.7260   28.2140   38.9340 C   0  0  0  0  0  0  0  0  0  0  0  0
   36.8710   27.6120   39.4900 C   0  0  0  0  0  0  0  0  0  0  0  0
   37.9390   28.4750   39.4890 C   0  0  0  0  0  0  0  0  0  0  0  0
   37.9340   29.7510   39.0160 C   0  0  0  0  0  0  0  0  0  0  0  0
   36.7600   30.2630   38.4750 C   0  0  0  0  0  0  0  0  0  0  0  0
   35.6470   29.4870   38.4370 C   0  0  0  0  0  0  0  0  0  0  0  0
   37.0890   31.5540   38.0830 O   0  0  0  0  0  0  0  0  0  0  0  0
   38.4360   31.8440   38.4240 C   0  0  2  0  0  0  0  0  0  0  0  0
   38.9820   30.6600   38.9980 O   0  0  0  0  0  0  0  0  0  0  0  0
   34.7030   27.7990   38.8000 H   0  0  0  0  0  0  0  0  0  0  0  0
   38.8010   28.0490   39.9000 H   0  0  0  0  0  0  0  0  0  0  0  0
   34.8010   29.9840   38.0030 H   0  0  0  0  0  0  0  0  0  0  0  0
   39.0060   32.1250   37.5330 H   0  0  0  0  0  0  0  0  0  0  0  0
   38.3710   32.8400   39.4180 O   0  0  0  0  0  0  0  0  0  0  0  0
   39.4510   33.4830   39.9820 C   0  0  0  0  0  0  0  0  0  0  0  0
   39.5780   34.8720   40.0140 C   0  0  0  0  0  0  0  0  0  0  0  0
   38.8910   35.6280   39.6250 H   0  0  0  0  0  0  0  0  0  0  0  0
   40.7800   35.0960   40.6550 C   0  0  0  0  0  0  0  0  0  0  0  0
   41.2500   36.0620   40.8830 H   0  0  0  0  0  0  0  0  0  0  0  0
   41.3560   33.9380   40.9950 N   0  0  0  0  0  0  0  0  0  0  0  0
   42.2780   33.7730   41.4950 H   0  0  0  0  0  0  0  0  0  0  0  0
   40.5540   32.9550   40.5890 N   0  0  0  0  0  0  0  0  0  0  0  0
  1  7  1  0  0  0  0
  2  1  1  0  0  0  0
  2  9  1  0  0  0  0
  3  2  2  0  0  0  0
  4  5  2  0  0  0  0
  4  3  1  0  0  0  0
  5  6  1  0  0  0  0
  6  1  2  0  0  0  0
  8  5  1  0  0  0  0
  9 10  1  0  0  0  0
  9 14  1  0  0  0  0
 10 16  1  0  0  0  0
 10 11  1  0  0  0  0
 11 12  1  0  0  0  0
 11 17  1  0  0  0  0
 13 12  1  0  0  0  0
 13 21  1  0  0  0  0
 14 13  1  0  0  0  0
 14 23  1  0  0  0  0
 15 10  1  0  0  0  0
 18 11  1  0  0  0  0
 19 12  1  0  0  0  0
 20 13  1  0  0  0  0
 22 14  1  0  0  0  0
 24 25  1  0  0  0  0
 25  3  1  0  0  0  0
 26 25  2  0  0  0  0
 26 34  1  0  0  0  0
 27 26  1  0  0  0  0
 28 27  2  0  0  0  0
 29 28  1  0  0  0  0
 29 24  2  0  0  0  0
 30 31  1  0  0  0  0
 30 28  1  0  0  0  0
 31 36  1  6  0  0  0
 31 32  1  0  0  0  0
 31 37  1  0  0  0  0
 32 27  1  0  0  0  0
 33 24  1  0  0  0  0
 35 29  1  0  0  0  0
 37 38  1  0  0  0  0
 38 39  1  0  0  0  0
 38 45  2  0  0  0  0
 39 41  2  0  0  0  0
 40 39  1  0  0  0  0
 41 42  1  0  0  0  0
 41 43  1  0  0  0  0
 43 44  1  0  0  0  0
 45 43  1  0  0  0  0
M  END
>  <minimizedAffinity>
-5.99642897

$$$$

 OpenBabel03242523133D

 45 49  0  0  1  0  0  0  0  0999 V2000
   37.2320   32.1920   39.0670 C   0  0  0  0  0  0  0  0  0  0  0  0
   37.3240   30.8960   39.5780 C   0  0  0  0  0  0  0  0  0  0  0  0
   38.1150   30.6590   40.6610 C   0  0  0  0  0  0  0  0  0  0  0  0
   38.7890   31.7310   41.1910 N   0  0  0  0  0  0  0  0  0  0  0  0
   38.6970   32.9740   40.6950 C   0  0  0  0  0  0  0  0  0  0  0  0
   37.9330   33.1900   39.6560 N   0  0  0  0  0  0  0  0  0  0  0  0
   36.5970   32.3840   38.2000 H   0  0  0  0  0  0  0  0  0  0  0  0
   39.2060   33.8500   41.0750 H   0  0  0  0  0  0  0  0  0  0  0  0
   36.6090   29.8970   38.9160 N   0  0  0  0  0  0  0  0  0  0  0  0
   35.3490   29.4280   39.3970 C   0  0  0  0  0  0  0  0  0  0  0  0
   34.6370   28.4790   38.4760 C   0  0  0  0  0  0  0  0  0  0  0  0
   34.7280   28.7900   37.1170 N   0  0  0  0  0  0  0  0  0  0  0  0
   35.9580   29.2070   36.6570 C   0  0  0  0  0  0  0  0  0  0  0  0
   37.0100   29.2370   37.7430 C   0  0  0  0  0  0  0  0  0  0  0  0
   34.6340   30.2490   39.6840 H   0  0  0  0  0  0  0  0  0  0  0  0
   35.5470   28.8840   40.3470 H   0  0  0  0  0  0  0  0  0  0  0  0
   35.0050   27.4460   38.6580 H   0  0  0  0  0  0  0  0  0  0  0  0
   33.5560   28.4730   38.7900 H   0  0  0  0  0  0  0  0  0  0  0  0
   33.8790   29.1320   36.6560 H   0  0  0  0  0  0  0  0  0  0  0  0
   35.9820   30.1940   36.1280 H   0  0  0  0  0  0  0  0  0  0  0  0
   36.3610   28.4830   35.8900 H   0  0  0  0  0  0  0  0  0  0  0  0
   37.9150   29.7740   37.3400 H   0  0  0  0  0  0  0  0  0  0  0  0
   37.3380   28.1820   37.9520 H   0  0  0  0  0  0  0  0  0  0  0  0
   37.8670   29.5230   42.7020 C   0  0  0  0  0  0  0  0  0  0  0  0
   38.4200   29.5180   41.4080 C   0  0  0  0  0  0  0  0  0  0  0  0
   39.1880   28.3980   41.1970 C   0  0  0  0  0  0  0  0  0  0  0  0
   39.4130   27.4040   42.0990 C   0  0  0  0  0  0  0  0  0  0  0  0
   38.8320   27.4940   43.3590 C   0  0  0  0  0  0  0  0  0  0  0  0
   38.0510   28.5620   43.6600 C   0  0  0  0  0  0  0  0  0  0  0  0
   39.2600   26.3530   44.0230 O   0  0  0  0  0  0  0  0  0  0  0  0
   40.0540   25.5500   43.1640 C   0  0  2  0  0  0  0  0  0  0  0  0
   40.1730   26.2550   41.9320 O   0  0  0  0  0  0  0  0  0  0  0  0
   37.1940   30.2680   43.1810 H   0  0  0  0  0  0  0  0  0  0  0  0
   39.6080   28.3730   40.2400 H   0  0  0  0  0  0  0  0  0  0  0  0
   37.6530   28.5260   44.6550 H   0  0  0  0  0  0  0  0  0  0  0  0
   41.0460   25.3870   43.5980 H   0  0  0  0  0  0  0  0  0  0  0  0
   39.3090   24.3760   42.9430 O   0  0  0  0  0  0  0  0  0  0  0  0
   38.4370   24.1630   41.8980 C   0  0  0  0  0  0  0  0  0  0  0  0
   37.0850   24.4990   41.9550 C   0  0  0  0  0  0  0  0  0  0  0  0
   36.5300   24.9550   42.7780 H   0  0  0  0  0  0  0  0  0  0  0  0
   36.5820   24.1270   40.7240 C   0  0  0  0  0  0  0  0  0  0  0  0
   35.5500   24.2220   40.3620 H   0  0  0  0  0  0  0  0  0  0  0  0
   37.5460   23.6000   39.9610 N   0  0  0  0  0  0  0  0  0  0  0  0
   37.4810   23.2210   38.9710 H   0  0  0  0  0  0  0  0  0  0  0  0
   38.6750   23.6190   40.6680 N   0  0  0  0  0  0  0  0  0  0  0  0
  1  2  2  0  0  0  0
  1  6  1  0  0  0  0
  2  3  1  0  0  0  0
  3  4  2  0  0  0  0
  3 25  1  0  0  0  0
  5  8  1  0  0  0  0
  5  4  1  0  0  0  0
  6  5  2  0  0  0  0
  7  1  1  0  0  0  0
  9 10  1  0  0  0  0
  9  2  1  0  0  0  0
 10 15  1  0  0  0  0
 10 16  1  0  0  0  0
 11 17  1  0  0  0  0
 11 18  1  0  0  0  0
 11 10  1  0  0  0  0
 12 11  1  0  0  0  0
 13 12  1  0  0  0  0
 13 14  1  0  0  0  0
 14 23  1  0  0  0  0
 14  9  1  0  0  0  0
 19 12  1  0  0  0  0
 20 13  1  0  0  0  0
 21 13  1  0  0  0  0
 22 14  1  0  0  0  0
 24 33  1  0  0  0  0
 24 29  1  0  0  0  0
 25 24  2  0  0  0  0
 26 25  1  0  0  0  0
 26 27  2  0  0  0  0
 27 28  1  0  0  0  0
 28 29  2  0  0  0  0
 28 30  1  0  0  0  0
 29 35  1  0  0  0  0
 31 36  1  1  0  0  0
 31 30  1  0  0  0  0
 32 27  1  0  0  0  0
 32 31  1  0  0  0  0
 34 26  1  0  0  0  0
 37 31  1  0  0  0  0
 38 39  1  0  0  0  0
 38 37  1  0  0  0  0
 39 40  1  0  0  0  0
 41 39  2  0  0  0  0
 42 41  1  0  0  0  0
 43 45  1  0  0  0  0
 43 41  1  0  0  0  0
 44 43  1  0  0  0  0
 45 38  2  0  0  0  0
M  END
>  <minimizedAffinity>
-5.95125866

$$$$

 OpenBabel03242523133D

 45 49  0  0  1  0  0  0  0  0999 V2000
   36.5780   24.7360   40.1070 C   0  0  0  0  0  0  0  0  0  0  0  0
   36.9660   26.0140   40.5140 C   0  0  0  0  0  0  0  0  0  0  0  0
   36.7170   27.0790   39.7020 C   0  0  0  0  0  0  0  0  0  0  0  0
   36.0920   26.8230   38.5080 N   0  0  0  0  0  0  0  0  0  0  0  0
   35.7220   25.5920   38.1210 C   0  0  0  0  0  0  0  0  0  0  0  0
   35.9640   24.5780   38.9100 N   0  0  0  0  0  0  0  0  0  0  0  0
   36.7750   23.8820   40.7580 H   0  0  0  0  0  0  0  0  0  0  0  0
   35.2280   25.3380   37.1930 H   0  0  0  0  0  0  0  0  0  0  0  0
   37.6240   26.1210   41.7390 N   0  0  0  0  0  0  0  0  0  0  0  0
   38.9450   25.6130   41.9320 C   0  0  0  0  0  0  0  0  0  0  0  0
   39.5680   25.9640   43.2530 C   0  0  0  0  0  0  0  0  0  0  0  0
   39.3100   27.2600   43.7060 N   0  0  0  0  0  0  0  0  0  0  0  0
   38.0220   27.7270   43.5470 C   0  0  0  0  0  0  0  0  0  0  0  0
   37.1050   26.7100   42.9050 C   0  0  0  0  0  0  0  0  0  0  0  0
   39.6660   25.8900   41.1130 H   0  0  0  0  0  0  0  0  0  0  0  0
   38.8760   24.5040   41.8810 H   0  0  0  0  0  0  0  0  0  0  0  0
   39.2540   25.2210   44.0160 H   0  0  0  0  0  0  0  0  0  0  0  0
   40.6790   25.8210   43.1340 H   0  0  0  0  0  0  0  0  0  0  0  0
   40.0880   27.9270   43.6940 H   0  0  0  0  0  0  0  0  0  0  0  0
   37.9090   28.6920   42.9910 H   0  0  0  0  0  0  0  0  0  0  0  0
   37.5510   27.9400   44.5510 H   0  0  0  0  0  0  0  0  0  0  0  0
   36.1450   27.2290   42.6280 H   0  0  0  0  0  0  0  0  0  0  0  0
   36.8340   25.9370   43.6740 H   0  0  0  0  0  0  0  0  0  0  0  0
   35.9160   29.1670   40.4190 C   0  0  0  0  0  0  0  0  0  0  0  0
   36.9590   28.4520   39.8020 C   0  0  0  0  0  0  0  0  0  0  0  0
   37.9630   29.2920   39.3860 C   0  0  0  0  0  0  0  0  0  0  0  0
   37.9820   30.6450   39.5300 C   0  0  0  0  0  0  0  0  0  0  0  0
   36.9040   31.2710   40.1460 C   0  0  0  0  0  0  0  0  0  0  0  0
   35.8640   30.5230   40.5960 C   0  0  0  0  0  0  0  0  0  0  0  0
   37.2250   32.6210   40.1230 O   0  0  0  0  0  0  0  0  0  0  0  0
   38.5050   32.8150   39.5430 C   0  0  2  0  0  0  0  0  0  0  0  0
   38.9720   31.5320   39.1340 O   0  0  0  0  0  0  0  0  0  0  0  0
   34.9720   28.7910   40.8730 H   0  0  0  0  0  0  0  0  0  0  0  0
   38.7510   28.7800   38.9260 H   0  0  0  0  0  0  0  0  0  0  0  0
   35.0920   31.1090   41.0560 H   0  0  0  0  0  0  0  0  0  0  0  0
   38.4390   33.4820   38.6780 H   0  0  0  0  0  0  0  0  0  0  0  0
   39.3280   33.2850   40.5850 O   0  0  0  0  0  0  0  0  0  0  0  0
   40.5950   33.8060   40.4350 C   0  0  0  0  0  0  0  0  0  0  0  0
   41.7430   33.1590   40.8910 C   0  0  0  0  0  0  0  0  0  0  0  0
   41.8240   32.1980   41.4040 H   0  0  0  0  0  0  0  0  0  0  0  0
   42.7790   34.0040   40.5470 C   0  0  0  0  0  0  0  0  0  0  0  0
   43.8520   33.8610   40.7280 H   0  0  0  0  0  0  0  0  0  0  0  0
   42.3110   35.0930   39.9270 N   0  0  0  0  0  0  0  0  0  0  0  0
   42.8490   35.9250   39.5420 H   0  0  0  0  0  0  0  0  0  0  0  0
   40.9860   34.9790   39.8560 N   0  0  0  0  0  0  0  0  0  0  0  0
  1  2  1  0  0  0  0
  1  7  1  0  0  0  0
  2  9  1  0  0  0  0
  3 25  1  0  0  0  0
  3  2  2  0  0  0  0
  4  3  1  0  0  0  0
  5  4  2  0  0  0  0
  5  6  1  0  0  0  0
  6  1  2  0  0  0  0
  8  5  1  0  0  0  0
  9 10  1  0  0  0  0
  9 14  1  0  0  0  0
 10 11  1  0  0  0  0
 11 12  1  0  0  0  0
 11 17  1  0  0  0  0
 13 12  1  0  0  0  0
 13 21  1  0  0  0  0
 14 13  1  0  0  0  0
 14 23  1  0  0  0  0
 15 10  1  0  0  0  0
 16 10  1  0  0  0  0
 18 11  1  0  0  0  0
 19 12  1  0  0  0  0
 20 13  1  0  0  0  0
 22 14  1  0  0  0  0
 24 29  1  0  0  0  0
 24 33  1  0  0  0  0
 25 24  2  0  0  0  0
 26 27  2  0  0  0  0
 26 25  1  0  0  0  0
 27 28  1  0  0  0  0
 28 29  2  0  0  0  0
 29 35  1  0  0  0  0
 30 28  1  0  0  0  0
 31 36  1  6  0  0  0
 31 30  1  0  0  0  0
 31 37  1  0  0  0  0
 32 27  1  0  0  0  0
 32 31  1  0  0  0  0
 34 26  1  0  0  0  0
 38 37  1  0  0  0  0
 38 39  1  0  0  0  0
 39 40  1  0  0  0  0
 41 42  1  0  0  0  0
 41 39  2  0  0  0  0
 43 41  1  0  0  0  0
 44 43  1  0  0  0  0
 45 43  1  0  0  0  0
 45 38  2  0  0  0  0
M  END
>  <minimizedAffinity>
-5.95040846

$$$$

 OpenBabel03242523133D

 45 49  0  0  1  0  0  0  0  0999 V2000
   37.5780   31.6300   36.9370 C   0  0  0  0  0  0  0  0  0  0  0  0
   37.9050   31.2160   38.2290 C   0  0  0  0  0  0  0  0  0  0  0  0
   37.6050   29.9460   38.6210 C   0  0  0  0  0  0  0  0  0  0  0  0
   36.9840   29.1380   37.7020 N   0  0  0  0  0  0  0  0  0  0  0  0
   36.6710   29.5420   36.4610 C   0  0  0  0  0  0  0  0  0  0  0  0
   36.9670   30.7630   36.0960 N   0  0  0  0  0  0  0  0  0  0  0  0
   37.8200   32.6470   36.6210 H   0  0  0  0  0  0  0  0  0  0  0  0
   36.1830   28.9460   35.7020 H   0  0  0  0  0  0  0  0  0  0  0  0
   38.5050   32.1560   39.0680 N   0  0  0  0  0  0  0  0  0  0  0  0
   39.9110   32.3990   39.0430 C   0  0  0  0  0  0  0  0  0  0  0  0
   40.3640   33.5600   39.8830 C   0  0  0  0  0  0  0  0  0  0  0  0
   39.5220   34.6740   39.8600 N   0  0  0  0  0  0  0  0  0  0  0  0
   38.1670   34.4290   39.9210 C   0  0  0  0  0  0  0  0  0  0  0  0
   37.8420   32.9540   40.0160 C   0  0  0  0  0  0  0  0  0  0  0  0
   40.3370   32.5220   38.0090 H   0  0  0  0  0  0  0  0  0  0  0  0
   40.4050   31.4870   39.4440 H   0  0  0  0  0  0  0  0  0  0  0  0
   40.5190   33.2180   40.9290 H   0  0  0  0  0  0  0  0  0  0  0  0
   41.3850   33.8520   39.5080 H   0  0  0  0  0  0  0  0  0  0  0  0
   39.8580   35.5070   39.3670 H   0  0  0  0  0  0  0  0  0  0  0  0
   37.5460   34.8650   39.0980 H   0  0  0  0  0  0  0  0  0  0  0  0
   37.7240   34.8780   40.8570 H   0  0  0  0  0  0  0  0  0  0  0  0
   36.7340   32.8280   39.8570 H   0  0  0  0  0  0  0  0  0  0  0  0
   38.0500   32.6100   41.0660 H   0  0  0  0  0  0  0  0  0  0  0  0
   36.5930   28.9070   40.4690 C   0  0  0  0  0  0  0  0  0  0  0  0
   37.7930   29.2260   39.8040 C   0  0  0  0  0  0  0  0  0  0  0  0
   38.8870   28.7950   40.5130 C   0  0  0  0  0  0  0  0  0  0  0  0
   38.8580   28.1460   41.7080 C   0  0  0  0  0  0  0  0  0  0  0  0
   37.6270   27.8780   42.2990 C   0  0  0  0  0  0  0  0  0  0  0  0
   36.4870   28.2610   41.6700 C   0  0  0  0  0  0  0  0  0  0  0  0
   37.9430   27.2320   43.4860 O   0  0  0  0  0  0  0  0  0  0  0  0
   39.3470   27.0630   43.5980 C   0  0  2  0  0  0  0  0  0  0  0  0
   39.9310   27.6870   42.4580 O   0  0  0  0  0  0  0  0  0  0  0  0
   35.5410   29.1000   40.1620 H   0  0  0  0  0  0  0  0  0  0  0  0
   39.7900   29.0200   40.0350 H   0  0  0  0  0  0  0  0  0  0  0  0
   35.5990   28.0000   42.2130 H   0  0  0  0  0  0  0  0  0  0  0  0
   39.7200   27.5350   44.5130 H   0  0  0  0  0  0  0  0  0  0  0  0
   39.5720   25.6760   43.5200 O   0  0  0  0  0  0  0  0  0  0  0  0
   39.0540   24.8310   42.5620 C   0  0  0  0  0  0  0  0  0  0  0  0
   39.7050   24.5520   41.3610 C   0  0  0  0  0  0  0  0  0  0  0  0
   40.6670   24.9290   41.0040 H   0  0  0  0  0  0  0  0  0  0  0  0
   38.8610   23.6790   40.7030 C   0  0  0  0  0  0  0  0  0  0  0  0
   39.0070   23.2170   39.7180 H   0  0  0  0  0  0  0  0  0  0  0  0
   37.7710   23.4350   41.4370 N   0  0  0  0  0  0  0  0  0  0  0  0
   36.9400   22.8110   41.2120 H   0  0  0  0  0  0  0  0  0  0  0  0
   37.8810   24.1310   42.5670 N   0  0  0  0  0  0  0  0  0  0  0  0
  1  2  1  0  0  0  0
  2  3  2  0  0  0  0
  2  9  1  0  0  0  0
  3 25  1  0  0  0  0
  4  3  1  0  0  0  0
  5  4  2  0  0  0  0
  6  5  1  0  0  0  0
  6  1  2  0  0  0  0
  7  1  1  0  0  0  0
  8  5  1  0  0  0  0
  9 14  1  0  0  0  0
 10  9  1  0  0  0  0
 10 16  1  0  0  0  0
 10 11  1  0  0  0  0
 11 17  1  0  0  0  0
 12 11  1  0  0  0  0
 12 13  1  0  0  0  0
 13 14  1  0  0  0  0
 13 21  1  0  0  0  0
 14 23  1  0  0  0  0
 15 10  1  0  0  0  0
 18 11  1  0  0  0  0
 19 12  1  0  0  0  0
 20 13  1  0  0  0  0
 22 14  1  0  0  0  0
 24 29  1  0  0  0  0
 25 24  2  0  0  0  0
 25 26  1  0  0  0  0
 26 27  2  0  0  0  0
 27 28  1  0  0  0  0
 27 32  1  0  0  0  0
 28 30  1  0  0  0  0
 29 35  1  0  0  0  0
 29 28  2  0  0  0  0
 30 31  1  0  0  0  0
 31 36  1  1  0  0  0
 32 31  1  0  0  0  0
 33 24  1  0  0  0  0
 34 26  1  0  0  0  0
 37 31  1  0  0  0  0
 38 45  2  0  0  0  0
 38 37  1  0  0  0  0
 39 38  1  0  0  0  0
 40 39  1  0  0  0  0
 41 39  2  0  0  0  0
 41 43  1  0  0  0  0
 42 41  1  0  0  0  0
 43 45  1  0  0  0  0
 44 43  1  0  0  0  0
M  END
>  <minimizedAffinity>
-5.86344671

$$$$
