
 OpenBabel03242514193D

 48 50  0  0  0  0  0  0  0  0999 V2000
   46.1540   34.5650   43.6150 C   0  0  0  0  0  0  0  0  0  0  0  0
   46.1480   33.7940   44.7520 C   0  0  0  0  0  0  0  0  0  0  0  0
   45.3200   34.1840   45.7640 C   0  0  0  0  0  0  0  0  0  0  0  0
   44.5510   35.2860   45.6170 N   0  0  0  0  0  0  0  0  0  0  0  0
   44.5550   36.0270   44.5220 C   0  0  0  0  0  0  0  0  0  0  0  0
   45.3590   35.6560   43.5360 N   0  0  0  0  0  0  0  0  0  0  0  0
   45.1710   33.7220   46.7300 H   0  0  0  0  0  0  0  0  0  0  0  0
   43.9570   36.9200   44.3520 H   0  0  0  0  0  0  0  0  0  0  0  0
   46.9940   34.1070   42.5000 C   0  0  0  0  0  0  0  0  0  0  0  0
   48.3820   34.6740   42.5930 C   0  0  0  0  0  0  0  0  0  0  0  0
   48.6960   35.5670   41.4760 C   0  0  0  0  0  0  0  0  0  0  0  0
   48.5070   34.8820   40.1380 C   0  0  0  0  0  0  0  0  0  0  0  0
   47.2530   34.1000   40.0490 C   0  0  0  0  0  0  0  0  0  0  0  0
   46.3250   34.3950   41.2050 C   0  0  0  0  0  0  0  0  0  0  0  0
   47.1710   33.0220   42.6220 H   0  0  0  0  0  0  0  0  0  0  0  0
   49.1600   33.8920   42.6570 H   0  0  0  0  0  0  0  0  0  0  0  0
   48.4570   35.2370   43.5460 H   0  0  0  0  0  0  0  0  0  0  0  0
   47.9400   36.4070   41.4850 H   0  0  0  0  0  0  0  0  0  0  0  0
   49.6920   36.0100   41.4790 H   0  0  0  0  0  0  0  0  0  0  0  0
   48.6150   35.6140   39.2950 H   0  0  0  0  0  0  0  0  0  0  0  0
   49.3830   34.1810   40.0150 H   0  0  0  0  0  0  0  0  0  0  0  0
   46.6810   34.2160   39.1000 H   0  0  0  0  0  0  0  0  0  0  0  0
   47.4610   32.9960   40.1170 H   0  0  0  0  0  0  0  0  0  0  0  0
   45.4260   33.7500   41.1300 H   0  0  0  0  0  0  0  0  0  0  0  0
   46.0520   35.4810   41.1440 H   0  0  0  0  0  0  0  0  0  0  0  0
   46.8220   32.6900   45.0790 O   0  0  0  0  0  0  0  0  0  0  0  0
   47.2540   32.1450   46.2510 C   0  0  0  0  0  0  0  0  0  0  0  0
   48.3650   32.3440   46.3280 H   0  0  0  0  0  0  0  0  0  0  0  0
   46.8410   32.5130   47.1940 H   0  0  0  0  0  0  0  0  0  0  0  0
   47.1360   30.6340   46.3200 C   0  0  0  0  0  0  0  0  0  0  0  0
   48.0940   30.2050   45.9320 H   0  0  0  0  0  0  0  0  0  0  0  0
   47.1070   30.3460   47.4080 H   0  0  0  0  0  0  0  0  0  0  0  0
   46.0060   30.1360   45.5760 N   0  0  0  0  0  0  0  0  0  0  0  0
   46.3010   29.2520   45.0980 H   0  0  0  0  0  0  0  0  0  0  0  0
   44.8150   29.6060   46.7370 S   0  0  0  0  0  0  0  0  0  0  0  0
   43.5640   29.1430   46.0570 O   0  0  0  0  0  0  0  0  0  0  0  0
   43.0780   29.6410   45.3760 H   0  0  0  0  0  0  0  0  0  0  0  0
   44.5280   30.7620   47.6390 O   0  0  0  0  0  0  0  0  0  0  0  0
   44.9990   30.8850   48.4980 H   0  0  0  0  0  0  0  0  0  0  0  0
   45.4280   28.3630   47.6790 O   0  0  0  0  0  0  0  0  0  0  0  0
   45.8100   27.1980   47.0210 C   0  0  0  0  0  0  0  0  0  0  0  0
   45.7110   26.5540   45.7920 C   0  0  0  0  0  0  0  0  0  0  0  0
   45.1460   27.1300   45.0690 H   0  0  0  0  0  0  0  0  0  0  0  0
   46.3970   25.3490   45.9220 C   0  0  0  0  0  0  0  0  0  0  0  0
   46.4060   24.7320   45.0330 H   0  0  0  0  0  0  0  0  0  0  0  0
   46.8820   25.2820   47.1760 N   0  0  0  0  0  0  0  0  0  0  0  0
   47.4310   24.4420   47.4640 H   0  0  0  0  0  0  0  0  0  0  0  0
   46.5350   26.3860   47.8410 N   0  0  0  0  0  0  0  0  0  0  0  0
  1  2  1  0  0  0  0
  2 26  1  0  0  0  0
  2  3  2  0  0  0  0
  3  7  1  0  0  0  0
  4  3  1  0  0  0  0
  5  4  2  0  0  0  0
  6  1  2  0  0  0  0
  6  5  1  0  0  0  0
  8  5  1  0  0  0  0
  9 10  1  0  0  0  0
  9 15  1  0  0  0  0
  9  1  1  0  0  0  0
 10 16  1  0  0  0  0
 10 17  1  0  0  0  0
 11 19  1  0  0  0  0
 11 18  1  0  0  0  0
 11 10  1  0  0  0  0
 12 11  1  0  0  0  0
 13 23  1  0  0  0  0
 13 12  1  0  0  0  0
 13 14  1  0  0  0  0
 14  9  1  0  0  0  0
 20 12  1  0  0  0  0
 21 12  1  0  0  0  0
 22 13  1  0  0  0  0
 24 14  1  0  0  0  0
 25 14  1  0  0  0  0
 26 27  1  0  0  0  0
 27 30  1  0  0  0  0
 27 28  1  0  0  0  0
 27 29  1  0  0  0  0
 30 32  1  0  0  0  0
 31 30  1  0  0  0  0
 33 30  1  0  0  0  0
 33 35  1  0  0  0  0
 34 33  1  0  0  0  0
 35 38  1  0  0  0  0
 35 40  1  0  0  0  0
 36 35  1  0  0  0  0
 37 36  1  0  0  0  0
 38 39  1  0  0  0  0
 41 40  1  0  0  0  0
 41 48  2  0  0  0  0
 42 44  2  0  0  0  0
 42 41  1  0  0  0  0
 43 42  1  0  0  0  0
 44 46  1  0  0  0  0
 45 44  1  0  0  0  0
 46 47  1  0  0  0  0
 46 48  1  0  0  0  0
M  END
>  <minimizedAffinity>
-5.38531399

>  <minimizedRMSD>
0.579387248

$$$$
