
 OpenBabel03252500543D

 29 30  0  0  0  0  0  0  0  0999 V2000
   46.5100   34.4230   42.9370 C   0  0  0  0  0  0  0  0  0  0  0  0
   45.2780   34.8530   43.3910 C   0  0  0  0  0  0  0  0  0  0  0  0
   44.9290   34.5250   44.7130 C   0  0  0  0  0  0  0  0  0  0  0  0
   45.8100   33.8190   45.4440 N   0  0  0  0  0  0  0  0  0  0  0  0
   47.0010   33.4160   44.9730 C   0  0  0  0  0  0  0  0  0  0  0  0
   47.3430   33.7210   43.7190 N   0  0  0  0  0  0  0  0  0  0  0  0
   43.9620   34.8720   45.0470 H   0  0  0  0  0  0  0  0  0  0  0  0
   47.6560   32.8440   45.6380 H   0  0  0  0  0  0  0  0  0  0  0  0
   46.9510   34.7210   41.5730 C   0  0  0  0  0  0  0  0  0  0  0  0
   46.2200   35.3550   41.0260 H   0  0  0  0  0  0  0  0  0  0  0  0
   47.0310   33.7660   41.0130 H   0  0  0  0  0  0  0  0  0  0  0  0
   48.3320   35.3330   41.6180 C   0  0  0  0  0  0  0  0  0  0  0  0
   49.0250   34.8140   40.9030 H   0  0  0  0  0  0  0  0  0  0  0  0
   48.2220   36.3940   41.2580 H   0  0  0  0  0  0  0  0  0  0  0  0
   48.7650   35.3810   42.6320 H   0  0  0  0  0  0  0  0  0  0  0  0
   44.4940   35.5690   42.5070 O   0  0  0  0  0  0  0  0  0  0  0  0
   43.5090   35.4240   40.0720 O   0  0  0  0  0  0  0  0  0  0  0  0
   43.2770   34.9660   41.5100 P   0  0  1  0  0  0  0  0  0  0  0  0
   43.3930   33.2590   41.5290 O   0  0  0  0  0  0  0  0  0  0  0  0
   42.6330   32.8270   41.0650 H   0  0  0  0  0  0  0  0  0  0  0  0
   41.7210   35.3830   42.0260 O   0  0  0  0  0  0  0  0  0  0  0  0
   40.6370   35.1290   41.1980 C   0  0  0  0  0  0  0  0  0  0  0  0
   40.0500   33.8900   41.4760 C   0  0  0  0  0  0  0  0  0  0  0  0
   40.2100   33.0530   42.1740 H   0  0  0  0  0  0  0  0  0  0  0  0
   38.9730   33.7040   40.6100 C   0  0  0  0  0  0  0  0  0  0  0  0
   38.2280   32.9530   40.4220 H   0  0  0  0  0  0  0  0  0  0  0  0
   38.9550   34.8340   39.8490 N   0  0  0  0  0  0  0  0  0  0  0  0
   38.3730   35.2250   39.0570 H   0  0  0  0  0  0  0  0  0  0  0  0
   39.9290   35.6580   40.2000 N   0  0  0  0  0  0  0  0  0  0  0  0
  1  2  2  0  0  0  0
  1  6  1  0  0  0  0
  2  3  1  0  0  0  0
  3  7  1  0  0  0  0
  3  4  2  0  0  0  0
  5  4  1  0  0  0  0
  5  8  1  0  0  0  0
  6  5  2  0  0  0  0
  9 12  1  0  0  0  0
  9  1  1  0  0  0  0
 10  9  1  0  0  0  0
 11  9  1  0  0  0  0
 12 15  1  0  0  0  0
 13 12  1  0  0  0  0
 14 12  1  0  0  0  0
 16  2  1  0  0  0  0
 18 17  2  6  0  0  0
 18 19  1  0  0  0  0
 18 21  1  0  0  0  0
 18 16  1  0  0  0  0
 20 19  1  0  0  0  0
 22 23  1  0  0  0  0
 22 21  1  0  0  0  0
 23 24  1  0  0  0  0
 25 23  2  0  0  0  0
 26 25  1  0  0  0  0
 27 29  1  0  0  0  0
 27 25  1  0  0  0  0
 28 27  1  0  0  0  0
 29 22  2  0  0  0  0
M  END
>  <minimizedAffinity>
-4.62238026

>  <minimizedRMSD>
0.893347323

$$$$
