
 OpenBabel03252504223D

 31 34  0  0  0  0  0  0  0  0999 V2000
   46.9210   33.4240   39.1150 C   0  0  0  0  0  0  0  0  0  0  0  0
   48.2890   33.2250   39.2620 C   0  0  0  0  0  0  0  0  0  0  0  0
   48.8700   33.4890   40.5260 C   0  0  0  0  0  0  0  0  0  0  0  0
   48.0290   33.9230   41.5100 N   0  0  0  0  0  0  0  0  0  0  0  0
   46.7000   34.1030   41.3160 C   0  0  0  0  0  0  0  0  0  0  0  0
   46.1600   33.8530   40.1230 N   0  0  0  0  0  0  0  0  0  0  0  0
   45.9260   34.5620   42.4180 N   0  0  0  0  0  0  0  0  0  0  0  0
   44.9810   35.5360   42.3680 C   0  0  0  0  0  0  0  0  0  0  0  0
   44.4710   35.6870   43.6240 N   0  0  0  0  0  0  0  0  0  0  0  0
   45.1090   34.8130   44.4080 C   0  0  0  0  0  0  0  0  0  0  0  0
   45.0360   34.5010   45.7420 C   0  0  0  0  0  0  0  0  0  0  0  0
   45.7960   33.5660   46.3000 N   0  0  0  0  0  0  0  0  0  0  0  0
   46.7010   32.8540   45.5910 C   0  0  0  0  0  0  0  0  0  0  0  0
   46.7620   33.1730   44.2760 N   0  0  0  0  0  0  0  0  0  0  0  0
   46.0300   34.0930   43.6680 C   0  0  0  0  0  0  0  0  0  0  0  0
   48.9840   32.8820   38.5050 H   0  0  0  0  0  0  0  0  0  0  0  0
   49.9160   33.3510   40.6900 H   0  0  0  0  0  0  0  0  0  0  0  0
   44.6450   36.1240   41.5150 H   0  0  0  0  0  0  0  0  0  0  0  0
   47.3230   32.0920   46.0390 H   0  0  0  0  0  0  0  0  0  0  0  0
   44.1470   35.1510   46.6240 N   0  0  0  0  0  0  0  0  0  0  0  0
   43.3730   34.7260   47.2010 H   0  0  0  0  0  0  0  0  0  0  0  0
   44.3340   36.1900   46.6640 H   0  0  0  0  0  0  0  0  0  0  0  0
   46.2710   33.0680   37.4610 S   0  0  0  0  0  0  0  0  0  0  0  0
   47.6270   32.5150   36.4390 C   0  0  0  0  0  0  0  0  0  0  0  0
   47.8430   31.1480   36.2310 C   0  0  0  0  0  0  0  0  0  0  0  0
   47.3250   30.2460   36.5820 H   0  0  0  0  0  0  0  0  0  0  0  0
   48.9600   31.0030   35.3990 C   0  0  0  0  0  0  0  0  0  0  0  0
   49.4780   30.1570   34.9870 H   0  0  0  0  0  0  0  0  0  0  0  0
   49.3730   32.2790   35.1400 N   0  0  0  0  0  0  0  0  0  0  0  0
   50.1910   32.6010   34.5460 H   0  0  0  0  0  0  0  0  0  0  0  0
   48.5970   33.1780   35.7450 N   0  0  0  0  0  0  0  0  0  0  0  0
  1  2  2  0  0  0  0
  1  6  1  0  0  0  0
  2  3  1  0  0  0  0
  3 17  1  0  0  0  0
  3  4  2  0  0  0  0
  5  4  1  0  0  0  0
  5  7  1  0  0  0  0
  6  5  2  0  0  0  0
  7 15  1  0  0  0  0
  8  7  1  0  0  0  0
  8  9  2  0  0  0  0
  9 10  1  0  0  0  0
 10 11  1  0  0  0  0
 11 12  2  0  0  0  0
 11 20  1  0  0  0  0
 13 19  1  0  0  0  0
 13 12  1  0  0  0  0
 14 13  2  0  0  0  0
 15 14  1  0  0  0  0
 15 10  2  0  0  0  0
 16  2  1  0  0  0  0
 18  8  1  0  0  0  0
 20 22  1  0  0  0  0
 20 21  1  0  0  0  0
 23  1  1  0  0  0  0
 24 23  1  0  0  0  0
 25 24  1  0  0  0  0
 25 26  1  0  0  0  0
 27 25  2  0  0  0  0
 28 27  1  0  0  0  0
 29 27  1  0  0  0  0
 29 31  1  0  0  0  0
 30 29  1  0  0  0  0
 31 24  2  0  0  0  0
M  END
>  <minimizedAffinity>
-5.98009205

>  <minimizedRMSD>
1.38200963

$$$$
