
 OpenBabel03252509083D

 40 43  0  0  0  0  0  0  0  0999 V2000
   47.7090   33.5710   40.1220 C   0  0  0  0  0  0  0  0  0  0  0  0
   47.4070   33.2760   41.4170 C   0  0  0  0  0  0  0  0  0  0  0  0
   47.8010   34.1300   42.4340 C   0  0  0  0  0  0  0  0  0  0  0  0
   48.4970   35.2780   42.1390 C   0  0  0  0  0  0  0  0  0  0  0  0
   48.8250   35.6180   40.8260 C   0  0  0  0  0  0  0  0  0  0  0  0
   48.4160   34.7370   39.8180 C   0  0  0  0  0  0  0  0  0  0  0  0
   47.5900   33.9430   43.4590 H   0  0  0  0  0  0  0  0  0  0  0  0
   48.8530   36.0110   42.8380 H   0  0  0  0  0  0  0  0  0  0  0  0
   49.3590   36.4860   40.5230 H   0  0  0  0  0  0  0  0  0  0  0  0
   48.6560   34.9710   38.7770 H   0  0  0  0  0  0  0  0  0  0  0  0
   42.9110   31.0140   42.5760 Cl  0  0  0  0  0  0  0  0  0  0  0  0
   44.6470   31.0360   42.3640 C   0  0  0  0  0  0  0  0  0  0  0  0
   45.2880   32.1620   41.9610 C   0  0  0  0  0  0  0  0  0  0  0  0
   46.6660   32.0850   41.8390 C   0  0  0  0  0  0  0  0  0  0  0  0
   47.3550   30.9290   42.1090 C   0  0  0  0  0  0  0  0  0  0  0  0
   46.6960   29.8140   42.5100 C   0  0  0  0  0  0  0  0  0  0  0  0
   45.3230   29.8750   42.6380 C   0  0  0  0  0  0  0  0  0  0  0  0
   48.4410   30.9200   41.9960 H   0  0  0  0  0  0  0  0  0  0  0  0
   47.2780   28.9260   42.7130 H   0  0  0  0  0  0  0  0  0  0  0  0
   44.8180   28.9710   42.9610 H   0  0  0  0  0  0  0  0  0  0  0  0
   43.1450   34.7610   40.2620 C   0  0  0  0  0  0  0  0  0  0  0  0
   43.8870   33.5990   40.5020 C   0  0  0  0  0  0  0  0  0  0  0  0
   44.5190   33.3590   41.7020 C   0  0  0  0  0  0  0  0  0  0  0  0
   44.3600   34.3420   42.6280 N   0  0  0  0  0  0  0  0  0  0  0  0
   43.6540   35.4540   42.4090 C   0  0  0  0  0  0  0  0  0  0  0  0
   43.0510   35.6590   41.2330 N   0  0  0  0  0  0  0  0  0  0  0  0
   42.7070   34.8120   39.2750 H   0  0  0  0  0  0  0  0  0  0  0  0
   43.9920   32.8360   39.7380 H   0  0  0  0  0  0  0  0  0  0  0  0
   43.5890   36.1750   43.2140 H   0  0  0  0  0  0  0  0  0  0  0  0
   47.2070   32.5790   38.8580 S   0  0  0  0  0  0  0  0  0  0  0  0
   46.5850   31.2900   39.3510 O   0  0  0  0  0  0  0  0  0  0  0  0
   45.9730   33.3450   38.2540 O   0  0  0  0  0  0  0  0  0  0  0  0
   48.1660   32.1730   37.4900 C   0  0  0  0  0  0  0  0  0  0  0  0
   47.9580   32.8490   36.2600 C   0  0  0  0  0  0  0  0  0  0  0  0
   47.2350   33.6600   36.0310 H   0  0  0  0  0  0  0  0  0  0  0  0
   48.7680   32.4260   35.2330 C   0  0  0  0  0  0  0  0  0  0  0  0
   48.8300   32.7490   34.2190 H   0  0  0  0  0  0  0  0  0  0  0  0
   49.4830   31.4800   35.8360 N   0  0  0  0  0  0  0  0  0  0  0  0
   50.2520   30.8630   35.4330 H   0  0  0  0  0  0  0  0  0  0  0  0
   49.1430   31.3570   37.0610 N   0  0  0  0  0  0  0  0  0  0  0  0
  1  2  1  0  0  0  0
  2 14  1  0  0  0  0
  2  3  2  0  0  0  0
  3  7  1  0  0  0  0
  4  3  1  0  0  0  0
  4  8  1  0  0  0  0
  5  4  2  0  0  0  0
  6  1  2  0  0  0  0
  6  5  1  0  0  0  0
  9  5  1  0  0  0  0
 10  6  1  0  0  0  0
 12 11  1  0  0  0  0
 12 17  1  0  0  0  0
 13 12  2  0  0  0  0
 14 13  1  0  0  0  0
 14 15  2  0  0  0  0
 15 16  1  0  0  0  0
 16 17  2  0  0  0  0
 16 19  1  0  0  0  0
 17 20  1  0  0  0  0
 18 15  1  0  0  0  0
 21 22  2  0  0  0  0
 21 26  1  0  0  0  0
 22 23  1  0  0  0  0
 23 13  1  0  0  0  0
 23 24  2  0  0  0  0
 25 24  1  0  0  0  0
 25 29  1  0  0  0  0
 26 25  2  0  0  0  0
 27 21  1  0  0  0  0
 28 22  1  0  0  0  0
 30 31  2  0  0  0  0
 30  1  1  0  0  0  0
 32 30  2  0  0  0  0
 33 30  1  0  0  0  0
 34 33  1  0  0  0  0
 35 34  1  0  0  0  0
 36 38  1  0  0  0  0
 36 34  2  0  0  0  0
 37 36  1  0  0  0  0
 38 40  1  0  0  0  0
 39 38  1  0  0  0  0
 40 33  2  0  0  0  0
M  END
>  <minimizedAffinity>
-4.71871519

>  <minimizedRMSD>
4.99399567

$$$$
