
 OpenBabel03252504223D

 31 34  0  0  0  0  0  0  0  0999 V2000
   47.5760   33.5280   40.1300 C   0  0  0  0  0  0  0  0  0  0  0  0
   48.9270   33.2850   40.3550 C   0  0  0  0  0  0  0  0  0  0  0  0
   49.4080   33.3690   41.6840 C   0  0  0  0  0  0  0  0  0  0  0  0
   48.4960   33.6870   42.6490 N   0  0  0  0  0  0  0  0  0  0  0  0
   47.1880   33.9160   42.3790 C   0  0  0  0  0  0  0  0  0  0  0  0
   46.7420   33.8350   41.1250 N   0  0  0  0  0  0  0  0  0  0  0  0
   46.3350   34.2410   43.4690 N   0  0  0  0  0  0  0  0  0  0  0  0
   45.4050   35.2310   43.4760 C   0  0  0  0  0  0  0  0  0  0  0  0
   44.7990   35.2260   44.6980 N   0  0  0  0  0  0  0  0  0  0  0  0
   45.3650   34.2440   45.4060 C   0  0  0  0  0  0  0  0  0  0  0  0
   45.1840   33.7610   46.6770 C   0  0  0  0  0  0  0  0  0  0  0  0
   45.8900   32.7460   47.1640 N   0  0  0  0  0  0  0  0  0  0  0  0
   46.8410   32.1160   46.4370 C   0  0  0  0  0  0  0  0  0  0  0  0
   47.0090   32.6040   45.1860 N   0  0  0  0  0  0  0  0  0  0  0  0
   46.3350   33.6100   44.6500 C   0  0  0  0  0  0  0  0  0  0  0  0
   49.6760   33.0310   39.6150 H   0  0  0  0  0  0  0  0  0  0  0  0
   50.4360   33.1910   41.9080 H   0  0  0  0  0  0  0  0  0  0  0  0
   45.1430   35.9330   42.6850 H   0  0  0  0  0  0  0  0  0  0  0  0
   47.4190   31.2900   46.8280 H   0  0  0  0  0  0  0  0  0  0  0  0
   44.2350   34.3070   47.5660 N   0  0  0  0  0  0  0  0  0  0  0  0
   43.4140   33.8240   48.0210 H   0  0  0  0  0  0  0  0  0  0  0  0
   44.4280   35.3280   47.7580 H   0  0  0  0  0  0  0  0  0  0  0  0
   47.0560   33.4050   38.3990 S   0  0  0  0  0  0  0  0  0  0  0  0
   48.3310   32.5410   37.4950 C   0  0  0  0  0  0  0  0  0  0  0  0
   48.3070   31.1460   37.3990 C   0  0  0  0  0  0  0  0  0  0  0  0
   47.6220   30.3800   37.7860 H   0  0  0  0  0  0  0  0  0  0  0  0
   49.4130   30.7400   36.6420 C   0  0  0  0  0  0  0  0  0  0  0  0
   49.7870   29.7860   36.3210 H   0  0  0  0  0  0  0  0  0  0  0  0
   50.0580   31.8990   36.3140 N   0  0  0  0  0  0  0  0  0  0  0  0
   50.9440   32.0230   35.7440 H   0  0  0  0  0  0  0  0  0  0  0  0
   49.4320   32.9660   36.8090 N   0  0  0  0  0  0  0  0  0  0  0  0
  1  2  2  0  0  0  0
  1  6  1  0  0  0  0
  2  3  1  0  0  0  0
  3 17  1  0  0  0  0
  3  4  2  0  0  0  0
  5  4  1  0  0  0  0
  5  7  1  0  0  0  0
  6  5  2  0  0  0  0
  7  8  1  0  0  0  0
  7 15  1  0  0  0  0
  8  9  2  0  0  0  0
  9 10  1  0  0  0  0
 10 11  1  0  0  0  0
 11 12  2  0  0  0  0
 11 20  1  0  0  0  0
 13 19  1  0  0  0  0
 13 12  1  0  0  0  0
 14 13  2  0  0  0  0
 15 14  1  0  0  0  0
 15 10  2  0  0  0  0
 16  2  1  0  0  0  0
 18  8  1  0  0  0  0
 20 22  1  0  0  0  0
 20 21  1  0  0  0  0
 23  1  1  0  0  0  0
 24 23  1  0  0  0  0
 25 24  1  0  0  0  0
 25 26  1  0  0  0  0
 27 25  2  0  0  0  0
 28 27  1  0  0  0  0
 29 27  1  0  0  0  0
 29 31  1  0  0  0  0
 30 29  1  0  0  0  0
 31 24  2  0  0  0  0
M  END
>  <minimizedAffinity>
-5.48580647

>  <minimizedRMSD>
0.802424669

$$$$
