
 OpenBabel03252504223D

 31 34  0  0  0  0  0  0  0  0999 V2000
   46.9680   33.4680   39.4980 C   0  0  0  0  0  0  0  0  0  0  0  0
   48.3350   33.2460   39.6210 C   0  0  0  0  0  0  0  0  0  0  0  0
   48.9290   33.4280   40.8930 C   0  0  0  0  0  0  0  0  0  0  0  0
   48.1020   33.8120   41.9090 N   0  0  0  0  0  0  0  0  0  0  0  0
   46.7730   34.0160   41.7380 C   0  0  0  0  0  0  0  0  0  0  0  0
   46.2200   33.8430   40.5380 N   0  0  0  0  0  0  0  0  0  0  0  0
   46.0140   34.4160   42.8730 N   0  0  0  0  0  0  0  0  0  0  0  0
   45.0800   35.4010   42.8900 C   0  0  0  0  0  0  0  0  0  0  0  0
   44.5820   35.4820   44.1580 N   0  0  0  0  0  0  0  0  0  0  0  0
   45.2180   34.5560   44.8830 C   0  0  0  0  0  0  0  0  0  0  0  0
   45.1530   34.1660   46.1960 C   0  0  0  0  0  0  0  0  0  0  0  0
   45.9080   33.1910   46.6900 N   0  0  0  0  0  0  0  0  0  0  0  0
   46.7990   32.5140   45.9310 C   0  0  0  0  0  0  0  0  0  0  0  0
   46.8510   32.9110   44.6370 N   0  0  0  0  0  0  0  0  0  0  0  0
   46.1240   33.8730   44.0910 C   0  0  0  0  0  0  0  0  0  0  0  0
   49.0190   32.9420   38.8380 H   0  0  0  0  0  0  0  0  0  0  0  0
   49.9750   33.2700   41.0380 H   0  0  0  0  0  0  0  0  0  0  0  0
   44.7420   36.0430   42.0770 H   0  0  0  0  0  0  0  0  0  0  0  0
   47.4170   31.7200   46.3270 H   0  0  0  0  0  0  0  0  0  0  0  0
   44.2790   34.7710   47.1230 N   0  0  0  0  0  0  0  0  0  0  0  0
   43.5060   34.3200   47.6810 H   0  0  0  0  0  0  0  0  0  0  0  0
   44.4780   35.8040   47.2230 H   0  0  0  0  0  0  0  0  0  0  0  0
   46.2990   33.2180   37.8330 S   0  0  0  0  0  0  0  0  0  0  0  0
   47.6320   32.6740   36.7750 C   0  0  0  0  0  0  0  0  0  0  0  0
   47.8050   31.3130   36.5000 C   0  0  0  0  0  0  0  0  0  0  0  0
   47.2600   30.4110   36.8110 H   0  0  0  0  0  0  0  0  0  0  0  0
   48.9120   31.1740   35.6550 C   0  0  0  0  0  0  0  0  0  0  0  0
   49.4010   30.3330   35.1970 H   0  0  0  0  0  0  0  0  0  0  0  0
   49.3620   32.4490   35.4540 N   0  0  0  0  0  0  0  0  0  0  0  0
   50.1860   32.7740   34.8690 H   0  0  0  0  0  0  0  0  0  0  0  0
   48.6170   33.3410   36.1070 N   0  0  0  0  0  0  0  0  0  0  0  0
  1  2  2  0  0  0  0
  1  6  1  0  0  0  0
  2  3  1  0  0  0  0
  3 17  1  0  0  0  0
  3  4  2  0  0  0  0
  5  4  1  0  0  0  0
  5  7  1  0  0  0  0
  6  5  2  0  0  0  0
  7  8  1  0  0  0  0
  7 15  1  0  0  0  0
  8  9  2  0  0  0  0
  9 10  1  0  0  0  0
 10 11  1  0  0  0  0
 11 12  2  0  0  0  0
 11 20  1  0  0  0  0
 13 19  1  0  0  0  0
 13 12  1  0  0  0  0
 14 13  2  0  0  0  0
 15 14  1  0  0  0  0
 15 10  2  0  0  0  0
 16  2  1  0  0  0  0
 18  8  1  0  0  0  0
 20 22  1  0  0  0  0
 20 21  1  0  0  0  0
 23  1  1  0  0  0  0
 24 23  1  0  0  0  0
 25 24  1  0  0  0  0
 25 26  1  0  0  0  0
 27 25  2  0  0  0  0
 28 27  1  0  0  0  0
 29 27  1  0  0  0  0
 29 31  1  0  0  0  0
 30 29  1  0  0  0  0
 31 24  2  0  0  0  0
M  END
>  <minimizedAffinity>
-5.8720026

>  <minimizedRMSD>
0.949659884

$$$$
