
 OpenBabel03242516453D

 41 45  0  0  1  0  0  0  0  0999 V2000
   45.4290   32.9960   42.2280 C   0  0  0  0  0  0  0  0  0  0  0  0
   44.6170   31.9250   42.3610 N   0  0  0  0  0  0  0  0  0  0  0  0
   43.3650   32.2320   42.0090 C   0  0  0  0  0  0  0  0  0  0  0  0
   43.3800   33.5390   41.6420 N   0  0  0  0  0  0  0  0  0  0  0  0
   44.6080   34.0120   41.7670 N   0  0  0  0  0  0  0  0  0  0  0  0
   42.4680   31.6230   41.9930 H   0  0  0  0  0  0  0  0  0  0  0  0
   40.3820   32.8020   41.3650 O   0  0  0  0  0  0  0  0  0  0  0  0
   41.1650   33.4910   40.6390 C   0  0  0  0  0  0  0  0  0  0  0  0
   42.2570   34.3380   41.1770 C   0  0  2  0  0  0  0  0  0  0  0  0
   42.6540   35.1940   39.9850 C   0  0  0  0  0  0  0  0  0  0  0  0
   42.4480   34.2050   38.8300 C   0  0  0  0  0  0  0  0  0  0  0  0
   41.1750   33.6060   39.1990 N   0  0  0  0  0  0  0  0  0  0  0  0
   41.9370   35.0400   41.9650 H   0  0  0  0  0  0  0  0  0  0  0  0
   41.9890   36.0650   39.8760 H   0  0  0  0  0  0  0  0  0  0  0  0
   43.7030   35.5320   40.0410 H   0  0  0  0  0  0  0  0  0  0  0  0
   42.4070   34.7810   37.8910 H   0  0  0  0  0  0  0  0  0  0  0  0
   43.2740   33.4900   38.8970 H   0  0  0  0  0  0  0  0  0  0  0  0
   40.0440   33.1520   38.4610 C   0  0  0  0  0  0  0  0  0  0  0  0
   39.0230   34.0760   38.2130 C   0  0  0  0  0  0  0  0  0  0  0  0
   38.8230   35.1250   38.4360 H   0  0  0  0  0  0  0  0  0  0  0  0
   38.0540   33.3770   37.4840 C   0  0  0  0  0  0  0  0  0  0  0  0
   37.0930   33.7330   37.0880 H   0  0  0  0  0  0  0  0  0  0  0  0
   38.5040   32.1000   37.3220 N   0  0  0  0  0  0  0  0  0  0  0  0
   37.9950   31.3290   36.8120 H   0  0  0  0  0  0  0  0  0  0  0  0
   39.7030   31.9830   37.9160 N   0  0  0  0  0  0  0  0  0  0  0  0
   47.5160   33.2200   43.8110 C   0  0  1  0  0  0  0  0  0  0  0  0
   46.8620   33.1650   42.4770 C   0  0  2  0  0  0  0  0  0  0  0  0
   47.3230   34.4370   42.9920 C   0  0  0  0  0  0  0  0  0  0  0  0
   48.4980   32.7040   43.8360 H   0  0  0  0  0  0  0  0  0  0  0  0
   47.4680   32.7650   41.6100 H   0  0  0  0  0  0  0  0  0  0  0  0
   48.2710   34.9090   42.5950 H   0  0  0  0  0  0  0  0  0  0  0  0
   46.6090   35.2290   43.2930 H   0  0  0  0  0  0  0  0  0  0  0  0
   46.9210   31.8510   45.8040 C   0  0  0  0  0  0  0  0  0  0  0  0
   46.7450   33.0200   45.0640 C   0  0  0  0  0  0  0  0  0  0  0  0
   45.8560   33.9390   45.5690 C   0  0  0  0  0  0  0  0  0  0  0  0
   45.2180   33.6530   46.7320 N   0  0  0  0  0  0  0  0  0  0  0  0
   45.4040   32.5340   47.4160 C   0  0  0  0  0  0  0  0  0  0  0  0
   46.2710   31.6260   46.9350 N   0  0  0  0  0  0  0  0  0  0  0  0
   47.6050   31.0610   45.4870 H   0  0  0  0  0  0  0  0  0  0  0  0
   45.6830   34.8540   45.0420 H   0  0  0  0  0  0  0  0  0  0  0  0
   44.8170   32.4620   48.3250 H   0  0  0  0  0  0  0  0  0  0  0  0
  1  2  1  0  0  0  0
  1 27  1  0  0  0  0
  3  2  2  0  0  0  0
  4  5  1  0  0  0  0
  4  3  1  0  0  0  0
  5  1  2  0  0  0  0
  6  3  1  0  0  0  0
  8  9  1  0  0  0  0
  8  7  2  0  0  0  0
  9  4  1  0  0  0  0
  9 13  1  1  0  0  0
 10 15  1  0  0  0  0
 10  9  1  0  0  0  0
 11 17  1  0  0  0  0
 11 12  1  0  0  0  0
 11 10  1  0  0  0  0
 12  8  1  0  0  0  0
 14 10  1  0  0  0  0
 16 11  1  0  0  0  0
 18 12  1  0  0  0  0
 19 20  1  0  0  0  0
 19 18  1  0  0  0  0
 21 19  2  0  0  0  0
 22 21  1  0  0  0  0
 23 21  1  0  0  0  0
 23 25  1  0  0  0  0
 24 23  1  0  0  0  0
 25 18  2  0  0  0  0
 26 29  1  1  0  0  0
 26 34  1  0  0  0  0
 27 30  1  6  0  0  0
 27 28  1  0  0  0  0
 27 26  1  0  0  0  0
 28 32  1  0  0  0  0
 28 26  1  0  0  0  0
 31 28  1  0  0  0  0
 33 38  1  0  0  0  0
 34 35  1  0  0  0  0
 34 33  2  0  0  0  0
 35 36  2  0  0  0  0
 36 37  1  0  0  0  0
 37 41  1  0  0  0  0
 38 37  2  0  0  0  0
 39 33  1  0  0  0  0
 40 35  1  0  0  0  0
M  END
>  <minimizedAffinity>
-5.88984823

>  <minimizedRMSD>
1.43052912

$$$$
