
 OpenBabel03242515093D

 35 37  0  0  0  0  0  0  0  0999 V2000
   46.3780   33.6840   44.7260 C   0  0  0  0  0  0  0  0  0  0  0  0
   45.2000   34.3440   44.9380 C   0  0  0  0  0  0  0  0  0  0  0  0
   44.7040   35.3460   44.1330 C   0  0  0  0  0  0  0  0  0  0  0  0
   45.4380   35.7150   43.0350 C   0  0  0  0  0  0  0  0  0  0  0  0
   46.6220   35.0780   42.7880 C   0  0  0  0  0  0  0  0  0  0  0  0
   47.0920   34.0720   43.6200 C   0  0  0  0  0  0  0  0  0  0  0  0
   44.6020   34.0640   45.8080 H   0  0  0  0  0  0  0  0  0  0  0  0
   43.7610   35.8070   44.3870 H   0  0  0  0  0  0  0  0  0  0  0  0
   45.0310   36.5060   42.4140 H   0  0  0  0  0  0  0  0  0  0  0  0
   47.1610   35.4100   41.9070 H   0  0  0  0  0  0  0  0  0  0  0  0
   47.6380   30.4360   45.8280 C   0  0  0  0  0  0  0  0  0  0  0  0
   47.7310   30.5670   47.2000 C   0  0  0  0  0  0  0  0  0  0  0  0
   47.3590   31.7840   47.7630 C   0  0  0  0  0  0  0  0  0  0  0  0
   46.9140   32.8160   46.9770 N   0  0  0  0  0  0  0  0  0  0  0  0
   46.8390   32.6340   45.6180 C   0  0  0  0  0  0  0  0  0  0  0  0
   47.2030   31.4530   45.0880 N   0  0  0  0  0  0  0  0  0  0  0  0
   47.9040   29.5240   45.2820 H   0  0  0  0  0  0  0  0  0  0  0  0
   48.0860   29.7310   47.7800 H   0  0  0  0  0  0  0  0  0  0  0  0
   47.4240   31.9110   48.8470 H   0  0  0  0  0  0  0  0  0  0  0  0
   48.3250   33.5160   43.2300 N   0  0  0  0  0  0  0  0  0  0  0  0
   48.3420   32.4710   43.4220 H   0  0  0  0  0  0  0  0  0  0  0  0
   49.7360   34.1890   42.5350 S   0  0  0  0  0  0  0  0  0  0  0  0
   49.4440   34.5190   41.0760 O   0  0  0  0  0  0  0  0  0  0  0  0
   49.6830   35.3750   40.6770 H   0  0  0  0  0  0  0  0  0  0  0  0
   50.2290   35.4190   43.2090 O   0  0  0  0  0  0  0  0  0  0  0  0
   49.9170   35.7280   44.1020 H   0  0  0  0  0  0  0  0  0  0  0  0
   50.8710   32.9410   42.4800 O   0  0  0  0  0  0  0  0  0  0  0  0
   51.0170   32.1590   41.3540 C   0  0  0  0  0  0  0  0  0  0  0  0
   52.0090   31.6350   40.5500 C   0  0  0  0  0  0  0  0  0  0  0  0
   53.0290   31.8910   40.8600 H   0  0  0  0  0  0  0  0  0  0  0  0
   51.4400   30.9000   39.5280 C   0  0  0  0  0  0  0  0  0  0  0  0
   52.0630   30.4200   38.8090 H   0  0  0  0  0  0  0  0  0  0  0  0
   50.1210   30.9970   39.7400 N   0  0  0  0  0  0  0  0  0  0  0  0
   49.4290   30.5280   39.1050 H   0  0  0  0  0  0  0  0  0  0  0  0
   49.8420   31.7330   40.8080 N   0  0  0  0  0  0  0  0  0  0  0  0
  1  2  1  0  0  0  0
  1 15  1  0  0  0  0
  2  7  1  0  0  0  0
  3  8  1  0  0  0  0
  3  2  2  0  0  0  0
  4  3  1  0  0  0  0
  5  4  2  0  0  0  0
  5  6  1  0  0  0  0
  6  1  2  0  0  0  0
  9  4  1  0  0  0  0
 10  5  1  0  0  0  0
 11 12  1  0  0  0  0
 12 13  2  0  0  0  0
 12 18  1  0  0  0  0
 13 19  1  0  0  0  0
 14 13  1  0  0  0  0
 15 14  2  0  0  0  0
 16 15  1  0  0  0  0
 16 11  2  0  0  0  0
 17 11  1  0  0  0  0
 20 21  1  0  0  0  0
 20  6  1  0  0  0  0
 22 25  1  0  0  0  0
 22 20  1  0  0  0  0
 23 22  1  0  0  0  0
 24 23  1  0  0  0  0
 25 26  1  0  0  0  0
 27 22  1  0  0  0  0
 28 27  1  0  0  0  0
 29 30  1  0  0  0  0
 29 28  1  0  0  0  0
 31 33  1  0  0  0  0
 31 29  2  0  0  0  0
 32 31  1  0  0  0  0
 33 35  1  0  0  0  0
 34 33  1  0  0  0  0
 35 28  2  0  0  0  0
M  END
>  <minimizedAffinity>
-6.10875368

>  <minimizedRMSD>
2.20295954

$$$$
