
 OpenBabel03242517053D

 32 34  0  0  0  0  0  0  0  0999 V2000
   37.1440   25.7000   40.9200 C   0  0  0  0  0  0  0  0  0  0  0  0
   37.4770   24.4600   41.4450 C   0  0  0  0  0  0  0  0  0  0  0  0
   37.2170   23.3360   40.6920 C   0  0  0  0  0  0  0  0  0  0  0  0
   36.6480   23.4600   39.4640 C   0  0  0  0  0  0  0  0  0  0  0  0
   36.3070   24.6630   38.9150 C   0  0  0  0  0  0  0  0  0  0  0  0
   36.5730   25.8070   39.6890 C   0  0  0  0  0  0  0  0  0  0  0  0
   37.9370   24.3830   42.4440 H   0  0  0  0  0  0  0  0  0  0  0  0
   37.4900   22.3910   41.1330 H   0  0  0  0  0  0  0  0  0  0  0  0
   36.4350   22.5750   38.8510 H   0  0  0  0  0  0  0  0  0  0  0  0
   35.8530   24.7900   37.9400 H   0  0  0  0  0  0  0  0  0  0  0  0
   37.1820   28.2730   43.6790 C   0  0  0  0  0  0  0  0  0  0  0  0
   36.8100   27.1210   42.9510 C   0  0  0  0  0  0  0  0  0  0  0  0
   37.4400   26.8580   41.7650 C   0  0  0  0  0  0  0  0  0  0  0  0
   38.4040   27.7350   41.3520 N   0  0  0  0  0  0  0  0  0  0  0  0
   38.7610   28.8330   42.0460 C   0  0  0  0  0  0  0  0  0  0  0  0
   38.1440   29.1070   43.2230 N   0  0  0  0  0  0  0  0  0  0  0  0
   36.6480   28.4150   44.5950 H   0  0  0  0  0  0  0  0  0  0  0  0
   36.0400   26.4420   43.3030 H   0  0  0  0  0  0  0  0  0  0  0  0
   39.5410   29.4550   41.6150 H   0  0  0  0  0  0  0  0  0  0  0  0
   36.4270   27.8440   38.0670 C   0  0  0  0  0  0  0  0  0  0  0  0
   36.9620   27.4350   37.0490 O   0  0  0  0  0  0  0  0  0  0  0  0
   36.2700   27.1170   39.2600 N   0  0  0  0  0  0  0  0  0  0  0  0
   35.8260   27.5390   40.1300 H   0  0  0  0  0  0  0  0  0  0  0  0
   35.9290   29.1520   38.0480 O   0  0  0  0  0  0  0  0  0  0  0  0
   36.0270   29.9190   39.1750 C   0  0  0  0  0  0  0  0  0  0  0  0
   36.8200   31.0310   39.2290 C   0  0  0  0  0  0  0  0  0  0  0  0
   37.4400   31.4530   38.4740 H   0  0  0  0  0  0  0  0  0  0  0  0
   36.6920   31.5670   40.4890 C   0  0  0  0  0  0  0  0  0  0  0  0
   37.1950   32.4670   40.8690 H   0  0  0  0  0  0  0  0  0  0  0  0
   35.8370   30.7840   41.1720 N   0  0  0  0  0  0  0  0  0  0  0  0
   35.5380   30.9440   42.1800 H   0  0  0  0  0  0  0  0  0  0  0  0
   35.4210   29.7760   40.3890 N   0  0  0  0  0  0  0  0  0  0  0  0
  1  2  1  0  0  0  0
  1 13  1  0  0  0  0
  2  7  1  0  0  0  0
  3  8  1  0  0  0  0
  3  2  2  0  0  0  0
  4  3  1  0  0  0  0
  5  4  2  0  0  0  0
  5  6  1  0  0  0  0
  6  1  2  0  0  0  0
  9  4  1  0  0  0  0
 10  5  1  0  0  0  0
 11 17  1  0  0  0  0
 12 18  1  0  0  0  0
 12 11  2  0  0  0  0
 13 12  1  0  0  0  0
 14 13  2  0  0  0  0
 14 15  1  0  0  0  0
 15 16  2  0  0  0  0
 16 11  1  0  0  0  0
 19 15  1  0  0  0  0
 20 22  1  0  0  0  0
 21 20  2  0  0  0  0
 22  6  1  0  0  0  0
 22 23  1  0  0  0  0
 24 20  1  0  0  0  0
 24 25  1  0  0  0  0
 25 26  1  0  0  0  0
 25 32  2  0  0  0  0
 26 28  2  0  0  0  0
 27 26  1  0  0  0  0
 28 29  1  0  0  0  0
 28 30  1  0  0  0  0
 30 31  1  0  0  0  0
 32 30  1  0  0  0  0
M  END
>  <minimizedAffinity>
-5.49164724

$$$$

 OpenBabel03242517053D

 32 34  0  0  0  0  0  0  0  0999 V2000
   37.3850   28.0710   41.4520 C   0  0  0  0  0  0  0  0  0  0  0  0
   37.1340   27.0620   42.3700 C   0  0  0  0  0  0  0  0  0  0  0  0
   38.0610   26.8310   43.3620 C   0  0  0  0  0  0  0  0  0  0  0  0
   39.1900   27.5840   43.4230 C   0  0  0  0  0  0  0  0  0  0  0  0
   39.4710   28.5850   42.5380 C   0  0  0  0  0  0  0  0  0  0  0  0
   38.5210   28.8170   41.5270 C   0  0  0  0  0  0  0  0  0  0  0  0
   36.2120   26.4630   42.3010 H   0  0  0  0  0  0  0  0  0  0  0  0
   37.8320   26.0390   44.0560 H   0  0  0  0  0  0  0  0  0  0  0  0
   39.9390   27.4130   44.2070 H   0  0  0  0  0  0  0  0  0  0  0  0
   40.3610   29.2010   42.5640 H   0  0  0  0  0  0  0  0  0  0  0  0
   34.3290   29.1520   39.5210 C   0  0  0  0  0  0  0  0  0  0  0  0
   35.2430   29.0340   40.5910 C   0  0  0  0  0  0  0  0  0  0  0  0
   36.3660   28.2710   40.4200 C   0  0  0  0  0  0  0  0  0  0  0  0
   36.5390   27.6630   39.2090 N   0  0  0  0  0  0  0  0  0  0  0  0
   35.6690   27.7740   38.1850 C   0  0  0  0  0  0  0  0  0  0  0  0
   34.5510   28.5280   38.3420 N   0  0  0  0  0  0  0  0  0  0  0  0
   33.4760   29.7630   39.7260 H   0  0  0  0  0  0  0  0  0  0  0  0
   35.0790   29.5280   41.5440 H   0  0  0  0  0  0  0  0  0  0  0  0
   35.9160   27.2430   37.2700 H   0  0  0  0  0  0  0  0  0  0  0  0
   39.4910   29.9810   39.4030 C   0  0  0  0  0  0  0  0  0  0  0  0
   40.3660   29.2130   39.0340 O   0  0  0  0  0  0  0  0  0  0  0  0
   38.6750   29.8100   40.5360 N   0  0  0  0  0  0  0  0  0  0  0  0
   37.9510   30.5330   40.8300 H   0  0  0  0  0  0  0  0  0  0  0  0
   39.2830   31.1320   38.6370 O   0  0  0  0  0  0  0  0  0  0  0  0
   38.5680   32.1680   39.1680 C   0  0  0  0  0  0  0  0  0  0  0  0
   39.1700   33.3050   39.6290 C   0  0  0  0  0  0  0  0  0  0  0  0
   40.2040   33.5580   39.6510 H   0  0  0  0  0  0  0  0  0  0  0  0
   38.1780   34.1370   40.0930 C   0  0  0  0  0  0  0  0  0  0  0  0
   38.3170   35.1350   40.5320 H   0  0  0  0  0  0  0  0  0  0  0  0
   37.0060   33.5030   39.9100 N   0  0  0  0  0  0  0  0  0  0  0  0
   36.0540   33.8970   40.1730 H   0  0  0  0  0  0  0  0  0  0  0  0
   37.2220   32.3030   39.3490 N   0  0  0  0  0  0  0  0  0  0  0  0
  1  6  2  0  0  0  0
  1  2  1  0  0  0  0
  2  3  2  0  0  0  0
  3  4  1  0  0  0  0
  3  8  1  0  0  0  0
  4  9  1  0  0  0  0
  5 10  1  0  0  0  0
  5  4  2  0  0  0  0
  6  5  1  0  0  0  0
  7  2  1  0  0  0  0
 11 17  1  0  0  0  0
 11 12  1  0  0  0  0
 12 18  1  0  0  0  0
 13 12  2  0  0  0  0
 13  1  1  0  0  0  0
 14 13  1  0  0  0  0
 15 16  1  0  0  0  0
 15 14  2  0  0  0  0
 16 11  2  0  0  0  0
 19 15  1  0  0  0  0
 20 22  1  0  0  0  0
 21 20  2  0  0  0  0
 22 23  1  0  0  0  0
 22  6  1  0  0  0  0
 24 25  1  0  0  0  0
 24 20  1  0  0  0  0
 25 32  2  0  0  0  0
 25 26  1  0  0  0  0
 26 27  1  0  0  0  0
 26 28  2  0  0  0  0
 28 29  1  0  0  0  0
 30 28  1  0  0  0  0
 30 31  1  0  0  0  0
 32 30  1  0  0  0  0
M  END
>  <minimizedAffinity>
-5.24513388

$$$$

 OpenBabel03242517053D

 32 34  0  0  0  0  0  0  0  0999 V2000
   36.4730   26.2170   39.4910 C   0  0  0  0  0  0  0  0  0  0  0  0
   36.1720   25.0450   38.8130 C   0  0  0  0  0  0  0  0  0  0  0  0
   36.2890   23.8480   39.4870 C   0  0  0  0  0  0  0  0  0  0  0  0
   36.6900   23.8380   40.7850 C   0  0  0  0  0  0  0  0  0  0  0  0
   36.9940   24.9710   41.4840 C   0  0  0  0  0  0  0  0  0  0  0  0
   36.8740   26.1890   40.7910 C   0  0  0  0  0  0  0  0  0  0  0  0
   35.8500   25.0780   37.7600 H   0  0  0  0  0  0  0  0  0  0  0  0
   36.0470   22.9600   38.9270 H   0  0  0  0  0  0  0  0  0  0  0  0
   36.7870   22.8940   41.3350 H   0  0  0  0  0  0  0  0  0  0  0  0
   37.3150   24.9910   42.5180 H   0  0  0  0  0  0  0  0  0  0  0  0
   35.1250   29.1940   37.6050 C   0  0  0  0  0  0  0  0  0  0  0  0
   35.1330   27.9900   38.3430 C   0  0  0  0  0  0  0  0  0  0  0  0
   36.3340   27.4580   38.7260 C   0  0  0  0  0  0  0  0  0  0  0  0
   37.4680   28.1320   38.3680 N   0  0  0  0  0  0  0  0  0  0  0  0
   37.4620   29.2820   37.6650 C   0  0  0  0  0  0  0  0  0  0  0  0
   36.2780   29.8200   37.2790 N   0  0  0  0  0  0  0  0  0  0  0  0
   34.1510   29.5500   37.3410 H   0  0  0  0  0  0  0  0  0  0  0  0
   34.2160   27.4740   38.6130 H   0  0  0  0  0  0  0  0  0  0  0  0
   38.4280   29.7250   37.4400 H   0  0  0  0  0  0  0  0  0  0  0  0
   36.9850   28.0190   42.6470 C   0  0  0  0  0  0  0  0  0  0  0  0
   36.4440   27.4860   43.6030 O   0  0  0  0  0  0  0  0  0  0  0  0
   37.1610   27.4410   41.3770 N   0  0  0  0  0  0  0  0  0  0  0  0
   37.6090   27.9680   40.5690 H   0  0  0  0  0  0  0  0  0  0  0  0
   37.4700   29.3190   42.8270 O   0  0  0  0  0  0  0  0  0  0  0  0
   37.3040   30.2370   41.8290 C   0  0  0  0  0  0  0  0  0  0  0  0
   38.3410   30.9950   41.3610 C   0  0  0  0  0  0  0  0  0  0  0  0
   39.3620   31.0010   41.6640 H   0  0  0  0  0  0  0  0  0  0  0  0
   37.8420   31.8080   40.3690 C   0  0  0  0  0  0  0  0  0  0  0  0
   38.4100   32.5430   39.7830 H   0  0  0  0  0  0  0  0  0  0  0  0
   36.5300   31.5370   40.2520 N   0  0  0  0  0  0  0  0  0  0  0  0
   35.8700   32.0090   39.5640 H   0  0  0  0  0  0  0  0  0  0  0  0
   36.1840   30.5830   41.1320 N   0  0  0  0  0  0  0  0  0  0  0  0
  1  6  1  0  0  0  0
  2  3  1  0  0  0  0
  2  1  2  0  0  0  0
  3  4  2  0  0  0  0
  4  9  1  0  0  0  0
  4  5  1  0  0  0  0
  5 10  1  0  0  0  0
  6 22  1  0  0  0  0
  6  5  2  0  0  0  0
  7  2  1  0  0  0  0
  8  3  1  0  0  0  0
 11 12  1  0  0  0  0
 12 18  1  0  0  0  0
 12 13  2  0  0  0  0
 13  1  1  0  0  0  0
 14 13  1  0  0  0  0
 15 14  2  0  0  0  0
 16 11  2  0  0  0  0
 16 15  1  0  0  0  0
 17 11  1  0  0  0  0
 19 15  1  0  0  0  0
 20 24  1  0  0  0  0
 20 21  2  0  0  0  0
 22 20  1  0  0  0  0
 23 22  1  0  0  0  0
 25 24  1  0  0  0  0
 26 27  1  0  0  0  0
 26 25  1  0  0  0  0
 28 26  2  0  0  0  0
 29 28  1  0  0  0  0
 30 28  1  0  0  0  0
 30 32  1  0  0  0  0
 31 30  1  0  0  0  0
 32 25  2  0  0  0  0
M  END
>  <minimizedAffinity>
-5.10938787

$$$$

 OpenBabel03242517053D

 32 34  0  0  0  0  0  0  0  0999 V2000
   36.6580   26.5230   39.9990 C   0  0  0  0  0  0  0  0  0  0  0  0
   36.3080   25.2980   39.4530 C   0  0  0  0  0  0  0  0  0  0  0  0
   36.4130   24.1720   40.2400 C   0  0  0  0  0  0  0  0  0  0  0  0
   36.8510   24.2810   41.5220 C   0  0  0  0  0  0  0  0  0  0  0  0
   37.2050   25.4690   42.0940 C   0  0  0  0  0  0  0  0  0  0  0  0
   37.0970   26.6150   41.2850 C   0  0  0  0  0  0  0  0  0  0  0  0
   35.9560   25.2330   38.4100 H   0  0  0  0  0  0  0  0  0  0  0  0
   36.1310   23.2390   39.7810 H   0  0  0  0  0  0  0  0  0  0  0  0
   36.9400   23.3950   42.1630 H   0  0  0  0  0  0  0  0  0  0  0  0
   37.5570   25.5850   43.1120 H   0  0  0  0  0  0  0  0  0  0  0  0
   35.3340   29.3070   37.8250 C   0  0  0  0  0  0  0  0  0  0  0  0
   35.3320   28.1810   38.6770 C   0  0  0  0  0  0  0  0  0  0  0  0
   36.5290   27.6840   39.1160 C   0  0  0  0  0  0  0  0  0  0  0  0
   37.6680   28.3150   38.7010 N   0  0  0  0  0  0  0  0  0  0  0  0
   37.6720   29.3910   37.8890 C   0  0  0  0  0  0  0  0  0  0  0  0
   36.4910   29.8940   37.4450 N   0  0  0  0  0  0  0  0  0  0  0  0
   34.3640   29.6400   37.5210 H   0  0  0  0  0  0  0  0  0  0  0  0
   34.4120   27.6980   38.9910 H   0  0  0  0  0  0  0  0  0  0  0  0
   38.6410   29.8060   37.6270 H   0  0  0  0  0  0  0  0  0  0  0  0
   38.5800   28.5210   42.2690 C   0  0  0  0  0  0  0  0  0  0  0  0
   39.6360   27.9600   42.5160 O   0  0  0  0  0  0  0  0  0  0  0  0
   37.4330   27.9110   41.7320 N   0  0  0  0  0  0  0  0  0  0  0  0
   36.5260   28.4440   41.5710 H   0  0  0  0  0  0  0  0  0  0  0  0
   38.5020   29.8910   42.5460 O   0  0  0  0  0  0  0  0  0  0  0  0
   37.8900   30.7190   41.6480 C   0  0  0  0  0  0  0  0  0  0  0  0
   38.5630   31.7240   41.0120 C   0  0  0  0  0  0  0  0  0  0  0  0
   39.5850   32.0090   41.0970 H   0  0  0  0  0  0  0  0  0  0  0  0
   37.6670   32.3610   40.1840 C   0  0  0  0  0  0  0  0  0  0  0  0
   37.8800   33.2160   39.5280 H   0  0  0  0  0  0  0  0  0  0  0  0
   36.4810   31.7420   40.3290 N   0  0  0  0  0  0  0  0  0  0  0  0
   35.5890   32.0110   39.8150 H   0  0  0  0  0  0  0  0  0  0  0  0
   36.5960   30.7410   41.2150 N   0  0  0  0  0  0  0  0  0  0  0  0
  1  6  1  0  0  0  0
  2  1  2  0  0  0  0
  2  3  1  0  0  0  0
  3  4  2  0  0  0  0
  4  5  1  0  0  0  0
  4  9  1  0  0  0  0
  5 10  1  0  0  0  0
  6 22  1  0  0  0  0
  6  5  2  0  0  0  0
  7  2  1  0  0  0  0
  8  3  1  0  0  0  0
 11 12  1  0  0  0  0
 12 18  1  0  0  0  0
 12 13  2  0  0  0  0
 13  1  1  0  0  0  0
 14 13  1  0  0  0  0
 15 14  2  0  0  0  0
 16 11  2  0  0  0  0
 16 15  1  0  0  0  0
 17 11  1  0  0  0  0
 19 15  1  0  0  0  0
 20 21  2  0  0  0  0
 20 24  1  0  0  0  0
 22 20  1  0  0  0  0
 23 22  1  0  0  0  0
 25 24  1  0  0  0  0
 26 27  1  0  0  0  0
 26 25  1  0  0  0  0
 28 30  1  0  0  0  0
 28 26  2  0  0  0  0
 29 28  1  0  0  0  0
 30 32  1  0  0  0  0
 31 30  1  0  0  0  0
 32 25  2  0  0  0  0
M  END
>  <minimizedAffinity>
-5.09470844

$$$$

 OpenBabel03242517053D

 32 34  0  0  0  0  0  0  0  0999 V2000
   37.4480   28.4750   41.0530 C   0  0  0  0  0  0  0  0  0  0  0  0
   36.9160   27.2460   41.4150 C   0  0  0  0  0  0  0  0  0  0  0  0
   36.8760   26.9160   42.7520 C   0  0  0  0  0  0  0  0  0  0  0  0
   37.3500   27.7870   43.6800 C   0  0  0  0  0  0  0  0  0  0  0  0
   37.8800   29.0050   43.3610 C   0  0  0  0  0  0  0  0  0  0  0  0
   37.9200   29.3360   41.9950 C   0  0  0  0  0  0  0  0  0  0  0  0
   36.5380   26.5540   40.6450 H   0  0  0  0  0  0  0  0  0  0  0  0
   36.4560   25.9530   42.9940 H   0  0  0  0  0  0  0  0  0  0  0  0
   37.3240   27.5400   44.7490 H   0  0  0  0  0  0  0  0  0  0  0  0
   38.2650   29.7180   44.0800 H   0  0  0  0  0  0  0  0  0  0  0  0
   36.5190   29.4550   37.5300 C   0  0  0  0  0  0  0  0  0  0  0  0
   36.3780   29.2020   38.9130 C   0  0  0  0  0  0  0  0  0  0  0  0
   37.4680   28.7710   39.6190 C   0  0  0  0  0  0  0  0  0  0  0  0
   38.6410   28.6100   38.9380 N   0  0  0  0  0  0  0  0  0  0  0  0
   38.7780   28.8520   37.6190 C   0  0  0  0  0  0  0  0  0  0  0  0
   37.7060   29.2800   36.9060 N   0  0  0  0  0  0  0  0  0  0  0  0
   35.6270   29.7900   37.0430 H   0  0  0  0  0  0  0  0  0  0  0  0
   35.4330   29.3380   39.4290 H   0  0  0  0  0  0  0  0  0  0  0  0
   39.7620   28.6870   37.1880 H   0  0  0  0  0  0  0  0  0  0  0  0
   39.5750   31.3430   41.7940 C   0  0  0  0  0  0  0  0  0  0  0  0
   40.4090   31.1100   42.6550 O   0  0  0  0  0  0  0  0  0  0  0  0
   38.4450   30.5540   41.5110 N   0  0  0  0  0  0  0  0  0  0  0  0
   37.7310   30.8270   40.7710 H   0  0  0  0  0  0  0  0  0  0  0  0
   39.7550   32.4970   41.0230 O   0  0  0  0  0  0  0  0  0  0  0  0
   39.6590   32.4110   39.6630 C   0  0  0  0  0  0  0  0  0  0  0  0
   40.7630   32.3730   38.8590 C   0  0  0  0  0  0  0  0  0  0  0  0
   41.7930   32.4000   39.1270 H   0  0  0  0  0  0  0  0  0  0  0  0
   40.3230   32.2870   37.5580 C   0  0  0  0  0  0  0  0  0  0  0  0
   40.9530   32.2380   36.6590 H   0  0  0  0  0  0  0  0  0  0  0  0
   38.9780   32.2760   37.5910 N   0  0  0  0  0  0  0  0  0  0  0  0
   38.3490   32.2160   36.7350 H   0  0  0  0  0  0  0  0  0  0  0  0
   38.5550   32.3510   38.8630 N   0  0  0  0  0  0  0  0  0  0  0  0
  1  2  2  0  0  0  0
  1  6  1  0  0  0  0
  2  3  1  0  0  0  0
  3  8  1  0  0  0  0
  3  4  2  0  0  0  0
  4  9  1  0  0  0  0
  5  4  1  0  0  0  0
  5 10  1  0  0  0  0
  6  5  2  0  0  0  0
  7  2  1  0  0  0  0
 11 12  1  0  0  0  0
 12 18  1  0  0  0  0
 12 13  2  0  0  0  0
 13  1  1  0  0  0  0
 14 13  1  0  0  0  0
 15 14  2  0  0  0  0
 16 11  2  0  0  0  0
 16 15  1  0  0  0  0
 17 11  1  0  0  0  0
 19 15  1  0  0  0  0
 20 21  2  0  0  0  0
 22 20  1  0  0  0  0
 22  6  1  0  0  0  0
 23 22  1  0  0  0  0
 24 20  1  0  0  0  0
 25 24  1  0  0  0  0
 26 27  1  0  0  0  0
 26 25  1  0  0  0  0
 28 30  1  0  0  0  0
 28 26  2  0  0  0  0
 29 28  1  0  0  0  0
 30 32  1  0  0  0  0
 31 30  1  0  0  0  0
 32 25  2  0  0  0  0
M  END
>  <minimizedAffinity>
-5.05082321

$$$$

 OpenBabel03242517053D

 32 34  0  0  0  0  0  0  0  0999 V2000
   37.1280   28.0530   41.4940 C   0  0  0  0  0  0  0  0  0  0  0  0
   36.9600   26.9610   42.3320 C   0  0  0  0  0  0  0  0  0  0  0  0
   37.7890   26.8390   43.4260 C   0  0  0  0  0  0  0  0  0  0  0  0
   38.7430   27.7770   43.6610 C   0  0  0  0  0  0  0  0  0  0  0  0
   38.9370   28.8650   42.8590 C   0  0  0  0  0  0  0  0  0  0  0  0
   38.0890   28.9840   41.7430 C   0  0  0  0  0  0  0  0  0  0  0  0
   36.1810   26.2110   42.1210 H   0  0  0  0  0  0  0  0  0  0  0  0
   37.6290   25.9780   44.0540 H   0  0  0  0  0  0  0  0  0  0  0  0
   39.4110   27.6950   44.5280 H   0  0  0  0  0  0  0  0  0  0  0  0
   39.6880   29.6280   43.0230 H   0  0  0  0  0  0  0  0  0  0  0  0
   35.4010   27.5220   38.1810 C   0  0  0  0  0  0  0  0  0  0  0  0
   36.3380   27.3570   39.2250 C   0  0  0  0  0  0  0  0  0  0  0  0
   36.2210   28.1300   40.3470 C   0  0  0  0  0  0  0  0  0  0  0  0
   35.1910   29.0280   40.3920 N   0  0  0  0  0  0  0  0  0  0  0  0
   34.2950   29.1870   39.3980 C   0  0  0  0  0  0  0  0  0  0  0  0
   34.4000   28.4260   38.2790 N   0  0  0  0  0  0  0  0  0  0  0  0
   35.5550   26.8840   37.3360 H   0  0  0  0  0  0  0  0  0  0  0  0
   37.1480   26.6360   39.1620 H   0  0  0  0  0  0  0  0  0  0  0  0
   33.5200   29.9340   39.5490 H   0  0  0  0  0  0  0  0  0  0  0  0
   38.8960   30.2980   39.6390 C   0  0  0  0  0  0  0  0  0  0  0  0
   39.7280   29.5540   39.1430 O   0  0  0  0  0  0  0  0  0  0  0  0
   38.1730   30.0480   40.8190 N   0  0  0  0  0  0  0  0  0  0  0  0
   37.4850   30.7510   41.2250 H   0  0  0  0  0  0  0  0  0  0  0  0
   38.6410   31.5050   38.9790 O   0  0  0  0  0  0  0  0  0  0  0  0
   39.6860   32.2210   38.4690 C   0  0  0  0  0  0  0  0  0  0  0  0
   40.3920   33.1140   39.2250 C   0  0  0  0  0  0  0  0  0  0  0  0
   40.2610   33.3830   40.2470 H   0  0  0  0  0  0  0  0  0  0  0  0
   41.3660   33.6580   38.4200 C   0  0  0  0  0  0  0  0  0  0  0  0
   42.1090   34.4120   38.7130 H   0  0  0  0  0  0  0  0  0  0  0  0
   41.2390   33.0950   37.2040 N   0  0  0  0  0  0  0  0  0  0  0  0
   41.8540   33.3140   36.3650 H   0  0  0  0  0  0  0  0  0  0  0  0
   40.2220   32.2180   37.2140 N   0  0  0  0  0  0  0  0  0  0  0  0
  1  6  2  0  0  0  0
  1  2  1  0  0  0  0
  2  3  2  0  0  0  0
  3  4  1  0  0  0  0
  3  8  1  0  0  0  0
  4  9  1  0  0  0  0
  5 10  1  0  0  0  0
  5  4  2  0  0  0  0
  6  5  1  0  0  0  0
  7  2  1  0  0  0  0
 11 16  2  0  0  0  0
 11 12  1  0  0  0  0
 12 13  2  0  0  0  0
 13 14  1  0  0  0  0
 13  1  1  0  0  0  0
 15 19  1  0  0  0  0
 15 14  2  0  0  0  0
 16 15  1  0  0  0  0
 17 11  1  0  0  0  0
 18 12  1  0  0  0  0
 20 22  1  0  0  0  0
 21 20  2  0  0  0  0
 22 23  1  0  0  0  0
 22  6  1  0  0  0  0
 24 20  1  0  0  0  0
 25 24  1  0  0  0  0
 25 26  1  0  0  0  0
 26 27  1  0  0  0  0
 28 29  1  0  0  0  0
 28 26  2  0  0  0  0
 30 32  1  0  0  0  0
 30 28  1  0  0  0  0
 31 30  1  0  0  0  0
 32 25  2  0  0  0  0
M  END
>  <minimizedAffinity>
-5.0127244

$$$$

 OpenBabel03242517053D

 32 34  0  0  0  0  0  0  0  0999 V2000
   36.4530   25.9560   39.4390 C   0  0  0  0  0  0  0  0  0  0  0  0
   35.7880   25.5430   38.2950 C   0  0  0  0  0  0  0  0  0  0  0  0
   35.4570   24.2110   38.1720 C   0  0  0  0  0  0  0  0  0  0  0  0
   35.7830   23.3380   39.1610 C   0  0  0  0  0  0  0  0  0  0  0  0
   36.4370   23.7080   40.3010 C   0  0  0  0  0  0  0  0  0  0  0  0
   36.7740   25.0690   40.4200 C   0  0  0  0  0  0  0  0  0  0  0  0
   35.5340   26.2680   37.5050 H   0  0  0  0  0  0  0  0  0  0  0  0
   34.9400   23.9280   37.2690 H   0  0  0  0  0  0  0  0  0  0  0  0
   35.5260   22.2750   39.0790 H   0  0  0  0  0  0  0  0  0  0  0  0
   36.7090   23.0350   41.1040 H   0  0  0  0  0  0  0  0  0  0  0  0
   36.3110   29.7030   39.8630 C   0  0  0  0  0  0  0  0  0  0  0  0
   35.8760   28.3600   39.8220 C   0  0  0  0  0  0  0  0  0  0  0  0
   36.7810   27.3810   39.5140 C   0  0  0  0  0  0  0  0  0  0  0  0
   38.0680   27.7660   39.2630 N   0  0  0  0  0  0  0  0  0  0  0  0
   38.4860   29.0470   39.3020 C   0  0  0  0  0  0  0  0  0  0  0  0
   37.5980   30.0280   39.6060 N   0  0  0  0  0  0  0  0  0  0  0  0
   35.5490   30.4120   40.1100 H   0  0  0  0  0  0  0  0  0  0  0  0
   34.8460   28.0820   40.0250 H   0  0  0  0  0  0  0  0  0  0  0  0
   39.5350   29.2300   39.0840 H   0  0  0  0  0  0  0  0  0  0  0  0
   38.6120   25.2580   42.2620 C   0  0  0  0  0  0  0  0  0  0  0  0
   39.3160   24.2810   42.0590 O   0  0  0  0  0  0  0  0  0  0  0  0
   37.4570   25.6000   41.5350 N   0  0  0  0  0  0  0  0  0  0  0  0
   36.8600   26.4460   41.7800 H   0  0  0  0  0  0  0  0  0  0  0  0
   38.9810   26.1090   43.3090 O   0  0  0  0  0  0  0  0  0  0  0  0
   38.5210   27.3960   43.3160 C   0  0  0  0  0  0  0  0  0  0  0  0
   39.3010   28.4470   42.9260 C   0  0  0  0  0  0  0  0  0  0  0  0
   40.3090   28.4470   42.5810 H   0  0  0  0  0  0  0  0  0  0  0  0
   38.5450   29.5900   43.0510 C   0  0  0  0  0  0  0  0  0  0  0  0
   38.8690   30.6140   42.8200 H   0  0  0  0  0  0  0  0  0  0  0  0
   37.3350   29.2210   43.5080 N   0  0  0  0  0  0  0  0  0  0  0  0
   36.5300   29.8880   43.7060 H   0  0  0  0  0  0  0  0  0  0  0  0
   37.3010   27.8890   43.6760 N   0  0  0  0  0  0  0  0  0  0  0  0
  1 13  1  0  0  0  0
  1  6  1  0  0  0  0
  2  1  2  0  0  0  0
  3  2  1  0  0  0  0
  3  4  2  0  0  0  0
  4  5  1  0  0  0  0
  5  6  2  0  0  0  0
  5 10  1  0  0  0  0
  6 22  1  0  0  0  0
  7  2  1  0  0  0  0
  8  3  1  0  0  0  0
  9  4  1  0  0  0  0
 11 17  1  0  0  0  0
 12 11  1  0  0  0  0
 12 18  1  0  0  0  0
 13 12  2  0  0  0  0
 14 15  2  0  0  0  0
 14 13  1  0  0  0  0
 15 16  1  0  0  0  0
 16 11  2  0  0  0  0
 19 15  1  0  0  0  0
 20 24  1  0  0  0  0
 21 20  2  0  0  0  0
 22 23  1  0  0  0  0
 22 20  1  0  0  0  0
 24 25  1  0  0  0  0
 25 32  2  0  0  0  0
 26 28  2  0  0  0  0
 26 25  1  0  0  0  0
 27 26  1  0  0  0  0
 28 30  1  0  0  0  0
 29 28  1  0  0  0  0
 30 32  1  0  0  0  0
 30 31  1  0  0  0  0
M  END
>  <minimizedAffinity>
-5.00021315

$$$$

 OpenBabel03242517053D

 32 34  0  0  0  0  0  0  0  0999 V2000
   37.8080   26.9640   41.6240 C   0  0  0  0  0  0  0  0  0  0  0  0
   37.7720   25.5790   41.6870 C   0  0  0  0  0  0  0  0  0  0  0  0
   38.6450   24.9370   42.5380 C   0  0  0  0  0  0  0  0  0  0  0  0
   39.5130   25.6610   43.2910 C   0  0  0  0  0  0  0  0  0  0  0  0
   39.5770   27.0250   43.2560 C   0  0  0  0  0  0  0  0  0  0  0  0
   38.6850   27.6750   42.3850 C   0  0  0  0  0  0  0  0  0  0  0  0
   37.0600   25.0110   41.0660 H   0  0  0  0  0  0  0  0  0  0  0  0
   38.5870   23.8610   42.5590 H   0  0  0  0  0  0  0  0  0  0  0  0
   40.2140   25.1650   43.9740 H   0  0  0  0  0  0  0  0  0  0  0  0
   40.2580   27.6270   43.8450 H   0  0  0  0  0  0  0  0  0  0  0  0
   35.8370   27.9860   38.5740 C   0  0  0  0  0  0  0  0  0  0  0  0
   36.7950   27.3140   39.3640 C   0  0  0  0  0  0  0  0  0  0  0  0
   36.8600   27.5920   40.7020 C   0  0  0  0  0  0  0  0  0  0  0  0
   35.9830   28.5150   41.2000 N   0  0  0  0  0  0  0  0  0  0  0  0
   35.0670   29.1570   40.4480 C   0  0  0  0  0  0  0  0  0  0  0  0
   34.9920   28.8900   39.1190 N   0  0  0  0  0  0  0  0  0  0  0  0
   35.8440   27.7180   37.5380 H   0  0  0  0  0  0  0  0  0  0  0  0
   37.4810   26.5850   38.9420 H   0  0  0  0  0  0  0  0  0  0  0  0
   34.4240   29.8690   40.9570 H   0  0  0  0  0  0  0  0  0  0  0  0
   39.5460   30.0760   41.8390 C   0  0  0  0  0  0  0  0  0  0  0  0
   40.7180   29.8970   41.5460 O   0  0  0  0  0  0  0  0  0  0  0  0
   38.6380   29.0780   42.2340 N   0  0  0  0  0  0  0  0  0  0  0  0
   37.6350   29.2990   42.5130 H   0  0  0  0  0  0  0  0  0  0  0  0
   39.0640   31.3880   41.7790 O   0  0  0  0  0  0  0  0  0  0  0  0
   38.6170   31.8810   40.5850 C   0  0  0  0  0  0  0  0  0  0  0  0
   37.2900   32.0890   40.3370 C   0  0  0  0  0  0  0  0  0  0  0  0
   36.4510   31.9200   40.9710 H   0  0  0  0  0  0  0  0  0  0  0  0
   37.1820   32.5860   39.0590 C   0  0  0  0  0  0  0  0  0  0  0  0
   36.2520   32.8620   38.5430 H   0  0  0  0  0  0  0  0  0  0  0  0
   38.4280   32.6710   38.5570 N   0  0  0  0  0  0  0  0  0  0  0  0
   38.6680   33.0220   37.5820 H   0  0  0  0  0  0  0  0  0  0  0  0
   39.3150   32.2460   39.4710 N   0  0  0  0  0  0  0  0  0  0  0  0
  1  2  2  0  0  0  0
  1  6  1  0  0  0  0
  2  3  1  0  0  0  0
  3  8  1  0  0  0  0
  3  4  2  0  0  0  0
  4  9  1  0  0  0  0
  5  4  1  0  0  0  0
  5 10  1  0  0  0  0
  6  5  2  0  0  0  0
  7  2  1  0  0  0  0
 11 16  2  0  0  0  0
 11 12  1  0  0  0  0
 12 13  2  0  0  0  0
 13 14  1  0  0  0  0
 13  1  1  0  0  0  0
 15 19  1  0  0  0  0
 15 14  2  0  0  0  0
 16 15  1  0  0  0  0
 17 11  1  0  0  0  0
 18 12  1  0  0  0  0
 20 22  1  0  0  0  0
 21 20  2  0  0  0  0
 22  6  1  0  0  0  0
 22 23  1  0  0  0  0
 24 20  1  0  0  0  0
 25 24  1  0  0  0  0
 26 25  1  0  0  0  0
 26 27  1  0  0  0  0
 28 26  2  0  0  0  0
 29 28  1  0  0  0  0
 30 28  1  0  0  0  0
 30 32  1  0  0  0  0
 31 30  1  0  0  0  0
 32 25  2  0  0  0  0
M  END
>  <minimizedAffinity>
-4.95302582

$$$$

 OpenBabel03242517053D

 32 34  0  0  0  0  0  0  0  0999 V2000
   37.5820   30.6150   38.4250 C   0  0  0  0  0  0  0  0  0  0  0  0
   37.3800   30.7710   37.0620 C   0  0  0  0  0  0  0  0  0  0  0  0
   36.9700   29.6780   36.3290 C   0  0  0  0  0  0  0  0  0  0  0  0
   36.7730   28.4840   36.9470 C   0  0  0  0  0  0  0  0  0  0  0  0
   36.9610   28.2930   38.2850 C   0  0  0  0  0  0  0  0  0  0  0  0
   37.3810   29.4120   39.0280 C   0  0  0  0  0  0  0  0  0  0  0  0
   37.5470   31.7490   36.5820 H   0  0  0  0  0  0  0  0  0  0  0  0
   36.8240   29.8380   35.2730 H   0  0  0  0  0  0  0  0  0  0  0  0
   36.4460   27.6050   36.3780 H   0  0  0  0  0  0  0  0  0  0  0  0
   36.8120   27.3540   38.8030 H   0  0  0  0  0  0  0  0  0  0  0  0
   37.8130   34.0490   39.9710 C   0  0  0  0  0  0  0  0  0  0  0  0
   37.2860   32.9610   39.2410 C   0  0  0  0  0  0  0  0  0  0  0  0
   38.0180   31.8090   39.1520 C   0  0  0  0  0  0  0  0  0  0  0  0
   39.2300   31.7790   39.7840 N   0  0  0  0  0  0  0  0  0  0  0  0
   39.7340   32.8150   40.4820 C   0  0  0  0  0  0  0  0  0  0  0  0
   39.0190   33.9650   40.5780 N   0  0  0  0  0  0  0  0  0  0  0  0
   37.1860   34.9160   39.9980 H   0  0  0  0  0  0  0  0  0  0  0  0
   36.3200   33.0130   38.7480 H   0  0  0  0  0  0  0  0  0  0  0  0
   40.7090   32.6720   40.9400 H   0  0  0  0  0  0  0  0  0  0  0  0
   36.9120   28.9320   41.5490 C   0  0  0  0  0  0  0  0  0  0  0  0
   35.7780   28.4790   41.5450 O   0  0  0  0  0  0  0  0  0  0  0  0
   37.6240   29.3690   40.4180 N   0  0  0  0  0  0  0  0  0  0  0  0
   38.5990   29.7900   40.4860 H   0  0  0  0  0  0  0  0  0  0  0  0
   37.5590   29.0280   42.7860 O   0  0  0  0  0  0  0  0  0  0  0  0
   38.7300   28.3520   42.9800 C   0  0  0  0  0  0  0  0  0  0  0  0
   38.7810   27.1710   43.6650 C   0  0  0  0  0  0  0  0  0  0  0  0
   37.9910   26.6230   44.1230 H   0  0  0  0  0  0  0  0  0  0  0  0
   40.0930   26.7580   43.6800 C   0  0  0  0  0  0  0  0  0  0  0  0
   40.4840   25.8450   44.1490 H   0  0  0  0  0  0  0  0  0  0  0  0
   40.8100   27.6820   43.0130 N   0  0  0  0  0  0  0  0  0  0  0  0
   41.8610   27.6400   42.8560 H   0  0  0  0  0  0  0  0  0  0  0  0
   39.9980   28.6600   42.5800 N   0  0  0  0  0  0  0  0  0  0  0  0
  1  6  1  0  0  0  0
  1 13  1  0  0  0  0
  2  1  2  0  0  0  0
  3  4  2  0  0  0  0
  3  2  1  0  0  0  0
  4  5  1  0  0  0  0
  5 10  1  0  0  0  0
  5  6  2  0  0  0  0
  6 22  1  0  0  0  0
  7  2  1  0  0  0  0
  8  3  1  0  0  0  0
  9  4  1  0  0  0  0
 11 17  1  0  0  0  0
 11 16  1  0  0  0  0
 12 11  2  0  0  0  0
 13 12  1  0  0  0  0
 13 14  2  0  0  0  0
 14 15  1  0  0  0  0
 15 16  2  0  0  0  0
 15 19  1  0  0  0  0
 18 12  1  0  0  0  0
 20 24  1  0  0  0  0
 21 20  2  0  0  0  0
 22 23  1  0  0  0  0
 22 20  1  0  0  0  0
 24 25  1  0  0  0  0
 25 26  1  0  0  0  0
 26 28  2  0  0  0  0
 26 27  1  0  0  0  0
 28 29  1  0  0  0  0
 30 28  1  0  0  0  0
 31 30  1  0  0  0  0
 32 25  2  0  0  0  0
 32 30  1  0  0  0  0
M  END
>  <minimizedAffinity>
-4.90961742

$$$$
