
 OpenBabel03242523103D

 45 49  0  0  1  0  0  0  0  0999 V2000
   45.2330   36.0240   43.4580 C   0  0  0  0  0  0  0  0  0  0  0  0
   46.0310   34.9060   43.2100 C   0  0  0  0  0  0  0  0  0  0  0  0
   46.1180   33.9240   44.1510 C   0  0  0  0  0  0  0  0  0  0  0  0
   45.4030   34.1000   45.3080 N   0  0  0  0  0  0  0  0  0  0  0  0
   44.6370   35.1770   45.5410 C   0  0  0  0  0  0  0  0  0  0  0  0
   44.5600   36.1120   44.6300 N   0  0  0  0  0  0  0  0  0  0  0  0
   45.1610   36.8110   42.7050 H   0  0  0  0  0  0  0  0  0  0  0  0
   44.0550   35.3630   46.4340 H   0  0  0  0  0  0  0  0  0  0  0  0
   46.7310   34.8770   42.0030 N   0  0  0  0  0  0  0  0  0  0  0  0
   48.0130   35.4880   41.8610 C   0  0  0  0  0  0  0  0  0  0  0  0
   48.6990   35.2140   40.5520 C   0  0  0  0  0  0  0  0  0  0  0  0
   48.5530   33.9130   40.0660 N   0  0  0  0  0  0  0  0  0  0  0  0
   47.3010   33.3460   40.1760 C   0  0  0  0  0  0  0  0  0  0  0  0
   46.2910   34.2760   40.8120 C   0  0  0  0  0  0  0  0  0  0  0  0
   48.7300   35.2480   42.6940 H   0  0  0  0  0  0  0  0  0  0  0  0
   47.8580   36.5870   41.9310 H   0  0  0  0  0  0  0  0  0  0  0  0
   48.3500   35.9480   39.7950 H   0  0  0  0  0  0  0  0  0  0  0  0
   49.7920   35.4390   40.7060 H   0  0  0  0  0  0  0  0  0  0  0  0
   49.3800   33.3080   40.0870 H   0  0  0  0  0  0  0  0  0  0  0  0
   47.2460   32.3640   40.7100 H   0  0  0  0  0  0  0  0  0  0  0  0
   46.8770   33.1200   39.1550 H   0  0  0  0  0  0  0  0  0  0  0  0
   45.3660   33.6790   41.0490 H   0  0  0  0  0  0  0  0  0  0  0  0
   45.9840   35.0430   40.0500 H   0  0  0  0  0  0  0  0  0  0  0  0
   46.2780   31.8180   45.1790 C   0  0  0  0  0  0  0  0  0  0  0  0
   46.8000   32.7060   44.2200 C   0  0  0  0  0  0  0  0  0  0  0  0
   47.9110   32.1810   43.6050 C   0  0  0  0  0  0  0  0  0  0  0  0
   48.4660   30.9660   43.8650 C   0  0  0  0  0  0  0  0  0  0  0  0
   47.8880   30.1550   44.8350 C   0  0  0  0  0  0  0  0  0  0  0  0
   46.7820   30.5860   45.4950 C   0  0  0  0  0  0  0  0  0  0  0  0
   48.6850   29.0190   44.8620 O   0  0  0  0  0  0  0  0  0  0  0  0
   49.7110   29.1130   43.8850 C   0  0  2  0  0  0  0  0  0  0  0  0
   49.5790   30.3900   43.2680 O   0  0  0  0  0  0  0  0  0  0  0  0
   45.3860   31.9300   45.8350 H   0  0  0  0  0  0  0  0  0  0  0  0
   48.3150   32.8240   42.8870 H   0  0  0  0  0  0  0  0  0  0  0  0
   46.4200   29.8790   46.2160 H   0  0  0  0  0  0  0  0  0  0  0  0
   50.6970   29.0240   44.3530 H   0  0  0  0  0  0  0  0  0  0  0  0
   49.4220   28.1180   42.9320 O   0  0  0  0  0  0  0  0  0  0  0  0
   49.5030   28.2680   41.5640 C   0  0  0  0  0  0  0  0  0  0  0  0
   50.6950   28.1290   40.8530 C   0  0  0  0  0  0  0  0  0  0  0  0
   51.6920   27.8930   41.2350 H   0  0  0  0  0  0  0  0  0  0  0  0
   50.3430   28.3540   39.5370 C   0  0  0  0  0  0  0  0  0  0  0  0
   50.9960   28.3370   38.6550 H   0  0  0  0  0  0  0  0  0  0  0  0
   49.0350   28.6140   39.4380 N   0  0  0  0  0  0  0  0  0  0  0  0
   48.4610   28.8280   38.5700 H   0  0  0  0  0  0  0  0  0  0  0  0
   48.5190   28.5640   40.6650 N   0  0  0  0  0  0  0  0  0  0  0  0
  1  6  1  0  0  0  0
  2  1  2  0  0  0  0
  2  3  1  0  0  0  0
  3 25  1  0  0  0  0
  3  4  2  0  0  0  0
  4  5  1  0  0  0  0
  5  8  1  0  0  0  0
  6  5  2  0  0  0  0
  7  1  1  0  0  0  0
  9  2  1  0  0  0  0
 10 16  1  0  0  0  0
 10  9  1  0  0  0  0
 10 15  1  0  0  0  0
 11 18  1  0  0  0  0
 11 10  1  0  0  0  0
 12 19  1  0  0  0  0
 12 13  1  0  0  0  0
 12 11  1  0  0  0  0
 13 20  1  0  0  0  0
 13 14  1  0  0  0  0
 14 22  1  0  0  0  0
 14  9  1  0  0  0  0
 17 11  1  0  0  0  0
 21 13  1  0  0  0  0
 23 14  1  0  0  0  0
 24 29  1  0  0  0  0
 24 33  1  0  0  0  0
 25 24  2  0  0  0  0
 26 27  2  0  0  0  0
 26 25  1  0  0  0  0
 27 28  1  0  0  0  0
 28 30  1  0  0  0  0
 28 29  2  0  0  0  0
 29 35  1  0  0  0  0
 31 36  1  1  0  0  0
 31 30  1  0  0  0  0
 32 27  1  0  0  0  0
 32 31  1  0  0  0  0
 34 26  1  0  0  0  0
 37 31  1  0  0  0  0
 38 37  1  0  0  0  0
 39 40  1  0  0  0  0
 39 38  1  0  0  0  0
 41 39  2  0  0  0  0
 42 41  1  0  0  0  0
 43 41  1  0  0  0  0
 43 45  1  0  0  0  0
 44 43  1  0  0  0  0
 45 38  2  0  0  0  0
M  END
>  <minimizedAffinity>
-4.7103076

>  <minimizedRMSD>
1.62177396

$$$$
