
 OpenBabel03242510083D

 27 29  0  0  0  0  0  0  0  0999 V2000
   44.8660   33.2270   41.0380 Br  0  0  0  0  0  0  0  0  0  0  0  0
   46.5400   34.1240   40.9030 C   0  0  0  0  0  0  0  0  0  0  0  0
   47.0140   34.8620   41.9760 C   0  0  0  0  0  0  0  0  0  0  0  0
   48.2340   35.5310   41.9050 C   0  0  0  0  0  0  0  0  0  0  0  0
   48.9470   35.4400   40.7470 C   0  0  0  0  0  0  0  0  0  0  0  0
   48.4470   34.7010   39.7070 C   0  0  0  0  0  0  0  0  0  0  0  0
   47.2500   34.0300   39.7420 C   0  0  0  0  0  0  0  0  0  0  0  0
   48.5160   36.0780   42.7940 H   0  0  0  0  0  0  0  0  0  0  0  0
   49.8760   35.9700   40.7410 H   0  0  0  0  0  0  0  0  0  0  0  0
   49.1390   34.7270   38.8480 H   0  0  0  0  0  0  0  0  0  0  0  0
   45.6340   34.0250   45.2560 C   0  0  0  0  0  0  0  0  0  0  0  0
   44.6830   35.0260   45.4950 C   0  0  0  0  0  0  0  0  0  0  0  0
   44.5300   35.9940   44.5030 C   0  0  0  0  0  0  0  0  0  0  0  0
   45.2930   35.9130   43.3850 N   0  0  0  0  0  0  0  0  0  0  0  0
   46.2110   34.9220   43.1860 C   0  0  0  0  0  0  0  0  0  0  0  0
   46.3730   33.9710   44.1420 N   0  0  0  0  0  0  0  0  0  0  0  0
   45.7430   33.2760   46.0390 H   0  0  0  0  0  0  0  0  0  0  0  0
   44.0750   35.0980   46.3750 H   0  0  0  0  0  0  0  0  0  0  0  0
   43.8450   36.8170   44.5460 H   0  0  0  0  0  0  0  0  0  0  0  0
   46.8830   33.2990   38.5420 C   0  0  0  0  0  0  0  0  0  0  0  0
   46.4810   32.0170   38.2650 C   0  0  0  0  0  0  0  0  0  0  0  0
   46.3580   31.2560   38.9880 H   0  0  0  0  0  0  0  0  0  0  0  0
   46.2450   31.8070   36.9310 C   0  0  0  0  0  0  0  0  0  0  0  0
   45.9210   30.8950   36.4500 H   0  0  0  0  0  0  0  0  0  0  0  0
   46.5160   33.0080   36.3970 N   0  0  0  0  0  0  0  0  0  0  0  0
   46.4570   33.2690   35.3770 H   0  0  0  0  0  0  0  0  0  0  0  0
   46.8840   33.8630   37.3240 N   0  0  0  0  0  0  0  0  0  0  0  0
  2  1  1  0  0  0  0
  2  3  1  0  0  0  0
  3 15  1  0  0  0  0
  4  3  2  0  0  0  0
  4  8  1  0  0  0  0
  5  4  1  0  0  0  0
  6  7  1  0  0  0  0
  6  5  2  0  0  0  0
  7  2  2  0  0  0  0
  9  5  1  0  0  0  0
 10  6  1  0  0  0  0
 11 12  1  0  0  0  0
 11 17  1  0  0  0  0
 12 18  1  0  0  0  0
 13 19  1  0  0  0  0
 13 12  2  0  0  0  0
 14 13  1  0  0  0  0
 15 14  2  0  0  0  0
 15 16  1  0  0  0  0
 16 11  2  0  0  0  0
 20  7  1  0  0  0  0
 21 20  1  0  0  0  0
 21 22  1  0  0  0  0
 23 21  2  0  0  0  0
 24 23  1  0  0  0  0
 25 23  1  0  0  0  0
 25 27  1  0  0  0  0
 26 25  1  0  0  0  0
 27 20  2  0  0  0  0
M  END
>  <minimizedAffinity>
-5.52435637

>  <minimizedRMSD>
0.502575219

$$$$
