
 OpenBabel03242518283D

 20 21  0  0  0  0  0  0  0  0999 V2000
   49.3390   33.9710   42.5690 C   0  0  0  0  0  0  0  0  0  0  0  0
   49.7930   35.1070   42.8380 O   0  0  0  0  0  0  0  0  0  0  0  0
   49.7430   33.0920   41.5290 C   0  0  0  0  0  0  0  0  0  0  0  0
   51.0020   32.5300   41.7430 C   0  0  0  0  0  0  0  0  0  0  0  0
   51.4750   31.6460   40.7550 C   0  0  0  0  0  0  0  0  0  0  0  0
   50.6880   31.3950   39.6680 N   0  0  0  0  0  0  0  0  0  0  0  0
   49.4720   31.9770   39.5220 C   0  0  0  0  0  0  0  0  0  0  0  0
   49.0080   32.8240   40.4590 N   0  0  0  0  0  0  0  0  0  0  0  0
   51.6480   32.7040   42.5870 H   0  0  0  0  0  0  0  0  0  0  0  0
   52.4340   31.1610   40.8280 H   0  0  0  0  0  0  0  0  0  0  0  0
   48.9640   31.6840   38.6120 H   0  0  0  0  0  0  0  0  0  0  0  0
   48.3030   33.5000   43.3900 O   0  0  0  0  0  0  0  0  0  0  0  0
   47.0710   34.1890   43.3870 C   0  0  0  0  0  0  0  0  0  0  0  0
   46.0510   34.1690   44.3170 C   0  0  0  0  0  0  0  0  0  0  0  0
   46.1020   33.5670   45.2210 H   0  0  0  0  0  0  0  0  0  0  0  0
   45.0820   35.0200   43.8270 C   0  0  0  0  0  0  0  0  0  0  0  0
   44.1470   35.2070   44.3560 H   0  0  0  0  0  0  0  0  0  0  0  0
   45.5130   35.5330   42.6400 N   0  0  0  0  0  0  0  0  0  0  0  0
   44.8850   36.2010   42.1390 H   0  0  0  0  0  0  0  0  0  0  0  0
   46.7190   35.0300   42.3700 N   0  0  0  0  0  0  0  0  0  0  0  0
  1  2  2  0  0  0  0
  1 12  1  0  0  0  0
  3  4  1  0  0  0  0
  3  1  1  0  0  0  0
  4  9  1  0  0  0  0
  5 10  1  0  0  0  0
  5  4  2  0  0  0  0
  6  5  1  0  0  0  0
  7  6  2  0  0  0  0
  7  8  1  0  0  0  0
  8  3  2  0  0  0  0
 11  7  1  0  0  0  0
 13 12  1  0  0  0  0
 13 14  1  0  0  0  0
 14 15  1  0  0  0  0
 16 14  2  0  0  0  0
 16 17  1  0  0  0  0
 18 16  1  0  0  0  0
 19 18  1  0  0  0  0
 20 18  1  0  0  0  0
 20 13  2  0  0  0  0
M  END
>  <minimizedAffinity>
-3.62837434

>  <minimizedRMSD>
5.70492983

$$$$
