
 OpenBabel03252509323D

 26 27  0  0  0  0  0  0  0  0999 V2000
   37.0500   28.1930   41.0750 O   0  0  0  0  0  0  0  0  0  0  0  0
   36.7290   27.4660   42.2210 C   0  0  0  0  0  0  0  0  0  0  0  0
   36.6940   28.0890   43.1320 H   0  0  0  0  0  0  0  0  0  0  0  0
   35.7010   27.0690   42.0420 H   0  0  0  0  0  0  0  0  0  0  0  0
   38.1640   24.0290   42.0700 C   0  0  0  0  0  0  0  0  0  0  0  0
   37.2710   25.1090   41.8680 C   0  0  0  0  0  0  0  0  0  0  0  0
   37.6250   26.3350   42.4110 C   0  0  0  0  0  0  0  0  0  0  0  0
   38.8040   26.4350   43.1030 N   0  0  0  0  0  0  0  0  0  0  0  0
   39.6340   25.3760   43.2760 C   0  0  0  0  0  0  0  0  0  0  0  0
   39.3110   24.1840   42.7610 N   0  0  0  0  0  0  0  0  0  0  0  0
   37.9640   23.0350   41.6800 H   0  0  0  0  0  0  0  0  0  0  0  0
   36.3660   24.9220   41.3060 H   0  0  0  0  0  0  0  0  0  0  0  0
   40.5140   25.6460   43.8470 H   0  0  0  0  0  0  0  0  0  0  0  0
   38.1940   29.7590   42.8230 O   0  0  0  0  0  0  0  0  0  0  0  0
   37.3500   29.7900   41.5780 P   0  0  2  0  0  0  0  0  0  0  0  0
   35.8570   30.5170   41.8180 O   0  0  0  0  0  0  0  0  0  0  0  0
   35.1310   30.1260   41.2910 H   0  0  0  0  0  0  0  0  0  0  0  0
   38.2260   30.5520   40.3650 O   0  0  0  0  0  0  0  0  0  0  0  0
   38.2570   31.9380   40.2610 C   0  0  0  0  0  0  0  0  0  0  0  0
   39.0620   33.0480   40.4970 C   0  0  0  0  0  0  0  0  0  0  0  0
   40.0270   32.7600   40.9140 H   0  0  0  0  0  0  0  0  0  0  0  0
   38.3350   34.1590   40.1090 C   0  0  0  0  0  0  0  0  0  0  0  0
   38.8490   35.1030   40.2400 H   0  0  0  0  0  0  0  0  0  0  0  0
   37.1290   33.7370   39.6530 N   0  0  0  0  0  0  0  0  0  0  0  0
   36.4540   34.4430   39.3200 H   0  0  0  0  0  0  0  0  0  0  0  0
   37.0840   32.4050   39.7450 N   0  0  0  0  0  0  0  0  0  0  0  0
  1 15  1  0  0  0  0
  1  2  1  0  0  0  0
  2  7  1  0  0  0  0
  2  3  1  0  0  0  0
  4  2  1  0  0  0  0
  5 10  1  0  0  0  0
  6  5  2  0  0  0  0
  6  7  1  0  0  0  0
  7  8  2  0  0  0  0
  8  9  1  0  0  0  0
  9 13  1  0  0  0  0
 10  9  2  0  0  0  0
 11  5  1  0  0  0  0
 12  6  1  0  0  0  0
 15 16  1  0  0  0  0
 15 14  2  1  0  0  0
 17 16  1  0  0  0  0
 18 15  1  0  0  0  0
 19 18  1  0  0  0  0
 19 20  1  0  0  0  0
 20 21  1  0  0  0  0
 22 23  1  0  0  0  0
 22 20  2  0  0  0  0
 24 26  1  0  0  0  0
 24 22  1  0  0  0  0
 25 24  1  0  0  0  0
 26 19  2  0  0  0  0
M  END
>  <minimizedAffinity>
-4.803895

$$$$

 OpenBabel03252509323D

 26 27  0  0  0  0  0  0  0  0999 V2000
   36.5840   28.4920   42.2530 O   0  0  0  0  0  0  0  0  0  0  0  0
   37.6400   28.3180   43.1470 C   0  0  0  0  0  0  0  0  0  0  0  0
   38.4210   29.0920   43.0490 H   0  0  0  0  0  0  0  0  0  0  0  0
   37.1900   28.4180   44.1620 H   0  0  0  0  0  0  0  0  0  0  0  0
   39.9700   25.4360   43.5550 C   0  0  0  0  0  0  0  0  0  0  0  0
   39.4270   26.7380   43.6790 C   0  0  0  0  0  0  0  0  0  0  0  0
   38.2240   26.9890   43.0380 C   0  0  0  0  0  0  0  0  0  0  0  0
   37.6310   25.9770   42.3290 N   0  0  0  0  0  0  0  0  0  0  0  0
   38.1820   24.7410   42.2320 C   0  0  0  0  0  0  0  0  0  0  0  0
   39.3430   24.4790   42.8430 N   0  0  0  0  0  0  0  0  0  0  0  0
   40.9080   25.1550   44.0230 H   0  0  0  0  0  0  0  0  0  0  0  0
   39.9780   27.4640   44.2630 H   0  0  0  0  0  0  0  0  0  0  0  0
   37.5710   24.0770   41.6330 H   0  0  0  0  0  0  0  0  0  0  0  0
   38.2460   30.4580   41.8170 O   0  0  0  0  0  0  0  0  0  0  0  0
   36.9440   29.8790   41.3360 P   0  0  2  0  0  0  0  0  0  0  0  0
   35.6520   30.9340   41.5160 O   0  0  0  0  0  0  0  0  0  0  0  0
   34.8030   30.4970   41.7290 H   0  0  0  0  0  0  0  0  0  0  0  0
   37.1380   29.3980   39.7380 O   0  0  0  0  0  0  0  0  0  0  0  0
   37.4590   30.3160   38.7450 C   0  0  0  0  0  0  0  0  0  0  0  0
   38.0660   30.4300   37.4970 C   0  0  0  0  0  0  0  0  0  0  0  0
   38.4330   29.4680   37.1420 H   0  0  0  0  0  0  0  0  0  0  0  0
   37.9880   31.7640   37.1350 C   0  0  0  0  0  0  0  0  0  0  0  0
   38.4280   31.9960   36.1740 H   0  0  0  0  0  0  0  0  0  0  0  0
   37.3560   32.4350   38.1300 N   0  0  0  0  0  0  0  0  0  0  0  0
   37.2120   33.4520   38.0240 H   0  0  0  0  0  0  0  0  0  0  0  0
   37.0390   31.5660   39.0940 N   0  0  0  0  0  0  0  0  0  0  0  0
  1  2  1  0  0  0  0
  2  4  1  0  0  0  0
  3  2  1  0  0  0  0
  5  6  1  0  0  0  0
  5 11  1  0  0  0  0
  6 12  1  0  0  0  0
  7  2  1  0  0  0  0
  7  6  2  0  0  0  0
  8  7  1  0  0  0  0
  9  8  2  0  0  0  0
  9 10  1  0  0  0  0
 10  5  2  0  0  0  0
 13  9  1  0  0  0  0
 15 16  1  0  0  0  0
 15 14  2  1  0  0  0
 15  1  1  0  0  0  0
 16 17  1  0  0  0  0
 18 15  1  0  0  0  0
 19 26  2  0  0  0  0
 19 18  1  0  0  0  0
 20 19  1  0  0  0  0
 21 20  1  0  0  0  0
 22 20  2  0  0  0  0
 22 24  1  0  0  0  0
 23 22  1  0  0  0  0
 24 26  1  0  0  0  0
 25 24  1  0  0  0  0
M  END
>  <minimizedAffinity>
-4.73756981

$$$$

 OpenBabel03252509323D

 26 27  0  0  0  0  0  0  0  0999 V2000
   40.0970   31.2460   40.6940 O   0  0  0  0  0  0  0  0  0  0  0  0
   39.8700   31.2470   42.0700 C   0  0  0  0  0  0  0  0  0  0  0  0
   40.7280   31.6330   42.6480 H   0  0  0  0  0  0  0  0  0  0  0  0
   39.0140   31.9450   42.2290 H   0  0  0  0  0  0  0  0  0  0  0  0
   40.0430   27.6820   43.1410 C   0  0  0  0  0  0  0  0  0  0  0  0
   40.4530   28.9510   42.6680 C   0  0  0  0  0  0  0  0  0  0  0  0
   39.4800   29.9310   42.5530 C   0  0  0  0  0  0  0  0  0  0  0  0
   38.1900   29.6240   42.9000 N   0  0  0  0  0  0  0  0  0  0  0  0
   37.8340   28.3940   43.3490 C   0  0  0  0  0  0  0  0  0  0  0  0
   38.7580   27.4350   43.4670 N   0  0  0  0  0  0  0  0  0  0  0  0
   40.7400   26.8570   43.2600 H   0  0  0  0  0  0  0  0  0  0  0  0
   41.4980   29.0880   42.4220 H   0  0  0  0  0  0  0  0  0  0  0  0
   36.7750   28.3410   43.5720 H   0  0  0  0  0  0  0  0  0  0  0  0
   40.3230   33.3720   39.1960 O   0  0  0  0  0  0  0  0  0  0  0  0
   39.3450   32.6390   40.0730 P   0  0  2  0  0  0  0  0  0  0  0  0
   38.8360   33.5490   41.3880 O   0  0  0  0  0  0  0  0  0  0  0  0
   38.6690   33.0250   42.1980 H   0  0  0  0  0  0  0  0  0  0  0  0
   38.0530   32.1410   39.1220 O   0  0  0  0  0  0  0  0  0  0  0  0
   37.1110   31.2390   39.6030 C   0  0  0  0  0  0  0  0  0  0  0  0
   36.5050   30.0170   39.3260 C   0  0  0  0  0  0  0  0  0  0  0  0
   36.8870   29.5830   38.4020 H   0  0  0  0  0  0  0  0  0  0  0  0
   35.6060   29.7750   40.3500 C   0  0  0  0  0  0  0  0  0  0  0  0
   35.0590   28.8450   40.2580 H   0  0  0  0  0  0  0  0  0  0  0  0
   35.6640   30.8150   41.2180 N   0  0  0  0  0  0  0  0  0  0  0  0
   35.0520   30.7980   42.0490 H   0  0  0  0  0  0  0  0  0  0  0  0
   36.5670   31.6920   40.7690 N   0  0  0  0  0  0  0  0  0  0  0  0
  1  2  1  0  0  0  0
  2  4  1  0  0  0  0
  2  7  1  0  0  0  0
  2  3  1  0  0  0  0
  5 11  1  0  0  0  0
  5 10  1  0  0  0  0
  6  5  2  0  0  0  0
  7  6  1  0  0  0  0
  7  8  2  0  0  0  0
  8  9  1  0  0  0  0
  9 10  2  0  0  0  0
  9 13  1  0  0  0  0
 12  6  1  0  0  0  0
 15 14  2  6  0  0  0
 15  1  1  0  0  0  0
 15 16  1  0  0  0  0
 16 17  1  0  0  0  0
 18 19  1  0  0  0  0
 18 15  1  0  0  0  0
 19 26  2  0  0  0  0
 20 19  1  0  0  0  0
 20 22  2  0  0  0  0
 21 20  1  0  0  0  0
 22 24  1  0  0  0  0
 23 22  1  0  0  0  0
 24 25  1  0  0  0  0
 26 24  1  0  0  0  0
M  END
>  <minimizedAffinity>
-4.72534323

$$$$

 OpenBabel03252509323D

 26 27  0  0  0  0  0  0  0  0999 V2000
   36.9950   28.2010   41.1390 O   0  0  0  0  0  0  0  0  0  0  0  0
   36.8440   27.6140   42.3940 C   0  0  0  0  0  0  0  0  0  0  0  0
   36.9050   28.3440   43.2210 H   0  0  0  0  0  0  0  0  0  0  0  0
   35.8150   27.1840   42.3990 H   0  0  0  0  0  0  0  0  0  0  0  0
   39.8320   25.7010   43.5350 C   0  0  0  0  0  0  0  0  0  0  0  0
   38.9290   26.7760   43.3520 C   0  0  0  0  0  0  0  0  0  0  0  0
   37.7920   26.5290   42.6010 C   0  0  0  0  0  0  0  0  0  0  0  0
   37.6030   25.2750   42.0810 N   0  0  0  0  0  0  0  0  0  0  0  0
   38.4910   24.2690   42.2780 C   0  0  0  0  0  0  0  0  0  0  0  0
   39.5960   24.4860   43.0000 N   0  0  0  0  0  0  0  0  0  0  0  0
   40.7480   25.8070   44.1090 H   0  0  0  0  0  0  0  0  0  0  0  0
   39.1750   27.7270   43.8060 H   0  0  0  0  0  0  0  0  0  0  0  0
   38.1730   23.3540   41.7930 H   0  0  0  0  0  0  0  0  0  0  0  0
   38.1160   30.0420   42.6120 O   0  0  0  0  0  0  0  0  0  0  0  0
   37.2410   29.8630   41.4010 P   0  0  2  0  0  0  0  0  0  0  0  0
   35.7260   30.5600   41.5810 O   0  0  0  0  0  0  0  0  0  0  0  0
   35.0030   30.0710   41.1380 H   0  0  0  0  0  0  0  0  0  0  0  0
   38.0540   30.4770   40.0660 O   0  0  0  0  0  0  0  0  0  0  0  0
   38.4970   31.7940   40.0360 C   0  0  0  0  0  0  0  0  0  0  0  0
   39.6210   32.5800   39.7950 C   0  0  0  0  0  0  0  0  0  0  0  0
   40.4840   31.9700   39.5300 H   0  0  0  0  0  0  0  0  0  0  0  0
   39.2370   33.8960   39.9810 C   0  0  0  0  0  0  0  0  0  0  0  0
   40.0240   34.6220   39.8240 H   0  0  0  0  0  0  0  0  0  0  0  0
   37.9240   33.9080   40.3250 N   0  0  0  0  0  0  0  0  0  0  0  0
   37.4700   34.8180   40.5030 H   0  0  0  0  0  0  0  0  0  0  0  0
   37.4830   32.6470   40.3570 N   0  0  0  0  0  0  0  0  0  0  0  0
  1 15  1  0  0  0  0
  1  2  1  0  0  0  0
  2  4  1  0  0  0  0
  2  7  1  0  0  0  0
  2  3  1  0  0  0  0
  5 11  1  0  0  0  0
  6  5  1  0  0  0  0
  6 12  1  0  0  0  0
  7  6  2  0  0  0  0
  8  9  2  0  0  0  0
  8  7  1  0  0  0  0
  9 10  1  0  0  0  0
 10  5  2  0  0  0  0
 13  9  1  0  0  0  0
 15 16  1  0  0  0  0
 15 14  2  1  0  0  0
 17 16  1  0  0  0  0
 18 15  1  0  0  0  0
 19 18  1  0  0  0  0
 19 26  2  0  0  0  0
 20 22  2  0  0  0  0
 20 19  1  0  0  0  0
 21 20  1  0  0  0  0
 22 24  1  0  0  0  0
 23 22  1  0  0  0  0
 24 26  1  0  0  0  0
 24 25  1  0  0  0  0
M  END
>  <minimizedAffinity>
-4.7139082

$$$$

 OpenBabel03252509323D

 26 27  0  0  0  0  0  0  0  0999 V2000
   36.9600   29.7440   39.4210 O   0  0  0  0  0  0  0  0  0  0  0  0
   36.7910   30.9810   38.7990 C   0  0  0  0  0  0  0  0  0  0  0  0
   36.7090   30.9040   37.7010 H   0  0  0  0  0  0  0  0  0  0  0  0
   35.8220   31.3770   39.1840 H   0  0  0  0  0  0  0  0  0  0  0  0
   40.0730   32.7440   38.9130 C   0  0  0  0  0  0  0  0  0  0  0  0
   39.0710   31.8190   38.5330 C   0  0  0  0  0  0  0  0  0  0  0  0
   37.8430   31.9180   39.1670 C   0  0  0  0  0  0  0  0  0  0  0  0
   37.6660   32.8920   40.1150 N   0  0  0  0  0  0  0  0  0  0  0  0
   38.6510   33.7610   40.4530 C   0  0  0  0  0  0  0  0  0  0  0  0
   39.8440   33.6830   39.8530 N   0  0  0  0  0  0  0  0  0  0  0  0
   41.0640   32.7370   38.4670 H   0  0  0  0  0  0  0  0  0  0  0  0
   39.3160   31.0880   37.7730 H   0  0  0  0  0  0  0  0  0  0  0  0
   38.3260   34.4570   41.2170 H   0  0  0  0  0  0  0  0  0  0  0  0
   34.4180   29.2410   39.7410 O   0  0  0  0  0  0  0  0  0  0  0  0
   35.6680   29.5650   40.5120 P   0  0  2  0  0  0  0  0  0  0  0  0
   35.5520   31.0000   41.3740 O   0  0  0  0  0  0  0  0  0  0  0  0
   36.3900   31.5020   41.4340 H   0  0  0  0  0  0  0  0  0  0  0  0
   36.0230   28.2640   41.5140 O   0  0  0  0  0  0  0  0  0  0  0  0
   37.2600   28.1530   42.1370 C   0  0  0  0  0  0  0  0  0  0  0  0
   38.2410   27.2320   42.4940 C   0  0  0  0  0  0  0  0  0  0  0  0
   37.9710   26.2220   42.1880 H   0  0  0  0  0  0  0  0  0  0  0  0
   39.2440   27.9420   43.1310 C   0  0  0  0  0  0  0  0  0  0  0  0
   40.0800   27.3410   43.4660 H   0  0  0  0  0  0  0  0  0  0  0  0
   38.8830   29.2490   43.1600 N   0  0  0  0  0  0  0  0  0  0  0  0
   39.5220   29.9270   43.6030 H   0  0  0  0  0  0  0  0  0  0  0  0
   37.6930   29.3740   42.5630 N   0  0  0  0  0  0  0  0  0  0  0  0
  1 15  1  0  0  0  0
  2  7  1  0  0  0  0
  2  4  1  0  0  0  0
  2  1  1  0  0  0  0
  3  2  1  0  0  0  0
  5 10  1  0  0  0  0
  6  5  2  0  0  0  0
  6  7  1  0  0  0  0
  7  8  2  0  0  0  0
  8  9  1  0  0  0  0
  9 13  1  0  0  0  0
 10  9  2  0  0  0  0
 11  5  1  0  0  0  0
 12  6  1  0  0  0  0
 15 14  2  6  0  0  0
 15 16  1  0  0  0  0
 15 18  1  0  0  0  0
 16 17  1  0  0  0  0
 18 19  1  0  0  0  0
 19 20  1  0  0  0  0
 19 26  2  0  0  0  0
 20 22  2  0  0  0  0
 21 20  1  0  0  0  0
 22 24  1  0  0  0  0
 22 23  1  0  0  0  0
 24 25  1  0  0  0  0
 26 24  1  0  0  0  0
M  END
>  <minimizedAffinity>
-4.6533165

$$$$

 OpenBabel03252509323D

 26 27  0  0  0  0  0  0  0  0999 V2000
   37.1400   30.0950   41.7670 O   0  0  0  0  0  0  0  0  0  0  0  0
   38.1030   29.6090   42.6500 C   0  0  0  0  0  0  0  0  0  0  0  0
   39.0980   30.0610   42.4940 H   0  0  0  0  0  0  0  0  0  0  0  0
   37.7520   29.9080   43.6670 H   0  0  0  0  0  0  0  0  0  0  0  0
   37.2530   26.0340   42.0250 C   0  0  0  0  0  0  0  0  0  0  0  0
   37.1390   27.4450   42.0520 C   0  0  0  0  0  0  0  0  0  0  0  0
   38.1900   28.1570   42.6080 C   0  0  0  0  0  0  0  0  0  0  0  0
   39.2690   27.4670   43.0960 N   0  0  0  0  0  0  0  0  0  0  0  0
   39.3430   26.1130   43.0530 C   0  0  0  0  0  0  0  0  0  0  0  0
   38.3390   25.4080   42.5210 N   0  0  0  0  0  0  0  0  0  0  0  0
   36.4760   25.4010   41.6090 H   0  0  0  0  0  0  0  0  0  0  0  0
   36.2420   27.8900   41.6390 H   0  0  0  0  0  0  0  0  0  0  0  0
   40.2670   25.7490   43.4850 H   0  0  0  0  0  0  0  0  0  0  0  0
   39.1150   31.7870   41.5380 O   0  0  0  0  0  0  0  0  0  0  0  0
   37.9050   31.2720   40.8070 P   0  0  2  0  0  0  0  0  0  0  0  0
   36.7690   32.4680   40.5010 O   0  0  0  0  0  0  0  0  0  0  0  0
   35.8410   32.1590   40.5360 H   0  0  0  0  0  0  0  0  0  0  0  0
   38.4190   30.5240   39.3940 O   0  0  0  0  0  0  0  0  0  0  0  0
   39.3770   31.1120   38.5760 C   0  0  0  0  0  0  0  0  0  0  0  0
   40.7500   31.2800   38.4230 C   0  0  0  0  0  0  0  0  0  0  0  0
   41.3040   30.7790   39.2170 H   0  0  0  0  0  0  0  0  0  0  0  0
   40.9360   32.0440   37.2850 C   0  0  0  0  0  0  0  0  0  0  0  0
   41.9710   32.2530   37.0460 H   0  0  0  0  0  0  0  0  0  0  0  0
   39.7160   32.3310   36.7660 N   0  0  0  0  0  0  0  0  0  0  0  0
   39.6680   32.9000   35.9060 H   0  0  0  0  0  0  0  0  0  0  0  0
   38.7830   31.7720   37.5410 N   0  0  0  0  0  0  0  0  0  0  0  0
  1  2  1  0  0  0  0
  2  4  1  0  0  0  0
  3  2  1  0  0  0  0
  5  6  2  0  0  0  0
  5 10  1  0  0  0  0
  6  7  1  0  0  0  0
  7  2  1  0  0  0  0
  7  8  2  0  0  0  0
  9  8  1  0  0  0  0
  9 13  1  0  0  0  0
 10  9  2  0  0  0  0
 11  5  1  0  0  0  0
 12  6  1  0  0  0  0
 15 14  2  1  0  0  0
 15  1  1  0  0  0  0
 16 17  1  0  0  0  0
 16 15  1  0  0  0  0
 18 15  1  0  0  0  0
 19 18  1  0  0  0  0
 20 19  1  0  0  0  0
 20 21  1  0  0  0  0
 22 20  2  0  0  0  0
 23 22  1  0  0  0  0
 24 22  1  0  0  0  0
 24 26  1  0  0  0  0
 25 24  1  0  0  0  0
 26 19  2  0  0  0  0
M  END
>  <minimizedAffinity>
-4.63334656

$$$$

 OpenBabel03252509323D

 26 27  0  0  0  0  0  0  0  0999 V2000
   36.1560   30.1780   38.4000 O   0  0  0  0  0  0  0  0  0  0  0  0
   37.5420   30.2370   38.5350 C   0  0  0  0  0  0  0  0  0  0  0  0
   37.9720   29.3200   38.9770 H   0  0  0  0  0  0  0  0  0  0  0  0
   37.9380   30.3290   37.4960 H   0  0  0  0  0  0  0  0  0  0  0  0
   37.7300   33.7310   39.8170 C   0  0  0  0  0  0  0  0  0  0  0  0
   37.2990   32.6080   39.0710 C   0  0  0  0  0  0  0  0  0  0  0  0
   37.9610   31.4100   39.2870 C   0  0  0  0  0  0  0  0  0  0  0  0
   38.9830   31.3760   40.2000 N   0  0  0  0  0  0  0  0  0  0  0  0
   39.3680   32.4750   40.8970 C   0  0  0  0  0  0  0  0  0  0  0  0
   38.7420   33.6410   40.7030 N   0  0  0  0  0  0  0  0  0  0  0  0
   37.2670   34.7080   39.7090 H   0  0  0  0  0  0  0  0  0  0  0  0
   36.4810   32.7440   38.3750 H   0  0  0  0  0  0  0  0  0  0  0  0
   40.1890   32.2550   41.5690 H   0  0  0  0  0  0  0  0  0  0  0  0
   35.1220   27.7820   38.3120 O   0  0  0  0  0  0  0  0  0  0  0  0
   35.6360   28.8160   39.2760 P   0  0  2  0  0  0  0  0  0  0  0  0
   34.4640   29.3440   40.3540 O   0  0  0  0  0  0  0  0  0  0  0  0
   34.5440   30.2870   40.6040 H   0  0  0  0  0  0  0  0  0  0  0  0
   36.9720   28.1790   40.0710 O   0  0  0  0  0  0  0  0  0  0  0  0
   36.9980   28.0670   41.4560 C   0  0  0  0  0  0  0  0  0  0  0  0
   37.0320   27.1370   42.4910 C   0  0  0  0  0  0  0  0  0  0  0  0
   37.0440   26.1160   42.1100 H   0  0  0  0  0  0  0  0  0  0  0  0
   37.0400   27.8540   43.6740 C   0  0  0  0  0  0  0  0  0  0  0  0
   37.0660   27.2470   44.5700 H   0  0  0  0  0  0  0  0  0  0  0  0
   37.0110   29.1750   43.3670 N   0  0  0  0  0  0  0  0  0  0  0  0
   37.0120   29.8610   44.1390 H   0  0  0  0  0  0  0  0  0  0  0  0
   36.9860   29.3010   42.0370 N   0  0  0  0  0  0  0  0  0  0  0  0
  1  2  1  0  0  0  0
  1 15  1  0  0  0  0
  2  3  1  0  0  0  0
  2  7  1  0  0  0  0
  4  2  1  0  0  0  0
  5 10  1  0  0  0  0
  6  7  1  0  0  0  0
  6  5  2  0  0  0  0
  7  8  2  0  0  0  0
  8  9  1  0  0  0  0
  9 13  1  0  0  0  0
 10  9  2  0  0  0  0
 11  5  1  0  0  0  0
 12  6  1  0  0  0  0
 15 14  2  6  0  0  0
 15 18  1  0  0  0  0
 15 16  1  0  0  0  0
 16 17  1  0  0  0  0
 18 19  1  0  0  0  0
 19 26  2  0  0  0  0
 19 20  1  0  0  0  0
 20 22  2  0  0  0  0
 21 20  1  0  0  0  0
 22 23  1  0  0  0  0
 24 22  1  0  0  0  0
 24 25  1  0  0  0  0
 26 24  1  0  0  0  0
M  END
>  <minimizedAffinity>
-4.63312817

$$$$

 OpenBabel03252509323D

 26 27  0  0  0  0  0  0  0  0999 V2000
   36.5490   28.2740   41.2250 O   0  0  0  0  0  0  0  0  0  0  0  0
   36.6210   27.7530   42.5160 C   0  0  0  0  0  0  0  0  0  0  0  0
   36.9120   28.5060   43.2700 H   0  0  0  0  0  0  0  0  0  0  0  0
   35.5850   27.4160   42.7590 H   0  0  0  0  0  0  0  0  0  0  0  0
   37.9240   24.2780   42.1760 C   0  0  0  0  0  0  0  0  0  0  0  0
   37.0440   25.3840   42.0970 C   0  0  0  0  0  0  0  0  0  0  0  0
   37.5030   26.5970   42.5840 C   0  0  0  0  0  0  0  0  0  0  0  0
   38.7670   26.6620   43.1090 N   0  0  0  0  0  0  0  0  0  0  0  0
   39.5830   25.5800   43.1680 C   0  0  0  0  0  0  0  0  0  0  0  0
   39.1590   24.3990   42.7040 N   0  0  0  0  0  0  0  0  0  0  0  0
   37.6450   23.2910   41.8190 H   0  0  0  0  0  0  0  0  0  0  0  0
   36.0650   25.2230   41.6630 H   0  0  0  0  0  0  0  0  0  0  0  0
   40.5400   25.8240   43.6130 H   0  0  0  0  0  0  0  0  0  0  0  0
   37.9930   30.0380   42.4970 O   0  0  0  0  0  0  0  0  0  0  0  0
   37.0690   29.8910   41.3200 P   0  0  2  0  0  0  0  0  0  0  0  0
   35.6910   30.8410   41.4480 O   0  0  0  0  0  0  0  0  0  0  0  0
   34.8880   30.4370   41.0630 H   0  0  0  0  0  0  0  0  0  0  0  0
   37.9340   30.2330   39.9220 O   0  0  0  0  0  0  0  0  0  0  0  0
   37.3940   29.9870   38.6640 C   0  0  0  0  0  0  0  0  0  0  0  0
   36.1880   29.8800   37.9790 C   0  0  0  0  0  0  0  0  0  0  0  0
   35.3370   30.0430   38.6400 H   0  0  0  0  0  0  0  0  0  0  0  0
   36.5000   29.5960   36.6610 C   0  0  0  0  0  0  0  0  0  0  0  0
   35.6430   29.4850   36.0080 H   0  0  0  0  0  0  0  0  0  0  0  0
   37.8500   29.5320   36.5510 N   0  0  0  0  0  0  0  0  0  0  0  0
   38.2600   29.3270   35.6260 H   0  0  0  0  0  0  0  0  0  0  0  0
   38.3850   29.7670   37.7530 N   0  0  0  0  0  0  0  0  0  0  0  0
  1 15  1  0  0  0  0
  1  2  1  0  0  0  0
  2  7  1  0  0  0  0
  2  4  1  0  0  0  0
  2  3  1  0  0  0  0
  5 10  1  0  0  0  0
  6  5  2  0  0  0  0
  6  7  1  0  0  0  0
  7  8  2  0  0  0  0
  8  9  1  0  0  0  0
  9 13  1  0  0  0  0
 10  9  2  0  0  0  0
 11  5  1  0  0  0  0
 12  6  1  0  0  0  0
 15 16  1  0  0  0  0
 15 14  2  1  0  0  0
 17 16  1  0  0  0  0
 18 15  1  0  0  0  0
 19 18  1  0  0  0  0
 20 21  1  0  0  0  0
 20 19  1  0  0  0  0
 22 20  2  0  0  0  0
 23 22  1  0  0  0  0
 24 22  1  0  0  0  0
 24 26  1  0  0  0  0
 25 24  1  0  0  0  0
 26 19  2  0  0  0  0
M  END
>  <minimizedAffinity>
-4.6025548

$$$$

 OpenBabel03252509323D

 26 27  0  0  0  0  0  0  0  0999 V2000
   36.7330   29.4950   39.5310 O   0  0  0  0  0  0  0  0  0  0  0  0
   35.8650   28.6560   40.2300 C   0  0  0  0  0  0  0  0  0  0  0  0
   35.3790   29.1550   41.0860 H   0  0  0  0  0  0  0  0  0  0  0  0
   35.0670   28.3800   39.5010 H   0  0  0  0  0  0  0  0  0  0  0  0
   37.5020   26.0970   42.3900 C   0  0  0  0  0  0  0  0  0  0  0  0
   36.8580   27.2960   42.0000 C   0  0  0  0  0  0  0  0  0  0  0  0
   36.5280   27.4340   40.6620 C   0  0  0  0  0  0  0  0  0  0  0  0
   36.8380   26.4170   39.7970 N   0  0  0  0  0  0  0  0  0  0  0  0
   37.4560   25.2810   40.2080 C   0  0  0  0  0  0  0  0  0  0  0  0
   37.7840   25.1280   41.4950 N   0  0  0  0  0  0  0  0  0  0  0  0
   37.7960   25.9080   43.4180 H   0  0  0  0  0  0  0  0  0  0  0  0
   36.6600   28.0370   42.7640 H   0  0  0  0  0  0  0  0  0  0  0  0
   37.6170   24.5940   39.3860 H   0  0  0  0  0  0  0  0  0  0  0  0
   38.1980   30.6240   41.3730 O   0  0  0  0  0  0  0  0  0  0  0  0
   36.9880   30.8610   40.5110 P   0  0  2  0  0  0  0  0  0  0  0  0
   35.5860   31.0930   41.4030 O   0  0  0  0  0  0  0  0  0  0  0  0
   34.7780   30.7360   40.9810 H   0  0  0  0  0  0  0  0  0  0  0  0
   37.3060   32.1640   39.5000 O   0  0  0  0  0  0  0  0  0  0  0  0
   38.4910   32.2400   38.7770 C   0  0  0  0  0  0  0  0  0  0  0  0
   39.8520   32.5020   38.9060 C   0  0  0  0  0  0  0  0  0  0  0  0
   40.1180   32.7340   39.9370 H   0  0  0  0  0  0  0  0  0  0  0  0
   40.4060   32.3720   37.6450 C   0  0  0  0  0  0  0  0  0  0  0  0
   41.4730   32.5510   37.6010 H   0  0  0  0  0  0  0  0  0  0  0  0
   39.4150   32.0430   36.7800 N   0  0  0  0  0  0  0  0  0  0  0  0
   39.6550   31.9060   35.7850 H   0  0  0  0  0  0  0  0  0  0  0  0
   38.2670   31.9640   37.4600 N   0  0  0  0  0  0  0  0  0  0  0  0
  1  2  1  0  0  0  0
  1 15  1  0  0  0  0
  2  7  1  0  0  0  0
  2  3  1  0  0  0  0
  4  2  1  0  0  0  0
  5 11  1  0  0  0  0
  6  5  1  0  0  0  0
  6 12  1  0  0  0  0
  7  6  2  0  0  0  0
  8  9  2  0  0  0  0
  8  7  1  0  0  0  0
  9 10  1  0  0  0  0
 10  5  2  0  0  0  0
 13  9  1  0  0  0  0
 15 14  2  1  0  0  0
 15 16  1  0  0  0  0
 17 16  1  0  0  0  0
 18 15  1  0  0  0  0
 19 20  1  0  0  0  0
 19 18  1  0  0  0  0
 20 21  1  0  0  0  0
 22 20  2  0  0  0  0
 23 22  1  0  0  0  0
 24 26  1  0  0  0  0
 24 22  1  0  0  0  0
 25 24  1  0  0  0  0
 26 19  2  0  0  0  0
M  END
>  <minimizedAffinity>
-4.56730795

$$$$
