
 OpenBabel03252504013D

 33 36  0  0  0  0  0  0  0  0999 V2000
   33.4270   28.8620   36.7870 C   0  0  0  0  0  0  0  0  0  0  0  0
   34.1990   29.2250   35.6870 C   0  0  0  0  0  0  0  0  0  0  0  0
   35.5740   29.2480   35.8380 C   0  0  0  0  0  0  0  0  0  0  0  0
   36.1100   28.9200   37.0400 N   0  0  0  0  0  0  0  0  0  0  0  0
   35.3310   28.5700   38.0960 C   0  0  0  0  0  0  0  0  0  0  0  0
   33.9880   28.5410   37.9690 N   0  0  0  0  0  0  0  0  0  0  0  0
   33.8000   29.4910   34.7190 H   0  0  0  0  0  0  0  0  0  0  0  0
   36.2160   29.5270   34.9990 H   0  0  0  0  0  0  0  0  0  0  0  0
   36.3710   26.9230   39.5630 C   0  0  0  0  0  0  0  0  0  0  0  0
   35.9130   28.2160   39.3930 C   0  0  0  0  0  0  0  0  0  0  0  0
   36.0150   29.1260   40.4340 C   0  0  0  0  0  0  0  0  0  0  0  0
   36.5770   28.7150   41.6250 C   0  0  0  0  0  0  0  0  0  0  0  0
   36.8080   29.3530   42.7920 N   0  0  0  0  0  0  0  0  0  0  0  0
   37.3840   28.5320   43.6790 C   0  0  0  0  0  0  0  0  0  0  0  0
   37.5420   27.2940   43.0740 C   0  0  0  0  0  0  0  0  0  0  0  0
   37.0380   27.4160   41.7970 C   0  0  0  0  0  0  0  0  0  0  0  0
   36.9300   26.5260   40.7580 C   0  0  0  0  0  0  0  0  0  0  0  0
   36.2840   26.2260   38.7420 H   0  0  0  0  0  0  0  0  0  0  0  0
   35.6490   30.1450   40.2840 H   0  0  0  0  0  0  0  0  0  0  0  0
   36.5790   30.3580   43.0060 H   0  0  0  0  0  0  0  0  0  0  0  0
   37.7050   28.7060   44.7030 H   0  0  0  0  0  0  0  0  0  0  0  0
   37.9590   26.3760   43.4460 H   0  0  0  0  0  0  0  0  0  0  0  0
   37.2640   25.5000   40.8110 H   0  0  0  0  0  0  0  0  0  0  0  0
   31.9980   28.8450   36.6080 C   0  0  0  0  0  0  0  0  0  0  0  0
   31.3570   27.9040   36.0530 O   0  0  0  0  0  0  0  0  0  0  0  0
   31.2040   29.9770   37.0890 C   0  0  0  0  0  0  0  0  0  0  0  0
   30.8560   31.1390   36.4310 C   0  0  0  0  0  0  0  0  0  0  0  0
   31.1700   31.3220   35.4200 H   0  0  0  0  0  0  0  0  0  0  0  0
   30.0920   31.9570   37.2460 C   0  0  0  0  0  0  0  0  0  0  0  0
   29.6870   32.9230   36.9850 H   0  0  0  0  0  0  0  0  0  0  0  0
   29.9960   31.2580   38.3920 N   0  0  0  0  0  0  0  0  0  0  0  0
   29.4780   31.5880   39.2380 H   0  0  0  0  0  0  0  0  0  0  0  0
   30.6360   30.1040   38.3210 N   0  0  0  0  0  0  0  0  0  0  0  0
  1  6  1  0  0  0  0
  2  3  1  0  0  0  0
  2  1  2  0  0  0  0
  3  4  2  0  0  0  0
  4  5  1  0  0  0  0
  5 10  1  0  0  0  0
  6  5  2  0  0  0  0
  7  2  1  0  0  0  0
  8  3  1  0  0  0  0
  9 17  1  0  0  0  0
 10  9  2  0  0  0  0
 10 11  1  0  0  0  0
 11 12  2  0  0  0  0
 12 16  1  0  0  0  0
 12 13  1  0  0  0  0
 13 20  1  0  0  0  0
 13 14  1  0  0  0  0
 14 21  1  0  0  0  0
 15 22  1  0  0  0  0
 15 14  2  0  0  0  0
 16 15  1  0  0  0  0
 17 23  1  0  0  0  0
 17 16  2  0  0  0  0
 18  9  1  0  0  0  0
 19 11  1  0  0  0  0
 24  1  1  0  0  0  0
 24 26  1  0  0  0  0
 25 24  2  0  0  0  0
 26 33  2  0  0  0  0
 27 26  1  0  0  0  0
 27 29  2  0  0  0  0
 28 27  1  0  0  0  0
 29 31  1  0  0  0  0
 30 29  1  0  0  0  0
 31 32  1  0  0  0  0
 33 31  1  0  0  0  0
M  END
>  <minimizedAffinity>
-5.9344511

$$$$

 OpenBabel03252504013D

 33 36  0  0  0  0  0  0  0  0999 V2000
   38.3900   31.9020   40.4980 C   0  0  0  0  0  0  0  0  0  0  0  0
   37.0100   32.0310   40.3550 C   0  0  0  0  0  0  0  0  0  0  0  0
   36.2140   30.9820   40.7760 C   0  0  0  0  0  0  0  0  0  0  0  0
   36.8000   29.8790   41.3050 N   0  0  0  0  0  0  0  0  0  0  0  0
   38.1500   29.7820   41.4310 C   0  0  0  0  0  0  0  0  0  0  0  0
   38.9440   30.7940   41.0270 N   0  0  0  0  0  0  0  0  0  0  0  0
   36.5160   32.8960   39.9380 H   0  0  0  0  0  0  0  0  0  0  0  0
   35.1260   31.0430   40.6820 H   0  0  0  0  0  0  0  0  0  0  0  0
   39.9250   28.7650   42.7580 C   0  0  0  0  0  0  0  0  0  0  0  0
   38.7810   28.5890   42.0030 C   0  0  0  0  0  0  0  0  0  0  0  0
   38.2710   27.3150   41.8100 C   0  0  0  0  0  0  0  0  0  0  0  0
   38.9230   26.2420   42.3830 C   0  0  0  0  0  0  0  0  0  0  0  0
   38.6770   24.9160   42.3750 N   0  0  0  0  0  0  0  0  0  0  0  0
   39.6010   24.2540   43.0820 C   0  0  0  0  0  0  0  0  0  0  0  0
   40.5020   25.1840   43.5820 C   0  0  0  0  0  0  0  0  0  0  0  0
   40.0730   26.4180   43.1420 C   0  0  0  0  0  0  0  0  0  0  0  0
   40.5670   27.6850   43.3240 C   0  0  0  0  0  0  0  0  0  0  0  0
   40.3100   29.7640   42.8990 H   0  0  0  0  0  0  0  0  0  0  0  0
   37.3650   27.1930   41.2100 H   0  0  0  0  0  0  0  0  0  0  0  0
   37.8760   24.4360   41.8890 H   0  0  0  0  0  0  0  0  0  0  0  0
   39.7130   23.1920   43.2860 H   0  0  0  0  0  0  0  0  0  0  0  0
   41.3780   25.0590   44.1910 H   0  0  0  0  0  0  0  0  0  0  0  0
   41.4540   27.9050   43.9000 H   0  0  0  0  0  0  0  0  0  0  0  0
   39.2000   33.0050   40.0530 C   0  0  0  0  0  0  0  0  0  0  0  0
   39.2520   34.1330   40.6270 O   0  0  0  0  0  0  0  0  0  0  0  0
   40.0330   32.8450   38.8590 C   0  0  0  0  0  0  0  0  0  0  0  0
   41.2520   33.4200   38.5650 C   0  0  0  0  0  0  0  0  0  0  0  0
   41.7330   34.0920   39.2520 H   0  0  0  0  0  0  0  0  0  0  0  0
   41.7070   33.0060   37.3250 C   0  0  0  0  0  0  0  0  0  0  0  0
   42.6300   33.3000   36.8480 H   0  0  0  0  0  0  0  0  0  0  0  0
   40.7360   32.1790   36.8940 N   0  0  0  0  0  0  0  0  0  0  0  0
   40.7540   31.6800   35.9760 H   0  0  0  0  0  0  0  0  0  0  0  0
   39.7530   32.0730   37.7720 N   0  0  0  0  0  0  0  0  0  0  0  0
  1  6  1  0  0  0  0
  2  1  2  0  0  0  0
  2  3  1  0  0  0  0
  3  4  2  0  0  0  0
  4  5  1  0  0  0  0
  5 10  1  0  0  0  0
  6  5  2  0  0  0  0
  7  2  1  0  0  0  0
  8  3  1  0  0  0  0
  9 18  1  0  0  0  0
  9 17  1  0  0  0  0
 10  9  2  0  0  0  0
 11 10  1  0  0  0  0
 11 12  2  0  0  0  0
 12 16  1  0  0  0  0
 13 12  1  0  0  0  0
 13 14  1  0  0  0  0
 14 21  1  0  0  0  0
 14 15  2  0  0  0  0
 15 22  1  0  0  0  0
 16 17  2  0  0  0  0
 16 15  1  0  0  0  0
 17 23  1  0  0  0  0
 19 11  1  0  0  0  0
 20 13  1  0  0  0  0
 24  1  1  0  0  0  0
 24 25  2  0  0  0  0
 26 24  1  0  0  0  0
 27 26  1  0  0  0  0
 27 28  1  0  0  0  0
 29 27  2  0  0  0  0
 30 29  1  0  0  0  0
 31 29  1  0  0  0  0
 31 33  1  0  0  0  0
 32 31  1  0  0  0  0
 33 26  2  0  0  0  0
M  END
>  <minimizedAffinity>
-5.90336037

$$$$

 OpenBabel03252504013D

 33 36  0  0  0  0  0  0  0  0999 V2000
   33.3180   29.0030   36.7850 C   0  0  0  0  0  0  0  0  0  0  0  0
   34.0740   29.0670   35.6170 C   0  0  0  0  0  0  0  0  0  0  0  0
   35.4510   29.1140   35.7370 C   0  0  0  0  0  0  0  0  0  0  0  0
   36.0060   29.0970   36.9740 N   0  0  0  0  0  0  0  0  0  0  0  0
   35.2430   29.0350   38.0970 C   0  0  0  0  0  0  0  0  0  0  0  0
   33.8980   28.9870   38.0020 N   0  0  0  0  0  0  0  0  0  0  0  0
   33.6600   29.0820   34.6200 H   0  0  0  0  0  0  0  0  0  0  0  0
   36.0810   29.1650   34.8450 H   0  0  0  0  0  0  0  0  0  0  0  0
   36.0540   30.2290   40.0620 C   0  0  0  0  0  0  0  0  0  0  0  0
   35.8460   29.0160   39.4320 C   0  0  0  0  0  0  0  0  0  0  0  0
   36.2060   27.8380   40.0680 C   0  0  0  0  0  0  0  0  0  0  0  0
   36.7680   27.9050   41.3260 C   0  0  0  0  0  0  0  0  0  0  0  0
   37.2110   26.9580   42.1780 N   0  0  0  0  0  0  0  0  0  0  0  0
   37.6840   27.5090   43.3020 C   0  0  0  0  0  0  0  0  0  0  0  0
   37.5470   28.8860   43.1920 C   0  0  0  0  0  0  0  0  0  0  0  0
   36.9780   29.1240   41.9600 C   0  0  0  0  0  0  0  0  0  0  0  0
   36.6160   30.2820   41.3180 C   0  0  0  0  0  0  0  0  0  0  0  0
   35.7680   31.1380   39.5530 H   0  0  0  0  0  0  0  0  0  0  0  0
   36.0350   26.8880   39.5560 H   0  0  0  0  0  0  0  0  0  0  0  0
   37.2010   25.9180   42.0100 H   0  0  0  0  0  0  0  0  0  0  0  0
   38.1130   27.0530   44.1910 H   0  0  0  0  0  0  0  0  0  0  0  0
   37.8050   29.6760   43.8730 H   0  0  0  0  0  0  0  0  0  0  0  0
   36.7450   31.2670   41.7430 H   0  0  0  0  0  0  0  0  0  0  0  0
   31.8870   28.9550   36.6380 C   0  0  0  0  0  0  0  0  0  0  0  0
   31.2560   28.0100   36.0810 O   0  0  0  0  0  0  0  0  0  0  0  0
   31.0770   30.0590   37.1570 C   0  0  0  0  0  0  0  0  0  0  0  0
   30.7000   31.2310   36.5330 C   0  0  0  0  0  0  0  0  0  0  0  0
   30.9980   31.4450   35.5230 H   0  0  0  0  0  0  0  0  0  0  0  0
   29.9310   32.0140   37.3770 C   0  0  0  0  0  0  0  0  0  0  0  0
   29.5040   32.9780   37.1460 H   0  0  0  0  0  0  0  0  0  0  0  0
   29.8620   31.2850   38.5070 N   0  0  0  0  0  0  0  0  0  0  0  0
   29.3490   31.5830   39.3660 H   0  0  0  0  0  0  0  0  0  0  0  0
   30.5230   30.1450   38.3990 N   0  0  0  0  0  0  0  0  0  0  0  0
  1  6  1  0  0  0  0
  2  3  1  0  0  0  0
  2  1  2  0  0  0  0
  3  4  2  0  0  0  0
  4  5  1  0  0  0  0
  5 10  1  0  0  0  0
  6  5  2  0  0  0  0
  7  2  1  0  0  0  0
  8  3  1  0  0  0  0
  9 17  1  0  0  0  0
 10  9  2  0  0  0  0
 10 11  1  0  0  0  0
 11 12  2  0  0  0  0
 12 16  1  0  0  0  0
 12 13  1  0  0  0  0
 13 14  1  0  0  0  0
 14 21  1  0  0  0  0
 15 14  2  0  0  0  0
 15 22  1  0  0  0  0
 16 15  1  0  0  0  0
 17 23  1  0  0  0  0
 17 16  2  0  0  0  0
 18  9  1  0  0  0  0
 19 11  1  0  0  0  0
 20 13  1  0  0  0  0
 24  1  1  0  0  0  0
 24 26  1  0  0  0  0
 25 24  2  0  0  0  0
 26 33  2  0  0  0  0
 27 26  1  0  0  0  0
 27 29  2  0  0  0  0
 28 27  1  0  0  0  0
 29 31  1  0  0  0  0
 30 29  1  0  0  0  0
 31 32  1  0  0  0  0
 33 31  1  0  0  0  0
M  END
>  <minimizedAffinity>
-5.69076633

$$$$

 OpenBabel03252504013D

 33 36  0  0  0  0  0  0  0  0999 V2000
   39.3590   32.1240   40.2000 C   0  0  0  0  0  0  0  0  0  0  0  0
   38.3310   33.0000   39.8620 C   0  0  0  0  0  0  0  0  0  0  0  0
   37.0300   32.5420   39.9590 C   0  0  0  0  0  0  0  0  0  0  0  0
   36.8080   31.2700   40.3750 N   0  0  0  0  0  0  0  0  0  0  0  0
   37.8320   30.4370   40.6990 C   0  0  0  0  0  0  0  0  0  0  0  0
   39.1090   30.8650   40.6110 N   0  0  0  0  0  0  0  0  0  0  0  0
   38.4770   34.0170   39.5280 H   0  0  0  0  0  0  0  0  0  0  0  0
   36.1940   33.1980   39.7030 H   0  0  0  0  0  0  0  0  0  0  0  0
   37.4890   28.8390   42.5080 C   0  0  0  0  0  0  0  0  0  0  0  0
   37.5900   29.0640   41.1480 C   0  0  0  0  0  0  0  0  0  0  0  0
   37.4610   28.0050   40.2620 C   0  0  0  0  0  0  0  0  0  0  0  0
   37.2320   26.7410   40.7650 C   0  0  0  0  0  0  0  0  0  0  0  0
   37.0670   25.5410   40.1720 N   0  0  0  0  0  0  0  0  0  0  0  0
   36.8690   24.5800   41.0830 C   0  0  0  0  0  0  0  0  0  0  0  0
   36.9050   25.1700   42.3380 C   0  0  0  0  0  0  0  0  0  0  0  0
   37.1320   26.5140   42.1320 C   0  0  0  0  0  0  0  0  0  0  0  0
   37.2620   27.5710   42.9960 C   0  0  0  0  0  0  0  0  0  0  0  0
   37.5920   29.6750   43.1850 H   0  0  0  0  0  0  0  0  0  0  0  0
   37.5420   28.2000   39.1900 H   0  0  0  0  0  0  0  0  0  0  0  0
   37.0850   25.3520   39.1360 H   0  0  0  0  0  0  0  0  0  0  0  0
   36.7030   23.5120   40.9640 H   0  0  0  0  0  0  0  0  0  0  0  0
   36.7910   24.7460   43.3190 H   0  0  0  0  0  0  0  0  0  0  0  0
   37.1960   27.4780   44.0700 H   0  0  0  0  0  0  0  0  0  0  0  0
   40.7060   32.6210   40.0920 C   0  0  0  0  0  0  0  0  0  0  0  0
   41.3830   33.0740   41.0610 O   0  0  0  0  0  0  0  0  0  0  0  0
   41.3670   32.6160   38.7850 C   0  0  0  0  0  0  0  0  0  0  0  0
   41.8610   31.5500   38.0630 C   0  0  0  0  0  0  0  0  0  0  0  0
   41.7930   30.5440   38.4360 H   0  0  0  0  0  0  0  0  0  0  0  0
   42.4140   31.9760   36.8670 C   0  0  0  0  0  0  0  0  0  0  0  0
   42.8710   31.3540   36.1130 H   0  0  0  0  0  0  0  0  0  0  0  0
   42.2380   33.3110   36.8980 N   0  0  0  0  0  0  0  0  0  0  0  0
   42.5430   33.9600   36.1390 H   0  0  0  0  0  0  0  0  0  0  0  0
   41.6310   33.7020   38.0060 N   0  0  0  0  0  0  0  0  0  0  0  0
  1  6  1  0  0  0  0
  2  3  1  0  0  0  0
  2  1  2  0  0  0  0
  3  4  2  0  0  0  0
  4  5  1  0  0  0  0
  5 10  1  0  0  0  0
  6  5  2  0  0  0  0
  7  2  1  0  0  0  0
  8  3  1  0  0  0  0
  9 17  1  0  0  0  0
  9 18  1  0  0  0  0
 10  9  2  0  0  0  0
 11 12  2  0  0  0  0
 11 10  1  0  0  0  0
 12 16  1  0  0  0  0
 13 12  1  0  0  0  0
 13 14  1  0  0  0  0
 14 15  2  0  0  0  0
 15 22  1  0  0  0  0
 16 15  1  0  0  0  0
 16 17  2  0  0  0  0
 17 23  1  0  0  0  0
 19 11  1  0  0  0  0
 20 13  1  0  0  0  0
 21 14  1  0  0  0  0
 24  1  1  0  0  0  0
 24 25  2  0  0  0  0
 26 24  1  0  0  0  0
 27 28  1  0  0  0  0
 27 26  1  0  0  0  0
 29 31  1  0  0  0  0
 29 27  2  0  0  0  0
 30 29  1  0  0  0  0
 31 33  1  0  0  0  0
 32 31  1  0  0  0  0
 33 26  2  0  0  0  0
M  END
>  <minimizedAffinity>
-5.66079664

$$$$

 OpenBabel03252504013D

 33 36  0  0  0  0  0  0  0  0999 V2000
   38.4180   30.5050   40.8740 C   0  0  0  0  0  0  0  0  0  0  0  0
   39.2290   30.6530   41.9950 C   0  0  0  0  0  0  0  0  0  0  0  0
   39.4670   29.5360   42.7760 C   0  0  0  0  0  0  0  0  0  0  0  0
   38.9060   28.3530   42.4220 N   0  0  0  0  0  0  0  0  0  0  0  0
   38.1180   28.2390   41.3210 C   0  0  0  0  0  0  0  0  0  0  0  0
   37.8740   29.3160   40.5470 N   0  0  0  0  0  0  0  0  0  0  0  0
   39.6880   31.5810   42.3020 H   0  0  0  0  0  0  0  0  0  0  0  0
   40.0990   29.6090   43.6650 H   0  0  0  0  0  0  0  0  0  0  0  0
   37.4730   25.9580   41.8940 C   0  0  0  0  0  0  0  0  0  0  0  0
   37.5140   26.9600   40.9420 C   0  0  0  0  0  0  0  0  0  0  0  0
   36.9920   26.7310   39.6770 C   0  0  0  0  0  0  0  0  0  0  0  0
   36.4390   25.4980   39.3980 C   0  0  0  0  0  0  0  0  0  0  0  0
   35.8660   24.9870   38.2890 N   0  0  0  0  0  0  0  0  0  0  0  0
   35.4710   23.7240   38.4940 C   0  0  0  0  0  0  0  0  0  0  0  0
   35.7960   23.3830   39.7990 C   0  0  0  0  0  0  0  0  0  0  0  0
   36.3980   24.4910   40.3540 C   0  0  0  0  0  0  0  0  0  0  0  0
   36.9180   24.7320   41.6010 C   0  0  0  0  0  0  0  0  0  0  0  0
   37.8840   26.1520   42.8740 H   0  0  0  0  0  0  0  0  0  0  0  0
   37.0320   27.5330   38.9360 H   0  0  0  0  0  0  0  0  0  0  0  0
   35.7340   25.4860   37.3720 H   0  0  0  0  0  0  0  0  0  0  0  0
   34.9800   23.0180   37.8300 H   0  0  0  0  0  0  0  0  0  0  0  0
   35.6480   22.4700   40.3460 H   0  0  0  0  0  0  0  0  0  0  0  0
   36.9240   24.0030   42.3980 H   0  0  0  0  0  0  0  0  0  0  0  0
   38.1830   31.6800   40.0750 C   0  0  0  0  0  0  0  0  0  0  0  0
   37.2880   32.5430   40.3170 O   0  0  0  0  0  0  0  0  0  0  0  0
   39.0170   31.9230   38.8970 C   0  0  0  0  0  0  0  0  0  0  0  0
   40.3520   32.2660   38.8310 C   0  0  0  0  0  0  0  0  0  0  0  0
   40.9390   32.3940   39.7220 H   0  0  0  0  0  0  0  0  0  0  0  0
   40.7620   32.4040   37.5160 C   0  0  0  0  0  0  0  0  0  0  0  0
   41.7530   32.6660   37.1760 H   0  0  0  0  0  0  0  0  0  0  0  0
   39.6470   32.1370   36.8100 N   0  0  0  0  0  0  0  0  0  0  0  0
   39.5970   32.1500   35.7660 H   0  0  0  0  0  0  0  0  0  0  0  0
   38.6220   31.8550   37.5950 N   0  0  0  0  0  0  0  0  0  0  0  0
  1  2  1  0  0  0  0
  2  7  1  0  0  0  0
  2  3  2  0  0  0  0
  3  8  1  0  0  0  0
  4  3  1  0  0  0  0
  5  4  2  0  0  0  0
  6  1  2  0  0  0  0
  6  5  1  0  0  0  0
  9 18  1  0  0  0  0
 10  5  1  0  0  0  0
 10  9  2  0  0  0  0
 11 10  1  0  0  0  0
 12 11  2  0  0  0  0
 12 16  1  0  0  0  0
 13 14  1  0  0  0  0
 13 12  1  0  0  0  0
 14 15  2  0  0  0  0
 15 22  1  0  0  0  0
 15 16  1  0  0  0  0
 16 17  2  0  0  0  0
 17  9  1  0  0  0  0
 17 23  1  0  0  0  0
 19 11  1  0  0  0  0
 20 13  1  0  0  0  0
 21 14  1  0  0  0  0
 24 25  2  0  0  0  0
 24  1  1  0  0  0  0
 26 24  1  0  0  0  0
 27 26  1  0  0  0  0
 27 28  1  0  0  0  0
 29 27  2  0  0  0  0
 30 29  1  0  0  0  0
 31 29  1  0  0  0  0
 31 33  1  0  0  0  0
 32 31  1  0  0  0  0
 33 26  2  0  0  0  0
M  END
>  <minimizedAffinity>
-5.64452791

$$$$

 OpenBabel03252504013D

 33 36  0  0  0  0  0  0  0  0999 V2000
   38.4440   26.3830   41.6240 C   0  0  0  0  0  0  0  0  0  0  0  0
   37.4790   25.9640   42.5360 C   0  0  0  0  0  0  0  0  0  0  0  0
   36.5810   26.9050   43.0080 C   0  0  0  0  0  0  0  0  0  0  0  0
   36.6750   28.1850   42.5700 N   0  0  0  0  0  0  0  0  0  0  0  0
   37.6280   28.5640   41.6780 C   0  0  0  0  0  0  0  0  0  0  0  0
   38.5130   27.6620   41.2060 N   0  0  0  0  0  0  0  0  0  0  0  0
   37.3800   24.9530   42.9030 H   0  0  0  0  0  0  0  0  0  0  0  0
   35.8080   26.6170   43.7260 H   0  0  0  0  0  0  0  0  0  0  0  0
   36.7100   30.4280   40.4030 C   0  0  0  0  0  0  0  0  0  0  0  0
   37.7270   29.9470   41.2060 C   0  0  0  0  0  0  0  0  0  0  0  0
   38.7930   30.7700   41.5360 C   0  0  0  0  0  0  0  0  0  0  0  0
   38.8120   32.0620   41.0520 C   0  0  0  0  0  0  0  0  0  0  0  0
   39.6910   33.0760   41.1950 N   0  0  0  0  0  0  0  0  0  0  0  0
   39.2800   34.1610   40.5280 C   0  0  0  0  0  0  0  0  0  0  0  0
   38.0750   33.8540   39.9140 C   0  0  0  0  0  0  0  0  0  0  0  0
   37.7910   32.5460   40.2450 C   0  0  0  0  0  0  0  0  0  0  0  0
   36.7420   31.7200   39.9250 C   0  0  0  0  0  0  0  0  0  0  0  0
   35.8870   29.7750   40.1550 H   0  0  0  0  0  0  0  0  0  0  0  0
   39.5890   30.3740   42.1720 H   0  0  0  0  0  0  0  0  0  0  0  0
   40.5860   33.0480   41.7490 H   0  0  0  0  0  0  0  0  0  0  0  0
   39.7330   35.1440   40.4240 H   0  0  0  0  0  0  0  0  0  0  0  0
   37.4290   34.4470   39.2930 H   0  0  0  0  0  0  0  0  0  0  0  0
   35.9110   32.0210   39.3050 H   0  0  0  0  0  0  0  0  0  0  0  0
   39.3680   25.3890   41.1450 C   0  0  0  0  0  0  0  0  0  0  0  0
   39.1050   24.5410   40.2420 O   0  0  0  0  0  0  0  0  0  0  0  0
   40.7130   25.3260   41.7220 C   0  0  0  0  0  0  0  0  0  0  0  0
   41.0920   25.3190   43.0490 C   0  0  0  0  0  0  0  0  0  0  0  0
   40.3630   25.3620   43.8370 H   0  0  0  0  0  0  0  0  0  0  0  0
   42.4690   25.2500   43.1680 C   0  0  0  0  0  0  0  0  0  0  0  0
   43.0340   25.2300   44.0890 H   0  0  0  0  0  0  0  0  0  0  0  0
   42.8940   25.2170   41.8920 N   0  0  0  0  0  0  0  0  0  0  0  0
   43.8990   25.1640   41.6090 H   0  0  0  0  0  0  0  0  0  0  0  0
   41.8880   25.2610   41.0360 N   0  0  0  0  0  0  0  0  0  0  0  0
  1  2  1  0  0  0  0
  2  7  1  0  0  0  0
  2  3  2  0  0  0  0
  3  8  1  0  0  0  0
  4  3  1  0  0  0  0
  5  4  2  0  0  0  0
  6  1  2  0  0  0  0
  6  5  1  0  0  0  0
  9 10  1  0  0  0  0
 10 11  2  0  0  0  0
 10  5  1  0  0  0  0
 11 19  1  0  0  0  0
 12 13  1  0  0  0  0
 12 11  1  0  0  0  0
 13 20  1  0  0  0  0
 14 13  1  0  0  0  0
 15 16  1  0  0  0  0
 15 14  2  0  0  0  0
 16 12  2  0  0  0  0
 17 16  1  0  0  0  0
 17  9  2  0  0  0  0
 18  9  1  0  0  0  0
 21 14  1  0  0  0  0
 22 15  1  0  0  0  0
 23 17  1  0  0  0  0
 24  1  1  0  0  0  0
 24 26  1  0  0  0  0
 25 24  2  0  0  0  0
 26 27  1  0  0  0  0
 27 29  2  0  0  0  0
 27 28  1  0  0  0  0
 29 30  1  0  0  0  0
 31 29  1  0  0  0  0
 32 31  1  0  0  0  0
 33 26  2  0  0  0  0
 33 31  1  0  0  0  0
M  END
>  <minimizedAffinity>
-5.62027788

$$$$

 OpenBabel03252504013D

 33 36  0  0  0  0  0  0  0  0999 V2000
   37.1460   25.4560   40.8930 C   0  0  0  0  0  0  0  0  0  0  0  0
   36.6390   24.1600   40.8600 C   0  0  0  0  0  0  0  0  0  0  0  0
   35.8830   23.7860   39.7620 C   0  0  0  0  0  0  0  0  0  0  0  0
   35.6680   24.6880   38.7730 N   0  0  0  0  0  0  0  0  0  0  0  0
   36.1760   25.9470   38.8330 C   0  0  0  0  0  0  0  0  0  0  0  0
   36.9150   26.3310   39.8940 N   0  0  0  0  0  0  0  0  0  0  0  0
   36.7930   23.4210   41.6320 H   0  0  0  0  0  0  0  0  0  0  0  0
   35.4670   22.7780   39.6970 H   0  0  0  0  0  0  0  0  0  0  0  0
   34.7310   27.5860   37.7500 C   0  0  0  0  0  0  0  0  0  0  0  0
   35.9420   26.9190   37.7620 C   0  0  0  0  0  0  0  0  0  0  0  0
   36.8840   27.1820   36.7790 C   0  0  0  0  0  0  0  0  0  0  0  0
   36.5880   28.1130   35.8040 C   0  0  0  0  0  0  0  0  0  0  0  0
   37.2810   28.5730   34.7430 N   0  0  0  0  0  0  0  0  0  0  0  0
   36.5740   29.4880   34.0700 C   0  0  0  0  0  0  0  0  0  0  0  0
   35.3540   29.6420   34.7140 C   0  0  0  0  0  0  0  0  0  0  0  0
   35.3710   28.7830   35.7910 C   0  0  0  0  0  0  0  0  0  0  0  0
   34.4480   28.5120   36.7700 C   0  0  0  0  0  0  0  0  0  0  0  0
   34.0080   27.3690   38.5220 H   0  0  0  0  0  0  0  0  0  0  0  0
   37.8360   26.6460   36.8030 H   0  0  0  0  0  0  0  0  0  0  0  0
   38.2490   28.2730   34.4560 H   0  0  0  0  0  0  0  0  0  0  0  0
   36.8180   30.0590   33.1770 H   0  0  0  0  0  0  0  0  0  0  0  0
   34.5150   30.2740   34.4900 H   0  0  0  0  0  0  0  0  0  0  0  0
   33.4810   28.9900   36.8300 H   0  0  0  0  0  0  0  0  0  0  0  0
   37.9280   25.8240   42.0440 C   0  0  0  0  0  0  0  0  0  0  0  0
   38.7160   25.0430   42.6540 O   0  0  0  0  0  0  0  0  0  0  0  0
   37.8290   27.1870   42.5700 C   0  0  0  0  0  0  0  0  0  0  0  0
   38.7770   28.1900   42.5770 C   0  0  0  0  0  0  0  0  0  0  0  0
   39.7540   28.0360   42.1560 H   0  0  0  0  0  0  0  0  0  0  0  0
   38.2790   29.3350   43.1740 C   0  0  0  0  0  0  0  0  0  0  0  0
   38.8060   30.2680   43.3120 H   0  0  0  0  0  0  0  0  0  0  0  0
   37.0250   28.9910   43.5190 N   0  0  0  0  0  0  0  0  0  0  0  0
   36.3520   29.6300   44.0000 H   0  0  0  0  0  0  0  0  0  0  0  0
   36.7440   27.7450   43.1770 N   0  0  0  0  0  0  0  0  0  0  0  0
  1 24  1  0  0  0  0
  2  1  1  0  0  0  0
  2  7  1  0  0  0  0
  3  2  2  0  0  0  0
  4  5  2  0  0  0  0
  4  3  1  0  0  0  0
  5  6  1  0  0  0  0
  6  1  2  0  0  0  0
  8  3  1  0  0  0  0
  9 10  1  0  0  0  0
  9 18  1  0  0  0  0
 10  5  1  0  0  0  0
 11 19  1  0  0  0  0
 11 10  2  0  0  0  0
 12 11  1  0  0  0  0
 13 12  1  0  0  0  0
 14 15  2  0  0  0  0
 14 13  1  0  0  0  0
 15 16  1  0  0  0  0
 16 12  2  0  0  0  0
 16 17  1  0  0  0  0
 17 23  1  0  0  0  0
 17  9  2  0  0  0  0
 20 13  1  0  0  0  0
 21 14  1  0  0  0  0
 22 15  1  0  0  0  0
 24 26  1  0  0  0  0
 24 25  2  0  0  0  0
 26 27  1  0  0  0  0
 26 33  2  0  0  0  0
 27 29  2  0  0  0  0
 28 27  1  0  0  0  0
 29 30  1  0  0  0  0
 29 31  1  0  0  0  0
 31 32  1  0  0  0  0
 33 31  1  0  0  0  0
M  END
>  <minimizedAffinity>
-5.59288311

$$$$

 OpenBabel03252504013D

 33 36  0  0  0  0  0  0  0  0999 V2000
   38.2130   30.6950   40.5280 C   0  0  0  0  0  0  0  0  0  0  0  0
   36.9790   31.3330   40.6290 C   0  0  0  0  0  0  0  0  0  0  0  0
   35.8520   30.5450   40.7810 C   0  0  0  0  0  0  0  0  0  0  0  0
   35.9910   29.1960   40.8260 N   0  0  0  0  0  0  0  0  0  0  0  0
   37.2090   28.6020   40.7250 C   0  0  0  0  0  0  0  0  0  0  0  0
   38.3200   29.3530   40.5760 N   0  0  0  0  0  0  0  0  0  0  0  0
   36.8370   32.4030   40.5960 H   0  0  0  0  0  0  0  0  0  0  0  0
   34.8640   31.0060   40.8640 H   0  0  0  0  0  0  0  0  0  0  0  0
   37.0660   26.5080   41.9650 C   0  0  0  0  0  0  0  0  0  0  0  0
   37.3570   27.1460   40.7740 C   0  0  0  0  0  0  0  0  0  0  0  0
   37.7730   26.4040   39.6780 C   0  0  0  0  0  0  0  0  0  0  0  0
   37.8860   25.0350   39.8050 C   0  0  0  0  0  0  0  0  0  0  0  0
   38.2570   24.0680   38.9410 N   0  0  0  0  0  0  0  0  0  0  0  0
   38.2140   22.8640   39.5240 C   0  0  0  0  0  0  0  0  0  0  0  0
   37.7950   23.0400   40.8350 C   0  0  0  0  0  0  0  0  0  0  0  0
   37.5940   24.3930   41.0020 C   0  0  0  0  0  0  0  0  0  0  0  0
   37.1840   25.1400   42.0780 C   0  0  0  0  0  0  0  0  0  0  0  0
   36.7440   27.0990   42.8100 H   0  0  0  0  0  0  0  0  0  0  0  0
   37.9990   26.9240   38.7440 H   0  0  0  0  0  0  0  0  0  0  0  0
   38.5460   24.2080   37.9380 H   0  0  0  0  0  0  0  0  0  0  0  0
   38.4430   21.8760   39.1320 H   0  0  0  0  0  0  0  0  0  0  0  0
   37.6350   22.3300   41.6250 H   0  0  0  0  0  0  0  0  0  0  0  0
   36.9380   24.7170   43.0410 H   0  0  0  0  0  0  0  0  0  0  0  0
   39.3720   31.5330   40.3700 C   0  0  0  0  0  0  0  0  0  0  0  0
   40.0100   32.0620   41.3280 O   0  0  0  0  0  0  0  0  0  0  0  0
   39.8730   31.8140   39.0230 C   0  0  0  0  0  0  0  0  0  0  0  0
   41.1750   31.9750   38.5940 C   0  0  0  0  0  0  0  0  0  0  0  0
   42.0000   31.8980   39.2780 H   0  0  0  0  0  0  0  0  0  0  0  0
   41.2180   32.2300   37.2340 C   0  0  0  0  0  0  0  0  0  0  0  0
   42.1050   32.3950   36.6400 H   0  0  0  0  0  0  0  0  0  0  0  0
   39.9220   32.2180   36.8700 N   0  0  0  0  0  0  0  0  0  0  0  0
   39.5860   32.3780   35.8940 H   0  0  0  0  0  0  0  0  0  0  0  0
   39.1250   31.9780   37.8970 N   0  0  0  0  0  0  0  0  0  0  0  0
  1  6  2  0  0  0  0
  1  2  1  0  0  0  0
  2  3  2  0  0  0  0
  3  4  1  0  0  0  0
  3  8  1  0  0  0  0
  5 10  1  0  0  0  0
  5  4  2  0  0  0  0
  6  5  1  0  0  0  0
  7  2  1  0  0  0  0
  9 17  1  0  0  0  0
  9 18  1  0  0  0  0
 10  9  2  0  0  0  0
 11 12  2  0  0  0  0
 11 10  1  0  0  0  0
 12 16  1  0  0  0  0
 13 14  1  0  0  0  0
 13 12  1  0  0  0  0
 14 15  2  0  0  0  0
 15 16  1  0  0  0  0
 15 22  1  0  0  0  0
 16 17  2  0  0  0  0
 17 23  1  0  0  0  0
 19 11  1  0  0  0  0
 20 13  1  0  0  0  0
 21 14  1  0  0  0  0
 24  1  1  0  0  0  0
 24 25  2  0  0  0  0
 26 24  1  0  0  0  0
 27 26  1  0  0  0  0
 27 28  1  0  0  0  0
 29 27  2  0  0  0  0
 30 29  1  0  0  0  0
 31 29  1  0  0  0  0
 31 33  1  0  0  0  0
 32 31  1  0  0  0  0
 33 26  2  0  0  0  0
M  END
>  <minimizedAffinity>
-5.58951855

$$$$

 OpenBabel03252504013D

 33 36  0  0  0  0  0  0  0  0999 V2000
   37.5690   28.7170   41.9400 C   0  0  0  0  0  0  0  0  0  0  0  0
   38.3180   29.8250   42.3290 C   0  0  0  0  0  0  0  0  0  0  0  0
   38.4800   30.8520   41.4160 C   0  0  0  0  0  0  0  0  0  0  0  0
   37.9100   30.7400   40.1910 N   0  0  0  0  0  0  0  0  0  0  0  0
   37.1840   29.6470   39.8400 C   0  0  0  0  0  0  0  0  0  0  0  0
   37.0140   28.6350   40.7150 N   0  0  0  0  0  0  0  0  0  0  0  0
   38.7840   29.9410   43.2970 H   0  0  0  0  0  0  0  0  0  0  0  0
   39.0610   31.7390   41.6820 H   0  0  0  0  0  0  0  0  0  0  0  0
   35.2760   29.0450   38.4460 C   0  0  0  0  0  0  0  0  0  0  0  0
   36.5690   29.5300   38.5150 C   0  0  0  0  0  0  0  0  0  0  0  0
   37.2360   29.8840   37.3530 C   0  0  0  0  0  0  0  0  0  0  0  0
   36.5870   29.7450   36.1430 C   0  0  0  0  0  0  0  0  0  0  0  0
   36.9620   29.9990   34.8730 N   0  0  0  0  0  0  0  0  0  0  0  0
   35.9790   29.7010   34.0150 C   0  0  0  0  0  0  0  0  0  0  0  0
   34.9010   29.2280   34.7500 C   0  0  0  0  0  0  0  0  0  0  0  0
   35.2870   29.2580   36.0720 C   0  0  0  0  0  0  0  0  0  0  0  0
   34.6400   28.9100   37.2310 C   0  0  0  0  0  0  0  0  0  0  0  0
   34.7700   28.7730   39.3600 H   0  0  0  0  0  0  0  0  0  0  0  0
   38.2570   30.2660   37.4250 H   0  0  0  0  0  0  0  0  0  0  0  0
   37.8950   30.3800   34.5650 H   0  0  0  0  0  0  0  0  0  0  0  0
   35.9340   29.7790   32.9310 H   0  0  0  0  0  0  0  0  0  0  0  0
   33.9310   28.8870   34.4370 H   0  0  0  0  0  0  0  0  0  0  0  0
   33.6310   28.5250   37.2610 H   0  0  0  0  0  0  0  0  0  0  0  0
   37.4130   27.6610   42.9050 C   0  0  0  0  0  0  0  0  0  0  0  0
   36.3970   27.5110   43.6460 O   0  0  0  0  0  0  0  0  0  0  0  0
   38.4850   26.6750   43.0660 C   0  0  0  0  0  0  0  0  0  0  0  0
   39.7180   26.8200   43.6670 C   0  0  0  0  0  0  0  0  0  0  0  0
   40.0180   27.7540   44.1060 H   0  0  0  0  0  0  0  0  0  0  0  0
   40.4380   25.6390   43.6060 C   0  0  0  0  0  0  0  0  0  0  0  0
   41.4310   25.4720   43.9980 H   0  0  0  0  0  0  0  0  0  0  0  0
   39.6100   24.7980   42.9600 N   0  0  0  0  0  0  0  0  0  0  0  0
   39.8390   23.8030   42.7390 H   0  0  0  0  0  0  0  0  0  0  0  0
   38.4690   25.3820   42.6360 N   0  0  0  0  0  0  0  0  0  0  0  0
  1  2  1  0  0  0  0
  1 24  1  0  0  0  0
  2  7  1  0  0  0  0
  3  8  1  0  0  0  0
  3  2  2  0  0  0  0
  4  3  1  0  0  0  0
  5  4  2  0  0  0  0
  5  6  1  0  0  0  0
  6  1  2  0  0  0  0
  9 10  1  0  0  0  0
  9 18  1  0  0  0  0
 10  5  1  0  0  0  0
 11 19  1  0  0  0  0
 11 10  2  0  0  0  0
 12 11  1  0  0  0  0
 13 12  1  0  0  0  0
 14 15  2  0  0  0  0
 14 13  1  0  0  0  0
 15 16  1  0  0  0  0
 16 12  2  0  0  0  0
 16 17  1  0  0  0  0
 17 23  1  0  0  0  0
 17  9  2  0  0  0  0
 20 13  1  0  0  0  0
 21 14  1  0  0  0  0
 22 15  1  0  0  0  0
 24 26  1  0  0  0  0
 24 25  2  0  0  0  0
 26 27  1  0  0  0  0
 27 28  1  0  0  0  0
 29 27  2  0  0  0  0
 29 30  1  0  0  0  0
 31 29  1  0  0  0  0
 32 31  1  0  0  0  0
 33 31  1  0  0  0  0
 33 26  2  0  0  0  0
M  END
>  <minimizedAffinity>
-5.55625439

$$$$
