
 OpenBabel03242521173D

 37 39  0  0  0  0  0  0  0  0999 V2000
   44.5300   35.6230   44.8120 C   0  0  0  0  0  0  0  0  0  0  0  0
   45.1280   35.5970   43.5320 C   0  0  0  0  0  0  0  0  0  0  0  0
   46.1570   34.6700   43.3370 C   0  0  0  0  0  0  0  0  0  0  0  0
   46.5190   33.8540   44.3770 N   0  0  0  0  0  0  0  0  0  0  0  0
   45.9180   33.9210   45.5700 C   0  0  0  0  0  0  0  0  0  0  0  0
   44.9090   34.8090   45.8110 N   0  0  0  0  0  0  0  0  0  0  0  0
   43.7270   36.3280   45.0080 H   0  0  0  0  0  0  0  0  0  0  0  0
   44.7700   36.2770   42.7910 H   0  0  0  0  0  0  0  0  0  0  0  0
   46.7730   34.6300   42.0520 N   0  0  0  0  0  0  0  0  0  0  0  0
   47.9580   35.2380   41.8990 C   0  0  0  0  0  0  0  0  0  0  0  0
   48.5710   35.2070   40.6500 C   0  0  0  0  0  0  0  0  0  0  0  0
   47.9320   34.5580   39.6430 C   0  0  0  0  0  0  0  0  0  0  0  0
   48.5020   34.5330   38.4930 O   0  0  0  0  0  0  0  0  0  0  0  0
   46.7470   33.9450   39.7790 N   0  0  0  0  0  0  0  0  0  0  0  0
   46.1960   34.0070   41.0170 C   0  0  0  0  0  0  0  0  0  0  0  0
   45.0880   33.4660   41.2530 O   0  0  0  0  0  0  0  0  0  0  0  0
   48.4620   35.7520   42.7030 H   0  0  0  0  0  0  0  0  0  0  0  0
   49.5310   35.6880   40.4850 H   0  0  0  0  0  0  0  0  0  0  0  0
   46.2540   33.4470   39.0080 H   0  0  0  0  0  0  0  0  0  0  0  0
   46.4990   32.9330   46.5110 C   0  0  0  0  0  0  0  0  0  0  0  0
   46.7740   32.0160   45.9240 H   0  0  0  0  0  0  0  0  0  0  0  0
   47.4480   33.3340   46.9600 H   0  0  0  0  0  0  0  0  0  0  0  0
   45.5020   32.5770   47.6030 C   0  0  0  0  0  0  0  0  0  0  0  0
   45.9950   32.5480   48.5980 H   0  0  0  0  0  0  0  0  0  0  0  0
   44.7120   33.3540   47.6230 H   0  0  0  0  0  0  0  0  0  0  0  0
   45.4340   30.1170   47.7250 C   0  0  0  0  0  0  0  0  0  0  0  0
   46.4460   30.2210   48.4400 O   0  0  0  0  0  0  0  0  0  0  0  0
   44.8760   31.3140   47.2660 N   0  0  0  0  0  0  0  0  0  0  0  0
   44.0090   31.3510   46.6770 H   0  0  0  0  0  0  0  0  0  0  0  0
   44.8520   28.8240   47.3800 C   0  0  0  0  0  0  0  0  0  0  0  0
   44.1500   28.5060   46.2370 C   0  0  0  0  0  0  0  0  0  0  0  0
   43.9080   29.1560   45.4010 H   0  0  0  0  0  0  0  0  0  0  0  0
   43.8030   27.1730   46.3580 C   0  0  0  0  0  0  0  0  0  0  0  0
   43.2470   26.5540   45.6660 H   0  0  0  0  0  0  0  0  0  0  0  0
   44.2910   26.7210   47.5440 N   0  0  0  0  0  0  0  0  0  0  0  0
   44.2410   25.7730   48.0000 H   0  0  0  0  0  0  0  0  0  0  0  0
   44.9170   27.7190   48.1460 N   0  0  0  0  0  0  0  0  0  0  0  0
  1  7  1  0  0  0  0
  1  6  1  0  0  0  0
  2  1  2  0  0  0  0
  3  2  1  0  0  0  0
  3  4  2  0  0  0  0
  4  5  1  0  0  0  0
  5  6  2  0  0  0  0
  5 20  1  0  0  0  0
  8  2  1  0  0  0  0
  9  3  1  0  0  0  0
 10  9  1  0  0  0  0
 10 17  1  0  0  0  0
 11 10  2  0  0  0  0
 12 14  1  0  0  0  0
 12 11  1  0  0  0  0
 13 12  2  0  0  0  0
 14 15  1  0  0  0  0
 15 16  2  0  0  0  0
 15  9  1  0  0  0  0
 18 11  1  0  0  0  0
 19 14  1  0  0  0  0
 20 22  1  0  0  0  0
 20 23  1  0  0  0  0
 21 20  1  0  0  0  0
 23 25  1  0  0  0  0
 23 24  1  0  0  0  0
 26 27  2  0  0  0  0
 28 23  1  0  0  0  0
 28 26  1  0  0  0  0
 29 28  1  0  0  0  0
 30 26  1  0  0  0  0
 30 37  2  0  0  0  0
 31 33  2  0  0  0  0
 31 30  1  0  0  0  0
 32 31  1  0  0  0  0
 33 35  1  0  0  0  0
 34 33  1  0  0  0  0
 35 36  1  0  0  0  0
 35 37  1  0  0  0  0
M  END
>  <minimizedAffinity>
-6.28929901

>  <minimizedRMSD>
1.11184537

$$$$
