
 OpenBabel03252503583D

 33 36  0  0  0  0  0  0  0  0999 V2000
   46.7080   35.0700   42.6960 C   0  0  0  0  0  0  0  0  0  0  0  0
   45.7820   36.1110   42.7080 C   0  0  0  0  0  0  0  0  0  0  0  0
   44.8310   36.1210   43.7130 C   0  0  0  0  0  0  0  0  0  0  0  0
   44.8370   35.1270   44.6360 N   0  0  0  0  0  0  0  0  0  0  0  0
   45.7530   34.1250   44.5980 C   0  0  0  0  0  0  0  0  0  0  0  0
   46.6890   34.0970   43.6270 N   0  0  0  0  0  0  0  0  0  0  0  0
   45.7530   36.9140   41.9870 H   0  0  0  0  0  0  0  0  0  0  0  0
   44.0860   36.9200   43.7590 H   0  0  0  0  0  0  0  0  0  0  0  0
   46.0940   31.7800   45.1760 C   0  0  0  0  0  0  0  0  0  0  0  0
   45.7570   33.0530   45.5980 C   0  0  0  0  0  0  0  0  0  0  0  0
   45.4370   33.2770   46.9280 C   0  0  0  0  0  0  0  0  0  0  0  0
   45.4640   32.2150   47.8080 C   0  0  0  0  0  0  0  0  0  0  0  0
   45.2100   32.1190   49.1290 N   0  0  0  0  0  0  0  0  0  0  0  0
   45.3680   30.8600   49.5560 C   0  0  0  0  0  0  0  0  0  0  0  0
   45.7460   30.0860   48.4690 C   0  0  0  0  0  0  0  0  0  0  0  0
   45.8030   30.9350   47.3850 C   0  0  0  0  0  0  0  0  0  0  0  0
   46.1160   30.7280   46.0650 C   0  0  0  0  0  0  0  0  0  0  0  0
   46.3400   31.6220   44.1370 H   0  0  0  0  0  0  0  0  0  0  0  0
   45.1730   34.2890   47.2450 H   0  0  0  0  0  0  0  0  0  0  0  0
   44.9230   32.9080   49.7650 H   0  0  0  0  0  0  0  0  0  0  0  0
   45.2490   30.4260   50.5460 H   0  0  0  0  0  0  0  0  0  0  0  0
   45.9670   29.0370   48.3940 H   0  0  0  0  0  0  0  0  0  0  0  0
   46.3900   29.7660   45.6590 H   0  0  0  0  0  0  0  0  0  0  0  0
   47.6880   35.0780   41.6420 C   0  0  0  0  0  0  0  0  0  0  0  0
   48.8020   35.6770   41.7050 O   0  0  0  0  0  0  0  0  0  0  0  0
   47.4080   34.3560   40.3990 C   0  0  0  0  0  0  0  0  0  0  0  0
   46.3420   33.5390   40.0870 C   0  0  0  0  0  0  0  0  0  0  0  0
   45.5580   33.3490   40.7970 H   0  0  0  0  0  0  0  0  0  0  0  0
   46.4570   33.0480   38.7970 C   0  0  0  0  0  0  0  0  0  0  0  0
   45.7640   32.3870   38.2980 H   0  0  0  0  0  0  0  0  0  0  0  0
   47.6070   33.5900   38.3560 N   0  0  0  0  0  0  0  0  0  0  0  0
   48.0040   33.4280   37.4040 H   0  0  0  0  0  0  0  0  0  0  0  0
   48.1750   34.3540   39.2730 N   0  0  0  0  0  0  0  0  0  0  0  0
  1  2  2  0  0  0  0
  1  6  1  0  0  0  0
  2  3  1  0  0  0  0
  3  8  1  0  0  0  0
  3  4  2  0  0  0  0
  5  4  1  0  0  0  0
  5 10  1  0  0  0  0
  6  5  2  0  0  0  0
  7  2  1  0  0  0  0
  9 10  2  0  0  0  0
  9 17  1  0  0  0  0
 10 11  1  0  0  0  0
 11 19  1  0  0  0  0
 11 12  2  0  0  0  0
 12 13  1  0  0  0  0
 13 14  1  0  0  0  0
 13 20  1  0  0  0  0
 14 21  1  0  0  0  0
 15 14  2  0  0  0  0
 16 12  1  0  0  0  0
 16 15  1  0  0  0  0
 17 16  2  0  0  0  0
 18  9  1  0  0  0  0
 22 15  1  0  0  0  0
 23 17  1  0  0  0  0
 24 25  2  0  0  0  0
 24  1  1  0  0  0  0
 26 24  1  0  0  0  0
 27 26  1  0  0  0  0
 27 28  1  0  0  0  0
 29 27  2  0  0  0  0
 30 29  1  0  0  0  0
 31 29  1  0  0  0  0
 31 33  1  0  0  0  0
 32 31  1  0  0  0  0
 33 26  2  0  0  0  0
M  END
>  <minimizedAffinity>
-6.02156734

>  <minimizedRMSD>
0.734026253

$$$$
