
 OpenBabel03252503583D

 33 36  0  0  0  0  0  0  0  0999 V2000
   47.0150   35.0510   42.5880 C   0  0  0  0  0  0  0  0  0  0  0  0
   45.9610   35.9370   42.3790 C   0  0  0  0  0  0  0  0  0  0  0  0
   44.8590   35.8410   43.2090 C   0  0  0  0  0  0  0  0  0  0  0  0
   44.8460   34.8980   44.1830 N   0  0  0  0  0  0  0  0  0  0  0  0
   45.8900   34.0460   44.3630 C   0  0  0  0  0  0  0  0  0  0  0  0
   46.9740   34.1230   43.5640 N   0  0  0  0  0  0  0  0  0  0  0  0
   45.9430   36.6980   41.6120 H   0  0  0  0  0  0  0  0  0  0  0  0
   44.0100   36.5190   43.0790 H   0  0  0  0  0  0  0  0  0  0  0  0
   46.2010   31.7320   45.0640 C   0  0  0  0  0  0  0  0  0  0  0  0
   45.8740   33.0280   45.4160 C   0  0  0  0  0  0  0  0  0  0  0  0
   45.5450   33.3240   46.7300 C   0  0  0  0  0  0  0  0  0  0  0  0
   45.5540   32.3080   47.6640 C   0  0  0  0  0  0  0  0  0  0  0  0
   45.2870   32.2830   48.9860 N   0  0  0  0  0  0  0  0  0  0  0  0
   45.4290   31.0470   49.4790 C   0  0  0  0  0  0  0  0  0  0  0  0
   45.8070   30.2130   48.4370 C   0  0  0  0  0  0  0  0  0  0  0  0
   45.8830   31.0050   47.3110 C   0  0  0  0  0  0  0  0  0  0  0  0
   46.2050   30.7270   46.0070 C   0  0  0  0  0  0  0  0  0  0  0  0
   46.4550   31.5170   44.0360 H   0  0  0  0  0  0  0  0  0  0  0  0
   45.2890   34.3530   46.9920 H   0  0  0  0  0  0  0  0  0  0  0  0
   45.0030   33.1070   49.5770 H   0  0  0  0  0  0  0  0  0  0  0  0
   45.2960   30.6660   50.4880 H   0  0  0  0  0  0  0  0  0  0  0  0
   46.0180   29.1600   48.4180 H   0  0  0  0  0  0  0  0  0  0  0  0
   46.4730   29.7420   45.6530 H   0  0  0  0  0  0  0  0  0  0  0  0
   48.1520   35.1670   41.7130 C   0  0  0  0  0  0  0  0  0  0  0  0
   49.0120   36.0950   41.7760 O   0  0  0  0  0  0  0  0  0  0  0  0
   48.3570   34.1620   40.6680 C   0  0  0  0  0  0  0  0  0  0  0  0
   48.9360   32.9140   40.7620 C   0  0  0  0  0  0  0  0  0  0  0  0
   49.3190   32.5450   41.6970 H   0  0  0  0  0  0  0  0  0  0  0  0
   48.9350   32.2750   39.5340 C   0  0  0  0  0  0  0  0  0  0  0  0
   49.3250   31.2910   39.3210 H   0  0  0  0  0  0  0  0  0  0  0  0
   48.3460   33.1670   38.7160 N   0  0  0  0  0  0  0  0  0  0  0  0
   48.1790   33.0080   37.6970 H   0  0  0  0  0  0  0  0  0  0  0  0
   48.0030   34.2710   39.3570 N   0  0  0  0  0  0  0  0  0  0  0  0
  1  6  1  0  0  0  0
  2  1  2  0  0  0  0
  2  3  1  0  0  0  0
  3  4  2  0  0  0  0
  4  5  1  0  0  0  0
  5 10  1  0  0  0  0
  6  5  2  0  0  0  0
  7  2  1  0  0  0  0
  8  3  1  0  0  0  0
  9 10  2  0  0  0  0
  9 17  1  0  0  0  0
 10 11  1  0  0  0  0
 11 19  1  0  0  0  0
 11 12  2  0  0  0  0
 12 13  1  0  0  0  0
 13 14  1  0  0  0  0
 13 20  1  0  0  0  0
 14 21  1  0  0  0  0
 15 14  2  0  0  0  0
 16 12  1  0  0  0  0
 16 15  1  0  0  0  0
 17 16  2  0  0  0  0
 18  9  1  0  0  0  0
 22 15  1  0  0  0  0
 23 17  1  0  0  0  0
 24 25  2  0  0  0  0
 24  1  1  0  0  0  0
 26 27  1  0  0  0  0
 26 24  1  0  0  0  0
 27 28  1  0  0  0  0
 29 27  2  0  0  0  0
 30 29  1  0  0  0  0
 31 33  1  0  0  0  0
 31 29  1  0  0  0  0
 32 31  1  0  0  0  0
 33 26  2  0  0  0  0
M  END
>  <minimizedAffinity>
-5.89702892

>  <minimizedRMSD>
0.38009584

$$$$
