
 OpenBabel03252503583D

 33 36  0  0  0  0  0  0  0  0999 V2000
   46.8370   34.9560   42.6570 C   0  0  0  0  0  0  0  0  0  0  0  0
   45.9220   36.0050   42.6210 C   0  0  0  0  0  0  0  0  0  0  0  0
   44.9400   36.0430   43.5950 C   0  0  0  0  0  0  0  0  0  0  0  0
   44.9080   35.0670   44.5370 N   0  0  0  0  0  0  0  0  0  0  0  0
   45.8150   34.0560   44.5470 C   0  0  0  0  0  0  0  0  0  0  0  0
   46.7800   34.0010   43.6050 N   0  0  0  0  0  0  0  0  0  0  0  0
   45.9220   36.7940   41.8840 H   0  0  0  0  0  0  0  0  0  0  0  0
   44.2020   36.8490   43.6030 H   0  0  0  0  0  0  0  0  0  0  0  0
   46.0440   31.7080   45.1640 C   0  0  0  0  0  0  0  0  0  0  0  0
   45.7780   33.0040   45.5660 C   0  0  0  0  0  0  0  0  0  0  0  0
   45.4880   33.2680   46.8950 C   0  0  0  0  0  0  0  0  0  0  0  0
   45.4740   32.2220   47.7950 C   0  0  0  0  0  0  0  0  0  0  0  0
   45.2330   32.1630   49.1200 N   0  0  0  0  0  0  0  0  0  0  0  0
   45.3330   30.9060   49.5690 C   0  0  0  0  0  0  0  0  0  0  0  0
   45.6550   30.0930   48.4920 C   0  0  0  0  0  0  0  0  0  0  0  0
   45.7410   30.9190   47.3920 C   0  0  0  0  0  0  0  0  0  0  0  0
   46.0250   30.6720   46.0720 C   0  0  0  0  0  0  0  0  0  0  0  0
   46.2670   31.5180   44.1250 H   0  0  0  0  0  0  0  0  0  0  0  0
   45.2810   34.2980   47.1970 H   0  0  0  0  0  0  0  0  0  0  0  0
   44.9950   32.9770   49.7450 H   0  0  0  0  0  0  0  0  0  0  0  0
   45.2050   30.4970   50.5680 H   0  0  0  0  0  0  0  0  0  0  0  0
   45.8210   29.0340   48.4340 H   0  0  0  0  0  0  0  0  0  0  0  0
   46.2440   29.6900   45.6810 H   0  0  0  0  0  0  0  0  0  0  0  0
   47.8490   34.9350   41.6340 C   0  0  0  0  0  0  0  0  0  0  0  0
   49.0260   35.3780   41.7810 O   0  0  0  0  0  0  0  0  0  0  0  0
   47.5280   34.3700   40.3210 C   0  0  0  0  0  0  0  0  0  0  0  0
   46.5280   33.4860   39.9730 C   0  0  0  0  0  0  0  0  0  0  0  0
   45.8400   33.1070   40.7060 H   0  0  0  0  0  0  0  0  0  0  0  0
   46.5690   33.2010   38.6190 C   0  0  0  0  0  0  0  0  0  0  0  0
   45.9040   32.5420   38.0820 H   0  0  0  0  0  0  0  0  0  0  0  0
   47.6090   33.9320   38.1760 N   0  0  0  0  0  0  0  0  0  0  0  0
   47.9280   33.9540   37.1820 H   0  0  0  0  0  0  0  0  0  0  0  0
   48.1800   34.6180   39.1510 N   0  0  0  0  0  0  0  0  0  0  0  0
  1  6  1  0  0  0  0
  2  1  2  0  0  0  0
  2  3  1  0  0  0  0
  3  8  1  0  0  0  0
  3  4  2  0  0  0  0
  4  5  1  0  0  0  0
  5 10  1  0  0  0  0
  6  5  2  0  0  0  0
  7  2  1  0  0  0  0
  9 10  2  0  0  0  0
  9 17  1  0  0  0  0
 10 11  1  0  0  0  0
 11 19  1  0  0  0  0
 11 12  2  0  0  0  0
 12 13  1  0  0  0  0
 13 14  1  0  0  0  0
 13 20  1  0  0  0  0
 14 21  1  0  0  0  0
 15 14  2  0  0  0  0
 16 12  1  0  0  0  0
 16 15  1  0  0  0  0
 17 16  2  0  0  0  0
 18  9  1  0  0  0  0
 22 15  1  0  0  0  0
 23 17  1  0  0  0  0
 24 25  2  0  0  0  0
 24  1  1  0  0  0  0
 26 24  1  0  0  0  0
 27 26  1  0  0  0  0
 27 28  1  0  0  0  0
 29 27  2  0  0  0  0
 30 29  1  0  0  0  0
 31 29  1  0  0  0  0
 31 33  1  0  0  0  0
 32 31  1  0  0  0  0
 33 26  2  0  0  0  0
M  END
>  <minimizedAffinity>
-6.10394478

>  <minimizedRMSD>
0.802116692

$$$$
