
 OpenBabel03252503083D

 26 28  0  0  0  0  0  0  0  0999 V2000
   45.3830   36.2050   43.3470 C   0  0  0  0  0  0  0  0  0  0  0  0
   46.0340   34.9910   43.0470 C   0  0  0  0  0  0  0  0  0  0  0  0
   45.8990   34.0030   44.0160 C   0  0  0  0  0  0  0  0  0  0  0  0
   45.2020   34.1890   45.1540 N   0  0  0  0  0  0  0  0  0  0  0  0
   44.5900   35.3870   45.3950 C   0  0  0  0  0  0  0  0  0  0  0  0
   44.6850   36.3820   44.4940 N   0  0  0  0  0  0  0  0  0  0  0  0
   45.4020   37.0610   42.6860 H   0  0  0  0  0  0  0  0  0  0  0  0
   44.0440   35.4860   46.3210 H   0  0  0  0  0  0  0  0  0  0  0  0
   46.5110   32.7700   43.7990 C   0  0  0  0  0  0  0  0  0  0  0  0
   47.7840   32.2780   43.9510 C   0  0  0  0  0  0  0  0  0  0  0  0
   48.1340   31.0350   43.6620 C   0  0  0  0  0  0  0  0  0  0  0  0
   47.1440   30.2190   43.1860 C   0  0  0  0  0  0  0  0  0  0  0  0
   45.6610   31.3340   43.1740 S   0  0  0  0  0  0  0  0  0  0  0  0
   48.6530   32.7720   44.3470 H   0  0  0  0  0  0  0  0  0  0  0  0
   48.9640   30.3780   43.6600 H   0  0  0  0  0  0  0  0  0  0  0  0
   46.6900   29.1920   42.7720 H   0  0  0  0  0  0  0  0  0  0  0  0
   46.7340   34.8380   41.8280 C   0  0  0  0  0  0  0  0  0  0  0  0
   47.9110   35.3290   41.8290 O   0  0  0  0  0  0  0  0  0  0  0  0
   46.1380   34.1650   40.6390 C   0  0  0  0  0  0  0  0  0  0  0  0
   46.8290   33.4660   39.6710 C   0  0  0  0  0  0  0  0  0  0  0  0
   47.8690   33.2840   39.5950 H   0  0  0  0  0  0  0  0  0  0  0  0
   45.7960   33.0620   38.8210 C   0  0  0  0  0  0  0  0  0  0  0  0
   45.9050   32.4750   37.9120 H   0  0  0  0  0  0  0  0  0  0  0  0
   44.5840   33.4930   39.2580 N   0  0  0  0  0  0  0  0  0  0  0  0
   43.6760   33.3160   38.7930 H   0  0  0  0  0  0  0  0  0  0  0  0
   44.8180   34.1780   40.3900 N   0  0  0  0  0  0  0  0  0  0  0  0
  1  6  1  0  0  0  0
  2  1  2  0  0  0  0
  2  3  1  0  0  0  0
  3  4  2  0  0  0  0
  4  5  1  0  0  0  0
  5  8  1  0  0  0  0
  6  5  2  0  0  0  0
  7  1  1  0  0  0  0
  9 10  2  0  0  0  0
  9  3  1  0  0  0  0
 10 14  1  0  0  0  0
 11 10  1  0  0  0  0
 12 11  2  0  0  0  0
 13 12  1  0  0  0  0
 13  9  1  0  0  0  0
 15 11  1  0  0  0  0
 16 12  1  0  0  0  0
 17 18  2  0  0  0  0
 17  2  1  0  0  0  0
 19 17  1  0  0  0  0
 20 19  1  0  0  0  0
 21 20  1  0  0  0  0
 22 24  1  0  0  0  0
 22 20  2  0  0  0  0
 23 22  1  0  0  0  0
 24 26  1  0  0  0  0
 25 24  1  0  0  0  0
 26 19  2  0  0  0  0
M  END
>  <minimizedAffinity>
-4.34885025

>  <minimizedRMSD>
1.15416157

$$$$
