
 OpenBabel03252505053D

 42 45  0  0  1  0  0  0  0  0999 V2000
   44.5750   35.5860   44.6210 C   0  0  0  0  0  0  0  0  0  0  0  0
   45.2360   35.6020   43.3640 C   0  0  0  0  0  0  0  0  0  0  0  0
   46.3210   34.6900   43.1860 C   0  0  0  0  0  0  0  0  0  0  0  0
   46.6670   33.8660   44.2050 N   0  0  0  0  0  0  0  0  0  0  0  0
   46.0050   33.8940   45.3740 C   0  0  0  0  0  0  0  0  0  0  0  0
   44.9650   34.7430   45.5930 N   0  0  0  0  0  0  0  0  0  0  0  0
   43.7590   36.2780   44.7420 H   0  0  0  0  0  0  0  0  0  0  0  0
   44.9270   36.2790   42.5750 H   0  0  0  0  0  0  0  0  0  0  0  0
   46.4290   32.9720   46.4550 C   0  0  2  0  0  0  0  0  0  0  0  0
   46.9640   31.7460   45.7690 C   0  0  0  0  0  0  0  0  0  0  0  0
   46.0980   30.5550   45.7870 C   0  0  0  0  0  0  0  0  0  0  0  0
   45.8040   30.2930   47.2640 C   0  0  0  0  0  0  0  0  0  0  0  0
   45.0140   31.3560   47.8750 C   0  0  0  0  0  0  0  0  0  0  0  0
   45.3770   32.7310   47.4180 C   0  0  0  0  0  0  0  0  0  0  0  0
   47.2770   33.4930   46.9670 H   0  0  0  0  0  0  0  0  0  0  0  0
   47.2410   31.9430   44.7010 H   0  0  0  0  0  0  0  0  0  0  0  0
   47.9250   31.4680   46.2480 H   0  0  0  0  0  0  0  0  0  0  0  0
   45.2040   30.5720   45.1630 H   0  0  0  0  0  0  0  0  0  0  0  0
   46.7060   29.6850   45.4660 H   0  0  0  0  0  0  0  0  0  0  0  0
   46.7610   30.1420   47.7740 H   0  0  0  0  0  0  0  0  0  0  0  0
   45.1860   29.3910   47.2740 H   0  0  0  0  0  0  0  0  0  0  0  0
   44.2250   31.3450   48.5810 H   0  0  0  0  0  0  0  0  0  0  0  0
   44.6810   33.8750   47.9310 N   0  0  0  0  0  0  0  0  0  0  0  0
   45.0320   34.5360   48.6280 H   0  0  0  0  0  0  0  0  0  0  0  0
   43.7090   34.0430   47.5460 H   0  0  0  0  0  0  0  0  0  0  0  0
   47.0150   34.6830   41.9060 C   0  0  0  0  0  0  0  0  0  0  0  0
   48.1710   35.3870   41.7920 C   0  0  0  0  0  0  0  0  0  0  0  0
   48.7980   35.3460   40.5370 C   0  0  0  0  0  0  0  0  0  0  0  0
   48.1860   34.6040   39.5520 C   0  0  0  0  0  0  0  0  0  0  0  0
   47.0280   33.9000   39.6710 C   0  0  0  0  0  0  0  0  0  0  0  0
   46.4540   33.9690   40.9120 N   0  0  0  0  0  0  0  0  0  0  0  0
   48.6340   35.9590   42.5660 H   0  0  0  0  0  0  0  0  0  0  0  0
   49.7190   35.8800   40.3710 H   0  0  0  0  0  0  0  0  0  0  0  0
   48.7070   34.6040   38.6050 H   0  0  0  0  0  0  0  0  0  0  0  0
   46.4260   33.1390   38.6160 C   0  0  0  0  0  0  0  0  0  0  0  0
   47.0080   32.7310   37.4490 C   0  0  0  0  0  0  0  0  0  0  0  0
   48.0380   32.9380   37.1580 H   0  0  0  0  0  0  0  0  0  0  0  0
   46.0180   32.0250   36.7580 C   0  0  0  0  0  0  0  0  0  0  0  0
   46.2640   31.6040   35.7900 H   0  0  0  0  0  0  0  0  0  0  0  0
   44.8980   32.0280   37.5130 N   0  0  0  0  0  0  0  0  0  0  0  0
   44.0880   31.5240   37.0890 H   0  0  0  0  0  0  0  0  0  0  0  0
   45.1590   32.6980   38.6200 N   0  0  0  0  0  0  0  0  0  0  0  0
  1  7  1  0  0  0  0
  1  6  1  0  0  0  0
  2  1  2  0  0  0  0
  3  2  1  0  0  0  0
  3  4  2  0  0  0  0
  4  5  1  0  0  0  0
  5  6  2  0  0  0  0
  5  9  1  0  0  0  0
  8  2  1  0  0  0  0
  9 15  1  1  0  0  0
  9 14  1  0  0  0  0
 10 11  1  0  0  0  0
 10 17  1  0  0  0  0
 10  9  1  0  0  0  0
 11 12  1  0  0  0  0
 12 21  1  0  0  0  0
 12 20  1  0  0  0  0
 12 13  1  0  0  0  0
 13 22  1  0  0  0  0
 14 13  2  0  0  0  0
 14 23  1  0  0  0  0
 16 10  1  0  0  0  0
 18 11  1  0  0  0  0
 19 11  1  0  0  0  0
 23 24  1  0  0  0  0
 25 23  1  0  0  0  0
 26  3  1  0  0  0  0
 27 26  1  0  0  0  0
 27 32  1  0  0  0  0
 28 27  2  0  0  0  0
 29 30  2  0  0  0  0
 29 28  1  0  0  0  0
 30 31  1  0  0  0  0
 31 26  2  0  0  0  0
 33 28  1  0  0  0  0
 34 29  1  0  0  0  0
 35 42  2  0  0  0  0
 35 30  1  0  0  0  0
 36 35  1  0  0  0  0
 37 36  1  0  0  0  0
 38 36  2  0  0  0  0
 38 40  1  0  0  0  0
 39 38  1  0  0  0  0
 40 42  1  0  0  0  0
 41 40  1  0  0  0  0
M  END
>  <minimizedAffinity>
-7.16221285

>  <minimizedRMSD>
0.117803149

$$$$
