
 OpenBabel03252503103D

 26 28  0  0  0  0  0  0  0  0999 V2000
   38.6860   29.2830   42.5860 C   0  0  0  0  0  0  0  0  0  0  0  0
   37.9380   29.2910   41.3910 C   0  0  0  0  0  0  0  0  0  0  0  0
   36.7840   28.5170   41.4210 C   0  0  0  0  0  0  0  0  0  0  0  0
   36.4080   27.8110   42.5060 N   0  0  0  0  0  0  0  0  0  0  0  0
   37.1710   27.8390   43.6400 C   0  0  0  0  0  0  0  0  0  0  0  0
   38.3000   28.5710   43.6710 N   0  0  0  0  0  0  0  0  0  0  0  0
   39.6060   29.8390   42.7080 H   0  0  0  0  0  0  0  0  0  0  0  0
   36.8270   27.2580   44.4820 H   0  0  0  0  0  0  0  0  0  0  0  0
   35.9840   28.4690   40.2810 C   0  0  0  0  0  0  0  0  0  0  0  0
   34.9120   29.1900   39.8170 C   0  0  0  0  0  0  0  0  0  0  0  0
   34.2950   28.9430   38.6730 C   0  0  0  0  0  0  0  0  0  0  0  0
   34.7820   27.8990   37.9330 C   0  0  0  0  0  0  0  0  0  0  0  0
   36.1900   27.2800   38.9700 S   0  0  0  0  0  0  0  0  0  0  0  0
   34.4420   30.0530   40.2540 H   0  0  0  0  0  0  0  0  0  0  0  0
   33.4980   29.2770   38.0620 H   0  0  0  0  0  0  0  0  0  0  0  0
   34.8160   27.1570   36.9950 H   0  0  0  0  0  0  0  0  0  0  0  0
   38.3640   30.0660   40.2870 C   0  0  0  0  0  0  0  0  0  0  0  0
   39.0730   29.4310   39.4380 O   0  0  0  0  0  0  0  0  0  0  0  0
   38.0180   31.5080   40.1370 C   0  0  0  0  0  0  0  0  0  0  0  0
   37.1690   32.0450   39.1920 C   0  0  0  0  0  0  0  0  0  0  0  0
   36.6280   31.5530   38.4260 H   0  0  0  0  0  0  0  0  0  0  0  0
   37.2140   33.4050   39.5100 C   0  0  0  0  0  0  0  0  0  0  0  0
   36.6770   34.2020   39.0000 H   0  0  0  0  0  0  0  0  0  0  0  0
   38.0290   33.6500   40.5680 N   0  0  0  0  0  0  0  0  0  0  0  0
   38.2180   34.5800   40.9830 H   0  0  0  0  0  0  0  0  0  0  0  0
   38.5200   32.4570   40.9440 N   0  0  0  0  0  0  0  0  0  0  0  0
  1  7  1  0  0  0  0
  1  6  1  0  0  0  0
  2  3  1  0  0  0  0
  2  1  2  0  0  0  0
  3  4  2  0  0  0  0
  4  5  1  0  0  0  0
  5  6  2  0  0  0  0
  5  8  1  0  0  0  0
  9  3  1  0  0  0  0
 10 14  1  0  0  0  0
 10  9  2  0  0  0  0
 11 10  1  0  0  0  0
 12 11  2  0  0  0  0
 12 13  1  0  0  0  0
 13  9  1  0  0  0  0
 15 11  1  0  0  0  0
 16 12  1  0  0  0  0
 17  2  1  0  0  0  0
 18 17  2  0  0  0  0
 19 17  1  0  0  0  0
 19 26  2  0  0  0  0
 20 22  2  0  0  0  0
 20 19  1  0  0  0  0
 21 20  1  0  0  0  0
 22 24  1  0  0  0  0
 23 22  1  0  0  0  0
 24 26  1  0  0  0  0
 24 25  1  0  0  0  0
M  END
>  <minimizedAffinity>
-4.91204405

$$$$

 OpenBabel03252503103D

 26 28  0  0  0  0  0  0  0  0999 V2000
   36.8490   30.4320   38.0160 C   0  0  0  0  0  0  0  0  0  0  0  0
   37.0000   30.1210   39.3830 C   0  0  0  0  0  0  0  0  0  0  0  0
   37.3080   28.7920   39.6470 C   0  0  0  0  0  0  0  0  0  0  0  0
   37.4510   27.8700   38.6750 N   0  0  0  0  0  0  0  0  0  0  0  0
   37.2940   28.2270   37.3650 C   0  0  0  0  0  0  0  0  0  0  0  0
   36.9940   29.4990   37.0460 N   0  0  0  0  0  0  0  0  0  0  0  0
   36.6080   31.4260   37.6630 H   0  0  0  0  0  0  0  0  0  0  0  0
   37.4190   27.4510   36.6230 H   0  0  0  0  0  0  0  0  0  0  0  0
   37.4760   28.3980   40.9730 C   0  0  0  0  0  0  0  0  0  0  0  0
   36.6570   27.8670   41.9390 C   0  0  0  0  0  0  0  0  0  0  0  0
   37.0570   27.5740   43.1670 C   0  0  0  0  0  0  0  0  0  0  0  0
   38.3700   27.8280   43.4550 C   0  0  0  0  0  0  0  0  0  0  0  0
   39.0180   28.5160   41.8590 S   0  0  0  0  0  0  0  0  0  0  0  0
   35.6250   27.5750   41.8600 H   0  0  0  0  0  0  0  0  0  0  0  0
   36.7120   27.1850   44.0880 H   0  0  0  0  0  0  0  0  0  0  0  0
   39.3410   27.8600   44.1550 H   0  0  0  0  0  0  0  0  0  0  0  0
   36.8610   31.1300   40.3650 C   0  0  0  0  0  0  0  0  0  0  0  0
   35.8500   30.9890   41.1290 O   0  0  0  0  0  0  0  0  0  0  0  0
   37.8170   32.2680   40.4860 C   0  0  0  0  0  0  0  0  0  0  0  0
   37.6780   33.5100   39.9040 C   0  0  0  0  0  0  0  0  0  0  0  0
   36.8990   33.8730   39.2850 H   0  0  0  0  0  0  0  0  0  0  0  0
   38.8340   34.1610   40.3440 C   0  0  0  0  0  0  0  0  0  0  0  0
   39.1240   35.1830   40.1090 H   0  0  0  0  0  0  0  0  0  0  0  0
   39.5970   33.3590   41.1300 N   0  0  0  0  0  0  0  0  0  0  0  0
   40.4960   33.6230   41.5700 H   0  0  0  0  0  0  0  0  0  0  0  0
   38.9480   32.1850   41.2060 N   0  0  0  0  0  0  0  0  0  0  0  0
  1  2  1  0  0  0  0
  2  3  2  0  0  0  0
  2 17  1  0  0  0  0
  3  9  1  0  0  0  0
  4  3  1  0  0  0  0
  5  4  2  0  0  0  0
  6  5  1  0  0  0  0
  6  1  2  0  0  0  0
  7  1  1  0  0  0  0
  8  5  1  0  0  0  0
  9 13  1  0  0  0  0
  9 10  2  0  0  0  0
 10 11  1  0  0  0  0
 11 12  2  0  0  0  0
 11 15  1  0  0  0  0
 12 16  1  0  0  0  0
 13 12  1  0  0  0  0
 14 10  1  0  0  0  0
 17 19  1  0  0  0  0
 17 18  2  0  0  0  0
 19 26  2  0  0  0  0
 20 22  2  0  0  0  0
 20 19  1  0  0  0  0
 21 20  1  0  0  0  0
 22 24  1  0  0  0  0
 23 22  1  0  0  0  0
 24 26  1  0  0  0  0
 24 25  1  0  0  0  0
M  END
>  <minimizedAffinity>
-4.88361549

$$$$

 OpenBabel03252503103D

 26 28  0  0  0  0  0  0  0  0999 V2000
   35.8870   27.6130   37.9060 C   0  0  0  0  0  0  0  0  0  0  0  0
   36.0880   28.0370   39.2360 C   0  0  0  0  0  0  0  0  0  0  0  0
   36.9140   27.2140   39.9920 C   0  0  0  0  0  0  0  0  0  0  0  0
   37.4810   26.0970   39.4950 N   0  0  0  0  0  0  0  0  0  0  0  0
   37.2520   25.7320   38.1970 C   0  0  0  0  0  0  0  0  0  0  0  0
   36.4610   26.4890   37.4160 N   0  0  0  0  0  0  0  0  0  0  0  0
   35.2690   28.1550   37.2030 H   0  0  0  0  0  0  0  0  0  0  0  0
   37.7290   24.8290   37.8470 H   0  0  0  0  0  0  0  0  0  0  0  0
   37.1670   27.5590   41.3180 C   0  0  0  0  0  0  0  0  0  0  0  0
   36.5330   27.3380   42.5160 C   0  0  0  0  0  0  0  0  0  0  0  0
   36.9760   27.7880   43.6790 C   0  0  0  0  0  0  0  0  0  0  0  0
   38.1360   28.5130   43.6490 C   0  0  0  0  0  0  0  0  0  0  0  0
   38.5720   28.5190   41.8460 S   0  0  0  0  0  0  0  0  0  0  0  0
   35.6470   26.7610   42.7120 H   0  0  0  0  0  0  0  0  0  0  0  0
   36.7500   27.8000   44.7130 H   0  0  0  0  0  0  0  0  0  0  0  0
   39.0310   29.1480   44.1260 H   0  0  0  0  0  0  0  0  0  0  0  0
   35.4880   29.2300   39.7030 C   0  0  0  0  0  0  0  0  0  0  0  0
   34.2820   29.0970   40.0980 O   0  0  0  0  0  0  0  0  0  0  0  0
   36.2080   30.5350   39.7230 C   0  0  0  0  0  0  0  0  0  0  0  0
   36.8640   31.1170   38.6590 C   0  0  0  0  0  0  0  0  0  0  0  0
   36.9770   30.7590   37.6690 H   0  0  0  0  0  0  0  0  0  0  0  0
   37.3420   32.2990   39.2310 C   0  0  0  0  0  0  0  0  0  0  0  0
   37.9260   33.0660   38.7280 H   0  0  0  0  0  0  0  0  0  0  0  0
   36.9890   32.4060   40.5390 N   0  0  0  0  0  0  0  0  0  0  0  0
   37.2290   33.1930   41.1670 H   0  0  0  0  0  0  0  0  0  0  0  0
   36.2850   31.2990   40.8260 N   0  0  0  0  0  0  0  0  0  0  0  0
  1  2  1  0  0  0  0
  2 17  1  0  0  0  0
  2  3  2  0  0  0  0
  3  9  1  0  0  0  0
  4  3  1  0  0  0  0
  5  4  2  0  0  0  0
  6  1  2  0  0  0  0
  6  5  1  0  0  0  0
  7  1  1  0  0  0  0
  8  5  1  0  0  0  0
  9 13  1  0  0  0  0
  9 10  2  0  0  0  0
 10 14  1  0  0  0  0
 10 11  1  0  0  0  0
 11 15  1  0  0  0  0
 12 11  2  0  0  0  0
 12 16  1  0  0  0  0
 13 12  1  0  0  0  0
 17 19  1  0  0  0  0
 17 18  2  0  0  0  0
 19 26  2  0  0  0  0
 20 22  2  0  0  0  0
 20 19  1  0  0  0  0
 21 20  1  0  0  0  0
 22 24  1  0  0  0  0
 23 22  1  0  0  0  0
 24 26  1  0  0  0  0
 24 25  1  0  0  0  0
M  END
>  <minimizedAffinity>
-4.78178215

$$$$

 OpenBabel03252503103D

 26 28  0  0  0  0  0  0  0  0999 V2000
   36.2440   27.2060   38.6940 C   0  0  0  0  0  0  0  0  0  0  0  0
   36.9070   28.3430   39.2010 C   0  0  0  0  0  0  0  0  0  0  0  0
   36.5350   29.5450   38.6110 C   0  0  0  0  0  0  0  0  0  0  0  0
   35.6130   29.6220   37.6310 N   0  0  0  0  0  0  0  0  0  0  0  0
   35.0010   28.4880   37.1770 C   0  0  0  0  0  0  0  0  0  0  0  0
   35.3190   27.2930   37.7090 N   0  0  0  0  0  0  0  0  0  0  0  0
   36.4320   26.2050   39.0570 H   0  0  0  0  0  0  0  0  0  0  0  0
   34.2690   28.6020   36.3910 H   0  0  0  0  0  0  0  0  0  0  0  0
   37.1410   30.7190   39.0540 C   0  0  0  0  0  0  0  0  0  0  0  0
   36.8330   31.6790   39.9870 C   0  0  0  0  0  0  0  0  0  0  0  0
   37.5850   32.7410   40.2300 C   0  0  0  0  0  0  0  0  0  0  0  0
   38.7290   32.8580   39.4880 C   0  0  0  0  0  0  0  0  0  0  0  0
   38.6790   31.3490   38.4100 S   0  0  0  0  0  0  0  0  0  0  0  0
   36.0030   31.7100   40.6700 H   0  0  0  0  0  0  0  0  0  0  0  0
   37.6370   33.6090   40.8330 H   0  0  0  0  0  0  0  0  0  0  0  0
   39.7460   33.3830   39.1390 H   0  0  0  0  0  0  0  0  0  0  0  0
   37.8510   28.2120   40.2460 C   0  0  0  0  0  0  0  0  0  0  0  0
   39.0530   28.0450   39.8550 O   0  0  0  0  0  0  0  0  0  0  0  0
   37.4660   28.2570   41.6850 C   0  0  0  0  0  0  0  0  0  0  0  0
   36.9420   27.2130   42.4190 C   0  0  0  0  0  0  0  0  0  0  0  0
   36.7230   26.2240   42.1080 H   0  0  0  0  0  0  0  0  0  0  0  0
   36.7760   27.8020   43.6750 C   0  0  0  0  0  0  0  0  0  0  0  0
   36.3800   27.3180   44.5640 H   0  0  0  0  0  0  0  0  0  0  0  0
   37.1750   29.1010   43.6800 N   0  0  0  0  0  0  0  0  0  0  0  0
   37.1470   29.7380   44.4950 H   0  0  0  0  0  0  0  0  0  0  0  0
   37.6010   29.3640   42.4330 N   0  0  0  0  0  0  0  0  0  0  0  0
  1  7  1  0  0  0  0
  1  2  1  0  0  0  0
  2 17  1  0  0  0  0
  3  9  1  0  0  0  0
  3  2  2  0  0  0  0
  4  3  1  0  0  0  0
  5  4  2  0  0  0  0
  5  6  1  0  0  0  0
  6  1  2  0  0  0  0
  8  5  1  0  0  0  0
  9 10  2  0  0  0  0
 10 11  1  0  0  0  0
 10 14  1  0  0  0  0
 11 15  1  0  0  0  0
 12 11  2  0  0  0  0
 13  9  1  0  0  0  0
 13 12  1  0  0  0  0
 16 12  1  0  0  0  0
 17 19  1  0  0  0  0
 18 17  2  0  0  0  0
 19 20  1  0  0  0  0
 19 26  2  0  0  0  0
 20 22  2  0  0  0  0
 21 20  1  0  0  0  0
 22 24  1  0  0  0  0
 22 23  1  0  0  0  0
 24 25  1  0  0  0  0
 26 24  1  0  0  0  0
M  END
>  <minimizedAffinity>
-4.61668968

$$$$

 OpenBabel03252503103D

 26 28  0  0  0  0  0  0  0  0999 V2000
   37.2970   33.1740   39.5630 C   0  0  0  0  0  0  0  0  0  0  0  0
   37.4490   31.8430   40.0040 C   0  0  0  0  0  0  0  0  0  0  0  0
   38.5250   31.6320   40.8580 C   0  0  0  0  0  0  0  0  0  0  0  0
   39.3610   32.6200   41.2360 N   0  0  0  0  0  0  0  0  0  0  0  0
   39.1670   33.8930   40.7780 C   0  0  0  0  0  0  0  0  0  0  0  0
   38.1410   34.1600   39.9480 N   0  0  0  0  0  0  0  0  0  0  0  0
   36.5040   33.4850   38.8960 H   0  0  0  0  0  0  0  0  0  0  0  0
   39.8630   34.6490   41.1100 H   0  0  0  0  0  0  0  0  0  0  0  0
   38.7490   30.3450   41.3420 C   0  0  0  0  0  0  0  0  0  0  0  0
   38.4460   29.6790   42.5040 C   0  0  0  0  0  0  0  0  0  0  0  0
   38.7820   28.4220   42.7440 C   0  0  0  0  0  0  0  0  0  0  0  0
   39.4710   27.7770   41.7520 C   0  0  0  0  0  0  0  0  0  0  0  0
   39.6160   29.0780   40.4380 S   0  0  0  0  0  0  0  0  0  0  0  0
   37.8820   30.0270   43.3510 H   0  0  0  0  0  0  0  0  0  0  0  0
   38.7130   27.6620   43.4780 H   0  0  0  0  0  0  0  0  0  0  0  0
   40.0340   26.8480   41.2510 H   0  0  0  0  0  0  0  0  0  0  0  0
   36.5320   30.8470   39.5960 C   0  0  0  0  0  0  0  0  0  0  0  0
   35.6640   30.5340   40.4770 O   0  0  0  0  0  0  0  0  0  0  0  0
   36.5850   30.2100   38.2490 C   0  0  0  0  0  0  0  0  0  0  0  0
   35.6620   29.3250   37.7320 C   0  0  0  0  0  0  0  0  0  0  0  0
   34.7790   28.9470   38.1790 H   0  0  0  0  0  0  0  0  0  0  0  0
   36.1990   29.0600   36.4700 C   0  0  0  0  0  0  0  0  0  0  0  0
   35.7750   28.3970   35.7180 H   0  0  0  0  0  0  0  0  0  0  0  0
   37.3540   29.7420   36.2580 N   0  0  0  0  0  0  0  0  0  0  0  0
   37.9290   29.7040   35.3980 H   0  0  0  0  0  0  0  0  0  0  0  0
   37.5780   30.4520   37.3770 N   0  0  0  0  0  0  0  0  0  0  0  0
  1  6  2  0  0  0  0
  1  2  1  0  0  0  0
  2  3  2  0  0  0  0
  3  4  1  0  0  0  0
  3  9  1  0  0  0  0
  5  8  1  0  0  0  0
  5  4  2  0  0  0  0
  6  5  1  0  0  0  0
  7  1  1  0  0  0  0
  9 10  2  0  0  0  0
 10 11  1  0  0  0  0
 10 14  1  0  0  0  0
 11 15  1  0  0  0  0
 12 11  2  0  0  0  0
 13  9  1  0  0  0  0
 13 12  1  0  0  0  0
 16 12  1  0  0  0  0
 17  2  1  0  0  0  0
 17 18  2  0  0  0  0
 19 17  1  0  0  0  0
 20 21  1  0  0  0  0
 20 19  1  0  0  0  0
 22 20  2  0  0  0  0
 23 22  1  0  0  0  0
 24 22  1  0  0  0  0
 24 26  1  0  0  0  0
 25 24  1  0  0  0  0
 26 19  2  0  0  0  0
M  END
>  <minimizedAffinity>
-4.60760498

$$$$

 OpenBabel03252503103D

 26 28  0  0  0  0  0  0  0  0999 V2000
   39.7020   31.8710   40.9210 C   0  0  0  0  0  0  0  0  0  0  0  0
   38.7360   30.9050   40.5700 C   0  0  0  0  0  0  0  0  0  0  0  0
   37.5500   31.4250   40.0630 C   0  0  0  0  0  0  0  0  0  0  0  0
   37.3370   32.7470   39.9180 N   0  0  0  0  0  0  0  0  0  0  0  0
   38.3090   33.6400   40.2750 C   0  0  0  0  0  0  0  0  0  0  0  0
   39.4790   33.1980   40.7720 N   0  0  0  0  0  0  0  0  0  0  0  0
   40.6700   31.6120   41.3280 H   0  0  0  0  0  0  0  0  0  0  0  0
   38.0900   34.6890   40.1400 H   0  0  0  0  0  0  0  0  0  0  0  0
   36.5410   30.5400   39.6900 C   0  0  0  0  0  0  0  0  0  0  0  0
   35.4780   29.9530   40.3310 C   0  0  0  0  0  0  0  0  0  0  0  0
   34.6370   29.1130   39.7490 C   0  0  0  0  0  0  0  0  0  0  0  0
   34.8690   28.8370   38.4290 C   0  0  0  0  0  0  0  0  0  0  0  0
   36.3740   29.8540   38.0530 S   0  0  0  0  0  0  0  0  0  0  0  0
   35.1410   30.0960   41.3420 H   0  0  0  0  0  0  0  0  0  0  0  0
   33.7780   28.5240   39.9380 H   0  0  0  0  0  0  0  0  0  0  0  0
   34.6520   28.3100   37.3770 H   0  0  0  0  0  0  0  0  0  0  0  0
   39.0170   29.5270   40.7200 C   0  0  0  0  0  0  0  0  0  0  0  0
   39.8150   29.0510   39.8460 O   0  0  0  0  0  0  0  0  0  0  0  0
   38.4190   28.7010   41.8070 C   0  0  0  0  0  0  0  0  0  0  0  0
   38.2280   29.0950   43.1150 C   0  0  0  0  0  0  0  0  0  0  0  0
   38.4620   30.0210   43.5730 H   0  0  0  0  0  0  0  0  0  0  0  0
   37.6480   27.9530   43.6740 C   0  0  0  0  0  0  0  0  0  0  0  0
   37.3340   27.8330   44.7080 H   0  0  0  0  0  0  0  0  0  0  0  0
   37.5070   26.9590   42.7600 N   0  0  0  0  0  0  0  0  0  0  0  0
   37.1030   26.0230   42.9420 H   0  0  0  0  0  0  0  0  0  0  0  0
   37.9920   27.4430   41.6050 N   0  0  0  0  0  0  0  0  0  0  0  0
  1  7  1  0  0  0  0
  2 17  1  0  0  0  0
  2  1  2  0  0  0  0
  3  2  1  0  0  0  0
  4  3  2  0  0  0  0
  4  5  1  0  0  0  0
  5  6  2  0  0  0  0
  6  1  1  0  0  0  0
  8  5  1  0  0  0  0
  9  3  1  0  0  0  0
  9 10  2  0  0  0  0
 10 14  1  0  0  0  0
 11 15  1  0  0  0  0
 11 10  1  0  0  0  0
 12 11  2  0  0  0  0
 13 12  1  0  0  0  0
 13  9  1  0  0  0  0
 16 12  1  0  0  0  0
 17 19  1  0  0  0  0
 18 17  2  0  0  0  0
 19 20  1  0  0  0  0
 20 21  1  0  0  0  0
 20 22  2  0  0  0  0
 22 23  1  0  0  0  0
 24 25  1  0  0  0  0
 24 22  1  0  0  0  0
 26 19  2  0  0  0  0
 26 24  1  0  0  0  0
M  END
>  <minimizedAffinity>
-4.56273317

$$$$

 OpenBabel03252503103D

 26 28  0  0  0  0  0  0  0  0999 V2000
   38.2800   28.3780   37.4970 C   0  0  0  0  0  0  0  0  0  0  0  0
   37.7480   28.5290   38.7940 C   0  0  0  0  0  0  0  0  0  0  0  0
   38.3850   27.7790   39.7760 C   0  0  0  0  0  0  0  0  0  0  0  0
   39.4310   26.9710   39.5120 N   0  0  0  0  0  0  0  0  0  0  0  0
   39.9070   26.8630   38.2350 C   0  0  0  0  0  0  0  0  0  0  0  0
   39.3310   27.5630   37.2420 N   0  0  0  0  0  0  0  0  0  0  0  0
   37.8850   28.8990   36.6360 H   0  0  0  0  0  0  0  0  0  0  0  0
   40.7460   26.2020   38.0760 H   0  0  0  0  0  0  0  0  0  0  0  0
   37.9240   27.8690   41.0880 C   0  0  0  0  0  0  0  0  0  0  0  0
   36.9220   27.2660   41.8080 C   0  0  0  0  0  0  0  0  0  0  0  0
   36.6640   27.5300   43.0790 C   0  0  0  0  0  0  0  0  0  0  0  0
   37.4630   28.4650   43.6800 C   0  0  0  0  0  0  0  0  0  0  0  0
   38.6220   28.9550   42.3160 S   0  0  0  0  0  0  0  0  0  0  0  0
   36.2430   26.4920   41.4970 H   0  0  0  0  0  0  0  0  0  0  0  0
   36.0160   27.2680   43.8730 H   0  0  0  0  0  0  0  0  0  0  0  0
   37.8390   29.1480   44.5870 H   0  0  0  0  0  0  0  0  0  0  0  0
   36.6640   29.4070   39.0230 C   0  0  0  0  0  0  0  0  0  0  0  0
   35.5140   28.8590   38.9520 O   0  0  0  0  0  0  0  0  0  0  0  0
   36.8530   30.8570   39.3150 C   0  0  0  0  0  0  0  0  0  0  0  0
   37.3180   31.8090   38.4330 C   0  0  0  0  0  0  0  0  0  0  0  0
   37.6160   31.6920   37.4230 H   0  0  0  0  0  0  0  0  0  0  0  0
   37.2920   32.9630   39.2200 C   0  0  0  0  0  0  0  0  0  0  0  0
   37.5860   33.9620   38.9050 H   0  0  0  0  0  0  0  0  0  0  0  0
   36.8420   32.7080   40.4760 N   0  0  0  0  0  0  0  0  0  0  0  0
   36.7370   33.4060   41.2330 H   0  0  0  0  0  0  0  0  0  0  0  0
   36.5750   31.3920   40.5160 N   0  0  0  0  0  0  0  0  0  0  0  0
  1  2  1  0  0  0  0
  2 17  1  0  0  0  0
  2  3  2  0  0  0  0
  3  9  1  0  0  0  0
  4  3  1  0  0  0  0
  5  4  2  0  0  0  0
  6  1  2  0  0  0  0
  6  5  1  0  0  0  0
  7  1  1  0  0  0  0
  8  5  1  0  0  0  0
  9 10  2  0  0  0  0
  9 13  1  0  0  0  0
 10 11  1  0  0  0  0
 11 12  2  0  0  0  0
 11 15  1  0  0  0  0
 12 16  1  0  0  0  0
 13 12  1  0  0  0  0
 14 10  1  0  0  0  0
 17 19  1  0  0  0  0
 18 17  2  0  0  0  0
 19 26  2  0  0  0  0
 20 22  2  0  0  0  0
 20 19  1  0  0  0  0
 21 20  1  0  0  0  0
 22 24  1  0  0  0  0
 23 22  1  0  0  0  0
 24 26  1  0  0  0  0
 24 25  1  0  0  0  0
M  END
>  <minimizedAffinity>
-4.55923557

$$$$

 OpenBabel03252503103D

 26 28  0  0  0  0  0  0  0  0999 V2000
   35.7280   29.5910   38.2130 C   0  0  0  0  0  0  0  0  0  0  0  0
   36.3170   29.5090   39.4910 C   0  0  0  0  0  0  0  0  0  0  0  0
   36.5100   28.2150   39.9610 C   0  0  0  0  0  0  0  0  0  0  0  0
   36.1620   27.1230   39.2510 N   0  0  0  0  0  0  0  0  0  0  0  0
   35.5940   27.2610   38.0160 C   0  0  0  0  0  0  0  0  0  0  0  0
   35.3820   28.4890   37.5080 N   0  0  0  0  0  0  0  0  0  0  0  0
   35.5180   30.5330   37.7220 H   0  0  0  0  0  0  0  0  0  0  0  0
   35.3340   26.3560   37.4870 H   0  0  0  0  0  0  0  0  0  0  0  0
   37.0880   28.0410   41.2160 C   0  0  0  0  0  0  0  0  0  0  0  0
   36.6060   27.8520   42.4890 C   0  0  0  0  0  0  0  0  0  0  0  0
   37.3760   27.7160   43.5570 C   0  0  0  0  0  0  0  0  0  0  0  0
   38.7270   27.7720   43.3440 C   0  0  0  0  0  0  0  0  0  0  0  0
   38.8450   28.0310   41.5110 S   0  0  0  0  0  0  0  0  0  0  0  0
   35.5860   27.7450   42.8130 H   0  0  0  0  0  0  0  0  0  0  0  0
   37.3360   27.5680   44.6040 H   0  0  0  0  0  0  0  0  0  0  0  0
   39.8780   27.7490   43.6700 H   0  0  0  0  0  0  0  0  0  0  0  0
   36.6840   30.6840   40.1860 C   0  0  0  0  0  0  0  0  0  0  0  0
   35.9830   30.9280   41.2230 O   0  0  0  0  0  0  0  0  0  0  0  0
   37.7960   31.5690   39.7340 C   0  0  0  0  0  0  0  0  0  0  0  0
   39.0300   31.1540   39.2790 C   0  0  0  0  0  0  0  0  0  0  0  0
   39.4030   30.1690   39.1700 H   0  0  0  0  0  0  0  0  0  0  0  0
   39.6540   32.3730   39.0010 C   0  0  0  0  0  0  0  0  0  0  0  0
   40.6620   32.5040   38.6130 H   0  0  0  0  0  0  0  0  0  0  0  0
   38.8450   33.4290   39.2720 N   0  0  0  0  0  0  0  0  0  0  0  0
   39.0910   34.4270   39.1450 H   0  0  0  0  0  0  0  0  0  0  0  0
   37.6930   32.9090   39.7280 N   0  0  0  0  0  0  0  0  0  0  0  0
  1  2  1  0  0  0  0
  2  3  2  0  0  0  0
  2 17  1  0  0  0  0
  3  9  1  0  0  0  0
  4  3  1  0  0  0  0
  5  4  2  0  0  0  0
  6  5  1  0  0  0  0
  6  1  2  0  0  0  0
  7  1  1  0  0  0  0
  8  5  1  0  0  0  0
  9 13  1  0  0  0  0
  9 10  2  0  0  0  0
 10 14  1  0  0  0  0
 10 11  1  0  0  0  0
 11 15  1  0  0  0  0
 12 11  2  0  0  0  0
 12 16  1  0  0  0  0
 13 12  1  0  0  0  0
 17 18  2  0  0  0  0
 19 17  1  0  0  0  0
 20 19  1  0  0  0  0
 21 20  1  0  0  0  0
 22 24  1  0  0  0  0
 22 20  2  0  0  0  0
 23 22  1  0  0  0  0
 24 26  1  0  0  0  0
 25 24  1  0  0  0  0
 26 19  2  0  0  0  0
M  END
>  <minimizedAffinity>
-4.53637934

$$$$

 OpenBabel03252503103D

 26 28  0  0  0  0  0  0  0  0999 V2000
   37.3240   28.9990   42.7750 C   0  0  0  0  0  0  0  0  0  0  0  0
   36.9990   28.6520   41.4470 C   0  0  0  0  0  0  0  0  0  0  0  0
   37.5850   27.4770   40.9930 C   0  0  0  0  0  0  0  0  0  0  0  0
   38.4010   26.7260   41.7580 N   0  0  0  0  0  0  0  0  0  0  0  0
   38.6820   27.1090   43.0400 C   0  0  0  0  0  0  0  0  0  0  0  0
   38.1450   28.2390   43.5360 N   0  0  0  0  0  0  0  0  0  0  0  0
   36.9410   29.8870   43.2610 H   0  0  0  0  0  0  0  0  0  0  0  0
   39.3410   26.4740   43.6130 H   0  0  0  0  0  0  0  0  0  0  0  0
   37.3170   27.0580   39.6910 C   0  0  0  0  0  0  0  0  0  0  0  0
   36.3500   26.2820   39.1010 C   0  0  0  0  0  0  0  0  0  0  0  0
   36.3080   26.0120   37.8060 C   0  0  0  0  0  0  0  0  0  0  0  0
   37.3040   26.5550   37.0390 C   0  0  0  0  0  0  0  0  0  0  0  0
   38.3180   27.4880   38.2810 S   0  0  0  0  0  0  0  0  0  0  0  0
   35.4880   25.8230   39.5520 H   0  0  0  0  0  0  0  0  0  0  0  0
   35.7460   25.4880   37.0780 H   0  0  0  0  0  0  0  0  0  0  0  0
   37.8930   26.7700   36.0210 H   0  0  0  0  0  0  0  0  0  0  0  0
   36.1200   29.4620   40.6920 C   0  0  0  0  0  0  0  0  0  0  0  0
   34.9380   28.9970   40.5770 O   0  0  0  0  0  0  0  0  0  0  0  0
   36.5460   30.7510   40.0760 C   0  0  0  0  0  0  0  0  0  0  0  0
   36.8940   30.9430   38.7550 C   0  0  0  0  0  0  0  0  0  0  0  0
   36.9240   30.2390   37.9640 H   0  0  0  0  0  0  0  0  0  0  0  0
   37.1980   32.3070   38.7370 C   0  0  0  0  0  0  0  0  0  0  0  0
   37.5240   32.8810   37.8730 H   0  0  0  0  0  0  0  0  0  0  0  0
   37.0380   32.8770   39.9600 N   0  0  0  0  0  0  0  0  0  0  0  0
   37.2030   33.8730   40.1880 H   0  0  0  0  0  0  0  0  0  0  0  0
   36.6320   31.8920   40.7790 N   0  0  0  0  0  0  0  0  0  0  0  0
  1  7  1  0  0  0  0
  1  6  1  0  0  0  0
  2  1  2  0  0  0  0
  3  2  1  0  0  0  0
  3  4  2  0  0  0  0
  4  5  1  0  0  0  0
  5  6  2  0  0  0  0
  5  8  1  0  0  0  0
  9  3  1  0  0  0  0
 10 14  1  0  0  0  0
 10  9  2  0  0  0  0
 11 10  1  0  0  0  0
 12 11  2  0  0  0  0
 12 13  1  0  0  0  0
 13  9  1  0  0  0  0
 15 11  1  0  0  0  0
 16 12  1  0  0  0  0
 17  2  1  0  0  0  0
 18 17  2  0  0  0  0
 19 17  1  0  0  0  0
 19 26  2  0  0  0  0
 20 19  1  0  0  0  0
 21 20  1  0  0  0  0
 22 20  2  0  0  0  0
 22 24  1  0  0  0  0
 23 22  1  0  0  0  0
 24 25  1  0  0  0  0
 24 26  1  0  0  0  0
M  END
>  <minimizedAffinity>
-4.44507122

$$$$
