
 OpenBabel03252508283D

 38 41  0  0  1  0  0  0  0  0999 V2000
   41.4290   33.1270   41.7570 N   0  0  0  0  0  0  0  0  0  0  0  0
   41.1840   33.8370   40.4990 C   0  0  2  0  0  0  0  0  0  0  0  0
   39.7580   33.7980   40.0860 C   0  0  0  0  0  0  0  0  0  0  0  0
   38.8900   33.2920   41.1360 N   0  0  0  0  0  0  0  0  0  0  0  0
   39.3060   32.0730   41.7250 C   0  0  0  0  0  0  0  0  0  0  0  0
   40.7840   31.8100   41.5610 C   0  0  2  0  0  0  0  0  0  0  0  0
   41.0100   33.6200   42.5680 H   0  0  0  0  0  0  0  0  0  0  0  0
   41.5160   34.8940   40.6080 H   0  0  0  0  0  0  0  0  0  0  0  0
   39.3780   34.8420   39.8890 H   0  0  0  0  0  0  0  0  0  0  0  0
   39.4920   33.1150   39.2610 H   0  0  0  0  0  0  0  0  0  0  0  0
   38.8490   34.0300   41.8970 H   0  0  0  0  0  0  0  0  0  0  0  0
   38.7610   31.2130   41.2630 H   0  0  0  0  0  0  0  0  0  0  0  0
   39.0190   32.0650   42.8080 H   0  0  0  0  0  0  0  0  0  0  0  0
   40.9720   31.5150   40.5280 H   0  0  0  0  0  0  0  0  0  0  0  0
   41.2770   30.8110   42.5230 C   0  0  0  0  0  0  0  0  0  0  0  0
   40.5680   30.0130   43.3750 C   0  0  0  0  0  0  0  0  0  0  0  0
   39.4920   29.9740   43.4920 H   0  0  0  0  0  0  0  0  0  0  0  0
   41.4470   29.2270   44.0950 C   0  0  0  0  0  0  0  0  0  0  0  0
   41.2340   28.4760   44.8620 H   0  0  0  0  0  0  0  0  0  0  0  0
   42.6810   29.5600   43.6710 N   0  0  0  0  0  0  0  0  0  0  0  0
   43.6210   29.1840   43.9770 H   0  0  0  0  0  0  0  0  0  0  0  0
   42.5720   30.5020   42.7370 N   0  0  0  0  0  0  0  0  0  0  0  0
   43.6830   32.4690   38.2860 C   0  0  0  0  0  0  0  0  0  0  0  0
   42.4710   32.1320   37.6800 C   0  0  0  0  0  0  0  0  0  0  0  0
   41.4140   32.6110   38.4350 C   0  0  0  0  0  0  0  0  0  0  0  0
   41.9950   33.2160   39.4670 N   0  0  0  0  0  0  0  0  0  0  0  0
   43.3160   33.1340   39.3810 N   0  0  0  0  0  0  0  0  0  0  0  0
   42.5040   31.5600   36.7330 H   0  0  0  0  0  0  0  0  0  0  0  0
   40.4720   32.3560   37.9610 H   0  0  0  0  0  0  0  0  0  0  0  0
   46.7740   30.6960   37.0950 C   0  0  0  0  0  0  0  0  0  0  0  0
   45.4600   30.8490   37.6310 C   0  0  0  0  0  0  0  0  0  0  0  0
   45.0070   32.1390   37.7590 C   0  0  0  0  0  0  0  0  0  0  0  0
   45.8010   33.1840   37.3810 N   0  0  0  0  0  0  0  0  0  0  0  0
   47.0430   32.9920   36.8760 C   0  0  0  0  0  0  0  0  0  0  0  0
   47.5000   31.7560   36.7450 N   0  0  0  0  0  0  0  0  0  0  0  0
   47.1320   29.6710   36.9950 H   0  0  0  0  0  0  0  0  0  0  0  0
   44.8320   30.0250   37.9290 H   0  0  0  0  0  0  0  0  0  0  0  0
   47.5840   33.8900   36.6110 H   0  0  0  0  0  0  0  0  0  0  0  0
  1  7  1  0  0  0  0
  2  8  1  1  0  0  0
  2  1  1  0  0  0  0
  3  2  1  0  0  0  0
  3  4  1  0  0  0  0
  4  5  1  0  0  0  0
  4 11  1  0  0  0  0
  5 13  1  0  0  0  0
  6 14  1  6  0  0  0
  6  5  1  0  0  0  0
  6  1  1  0  0  0  0
  6 15  1  0  0  0  0
  9  3  1  0  0  0  0
 10  3  1  0  0  0  0
 12  5  1  0  0  0  0
 15 22  2  0  0  0  0
 15 16  1  0  0  0  0
 16 17  1  0  0  0  0
 16 18  2  0  0  0  0
 18 19  1  0  0  0  0
 20 21  1  0  0  0  0
 20 18  1  0  0  0  0
 22 20  1  0  0  0  0
 23 27  2  0  0  0  0
 24 23  1  0  0  0  0
 24 25  2  0  0  0  0
 25 26  1  0  0  0  0
 26  2  1  0  0  0  0
 27 26  1  0  0  0  0
 28 24  1  0  0  0  0
 29 25  1  0  0  0  0
 30 31  1  0  0  0  0
 31 32  2  0  0  0  0
 31 37  1  0  0  0  0
 32 23  1  0  0  0  0
 33 32  1  0  0  0  0
 34 33  2  0  0  0  0
 35 34  1  0  0  0  0
 35 30  2  0  0  0  0
 36 30  1  0  0  0  0
 38 34  1  0  0  0  0
M  END
>  <minimizedAffinity>
-4.38069534

>  <minimizedRMSD>
5.94818163

$$$$
