
 OpenBabel03252502293D

 34 36  0  0  0  0  0  0  0  0999 V2000
   37.1150   28.4900   41.0340 C   0  0  0  0  0  0  0  0  0  0  0  0
   36.4740   27.6610   41.9500 C   0  0  0  0  0  0  0  0  0  0  0  0
   36.8450   27.7480   43.2950 C   0  0  0  0  0  0  0  0  0  0  0  0
   37.8240   28.6410   43.6770 C   0  0  0  0  0  0  0  0  0  0  0  0
   38.4640   29.4640   42.7800 C   0  0  0  0  0  0  0  0  0  0  0  0
   38.0750   29.3560   41.4450 C   0  0  0  0  0  0  0  0  0  0  0  0
   35.7050   26.9620   41.6450 H   0  0  0  0  0  0  0  0  0  0  0  0
   36.3950   27.1420   44.0550 H   0  0  0  0  0  0  0  0  0  0  0  0
   38.1600   28.7590   44.7020 H   0  0  0  0  0  0  0  0  0  0  0  0
   39.2370   30.1860   42.9960 H   0  0  0  0  0  0  0  0  0  0  0  0
   35.1000   28.3430   37.8450 C   0  0  0  0  0  0  0  0  0  0  0  0
   35.3860   28.5090   39.2130 C   0  0  0  0  0  0  0  0  0  0  0  0
   36.6840   28.3490   39.6620 C   0  0  0  0  0  0  0  0  0  0  0  0
   37.6090   28.0340   38.7190 N   0  0  0  0  0  0  0  0  0  0  0  0
   37.3310   27.8760   37.4070 C   0  0  0  0  0  0  0  0  0  0  0  0
   36.0610   28.0330   36.9690 N   0  0  0  0  0  0  0  0  0  0  0  0
   34.6370   28.7560   39.9300 H   0  0  0  0  0  0  0  0  0  0  0  0
   38.1070   27.6260   36.6960 H   0  0  0  0  0  0  0  0  0  0  0  0
   33.7080   28.5150   37.3640 C   0  0  0  0  0  0  0  0  0  0  0  0
   33.7340   29.4520   36.3370 F   0  0  0  0  0  0  0  0  0  0  0  0
   33.0010   29.1270   38.3950 F   0  0  0  0  0  0  0  0  0  0  0  0
   33.1400   27.3490   36.9270 F   0  0  0  0  0  0  0  0  0  0  0  0
   38.5930   31.5160   40.0440 C   0  0  0  0  0  0  0  0  0  0  0  0
   37.9490   32.3900   40.6480 O   0  0  0  0  0  0  0  0  0  0  0  0
   38.6520   30.1440   40.4250 N   0  0  0  0  0  0  0  0  0  0  0  0
   39.2570   29.4770   39.8530 H   0  0  0  0  0  0  0  0  0  0  0  0
   39.3480   31.9160   38.8580 C   0  0  0  0  0  0  0  0  0  0  0  0
   40.5650   32.5280   38.9390 C   0  0  0  0  0  0  0  0  0  0  0  0
   41.1670   32.8180   39.8070 H   0  0  0  0  0  0  0  0  0  0  0  0
   41.0380   32.7890   37.6480 C   0  0  0  0  0  0  0  0  0  0  0  0
   41.9640   33.2600   37.3630 H   0  0  0  0  0  0  0  0  0  0  0  0
   40.0600   32.3080   36.8590 N   0  0  0  0  0  0  0  0  0  0  0  0
   40.1670   32.3800   35.8090 H   0  0  0  0  0  0  0  0  0  0  0  0
   39.0560   31.7910   37.5500 N   0  0  0  0  0  0  0  0  0  0  0  0
  1  6  2  0  0  0  0
  1  2  1  0  0  0  0
  2  3  2  0  0  0  0
  3  4  1  0  0  0  0
  3  8  1  0  0  0  0
  4  9  1  0  0  0  0
  5 10  1  0  0  0  0
  5  4  2  0  0  0  0
  6  5  1  0  0  0  0
  7  2  1  0  0  0  0
 11 12  1  0  0  0  0
 12 13  2  0  0  0  0
 12 17  1  0  0  0  0
 13  1  1  0  0  0  0
 14 13  1  0  0  0  0
 15 14  2  0  0  0  0
 16 15  1  0  0  0  0
 16 11  2  0  0  0  0
 18 15  1  0  0  0  0
 19 11  1  0  0  0  0
 19 21  1  0  0  0  0
 20 19  1  0  0  0  0
 22 19  1  0  0  0  0
 23 25  1  0  0  0  0
 23 24  2  0  0  0  0
 25  6  1  0  0  0  0
 26 25  1  0  0  0  0
 27 28  1  0  0  0  0
 27 23  1  0  0  0  0
 28 29  1  0  0  0  0
 30 28  2  0  0  0  0
 31 30  1  0  0  0  0
 32 34  1  0  0  0  0
 32 30  1  0  0  0  0
 33 32  1  0  0  0  0
 34 27  2  0  0  0  0
M  END
>  <minimizedAffinity>
-5.89647102

$$$$

 OpenBabel03252502293D

 34 36  0  0  0  0  0  0  0  0999 V2000
   35.5620   28.9810   38.1480 C   0  0  0  0  0  0  0  0  0  0  0  0
   34.4890   28.1170   37.9530 C   0  0  0  0  0  0  0  0  0  0  0  0
   34.0540   27.8880   36.6440 C   0  0  0  0  0  0  0  0  0  0  0  0
   34.6890   28.5140   35.5920 C   0  0  0  0  0  0  0  0  0  0  0  0
   35.7500   29.3700   35.7750 C   0  0  0  0  0  0  0  0  0  0  0  0
   36.1640   29.5810   37.0900 C   0  0  0  0  0  0  0  0  0  0  0  0
   33.9930   27.6270   38.7810 H   0  0  0  0  0  0  0  0  0  0  0  0
   33.2340   27.2360   36.4170 H   0  0  0  0  0  0  0  0  0  0  0  0
   34.4030   28.3820   34.5540 H   0  0  0  0  0  0  0  0  0  0  0  0
   36.3010   29.8980   35.0110 H   0  0  0  0  0  0  0  0  0  0  0  0
   36.6270   28.4850   41.7360 C   0  0  0  0  0  0  0  0  0  0  0  0
   36.2490   28.1600   40.4200 C   0  0  0  0  0  0  0  0  0  0  0  0
   35.9610   29.1730   39.5240 C   0  0  0  0  0  0  0  0  0  0  0  0
   36.0680   30.4410   39.9990 N   0  0  0  0  0  0  0  0  0  0  0  0
   36.4310   30.7490   41.2620 C   0  0  0  0  0  0  0  0  0  0  0  0
   36.7130   29.7580   42.1380 N   0  0  0  0  0  0  0  0  0  0  0  0
   36.1730   27.1530   40.0760 H   0  0  0  0  0  0  0  0  0  0  0  0
   36.5020   31.7770   41.5900 H   0  0  0  0  0  0  0  0  0  0  0  0
   36.9350   27.3990   42.6970 C   0  0  0  0  0  0  0  0  0  0  0  0
   35.9100   27.3690   43.6360 F   0  0  0  0  0  0  0  0  0  0  0  0
   38.0640   27.8000   43.4060 F   0  0  0  0  0  0  0  0  0  0  0  0
   37.0680   26.1740   42.1020 F   0  0  0  0  0  0  0  0  0  0  0  0
   38.6490   30.2780   37.5760 C   0  0  0  0  0  0  0  0  0  0  0  0
   39.2650   29.2130   37.4100 O   0  0  0  0  0  0  0  0  0  0  0  0
   37.2410   30.4350   37.4150 N   0  0  0  0  0  0  0  0  0  0  0  0
   36.8120   31.4010   37.5570 H   0  0  0  0  0  0  0  0  0  0  0  0
   39.4150   31.4610   37.9650 C   0  0  0  0  0  0  0  0  0  0  0  0
   40.6340   31.7510   37.4260 C   0  0  0  0  0  0  0  0  0  0  0  0
   41.2320   31.2230   36.6740 H   0  0  0  0  0  0  0  0  0  0  0  0
   41.1190   32.9360   37.9900 C   0  0  0  0  0  0  0  0  0  0  0  0
   42.0500   33.4390   37.7820 H   0  0  0  0  0  0  0  0  0  0  0  0
   40.1440   33.2910   38.8460 N   0  0  0  0  0  0  0  0  0  0  0  0
   40.2600   34.1740   39.4170 H   0  0  0  0  0  0  0  0  0  0  0  0
   39.1330   32.4370   38.8480 N   0  0  0  0  0  0  0  0  0  0  0  0
  1 13  1  0  0  0  0
  2  1  1  0  0  0  0
  2  7  1  0  0  0  0
  3  2  2  0  0  0  0
  4  5  2  0  0  0  0
  4  3  1  0  0  0  0
  5  6  1  0  0  0  0
  6 25  1  0  0  0  0
  6  1  2  0  0  0  0
  8  3  1  0  0  0  0
  9  4  1  0  0  0  0
 10  5  1  0  0  0  0
 11 16  1  0  0  0  0
 11 19  1  0  0  0  0
 12 11  2  0  0  0  0
 13 14  2  0  0  0  0
 13 12  1  0  0  0  0
 14 15  1  0  0  0  0
 15 18  1  0  0  0  0
 15 16  2  0  0  0  0
 17 12  1  0  0  0  0
 19 21  1  0  0  0  0
 19 20  1  0  0  0  0
 22 19  1  0  0  0  0
 23 27  1  0  0  0  0
 24 23  2  0  0  0  0
 25 26  1  0  0  0  0
 25 23  1  0  0  0  0
 27 34  2  0  0  0  0
 28 27  1  0  0  0  0
 28 30  2  0  0  0  0
 29 28  1  0  0  0  0
 30 32  1  0  0  0  0
 31 30  1  0  0  0  0
 32 34  1  0  0  0  0
 32 33  1  0  0  0  0
M  END
>  <minimizedAffinity>
-5.75790787

$$$$

 OpenBabel03252502293D

 34 36  0  0  0  0  0  0  0  0999 V2000
   36.9920   26.8870   41.0280 C   0  0  0  0  0  0  0  0  0  0  0  0
   37.0020   26.2770   42.2780 C   0  0  0  0  0  0  0  0  0  0  0  0
   36.9190   24.8830   42.3340 C   0  0  0  0  0  0  0  0  0  0  0  0
   36.8290   24.1550   41.1670 C   0  0  0  0  0  0  0  0  0  0  0  0
   36.8180   24.7490   39.9260 C   0  0  0  0  0  0  0  0  0  0  0  0
   36.9030   26.1410   39.8980 C   0  0  0  0  0  0  0  0  0  0  0  0
   37.0720   26.8520   43.1930 H   0  0  0  0  0  0  0  0  0  0  0  0
   36.9210   24.3440   43.2610 H   0  0  0  0  0  0  0  0  0  0  0  0
   36.7610   23.0730   41.1380 H   0  0  0  0  0  0  0  0  0  0  0  0
   36.7520   24.2560   38.9680 H   0  0  0  0  0  0  0  0  0  0  0  0
   38.1600   30.4630   41.3570 C   0  0  0  0  0  0  0  0  0  0  0  0
   38.2070   29.0570   41.3860 C   0  0  0  0  0  0  0  0  0  0  0  0
   37.0810   28.3300   41.0410 C   0  0  0  0  0  0  0  0  0  0  0  0
   35.9860   29.0530   40.6910 N   0  0  0  0  0  0  0  0  0  0  0  0
   35.9450   30.4020   40.6640 C   0  0  0  0  0  0  0  0  0  0  0  0
   37.0460   31.1110   41.0010 N   0  0  0  0  0  0  0  0  0  0  0  0
   39.0820   28.5170   41.6660 H   0  0  0  0  0  0  0  0  0  0  0  0
   35.0460   30.9300   40.3760 H   0  0  0  0  0  0  0  0  0  0  0  0
   39.3660   31.2410   41.7270 C   0  0  0  0  0  0  0  0  0  0  0  0
   39.1070   32.5760   41.4320 F   0  0  0  0  0  0  0  0  0  0  0  0
   40.3720   30.8640   40.8430 F   0  0  0  0  0  0  0  0  0  0  0  0
   39.7130   31.1060   43.0430 F   0  0  0  0  0  0  0  0  0  0  0  0
   35.9450   27.1520   37.6720 C   0  0  0  0  0  0  0  0  0  0  0  0
   34.7660   26.7610   37.6840 O   0  0  0  0  0  0  0  0  0  0  0  0
   36.9020   26.8730   38.6910 N   0  0  0  0  0  0  0  0  0  0  0  0
   37.8850   27.2780   38.5980 H   0  0  0  0  0  0  0  0  0  0  0  0
   36.3910   27.9550   36.5350 C   0  0  0  0  0  0  0  0  0  0  0  0
   35.6920   29.0380   36.0870 C   0  0  0  0  0  0  0  0  0  0  0  0
   34.7570   29.4860   36.4410 H   0  0  0  0  0  0  0  0  0  0  0  0
   36.3600   29.5990   34.9930 C   0  0  0  0  0  0  0  0  0  0  0  0
   36.0750   30.4610   34.4120 H   0  0  0  0  0  0  0  0  0  0  0  0
   37.4370   28.8060   34.8500 N   0  0  0  0  0  0  0  0  0  0  0  0
   38.1270   29.0130   34.0750 H   0  0  0  0  0  0  0  0  0  0  0  0
   37.4750   27.8320   35.7460 N   0  0  0  0  0  0  0  0  0  0  0  0
  1 13  1  0  0  0  0
  1  2  1  0  0  0  0
  2  3  2  0  0  0  0
  2  7  1  0  0  0  0
  3  8  1  0  0  0  0
  4  3  1  0  0  0  0
  5  4  2  0  0  0  0
  6  5  1  0  0  0  0
  6  1  2  0  0  0  0
  9  4  1  0  0  0  0
 10  5  1  0  0  0  0
 11 12  1  0  0  0  0
 11 19  1  0  0  0  0
 12 17  1  0  0  0  0
 13 12  2  0  0  0  0
 14 13  1  0  0  0  0
 15 14  2  0  0  0  0
 15 16  1  0  0  0  0
 16 11  2  0  0  0  0
 18 15  1  0  0  0  0
 19 22  1  0  0  0  0
 20 19  1  0  0  0  0
 21 19  1  0  0  0  0
 23 24  2  0  0  0  0
 23 25  1  0  0  0  0
 25  6  1  0  0  0  0
 26 25  1  0  0  0  0
 27 23  1  0  0  0  0
 28 29  1  0  0  0  0
 28 27  1  0  0  0  0
 30 28  2  0  0  0  0
 31 30  1  0  0  0  0
 32 30  1  0  0  0  0
 32 34  1  0  0  0  0
 33 32  1  0  0  0  0
 34 27  2  0  0  0  0
M  END
>  <minimizedAffinity>
-5.74374771

$$$$

 OpenBabel03252502293D

 34 36  0  0  0  0  0  0  0  0999 V2000
   37.6900   29.3040   41.6200 C   0  0  0  0  0  0  0  0  0  0  0  0
   37.7560   29.2520   43.0080 C   0  0  0  0  0  0  0  0  0  0  0  0
   37.4300   28.0480   43.6410 C   0  0  0  0  0  0  0  0  0  0  0  0
   37.0560   26.9580   42.8850 C   0  0  0  0  0  0  0  0  0  0  0  0
   36.9870   27.0000   41.5120 C   0  0  0  0  0  0  0  0  0  0  0  0
   37.3170   28.2120   40.9060 C   0  0  0  0  0  0  0  0  0  0  0  0
   38.0510   30.1100   43.5990 H   0  0  0  0  0  0  0  0  0  0  0  0
   37.4580   27.9340   44.7070 H   0  0  0  0  0  0  0  0  0  0  0  0
   36.7900   25.9960   43.3110 H   0  0  0  0  0  0  0  0  0  0  0  0
   36.7050   26.1960   40.8490 H   0  0  0  0  0  0  0  0  0  0  0  0
   39.5280   32.3310   40.3110 C   0  0  0  0  0  0  0  0  0  0  0  0
   39.3250   31.0730   40.9070 C   0  0  0  0  0  0  0  0  0  0  0  0
   38.0400   30.5770   41.0300 C   0  0  0  0  0  0  0  0  0  0  0  0
   37.0450   31.3670   40.5500 N   0  0  0  0  0  0  0  0  0  0  0  0
   37.2430   32.5730   39.9790 C   0  0  0  0  0  0  0  0  0  0  0  0
   38.5010   33.0580   39.8590 N   0  0  0  0  0  0  0  0  0  0  0  0
   40.1280   30.4750   41.2750 H   0  0  0  0  0  0  0  0  0  0  0  0
   36.4150   33.1640   39.6120 H   0  0  0  0  0  0  0  0  0  0  0  0
   40.9060   32.8630   40.1800 C   0  0  0  0  0  0  0  0  0  0  0  0
   40.8070   34.1580   39.6830 F   0  0  0  0  0  0  0  0  0  0  0  0
   41.5210   32.1330   39.1670 F   0  0  0  0  0  0  0  0  0  0  0  0
   41.6010   32.8590   41.3580 F   0  0  0  0  0  0  0  0  0  0  0  0
   38.2450   28.3120   38.4520 C   0  0  0  0  0  0  0  0  0  0  0  0
   39.4400   28.0090   38.6030 O   0  0  0  0  0  0  0  0  0  0  0  0
   37.2880   28.3880   39.5050 N   0  0  0  0  0  0  0  0  0  0  0  0
   36.2780   28.6330   39.2660 H   0  0  0  0  0  0  0  0  0  0  0  0
   37.7780   28.6140   37.1000 C   0  0  0  0  0  0  0  0  0  0  0  0
   36.8450   29.5770   36.8470 C   0  0  0  0  0  0  0  0  0  0  0  0
   36.3080   30.2520   37.5230 H   0  0  0  0  0  0  0  0  0  0  0  0
   36.6020   29.6350   35.4700 C   0  0  0  0  0  0  0  0  0  0  0  0
   35.9240   30.2850   34.9420 H   0  0  0  0  0  0  0  0  0  0  0  0
   37.4180   28.6880   34.9730 N   0  0  0  0  0  0  0  0  0  0  0  0
   37.4320   28.5200   33.9280 H   0  0  0  0  0  0  0  0  0  0  0  0
   38.1190   28.0750   35.9140 N   0  0  0  0  0  0  0  0  0  0  0  0
  1  2  1  0  0  0  0
  2  7  1  0  0  0  0
  2  3  2  0  0  0  0
  3  8  1  0  0  0  0
  4  9  1  0  0  0  0
  4  3  1  0  0  0  0
  5  4  2  0  0  0  0
  6  5  1  0  0  0  0
  6  1  2  0  0  0  0
 10  5  1  0  0  0  0
 11 12  1  0  0  0  0
 12 13  2  0  0  0  0
 12 17  1  0  0  0  0
 13  1  1  0  0  0  0
 14 13  1  0  0  0  0
 15 14  2  0  0  0  0
 16 15  1  0  0  0  0
 16 11  2  0  0  0  0
 18 15  1  0  0  0  0
 19 11  1  0  0  0  0
 19 22  1  0  0  0  0
 20 19  1  0  0  0  0
 21 19  1  0  0  0  0
 23 24  2  0  0  0  0
 23 25  1  0  0  0  0
 25  6  1  0  0  0  0
 26 25  1  0  0  0  0
 27 23  1  0  0  0  0
 28 27  1  0  0  0  0
 28 29  1  0  0  0  0
 30 28  2  0  0  0  0
 31 30  1  0  0  0  0
 32 30  1  0  0  0  0
 32 34  1  0  0  0  0
 33 32  1  0  0  0  0
 34 27  2  0  0  0  0
M  END
>  <minimizedAffinity>
-5.66449356

$$$$

 OpenBabel03252502293D

 34 36  0  0  0  0  0  0  0  0999 V2000
   36.8180   28.6280   39.9270 C   0  0  0  0  0  0  0  0  0  0  0  0
   35.7460   27.9550   39.3500 C   0  0  0  0  0  0  0  0  0  0  0  0
   35.1730   28.4930   38.1930 C   0  0  0  0  0  0  0  0  0  0  0  0
   35.6760   29.6610   37.6600 C   0  0  0  0  0  0  0  0  0  0  0  0
   36.7350   30.3330   38.2230 C   0  0  0  0  0  0  0  0  0  0  0  0
   37.2890   29.7750   39.3760 C   0  0  0  0  0  0  0  0  0  0  0  0
   35.3530   27.0380   39.7710 H   0  0  0  0  0  0  0  0  0  0  0  0
   34.3440   28.0300   37.6940 H   0  0  0  0  0  0  0  0  0  0  0  0
   35.2790   30.1320   36.7670 H   0  0  0  0  0  0  0  0  0  0  0  0
   37.1880   31.2470   37.8710 H   0  0  0  0  0  0  0  0  0  0  0  0
   38.3640   26.2570   42.4260 C   0  0  0  0  0  0  0  0  0  0  0  0
   37.8600   26.7290   41.2000 C   0  0  0  0  0  0  0  0  0  0  0  0
   37.3640   28.0180   41.1180 C   0  0  0  0  0  0  0  0  0  0  0  0
   37.4030   28.7480   42.2630 N   0  0  0  0  0  0  0  0  0  0  0  0
   37.8870   28.2920   43.4370 C   0  0  0  0  0  0  0  0  0  0  0  0
   38.3720   27.0320   43.5160 N   0  0  0  0  0  0  0  0  0  0  0  0
   37.8420   26.1310   40.3180 H   0  0  0  0  0  0  0  0  0  0  0  0
   37.8960   28.9160   44.3210 H   0  0  0  0  0  0  0  0  0  0  0  0
   38.8950   24.8760   42.5130 C   0  0  0  0  0  0  0  0  0  0  0  0
   39.7370   24.6840   41.4220 F   0  0  0  0  0  0  0  0  0  0  0  0
   37.8200   24.0190   42.2970 F   0  0  0  0  0  0  0  0  0  0  0  0
   39.5670   24.6290   43.6790 F   0  0  0  0  0  0  0  0  0  0  0  0
   38.6500   31.6420   40.6240 C   0  0  0  0  0  0  0  0  0  0  0  0
   37.8450   32.5880   40.6530 O   0  0  0  0  0  0  0  0  0  0  0  0
   38.3800   30.3650   40.0510 N   0  0  0  0  0  0  0  0  0  0  0  0
   39.1310   29.6090   40.1010 H   0  0  0  0  0  0  0  0  0  0  0  0
   39.9700   31.8450   41.2170 C   0  0  0  0  0  0  0  0  0  0  0  0
   40.4730   31.0190   42.1790 C   0  0  0  0  0  0  0  0  0  0  0  0
   40.0470   30.1300   42.6580 H   0  0  0  0  0  0  0  0  0  0  0  0
   41.7480   31.4630   42.5500 C   0  0  0  0  0  0  0  0  0  0  0  0
   42.4140   31.0350   43.2810 H   0  0  0  0  0  0  0  0  0  0  0  0
   41.9330   32.5460   41.7730 N   0  0  0  0  0  0  0  0  0  0  0  0
   42.8410   33.0850   41.8550 H   0  0  0  0  0  0  0  0  0  0  0  0
   40.9010   32.7890   40.9820 N   0  0  0  0  0  0  0  0  0  0  0  0
  1 13  1  0  0  0  0
  2  7  1  0  0  0  0
  2  1  2  0  0  0  0
  3  2  1  0  0  0  0
  4  3  2  0  0  0  0
  4  5  1  0  0  0  0
  5  6  2  0  0  0  0
  6  1  1  0  0  0  0
  6 25  1  0  0  0  0
  8  3  1  0  0  0  0
  9  4  1  0  0  0  0
 10  5  1  0  0  0  0
 11 19  1  0  0  0  0
 11 16  1  0  0  0  0
 12 11  2  0  0  0  0
 13 12  1  0  0  0  0
 13 14  2  0  0  0  0
 14 15  1  0  0  0  0
 15 16  2  0  0  0  0
 15 18  1  0  0  0  0
 17 12  1  0  0  0  0
 19 22  1  0  0  0  0
 20 19  1  0  0  0  0
 21 19  1  0  0  0  0
 23 24  2  0  0  0  0
 23 27  1  0  0  0  0
 25 26  1  0  0  0  0
 25 23  1  0  0  0  0
 27 28  1  0  0  0  0
 28 30  2  0  0  0  0
 28 29  1  0  0  0  0
 30 31  1  0  0  0  0
 32 33  1  0  0  0  0
 32 30  1  0  0  0  0
 34 27  2  0  0  0  0
 34 32  1  0  0  0  0
M  END
>  <minimizedAffinity>
-5.64466619

$$$$

 OpenBabel03252502293D

 34 36  0  0  0  0  0  0  0  0999 V2000
   37.4940   31.6760   39.9230 C   0  0  0  0  0  0  0  0  0  0  0  0
   37.2270   32.9900   39.5530 C   0  0  0  0  0  0  0  0  0  0  0  0
   38.1110   33.9880   39.9770 C   0  0  0  0  0  0  0  0  0  0  0  0
   39.2080   33.6510   40.7400 C   0  0  0  0  0  0  0  0  0  0  0  0
   39.4800   32.3550   41.1110 C   0  0  0  0  0  0  0  0  0  0  0  0
   38.5840   31.3790   40.6750 C   0  0  0  0  0  0  0  0  0  0  0  0
   36.3650   33.2510   38.9540 H   0  0  0  0  0  0  0  0  0  0  0  0
   37.9690   35.0220   39.7300 H   0  0  0  0  0  0  0  0  0  0  0  0
   39.9320   34.3750   41.1010 H   0  0  0  0  0  0  0  0  0  0  0  0
   40.3130   32.0080   41.7030 H   0  0  0  0  0  0  0  0  0  0  0  0
   35.4270   29.3240   37.8120 C   0  0  0  0  0  0  0  0  0  0  0  0
   36.3960   30.2920   38.1370 C   0  0  0  0  0  0  0  0  0  0  0  0
   36.5430   30.6940   39.4530 C   0  0  0  0  0  0  0  0  0  0  0  0
   35.7160   30.1050   40.3540 N   0  0  0  0  0  0  0  0  0  0  0  0
   34.7880   29.1770   40.0390 C   0  0  0  0  0  0  0  0  0  0  0  0
   34.6450   28.7850   38.7530 N   0  0  0  0  0  0  0  0  0  0  0  0
   37.0310   30.7370   37.4060 H   0  0  0  0  0  0  0  0  0  0  0  0
   34.1540   28.7380   40.7970 H   0  0  0  0  0  0  0  0  0  0  0  0
   35.2690   28.8940   36.4030 C   0  0  0  0  0  0  0  0  0  0  0  0
   33.9990   29.2810   35.9880 F   0  0  0  0  0  0  0  0  0  0  0  0
   35.2390   27.5020   36.4100 F   0  0  0  0  0  0  0  0  0  0  0  0
   36.2200   29.4170   35.5690 F   0  0  0  0  0  0  0  0  0  0  0  0
   38.7090   29.2280   42.1770 C   0  0  0  0  0  0  0  0  0  0  0  0
   38.4660   29.6760   43.3090 O   0  0  0  0  0  0  0  0  0  0  0  0
   38.7470   30.0110   40.9860 N   0  0  0  0  0  0  0  0  0  0  0  0
   38.9400   29.5250   40.0560 H   0  0  0  0  0  0  0  0  0  0  0  0
   38.9770   27.7970   42.0460 C   0  0  0  0  0  0  0  0  0  0  0  0
   38.8190   26.9280   43.0850 C   0  0  0  0  0  0  0  0  0  0  0  0
   38.4950   27.0940   44.1190 H   0  0  0  0  0  0  0  0  0  0  0  0
   39.1490   25.6350   42.6610 C   0  0  0  0  0  0  0  0  0  0  0  0
   39.1310   24.7230   43.2340 H   0  0  0  0  0  0  0  0  0  0  0  0
   39.4900   25.8130   41.3720 N   0  0  0  0  0  0  0  0  0  0  0  0
   39.7900   24.9730   40.8010 H   0  0  0  0  0  0  0  0  0  0  0  0
   39.3970   27.0770   40.9900 N   0  0  0  0  0  0  0  0  0  0  0  0
  1  6  1  0  0  0  0
  2  1  2  0  0  0  0
  2  3  1  0  0  0  0
  3  4  2  0  0  0  0
  4  9  1  0  0  0  0
  4  5  1  0  0  0  0
  5 10  1  0  0  0  0
  6 25  1  0  0  0  0
  6  5  2  0  0  0  0
  7  2  1  0  0  0  0
  8  3  1  0  0  0  0
 11 12  2  0  0  0  0
 11 16  1  0  0  0  0
 12 13  1  0  0  0  0
 13  1  1  0  0  0  0
 13 14  2  0  0  0  0
 15 14  1  0  0  0  0
 15 18  1  0  0  0  0
 16 15  2  0  0  0  0
 17 12  1  0  0  0  0
 19 21  1  0  0  0  0
 19 11  1  0  0  0  0
 20 19  1  0  0  0  0
 22 19  1  0  0  0  0
 23 24  2  0  0  0  0
 25 23  1  0  0  0  0
 26 25  1  0  0  0  0
 27 23  1  0  0  0  0
 27 28  1  0  0  0  0
 28 29  1  0  0  0  0
 30 28  2  0  0  0  0
 30 31  1  0  0  0  0
 32 30  1  0  0  0  0
 33 32  1  0  0  0  0
 34 32  1  0  0  0  0
 34 27  2  0  0  0  0
M  END
>  <minimizedAffinity>
-5.52226305

$$$$

 OpenBabel03252502293D

 34 36  0  0  0  0  0  0  0  0999 V2000
   35.8270   27.7590   38.8210 C   0  0  0  0  0  0  0  0  0  0  0  0
   34.8840   27.8150   37.7990 C   0  0  0  0  0  0  0  0  0  0  0  0
   34.5030   26.6180   37.1850 C   0  0  0  0  0  0  0  0  0  0  0  0
   35.0610   25.4280   37.6000 C   0  0  0  0  0  0  0  0  0  0  0  0
   35.9940   25.3620   38.6090 C   0  0  0  0  0  0  0  0  0  0  0  0
   36.3570   26.5700   39.2050 C   0  0  0  0  0  0  0  0  0  0  0  0
   34.4470   28.7510   37.4760 H   0  0  0  0  0  0  0  0  0  0  0  0
   33.7820   26.5840   36.3920 H   0  0  0  0  0  0  0  0  0  0  0  0
   34.8110   24.4650   37.1680 H   0  0  0  0  0  0  0  0  0  0  0  0
   36.4780   24.4770   38.9920 H   0  0  0  0  0  0  0  0  0  0  0  0
   37.0170   31.2900   39.4310 C   0  0  0  0  0  0  0  0  0  0  0  0
   36.7220   30.1040   38.7330 C   0  0  0  0  0  0  0  0  0  0  0  0
   36.1760   29.0310   39.4130 C   0  0  0  0  0  0  0  0  0  0  0  0
   35.9610   29.2110   40.7410 N   0  0  0  0  0  0  0  0  0  0  0  0
   36.2450   30.3490   41.4080 C   0  0  0  0  0  0  0  0  0  0  0  0
   36.7790   31.3990   40.7420 N   0  0  0  0  0  0  0  0  0  0  0  0
   36.9040   29.9930   37.6880 H   0  0  0  0  0  0  0  0  0  0  0  0
   36.0530   30.4410   42.4690 H   0  0  0  0  0  0  0  0  0  0  0  0
   37.6030   32.4400   38.7020 C   0  0  0  0  0  0  0  0  0  0  0  0
   36.8410   33.5620   39.0120 F   0  0  0  0  0  0  0  0  0  0  0  0
   37.3770   32.2120   37.3480 F   0  0  0  0  0  0  0  0  0  0  0  0
   38.9180   32.6610   39.0090 F   0  0  0  0  0  0  0  0  0  0  0  0
   37.5120   25.9510   41.4800 C   0  0  0  0  0  0  0  0  0  0  0  0
   36.8110   25.0130   41.8920 O   0  0  0  0  0  0  0  0  0  0  0  0
   37.3030   26.6420   40.2510 N   0  0  0  0  0  0  0  0  0  0  0  0
   37.9790   27.4200   39.9760 H   0  0  0  0  0  0  0  0  0  0  0  0
   38.6350   26.3850   42.3090 C   0  0  0  0  0  0  0  0  0  0  0  0
   39.0830   27.6730   42.3160 C   0  0  0  0  0  0  0  0  0  0  0  0
   38.7390   28.5570   41.7670 H   0  0  0  0  0  0  0  0  0  0  0  0
   40.1620   27.7830   43.2010 C   0  0  0  0  0  0  0  0  0  0  0  0
   40.7400   28.6610   43.4380 H   0  0  0  0  0  0  0  0  0  0  0  0
   40.2960   26.5320   43.6790 N   0  0  0  0  0  0  0  0  0  0  0  0
   41.0590   26.3330   44.3850 H   0  0  0  0  0  0  0  0  0  0  0  0
   39.4090   25.6940   43.1670 N   0  0  0  0  0  0  0  0  0  0  0  0
  1  6  1  0  0  0  0
  1 13  1  0  0  0  0
  2  1  2  0  0  0  0
  3  4  2  0  0  0  0
  3  2  1  0  0  0  0
  4  5  1  0  0  0  0
  5 10  1  0  0  0  0
  5  6  2  0  0  0  0
  6 25  1  0  0  0  0
  7  2  1  0  0  0  0
  8  3  1  0  0  0  0
  9  4  1  0  0  0  0
 11 16  1  0  0  0  0
 12 13  1  0  0  0  0
 12 11  2  0  0  0  0
 13 14  2  0  0  0  0
 14 15  1  0  0  0  0
 15 18  1  0  0  0  0
 16 15  2  0  0  0  0
 17 12  1  0  0  0  0
 19 22  1  0  0  0  0
 19 20  1  0  0  0  0
 19 11  1  0  0  0  0
 21 19  1  0  0  0  0
 23 24  2  0  0  0  0
 23 27  1  0  0  0  0
 25 23  1  0  0  0  0
 26 25  1  0  0  0  0
 27 28  1  0  0  0  0
 27 34  2  0  0  0  0
 28 30  2  0  0  0  0
 29 28  1  0  0  0  0
 30 31  1  0  0  0  0
 30 32  1  0  0  0  0
 32 33  1  0  0  0  0
 34 32  1  0  0  0  0
M  END
>  <minimizedAffinity>
-5.50513268

$$$$

 OpenBabel03252502293D

 34 36  0  0  0  0  0  0  0  0999 V2000
   36.2780   29.3730   37.0270 C   0  0  0  0  0  0  0  0  0  0  0  0
   35.9300   29.4830   35.6850 C   0  0  0  0  0  0  0  0  0  0  0  0
   34.5940   29.2780   35.3290 C   0  0  0  0  0  0  0  0  0  0  0  0
   33.6650   28.9760   36.3020 C   0  0  0  0  0  0  0  0  0  0  0  0
   33.9990   28.8640   37.6310 C   0  0  0  0  0  0  0  0  0  0  0  0
   35.3390   29.0730   37.9600 C   0  0  0  0  0  0  0  0  0  0  0  0
   36.6620   29.7220   34.9230 H   0  0  0  0  0  0  0  0  0  0  0  0
   34.2530   29.3470   34.3150 H   0  0  0  0  0  0  0  0  0  0  0  0
   32.6140   28.8040   36.0950 H   0  0  0  0  0  0  0  0  0  0  0  0
   33.3380   28.6310   38.4520 H   0  0  0  0  0  0  0  0  0  0  0  0
   39.6120   30.9000   37.9290 C   0  0  0  0  0  0  0  0  0  0  0  0
   38.2330   30.8180   37.6600 C   0  0  0  0  0  0  0  0  0  0  0  0
   37.6740   29.5970   37.3270 C   0  0  0  0  0  0  0  0  0  0  0  0
   38.5270   28.5410   37.2840 N   0  0  0  0  0  0  0  0  0  0  0  0
   39.8490   28.6230   37.5420 C   0  0  0  0  0  0  0  0  0  0  0  0
   40.3940   29.8170   37.8680 N   0  0  0  0  0  0  0  0  0  0  0  0
   37.5880   31.6670   37.7020 H   0  0  0  0  0  0  0  0  0  0  0  0
   40.4850   27.7490   37.4950 H   0  0  0  0  0  0  0  0  0  0  0  0
   40.2100   32.2080   38.2860 C   0  0  0  0  0  0  0  0  0  0  0  0
   41.1590   31.9760   39.2760 F   0  0  0  0  0  0  0  0  0  0  0  0
   39.2100   32.9480   38.9100 F   0  0  0  0  0  0  0  0  0  0  0  0
   40.7830   32.8480   37.2210 F   0  0  0  0  0  0  0  0  0  0  0  0
   36.3000   27.9450   40.1280 C   0  0  0  0  0  0  0  0  0  0  0  0
   36.4330   26.7610   39.7790 O   0  0  0  0  0  0  0  0  0  0  0  0
   35.8130   28.9890   39.2870 N   0  0  0  0  0  0  0  0  0  0  0  0
   35.7610   29.9810   39.6760 H   0  0  0  0  0  0  0  0  0  0  0  0
   36.6660   28.3030   41.4970 C   0  0  0  0  0  0  0  0  0  0  0  0
   36.7910   27.3730   42.4860 C   0  0  0  0  0  0  0  0  0  0  0  0
   36.6610   26.2850   42.4700 H   0  0  0  0  0  0  0  0  0  0  0  0
   37.1480   28.0110   43.6790 C   0  0  0  0  0  0  0  0  0  0  0  0
   37.3250   27.5650   44.6440 H   0  0  0  0  0  0  0  0  0  0  0  0
   37.2160   29.3080   43.3260 N   0  0  0  0  0  0  0  0  0  0  0  0
   37.4730   30.0260   44.0590 H   0  0  0  0  0  0  0  0  0  0  0  0
   36.9360   29.5020   42.0470 N   0  0  0  0  0  0  0  0  0  0  0  0
  1 13  1  0  0  0  0
  1  6  1  0  0  0  0
  2  1  2  0  0  0  0
  3  2  1  0  0  0  0
  3  4  2  0  0  0  0
  4  5  1  0  0  0  0
  5  6  2  0  0  0  0
  5 10  1  0  0  0  0
  6 25  1  0  0  0  0
  7  2  1  0  0  0  0
  8  3  1  0  0  0  0
  9  4  1  0  0  0  0
 11 19  1  0  0  0  0
 12 17  1  0  0  0  0
 12 11  2  0  0  0  0
 13 12  1  0  0  0  0
 14 13  2  0  0  0  0
 14 15  1  0  0  0  0
 15 16  2  0  0  0  0
 16 11  1  0  0  0  0
 18 15  1  0  0  0  0
 19 21  1  0  0  0  0
 19 20  1  0  0  0  0
 22 19  1  0  0  0  0
 23 27  1  0  0  0  0
 24 23  2  0  0  0  0
 25 26  1  0  0  0  0
 25 23  1  0  0  0  0
 27 34  2  0  0  0  0
 27 28  1  0  0  0  0
 28 30  2  0  0  0  0
 29 28  1  0  0  0  0
 30 31  1  0  0  0  0
 32 30  1  0  0  0  0
 32 33  1  0  0  0  0
 34 32  1  0  0  0  0
M  END
>  <minimizedAffinity>
-5.48734188

$$$$

 OpenBabel03252502293D

 34 36  0  0  0  0  0  0  0  0999 V2000
   36.4950   27.9780   38.8050 C   0  0  0  0  0  0  0  0  0  0  0  0
   35.8630   26.8410   38.3120 C   0  0  0  0  0  0  0  0  0  0  0  0
   34.7330   27.0090   37.5060 C   0  0  0  0  0  0  0  0  0  0  0  0
   34.2770   28.2790   37.2240 C   0  0  0  0  0  0  0  0  0  0  0  0
   34.8940   29.4090   37.7070 C   0  0  0  0  0  0  0  0  0  0  0  0
   36.0190   29.2140   38.5080 C   0  0  0  0  0  0  0  0  0  0  0  0
   36.2250   25.8450   38.5350 H   0  0  0  0  0  0  0  0  0  0  0  0
   34.1960   26.1790   37.0910 H   0  0  0  0  0  0  0  0  0  0  0  0
   33.4080   28.4810   36.6070 H   0  0  0  0  0  0  0  0  0  0  0  0
   34.6040   30.4340   37.5350 H   0  0  0  0  0  0  0  0  0  0  0  0
   38.8360   27.0540   41.6200 C   0  0  0  0  0  0  0  0  0  0  0  0
   37.6280   27.2460   40.9250 C   0  0  0  0  0  0  0  0  0  0  0  0
   37.6570   27.7340   39.6300 C   0  0  0  0  0  0  0  0  0  0  0  0
   38.8860   27.9970   39.1170 N   0  0  0  0  0  0  0  0  0  0  0  0
   40.0430   27.8110   39.7860 C   0  0  0  0  0  0  0  0  0  0  0  0
   40.0140   27.3340   41.0520 N   0  0  0  0  0  0  0  0  0  0  0  0
   36.6770   27.0310   41.3550 H   0  0  0  0  0  0  0  0  0  0  0  0
   40.9970   28.0360   39.3300 H   0  0  0  0  0  0  0  0  0  0  0  0
   38.8060   26.5310   43.0070 C   0  0  0  0  0  0  0  0  0  0  0  0
   37.7780   27.1880   43.6760 F   0  0  0  0  0  0  0  0  0  0  0  0
   39.9750   26.9660   43.6230 F   0  0  0  0  0  0  0  0  0  0  0  0
   38.6220   25.1770   43.0700 F   0  0  0  0  0  0  0  0  0  0  0  0
   36.7360   30.9820   40.3120 C   0  0  0  0  0  0  0  0  0  0  0  0
   35.9980   30.7030   41.2710 O   0  0  0  0  0  0  0  0  0  0  0  0
   36.7450   30.2890   39.0670 N   0  0  0  0  0  0  0  0  0  0  0  0
   37.4380   30.5910   38.3140 H   0  0  0  0  0  0  0  0  0  0  0  0
   37.6660   32.0990   40.4640 C   0  0  0  0  0  0  0  0  0  0  0  0
   37.5230   33.2670   39.7740 C   0  0  0  0  0  0  0  0  0  0  0  0
   36.7700   33.5830   39.0440 H   0  0  0  0  0  0  0  0  0  0  0  0
   38.5580   34.1410   40.1250 C   0  0  0  0  0  0  0  0  0  0  0  0
   38.7340   35.1410   39.7630 H   0  0  0  0  0  0  0  0  0  0  0  0
   39.2700   33.4320   41.0190 N   0  0  0  0  0  0  0  0  0  0  0  0
   40.1290   33.8710   41.4540 H   0  0  0  0  0  0  0  0  0  0  0  0
   38.7640   32.2280   41.2330 N   0  0  0  0  0  0  0  0  0  0  0  0
  1 13  1  0  0  0  0
  2  7  1  0  0  0  0
  2  1  2  0  0  0  0
  3  2  1  0  0  0  0
  4  3  2  0  0  0  0
  4  5  1  0  0  0  0
  5  6  2  0  0  0  0
  6  1  1  0  0  0  0
  6 25  1  0  0  0  0
  8  3  1  0  0  0  0
  9  4  1  0  0  0  0
 10  5  1  0  0  0  0
 11 19  1  0  0  0  0
 12 17  1  0  0  0  0
 12 11  2  0  0  0  0
 13 12  1  0  0  0  0
 14 13  2  0  0  0  0
 14 15  1  0  0  0  0
 15 16  2  0  0  0  0
 16 11  1  0  0  0  0
 18 15  1  0  0  0  0
 19 22  1  0  0  0  0
 19 21  1  0  0  0  0
 19 20  1  0  0  0  0
 23 27  1  0  0  0  0
 23 24  2  0  0  0  0
 25 23  1  0  0  0  0
 26 25  1  0  0  0  0
 27 34  2  0  0  0  0
 28 30  2  0  0  0  0
 28 27  1  0  0  0  0
 29 28  1  0  0  0  0
 30 32  1  0  0  0  0
 31 30  1  0  0  0  0
 32 34  1  0  0  0  0
 32 33  1  0  0  0  0
M  END
>  <minimizedAffinity>
-5.48494148

$$$$
