
 OpenBabel03252508283D

 38 41  0  0  1  0  0  0  0  0999 V2000
   41.6190   33.0310   39.5130 N   0  0  0  0  0  0  0  0  0  0  0  0
   41.9740   32.5520   40.8520 C   0  0  2  0  0  0  0  0  0  0  0  0
   40.8620   32.6900   41.8260 C   0  0  0  0  0  0  0  0  0  0  0  0
   39.6020   33.0270   41.1840 N   0  0  0  0  0  0  0  0  0  0  0  0
   39.6580   34.1180   40.2830 C   0  0  0  0  0  0  0  0  0  0  0  0
   41.0470   34.3750   39.7500 C   0  0  2  0  0  0  0  0  0  0  0  0
   40.9220   32.4160   39.0540 H   0  0  0  0  0  0  0  0  0  0  0  0
   42.2860   31.4860   40.7840 H   0  0  0  0  0  0  0  0  0  0  0  0
   40.6610   31.7030   42.3340 H   0  0  0  0  0  0  0  0  0  0  0  0
   40.9360   33.5090   42.5610 H   0  0  0  0  0  0  0  0  0  0  0  0
   39.2810   32.1700   40.6470 H   0  0  0  0  0  0  0  0  0  0  0  0
   39.3160   35.0550   40.7880 H   0  0  0  0  0  0  0  0  0  0  0  0
   38.9360   33.9460   39.4440 H   0  0  0  0  0  0  0  0  0  0  0  0
   41.6410   34.8390   40.5380 H   0  0  0  0  0  0  0  0  0  0  0  0
   41.0260   35.1850   38.5210 C   0  0  0  0  0  0  0  0  0  0  0  0
   41.8620   36.1940   38.1400 C   0  0  0  0  0  0  0  0  0  0  0  0
   42.7090   36.5850   38.6900 H   0  0  0  0  0  0  0  0  0  0  0  0
   41.4650   36.6680   36.9030 C   0  0  0  0  0  0  0  0  0  0  0  0
   41.9010   37.4690   36.2970 H   0  0  0  0  0  0  0  0  0  0  0  0
   40.3900   35.9380   36.5510 N   0  0  0  0  0  0  0  0  0  0  0  0
   39.7980   35.9950   35.6770 H   0  0  0  0  0  0  0  0  0  0  0  0
   40.1350   35.0590   37.5160 N   0  0  0  0  0  0  0  0  0  0  0  0
   45.1410   33.9810   41.8240 C   0  0  0  0  0  0  0  0  0  0  0  0
   44.2100   34.9780   42.1260 C   0  0  0  0  0  0  0  0  0  0  0  0
   42.9340   34.5480   41.8040 C   0  0  0  0  0  0  0  0  0  0  0  0
   43.1130   33.3240   41.3170 N   0  0  0  0  0  0  0  0  0  0  0  0
   44.3970   32.9930   41.3290 N   0  0  0  0  0  0  0  0  0  0  0  0
   44.5850   35.9250   42.5590 H   0  0  0  0  0  0  0  0  0  0  0  0
   42.2090   35.3190   42.0460 H   0  0  0  0  0  0  0  0  0  0  0  0
   48.7300   35.0890   41.9050 C   0  0  0  0  0  0  0  0  0  0  0  0
   47.3360   35.1390   41.6010 C   0  0  0  0  0  0  0  0  0  0  0  0
   46.5830   34.0810   42.0470 C   0  0  0  0  0  0  0  0  0  0  0  0
   47.1750   33.0630   42.7380 N   0  0  0  0  0  0  0  0  0  0  0  0
   48.5020   33.0570   43.0050 C   0  0  0  0  0  0  0  0  0  0  0  0
   49.2480   34.0670   42.5830 N   0  0  0  0  0  0  0  0  0  0  0  0
   49.3260   35.9300   41.5490 H   0  0  0  0  0  0  0  0  0  0  0  0
   46.8670   35.9430   41.0560 H   0  0  0  0  0  0  0  0  0  0  0  0
   48.8640   32.2020   43.5580 H   0  0  0  0  0  0  0  0  0  0  0  0
  1  6  1  0  0  0  0
  1  2  1  0  0  0  0
  2  8  1  6  0  0  0
  2 26  1  0  0  0  0
  2  3  1  0  0  0  0
  3  9  1  0  0  0  0
  3 10  1  0  0  0  0
  4  3  1  0  0  0  0
  5 12  1  0  0  0  0
  5  4  1  0  0  0  0
  6  5  1  0  0  0  0
  6 14  1  1  0  0  0
  7  1  1  0  0  0  0
 11  4  1  0  0  0  0
 13  5  1  0  0  0  0
 15  6  1  0  0  0  0
 16 15  1  0  0  0  0
 16 17  1  0  0  0  0
 18 16  2  0  0  0  0
 19 18  1  0  0  0  0
 20 18  1  0  0  0  0
 20 22  1  0  0  0  0
 21 20  1  0  0  0  0
 22 15  2  0  0  0  0
 23 32  1  0  0  0  0
 23 24  1  0  0  0  0
 24 28  1  0  0  0  0
 25 29  1  0  0  0  0
 25 24  2  0  0  0  0
 26 27  1  0  0  0  0
 26 25  1  0  0  0  0
 27 23  2  0  0  0  0
 30 35  1  0  0  0  0
 31 30  2  0  0  0  0
 31 32  1  0  0  0  0
 32 33  2  0  0  0  0
 33 34  1  0  0  0  0
 34 38  1  0  0  0  0
 35 34  2  0  0  0  0
 36 30  1  0  0  0  0
 37 31  1  0  0  0  0
M  END
>  <minimizedAffinity>
-4.62946653

>  <minimizedRMSD>
1.86254191

$$$$
