
 OpenBabel03242520133D

 33 35  0  0  0  0  0  0  0  0999 V2000
   39.7850   30.4260   41.9410 C   0  0  0  0  0  0  0  0  0  0  0  0
   40.9750   29.7960   42.0460 C   0  0  0  0  0  0  0  0  0  0  0  0
   41.0520   28.5860   42.7110 C   0  0  0  0  0  0  0  0  0  0  0  0
   39.9150   28.0330   43.2600 C   0  0  0  0  0  0  0  0  0  0  0  0
   38.6860   28.7080   43.1360 C   0  0  0  0  0  0  0  0  0  0  0  0
   38.6720   29.8460   42.5000 N   0  0  0  0  0  0  0  0  0  0  0  0
   41.8710   30.2310   41.6160 H   0  0  0  0  0  0  0  0  0  0  0  0
   41.9760   28.0270   42.8330 H   0  0  0  0  0  0  0  0  0  0  0  0
   39.9100   27.0910   43.7890 H   0  0  0  0  0  0  0  0  0  0  0  0
   38.2000   33.2370   40.2430 C   0  0  0  0  0  0  0  0  0  0  0  0
   39.3140   34.0910   40.0060 C   0  0  0  0  0  0  0  0  0  0  0  0
   40.6070   33.6900   40.4350 C   0  0  0  0  0  0  0  0  0  0  0  0
   40.6540   32.4950   41.0470 N   0  0  0  0  0  0  0  0  0  0  0  0
   39.5990   31.7010   41.2630 C   0  0  0  0  0  0  0  0  0  0  0  0
   38.3780   32.0780   40.8610 N   0  0  0  0  0  0  0  0  0  0  0  0
   36.9260   33.6700   39.8020 N   0  0  0  0  0  0  0  0  0  0  0  0
   39.1530   35.0360   39.5000 H   0  0  0  0  0  0  0  0  0  0  0  0
   41.4460   34.3260   40.2600 H   0  0  0  0  0  0  0  0  0  0  0  0
   36.2850   32.9710   39.3730 H   0  0  0  0  0  0  0  0  0  0  0  0
   36.5110   34.6410   39.8480 H   0  0  0  0  0  0  0  0  0  0  0  0
   37.4730   28.1480   43.7040 C   0  0  0  0  0  3  0  0  0  0  0  0
   36.6400   27.3790   43.0050 C   0  0  0  0  0  3  0  0  0  0  0  0
   36.8880   27.0330   41.5890 C   0  0  0  0  0  0  0  0  0  0  0  0
   35.9450   26.9400   41.0110 H   0  0  0  0  0  0  0  0  0  0  0  0
   37.5010   27.7970   41.0790 H   0  0  0  0  0  0  0  0  0  0  0  0
   37.5710   25.7130   41.5580 C   0  0  0  0  0  0  0  0  0  0  0  0
   38.7690   25.3340   40.9870 C   0  0  0  0  0  0  0  0  0  0  0  0
   39.4180   26.0040   40.4450 H   0  0  0  0  0  0  0  0  0  0  0  0
   38.9050   23.9840   41.2710 C   0  0  0  0  0  0  0  0  0  0  0  0
   39.7380   23.3640   40.9690 H   0  0  0  0  0  0  0  0  0  0  0  0
   37.8200   23.5820   41.9870 N   0  0  0  0  0  0  0  0  0  0  0  0
   37.6120   22.6210   42.3610 H   0  0  0  0  0  0  0  0  0  0  0  0
   37.0250   24.6280   42.1540 N   0  0  0  0  0  0  0  0  0  0  0  0
  1  2  2  0  0  0  0
  1  6  1  0  0  0  0
  2  3  1  0  0  0  0
  3  8  1  0  0  0  0
  3  4  2  0  0  0  0
  4  9  1  0  0  0  0
  5  4  1  0  0  0  0
  5 21  1  0  0  0  0
  6  5  2  0  0  0  0
  7  2  1  0  0  0  0
 10 15  1  0  0  0  0
 11 10  2  0  0  0  0
 11 12  1  0  0  0  0
 12 13  2  0  0  0  0
 13 14  1  0  0  0  0
 14  1  1  0  0  0  0
 15 14  2  0  0  0  0
 16 20  1  0  0  0  0
 16 10  1  0  0  0  0
 17 11  1  0  0  0  0
 18 12  1  0  0  0  0
 19 16  1  0  0  0  0
 22 21  2  0  0  0  0
 23 22  1  0  0  0  0
 24 23  1  0  0  0  0
 25 23  1  0  0  0  0
 26 23  1  0  0  0  0
 26 33  2  0  0  0  0
 27 29  2  0  0  0  0
 27 26  1  0  0  0  0
 28 27  1  0  0  0  0
 29 31  1  0  0  0  0
 30 29  1  0  0  0  0
 31 33  1  0  0  0  0
 31 32  1  0  0  0  0
M  END
>  <minimizedAffinity>
-6.04418993

$$$$

 OpenBabel03242520133D

 33 35  0  0  0  0  0  0  0  0999 V2000
   37.7530   30.2770   40.5450 C   0  0  0  0  0  0  0  0  0  0  0  0
   36.6460   29.8670   39.8900 C   0  0  0  0  0  0  0  0  0  0  0  0
   35.8380   28.8950   40.4510 C   0  0  0  0  0  0  0  0  0  0  0  0
   36.1700   28.3530   41.6750 C   0  0  0  0  0  0  0  0  0  0  0  0
   37.3290   28.7960   42.3390 C   0  0  0  0  0  0  0  0  0  0  0  0
   38.0530   29.7150   41.7630 N   0  0  0  0  0  0  0  0  0  0  0  0
   36.3840   30.2920   38.9270 H   0  0  0  0  0  0  0  0  0  0  0  0
   34.9350   28.5180   39.9790 H   0  0  0  0  0  0  0  0  0  0  0  0
   35.5810   27.5920   42.1660 H   0  0  0  0  0  0  0  0  0  0  0  0
   39.7920   32.2610   38.2640 C   0  0  0  0  0  0  0  0  0  0  0  0
   40.3730   33.2080   39.1530 C   0  0  0  0  0  0  0  0  0  0  0  0
   40.0570   33.1560   40.5370 C   0  0  0  0  0  0  0  0  0  0  0  0
   39.2050   32.1770   40.8850 N   0  0  0  0  0  0  0  0  0  0  0  0
   38.6660   31.2920   40.0390 C   0  0  0  0  0  0  0  0  0  0  0  0
   38.9620   31.3390   38.7330 N   0  0  0  0  0  0  0  0  0  0  0  0
   40.1300   32.3430   36.8920 N   0  0  0  0  0  0  0  0  0  0  0  0
   41.0500   33.9550   38.7550 H   0  0  0  0  0  0  0  0  0  0  0  0
   40.4900   33.8640   41.2080 H   0  0  0  0  0  0  0  0  0  0  0  0
   40.2940   31.4600   36.3660 H   0  0  0  0  0  0  0  0  0  0  0  0
   40.2440   33.2080   36.2950 H   0  0  0  0  0  0  0  0  0  0  0  0
   37.7020   28.2430   43.6290 C   0  0  0  0  0  3  0  0  0  0  0  0
   38.5660   27.2370   43.7570 C   0  0  0  0  0  3  0  0  0  0  0  0
   39.2150   26.6020   42.5900 C   0  0  0  0  0  0  0  0  0  0  0  0
   38.6620   25.7050   42.2420 H   0  0  0  0  0  0  0  0  0  0  0  0
   39.2810   27.2920   41.7300 H   0  0  0  0  0  0  0  0  0  0  0  0
   40.5720   26.1630   43.0110 C   0  0  0  0  0  0  0  0  0  0  0  0
   41.5010   26.7750   43.8280 C   0  0  0  0  0  0  0  0  0  0  0  0
   41.3480   27.7300   44.3070 H   0  0  0  0  0  0  0  0  0  0  0  0
   42.5860   25.9140   43.8670 C   0  0  0  0  0  0  0  0  0  0  0  0
   43.4990   26.0850   44.4210 H   0  0  0  0  0  0  0  0  0  0  0  0
   42.3040   24.8290   43.0960 N   0  0  0  0  0  0  0  0  0  0  0  0
   42.9110   23.9910   42.9120 H   0  0  0  0  0  0  0  0  0  0  0  0
   41.0910   24.9890   42.5860 N   0  0  0  0  0  0  0  0  0  0  0  0
  1  6  1  0  0  0  0
  2  3  1  0  0  0  0
  2  1  2  0  0  0  0
  3  4  2  0  0  0  0
  4  9  1  0  0  0  0
  4  5  1  0  0  0  0
  5 21  1  0  0  0  0
  6  5  2  0  0  0  0
  7  2  1  0  0  0  0
  8  3  1  0  0  0  0
 10 15  2  0  0  0  0
 10 11  1  0  0  0  0
 11 12  2  0  0  0  0
 12 13  1  0  0  0  0
 12 18  1  0  0  0  0
 14  1  1  0  0  0  0
 14 13  2  0  0  0  0
 15 14  1  0  0  0  0
 16 10  1  0  0  0  0
 17 11  1  0  0  0  0
 19 16  1  0  0  0  0
 20 16  1  0  0  0  0
 21 22  2  0  0  0  0
 23 26  1  0  0  0  0
 23 22  1  0  0  0  0
 24 23  1  0  0  0  0
 25 23  1  0  0  0  0
 26 27  1  0  0  0  0
 27 29  2  0  0  0  0
 27 28  1  0  0  0  0
 29 30  1  0  0  0  0
 31 29  1  0  0  0  0
 32 31  1  0  0  0  0
 33 26  2  0  0  0  0
 33 31  1  0  0  0  0
M  END
>  <minimizedAffinity>
-5.99614477

$$$$

 OpenBabel03242520133D

 33 35  0  0  0  0  0  0  0  0999 V2000
   39.3500   32.3780   39.5980 C   0  0  0  0  0  0  0  0  0  0  0  0
   38.2550   33.0250   40.0520 C   0  0  0  0  0  0  0  0  0  0  0  0
   37.0630   32.3390   40.1940 C   0  0  0  0  0  0  0  0  0  0  0  0
   37.0020   31.0000   39.8710 C   0  0  0  0  0  0  0  0  0  0  0  0
   38.1570   30.3460   39.4010 C   0  0  0  0  0  0  0  0  0  0  0  0
   39.2530   31.0430   39.2870 N   0  0  0  0  0  0  0  0  0  0  0  0
   38.3020   34.0790   40.3050 H   0  0  0  0  0  0  0  0  0  0  0  0
   36.1460   32.7980   40.5510 H   0  0  0  0  0  0  0  0  0  0  0  0
   36.1030   30.4080   39.9600 H   0  0  0  0  0  0  0  0  0  0  0  0
   42.2300   33.9570   38.0140 C   0  0  0  0  0  0  0  0  0  0  0  0
   43.0790   34.1860   39.1320 C   0  0  0  0  0  0  0  0  0  0  0  0
   42.6520   33.7940   40.4290 C   0  0  0  0  0  0  0  0  0  0  0  0
   41.4370   33.2210   40.4740 N   0  0  0  0  0  0  0  0  0  0  0  0
   40.6480   33.0100   39.4140 C   0  0  0  0  0  0  0  0  0  0  0  0
   41.0490   33.3800   38.1900 N   0  0  0  0  0  0  0  0  0  0  0  0
   42.6890   34.3610   36.7370 N   0  0  0  0  0  0  0  0  0  0  0  0
   44.0420   34.6590   38.9730 H   0  0  0  0  0  0  0  0  0  0  0  0
   43.2850   33.9640   41.2710 H   0  0  0  0  0  0  0  0  0  0  0  0
   42.5060   33.7380   35.9230 H   0  0  0  0  0  0  0  0  0  0  0  0
   43.2120   35.2420   36.4770 H   0  0  0  0  0  0  0  0  0  0  0  0
   38.1210   28.9370   39.0540 C   0  0  0  0  0  3  0  0  0  0  0  0
   38.6260   27.9890   39.8430 C   0  0  0  0  0  3  0  0  0  0  0  0
   39.2640   28.3010   41.1400 C   0  0  0  0  0  0  0  0  0  0  0  0
   40.0760   27.5860   41.3880 H   0  0  0  0  0  0  0  0  0  0  0  0
   39.7130   29.3100   41.1460 H   0  0  0  0  0  0  0  0  0  0  0  0
   38.2230   28.1880   42.1950 C   0  0  0  0  0  0  0  0  0  0  0  0
   37.3970   27.1350   42.5340 C   0  0  0  0  0  0  0  0  0  0  0  0
   37.4030   26.1780   42.0350 H   0  0  0  0  0  0  0  0  0  0  0  0
   36.6270   27.5920   43.5920 C   0  0  0  0  0  0  0  0  0  0  0  0
   35.8690   27.0180   44.1060 H   0  0  0  0  0  0  0  0  0  0  0  0
   36.9890   28.8750   43.8670 N   0  0  0  0  0  0  0  0  0  0  0  0
   36.6020   29.5110   44.6100 H   0  0  0  0  0  0  0  0  0  0  0  0
   37.9480   29.2230   43.0220 N   0  0  0  0  0  0  0  0  0  0  0  0
  1  2  1  0  0  0  0
  2  3  2  0  0  0  0
  2  7  1  0  0  0  0
  3  8  1  0  0  0  0
  4  9  1  0  0  0  0
  4  3  1  0  0  0  0
  5  4  2  0  0  0  0
  6  5  1  0  0  0  0
  6  1  2  0  0  0  0
 10 15  2  0  0  0  0
 10 11  1  0  0  0  0
 11 12  2  0  0  0  0
 12 13  1  0  0  0  0
 12 18  1  0  0  0  0
 14  1  1  0  0  0  0
 14 13  2  0  0  0  0
 15 14  1  0  0  0  0
 16 10  1  0  0  0  0
 17 11  1  0  0  0  0
 19 16  1  0  0  0  0
 20 16  1  0  0  0  0
 21  5  1  0  0  0  0
 21 22  2  0  0  0  0
 22 23  1  0  0  0  0
 23 25  1  0  0  0  0
 23 24  1  0  0  0  0
 23 26  1  0  0  0  0
 26 27  1  0  0  0  0
 26 33  2  0  0  0  0
 27 29  2  0  0  0  0
 28 27  1  0  0  0  0
 29 31  1  0  0  0  0
 29 30  1  0  0  0  0
 31 32  1  0  0  0  0
 33 31  1  0  0  0  0
M  END
>  <minimizedAffinity>
-5.96342564

$$$$

 OpenBabel03242520133D

 33 35  0  0  0  0  0  0  0  0999 V2000
   37.6790   30.5350   40.3880 C   0  0  0  0  0  0  0  0  0  0  0  0
   36.5780   30.1940   39.6850 C   0  0  0  0  0  0  0  0  0  0  0  0
   35.7010   29.2550   40.1960 C   0  0  0  0  0  0  0  0  0  0  0  0
   35.9580   28.6740   41.4200 C   0  0  0  0  0  0  0  0  0  0  0  0
   37.1120   29.0460   42.1350 C   0  0  0  0  0  0  0  0  0  0  0  0
   37.9040   29.9360   41.6040 N   0  0  0  0  0  0  0  0  0  0  0  0
   36.3750   30.6500   38.7210 H   0  0  0  0  0  0  0  0  0  0  0  0
   34.7990   28.9350   39.6830 H   0  0  0  0  0  0  0  0  0  0  0  0
   35.3140   27.9360   41.8730 H   0  0  0  0  0  0  0  0  0  0  0  0
   39.9520   32.4070   38.2380 C   0  0  0  0  0  0  0  0  0  0  0  0
   40.4930   33.3540   39.1520 C   0  0  0  0  0  0  0  0  0  0  0  0
   40.0680   33.3410   40.5080 C   0  0  0  0  0  0  0  0  0  0  0  0
   39.1610   32.3960   40.8060 N   0  0  0  0  0  0  0  0  0  0  0  0
   38.6600   31.5100   39.9370 C   0  0  0  0  0  0  0  0  0  0  0  0
   39.0590   31.5220   38.6580 N   0  0  0  0  0  0  0  0  0  0  0  0
   40.3980   32.4500   36.8950 N   0  0  0  0  0  0  0  0  0  0  0  0
   41.2230   34.0720   38.7950 H   0  0  0  0  0  0  0  0  0  0  0  0
   40.4700   34.0490   41.1980 H   0  0  0  0  0  0  0  0  0  0  0  0
   40.5750   31.5520   36.4010 H   0  0  0  0  0  0  0  0  0  0  0  0
   40.5870   33.2990   36.2940 H   0  0  0  0  0  0  0  0  0  0  0  0
   37.4070   28.4500   43.4260 C   0  0  0  0  0  3  0  0  0  0  0  0
   38.2960   27.4690   43.5790 C   0  0  0  0  0  3  0  0  0  0  0  0
   39.0530   26.9070   42.4410 C   0  0  0  0  0  0  0  0  0  0  0  0
   38.9970   27.5550   41.5410 H   0  0  0  0  0  0  0  0  0  0  0  0
   40.1240   26.7830   42.6800 H   0  0  0  0  0  0  0  0  0  0  0  0
   38.4420   25.5960   42.0940 C   0  0  0  0  0  0  0  0  0  0  0  0
   37.2470   25.2980   41.4730 C   0  0  0  0  0  0  0  0  0  0  0  0
   36.5430   26.0400   41.1300 H   0  0  0  0  0  0  0  0  0  0  0  0
   37.1940   23.9150   41.4120 C   0  0  0  0  0  0  0  0  0  0  0  0
   36.3860   23.3390   40.9830 H   0  0  0  0  0  0  0  0  0  0  0  0
   38.3250   23.4140   41.9810 N   0  0  0  0  0  0  0  0  0  0  0  0
   38.5990   22.4060   42.0960 H   0  0  0  0  0  0  0  0  0  0  0  0
   39.0680   24.4330   42.3870 N   0  0  0  0  0  0  0  0  0  0  0  0
  1  6  1  0  0  0  0
  2  3  1  0  0  0  0
  2  1  2  0  0  0  0
  3  4  2  0  0  0  0
  4  9  1  0  0  0  0
  4  5  1  0  0  0  0
  5 21  1  0  0  0  0
  6  5  2  0  0  0  0
  7  2  1  0  0  0  0
  8  3  1  0  0  0  0
 10 15  2  0  0  0  0
 10 11  1  0  0  0  0
 11 12  2  0  0  0  0
 12 13  1  0  0  0  0
 12 18  1  0  0  0  0
 14  1  1  0  0  0  0
 14 13  2  0  0  0  0
 15 14  1  0  0  0  0
 16 10  1  0  0  0  0
 17 11  1  0  0  0  0
 19 16  1  0  0  0  0
 20 16  1  0  0  0  0
 21 22  2  0  0  0  0
 23 25  1  0  0  0  0
 23 22  1  0  0  0  0
 24 23  1  0  0  0  0
 26 33  2  0  0  0  0
 26 23  1  0  0  0  0
 27 26  1  0  0  0  0
 28 27  1  0  0  0  0
 29 27  2  0  0  0  0
 29 31  1  0  0  0  0
 30 29  1  0  0  0  0
 31 32  1  0  0  0  0
 31 33  1  0  0  0  0
M  END
>  <minimizedAffinity>
-5.95704222

$$$$

 OpenBabel03242520133D

 33 35  0  0  0  0  0  0  0  0999 V2000
   37.2470   30.7820   40.9060 C   0  0  0  0  0  0  0  0  0  0  0  0
   36.2150   30.3450   40.1520 C   0  0  0  0  0  0  0  0  0  0  0  0
   35.5810   29.1600   40.4780 C   0  0  0  0  0  0  0  0  0  0  0  0
   36.0080   28.4340   41.5700 C   0  0  0  0  0  0  0  0  0  0  0  0
   37.0860   28.9100   42.3410 C   0  0  0  0  0  0  0  0  0  0  0  0
   37.6460   30.0330   41.9860 N   0  0  0  0  0  0  0  0  0  0  0  0
   35.8780   30.9150   39.2920 H   0  0  0  0  0  0  0  0  0  0  0  0
   34.7470   28.7510   39.9160 H   0  0  0  0  0  0  0  0  0  0  0  0
   35.5560   27.5030   41.8770 H   0  0  0  0  0  0  0  0  0  0  0  0
   39.9370   33.2400   40.7710 C   0  0  0  0  0  0  0  0  0  0  0  0
   39.2900   34.3340   40.1310 C   0  0  0  0  0  0  0  0  0  0  0  0
   37.9270   34.2170   39.7500 C   0  0  0  0  0  0  0  0  0  0  0  0
   37.3590   33.0350   40.0420 N   0  0  0  0  0  0  0  0  0  0  0  0
   37.9770   32.0130   40.6450 C   0  0  0  0  0  0  0  0  0  0  0  0
   39.2630   32.1220   41.0050 N   0  0  0  0  0  0  0  0  0  0  0  0
   41.2960   33.3930   41.1370 N   0  0  0  0  0  0  0  0  0  0  0  0
   39.8530   35.2420   39.9470 H   0  0  0  0  0  0  0  0  0  0  0  0
   37.4370   35.0340   39.2700 H   0  0  0  0  0  0  0  0  0  0  0  0
   41.6100   33.0100   42.0520 H   0  0  0  0  0  0  0  0  0  0  0  0
   42.0730   33.8590   40.5930 H   0  0  0  0  0  0  0  0  0  0  0  0
   37.5560   28.1660   43.4960 C   0  0  0  0  0  3  0  0  0  0  0  0
   38.4460   27.1790   43.4020 C   0  0  0  0  0  3  0  0  0  0  0  0
   39.0270   26.7620   42.1080 C   0  0  0  0  0  0  0  0  0  0  0  0
   38.7580   27.4580   41.2860 H   0  0  0  0  0  0  0  0  0  0  0  0
   40.1310   26.7230   42.1450 H   0  0  0  0  0  0  0  0  0  0  0  0
   38.4700   25.4250   41.7720 C   0  0  0  0  0  0  0  0  0  0  0  0
   37.2640   25.0720   41.2020 C   0  0  0  0  0  0  0  0  0  0  0  0
   36.5070   25.7800   40.9020 H   0  0  0  0  0  0  0  0  0  0  0  0
   37.2810   23.6880   41.1250 C   0  0  0  0  0  0  0  0  0  0  0  0
   36.4840   23.0760   40.7260 H   0  0  0  0  0  0  0  0  0  0  0  0
   38.4610   23.2420   41.6330 N   0  0  0  0  0  0  0  0  0  0  0  0
   38.7920   22.2480   41.7220 H   0  0  0  0  0  0  0  0  0  0  0  0
   39.1680   24.2930   42.0190 N   0  0  0  0  0  0  0  0  0  0  0  0
  1  6  1  0  0  0  0
  2  3  1  0  0  0  0
  2  1  2  0  0  0  0
  3  4  2  0  0  0  0
  4  9  1  0  0  0  0
  4  5  1  0  0  0  0
  5 21  1  0  0  0  0
  6  5  2  0  0  0  0
  7  2  1  0  0  0  0
  8  3  1  0  0  0  0
 10 15  1  0  0  0  0
 10 16  1  0  0  0  0
 11 10  2  0  0  0  0
 12 13  2  0  0  0  0
 12 11  1  0  0  0  0
 13 14  1  0  0  0  0
 14  1  1  0  0  0  0
 14 15  2  0  0  0  0
 16 19  1  0  0  0  0
 17 11  1  0  0  0  0
 18 12  1  0  0  0  0
 20 16  1  0  0  0  0
 22 21  2  0  0  0  0
 23 25  1  0  0  0  0
 23 22  1  0  0  0  0
 24 23  1  0  0  0  0
 26 33  2  0  0  0  0
 26 23  1  0  0  0  0
 27 26  1  0  0  0  0
 28 27  1  0  0  0  0
 29 27  2  0  0  0  0
 29 31  1  0  0  0  0
 30 29  1  0  0  0  0
 31 32  1  0  0  0  0
 31 33  1  0  0  0  0
M  END
>  <minimizedAffinity>
-5.93776512

$$$$

 OpenBabel03242520133D

 33 35  0  0  0  0  0  0  0  0999 V2000
   39.8290   30.4940   41.9050 C   0  0  0  0  0  0  0  0  0  0  0  0
   41.0190   29.8620   42.0000 C   0  0  0  0  0  0  0  0  0  0  0  0
   41.0980   28.6460   42.6520 C   0  0  0  0  0  0  0  0  0  0  0  0
   39.9630   28.0870   43.1990 C   0  0  0  0  0  0  0  0  0  0  0  0
   38.7340   28.7640   43.0870 C   0  0  0  0  0  0  0  0  0  0  0  0
   38.7180   29.9090   42.4610 N   0  0  0  0  0  0  0  0  0  0  0  0
   41.9140   30.3010   41.5700 H   0  0  0  0  0  0  0  0  0  0  0  0
   42.0220   28.0850   42.7660 H   0  0  0  0  0  0  0  0  0  0  0  0
   39.9590   27.1410   43.7200 H   0  0  0  0  0  0  0  0  0  0  0  0
   38.2440   33.3110   40.2180 C   0  0  0  0  0  0  0  0  0  0  0  0
   39.3530   34.1780   40.0090 C   0  0  0  0  0  0  0  0  0  0  0  0
   40.6430   33.7840   40.4520 C   0  0  0  0  0  0  0  0  0  0  0  0
   40.6920   32.5810   41.0500 N   0  0  0  0  0  0  0  0  0  0  0  0
   39.6420   31.7750   41.2400 C   0  0  0  0  0  0  0  0  0  0  0  0
   38.4230   32.1460   40.8240 N   0  0  0  0  0  0  0  0  0  0  0  0
   36.9730   33.7380   39.7630 N   0  0  0  0  0  0  0  0  0  0  0  0
   39.1910   35.1280   39.5120 H   0  0  0  0  0  0  0  0  0  0  0  0
   41.4790   34.4300   40.2980 H   0  0  0  0  0  0  0  0  0  0  0  0
   36.3450   33.0390   39.3150 H   0  0  0  0  0  0  0  0  0  0  0  0
   36.5480   34.7040   39.8150 H   0  0  0  0  0  0  0  0  0  0  0  0
   37.5220   28.1990   43.6540 C   0  0  0  0  0  3  0  0  0  0  0  0
   36.6980   27.4190   42.9560 C   0  0  0  0  0  3  0  0  0  0  0  0
   36.9550   27.0650   41.5440 C   0  0  0  0  0  0  0  0  0  0  0  0
   38.0390   26.9660   41.3290 H   0  0  0  0  0  0  0  0  0  0  0  0
   36.4840   26.1040   41.2680 H   0  0  0  0  0  0  0  0  0  0  0  0
   36.4230   28.1660   40.6980 C   0  0  0  0  0  0  0  0  0  0  0  0
   36.9250   28.7360   39.5450 C   0  0  0  0  0  0  0  0  0  0  0  0
   37.8440   28.4290   39.0700 H   0  0  0  0  0  0  0  0  0  0  0  0
   36.0160   29.7200   39.1910 C   0  0  0  0  0  0  0  0  0  0  0  0
   36.1010   30.3670   38.3290 H   0  0  0  0  0  0  0  0  0  0  0  0
   35.0100   29.7290   40.1080 N   0  0  0  0  0  0  0  0  0  0  0  0
   34.1630   30.3510   40.1320 H   0  0  0  0  0  0  0  0  0  0  0  0
   35.2650   28.7910   41.0080 N   0  0  0  0  0  0  0  0  0  0  0  0
  1  2  2  0  0  0  0
  1  6  1  0  0  0  0
  2  3  1  0  0  0  0
  3  8  1  0  0  0  0
  3  4  2  0  0  0  0
  4  9  1  0  0  0  0
  5  4  1  0  0  0  0
  5 21  1  0  0  0  0
  6  5  2  0  0  0  0
  7  2  1  0  0  0  0
 10 15  1  0  0  0  0
 11 10  2  0  0  0  0
 11 12  1  0  0  0  0
 12 13  2  0  0  0  0
 13 14  1  0  0  0  0
 14  1  1  0  0  0  0
 15 14  2  0  0  0  0
 16 20  1  0  0  0  0
 16 10  1  0  0  0  0
 17 11  1  0  0  0  0
 18 12  1  0  0  0  0
 19 16  1  0  0  0  0
 22 21  2  0  0  0  0
 23 22  1  0  0  0  0
 24 23  1  0  0  0  0
 25 23  1  0  0  0  0
 26 33  2  0  0  0  0
 26 23  1  0  0  0  0
 27 26  1  0  0  0  0
 28 27  1  0  0  0  0
 29 27  2  0  0  0  0
 29 31  1  0  0  0  0
 30 29  1  0  0  0  0
 31 32  1  0  0  0  0
 31 33  1  0  0  0  0
M  END
>  <minimizedAffinity>
-5.90496922

$$$$

 OpenBabel03242520133D

 33 35  0  0  0  0  0  0  0  0999 V2000
   37.8270   30.7680   40.6250 C   0  0  0  0  0  0  0  0  0  0  0  0
   37.1350   30.5440   39.4870 C   0  0  0  0  0  0  0  0  0  0  0  0
   36.9660   31.5690   38.5740 C   0  0  0  0  0  0  0  0  0  0  0  0
   37.5050   32.8110   38.8340 C   0  0  0  0  0  0  0  0  0  0  0  0
   38.2220   33.0210   40.0260 C   0  0  0  0  0  0  0  0  0  0  0  0
   38.3500   32.0180   40.8510 N   0  0  0  0  0  0  0  0  0  0  0  0
   36.7100   29.5670   39.2820 H   0  0  0  0  0  0  0  0  0  0  0  0
   36.4210   31.4580   37.6410 H   0  0  0  0  0  0  0  0  0  0  0  0
   37.4090   33.6520   38.1620 H   0  0  0  0  0  0  0  0  0  0  0  0
   37.2240   28.2510   43.1930 C   0  0  0  0  0  0  0  0  0  0  0  0
   38.5520   27.8760   43.5410 C   0  0  0  0  0  0  0  0  0  0  0  0
   39.6490   28.4950   42.8850 C   0  0  0  0  0  0  0  0  0  0  0  0
   39.3110   29.4130   41.9630 N   0  0  0  0  0  0  0  0  0  0  0  0
   38.0580   29.7570   41.6460 C   0  0  0  0  0  0  0  0  0  0  0  0
   37.0220   29.1730   42.2620 N   0  0  0  0  0  0  0  0  0  0  0  0
   36.1550   27.6120   43.8670 N   0  0  0  0  0  0  0  0  0  0  0  0
   38.7020   27.1200   44.3040 H   0  0  0  0  0  0  0  0  0  0  0  0
   40.6470   28.2190   43.1420 H   0  0  0  0  0  0  0  0  0  0  0  0
   35.3330   28.1840   44.1490 H   0  0  0  0  0  0  0  0  0  0  0  0
   36.0650   26.5930   44.1360 H   0  0  0  0  0  0  0  0  0  0  0  0
   38.8010   34.3180   40.3250 C   0  0  0  0  0  3  0  0  0  0  0  0
   40.1080   34.4980   40.5090 C   0  0  0  0  0  3  0  0  0  0  0  0
   41.0770   33.3840   40.4230 C   0  0  0  0  0  0  0  0  0  0  0  0
   41.9610   33.5480   41.0730 H   0  0  0  0  0  0  0  0  0  0  0  0
   40.6270   32.4230   40.7300 H   0  0  0  0  0  0  0  0  0  0  0  0
   41.5550   33.3090   39.0160 C   0  0  0  0  0  0  0  0  0  0  0  0
   41.7300   32.2220   38.1840 C   0  0  0  0  0  0  0  0  0  0  0  0
   41.5250   31.2020   38.4710 H   0  0  0  0  0  0  0  0  0  0  0  0
   42.1980   32.7420   36.9880 C   0  0  0  0  0  0  0  0  0  0  0  0
   42.4420   32.1620   36.1080 H   0  0  0  0  0  0  0  0  0  0  0  0
   42.2950   34.0930   37.1130 N   0  0  0  0  0  0  0  0  0  0  0  0
   42.6150   34.7880   36.3920 H   0  0  0  0  0  0  0  0  0  0  0  0
   41.9060   34.4230   38.3350 N   0  0  0  0  0  0  0  0  0  0  0  0
  1  6  1  0  0  0  0
  1 14  1  0  0  0  0
  2  1  2  0  0  0  0
  3  4  2  0  0  0  0
  3  2  1  0  0  0  0
  4  5  1  0  0  0  0
  5 21  1  0  0  0  0
  5  6  2  0  0  0  0
  7  2  1  0  0  0  0
  8  3  1  0  0  0  0
  9  4  1  0  0  0  0
 10 11  1  0  0  0  0
 10 16  1  0  0  0  0
 11 17  1  0  0  0  0
 12 18  1  0  0  0  0
 12 11  2  0  0  0  0
 13 12  1  0  0  0  0
 14 13  2  0  0  0  0
 14 15  1  0  0  0  0
 15 10  2  0  0  0  0
 16 20  1  0  0  0  0
 16 19  1  0  0  0  0
 21 22  2  0  0  0  0
 23 22  1  0  0  0  0
 23 25  1  0  0  0  0
 23 24  1  0  0  0  0
 26 23  1  0  0  0  0
 27 28  1  0  0  0  0
 27 26  1  0  0  0  0
 29 31  1  0  0  0  0
 29 27  2  0  0  0  0
 30 29  1  0  0  0  0
 31 33  1  0  0  0  0
 32 31  1  0  0  0  0
 33 26  2  0  0  0  0
M  END
>  <minimizedAffinity>
-5.88216829

$$$$

 OpenBabel03242520133D

 33 35  0  0  0  0  0  0  0  0999 V2000
   38.1480   26.5060   41.9500 C   0  0  0  0  0  0  0  0  0  0  0  0
   37.0300   26.4570   42.7050 C   0  0  0  0  0  0  0  0  0  0  0  0
   36.7120   27.5210   43.5290 C   0  0  0  0  0  0  0  0  0  0  0  0
   37.5390   28.6240   43.5710 C   0  0  0  0  0  0  0  0  0  0  0  0
   38.6980   28.6530   42.7750 C   0  0  0  0  0  0  0  0  0  0  0  0
   38.9490   27.6210   42.0170 N   0  0  0  0  0  0  0  0  0  0  0  0
   36.3790   25.5900   42.6730 H   0  0  0  0  0  0  0  0  0  0  0  0
   35.8300   27.5470   44.1630 H   0  0  0  0  0  0  0  0  0  0  0  0
   37.3450   29.4870   44.1920 H   0  0  0  0  0  0  0  0  0  0  0  0
   38.5530   23.2010   40.4650 C   0  0  0  0  0  0  0  0  0  0  0  0
   39.3850   23.4910   39.3480 C   0  0  0  0  0  0  0  0  0  0  0  0
   39.8020   24.8290   39.1130 C   0  0  0  0  0  0  0  0  0  0  0  0
   39.3510   25.7250   40.0070 N   0  0  0  0  0  0  0  0  0  0  0  0
   38.5690   25.4390   41.0540 C   0  0  0  0  0  0  0  0  0  0  0  0
   38.1740   24.1790   41.2760 N   0  0  0  0  0  0  0  0  0  0  0  0
   38.1570   21.8570   40.6670 N   0  0  0  0  0  0  0  0  0  0  0  0
   39.6870   22.6820   38.6930 H   0  0  0  0  0  0  0  0  0  0  0  0
   40.4270   25.0520   38.2770 H   0  0  0  0  0  0  0  0  0  0  0  0
   38.1390   21.4840   41.6380 H   0  0  0  0  0  0  0  0  0  0  0  0
   37.8620   21.1440   39.9430 H   0  0  0  0  0  0  0  0  0  0  0  0
   39.5860   29.8010   42.8000 C   0  0  0  0  0  3  0  0  0  0  0  0
   39.4790   30.8120   41.9390 C   0  0  0  0  0  3  0  0  0  0  0  0
   38.4410   30.8440   40.8860 C   0  0  0  0  0  0  0  0  0  0  0  0
   38.7480   30.2800   39.9800 H   0  0  0  0  0  0  0  0  0  0  0  0
   37.4900   30.4020   41.2320 H   0  0  0  0  0  0  0  0  0  0  0  0
   38.2420   32.2640   40.4910 C   0  0  0  0  0  0  0  0  0  0  0  0
   39.0400   33.3720   40.6880 C   0  0  0  0  0  0  0  0  0  0  0  0
   39.9920   33.3490   41.1960 H   0  0  0  0  0  0  0  0  0  0  0  0
   38.3560   34.4300   40.1100 C   0  0  0  0  0  0  0  0  0  0  0  0
   38.7000   35.4550   40.0840 H   0  0  0  0  0  0  0  0  0  0  0  0
   37.1910   33.9580   39.5890 N   0  0  0  0  0  0  0  0  0  0  0  0
   36.4440   34.4980   39.0830 H   0  0  0  0  0  0  0  0  0  0  0  0
   37.1320   32.6560   39.8230 N   0  0  0  0  0  0  0  0  0  0  0  0
  1  6  2  0  0  0  0
  1  2  1  0  0  0  0
  2  3  2  0  0  0  0
  3  4  1  0  0  0  0
  3  8  1  0  0  0  0
  4  9  1  0  0  0  0
  5 21  1  0  0  0  0
  5  4  2  0  0  0  0
  6  5  1  0  0  0  0
  7  2  1  0  0  0  0
 10 16  1  0  0  0  0
 10 15  1  0  0  0  0
 11 10  2  0  0  0  0
 12 11  1  0  0  0  0
 12 13  2  0  0  0  0
 13 14  1  0  0  0  0
 14 15  2  0  0  0  0
 14  1  1  0  0  0  0
 16 19  1  0  0  0  0
 17 11  1  0  0  0  0
 18 12  1  0  0  0  0
 20 16  1  0  0  0  0
 22 21  2  0  0  0  0
 23 25  1  0  0  0  0
 23 22  1  0  0  0  0
 24 23  1  0  0  0  0
 26 27  1  0  0  0  0
 26 23  1  0  0  0  0
 27 28  1  0  0  0  0
 29 27  2  0  0  0  0
 30 29  1  0  0  0  0
 31 33  1  0  0  0  0
 31 29  1  0  0  0  0
 32 31  1  0  0  0  0
 33 26  2  0  0  0  0
M  END
>  <minimizedAffinity>
-5.77078009

$$$$

 OpenBabel03242520133D

 33 35  0  0  0  0  0  0  0  0999 V2000
   38.4320   30.8480   40.7550 C   0  0  0  0  0  0  0  0  0  0  0  0
   37.4330   30.6840   39.8610 C   0  0  0  0  0  0  0  0  0  0  0  0
   36.3950   29.8170   40.1450 C   0  0  0  0  0  0  0  0  0  0  0  0
   36.3880   29.1260   41.3390 C   0  0  0  0  0  0  0  0  0  0  0  0
   37.4390   29.3140   42.2550 C   0  0  0  0  0  0  0  0  0  0  0  0
   38.3920   30.1450   41.9340 N   0  0  0  0  0  0  0  0  0  0  0  0
   37.4380   31.2260   38.9210 H   0  0  0  0  0  0  0  0  0  0  0  0
   35.5620   29.6370   39.4720 H   0  0  0  0  0  0  0  0  0  0  0  0
   35.6060   28.4360   41.6200 H   0  0  0  0  0  0  0  0  0  0  0  0
   41.5300   32.6840   41.3290 C   0  0  0  0  0  0  0  0  0  0  0  0
   41.6640   33.4040   40.1090 C   0  0  0  0  0  0  0  0  0  0  0  0
   40.6820   33.2510   39.0940 C   0  0  0  0  0  0  0  0  0  0  0  0
   39.6820   32.4070   39.3980 N   0  0  0  0  0  0  0  0  0  0  0  0
   39.5670   31.7360   40.5490 C   0  0  0  0  0  0  0  0  0  0  0  0
   40.4920   31.8780   41.5080 N   0  0  0  0  0  0  0  0  0  0  0  0
   42.5280   32.8610   42.3180 N   0  0  0  0  0  0  0  0  0  0  0  0
   42.5170   34.0600   39.9760 H   0  0  0  0  0  0  0  0  0  0  0  0
   40.7770   33.7890   38.1770 H   0  0  0  0  0  0  0  0  0  0  0  0
   42.2340   32.9260   43.3140 H   0  0  0  0  0  0  0  0  0  0  0  0
   43.5740   32.9400   42.1870 H   0  0  0  0  0  0  0  0  0  0  0  0
   37.4570   28.6010   43.5200 C   0  0  0  0  0  3  0  0  0  0  0  0
   38.1730   27.4930   43.7110 C   0  0  0  0  0  3  0  0  0  0  0  0
   39.0100   26.9020   42.6440 C   0  0  0  0  0  0  0  0  0  0  0  0
   39.0940   27.5700   41.7620 H   0  0  0  0  0  0  0  0  0  0  0  0
   40.0380   26.6990   42.9930 H   0  0  0  0  0  0  0  0  0  0  0  0
   38.3530   25.6440   42.2000 C   0  0  0  0  0  0  0  0  0  0  0  0
   37.1370   25.4360   41.5810 C   0  0  0  0  0  0  0  0  0  0  0  0
   36.4500   26.2250   41.3180 H   0  0  0  0  0  0  0  0  0  0  0  0
   37.0420   24.0650   41.4020 C   0  0  0  0  0  0  0  0  0  0  0  0
   36.2080   23.5510   40.9430 H   0  0  0  0  0  0  0  0  0  0  0  0
   38.1670   23.4840   41.9010 N   0  0  0  0  0  0  0  0  0  0  0  0
   38.4130   22.4620   41.9230 H   0  0  0  0  0  0  0  0  0  0  0  0
   38.9480   24.4430   42.3780 N   0  0  0  0  0  0  0  0  0  0  0  0
  1  6  1  0  0  0  0
  2  3  1  0  0  0  0
  2  1  2  0  0  0  0
  3  4  2  0  0  0  0
  4  9  1  0  0  0  0
  4  5  1  0  0  0  0
  5 21  1  0  0  0  0
  6  5  2  0  0  0  0
  7  2  1  0  0  0  0
  8  3  1  0  0  0  0
 10 15  1  0  0  0  0
 10 16  1  0  0  0  0
 11 10  2  0  0  0  0
 12 13  2  0  0  0  0
 12 11  1  0  0  0  0
 13 14  1  0  0  0  0
 14  1  1  0  0  0  0
 14 15  2  0  0  0  0
 16 19  1  0  0  0  0
 17 11  1  0  0  0  0
 18 12  1  0  0  0  0
 20 16  1  0  0  0  0
 21 22  2  0  0  0  0
 23 25  1  0  0  0  0
 23 22  1  0  0  0  0
 24 23  1  0  0  0  0
 26 33  2  0  0  0  0
 26 23  1  0  0  0  0
 27 26  1  0  0  0  0
 28 27  1  0  0  0  0
 29 27  2  0  0  0  0
 29 31  1  0  0  0  0
 30 29  1  0  0  0  0
 31 32  1  0  0  0  0
 31 33  1  0  0  0  0
M  END
>  <minimizedAffinity>
-5.50466728

$$$$
