
 OpenBabel03252501153D

 27 29  0  0  1  0  0  0  0  0999 V2000
   38.4790   29.7070   42.4790 C   0  0  1  0  0  0  0  0  0  0  0  0
   39.6520   30.5810   42.7920 C   0  0  0  0  0  0  0  0  0  0  0  0
   39.0990   30.4040   41.3470 C   0  0  2  0  0  0  0  0  0  0  0  0
   37.4670   30.0360   42.7470 H   0  0  0  0  0  0  0  0  0  0  0  0
   39.4430   31.5420   43.2930 H   0  0  0  0  0  0  0  0  0  0  0  0
   40.6550   30.1810   42.9110 H   0  0  0  0  0  0  0  0  0  0  0  0
   39.6590   29.7880   40.6440 H   0  0  0  0  0  0  0  0  0  0  0  0
   38.2500   25.9510   42.3980 C   0  0  0  0  0  0  0  0  0  0  0  0
   37.9040   27.2770   42.1590 C   0  0  0  0  0  0  0  0  0  0  0  0
   38.7540   28.2440   42.6680 C   0  0  0  0  0  0  0  0  0  0  0  0
   39.8660   27.8610   43.3640 N   0  0  0  0  0  0  0  0  0  0  0  0
   40.1640   26.5600   43.5730 C   0  0  0  0  0  0  0  0  0  0  0  0
   39.3440   25.5990   43.0820 N   0  0  0  0  0  0  0  0  0  0  0  0
   37.0180   27.5650   41.6050 H   0  0  0  0  0  0  0  0  0  0  0  0
   41.0710   26.2960   44.1410 H   0  0  0  0  0  0  0  0  0  0  0  0
   37.3630   24.8870   41.8500 C   0  0  0  0  0  0  0  0  0  0  0  0
   36.2870   24.7630   42.7180 F   0  0  0  0  0  0  0  0  0  0  0  0
   38.0520   23.7060   41.8510 F   0  0  0  0  0  0  0  0  0  0  0  0
   36.8680   25.2370   40.6200 F   0  0  0  0  0  0  0  0  0  0  0  0
   38.4210   31.6120   40.8080 C   0  0  0  0  0  0  0  0  0  0  0  0
   38.9880   32.7730   40.3490 C   0  0  0  0  0  0  0  0  0  0  0  0
   40.0410   32.9910   40.3090 H   0  0  0  0  0  0  0  0  0  0  0  0
   37.9980   33.6170   39.9480 C   0  0  0  0  0  0  0  0  0  0  0  0
   38.0340   34.6270   39.5270 H   0  0  0  0  0  0  0  0  0  0  0  0
   36.8250   32.9780   40.1590 N   0  0  0  0  0  0  0  0  0  0  0  0
   35.8180   33.2580   39.9930 H   0  0  0  0  0  0  0  0  0  0  0  0
   37.0970   31.7800   40.6740 N   0  0  0  0  0  0  0  0  0  0  0  0
  1 10  1  0  0  0  0
  1  4  1  1  0  0  0
  1  2  1  0  0  0  0
  2  6  1  0  0  0  0
  2  5  1  0  0  0  0
  3  7  1  6  0  0  0
  3  1  1  0  0  0  0
  3  2  1  0  0  0  0
  8 13  1  0  0  0  0
  9  8  2  0  0  0  0
  9 10  1  0  0  0  0
 10 11  2  0  0  0  0
 11 12  1  0  0  0  0
 12 15  1  0  0  0  0
 13 12  2  0  0  0  0
 14  9  1  0  0  0  0
 16 18  1  0  0  0  0
 16  8  1  0  0  0  0
 16 17  1  0  0  0  0
 19 16  1  0  0  0  0
 20  3  1  0  0  0  0
 21 20  1  0  0  0  0
 22 21  1  0  0  0  0
 23 25  1  0  0  0  0
 23 21  2  0  0  0  0
 24 23  1  0  0  0  0
 25 27  1  0  0  0  0
 26 25  1  0  0  0  0
 27 20  2  0  0  0  0
M  END
>  <minimizedAffinity>
-5.39851379

$$$$

 OpenBabel03252501153D

 27 29  0  0  1  0  0  0  0  0999 V2000
   38.2900   28.4390   42.6210 C   0  0  1  0  0  0  0  0  0  0  0  0
   37.2590   27.9840   43.6030 C   0  0  0  0  0  0  0  0  0  0  0  0
   37.5860   27.1920   42.3030 C   0  0  2  0  0  0  0  0  0  0  0  0
   39.3560   28.3380   42.8630 H   0  0  0  0  0  0  0  0  0  0  0  0
   37.6240   27.5580   44.5540 H   0  0  0  0  0  0  0  0  0  0  0  0
   36.2490   28.3860   43.6090 H   0  0  0  0  0  0  0  0  0  0  0  0
   36.8800   27.2310   41.4750 H   0  0  0  0  0  0  0  0  0  0  0  0
   38.3670   31.8280   40.9840 C   0  0  0  0  0  0  0  0  0  0  0  0
   38.8280   30.7070   41.6670 C   0  0  0  0  0  0  0  0  0  0  0  0
   37.9110   29.6930   41.8890 C   0  0  0  0  0  0  0  0  0  0  0  0
   36.6290   29.8370   41.4380 N   0  0  0  0  0  0  0  0  0  0  0  0
   36.2250   30.9460   40.7790 C   0  0  0  0  0  0  0  0  0  0  0  0
   37.1080   31.9480   40.5520 N   0  0  0  0  0  0  0  0  0  0  0  0
   39.8480   30.6070   42.0180 H   0  0  0  0  0  0  0  0  0  0  0  0
   35.1810   31.0200   40.4340 H   0  0  0  0  0  0  0  0  0  0  0  0
   39.3350   32.9290   40.7170 C   0  0  0  0  0  0  0  0  0  0  0  0
   39.4670   33.0340   39.3390 F   0  0  0  0  0  0  0  0  0  0  0  0
   40.5490   32.5740   41.2370 F   0  0  0  0  0  0  0  0  0  0  0  0
   38.8640   34.1300   41.1830 F   0  0  0  0  0  0  0  0  0  0  0  0
   38.2920   25.9060   42.5420 C   0  0  0  0  0  0  0  0  0  0  0  0
   39.5510   25.7070   43.0460 C   0  0  0  0  0  0  0  0  0  0  0  0
   40.2390   26.4760   43.3540 H   0  0  0  0  0  0  0  0  0  0  0  0
   39.7980   24.3690   43.0960 C   0  0  0  0  0  0  0  0  0  0  0  0
   40.6750   23.8070   43.4320 H   0  0  0  0  0  0  0  0  0  0  0  0
   38.6940   23.7460   42.6260 N   0  0  0  0  0  0  0  0  0  0  0  0
   38.4520   22.7240   42.4890 H   0  0  0  0  0  0  0  0  0  0  0  0
   37.8030   24.6810   42.2980 N   0  0  0  0  0  0  0  0  0  0  0  0
  1  4  1  1  0  0  0
  1  2  1  0  0  0  0
  2  6  1  0  0  0  0
  2  5  1  0  0  0  0
  3  7  1  6  0  0  0
  3 20  1  0  0  0  0
  3  1  1  0  0  0  0
  3  2  1  0  0  0  0
  8  9  1  0  0  0  0
  9 10  2  0  0  0  0
  9 14  1  0  0  0  0
 10  1  1  0  0  0  0
 11 10  1  0  0  0  0
 12 11  2  0  0  0  0
 13 12  1  0  0  0  0
 13  8  2  0  0  0  0
 15 12  1  0  0  0  0
 16  8  1  0  0  0  0
 16 19  1  0  0  0  0
 16 18  1  0  0  0  0
 17 16  1  0  0  0  0
 20 21  1  0  0  0  0
 21 23  2  0  0  0  0
 21 22  1  0  0  0  0
 23 24  1  0  0  0  0
 25 23  1  0  0  0  0
 26 25  1  0  0  0  0
 27 20  2  0  0  0  0
 27 25  1  0  0  0  0
M  END
>  <minimizedAffinity>
-5.39571333

$$$$

 OpenBabel03252501153D

 27 29  0  0  1  0  0  0  0  0999 V2000
   37.6300   27.9220   42.3440 C   0  0  1  0  0  0  0  0  0  0  0  0
   36.7090   27.1540   43.2370 C   0  0  0  0  0  0  0  0  0  0  0  0
   37.5150   26.4820   42.0880 C   0  0  2  0  0  0  0  0  0  0  0  0
   38.6000   28.2640   42.7260 H   0  0  0  0  0  0  0  0  0  0  0  0
   37.0530   26.9620   44.2690 H   0  0  0  0  0  0  0  0  0  0  0  0
   35.6350   27.1240   43.0720 H   0  0  0  0  0  0  0  0  0  0  0  0
   36.9890   26.1910   41.1800 H   0  0  0  0  0  0  0  0  0  0  0  0
   35.4580   29.4070   39.6520 C   0  0  0  0  0  0  0  0  0  0  0  0
   36.0570   28.4330   40.4460 C   0  0  0  0  0  0  0  0  0  0  0  0
   36.9210   28.8790   41.4320 C   0  0  0  0  0  0  0  0  0  0  0  0
   37.1400   30.2200   41.5770 N   0  0  0  0  0  0  0  0  0  0  0  0
   36.5360   31.1320   40.7810 C   0  0  0  0  0  0  0  0  0  0  0  0
   35.6870   30.7150   39.8110 N   0  0  0  0  0  0  0  0  0  0  0  0
   35.8730   27.3730   40.3190 H   0  0  0  0  0  0  0  0  0  0  0  0
   36.7430   32.2030   40.9320 H   0  0  0  0  0  0  0  0  0  0  0  0
   34.5120   28.9590   38.5930 C   0  0  0  0  0  0  0  0  0  0  0  0
   34.7280   27.6020   38.3960 F   0  0  0  0  0  0  0  0  0  0  0  0
   34.8190   29.6140   37.4320 F   0  0  0  0  0  0  0  0  0  0  0  0
   33.2090   29.1190   38.9890 F   0  0  0  0  0  0  0  0  0  0  0  0
   38.6110   25.5950   42.5580 C   0  0  0  0  0  0  0  0  0  0  0  0
   39.8610   25.9470   42.9970 C   0  0  0  0  0  0  0  0  0  0  0  0
   40.2490   26.9480   43.0700 H   0  0  0  0  0  0  0  0  0  0  0  0
   40.5430   24.8170   43.3320 C   0  0  0  0  0  0  0  0  0  0  0  0
   41.5570   24.6710   43.7190 H   0  0  0  0  0  0  0  0  0  0  0  0
   39.7160   23.7730   43.1000 N   0  0  0  0  0  0  0  0  0  0  0  0
   39.8330   22.7270   43.2180 H   0  0  0  0  0  0  0  0  0  0  0  0
   38.5640   24.2570   42.6370 N   0  0  0  0  0  0  0  0  0  0  0  0
  1  4  1  1  0  0  0
  1  2  1  0  0  0  0
  2  5  1  0  0  0  0
  3  7  1  6  0  0  0
  3  1  1  0  0  0  0
  3 20  1  0  0  0  0
  3  2  1  0  0  0  0
  6  2  1  0  0  0  0
  8 13  2  0  0  0  0
  8  9  1  0  0  0  0
  9 10  2  0  0  0  0
 10 11  1  0  0  0  0
 10  1  1  0  0  0  0
 12 15  1  0  0  0  0
 12 11  2  0  0  0  0
 13 12  1  0  0  0  0
 14  9  1  0  0  0  0
 16 19  1  0  0  0  0
 16  8  1  0  0  0  0
 17 16  1  0  0  0  0
 18 16  1  0  0  0  0
 20 27  2  0  0  0  0
 20 21  1  0  0  0  0
 21 22  1  0  0  0  0
 21 23  2  0  0  0  0
 23 24  1  0  0  0  0
 25 26  1  0  0  0  0
 25 23  1  0  0  0  0
 27 25  1  0  0  0  0
M  END
>  <minimizedAffinity>
-5.02859068

$$$$

 OpenBabel03252501153D

 27 29  0  0  1  0  0  0  0  0999 V2000
   37.7740   28.3050   41.7600 C   0  0  1  0  0  0  0  0  0  0  0  0
   36.5780   27.7720   42.4800 C   0  0  0  0  0  0  0  0  0  0  0  0
   37.3880   26.9230   41.4570 C   0  0  2  0  0  0  0  0  0  0  0  0
   38.7230   28.4300   42.2970 H   0  0  0  0  0  0  0  0  0  0  0  0
   36.7040   27.5220   43.5490 H   0  0  0  0  0  0  0  0  0  0  0  0
   35.5630   27.9770   42.1480 H   0  0  0  0  0  0  0  0  0  0  0  0
   36.9610   26.7430   40.4720 H   0  0  0  0  0  0  0  0  0  0  0  0
   37.5900   31.5860   39.9230 C   0  0  0  0  0  0  0  0  0  0  0  0
   37.9640   30.6620   40.8940 C   0  0  0  0  0  0  0  0  0  0  0  0
   37.4470   29.3830   40.7690 C   0  0  0  0  0  0  0  0  0  0  0  0
   36.6160   29.0950   39.7240 N   0  0  0  0  0  0  0  0  0  0  0  0
   36.2780   30.0250   38.8030 C   0  0  0  0  0  0  0  0  0  0  0  0
   36.7740   31.2820   38.9080 N   0  0  0  0  0  0  0  0  0  0  0  0
   38.6250   30.9060   41.7180 H   0  0  0  0  0  0  0  0  0  0  0  0
   35.6030   29.7490   37.9770 H   0  0  0  0  0  0  0  0  0  0  0  0
   38.1420   32.9660   40.0230 C   0  0  0  0  0  0  0  0  0  0  0  0
   38.6120   33.1280   41.3180 F   0  0  0  0  0  0  0  0  0  0  0  0
   37.1230   33.8560   39.8230 F   0  0  0  0  0  0  0  0  0  0  0  0
   39.2030   33.1410   39.1710 F   0  0  0  0  0  0  0  0  0  0  0  0
   38.1730   25.8220   42.0750 C   0  0  0  0  0  0  0  0  0  0  0  0
   39.4150   25.8840   42.6530 C   0  0  0  0  0  0  0  0  0  0  0  0
   40.0260   26.7640   42.7500 H   0  0  0  0  0  0  0  0  0  0  0  0
   39.7570   24.6410   43.0910 C   0  0  0  0  0  0  0  0  0  0  0  0
   40.6540   24.2740   43.6000 H   0  0  0  0  0  0  0  0  0  0  0  0
   38.7300   23.8170   42.7830 N   0  0  0  0  0  0  0  0  0  0  0  0
   38.5730   22.7810   42.9360 H   0  0  0  0  0  0  0  0  0  0  0  0
   37.7910   24.5410   42.1750 N   0  0  0  0  0  0  0  0  0  0  0  0
  1  4  1  1  0  0  0
  1  2  1  0  0  0  0
  2  5  1  0  0  0  0
  3  7  1  6  0  0  0
  3  1  1  0  0  0  0
  3 20  1  0  0  0  0
  3  2  1  0  0  0  0
  6  2  1  0  0  0  0
  8 16  1  0  0  0  0
  8  9  1  0  0  0  0
  9 14  1  0  0  0  0
 10  9  2  0  0  0  0
 10  1  1  0  0  0  0
 11 10  1  0  0  0  0
 12 13  1  0  0  0  0
 12 11  2  0  0  0  0
 13  8  2  0  0  0  0
 15 12  1  0  0  0  0
 16 17  1  0  0  0  0
 18 16  1  0  0  0  0
 19 16  1  0  0  0  0
 20 27  2  0  0  0  0
 20 21  1  0  0  0  0
 21 22  1  0  0  0  0
 21 23  2  0  0  0  0
 23 24  1  0  0  0  0
 25 26  1  0  0  0  0
 25 23  1  0  0  0  0
 27 25  1  0  0  0  0
M  END
>  <minimizedAffinity>
-4.91822863

$$$$

 OpenBabel03252501153D

 27 29  0  0  1  0  0  0  0  0999 V2000
   39.1210   28.6030   42.7020 C   0  0  1  0  0  0  0  0  0  0  0  0
   37.7970   28.3490   43.3480 C   0  0  0  0  0  0  0  0  0  0  0  0
   38.3050   27.5280   42.1270 C   0  0  2  0  0  0  0  0  0  0  0  0
   40.0430   28.2860   43.2060 H   0  0  0  0  0  0  0  0  0  0  0  0
   37.8040   27.8430   44.3290 H   0  0  0  0  0  0  0  0  0  0  0  0
   36.9170   28.9460   43.1180 H   0  0  0  0  0  0  0  0  0  0  0  0
   37.8680   27.7200   41.1480 H   0  0  0  0  0  0  0  0  0  0  0  0
   38.3470   31.5870   40.5430 C   0  0  0  0  0  0  0  0  0  0  0  0
   38.1700   30.3550   41.1650 C   0  0  0  0  0  0  0  0  0  0  0  0
   39.1970   29.9190   41.9850 C   0  0  0  0  0  0  0  0  0  0  0  0
   40.3080   30.6990   42.1430 N   0  0  0  0  0  0  0  0  0  0  0  0
   40.4370   31.8900   41.5180 C   0  0  0  0  0  0  0  0  0  0  0  0
   39.4430   32.3350   40.7110 N   0  0  0  0  0  0  0  0  0  0  0  0
   37.2830   29.7480   41.0300 H   0  0  0  0  0  0  0  0  0  0  0  0
   41.3510   32.4860   41.6730 H   0  0  0  0  0  0  0  0  0  0  0  0
   37.2530   32.0910   39.6660 C   0  0  0  0  0  0  0  0  0  0  0  0
   37.0640   33.4310   39.9730 F   0  0  0  0  0  0  0  0  0  0  0  0
   36.1040   31.4160   39.9760 F   0  0  0  0  0  0  0  0  0  0  0  0
   37.6000   32.0120   38.3420 F   0  0  0  0  0  0  0  0  0  0  0  0
   38.6630   26.1220   42.4520 C   0  0  0  0  0  0  0  0  0  0  0  0
   39.8040   25.6520   43.0510 C   0  0  0  0  0  0  0  0  0  0  0  0
   40.6350   26.2470   43.3860 H   0  0  0  0  0  0  0  0  0  0  0  0
   39.7170   24.2970   43.1570 C   0  0  0  0  0  0  0  0  0  0  0  0
   40.4100   23.5580   43.5710 H   0  0  0  0  0  0  0  0  0  0  0  0
   38.5280   23.9350   42.6260 N   0  0  0  0  0  0  0  0  0  0  0  0
   38.0560   22.9950   42.5020 H   0  0  0  0  0  0  0  0  0  0  0  0
   37.9100   25.0400   42.2090 N   0  0  0  0  0  0  0  0  0  0  0  0
  1  4  1  1  0  0  0
  1  2  1  0  0  0  0
  2  5  1  0  0  0  0
  3  7  1  6  0  0  0
  3 20  1  0  0  0  0
  3  1  1  0  0  0  0
  3  2  1  0  0  0  0
  6  2  1  0  0  0  0
  8 13  2  0  0  0  0
  8  9  1  0  0  0  0
  9 10  2  0  0  0  0
 10 11  1  0  0  0  0
 10  1  1  0  0  0  0
 12 15  1  0  0  0  0
 12 11  2  0  0  0  0
 13 12  1  0  0  0  0
 14  9  1  0  0  0  0
 16 17  1  0  0  0  0
 16 18  1  0  0  0  0
 16  8  1  0  0  0  0
 19 16  1  0  0  0  0
 20 21  1  0  0  0  0
 21 23  2  0  0  0  0
 21 22  1  0  0  0  0
 23 24  1  0  0  0  0
 25 23  1  0  0  0  0
 26 25  1  0  0  0  0
 27 20  2  0  0  0  0
 27 25  1  0  0  0  0
M  END
>  <minimizedAffinity>
-4.89097309

$$$$

 OpenBabel03252501153D

 27 29  0  0  1  0  0  0  0  0999 V2000
   38.4370   27.9190   42.5130 C   0  0  1  0  0  0  0  0  0  0  0  0
   37.0760   27.7130   43.0960 C   0  0  0  0  0  0  0  0  0  0  0  0
   37.4880   27.1460   41.7060 C   0  0  2  0  0  0  0  0  0  0  0  0
   39.2920   27.3580   42.9130 H   0  0  0  0  0  0  0  0  0  0  0  0
   36.9890   26.9890   43.9260 H   0  0  0  0  0  0  0  0  0  0  0  0
   36.2980   28.4690   43.0290 H   0  0  0  0  0  0  0  0  0  0  0  0
   37.1050   27.6300   40.8090 H   0  0  0  0  0  0  0  0  0  0  0  0
   38.3110   31.3200   40.9050 C   0  0  0  0  0  0  0  0  0  0  0  0
   37.9580   30.0030   41.1840 C   0  0  0  0  0  0  0  0  0  0  0  0
   38.7190   29.3430   42.1350 C   0  0  0  0  0  0  0  0  0  0  0  0
   39.7530   30.0000   42.7410 N   0  0  0  0  0  0  0  0  0  0  0  0
   40.0590   31.2810   42.4390 C   0  0  0  0  0  0  0  0  0  0  0  0
   39.3270   31.9430   41.5100 N   0  0  0  0  0  0  0  0  0  0  0  0
   37.1360   29.4950   40.6940 H   0  0  0  0  0  0  0  0  0  0  0  0
   40.9020   31.7710   42.9510 H   0  0  0  0  0  0  0  0  0  0  0  0
   37.5020   32.0600   39.8960 C   0  0  0  0  0  0  0  0  0  0  0  0
   36.2460   31.4720   39.8650 F   0  0  0  0  0  0  0  0  0  0  0  0
   38.0820   31.8940   38.6690 F   0  0  0  0  0  0  0  0  0  0  0  0
   37.3380   33.3730   40.2560 F   0  0  0  0  0  0  0  0  0  0  0  0
   37.6310   25.6660   41.6760 C   0  0  0  0  0  0  0  0  0  0  0  0
   36.9450   24.7600   40.9090 C   0  0  0  0  0  0  0  0  0  0  0  0
   36.1770   24.9900   40.1920 H   0  0  0  0  0  0  0  0  0  0  0  0
   37.3950   23.5090   41.2010 C   0  0  0  0  0  0  0  0  0  0  0  0
   37.1080   22.5270   40.8110 H   0  0  0  0  0  0  0  0  0  0  0  0
   38.3540   23.6440   42.1440 N   0  0  0  0  0  0  0  0  0  0  0  0
   38.9620   22.9410   42.6520 H   0  0  0  0  0  0  0  0  0  0  0  0
   38.4820   24.9420   42.4170 N   0  0  0  0  0  0  0  0  0  0  0  0
  1  4  1  1  0  0  0
  1  2  1  0  0  0  0
  2  5  1  0  0  0  0
  3  7  1  6  0  0  0
  3  1  1  0  0  0  0
  3  2  1  0  0  0  0
  6  2  1  0  0  0  0
  8  9  2  0  0  0  0
  8 13  1  0  0  0  0
  9 10  1  0  0  0  0
 10  1  1  0  0  0  0
 10 11  2  0  0  0  0
 12 11  1  0  0  0  0
 12 15  1  0  0  0  0
 13 12  2  0  0  0  0
 14  9  1  0  0  0  0
 16 19  1  0  0  0  0
 16  8  1  0  0  0  0
 17 16  1  0  0  0  0
 18 16  1  0  0  0  0
 20  3  1  0  0  0  0
 20 27  2  0  0  0  0
 21 23  2  0  0  0  0
 21 20  1  0  0  0  0
 22 21  1  0  0  0  0
 23 25  1  0  0  0  0
 24 23  1  0  0  0  0
 25 27  1  0  0  0  0
 25 26  1  0  0  0  0
M  END
>  <minimizedAffinity>
-4.86969137

$$$$

 OpenBabel03252501153D

 27 29  0  0  1  0  0  0  0  0999 V2000
   36.9400   29.5030   38.2580 C   0  0  1  0  0  0  0  0  0  0  0  0
   36.8730   30.9020   38.7810 C   0  0  0  0  0  0  0  0  0  0  0  0
   35.9850   29.7530   39.3430 C   0  0  2  0  0  0  0  0  0  0  0  0
   37.7970   28.8660   38.5130 H   0  0  0  0  0  0  0  0  0  0  0  0
   37.7110   31.2430   39.4150 H   0  0  0  0  0  0  0  0  0  0  0  0
   36.2950   31.6780   38.2860 H   0  0  0  0  0  0  0  0  0  0  0  0
   34.9290   29.7300   39.0770 H   0  0  0  0  0  0  0  0  0  0  0  0
   36.1130   30.1110   34.6370 C   0  0  0  0  0  0  0  0  0  0  0  0
   36.6420   30.3420   35.9030 C   0  0  0  0  0  0  0  0  0  0  0  0
   36.4230   29.3610   36.8560 C   0  0  0  0  0  0  0  0  0  0  0  0
   35.7180   28.2410   36.5180 N   0  0  0  0  0  0  0  0  0  0  0  0
   35.2210   28.0590   35.2740 C   0  0  0  0  0  0  0  0  0  0  0  0
   35.4250   29.0070   34.3270 N   0  0  0  0  0  0  0  0  0  0  0  0
   37.2000   31.2350   36.1560 H   0  0  0  0  0  0  0  0  0  0  0  0
   34.6570   27.1410   35.0460 H   0  0  0  0  0  0  0  0  0  0  0  0
   36.3440   31.1410   33.5850 C   0  0  0  0  0  0  0  0  0  0  0  0
   37.1610   32.1170   34.1390 F   0  0  0  0  0  0  0  0  0  0  0  0
   35.1440   31.7170   33.2710 F   0  0  0  0  0  0  0  0  0  0  0  0
   37.0020   30.6110   32.5050 F   0  0  0  0  0  0  0  0  0  0  0  0
   36.3540   29.3230   40.7180 C   0  0  0  0  0  0  0  0  0  0  0  0
   36.3830   28.0520   41.2310 C   0  0  0  0  0  0  0  0  0  0  0  0
   36.1360   27.1480   40.7020 H   0  0  0  0  0  0  0  0  0  0  0  0
   36.7790   28.1140   42.5330 C   0  0  0  0  0  0  0  0  0  0  0  0
   36.9260   27.3310   43.2830 H   0  0  0  0  0  0  0  0  0  0  0  0
   36.9930   29.4180   42.8190 N   0  0  0  0  0  0  0  0  0  0  0  0
   37.3050   29.9160   43.7000 H   0  0  0  0  0  0  0  0  0  0  0  0
   36.7330   30.1270   41.7210 N   0  0  0  0  0  0  0  0  0  0  0  0
  1  4  1  1  0  0  0
  1  2  1  0  0  0  0
  1  3  1  0  0  0  0
  2  3  1  0  0  0  0
  2  5  1  0  0  0  0
  3  7  1  6  0  0  0
  3 20  1  0  0  0  0
  6  2  1  0  0  0  0
  8  9  1  0  0  0  0
  9 14  1  0  0  0  0
  9 10  2  0  0  0  0
 10  1  1  0  0  0  0
 11 10  1  0  0  0  0
 12 11  2  0  0  0  0
 13  8  2  0  0  0  0
 13 12  1  0  0  0  0
 15 12  1  0  0  0  0
 16 17  1  0  0  0  0
 16  8  1  0  0  0  0
 18 16  1  0  0  0  0
 19 16  1  0  0  0  0
 20 21  1  0  0  0  0
 20 27  2  0  0  0  0
 21 23  2  0  0  0  0
 22 21  1  0  0  0  0
 23 25  1  0  0  0  0
 23 24  1  0  0  0  0
 25 26  1  0  0  0  0
 27 25  1  0  0  0  0
M  END
>  <minimizedAffinity>
-4.83960533

$$$$

 OpenBabel03252501153D

 27 29  0  0  1  0  0  0  0  0999 V2000
   36.8540   29.1950   40.4670 C   0  0  1  0  0  0  0  0  0  0  0  0
   36.9310   29.5280   41.9230 C   0  0  0  0  0  0  0  0  0  0  0  0
   37.9850   30.0270   40.8910 C   0  0  2  0  0  0  0  0  0  0  0  0
   36.1070   29.6900   39.8330 H   0  0  0  0  0  0  0  0  0  0  0  0
   36.2140   30.2760   42.3060 H   0  0  0  0  0  0  0  0  0  0  0  0
   37.3480   28.8400   42.6530 H   0  0  0  0  0  0  0  0  0  0  0  0
   38.9670   29.5560   40.8770 H   0  0  0  0  0  0  0  0  0  0  0  0
   37.3870   25.4830   40.7970 C   0  0  0  0  0  0  0  0  0  0  0  0
   37.1550   26.8000   41.1830 C   0  0  0  0  0  0  0  0  0  0  0  0
   37.0920   27.7430   40.1710 C   0  0  0  0  0  0  0  0  0  0  0  0
   37.2550   27.3480   38.8730 N   0  0  0  0  0  0  0  0  0  0  0  0
   37.4790   26.0560   38.5440 C   0  0  0  0  0  0  0  0  0  0  0  0
   37.5440   25.1180   39.5200 N   0  0  0  0  0  0  0  0  0  0  0  0
   37.0280   27.0980   42.2170 H   0  0  0  0  0  0  0  0  0  0  0  0
   37.6060   25.7820   37.4840 H   0  0  0  0  0  0  0  0  0  0  0  0
   37.4460   24.4430   41.8620 C   0  0  0  0  0  0  0  0  0  0  0  0
   37.3350   23.2090   41.2370 F   0  0  0  0  0  0  0  0  0  0  0  0
   36.3650   24.6040   42.6840 F   0  0  0  0  0  0  0  0  0  0  0  0
   38.6490   24.4700   42.5190 F   0  0  0  0  0  0  0  0  0  0  0  0
   37.9230   31.4880   40.6220 C   0  0  0  0  0  0  0  0  0  0  0  0
   38.8790   32.4390   40.8680 C   0  0  0  0  0  0  0  0  0  0  0  0
   39.8470   32.2660   41.3060 H   0  0  0  0  0  0  0  0  0  0  0  0
   38.4060   33.6510   40.4670 C   0  0  0  0  0  0  0  0  0  0  0  0
   38.8560   34.6480   40.4920 H   0  0  0  0  0  0  0  0  0  0  0  0
   37.1630   33.4460   39.9760 N   0  0  0  0  0  0  0  0  0  0  0  0
   36.4400   34.1000   39.5620 H   0  0  0  0  0  0  0  0  0  0  0  0
   36.8900   32.1460   40.0770 N   0  0  0  0  0  0  0  0  0  0  0  0
  1  4  1  6  0  0  0
  1  3  1  0  0  0  0
  1  2  1  0  0  0  0
  2  5  1  0  0  0  0
  2  6  1  0  0  0  0
  3  7  1  1  0  0  0
  3  2  1  0  0  0  0
  8  9  1  0  0  0  0
  8 16  1  0  0  0  0
  9 14  1  0  0  0  0
 10  1  1  0  0  0  0
 10  9  2  0  0  0  0
 11 10  1  0  0  0  0
 12 11  2  0  0  0  0
 12 13  1  0  0  0  0
 13  8  2  0  0  0  0
 15 12  1  0  0  0  0
 16 19  1  0  0  0  0
 16 18  1  0  0  0  0
 17 16  1  0  0  0  0
 20 21  1  0  0  0  0
 20  3  1  0  0  0  0
 21 22  1  0  0  0  0
 23 24  1  0  0  0  0
 23 21  2  0  0  0  0
 25 27  1  0  0  0  0
 25 23  1  0  0  0  0
 26 25  1  0  0  0  0
 27 20  2  0  0  0  0
M  END
>  <minimizedAffinity>
-4.80182886

$$$$

 OpenBabel03252501153D

 27 29  0  0  1  0  0  0  0  0999 V2000
   37.8090   28.2770   41.8260 C   0  0  1  0  0  0  0  0  0  0  0  0
   36.6470   27.7910   42.6310 C   0  0  0  0  0  0  0  0  0  0  0  0
   37.3430   26.9140   41.5480 C   0  0  2  0  0  0  0  0  0  0  0  0
   38.7990   28.3580   42.2930 H   0  0  0  0  0  0  0  0  0  0  0  0
   36.8400   27.5290   43.6860 H   0  0  0  0  0  0  0  0  0  0  0  0
   35.6210   28.0410   42.3740 H   0  0  0  0  0  0  0  0  0  0  0  0
   36.8380   26.7580   40.5970 H   0  0  0  0  0  0  0  0  0  0  0  0
   37.0850   30.2420   38.6980 C   0  0  0  0  0  0  0  0  0  0  0  0
   37.4170   29.1530   39.4980 C   0  0  0  0  0  0  0  0  0  0  0  0
   37.4560   29.3740   40.8650 C   0  0  0  0  0  0  0  0  0  0  0  0
   37.1730   30.6190   41.3520 N   0  0  0  0  0  0  0  0  0  0  0  0
   36.8550   31.6490   40.5370 C   0  0  0  0  0  0  0  0  0  0  0  0
   36.8120   31.4530   39.1970 N   0  0  0  0  0  0  0  0  0  0  0  0
   37.6400   28.1720   39.0970 H   0  0  0  0  0  0  0  0  0  0  0  0
   36.6350   32.6370   40.9730 H   0  0  0  0  0  0  0  0  0  0  0  0
   37.0200   30.0320   37.2250 C   0  0  0  0  0  0  0  0  0  0  0  0
   35.7170   29.6680   36.9190 F   0  0  0  0  0  0  0  0  0  0  0  0
   37.8430   28.9890   36.9000 F   0  0  0  0  0  0  0  0  0  0  0  0
   37.3000   31.1890   36.5440 F   0  0  0  0  0  0  0  0  0  0  0  0
   38.1240   25.7780   42.1030 C   0  0  0  0  0  0  0  0  0  0  0  0
   39.3610   25.8040   42.6940 C   0  0  0  0  0  0  0  0  0  0  0  0
   39.9710   26.6760   42.8490 H   0  0  0  0  0  0  0  0  0  0  0  0
   39.7000   24.5360   43.0570 C   0  0  0  0  0  0  0  0  0  0  0  0
   40.5940   24.1380   43.5490 H   0  0  0  0  0  0  0  0  0  0  0  0
   38.6760   23.7330   42.6920 N   0  0  0  0  0  0  0  0  0  0  0  0
   38.5170   22.6900   42.7810 H   0  0  0  0  0  0  0  0  0  0  0  0
   37.7410   24.4930   42.1230 N   0  0  0  0  0  0  0  0  0  0  0  0
  1  4  1  1  0  0  0
  1  2  1  0  0  0  0
  2  5  1  0  0  0  0
  3  7  1  6  0  0  0
  3  1  1  0  0  0  0
  3 20  1  0  0  0  0
  3  2  1  0  0  0  0
  6  2  1  0  0  0  0
  8 13  2  0  0  0  0
  8  9  1  0  0  0  0
  9 10  2  0  0  0  0
 10 11  1  0  0  0  0
 10  1  1  0  0  0  0
 12 15  1  0  0  0  0
 12 11  2  0  0  0  0
 13 12  1  0  0  0  0
 14  9  1  0  0  0  0
 16  8  1  0  0  0  0
 17 16  1  0  0  0  0
 18 16  1  0  0  0  0
 19 16  1  0  0  0  0
 20 27  2  0  0  0  0
 20 21  1  0  0  0  0
 21 22  1  0  0  0  0
 21 23  2  0  0  0  0
 23 24  1  0  0  0  0
 25 26  1  0  0  0  0
 25 23  1  0  0  0  0
 27 25  1  0  0  0  0
M  END
>  <minimizedAffinity>
-4.76279688

$$$$
