
 OpenBabel03252508283D

 38 41  0  0  1  0  0  0  0  0999 V2000
   41.6650   33.6630   39.4260 N   0  0  0  0  0  0  0  0  0  0  0  0
   41.7910   33.2760   40.8340 C   0  0  2  0  0  0  0  0  0  0  0  0
   40.6170   33.6810   41.6480 C   0  0  0  0  0  0  0  0  0  0  0  0
   39.5060   34.1380   40.8300 N   0  0  0  0  0  0  0  0  0  0  0  0
   39.8360   35.1090   39.8530 C   0  0  0  0  0  0  0  0  0  0  0  0
   41.2980   35.0960   39.4760 C   0  0  2  0  0  0  0  0  0  0  0  0
   40.9310   33.1170   38.9380 H   0  0  0  0  0  0  0  0  0  0  0  0
   41.9300   32.1730   40.8950 H   0  0  0  0  0  0  0  0  0  0  0  0
   40.2030   32.7930   42.2090 H   0  0  0  0  0  0  0  0  0  0  0  0
   40.7430   34.5500   42.3140 H   0  0  0  0  0  0  0  0  0  0  0  0
   39.1090   33.2890   40.3310 H   0  0  0  0  0  0  0  0  0  0  0  0
   39.5990   36.1340   40.2310 H   0  0  0  0  0  0  0  0  0  0  0  0
   39.1920   34.9640   38.9490 H   0  0  0  0  0  0  0  0  0  0  0  0
   41.8710   35.5420   40.2900 H   0  0  0  0  0  0  0  0  0  0  0  0
   41.5430   35.7680   38.1900 C   0  0  0  0  0  0  0  0  0  0  0  0
   40.6580   36.4130   37.3730 C   0  0  0  0  0  0  0  0  0  0  0  0
   39.5950   36.5460   37.5350 H   0  0  0  0  0  0  0  0  0  0  0  0
   41.3320   36.8930   36.2670 C   0  0  0  0  0  0  0  0  0  0  0  0
   40.9440   37.4560   35.4110 H   0  0  0  0  0  0  0  0  0  0  0  0
   42.6190   36.5320   36.4250 N   0  0  0  0  0  0  0  0  0  0  0  0
   43.4490   36.7120   35.7960 H   0  0  0  0  0  0  0  0  0  0  0  0
   42.7370   35.8640   37.5700 N   0  0  0  0  0  0  0  0  0  0  0  0
   45.0510   34.3540   41.9370 C   0  0  0  0  0  0  0  0  0  0  0  0
   44.2000   35.3910   42.3260 C   0  0  0  0  0  0  0  0  0  0  0  0
   42.8970   35.0960   41.9630 C   0  0  0  0  0  0  0  0  0  0  0  0
   42.9830   33.9090   41.3690 N   0  0  0  0  0  0  0  0  0  0  0  0
   44.2360   33.4770   41.3540 N   0  0  0  0  0  0  0  0  0  0  0  0
   44.6450   36.2630   42.8430 H   0  0  0  0  0  0  0  0  0  0  0  0
   42.2340   35.8970   42.2720 H   0  0  0  0  0  0  0  0  0  0  0  0
   48.7450   35.0460   41.9380 C   0  0  0  0  0  0  0  0  0  0  0  0
   47.3660   35.2140   41.6050 C   0  0  0  0  0  0  0  0  0  0  0  0
   46.4950   34.3180   42.1720 C   0  0  0  0  0  0  0  0  0  0  0  0
   46.9630   33.3400   43.0020 N   0  0  0  0  0  0  0  0  0  0  0  0
   48.2800   33.2180   43.2920 C   0  0  0  0  0  0  0  0  0  0  0  0
   49.1380   34.0710   42.7550 N   0  0  0  0  0  0  0  0  0  0  0  0
   49.4350   35.7590   41.4860 H   0  0  0  0  0  0  0  0  0  0  0  0
   46.9950   35.9870   40.9500 H   0  0  0  0  0  0  0  0  0  0  0  0
   48.5390   32.4080   43.9600 H   0  0  0  0  0  0  0  0  0  0  0  0
  1  6  1  0  0  0  0
  1  2  1  0  0  0  0
  2  8  1  1  0  0  0
  2 26  1  0  0  0  0
  2  3  1  0  0  0  0
  3  9  1  0  0  0  0
  3 10  1  0  0  0  0
  4  3  1  0  0  0  0
  5 12  1  0  0  0  0
  5  4  1  0  0  0  0
  6  5  1  0  0  0  0
  6 14  1  1  0  0  0
  7  1  1  0  0  0  0
 11  4  1  0  0  0  0
 13  5  1  0  0  0  0
 15  6  1  0  0  0  0
 16 17  1  0  0  0  0
 16 15  1  0  0  0  0
 18 20  1  0  0  0  0
 18 16  2  0  0  0  0
 19 18  1  0  0  0  0
 20 22  1  0  0  0  0
 21 20  1  0  0  0  0
 22 15  2  0  0  0  0
 23 32  1  0  0  0  0
 23 24  1  0  0  0  0
 24 28  1  0  0  0  0
 25 29  1  0  0  0  0
 25 24  2  0  0  0  0
 26 25  1  0  0  0  0
 27 26  1  0  0  0  0
 27 23  2  0  0  0  0
 30 35  1  0  0  0  0
 31 30  2  0  0  0  0
 31 32  1  0  0  0  0
 32 33  2  0  0  0  0
 33 34  1  0  0  0  0
 34 38  1  0  0  0  0
 35 34  2  0  0  0  0
 36 30  1  0  0  0  0
 37 31  1  0  0  0  0
M  END
>  <minimizedAffinity>
-4.84769869

>  <minimizedRMSD>
1.33889747

$$$$
