
 OpenBabel03252501143D

 27 29  0  0  1  0  0  0  0  0999 V2000
   46.7370   33.1180   43.3680 C   0  0  1  0  0  0  0  0  0  0  0  0
   46.1050   34.4700   43.4560 C   0  0  0  0  0  0  0  0  0  0  0  0
   47.6310   34.2710   43.2230 C   0  0  2  0  0  0  0  0  0  0  0  0
   46.5940   32.5060   42.4680 H   0  0  0  0  0  0  0  0  0  0  0  0
   45.5060   34.8020   42.5900 H   0  0  0  0  0  0  0  0  0  0  0  0
   45.8820   34.9440   44.4080 H   0  0  0  0  0  0  0  0  0  0  0  0
   48.3160   34.4620   44.0480 H   0  0  0  0  0  0  0  0  0  0  0  0
   46.0390   32.0240   46.9020 C   0  0  0  0  0  0  0  0  0  0  0  0
   45.9680   32.7920   45.7440 C   0  0  0  0  0  0  0  0  0  0  0  0
   46.7280   32.3660   44.6670 C   0  0  0  0  0  0  0  0  0  0  0  0
   47.4910   31.2390   44.7890 N   0  0  0  0  0  0  0  0  0  0  0  0
   47.5300   30.5240   45.9350 C   0  0  0  0  0  0  0  0  0  0  0  0
   46.7940   30.9250   46.9990 N   0  0  0  0  0  0  0  0  0  0  0  0
   45.3570   33.6840   45.6630 H   0  0  0  0  0  0  0  0  0  0  0  0
   48.1610   29.6220   45.9890 H   0  0  0  0  0  0  0  0  0  0  0  0
   45.2210   32.4490   48.0730 C   0  0  0  0  0  0  0  0  0  0  0  0
   46.0950   32.6550   49.1310 F   0  0  0  0  0  0  0  0  0  0  0  0
   44.3790   31.4250   48.4070 F   0  0  0  0  0  0  0  0  0  0  0  0
   44.5780   33.6360   47.8270 F   0  0  0  0  0  0  0  0  0  0  0  0
   48.0870   34.6400   41.8570 C   0  0  0  0  0  0  0  0  0  0  0  0
   48.8290   35.7260   41.4720 C   0  0  0  0  0  0  0  0  0  0  0  0
   49.2040   36.4990   42.1200 H   0  0  0  0  0  0  0  0  0  0  0  0
   49.0180   35.6740   40.1240 C   0  0  0  0  0  0  0  0  0  0  0  0
   49.5480   36.3440   39.4410 H   0  0  0  0  0  0  0  0  0  0  0  0
   48.3950   34.5590   39.6820 N   0  0  0  0  0  0  0  0  0  0  0  0
   48.2880   34.1330   38.7180 H   0  0  0  0  0  0  0  0  0  0  0  0
   47.8430   33.9520   40.7320 N   0  0  0  0  0  0  0  0  0  0  0  0
  1  4  1  6  0  0  0
  1  2  1  0  0  0  0
  1 10  1  0  0  0  0
  2  6  1  0  0  0  0
  3  1  1  0  0  0  0
  3  2  1  0  0  0  0
  3  7  1  1  0  0  0
  5  2  1  0  0  0  0
  8 13  1  0  0  0  0
  8 16  1  0  0  0  0
  9  8  2  0  0  0  0
 10 11  2  0  0  0  0
 10  9  1  0  0  0  0
 11 12  1  0  0  0  0
 12 15  1  0  0  0  0
 12 13  2  0  0  0  0
 14  9  1  0  0  0  0
 16 18  1  0  0  0  0
 16 17  1  0  0  0  0
 19 16  1  0  0  0  0
 20  3  1  0  0  0  0
 21 20  1  0  0  0  0
 21 22  1  0  0  0  0
 23 21  2  0  0  0  0
 24 23  1  0  0  0  0
 25 23  1  0  0  0  0
 25 27  1  0  0  0  0
 26 25  1  0  0  0  0
 27 20  2  0  0  0  0
M  END
>  <minimizedAffinity>
-4.95077753

>  <minimizedRMSD>
3.97821116

$$$$
