
 OpenBabel03252507183D

 43 46  0  0  1  0  0  0  0  0999 V2000
   47.2890   33.5370   42.9990 C   0  0  0  0  0  0  0  0  0  0  0  0
   48.3340   33.2670   43.6480 O   0  0  0  0  0  0  0  0  0  0  0  0
   47.0160   33.0710   41.6660 N   0  0  0  0  0  0  0  0  0  0  0  0
   45.8120   32.5110   41.0820 C   0  0  0  0  0  0  0  0  0  0  0  0
   45.4820   33.2820   39.7870 C   0  0  0  0  0  0  0  0  0  0  0  0
   46.5900   33.0710   38.7830 C   0  0  0  0  0  0  0  0  0  0  0  0
   47.7840   32.4580   39.4570 C   0  0  0  0  0  0  0  0  0  0  0  0
   48.1230   33.1780   40.7390 C   0  0  2  0  0  0  0  0  0  0  0  0
   44.9470   32.7760   41.7500 H   0  0  0  0  0  0  0  0  0  0  0  0
   45.8350   31.4300   40.9310 H   0  0  0  0  0  0  0  0  0  0  0  0
   44.5110   32.9160   39.4230 H   0  0  0  0  0  0  0  0  0  0  0  0
   45.4690   34.3510   40.0780 H   0  0  0  0  0  0  0  0  0  0  0  0
   46.2280   32.3410   38.0230 H   0  0  0  0  0  0  0  0  0  0  0  0
   46.8530   34.0000   38.2470 H   0  0  0  0  0  0  0  0  0  0  0  0
   47.4900   31.3890   39.6700 H   0  0  0  0  0  0  0  0  0  0  0  0
   48.6530   32.3940   38.7940 H   0  0  0  0  0  0  0  0  0  0  0  0
   48.2100   34.2550   40.4870 H   0  0  0  0  0  0  0  0  0  0  0  0
   45.9180   35.5710   42.9890 C   0  0  0  0  0  0  0  0  0  0  0  0
   46.2990   34.3720   43.6410 C   0  0  0  0  0  0  0  0  0  0  0  0
   45.7220   34.0450   44.8490 C   0  0  0  0  0  0  0  0  0  0  0  0
   44.8050   34.8870   45.3720 N   0  0  0  0  0  0  0  0  0  0  0  0
   44.4300   36.0390   44.7590 C   0  0  0  0  0  0  0  0  0  0  0  0
   44.9940   36.3560   43.5800 N   0  0  0  0  0  0  0  0  0  0  0  0
   46.3930   35.7940   42.0410 H   0  0  0  0  0  0  0  0  0  0  0  0
   43.6920   36.6910   45.2050 H   0  0  0  0  0  0  0  0  0  0  0  0
   46.1280   32.8180   45.5030 C   0  0  0  0  0  0  0  0  0  0  0  0
   45.7460   31.6140   44.9890 C   0  0  0  0  0  0  0  0  0  0  0  0
   46.1430   30.4540   45.6270 C   0  0  0  0  0  0  0  0  0  0  0  0
   46.9190   30.4580   46.7730 C   0  0  0  0  0  0  0  0  0  0  0  0
   47.2780   31.7110   47.2500 C   0  0  0  0  0  0  0  0  0  0  0  0
   46.8740   32.8180   46.6040 N   0  0  0  0  0  0  0  0  0  0  0  0
   45.1550   31.4510   44.1280 H   0  0  0  0  0  0  0  0  0  0  0  0
   45.8740   29.4620   45.2710 H   0  0  0  0  0  0  0  0  0  0  0  0
   47.2220   29.5460   47.2600 H   0  0  0  0  0  0  0  0  0  0  0  0
   47.8880   31.7990   48.1470 H   0  0  0  0  0  0  0  0  0  0  0  0
   49.4190   32.7300   41.2890 C   0  0  0  0  0  0  0  0  0  0  0  0
   49.9770   31.4600   41.3930 C   0  0  0  0  0  0  0  0  0  0  0  0
   49.4780   30.5640   41.0480 H   0  0  0  0  0  0  0  0  0  0  0  0
   51.2240   31.4980   41.9810 C   0  0  0  0  0  0  0  0  0  0  0  0
   51.8800   30.6610   42.1840 H   0  0  0  0  0  0  0  0  0  0  0  0
   51.4110   32.8060   42.2310 N   0  0  0  0  0  0  0  0  0  0  0  0
   52.2600   33.2330   42.6810 H   0  0  0  0  0  0  0  0  0  0  0  0
   50.3790   33.5330   41.8390 N   0  0  0  0  0  0  0  0  0  0  0  0
  1 19  1  0  0  0  0
  1  2  2  0  0  0  0
  3  1  1  0  0  0  0
  4  3  1  0  0  0  0
  4  9  1  0  0  0  0
  5 12  1  0  0  0  0
  5  4  1  0  0  0  0
  6  7  1  0  0  0  0
  6  5  1  0  0  0  0
  7 15  1  0  0  0  0
  7  8  1  0  0  0  0
  8 17  1  6  0  0  0
  8 36  1  0  0  0  0
  8  3  1  0  0  0  0
 10  4  1  0  0  0  0
 11  5  1  0  0  0  0
 13  6  1  0  0  0  0
 14  6  1  0  0  0  0
 16  7  1  0  0  0  0
 18 23  2  0  0  0  0
 18 19  1  0  0  0  0
 19 20  2  0  0  0  0
 20 21  1  0  0  0  0
 20 26  1  0  0  0  0
 22 25  1  0  0  0  0
 22 21  2  0  0  0  0
 23 22  1  0  0  0  0
 24 18  1  0  0  0  0
 26 31  1  0  0  0  0
 27 26  2  0  0  0  0
 27 28  1  0  0  0  0
 28 29  2  0  0  0  0
 29 30  1  0  0  0  0
 29 34  1  0  0  0  0
 30 35  1  0  0  0  0
 31 30  2  0  0  0  0
 32 27  1  0  0  0  0
 33 28  1  0  0  0  0
 36 37  1  0  0  0  0
 36 43  2  0  0  0  0
 37 39  2  0  0  0  0
 38 37  1  0  0  0  0
 39 40  1  0  0  0  0
 39 41  1  0  0  0  0
 41 42  1  0  0  0  0
 43 41  1  0  0  0  0
M  END
>  <minimizedAffinity>
-5.68098497

>  <minimizedRMSD>
0.483679771

$$$$
