
 OpenBabel03252506043D

 42 46  0  0  0  0  0  0  0  0999 V2000
   44.8230   36.0010   43.3290 Cl  0  0  0  0  0  0  0  0  0  0  0  0
   45.5660   34.7490   44.2710 C   0  0  0  0  0  0  0  0  0  0  0  0
   46.6800   34.0920   43.7970 C   0  0  0  0  0  0  0  0  0  0  0  0
   47.1920   33.1170   44.6210 C   0  0  0  0  0  0  0  0  0  0  0  0
   46.6800   32.7640   45.8530 C   0  0  0  0  0  0  0  0  0  0  0  0
   45.5660   33.4430   46.2950 C   0  0  0  0  0  0  0  0  0  0  0  0
   44.9440   32.9720   47.8560 Cl  0  0  0  0  0  0  0  0  0  0  0  0
   45.0200   34.4220   45.5110 C   0  0  0  0  0  0  0  0  0  0  0  0
   48.0820   32.5970   44.2330 H   0  0  0  0  0  0  0  0  0  0  0  0
   44.1440   34.9390   45.8850 H   0  0  0  0  0  0  0  0  0  0  0  0
   47.3750   31.6940   46.5790 C   0  0  0  0  0  0  0  0  0  0  0  0
   47.4930   30.4080   46.0870 C   0  0  0  0  0  0  0  0  0  0  0  0
   48.1430   29.3880   46.7560 C   0  0  0  0  0  0  0  0  0  0  0  0
   48.7090   29.6470   47.9800 C   0  0  0  0  0  0  0  0  0  0  0  0
   49.3290   28.6380   48.5980 N   0  0  0  0  0  0  0  0  0  0  0  0
   49.9210   28.7960   49.8110 C   0  0  0  0  0  0  0  0  0  0  0  0
   49.8470   30.0710   50.3800 C   0  0  0  0  0  0  0  0  0  0  0  0
   49.2080   31.0900   49.7320 C   0  0  0  0  0  0  0  0  0  0  0  0
   48.6160   30.9050   48.5000 C   0  0  0  0  0  0  0  0  0  0  0  0
   47.9600   31.9220   47.8190 C   0  0  0  0  0  0  0  0  0  0  0  0
   47.0300   30.2380   45.1120 H   0  0  0  0  0  0  0  0  0  0  0  0
   48.1600   28.4260   46.2540 H   0  0  0  0  0  0  0  0  0  0  0  0
   50.4000   27.9200   50.2350 H   0  0  0  0  0  0  0  0  0  0  0  0
   50.3250   30.1790   51.3510 H   0  0  0  0  0  0  0  0  0  0  0  0
   49.1640   32.0680   50.1930 H   0  0  0  0  0  0  0  0  0  0  0  0
   47.9030   32.9010   48.2560 H   0  0  0  0  0  0  0  0  0  0  0  0
   48.8930   35.5550   41.3060 C   0  0  0  0  0  0  0  0  0  0  0  0
   48.4360   35.0220   40.0990 C   0  0  0  0  0  0  0  0  0  0  0  0
   47.3370   34.1360   40.1500 C   0  0  0  0  0  0  0  0  0  0  0  0
   46.8030   33.8640   41.3590 N   0  0  0  0  0  0  0  0  0  0  0  0
   47.2790   34.4050   42.5090 C   0  0  0  0  0  0  0  0  0  0  0  0
   48.3280   35.2540   42.4860 N   0  0  0  0  0  0  0  0  0  0  0  0
   49.7360   36.2250   41.1880 H   0  0  0  0  0  0  0  0  0  0  0  0
   48.8510   35.2290   39.1330 H   0  0  0  0  0  0  0  0  0  0  0  0
   46.7810   33.5230   38.9500 C   0  0  0  0  0  0  0  0  0  0  0  0
   47.4070   33.5460   37.7190 C   0  0  0  0  0  0  0  0  0  0  0  0
   48.3520   33.9750   37.3860 H   0  0  0  0  0  0  0  0  0  0  0  0
   46.5550   32.8580   36.8550 C   0  0  0  0  0  0  0  0  0  0  0  0
   46.7060   32.6650   35.7880 H   0  0  0  0  0  0  0  0  0  0  0  0
   45.4710   32.4510   37.5640 N   0  0  0  0  0  0  0  0  0  0  0  0
   44.6550   31.9080   37.1820 H   0  0  0  0  0  0  0  0  0  0  0  0
   45.6200   32.8560   38.8200 N   0  0  0  0  0  0  0  0  0  0  0  0
  1  2  1  0  0  0  0
  2  8  1  0  0  0  0
  3  2  2  0  0  0  0
  3  4  1  0  0  0  0
  4  5  2  0  0  0  0
  5  6  1  0  0  0  0
  5 11  1  0  0  0  0
  6  7  1  0  0  0  0
  8 10  1  0  0  0  0
  8  6  2  0  0  0  0
  9  4  1  0  0  0  0
 11 20  1  0  0  0  0
 12 11  2  0  0  0  0
 12 13  1  0  0  0  0
 13 14  2  0  0  0  0
 14 19  1  0  0  0  0
 14 15  1  0  0  0  0
 15 16  2  0  0  0  0
 16 23  1  0  0  0  0
 16 17  1  0  0  0  0
 17 24  1  0  0  0  0
 18 25  1  0  0  0  0
 18 17  2  0  0  0  0
 19 18  1  0  0  0  0
 20 26  1  0  0  0  0
 20 19  2  0  0  0  0
 21 12  1  0  0  0  0
 22 13  1  0  0  0  0
 27 32  1  0  0  0  0
 28 29  1  0  0  0  0
 28 27  2  0  0  0  0
 29 30  2  0  0  0  0
 30 31  1  0  0  0  0
 31  3  1  0  0  0  0
 32 31  2  0  0  0  0
 33 27  1  0  0  0  0
 34 28  1  0  0  0  0
 35 29  1  0  0  0  0
 36 35  1  0  0  0  0
 37 36  1  0  0  0  0
 38 40  1  0  0  0  0
 38 36  2  0  0  0  0
 39 38  1  0  0  0  0
 40 42  1  0  0  0  0
 41 40  1  0  0  0  0
 42 35  2  0  0  0  0
M  END
>  <minimizedAffinity>
-7.0536027

>  <minimizedRMSD>
0.157787889

$$$$
