
 OpenBabel03252503233D

 46 51  0  0  1  0  0  0  0  0999 V2000
   46.7390   33.3960   43.0700 C   0  0  1  0  0  0  0  0  0  0  0  0
   46.9680   34.7730   42.6380 C   0  0  0  0  0  0  0  0  0  0  0  0
   48.1250   33.8460   42.6320 C   0  0  2  0  0  0  0  0  0  0  0  0
   46.2410   32.6730   42.4020 H   0  0  0  0  0  0  0  0  0  0  0  0
   46.3970   35.1070   41.7810 H   0  0  0  0  0  0  0  0  0  0  0  0
   46.8860   35.5320   43.4850 H   0  0  0  0  0  0  0  0  0  0  0  0
   48.8740   33.9530   43.4420 H   0  0  0  0  0  0  0  0  0  0  0  0
   48.5490   33.3000   41.3150 C   0  0  0  0  0  0  0  0  0  0  0  0
   49.3900   32.2190   41.1530 C   0  0  0  0  0  0  0  0  0  0  0  0
   49.7450   31.7610   39.8900 C   0  0  0  0  0  0  0  0  0  0  0  0
   49.2530   32.3930   38.7710 C   0  0  0  0  0  0  0  0  0  0  0  0
   49.5760   31.9630   37.5260 N   0  0  0  0  0  0  0  0  0  0  0  0
   49.0730   32.5990   36.4350 C   0  0  0  0  0  0  0  0  0  0  0  0
   48.2100   33.7120   36.5060 C   0  0  0  0  0  0  0  0  0  0  0  0
   47.8760   34.1560   37.7560 C   0  0  0  0  0  0  0  0  0  0  0  0
   48.3980   33.4940   38.8760 C   0  0  0  0  0  0  0  0  0  0  0  0
   48.0760   33.9090   40.1530 C   0  0  0  0  0  0  0  0  0  0  0  0
   49.7680   31.7330   42.0460 H   0  0  0  0  0  0  0  0  0  0  0  0
   50.4070   30.9080   39.7900 H   0  0  0  0  0  0  0  0  0  0  0  0
   49.3270   32.2610   35.4320 H   0  0  0  0  0  0  0  0  0  0  0  0
   47.8560   34.1580   35.5860 H   0  0  0  0  0  0  0  0  0  0  0  0
   47.2170   35.0060   37.8700 H   0  0  0  0  0  0  0  0  0  0  0  0
   47.4180   34.7680   40.1540 H   0  0  0  0  0  0  0  0  0  0  0  0
   45.5310   33.7410   45.2570 C   0  0  0  0  0  0  0  0  0  0  0  0
   46.5690   33.0780   44.5180 C   0  0  0  0  0  0  0  0  0  0  0  0
   47.3640   32.1850   45.1880 C   0  0  0  0  0  0  0  0  0  0  0  0
   47.0990   32.0030   46.5130 N   0  0  0  0  0  0  0  0  0  0  0  0
   46.1320   32.6230   47.1980 C   0  0  0  0  0  0  0  0  0  0  0  0
   45.3410   33.5000   46.5630 N   0  0  0  0  0  0  0  0  0  0  0  0
   44.9050   34.4520   44.7060 H   0  0  0  0  0  0  0  0  0  0  0  0
   48.1540   31.6660   44.6690 H   0  0  0  0  0  0  0  0  0  0  0  0
   45.9810   32.3000   48.6330 C   0  0  2  0  0  0  0  0  0  0  0  0
   46.7890   31.2990   49.3020 C   0  0  0  0  0  0  0  0  0  0  0  0
   45.4200   30.8730   48.9110 C   0  0  2  0  0  0  0  0  0  0  0  0
   45.4930   33.1020   49.2400 H   0  0  0  0  0  0  0  0  0  0  0  0
   47.0440   31.4590   50.3780 H   0  0  0  0  0  0  0  0  0  0  0  0
   47.6760   30.8940   48.7560 H   0  0  0  0  0  0  0  0  0  0  0  0
   44.6200   30.9080   49.6900 H   0  0  0  0  0  0  0  0  0  0  0  0
   45.3030   29.9300   47.7990 C   0  0  0  0  0  0  0  0  0  0  0  0
   44.4170   29.6570   46.7800 C   0  0  0  0  0  0  0  0  0  0  0  0
   43.5260   30.2530   46.6600 H   0  0  0  0  0  0  0  0  0  0  0  0
   44.8290   28.5970   46.0010 C   0  0  0  0  0  0  0  0  0  0  0  0
   44.2790   28.2170   45.1480 H   0  0  0  0  0  0  0  0  0  0  0  0
   45.9890   28.2330   46.5750 N   0  0  0  0  0  0  0  0  0  0  0  0
   46.5790   27.4310   46.2140 H   0  0  0  0  0  0  0  0  0  0  0  0
   46.2710   28.9850   47.6000 N   0  0  0  0  0  0  0  0  0  0  0  0
  1  4  1  6  0  0  0
  1 25  1  0  0  0  0
  2  1  1  0  0  0  0
  2  6  1  0  0  0  0
  3  2  1  0  0  0  0
  3  1  1  0  0  0  0
  3  7  1  1  0  0  0
  5  2  1  0  0  0  0
  8  3  1  0  0  0  0
  9  8  1  0  0  0  0
  9 18  1  0  0  0  0
 10  9  2  0  0  0  0
 11 16  1  0  0  0  0
 11 10  1  0  0  0  0
 12 11  2  0  0  0  0
 13 14  2  0  0  0  0
 13 12  1  0  0  0  0
 14 15  1  0  0  0  0
 15 22  1  0  0  0  0
 15 16  2  0  0  0  0
 16 17  1  0  0  0  0
 17 23  1  0  0  0  0
 17  8  2  0  0  0  0
 19 10  1  0  0  0  0
 20 13  1  0  0  0  0
 21 14  1  0  0  0  0
 24 29  1  0  0  0  0
 25 26  1  0  0  0  0
 25 24  2  0  0  0  0
 26 27  2  0  0  0  0
 27 28  1  0  0  0  0
 28 32  1  0  0  0  0
 29 28  2  0  0  0  0
 30 24  1  0  0  0  0
 31 26  1  0  0  0  0
 32 34  1  0  0  0  0
 32 35  1  1  0  0  0
 32 33  1  0  0  0  0
 33 36  1  0  0  0  0
 34 33  1  0  0  0  0
 34 38  1  1  0  0  0
 37 33  1  0  0  0  0
 39 34  1  0  0  0  0
 40 39  1  0  0  0  0
 41 40  1  0  0  0  0
 42 44  1  0  0  0  0
 42 40  2  0  0  0  0
 43 42  1  0  0  0  0
 44 46  1  0  0  0  0
 45 44  1  0  0  0  0
 46 39  2  0  0  0  0
M  END
>  <minimizedAffinity>
-5.86780024

>  <minimizedRMSD>
0.727281094

$$$$
