
 OpenBabel03252507213D

 43 46  0  0  1  0  0  0  0  0999 V2000
   39.0640   29.1870   40.4250 C   0  0  0  0  0  0  0  0  0  0  0  0
   39.6510   28.7060   39.4200 O   0  0  0  0  0  0  0  0  0  0  0  0
   38.5570   28.4070   41.5220 N   0  0  0  0  0  0  0  0  0  0  0  0
   38.6470   28.6110   42.9560 C   0  0  0  0  0  0  0  0  0  0  0  0
   37.2310   28.5150   43.5620 C   0  0  0  0  0  0  0  0  0  0  0  0
   36.6910   27.1200   43.3540 C   0  0  0  0  0  0  0  0  0  0  0  0
   37.5470   26.3790   42.3670 C   0  0  0  0  0  0  0  0  0  0  0  0
   37.8270   27.2150   41.1430 C   0  0  2  0  0  0  0  0  0  0  0  0
   38.9170   29.6870   43.1370 H   0  0  0  0  0  0  0  0  0  0  0  0
   39.3650   27.9650   43.4670 H   0  0  0  0  0  0  0  0  0  0  0  0
   37.3080   28.7800   44.6260 H   0  0  0  0  0  0  0  0  0  0  0  0
   36.6130   29.2230   42.9750 H   0  0  0  0  0  0  0  0  0  0  0  0
   36.7610   26.5780   44.3250 H   0  0  0  0  0  0  0  0  0  0  0  0
   35.6280   27.1210   43.0540 H   0  0  0  0  0  0  0  0  0  0  0  0
   38.5070   26.1510   42.9170 H   0  0  0  0  0  0  0  0  0  0  0  0
   37.1290   25.4050   42.0970 H   0  0  0  0  0  0  0  0  0  0  0  0
   36.8450   27.5650   40.7640 H   0  0  0  0  0  0  0  0  0  0  0  0
   39.9690   31.4030   40.9580 C   0  0  0  0  0  0  0  0  0  0  0  0
   38.8910   30.6220   40.4770 C   0  0  0  0  0  0  0  0  0  0  0  0
   37.7270   31.2440   40.0790 C   0  0  0  0  0  0  0  0  0  0  0  0
   37.6570   32.5900   40.1630 N   0  0  0  0  0  0  0  0  0  0  0  0
   38.6820   33.3520   40.6220 C   0  0  0  0  0  0  0  0  0  0  0  0
   39.8170   32.7430   41.0100 N   0  0  0  0  0  0  0  0  0  0  0  0
   40.8670   30.8790   41.2610 H   0  0  0  0  0  0  0  0  0  0  0  0
   38.5940   34.4280   40.6760 H   0  0  0  0  0  0  0  0  0  0  0  0
   36.6340   30.4270   39.5950 C   0  0  0  0  0  0  0  0  0  0  0  0
   35.6650   30.0030   40.4570 C   0  0  0  0  0  0  0  0  0  0  0  0
   34.6300   29.2250   39.9760 C   0  0  0  0  0  0  0  0  0  0  0  0
   34.5280   28.8520   38.6470 C   0  0  0  0  0  0  0  0  0  0  0  0
   35.5410   29.3120   37.8150 C   0  0  0  0  0  0  0  0  0  0  0  0
   36.5330   30.0680   38.3180 N   0  0  0  0  0  0  0  0  0  0  0  0
   35.6090   30.2020   41.4930 H   0  0  0  0  0  0  0  0  0  0  0  0
   33.8270   28.8540   40.6080 H   0  0  0  0  0  0  0  0  0  0  0  0
   33.7150   28.2450   38.2850 H   0  0  0  0  0  0  0  0  0  0  0  0
   35.5330   29.0630   36.7570 H   0  0  0  0  0  0  0  0  0  0  0  0
   38.4740   26.4230   40.0770 C   0  0  0  0  0  0  0  0  0  0  0  0
   38.0830   26.1630   38.7680 C   0  0  0  0  0  0  0  0  0  0  0  0
   37.1700   26.5490   38.3350 H   0  0  0  0  0  0  0  0  0  0  0  0
   38.9980   25.3650   38.1120 C   0  0  0  0  0  0  0  0  0  0  0  0
   38.9470   25.0100   37.0910 H   0  0  0  0  0  0  0  0  0  0  0  0
   39.9450   25.1470   39.0420 N   0  0  0  0  0  0  0  0  0  0  0  0
   40.8160   24.5740   38.9130 H   0  0  0  0  0  0  0  0  0  0  0  0
   39.6590   25.7500   40.1840 N   0  0  0  0  0  0  0  0  0  0  0  0
  1 19  1  0  0  0  0
  1  3  1  0  0  0  0
  2  1  2  0  0  0  0
  3  4  1  0  0  0  0
  4  9  1  0  0  0  0
  4 10  1  0  0  0  0
  4  5  1  0  0  0  0
  5 11  1  0  0  0  0
  6  5  1  0  0  0  0
  6 13  1  0  0  0  0
  7 15  1  0  0  0  0
  7  6  1  0  0  0  0
  8 17  1  6  0  0  0
  8  3  1  0  0  0  0
  8  7  1  0  0  0  0
 12  5  1  0  0  0  0
 14  6  1  0  0  0  0
 16  7  1  0  0  0  0
 18 23  1  0  0  0  0
 18 24  1  0  0  0  0
 19 18  2  0  0  0  0
 20 21  2  0  0  0  0
 20 19  1  0  0  0  0
 21 22  1  0  0  0  0
 22 25  1  0  0  0  0
 22 23  2  0  0  0  0
 26 20  1  0  0  0  0
 26 27  1  0  0  0  0
 27 32  1  0  0  0  0
 28 27  2  0  0  0  0
 28 33  1  0  0  0  0
 29 28  1  0  0  0  0
 30 31  1  0  0  0  0
 30 29  2  0  0  0  0
 31 26  2  0  0  0  0
 34 29  1  0  0  0  0
 35 30  1  0  0  0  0
 36 43  2  0  0  0  0
 36  8  1  0  0  0  0
 37 36  1  0  0  0  0
 38 37  1  0  0  0  0
 39 37  2  0  0  0  0
 39 41  1  0  0  0  0
 40 39  1  0  0  0  0
 41 43  1  0  0  0  0
 42 41  1  0  0  0  0
M  END
>  <minimizedAffinity>
-5.8478961

$$$$

 OpenBabel03252507213D

 43 46  0  0  1  0  0  0  0  0999 V2000
   39.5720   29.1120   39.9050 C   0  0  0  0  0  0  0  0  0  0  0  0
   39.7190   30.3470   40.1060 O   0  0  0  0  0  0  0  0  0  0  0  0
   38.4660   28.5300   39.1930 N   0  0  0  0  0  0  0  0  0  0  0  0
   38.4280   27.4960   38.1760 C   0  0  0  0  0  0  0  0  0  0  0  0
   37.4050   26.4210   38.5970 C   0  0  0  0  0  0  0  0  0  0  0  0
   36.0260   27.0330   38.6460 C   0  0  0  0  0  0  0  0  0  0  0  0
   36.1260   28.5310   38.5840 C   0  0  0  0  0  0  0  0  0  0  0  0
   37.1630   29.0540   39.5460 C   0  0  2  0  0  0  0  0  0  0  0  0
   39.4010   26.9350   38.2160 H   0  0  0  0  0  0  0  0  0  0  0  0
   38.2590   27.8580   37.1590 H   0  0  0  0  0  0  0  0  0  0  0  0
   37.4730   25.5980   37.8720 H   0  0  0  0  0  0  0  0  0  0  0  0
   37.6970   26.1270   39.6250 H   0  0  0  0  0  0  0  0  0  0  0  0
   35.4720   26.7010   37.7380 H   0  0  0  0  0  0  0  0  0  0  0  0
   35.4470   26.6970   39.5240 H   0  0  0  0  0  0  0  0  0  0  0  0
   36.4210   28.7660   37.5190 H   0  0  0  0  0  0  0  0  0  0  0  0
   35.1600   29.0220   38.7320 H   0  0  0  0  0  0  0  0  0  0  0  0
   36.9200   28.6270   40.5410 H   0  0  0  0  0  0  0  0  0  0  0  0
   41.8300   28.1670   39.7520 C   0  0  0  0  0  0  0  0  0  0  0  0
   40.5850   28.2230   40.4270 C   0  0  0  0  0  0  0  0  0  0  0  0
   40.3830   27.4400   41.5430 C   0  0  0  0  0  0  0  0  0  0  0  0
   41.3890   26.6400   41.9570 N   0  0  0  0  0  0  0  0  0  0  0  0
   42.5870   26.5750   41.3210 C   0  0  0  0  0  0  0  0  0  0  0  0
   42.7810   27.3410   40.2320 N   0  0  0  0  0  0  0  0  0  0  0  0
   41.9510   28.7980   38.8800 H   0  0  0  0  0  0  0  0  0  0  0  0
   43.3720   25.9240   41.6790 H   0  0  0  0  0  0  0  0  0  0  0  0
   39.1030   27.5070   42.2160 C   0  0  0  0  0  0  0  0  0  0  0  0
   38.2090   26.4850   42.0850 C   0  0  0  0  0  0  0  0  0  0  0  0
   36.9930   26.5680   42.7350 C   0  0  0  0  0  0  0  0  0  0  0  0
   36.6360   27.6490   43.5210 C   0  0  0  0  0  0  0  0  0  0  0  0
   37.5830   28.6590   43.6180 C   0  0  0  0  0  0  0  0  0  0  0  0
   38.7570   28.5450   42.9720 N   0  0  0  0  0  0  0  0  0  0  0  0
   38.3360   25.6010   41.5210 H   0  0  0  0  0  0  0  0  0  0  0  0
   36.2360   25.7890   42.6730 H   0  0  0  0  0  0  0  0  0  0  0  0
   35.6840   27.7010   44.0230 H   0  0  0  0  0  0  0  0  0  0  0  0
   37.3790   29.5440   44.2180 H   0  0  0  0  0  0  0  0  0  0  0  0
   37.1120   30.5270   39.6550 C   0  0  0  0  0  0  0  0  0  0  0  0
   37.2720   31.5190   38.6940 C   0  0  0  0  0  0  0  0  0  0  0  0
   37.4720   31.3070   37.6520 H   0  0  0  0  0  0  0  0  0  0  0  0
   37.1440   32.7800   39.2370 C   0  0  0  0  0  0  0  0  0  0  0  0
   37.2210   33.7290   38.7220 H   0  0  0  0  0  0  0  0  0  0  0  0
   36.9050   32.5360   40.5380 N   0  0  0  0  0  0  0  0  0  0  0  0
   36.7510   33.2610   41.2840 H   0  0  0  0  0  0  0  0  0  0  0  0
   36.8830   31.2400   40.7990 N   0  0  0  0  0  0  0  0  0  0  0  0
  1  2  2  0  0  0  0
  1 19  1  0  0  0  0
  3  8  1  0  0  0  0
  3  1  1  0  0  0  0
  4  9  1  0  0  0  0
  4  5  1  0  0  0  0
  4  3  1  0  0  0  0
  5  6  1  0  0  0  0
  5 12  1  0  0  0  0
  6 14  1  0  0  0  0
  7  6  1  0  0  0  0
  7 16  1  0  0  0  0
  7  8  1  0  0  0  0
  8 36  1  0  0  0  0
  8 17  1  1  0  0  0
 10  4  1  0  0  0  0
 11  5  1  0  0  0  0
 13  6  1  0  0  0  0
 15  7  1  0  0  0  0
 18 23  2  0  0  0  0
 18 19  1  0  0  0  0
 19 20  2  0  0  0  0
 20 21  1  0  0  0  0
 20 26  1  0  0  0  0
 22 25  1  0  0  0  0
 22 21  2  0  0  0  0
 23 22  1  0  0  0  0
 24 18  1  0  0  0  0
 26 31  1  0  0  0  0
 27 26  2  0  0  0  0
 27 28  1  0  0  0  0
 28 29  2  0  0  0  0
 29 30  1  0  0  0  0
 29 34  1  0  0  0  0
 30 35  1  0  0  0  0
 31 30  2  0  0  0  0
 32 27  1  0  0  0  0
 33 28  1  0  0  0  0
 36 43  2  0  0  0  0
 37 39  2  0  0  0  0
 37 36  1  0  0  0  0
 38 37  1  0  0  0  0
 39 41  1  0  0  0  0
 40 39  1  0  0  0  0
 41 43  1  0  0  0  0
 41 42  1  0  0  0  0
M  END
>  <minimizedAffinity>
-5.68361282

$$$$

 OpenBabel03252507213D

 43 46  0  0  1  0  0  0  0  0999 V2000
   39.1490   29.7720   41.4190 C   0  0  0  0  0  0  0  0  0  0  0  0
   38.7220   30.7950   42.0170 O   0  0  0  0  0  0  0  0  0  0  0  0
   39.7470   29.7840   40.1120 N   0  0  0  0  0  0  0  0  0  0  0  0
   40.9350   29.1250   39.6030 C   0  0  0  0  0  0  0  0  0  0  0  0
   40.5670   28.3620   38.3130 C   0  0  0  0  0  0  0  0  0  0  0  0
   40.1310   29.3480   37.2550 C   0  0  0  0  0  0  0  0  0  0  0  0
   39.8910   30.6950   37.8760 C   0  0  0  0  0  0  0  0  0  0  0  0
   39.0520   30.5850   39.1250 C   0  0  2  0  0  0  0  0  0  0  0  0
   41.1990   28.2920   40.3100 H   0  0  0  0  0  0  0  0  0  0  0  0
   41.8010   29.7770   39.4700 H   0  0  0  0  0  0  0  0  0  0  0  0
   41.4500   27.7840   38.0070 H   0  0  0  0  0  0  0  0  0  0  0  0
   39.6980   27.7300   38.5850 H   0  0  0  0  0  0  0  0  0  0  0  0
   40.9680   29.4630   36.5300 H   0  0  0  0  0  0  0  0  0  0  0  0
   39.2510   28.9960   36.6890 H   0  0  0  0  0  0  0  0  0  0  0  0
   40.9180   31.0960   38.1240 H   0  0  0  0  0  0  0  0  0  0  0  0
   39.4630   31.4130   37.1700 H   0  0  0  0  0  0  0  0  0  0  0  0
   38.1430   30.0120   38.8500 H   0  0  0  0  0  0  0  0  0  0  0  0
   40.0250   28.1550   43.0420 C   0  0  0  0  0  0  0  0  0  0  0  0
   39.0280   28.5010   42.0970 C   0  0  0  0  0  0  0  0  0  0  0  0
   37.9890   27.6270   41.8580 C   0  0  0  0  0  0  0  0  0  0  0  0
   37.9600   26.4620   42.5400 N   0  0  0  0  0  0  0  0  0  0  0  0
   38.9080   26.1170   43.4480 C   0  0  0  0  0  0  0  0  0  0  0  0
   39.9210   26.9710   43.6790 N   0  0  0  0  0  0  0  0  0  0  0  0
   40.8260   28.8670   43.2030 H   0  0  0  0  0  0  0  0  0  0  0  0
   38.8540   25.1760   43.9770 H   0  0  0  0  0  0  0  0  0  0  0  0
   36.9820   27.9970   40.8850 C   0  0  0  0  0  0  0  0  0  0  0  0
   36.9930   27.4310   39.6440 C   0  0  0  0  0  0  0  0  0  0  0  0
   36.0230   27.7960   38.7300 C   0  0  0  0  0  0  0  0  0  0  0  0
   35.0310   28.7160   39.0180 C   0  0  0  0  0  0  0  0  0  0  0  0
   35.0680   29.2590   40.2950 C   0  0  0  0  0  0  0  0  0  0  0  0
   36.0270   28.8810   41.1590 N   0  0  0  0  0  0  0  0  0  0  0  0
   37.6830   26.7200   39.2780 H   0  0  0  0  0  0  0  0  0  0  0  0
   35.9750   27.3830   37.7240 H   0  0  0  0  0  0  0  0  0  0  0  0
   34.2810   28.9920   38.2960 H   0  0  0  0  0  0  0  0  0  0  0  0
   34.3230   29.9910   40.5990 H   0  0  0  0  0  0  0  0  0  0  0  0
   38.6250   31.9120   39.6150 C   0  0  0  0  0  0  0  0  0  0  0  0
   39.3610   33.0530   39.9160 C   0  0  0  0  0  0  0  0  0  0  0  0
   40.4370   33.1080   39.8180 H   0  0  0  0  0  0  0  0  0  0  0  0
   38.5510   34.0830   40.3480 C   0  0  0  0  0  0  0  0  0  0  0  0
   38.8550   35.0770   40.6470 H   0  0  0  0  0  0  0  0  0  0  0  0
   37.3170   33.5480   40.3020 N   0  0  0  0  0  0  0  0  0  0  0  0
   36.4230   34.0360   40.5630 H   0  0  0  0  0  0  0  0  0  0  0  0
   37.3410   32.2940   39.8820 N   0  0  0  0  0  0  0  0  0  0  0  0
  1  2  2  0  0  0  0
  1 19  1  0  0  0  0
  3  1  1  0  0  0  0
  4  3  1  0  0  0  0
  4  9  1  0  0  0  0
  5 12  1  0  0  0  0
  5  4  1  0  0  0  0
  6  7  1  0  0  0  0
  6  5  1  0  0  0  0
  7 15  1  0  0  0  0
  7  8  1  0  0  0  0
  8 17  1  6  0  0  0
  8 36  1  0  0  0  0
  8  3  1  0  0  0  0
 10  4  1  0  0  0  0
 11  5  1  0  0  0  0
 13  6  1  0  0  0  0
 14  6  1  0  0  0  0
 16  7  1  0  0  0  0
 18 24  1  0  0  0  0
 18 23  1  0  0  0  0
 19 18  2  0  0  0  0
 20 19  1  0  0  0  0
 20 21  2  0  0  0  0
 21 22  1  0  0  0  0
 22 23  2  0  0  0  0
 22 25  1  0  0  0  0
 26 31  1  0  0  0  0
 26 20  1  0  0  0  0
 27 26  2  0  0  0  0
 28 29  2  0  0  0  0
 28 27  1  0  0  0  0
 29 30  1  0  0  0  0
 30 35  1  0  0  0  0
 30 31  2  0  0  0  0
 32 27  1  0  0  0  0
 33 28  1  0  0  0  0
 34 29  1  0  0  0  0
 36 43  2  0  0  0  0
 36 37  1  0  0  0  0
 37 39  2  0  0  0  0
 38 37  1  0  0  0  0
 39 40  1  0  0  0  0
 41 39  1  0  0  0  0
 41 42  1  0  0  0  0
 43 41  1  0  0  0  0
M  END
>  <minimizedAffinity>
-5.66175795

$$$$

 OpenBabel03252507213D

 43 46  0  0  1  0  0  0  0  0999 V2000
   38.8600   29.3080   39.6520 C   0  0  0  0  0  0  0  0  0  0  0  0
   38.2790   28.4360   38.9520 O   0  0  0  0  0  0  0  0  0  0  0  0
   38.3500   30.6310   39.8900 N   0  0  0  0  0  0  0  0  0  0  0  0
   38.2660   31.4140   41.1080 C   0  0  0  0  0  0  0  0  0  0  0  0
   38.8900   32.8010   40.8530 C   0  0  0  0  0  0  0  0  0  0  0  0
   38.0780   33.5320   39.8110 C   0  0  0  0  0  0  0  0  0  0  0  0
   37.1330   32.5800   39.1350 C   0  0  0  0  0  0  0  0  0  0  0  0
   37.8330   31.3100   38.7190 C   0  0  2  0  0  0  0  0  0  0  0  0
   38.9710   30.9640   41.8590 H   0  0  0  0  0  0  0  0  0  0  0  0
   37.2660   31.4790   41.5440 H   0  0  0  0  0  0  0  0  0  0  0  0
   38.9160   33.3340   41.8140 H   0  0  0  0  0  0  0  0  0  0  0  0
   39.8970   32.5970   40.4360 H   0  0  0  0  0  0  0  0  0  0  0  0
   37.4590   34.2970   40.3340 H   0  0  0  0  0  0  0  0  0  0  0  0
   38.7130   34.0660   39.0820 H   0  0  0  0  0  0  0  0  0  0  0  0
   36.3350   32.3580   39.9030 H   0  0  0  0  0  0  0  0  0  0  0  0
   36.6060   33.0390   38.2930 H   0  0  0  0  0  0  0  0  0  0  0  0
   38.7190   31.6140   38.1250 H   0  0  0  0  0  0  0  0  0  0  0  0
   41.3110   29.3470   39.5940 C   0  0  0  0  0  0  0  0  0  0  0  0
   40.1230   28.9500   40.2560 C   0  0  0  0  0  0  0  0  0  0  0  0
   40.2080   28.2460   41.4380 C   0  0  0  0  0  0  0  0  0  0  0  0
   41.4340   27.9570   41.9270 N   0  0  0  0  0  0  0  0  0  0  0  0
   42.5810   28.3310   41.3040 C   0  0  0  0  0  0  0  0  0  0  0  0
   42.4950   29.0170   40.1510 N   0  0  0  0  0  0  0  0  0  0  0  0
   41.2040   29.8990   38.6680 H   0  0  0  0  0  0  0  0  0  0  0  0
   43.5460   28.0840   41.7230 H   0  0  0  0  0  0  0  0  0  0  0  0
   38.9830   27.8450   42.0970 C   0  0  0  0  0  0  0  0  0  0  0  0
   38.4320   28.6440   43.0570 C   0  0  0  0  0  0  0  0  0  0  0  0
   37.2630   28.2450   43.6740 C   0  0  0  0  0  0  0  0  0  0  0  0
   36.6170   27.0610   43.3610 C   0  0  0  0  0  0  0  0  0  0  0  0
   37.2220   26.2890   42.3790 C   0  0  0  0  0  0  0  0  0  0  0  0
   38.3600   26.7090   41.7980 N   0  0  0  0  0  0  0  0  0  0  0  0
   38.8080   29.5690   43.4030 H   0  0  0  0  0  0  0  0  0  0  0  0
   36.7720   28.8330   44.4460 H   0  0  0  0  0  0  0  0  0  0  0  0
   35.7050   26.7620   43.8510 H   0  0  0  0  0  0  0  0  0  0  0  0
   36.7760   25.3440   42.0760 H   0  0  0  0  0  0  0  0  0  0  0  0
   36.9730   30.4690   37.8620 C   0  0  0  0  0  0  0  0  0  0  0  0
   37.1210   30.0620   36.5400 C   0  0  0  0  0  0  0  0  0  0  0  0
   37.9660   30.3420   35.9250 H   0  0  0  0  0  0  0  0  0  0  0  0
   36.0680   29.2710   36.1300 C   0  0  0  0  0  0  0  0  0  0  0  0
   35.9260   28.8200   35.1560 H   0  0  0  0  0  0  0  0  0  0  0  0
   35.2830   29.2060   37.2200 N   0  0  0  0  0  0  0  0  0  0  0  0
   34.3740   28.6860   37.2950 H   0  0  0  0  0  0  0  0  0  0  0  0
   35.7900   29.8930   38.2310 N   0  0  0  0  0  0  0  0  0  0  0  0
  1  3  1  0  0  0  0
  1 19  1  0  0  0  0
  2  1  2  0  0  0  0
  3  4  1  0  0  0  0
  4 10  1  0  0  0  0
  4  9  1  0  0  0  0
  5  4  1  0  0  0  0
  5 11  1  0  0  0  0
  6 13  1  0  0  0  0
  6  5  1  0  0  0  0
  7  6  1  0  0  0  0
  7 15  1  0  0  0  0
  8 17  1  6  0  0  0
  8  7  1  0  0  0  0
  8  3  1  0  0  0  0
 12  5  1  0  0  0  0
 14  6  1  0  0  0  0
 16  7  1  0  0  0  0
 18 23  2  0  0  0  0
 18 19  1  0  0  0  0
 19 20  2  0  0  0  0
 20 21  1  0  0  0  0
 20 26  1  0  0  0  0
 22 25  1  0  0  0  0
 22 21  2  0  0  0  0
 23 22  1  0  0  0  0
 24 18  1  0  0  0  0
 26 27  1  0  0  0  0
 27 32  1  0  0  0  0
 27 28  2  0  0  0  0
 28 33  1  0  0  0  0
 29 28  1  0  0  0  0
 29 34  1  0  0  0  0
 30 29  2  0  0  0  0
 31 26  2  0  0  0  0
 31 30  1  0  0  0  0
 35 30  1  0  0  0  0
 36 43  2  0  0  0  0
 36  8  1  0  0  0  0
 37 36  1  0  0  0  0
 38 37  1  0  0  0  0
 39 37  2  0  0  0  0
 39 41  1  0  0  0  0
 40 39  1  0  0  0  0
 41 42  1  0  0  0  0
 41 43  1  0  0  0  0
M  END
>  <minimizedAffinity>
-5.62223005

$$$$

 OpenBabel03252507213D

 43 46  0  0  1  0  0  0  0  0999 V2000
   37.5860   27.0480   38.8040 C   0  0  0  0  0  0  0  0  0  0  0  0
   38.6660   26.9550   38.1620 O   0  0  0  0  0  0  0  0  0  0  0  0
   36.9530   28.2910   39.1550 N   0  0  0  0  0  0  0  0  0  0  0  0
   35.5650   28.7070   39.0760 C   0  0  0  0  0  0  0  0  0  0  0  0
   35.1370   29.2750   40.4450 C   0  0  0  0  0  0  0  0  0  0  0  0
   35.9450   30.5130   40.7490 C   0  0  0  0  0  0  0  0  0  0  0  0
   37.1040   30.6170   39.7980 C   0  0  0  0  0  0  0  0  0  0  0  0
   37.8410   29.3060   39.6830 C   0  0  2  0  0  0  0  0  0  0  0  0
   34.9310   27.7830   38.9860 H   0  0  0  0  0  0  0  0  0  0  0  0
   35.3360   29.3870   38.2510 H   0  0  0  0  0  0  0  0  0  0  0  0
   34.0580   29.4800   40.3950 H   0  0  0  0  0  0  0  0  0  0  0  0
   35.4020   28.4910   41.1820 H   0  0  0  0  0  0  0  0  0  0  0  0
   35.2930   31.3990   40.5720 H   0  0  0  0  0  0  0  0  0  0  0  0
   36.2750   30.5520   41.8020 H   0  0  0  0  0  0  0  0  0  0  0  0
   36.6490   30.9030   38.8040 H   0  0  0  0  0  0  0  0  0  0  0  0
   37.7840   31.4350   40.0530 H   0  0  0  0  0  0  0  0  0  0  0  0
   38.0910   28.9880   40.7150 H   0  0  0  0  0  0  0  0  0  0  0  0
   36.2150   25.0950   38.2360 C   0  0  0  0  0  0  0  0  0  0  0  0
   36.9420   25.8200   39.2120 C   0  0  0  0  0  0  0  0  0  0  0  0
   37.0110   25.3400   40.5020 C   0  0  0  0  0  0  0  0  0  0  0  0
   36.3770   24.1820   40.7910 N   0  0  0  0  0  0  0  0  0  0  0  0
   35.6770   23.4760   39.8660 C   0  0  0  0  0  0  0  0  0  0  0  0
   35.6110   23.9480   38.6080 N   0  0  0  0  0  0  0  0  0  0  0  0
   36.1850   25.5040   37.2340 H   0  0  0  0  0  0  0  0  0  0  0  0
   35.1810   22.5530   40.1310 H   0  0  0  0  0  0  0  0  0  0  0  0
   37.7540   26.0970   41.4870 C   0  0  0  0  0  0  0  0  0  0  0  0
   37.0900   26.8240   42.4320 C   0  0  0  0  0  0  0  0  0  0  0  0
   37.8170   27.5400   43.3630 C   0  0  0  0  0  0  0  0  0  0  0  0
   39.2000   27.5550   43.3830 C   0  0  0  0  0  0  0  0  0  0  0  0
   39.8230   26.7980   42.4000 C   0  0  0  0  0  0  0  0  0  0  0  0
   39.0840   26.1130   41.5090 N   0  0  0  0  0  0  0  0  0  0  0  0
   36.0430   26.9130   42.5420 H   0  0  0  0  0  0  0  0  0  0  0  0
   37.3500   28.1390   44.1420 H   0  0  0  0  0  0  0  0  0  0  0  0
   39.7540   28.1180   44.1150 H   0  0  0  0  0  0  0  0  0  0  0  0
   40.9080   26.7570   42.3480 H   0  0  0  0  0  0  0  0  0  0  0  0
   39.1040   29.4550   38.9310 C   0  0  0  0  0  0  0  0  0  0  0  0
   40.4200   29.1960   39.2980 C   0  0  0  0  0  0  0  0  0  0  0  0
   40.7000   28.8180   40.2720 H   0  0  0  0  0  0  0  0  0  0  0  0
   41.3000   29.4790   38.2740 C   0  0  0  0  0  0  0  0  0  0  0  0
   42.3770   29.3720   38.2840 H   0  0  0  0  0  0  0  0  0  0  0  0
   40.4980   29.9120   37.2850 N   0  0  0  0  0  0  0  0  0  0  0  0
   40.8080   30.2260   36.3310 H   0  0  0  0  0  0  0  0  0  0  0  0
   39.2250   29.9060   37.6460 N   0  0  0  0  0  0  0  0  0  0  0  0
  1  3  1  0  0  0  0
  1 19  1  0  0  0  0
  2  1  2  0  0  0  0
  3  8  1  0  0  0  0
  4  3  1  0  0  0  0
  4  5  1  0  0  0  0
  5  6  1  0  0  0  0
  5 12  1  0  0  0  0
  6 14  1  0  0  0  0
  7 16  1  0  0  0  0
  7  6  1  0  0  0  0
  8  7  1  0  0  0  0
  8 17  1  1  0  0  0
  9  4  1  0  0  0  0
 10  4  1  0  0  0  0
 11  5  1  0  0  0  0
 13  6  1  0  0  0  0
 15  7  1  0  0  0  0
 18 23  2  0  0  0  0
 18 19  1  0  0  0  0
 19 20  2  0  0  0  0
 20 21  1  0  0  0  0
 20 26  1  0  0  0  0
 22 25  1  0  0  0  0
 22 21  2  0  0  0  0
 23 22  1  0  0  0  0
 24 18  1  0  0  0  0
 26 31  2  0  0  0  0
 26 27  1  0  0  0  0
 27 32  1  0  0  0  0
 27 28  2  0  0  0  0
 28 29  1  0  0  0  0
 28 33  1  0  0  0  0
 29 34  1  0  0  0  0
 30 29  2  0  0  0  0
 31 30  1  0  0  0  0
 35 30  1  0  0  0  0
 36 37  1  0  0  0  0
 36  8  1  0  0  0  0
 37 38  1  0  0  0  0
 39 40  1  0  0  0  0
 39 37  2  0  0  0  0
 41 43  1  0  0  0  0
 41 39  1  0  0  0  0
 42 41  1  0  0  0  0
 43 36  2  0  0  0  0
M  END
>  <minimizedAffinity>
-5.39062834

$$$$

 OpenBabel03252507213D

 43 46  0  0  1  0  0  0  0  0999 V2000
   39.1590   29.1430   39.9370 C   0  0  0  0  0  0  0  0  0  0  0  0
   40.4010   29.3430   39.8720 O   0  0  0  0  0  0  0  0  0  0  0  0
   38.4480   28.8280   41.1470 N   0  0  0  0  0  0  0  0  0  0  0  0
   37.1970   29.3370   41.6750 C   0  0  0  0  0  0  0  0  0  0  0  0
   36.2850   28.1450   42.0340 C   0  0  0  0  0  0  0  0  0  0  0  0
   36.9270   27.3390   43.1370 C   0  0  0  0  0  0  0  0  0  0  0  0
   38.3600   27.7540   43.3120 C   0  0  0  0  0  0  0  0  0  0  0  0
   39.0770   27.8290   41.9870 C   0  0  2  0  0  0  0  0  0  0  0  0
   36.6380   29.8260   40.8310 H   0  0  0  0  0  0  0  0  0  0  0  0
   37.3010   30.0460   42.5000 H   0  0  0  0  0  0  0  0  0  0  0  0
   35.3080   28.5530   42.3260 H   0  0  0  0  0  0  0  0  0  0  0  0
   36.2470   27.5210   41.1180 H   0  0  0  0  0  0  0  0  0  0  0  0
   36.3950   27.5770   44.0870 H   0  0  0  0  0  0  0  0  0  0  0  0
   36.8330   26.2510   42.9720 H   0  0  0  0  0  0  0  0  0  0  0  0
   38.3170   28.7740   43.7970 H   0  0  0  0  0  0  0  0  0  0  0  0
   38.8980   27.1180   44.0210 H   0  0  0  0  0  0  0  0  0  0  0  0
   38.9150   26.8560   41.4800 H   0  0  0  0  0  0  0  0  0  0  0  0
   38.0130   28.0330   38.0740 C   0  0  0  0  0  0  0  0  0  0  0  0
   38.4000   29.2380   38.7110 C   0  0  0  0  0  0  0  0  0  0  0  0
   38.0470   30.4460   38.1480 C   0  0  0  0  0  0  0  0  0  0  0  0
   37.3360   30.4360   36.9990 N   0  0  0  0  0  0  0  0  0  0  0  0
   36.9580   29.2890   36.3790 C   0  0  0  0  0  0  0  0  0  0  0  0
   37.3040   28.1120   36.9300 N   0  0  0  0  0  0  0  0  0  0  0  0
   38.3090   27.1040   38.5470 H   0  0  0  0  0  0  0  0  0  0  0  0
   36.3890   29.3170   35.4600 H   0  0  0  0  0  0  0  0  0  0  0  0
   38.4560   31.6670   38.8100 C   0  0  0  0  0  0  0  0  0  0  0  0
   37.5810   32.3290   39.6210 C   0  0  0  0  0  0  0  0  0  0  0  0
   37.9900   33.4920   40.2450 C   0  0  0  0  0  0  0  0  0  0  0  0
   39.2580   34.0220   40.0840 C   0  0  0  0  0  0  0  0  0  0  0  0
   40.1060   33.3070   39.2490 C   0  0  0  0  0  0  0  0  0  0  0  0
   39.6740   32.1780   38.6580 N   0  0  0  0  0  0  0  0  0  0  0  0
   36.5850   32.0510   39.8380 H   0  0  0  0  0  0  0  0  0  0  0  0
   37.3430   34.0680   40.9030 H   0  0  0  0  0  0  0  0  0  0  0  0
   39.5640   34.9290   40.5760 H   0  0  0  0  0  0  0  0  0  0  0  0
   41.1200   33.6570   39.0700 H   0  0  0  0  0  0  0  0  0  0  0  0
   40.5320   28.0170   42.1640 C   0  0  0  0  0  0  0  0  0  0  0  0
   41.2510   29.0210   42.8040 C   0  0  0  0  0  0  0  0  0  0  0  0
   40.7840   29.8640   43.2940 H   0  0  0  0  0  0  0  0  0  0  0  0
   42.6110   28.8000   42.7290 C   0  0  0  0  0  0  0  0  0  0  0  0
   43.4000   29.4170   43.1380 H   0  0  0  0  0  0  0  0  0  0  0  0
   42.7020   27.6500   42.0370 N   0  0  0  0  0  0  0  0  0  0  0  0
   43.5920   27.1560   41.7770 H   0  0  0  0  0  0  0  0  0  0  0  0
   41.5110   27.1830   41.7020 N   0  0  0  0  0  0  0  0  0  0  0  0
  1  3  1  0  0  0  0
  2  1  2  0  0  0  0
  3  4  1  0  0  0  0
  3  8  1  0  0  0  0
  4  5  1  0  0  0  0
  4 10  1  0  0  0  0
  5 11  1  0  0  0  0
  5  6  1  0  0  0  0
  6  7  1  0  0  0  0
  6 13  1  0  0  0  0
  7 15  1  0  0  0  0
  7 16  1  0  0  0  0
  8 17  1  6  0  0  0
  8 36  1  0  0  0  0
  8  7  1  0  0  0  0
  9  4  1  0  0  0  0
 12  5  1  0  0  0  0
 14  6  1  0  0  0  0
 18 24  1  0  0  0  0
 18 19  1  0  0  0  0
 19  1  1  0  0  0  0
 20 19  2  0  0  0  0
 20 26  1  0  0  0  0
 21 20  1  0  0  0  0
 22 23  1  0  0  0  0
 22 21  2  0  0  0  0
 23 18  2  0  0  0  0
 25 22  1  0  0  0  0
 26 27  1  0  0  0  0
 27 32  1  0  0  0  0
 27 28  2  0  0  0  0
 28 33  1  0  0  0  0
 29 28  1  0  0  0  0
 29 34  1  0  0  0  0
 30 29  2  0  0  0  0
 31 26  2  0  0  0  0
 31 30  1  0  0  0  0
 35 30  1  0  0  0  0
 36 37  1  0  0  0  0
 37 38  1  0  0  0  0
 39 37  2  0  0  0  0
 39 40  1  0  0  0  0
 41 39  1  0  0  0  0
 42 41  1  0  0  0  0
 43 41  1  0  0  0  0
 43 36  2  0  0  0  0
M  END
>  <minimizedAffinity>
-5.37284517

$$$$

 OpenBabel03252507213D

 43 46  0  0  1  0  0  0  0  0999 V2000
   39.2180   27.3800   39.9770 C   0  0  0  0  0  0  0  0  0  0  0  0
   39.1850   26.2670   39.3880 O   0  0  0  0  0  0  0  0  0  0  0  0
   38.8320   27.5870   41.3470 N   0  0  0  0  0  0  0  0  0  0  0  0
   39.4690   28.3400   42.4110 C   0  0  0  0  0  0  0  0  0  0  0  0
   38.4280   29.2910   43.0390 C   0  0  0  0  0  0  0  0  0  0  0  0
   37.3290   28.4770   43.6800 C   0  0  0  0  0  0  0  0  0  0  0  0
   37.4250   27.0450   43.2370 C   0  0  0  0  0  0  0  0  0  0  0  0
   37.5980   26.9400   41.7420 C   0  0  2  0  0  0  0  0  0  0  0  0
   40.1990   29.0540   41.9420 H   0  0  0  0  0  0  0  0  0  0  0  0
   39.9840   27.7330   43.1590 H   0  0  0  0  0  0  0  0  0  0  0  0
   38.9560   29.9270   43.7640 H   0  0  0  0  0  0  0  0  0  0  0  0
   37.9980   29.8560   42.1880 H   0  0  0  0  0  0  0  0  0  0  0  0
   37.4900   28.4940   44.7820 H   0  0  0  0  0  0  0  0  0  0  0  0
   36.3270   28.8990   43.4870 H   0  0  0  0  0  0  0  0  0  0  0  0
   38.3300   26.6290   43.7700 H   0  0  0  0  0  0  0  0  0  0  0  0
   36.5810   26.4410   43.5840 H   0  0  0  0  0  0  0  0  0  0  0  0
   36.7810   27.5340   41.2840 H   0  0  0  0  0  0  0  0  0  0  0  0
   41.0620   28.6350   38.9580 C   0  0  0  0  0  0  0  0  0  0  0  0
   39.6750   28.5250   39.2220 C   0  0  0  0  0  0  0  0  0  0  0  0
   38.8170   29.4990   38.7580 C   0  0  0  0  0  0  0  0  0  0  0  0
   39.3360   30.5330   38.0600 N   0  0  0  0  0  0  0  0  0  0  0  0
   40.6630   30.6520   37.7990 C   0  0  0  0  0  0  0  0  0  0  0  0
   41.4980   29.7000   38.2540 N   0  0  0  0  0  0  0  0  0  0  0  0
   41.7040   27.8500   39.3380 H   0  0  0  0  0  0  0  0  0  0  0  0
   41.0460   31.4920   37.2380 H   0  0  0  0  0  0  0  0  0  0  0  0
   37.4030   29.3720   39.0420 C   0  0  0  0  0  0  0  0  0  0  0  0
   36.8220   30.1700   39.9840 C   0  0  0  0  0  0  0  0  0  0  0  0
   35.4710   30.0340   40.2410 C   0  0  0  0  0  0  0  0  0  0  0  0
   34.6720   29.1170   39.5800 C   0  0  0  0  0  0  0  0  0  0  0  0
   35.3160   28.3320   38.6330 C   0  0  0  0  0  0  0  0  0  0  0  0
   36.6320   28.4920   38.4080 N   0  0  0  0  0  0  0  0  0  0  0  0
   37.2990   30.9090   40.5690 H   0  0  0  0  0  0  0  0  0  0  0  0
   34.9470   30.6370   40.9780 H   0  0  0  0  0  0  0  0  0  0  0  0
   33.6200   29.0220   39.7900 H   0  0  0  0  0  0  0  0  0  0  0  0
   34.7570   27.5880   38.0700 H   0  0  0  0  0  0  0  0  0  0  0  0
   37.4690   25.5450   41.2750 C   0  0  0  0  0  0  0  0  0  0  0  0
   38.1400   24.3880   41.6570 C   0  0  0  0  0  0  0  0  0  0  0  0
   38.9110   24.3750   42.4160 H   0  0  0  0  0  0  0  0  0  0  0  0
   37.7000   23.2870   40.9530 C   0  0  0  0  0  0  0  0  0  0  0  0
   38.0460   22.2660   41.0470 H   0  0  0  0  0  0  0  0  0  0  0  0
   36.7550   23.7940   40.1410 N   0  0  0  0  0  0  0  0  0  0  0  0
   36.1840   23.2520   39.4440 H   0  0  0  0  0  0  0  0  0  0  0  0
   36.6080   25.0970   40.3120 N   0  0  0  0  0  0  0  0  0  0  0  0
  1  3  1  0  0  0  0
  2  1  2  0  0  0  0
  3  8  1  0  0  0  0
  3  4  1  0  0  0  0
  4  5  1  0  0  0  0
  4 10  1  0  0  0  0
  5  6  1  0  0  0  0
  5 11  1  0  0  0  0
  6 13  1  0  0  0  0
  7 16  1  0  0  0  0
  7  6  1  0  0  0  0
  7 15  1  0  0  0  0
  8 17  1  6  0  0  0
  8  7  1  0  0  0  0
  9  4  1  0  0  0  0
 12  5  1  0  0  0  0
 14  6  1  0  0  0  0
 18 19  1  0  0  0  0
 18 24  1  0  0  0  0
 19  1  1  0  0  0  0
 20 26  1  0  0  0  0
 20 19  2  0  0  0  0
 21 20  1  0  0  0  0
 22 21  2  0  0  0  0
 22 23  1  0  0  0  0
 23 18  2  0  0  0  0
 25 22  1  0  0  0  0
 26 27  1  0  0  0  0
 27 28  2  0  0  0  0
 27 32  1  0  0  0  0
 28 33  1  0  0  0  0
 29 34  1  0  0  0  0
 29 28  1  0  0  0  0
 30 29  2  0  0  0  0
 31 30  1  0  0  0  0
 31 26  2  0  0  0  0
 35 30  1  0  0  0  0
 36 37  1  0  0  0  0
 36  8  1  0  0  0  0
 37 38  1  0  0  0  0
 39 40  1  0  0  0  0
 39 37  2  0  0  0  0
 41 43  1  0  0  0  0
 41 39  1  0  0  0  0
 42 41  1  0  0  0  0
 43 36  2  0  0  0  0
M  END
>  <minimizedAffinity>
-5.35688734

$$$$

 OpenBabel03252507213D

 43 46  0  0  1  0  0  0  0  0999 V2000
   37.5780   27.0650   40.2290 C   0  0  0  0  0  0  0  0  0  0  0  0
   37.2880   27.7600   41.2390 O   0  0  0  0  0  0  0  0  0  0  0  0
   37.8690   27.6030   38.9280 N   0  0  0  0  0  0  0  0  0  0  0  0
   38.9180   27.2820   37.9780 C   0  0  0  0  0  0  0  0  0  0  0  0
   38.2760   27.0080   36.6020 C   0  0  0  0  0  0  0  0  0  0  0  0
   37.6070   28.2660   36.1020 C   0  0  0  0  0  0  0  0  0  0  0  0
   37.5030   29.2700   37.2150 C   0  0  0  0  0  0  0  0  0  0  0  0
   36.9650   28.6400   38.4760 C   0  0  2  0  0  0  0  0  0  0  0  0
   39.3400   26.2770   38.2540 H   0  0  0  0  0  0  0  0  0  0  0  0
   39.7270   28.0130   37.9240 H   0  0  0  0  0  0  0  0  0  0  0  0
   39.0730   26.6610   35.9290 H   0  0  0  0  0  0  0  0  0  0  0  0
   37.4950   26.2440   36.7900 H   0  0  0  0  0  0  0  0  0  0  0  0
   38.2600   28.7100   35.3160 H   0  0  0  0  0  0  0  0  0  0  0  0
   36.6260   28.0640   35.6380 H   0  0  0  0  0  0  0  0  0  0  0  0
   38.5560   29.6440   37.3780 H   0  0  0  0  0  0  0  0  0  0  0  0
   36.9220   30.1520   36.9310 H   0  0  0  0  0  0  0  0  0  0  0  0
   36.0220   28.1260   38.1990 H   0  0  0  0  0  0  0  0  0  0  0  0
   36.6070   24.8590   39.7750 C   0  0  0  0  0  0  0  0  0  0  0  0
   37.6220   25.6290   40.3940 C   0  0  0  0  0  0  0  0  0  0  0  0
   38.6040   24.9950   41.1240 C   0  0  0  0  0  0  0  0  0  0  0  0
   38.5630   23.6480   41.2220 N   0  0  0  0  0  0  0  0  0  0  0  0
   37.5980   22.8970   40.6340 C   0  0  0  0  0  0  0  0  0  0  0  0
   36.6400   23.5190   39.9230 N   0  0  0  0  0  0  0  0  0  0  0  0
   35.8530   25.3930   39.2090 H   0  0  0  0  0  0  0  0  0  0  0  0
   37.5940   21.8200   40.7320 H   0  0  0  0  0  0  0  0  0  0  0  0
   39.6300   25.7990   41.7540 C   0  0  0  0  0  0  0  0  0  0  0  0
   39.5810   26.0390   43.0950 C   0  0  0  0  0  0  0  0  0  0  0  0
   40.5690   26.8090   43.6790 C   0  0  0  0  0  0  0  0  0  0  0  0
   41.6170   27.3530   42.9580 C   0  0  0  0  0  0  0  0  0  0  0  0
   41.6170   27.0770   41.5970 C   0  0  0  0  0  0  0  0  0  0  0  0
   40.6400   26.3230   41.0640 N   0  0  0  0  0  0  0  0  0  0  0  0
   38.8460   25.6970   43.7730 H   0  0  0  0  0  0  0  0  0  0  0  0
   40.5880   27.0390   44.7420 H   0  0  0  0  0  0  0  0  0  0  0  0
   42.3810   27.9520   43.4250 H   0  0  0  0  0  0  0  0  0  0  0  0
   42.4080   27.4680   40.9610 H   0  0  0  0  0  0  0  0  0  0  0  0
   36.6490   29.6560   39.5010 C   0  0  0  0  0  0  0  0  0  0  0  0
   37.3740   30.7540   39.9520 C   0  0  0  0  0  0  0  0  0  0  0  0
   38.3500   31.0170   39.5670 H   0  0  0  0  0  0  0  0  0  0  0  0
   36.6950   31.4440   40.9340 C   0  0  0  0  0  0  0  0  0  0  0  0
   37.0220   32.3330   41.4590 H   0  0  0  0  0  0  0  0  0  0  0  0
   35.5510   30.7500   41.0690 N   0  0  0  0  0  0  0  0  0  0  0  0
   34.7680   30.9740   41.7340 H   0  0  0  0  0  0  0  0  0  0  0  0
   35.5070   29.7120   40.2500 N   0  0  0  0  0  0  0  0  0  0  0  0
  1 19  1  0  0  0  0
  1  2  2  0  0  0  0
  3  1  1  0  0  0  0
  4  9  1  0  0  0  0
  4  3  1  0  0  0  0
  5 12  1  0  0  0  0
  5  4  1  0  0  0  0
  6  5  1  0  0  0  0
  6  7  1  0  0  0  0
  7 15  1  0  0  0  0
  7  8  1  0  0  0  0
  8 17  1  6  0  0  0
  8  3  1  0  0  0  0
  8 36  1  0  0  0  0
 10  4  1  0  0  0  0
 11  5  1  0  0  0  0
 13  6  1  0  0  0  0
 14  6  1  0  0  0  0
 16  7  1  0  0  0  0
 18 23  2  0  0  0  0
 18 19  1  0  0  0  0
 19 20  2  0  0  0  0
 20 21  1  0  0  0  0
 20 26  1  0  0  0  0
 22 25  1  0  0  0  0
 22 21  2  0  0  0  0
 23 22  1  0  0  0  0
 24 18  1  0  0  0  0
 26 27  1  0  0  0  0
 27 28  2  0  0  0  0
 27 32  1  0  0  0  0
 28 33  1  0  0  0  0
 29 34  1  0  0  0  0
 29 28  1  0  0  0  0
 30 29  2  0  0  0  0
 31 30  1  0  0  0  0
 31 26  2  0  0  0  0
 35 30  1  0  0  0  0
 36 37  1  0  0  0  0
 36 43  2  0  0  0  0
 37 39  2  0  0  0  0
 38 37  1  0  0  0  0
 39 41  1  0  0  0  0
 39 40  1  0  0  0  0
 41 42  1  0  0  0  0
 43 41  1  0  0  0  0
M  END
>  <minimizedAffinity>
-5.34869289

$$$$

 OpenBabel03252507213D

 43 46  0  0  1  0  0  0  0  0999 V2000
   37.9730   28.7960   38.9060 C   0  0  0  0  0  0  0  0  0  0  0  0
   37.9240   29.9550   38.4150 O   0  0  0  0  0  0  0  0  0  0  0  0
   37.5690   28.4630   40.2460 N   0  0  0  0  0  0  0  0  0  0  0  0
   36.7730   27.3630   40.7540 C   0  0  0  0  0  0  0  0  0  0  0  0
   37.5420   26.6800   41.9040 C   0  0  0  0  0  0  0  0  0  0  0  0
   37.7090   27.6570   43.0430 C   0  0  0  0  0  0  0  0  0  0  0  0
   37.3670   29.0460   42.5840 C   0  0  0  0  0  0  0  0  0  0  0  0
   38.0350   29.3730   41.2720 C   0  0  2  0  0  0  0  0  0  0  0  0
   36.7490   26.5600   39.9670 H   0  0  0  0  0  0  0  0  0  0  0  0
   35.7510   27.6270   41.0340 H   0  0  0  0  0  0  0  0  0  0  0  0
   36.9740   25.7870   42.1980 H   0  0  0  0  0  0  0  0  0  0  0  0
   38.5430   26.4480   41.4890 H   0  0  0  0  0  0  0  0  0  0  0  0
   36.9800   27.3820   43.8390 H   0  0  0  0  0  0  0  0  0  0  0  0
   38.7170   27.6110   43.4920 H   0  0  0  0  0  0  0  0  0  0  0  0
   36.2430   29.0520   42.4680 H   0  0  0  0  0  0  0  0  0  0  0  0
   37.5840   29.8040   43.3430 H   0  0  0  0  0  0  0  0  0  0  0  0
   39.1160   29.1610   41.4030 H   0  0  0  0  0  0  0  0  0  0  0  0
   39.7870   27.2660   38.2890 C   0  0  0  0  0  0  0  0  0  0  0  0
   38.4690   27.7310   38.0640 C   0  0  0  0  0  0  0  0  0  0  0  0
   37.7100   27.1620   37.0630 C   0  0  0  0  0  0  0  0  0  0  0  0
   38.2580   26.1710   36.3270 N   0  0  0  0  0  0  0  0  0  0  0  0
   39.5200   25.7150   36.5310 C   0  0  0  0  0  0  0  0  0  0  0  0
   40.2580   26.2720   37.5080 N   0  0  0  0  0  0  0  0  0  0  0  0
   40.3520   27.7370   39.0840 H   0  0  0  0  0  0  0  0  0  0  0  0
   39.9280   24.9190   35.9230 H   0  0  0  0  0  0  0  0  0  0  0  0
   36.3660   27.6540   36.8450 C   0  0  0  0  0  0  0  0  0  0  0  0
   35.3240   27.1260   37.5490 C   0  0  0  0  0  0  0  0  0  0  0  0
   34.0490   27.6090   37.3270 C   0  0  0  0  0  0  0  0  0  0  0  0
   33.7770   28.6140   36.4170 C   0  0  0  0  0  0  0  0  0  0  0  0
   34.8740   29.1150   35.7300 C   0  0  0  0  0  0  0  0  0  0  0  0
   36.1020   28.6220   35.9710 N   0  0  0  0  0  0  0  0  0  0  0  0
   35.3730   26.3560   38.2710 H   0  0  0  0  0  0  0  0  0  0  0  0
   33.1740   27.2310   37.8530 H   0  0  0  0  0  0  0  0  0  0  0  0
   32.7770   28.9820   36.2530 H   0  0  0  0  0  0  0  0  0  0  0  0
   34.7440   29.9080   34.9960 H   0  0  0  0  0  0  0  0  0  0  0  0
   37.8880   30.8020   40.9260 C   0  0  0  0  0  0  0  0  0  0  0  0
   38.8400   31.7980   40.7350 C   0  0  0  0  0  0  0  0  0  0  0  0
   39.9040   31.6250   40.8250 H   0  0  0  0  0  0  0  0  0  0  0  0
   38.2560   33.0070   40.4210 C   0  0  0  0  0  0  0  0  0  0  0  0
   38.7560   33.9460   40.2210 H   0  0  0  0  0  0  0  0  0  0  0  0
   36.9400   32.7290   40.4250 N   0  0  0  0  0  0  0  0  0  0  0  0
   36.1640   33.4100   40.2280 H   0  0  0  0  0  0  0  0  0  0  0  0
   36.7080   31.4590   40.7160 N   0  0  0  0  0  0  0  0  0  0  0  0
  1  3  1  0  0  0  0
  2  1  2  0  0  0  0
  3  4  1  0  0  0  0
  3  8  1  0  0  0  0
  4 10  1  0  0  0  0
  4  5  1  0  0  0  0
  5 11  1  0  0  0  0
  5  6  1  0  0  0  0
  6 14  1  0  0  0  0
  6 13  1  0  0  0  0
  7  6  1  0  0  0  0
  7 16  1  0  0  0  0
  8 17  1  1  0  0  0
  8  7  1  0  0  0  0
  9  4  1  0  0  0  0
 12  5  1  0  0  0  0
 15  7  1  0  0  0  0
 18 24  1  0  0  0  0
 19 18  1  0  0  0  0
 19  1  1  0  0  0  0
 20 19  2  0  0  0  0
 21 22  2  0  0  0  0
 21 20  1  0  0  0  0
 22 23  1  0  0  0  0
 23 18  2  0  0  0  0
 25 22  1  0  0  0  0
 26 20  1  0  0  0  0
 26 27  1  0  0  0  0
 27 32  1  0  0  0  0
 28 27  2  0  0  0  0
 28 33  1  0  0  0  0
 29 28  1  0  0  0  0
 30 31  1  0  0  0  0
 30 29  2  0  0  0  0
 31 26  2  0  0  0  0
 34 29  1  0  0  0  0
 35 30  1  0  0  0  0
 36  8  1  0  0  0  0
 37 38  1  0  0  0  0
 37 36  1  0  0  0  0
 39 41  1  0  0  0  0
 39 37  2  0  0  0  0
 40 39  1  0  0  0  0
 41 43  1  0  0  0  0
 42 41  1  0  0  0  0
 43 36  2  0  0  0  0
M  END
>  <minimizedAffinity>
-5.27863407

$$$$
