
 OpenBabel03252508453D

 44 46  0  0  0  0  0  0  0  0999 V2000
   43.0220   32.4950   41.6750 C   0  0  0  0  0  0  0  0  0  0  0  0
   43.4840   32.0340   40.7800 H   0  0  0  0  0  0  0  0  0  0  0  0
   42.0650   32.9450   41.3230 H   0  0  0  0  0  0  0  0  0  0  0  0
   43.6180   34.9220   41.8800 C   0  0  0  0  0  0  0  0  0  0  0  0
   43.8840   33.5930   42.2020 C   0  0  0  0  0  0  0  0  0  0  0  0
   44.9580   33.3110   43.0140 C   0  0  0  0  0  0  0  0  0  0  0  0
   45.7430   34.3190   43.4930 C   0  0  0  0  0  0  0  0  0  0  0  0
   45.5100   35.6350   43.1980 C   0  0  0  0  0  0  0  0  0  0  0  0
   44.4240   35.8740   42.3800 C   0  0  0  0  0  0  0  0  0  0  0  0
   45.1210   32.2480   43.2340 H   0  0  0  0  0  0  0  0  0  0  0  0
   46.5560   33.9740   44.1200 H   0  0  0  0  0  0  0  0  0  0  0  0
   46.1470   36.4040   43.5910 H   0  0  0  0  0  0  0  0  0  0  0  0
   44.1910   36.8970   42.1120 H   0  0  0  0  0  0  0  0  0  0  0  0
   40.1750   35.6850   40.5390 C   0  0  0  0  0  0  0  0  0  0  0  0
   41.2110   35.4800   41.4700 C   0  0  0  0  0  0  0  0  0  0  0  0
   42.4720   35.1570   41.0200 C   0  0  0  0  0  0  0  0  0  0  0  0
   42.6520   35.0520   39.6680 N   0  0  0  0  0  0  0  0  0  0  0  0
   41.6480   35.2530   38.7790 C   0  0  0  0  0  0  0  0  0  0  0  0
   40.4100   35.5700   39.2380 N   0  0  0  0  0  0  0  0  0  0  0  0
   39.2110   35.9350   40.9630 H   0  0  0  0  0  0  0  0  0  0  0  0
   41.1170   35.5510   42.5500 H   0  0  0  0  0  0  0  0  0  0  0  0
   41.9130   35.1420   37.7370 H   0  0  0  0  0  0  0  0  0  0  0  0
   42.7170   31.4650   42.6160 N   0  0  0  0  0  0  0  0  0  0  0  0
   43.2750   30.5900   42.4930 H   0  0  0  0  0  0  0  0  0  0  0  0
   41.0460   31.0430   42.6120 S   0  0  0  0  0  0  0  0  0  0  0  0
   40.1890   32.2530   42.3900 O   0  0  0  0  0  0  0  0  0  0  0  0
   39.2730   32.3040   42.7600 H   0  0  0  0  0  0  0  0  0  0  0  0
   40.6680   30.3510   43.8730 O   0  0  0  0  0  0  0  0  0  0  0  0
   41.2040   29.6430   44.3370 H   0  0  0  0  0  0  0  0  0  0  0  0
   40.8090   29.9770   41.3220 O   0  0  0  0  0  0  0  0  0  0  0  0
   40.1610   28.8530   41.8190 C   0  0  0  0  0  0  0  0  0  0  0  0
   39.2710   28.6610   41.1580 H   0  0  0  0  0  0  0  0  0  0  0  0
   39.8260   28.9180   42.8510 H   0  0  0  0  0  0  0  0  0  0  0  0
   41.1010   27.6440   41.6890 C   0  0  0  0  0  0  0  0  0  0  0  0
   40.7230   27.0010   40.8420 H   0  0  0  0  0  0  0  0  0  0  0  0
   42.1200   27.9660   41.4890 H   0  0  0  0  0  0  0  0  0  0  0  0
   40.9810   26.8740   42.9530 C   0  0  0  0  0  0  0  0  0  0  0  0
   40.9760   25.5370   43.2450 C   0  0  0  0  0  0  0  0  0  0  0  0
   41.0720   24.7950   42.4790 H   0  0  0  0  0  0  0  0  0  0  0  0
   40.8310   25.4450   44.6240 C   0  0  0  0  0  0  0  0  0  0  0  0
   40.7920   24.5040   45.1590 H   0  0  0  0  0  0  0  0  0  0  0  0
   40.7520   26.6920   45.1300 N   0  0  0  0  0  0  0  0  0  0  0  0
   40.6410   26.9700   46.1290 H   0  0  0  0  0  0  0  0  0  0  0  0
   40.8440   27.5190   44.1260 N   0  0  0  0  0  0  0  0  0  0  0  0
  1  5  1  0  0  0  0
  1 23  1  0  0  0  0
  2  1  1  0  0  0  0
  3  1  1  0  0  0  0
  4  5  2  0  0  0  0
  4  9  1  0  0  0  0
  5  6  1  0  0  0  0
  6 10  1  0  0  0  0
  6  7  2  0  0  0  0
  7 11  1  0  0  0  0
  8  7  1  0  0  0  0
  8 12  1  0  0  0  0
  9  8  2  0  0  0  0
 13  9  1  0  0  0  0
 14 20  1  0  0  0  0
 14 15  1  0  0  0  0
 15 21  1  0  0  0  0
 16 15  2  0  0  0  0
 16  4  1  0  0  0  0
 17 16  1  0  0  0  0
 18 19  1  0  0  0  0
 18 17  2  0  0  0  0
 19 14  2  0  0  0  0
 22 18  1  0  0  0  0
 24 23  1  0  0  0  0
 25 23  1  0  0  0  0
 25 28  1  0  0  0  0
 26 25  1  0  0  0  0
 26 27  1  0  0  0  0
 28 29  1  0  0  0  0
 30 31  1  0  0  0  0
 30 25  1  0  0  0  0
 31 33  1  0  0  0  0
 32 31  1  0  0  0  0
 34 31  1  0  0  0  0
 34 37  1  0  0  0  0
 35 34  1  0  0  0  0
 36 34  1  0  0  0  0
 37 38  1  0  0  0  0
 37 44  2  0  0  0  0
 38 40  2  0  0  0  0
 39 38  1  0  0  0  0
 40 42  1  0  0  0  0
 40 41  1  0  0  0  0
 42 43  1  0  0  0  0
 44 42  1  0  0  0  0
M  END
>  <minimizedAffinity>
-5.06638718

>  <minimizedRMSD>
1.1130172

$$$$
