
 OpenBabel03252508353D

 30 32  0  0  0  0  0  0  0  0999 V2000
   46.5050   33.8970   40.2390 C   0  0  0  0  0  0  0  0  0  0  0  0
   47.8560   33.9240   40.0310 C   0  0  0  0  0  0  0  0  0  0  0  0
   48.6140   34.6470   40.9210 C   0  0  0  0  0  0  0  0  0  0  0  0
   48.0760   35.3330   41.9940 C   0  0  0  0  0  0  0  0  0  0  0  0
   46.6960   35.2730   42.1610 C   0  0  0  0  0  0  0  0  0  0  0  0
   45.9100   34.5580   41.2870 C   0  0  0  0  0  0  0  0  0  0  0  0
   49.6840   34.6620   40.7460 H   0  0  0  0  0  0  0  0  0  0  0  0
   48.6830   35.8980   42.6870 H   0  0  0  0  0  0  0  0  0  0  0  0
   46.2360   35.7970   42.9890 H   0  0  0  0  0  0  0  0  0  0  0  0
   48.8000   32.9240   36.5130 C   0  0  0  0  0  0  0  0  0  0  0  0
   48.2690   33.6720   37.5820 C   0  0  0  0  0  0  0  0  0  0  0  0
   48.3850   33.1930   38.8950 C   0  0  0  0  0  0  0  0  0  0  0  0
   49.0230   32.0060   39.0280 N   0  0  0  0  0  0  0  0  0  0  0  0
   49.5230   31.3030   38.0180 C   0  0  0  0  0  0  0  0  0  0  0  0
   49.4070   31.7730   36.7490 N   0  0  0  0  0  0  0  0  0  0  0  0
   48.6570   33.4490   35.2110 N   0  0  0  0  0  0  0  0  0  0  0  0
   47.7650   34.6180   37.4260 H   0  0  0  0  0  0  0  0  0  0  0  0
   50.0280   30.3570   38.1610 H   0  0  0  0  0  0  0  0  0  0  0  0
   48.5190   34.4920   35.0680 H   0  0  0  0  0  0  0  0  0  0  0  0
   48.6940   32.7580   34.4140 H   0  0  0  0  0  0  0  0  0  0  0  0
   44.4620   34.4920   41.4590 C   0  0  0  0  0  0  0  0  0  0  0  0
   43.5430   35.4610   41.1150 C   0  0  0  0  0  0  0  0  0  0  0  0
   43.7170   36.4280   40.6650 H   0  0  0  0  0  0  0  0  0  0  0  0
   42.2790   35.0130   41.4410 C   0  0  0  0  0  0  0  0  0  0  0  0
   41.2890   35.4390   41.3480 H   0  0  0  0  0  0  0  0  0  0  0  0
   42.4490   33.7960   41.9700 N   0  0  0  0  0  0  0  0  0  0  0  0
   41.8110   33.0460   42.3690 H   0  0  0  0  0  0  0  0  0  0  0  0
   43.7510   33.4710   41.9870 N   0  0  0  0  0  0  0  0  0  0  0  0
   44.9410   32.5430   38.6270 N   0  0  0  0  0  0  0  0  0  0  0  0
   45.6530   33.1600   39.3470 C   0  0  0  0  0  0  0  0  0  0  0  0
  1  6  1  0  0  0  0
  2  1  2  0  0  0  0
  2  3  1  0  0  0  0
  3  4  2  0  0  0  0
  4  5  1  0  0  0  0
  4  8  1  0  0  0  0
  5  9  1  0  0  0  0
  6 21  1  0  0  0  0
  6  5  2  0  0  0  0
  7  3  1  0  0  0  0
 10 15  2  0  0  0  0
 10 11  1  0  0  0  0
 11 12  2  0  0  0  0
 12 13  1  0  0  0  0
 12  2  1  0  0  0  0
 14 18  1  0  0  0  0
 14 13  2  0  0  0  0
 15 14  1  0  0  0  0
 16 10  1  0  0  0  0
 17 11  1  0  0  0  0
 19 16  1  0  0  0  0
 20 16  1  0  0  0  0
 21 28  2  0  0  0  0
 22 24  2  0  0  0  0
 22 21  1  0  0  0  0
 23 22  1  0  0  0  0
 24 26  1  0  0  0  0
 25 24  1  0  0  0  0
 26 28  1  0  0  0  0
 26 27  1  0  0  0  0
 29 30  3  0  0  0  0
 30  1  1  0  0  0  0
M  END
>  <minimizedAffinity>
-5.24611044

>  <minimizedRMSD>
6.54042816

$$$$
