
 OpenBabel03252509033D

 47 49  0  0  1  0  0  0  0  0999 V2000
   46.6090   34.3900   43.6010 N   0  0  0  0  0  0  0  0  0  0  0  0
   46.2960   35.0330   42.3830 C   0  0  0  0  0  0  0  0  0  0  0  0
   44.8110   35.1290   42.0880 C   0  0  0  0  0  0  0  0  0  0  0  0
   43.9540   35.3110   43.3080 C   0  0  0  0  0  0  0  0  0  0  0  0
   44.7750   35.4280   44.5660 C   0  0  0  0  0  0  0  0  0  0  0  0
   45.6590   34.1160   44.5540 C   0  0  2  0  0  0  0  0  0  0  0  0
   46.7720   34.6410   41.4820 H   0  0  0  0  0  0  0  0  0  0  0  0
   46.6320   36.1070   42.4750 H   0  0  0  0  0  0  0  0  0  0  0  0
   44.4930   34.2470   41.4780 H   0  0  0  0  0  0  0  0  0  0  0  0
   44.6390   36.0010   41.4120 H   0  0  0  0  0  0  0  0  0  0  0  0
   43.3250   34.4080   43.4210 H   0  0  0  0  0  0  0  0  0  0  0  0
   43.2500   36.1620   43.2050 H   0  0  0  0  0  0  0  0  0  0  0  0
   45.4250   36.3080   44.5870 H   0  0  0  0  0  0  0  0  0  0  0  0
   44.1370   35.3190   45.4540 H   0  0  0  0  0  0  0  0  0  0  0  0
   44.9380   33.2960   44.3700 H   0  0  0  0  0  0  0  0  0  0  0  0
   47.7830   33.5510   43.5330 C   0  0  0  0  0  0  0  0  0  0  0  0
   47.9420   33.0960   44.5290 H   0  0  0  0  0  0  0  0  0  0  0  0
   48.6600   34.1770   43.2920 H   0  0  0  0  0  0  0  0  0  0  0  0
   47.5260   32.4620   42.5530 C   0  0  0  0  0  0  0  0  0  0  0  0
   47.1860   31.5260   43.0500 H   0  0  0  0  0  0  0  0  0  0  0  0
   46.7380   32.7380   41.8130 H   0  0  0  0  0  0  0  0  0  0  0  0
   51.1530   32.3070   41.5850 C   0  0  0  0  0  0  0  0  0  0  0  0
   49.9730   32.5460   42.3120 C   0  0  0  0  0  0  0  0  0  0  0  0
   48.7520   32.2010   41.7720 C   0  0  0  0  0  0  0  0  0  0  0  0
   48.7620   31.6450   40.5650 N   0  0  0  0  0  0  0  0  0  0  0  0
   49.8840   31.4140   39.8660 C   0  0  0  0  0  0  0  0  0  0  0  0
   51.0900   31.7360   40.3590 N   0  0  0  0  0  0  0  0  0  0  0  0
   52.0980   32.5880   42.0320 H   0  0  0  0  0  0  0  0  0  0  0  0
   50.0470   33.0080   43.3020 H   0  0  0  0  0  0  0  0  0  0  0  0
   49.7000   30.9540   38.9000 H   0  0  0  0  0  0  0  0  0  0  0  0
   46.1680   34.1110   45.8370 O   0  0  0  0  0  0  0  0  0  0  0  0
   45.6300   31.5260   45.5930 O   0  0  0  0  0  0  0  0  0  0  0  0
   46.0380   32.6120   46.5920 P   0  0  2  0  0  0  0  0  0  0  0  0
   44.7280   32.7490   47.6770 O   0  0  0  0  0  0  0  0  0  0  0  0
   44.7990   33.5550   48.2400 H   0  0  0  0  0  0  0  0  0  0  0  0
   47.3950   32.2110   47.4650 O   0  0  0  0  0  0  0  0  0  0  0  0
   47.6760   30.8610   47.2440 C   0  0  0  0  0  0  0  0  0  0  0  0
   48.1960   30.6850   46.2810 H   0  0  0  0  0  0  0  0  0  0  0  0
   46.7590   30.2390   47.2380 H   0  0  0  0  0  0  0  0  0  0  0  0
   48.4980   30.4000   48.3960 C   0  0  0  0  0  0  0  0  0  0  0  0
   48.9230   31.0890   49.5230 C   0  0  0  0  0  0  0  0  0  0  0  0
   48.6730   32.1470   49.6970 H   0  0  0  0  0  0  0  0  0  0  0  0
   49.6600   30.1940   50.2830 C   0  0  0  0  0  0  0  0  0  0  0  0
   50.0760   30.5670   51.2130 H   0  0  0  0  0  0  0  0  0  0  0  0
   49.6670   29.0180   49.6240 N   0  0  0  0  0  0  0  0  0  0  0  0
   50.1840   28.2140   50.0550 H   0  0  0  0  0  0  0  0  0  0  0  0
   48.9770   29.1350   48.5000 N   0  0  0  0  0  0  0  0  0  0  0  0
  1  6  1  0  0  0  0
  2  8  1  0  0  0  0
  2  1  1  0  0  0  0
  3  2  1  0  0  0  0
  3  4  1  0  0  0  0
  4 11  1  0  0  0  0
  4  5  1  0  0  0  0
  5 13  1  0  0  0  0
  5 14  1  0  0  0  0
  6 15  1  6  0  0  0
  6  5  1  0  0  0  0
  6 31  1  0  0  0  0
  7  2  1  0  0  0  0
  9  3  1  0  0  0  0
 10  3  1  0  0  0  0
 12  4  1  0  0  0  0
 16  1  1  0  0  0  0
 16 17  1  0  0  0  0
 18 16  1  0  0  0  0
 19 20  1  0  0  0  0
 19 16  1  0  0  0  0
 21 19  1  0  0  0  0
 22 28  1  0  0  0  0
 22 23  1  0  0  0  0
 23 29  1  0  0  0  0
 24 23  2  0  0  0  0
 24 19  1  0  0  0  0
 25 24  1  0  0  0  0
 26 27  1  0  0  0  0
 26 25  2  0  0  0  0
 27 22  2  0  0  0  0
 30 26  1  0  0  0  0
 31 33  1  0  0  0  0
 33 32  2  6  0  0  0
 33 36  1  0  0  0  0
 33 34  1  0  0  0  0
 34 35  1  0  0  0  0
 37 36  1  0  0  0  0
 37 40  1  0  0  0  0
 38 37  1  0  0  0  0
 39 37  1  0  0  0  0
 40 47  2  0  0  0  0
 40 41  1  0  0  0  0
 41 42  1  0  0  0  0
 41 43  2  0  0  0  0
 43 44  1  0  0  0  0
 45 46  1  0  0  0  0
 45 43  1  0  0  0  0
 47 45  1  0  0  0  0
M  END
>  <minimizedAffinity>
-5.03441763

>  <minimizedRMSD>
2.79981136

$$$$
