
 OpenBabel03252509263D

 29 31  0  0  1  0  0  0  0  0999 V2000
   46.6110   35.1080   41.9400 C   0  0  1  0  0  0  0  0  0  0  0  0
   48.1490   35.3040   41.9380 C   0  0  0  0  0  0  0  0  0  0  0  0
   47.3690   34.1110   41.3000 C   0  0  2  0  0  0  0  0  0  0  0  0
   46.1200   35.9400   41.4190 H   0  0  0  0  0  0  0  0  0  0  0  0
   48.5790   35.9640   41.1650 H   0  0  0  0  0  0  0  0  0  0  0  0
   48.7180   35.0480   42.8360 H   0  0  0  0  0  0  0  0  0  0  0  0
   47.5110   33.1260   41.8380 H   0  0  0  0  0  0  0  0  0  0  0  0
   44.6740   35.3580   45.1340 C   0  0  0  0  0  0  0  0  0  0  0  0
   45.1400   35.6900   43.8330 C   0  0  0  0  0  0  0  0  0  0  0  0
   46.1020   34.8570   43.3340 C   0  0  0  0  0  0  0  0  0  0  0  0
   46.5750   33.7890   44.0470 N   0  0  0  0  0  0  0  0  0  0  0  0
   46.1010   33.5160   45.2790 C   0  0  0  0  0  0  0  0  0  0  0  0
   45.1460   34.3050   45.8240 N   0  0  0  0  0  0  0  0  0  0  0  0
   43.9090   35.9740   45.5910 H   0  0  0  0  0  0  0  0  0  0  0  0
   46.5070   32.6610   45.8030 H   0  0  0  0  0  0  0  0  0  0  0  0
   44.6560   36.8130   43.1330 N   0  0  0  0  0  0  0  0  0  0  0  0
   43.6790   37.1090   42.8590 H   0  0  0  0  0  0  0  0  0  0  0  0
   45.4790   37.4160   42.8720 H   0  0  0  0  0  0  0  0  0  0  0  0
   47.3920   33.9670   39.7950 C   0  0  0  0  0  0  0  0  0  0  0  0
   48.3760   33.5720   39.5020 H   0  0  0  0  0  0  0  0  0  0  0  0
   47.2270   34.9360   39.2800 H   0  0  0  0  0  0  0  0  0  0  0  0
   46.3580   32.9670   39.4600 C   0  0  0  0  0  0  0  0  0  0  0  0
   46.4750   31.5860   39.3610 C   0  0  0  0  0  0  0  0  0  0  0  0
   47.3840   31.0200   39.5230 H   0  0  0  0  0  0  0  0  0  0  0  0
   45.2410   31.0430   39.0210 C   0  0  0  0  0  0  0  0  0  0  0  0
   44.9890   30.0020   38.8660 H   0  0  0  0  0  0  0  0  0  0  0  0
   44.4170   32.1240   38.9250 N   0  0  0  0  0  0  0  0  0  0  0  0
   43.4130   31.9900   38.6770 H   0  0  0  0  0  0  0  0  0  0  0  0
   45.0580   33.2390   39.1800 N   0  0  0  0  0  0  0  0  0  0  0  0
  1  4  1  6  0  0  0
  1 10  1  0  0  0  0
  2  1  1  0  0  0  0
  2  6  1  0  0  0  0
  3  7  1  1  0  0  0
  3  2  1  0  0  0  0
  3  1  1  0  0  0  0
  5  2  1  0  0  0  0
  8 14  1  0  0  0  0
  8 13  1  0  0  0  0
  9  8  2  0  0  0  0
 10  9  1  0  0  0  0
 10 11  2  0  0  0  0
 11 12  1  0  0  0  0
 12 15  1  0  0  0  0
 12 13  2  0  0  0  0
 16  9  1  0  0  0  0
 17 16  1  0  0  0  0
 18 16  1  0  0  0  0
 19  3  1  0  0  0  0
 20 19  1  0  0  0  0
 21 19  1  0  0  0  0
 22 19  1  0  0  0  0
 23 22  1  0  0  0  0
 23 24  1  0  0  0  0
 25 23  2  0  0  0  0
 26 25  1  0  0  0  0
 27 25  1  0  0  0  0
 27 29  1  0  0  0  0
 28 27  1  0  0  0  0
 29 22  2  0  0  0  0
M  END
>  <minimizedAffinity>
-4.38386011

>  <minimizedRMSD>
0.858890474

$$$$
