
 OpenBabel03252503523D

 20 21  0  0  0  0  0  0  0  0999 V2000
   36.7170   28.6780   41.8610 C   0  0  0  0  0  0  0  0  0  0  0  0
   37.5080   29.8330   41.7980 C   0  0  0  0  0  0  0  0  0  0  0  0
   37.1760   30.8100   40.8550 C   0  0  0  0  0  0  0  0  0  0  0  0
   36.1190   30.5950   40.0530 N   0  0  0  0  0  0  0  0  0  0  0  0
   35.3640   29.4680   40.1280 C   0  0  0  0  0  0  0  0  0  0  0  0
   35.6650   28.5120   41.0320 N   0  0  0  0  0  0  0  0  0  0  0  0
   38.3630   29.9720   42.4700 H   0  0  0  0  0  0  0  0  0  0  0  0
   34.5330   29.3780   39.4460 H   0  0  0  0  0  0  0  0  0  0  0  0
   37.9700   32.0280   40.7550 C   0  0  0  0  0  0  0  0  0  0  0  0
   37.6440   33.1370   40.0180 C   0  0  0  0  0  0  0  0  0  0  0  0
   36.7830   33.3370   39.3910 H   0  0  0  0  0  0  0  0  0  0  0  0
   38.6360   34.0870   40.1680 C   0  0  0  0  0  0  0  0  0  0  0  0
   38.8120   35.0880   39.7940 H   0  0  0  0  0  0  0  0  0  0  0  0
   39.5480   33.5120   41.0070 N   0  0  0  0  0  0  0  0  0  0  0  0
   40.4560   33.8770   41.3890 H   0  0  0  0  0  0  0  0  0  0  0  0
   39.1380   32.2870   41.3470 N   0  0  0  0  0  0  0  0  0  0  0  0
   37.1160   27.6620   42.8910 C   0  0  0  0  0  0  0  0  0  0  0  0
   38.1650   28.1160   43.6560 F   0  0  0  0  0  0  0  0  0  0  0  0
   36.0040   27.3960   43.6790 F   0  0  0  0  0  0  0  0  0  0  0  0
   37.4460   26.4650   42.2720 F   0  0  0  0  0  0  0  0  0  0  0  0
  1 17  1  0  0  0  0
  2  1  1  0  0  0  0
  2  7  1  0  0  0  0
  3  2  2  0  0  0  0
  4  5  2  0  0  0  0
  4  3  1  0  0  0  0
  5  6  1  0  0  0  0
  6  1  2  0  0  0  0
  8  5  1  0  0  0  0
  9  3  1  0  0  0  0
  9 16  2  0  0  0  0
 10 12  2  0  0  0  0
 10  9  1  0  0  0  0
 11 10  1  0  0  0  0
 12 14  1  0  0  0  0
 13 12  1  0  0  0  0
 14 16  1  0  0  0  0
 14 15  1  0  0  0  0
 17 18  1  0  0  0  0
 17 19  1  0  0  0  0
 20 17  1  0  0  0  0
M  END
>  <minimizedAffinity>
-5.00742674

$$$$

 OpenBabel03252503523D

 20 21  0  0  0  0  0  0  0  0999 V2000
   36.8730   27.0750   41.2610 C   0  0  0  0  0  0  0  0  0  0  0  0
   36.9530   28.4730   41.2100 C   0  0  0  0  0  0  0  0  0  0  0  0
   36.8170   29.0970   39.9660 C   0  0  0  0  0  0  0  0  0  0  0  0
   36.6200   28.3280   38.8810 N   0  0  0  0  0  0  0  0  0  0  0  0
   36.5450   26.9730   38.9500 C   0  0  0  0  0  0  0  0  0  0  0  0
   36.6720   26.3500   40.1400 N   0  0  0  0  0  0  0  0  0  0  0  0
   37.1150   29.0660   42.1170 H   0  0  0  0  0  0  0  0  0  0  0  0
   36.3830   26.4350   38.0300 H   0  0  0  0  0  0  0  0  0  0  0  0
   36.8930   30.5490   39.8650 C   0  0  0  0  0  0  0  0  0  0  0  0
   37.2260   31.2560   38.7380 C   0  0  0  0  0  0  0  0  0  0  0  0
   37.4870   30.9130   37.7440 H   0  0  0  0  0  0  0  0  0  0  0  0
   37.1920   32.6070   39.0270 C   0  0  0  0  0  0  0  0  0  0  0  0
   37.3730   33.5200   38.4750 H   0  0  0  0  0  0  0  0  0  0  0  0
   36.8320   32.6750   40.3430 N   0  0  0  0  0  0  0  0  0  0  0  0
   36.6880   33.5030   40.9730 H   0  0  0  0  0  0  0  0  0  0  0  0
   36.6590   31.4420   40.8280 N   0  0  0  0  0  0  0  0  0  0  0  0
   37.0240   26.4570   42.6210 C   0  0  0  0  0  0  0  0  0  0  0  0
   38.3190   26.5590   43.0720 F   0  0  0  0  0  0  0  0  0  0  0  0
   36.1440   27.1010   43.4810 F   0  0  0  0  0  0  0  0  0  0  0  0
   36.6230   25.1280   42.5830 F   0  0  0  0  0  0  0  0  0  0  0  0
  1 17  1  0  0  0  0
  2  1  1  0  0  0  0
  2  7  1  0  0  0  0
  3  2  2  0  0  0  0
  4  5  2  0  0  0  0
  4  3  1  0  0  0  0
  5  6  1  0  0  0  0
  6  1  2  0  0  0  0
  8  5  1  0  0  0  0
  9  3  1  0  0  0  0
  9 16  2  0  0  0  0
 10 12  2  0  0  0  0
 10  9  1  0  0  0  0
 11 10  1  0  0  0  0
 12 14  1  0  0  0  0
 13 12  1  0  0  0  0
 14 16  1  0  0  0  0
 14 15  1  0  0  0  0
 17 18  1  0  0  0  0
 17 19  1  0  0  0  0
 20 17  1  0  0  0  0
M  END
>  <minimizedAffinity>
-4.82477713

$$$$

 OpenBabel03252503523D

 20 21  0  0  0  0  0  0  0  0999 V2000
   38.0630   28.2410   42.3610 C   0  0  0  0  0  0  0  0  0  0  0  0
   37.6400   29.4270   41.7460 C   0  0  0  0  0  0  0  0  0  0  0  0
   38.5660   30.4660   41.6090 C   0  0  0  0  0  0  0  0  0  0  0  0
   39.8140   30.2790   42.0740 N   0  0  0  0  0  0  0  0  0  0  0  0
   40.2060   29.1210   42.6670 C   0  0  0  0  0  0  0  0  0  0  0  0
   39.3290   28.1050   42.8090 N   0  0  0  0  0  0  0  0  0  0  0  0
   36.6140   29.5420   41.3800 H   0  0  0  0  0  0  0  0  0  0  0  0
   41.2260   29.0560   43.0100 H   0  0  0  0  0  0  0  0  0  0  0  0
   38.1710   31.7180   40.9760 C   0  0  0  0  0  0  0  0  0  0  0  0
   38.9740   32.8160   40.8060 C   0  0  0  0  0  0  0  0  0  0  0  0
   40.0070   32.9820   41.0860 H   0  0  0  0  0  0  0  0  0  0  0  0
   38.2530   33.8070   40.1680 C   0  0  0  0  0  0  0  0  0  0  0  0
   38.4560   34.8160   39.8320 H   0  0  0  0  0  0  0  0  0  0  0  0
   37.0140   33.2670   39.9690 N   0  0  0  0  0  0  0  0  0  0  0  0
   36.1540   33.6690   39.5200 H   0  0  0  0  0  0  0  0  0  0  0  0
   36.9810   32.0230   40.4550 N   0  0  0  0  0  0  0  0  0  0  0  0
   37.0300   27.1580   42.4810 C   0  0  0  0  0  0  0  0  0  0  0  0
   36.0880   27.4750   43.4310 F   0  0  0  0  0  0  0  0  0  0  0  0
   36.4440   26.9890   41.2340 F   0  0  0  0  0  0  0  0  0  0  0  0
   37.6450   25.9510   42.7860 F   0  0  0  0  0  0  0  0  0  0  0  0
  1 17  1  0  0  0  0
  1  6  1  0  0  0  0
  2  1  2  0  0  0  0
  3  2  1  0  0  0  0
  3  4  2  0  0  0  0
  4  5  1  0  0  0  0
  5  6  2  0  0  0  0
  5  8  1  0  0  0  0
  7  2  1  0  0  0  0
  9  3  1  0  0  0  0
 10  9  1  0  0  0  0
 10 11  1  0  0  0  0
 12 10  2  0  0  0  0
 13 12  1  0  0  0  0
 14 12  1  0  0  0  0
 14 16  1  0  0  0  0
 15 14  1  0  0  0  0
 16  9  2  0  0  0  0
 17 20  1  0  0  0  0
 17 18  1  0  0  0  0
 19 17  1  0  0  0  0
M  END
>  <minimizedAffinity>
-4.77173376

$$$$

 OpenBabel03252503523D

 20 21  0  0  0  0  0  0  0  0999 V2000
   39.0200   25.9870   42.4930 C   0  0  0  0  0  0  0  0  0  0  0  0
   37.9620   26.7210   41.9400 C   0  0  0  0  0  0  0  0  0  0  0  0
   37.9970   28.1140   42.0490 C   0  0  0  0  0  0  0  0  0  0  0  0
   39.0390   28.6830   42.6790 N   0  0  0  0  0  0  0  0  0  0  0  0
   40.0570   27.9550   43.2090 C   0  0  0  0  0  0  0  0  0  0  0  0
   40.0440   26.6090   43.1150 N   0  0  0  0  0  0  0  0  0  0  0  0
   37.1280   26.2210   41.4340 H   0  0  0  0  0  0  0  0  0  0  0  0
   40.8540   28.4930   43.6970 H   0  0  0  0  0  0  0  0  0  0  0  0
   36.9180   28.9180   41.4880 C   0  0  0  0  0  0  0  0  0  0  0  0
   35.9310   28.4610   40.6520 C   0  0  0  0  0  0  0  0  0  0  0  0
   35.7510   27.4710   40.2530 H   0  0  0  0  0  0  0  0  0  0  0  0
   35.0920   29.5110   40.3300 C   0  0  0  0  0  0  0  0  0  0  0  0
   34.2040   29.6320   39.7230 H   0  0  0  0  0  0  0  0  0  0  0  0
   35.6060   30.5880   40.9930 N   0  0  0  0  0  0  0  0  0  0  0  0
   35.2860   31.5880   41.0320 H   0  0  0  0  0  0  0  0  0  0  0  0
   36.6930   30.2200   41.6780 N   0  0  0  0  0  0  0  0  0  0  0  0
   38.9330   24.4960   42.3480 C   0  0  0  0  0  0  0  0  0  0  0  0
   39.7790   23.8610   43.2280 F   0  0  0  0  0  0  0  0  0  0  0  0
   37.6130   24.1230   42.5680 F   0  0  0  0  0  0  0  0  0  0  0  0
   39.2250   24.1310   41.0410 F   0  0  0  0  0  0  0  0  0  0  0  0
  1  6  1  0  0  0  0
  2  3  1  0  0  0  0
  2  1  2  0  0  0  0
  3  4  2  0  0  0  0
  4  5  1  0  0  0  0
  5  8  1  0  0  0  0
  6  5  2  0  0  0  0
  7  2  1  0  0  0  0
  9 16  2  0  0  0  0
  9  3  1  0  0  0  0
 10  9  1  0  0  0  0
 11 10  1  0  0  0  0
 12 10  2  0  0  0  0
 12 14  1  0  0  0  0
 13 12  1  0  0  0  0
 14 15  1  0  0  0  0
 14 16  1  0  0  0  0
 17  1  1  0  0  0  0
 17 19  1  0  0  0  0
 17 18  1  0  0  0  0
 20 17  1  0  0  0  0
M  END
>  <minimizedAffinity>
-4.72030306

$$$$

 OpenBabel03252503523D

 20 21  0  0  0  0  0  0  0  0999 V2000
   36.6950   28.9440   41.5220 C   0  0  0  0  0  0  0  0  0  0  0  0
   36.7610   27.5860   41.1850 C   0  0  0  0  0  0  0  0  0  0  0  0
   37.5340   26.7430   41.9890 C   0  0  0  0  0  0  0  0  0  0  0  0
   38.1760   27.2740   43.0440 N   0  0  0  0  0  0  0  0  0  0  0  0
   38.0990   28.5940   43.3560 C   0  0  0  0  0  0  0  0  0  0  0  0
   37.3590   29.4260   42.5930 N   0  0  0  0  0  0  0  0  0  0  0  0
   36.2230   27.1900   40.3160 H   0  0  0  0  0  0  0  0  0  0  0  0
   38.6460   28.9360   44.2200 H   0  0  0  0  0  0  0  0  0  0  0  0
   37.6310   25.3230   41.6770 C   0  0  0  0  0  0  0  0  0  0  0  0
   36.8990   24.6610   40.7260 C   0  0  0  0  0  0  0  0  0  0  0  0
   36.1380   25.0240   40.0450 H   0  0  0  0  0  0  0  0  0  0  0  0
   37.2660   23.3290   40.7190 C   0  0  0  0  0  0  0  0  0  0  0  0
   36.9750   22.4490   40.1600 H   0  0  0  0  0  0  0  0  0  0  0  0
   38.2280   23.2260   41.6840 N   0  0  0  0  0  0  0  0  0  0  0  0
   38.7810   22.3970   42.0160 H   0  0  0  0  0  0  0  0  0  0  0  0
   38.4340   24.4200   42.2450 N   0  0  0  0  0  0  0  0  0  0  0  0
   35.8510   29.8040   40.6260 C   0  0  0  0  0  0  0  0  0  0  0  0
   34.5830   29.2880   40.4920 F   0  0  0  0  0  0  0  0  0  0  0  0
   35.8150   31.0810   41.1730 F   0  0  0  0  0  0  0  0  0  0  0  0
   36.4600   29.9330   39.3850 F   0  0  0  0  0  0  0  0  0  0  0  0
  1  6  1  0  0  0  0
  2  1  2  0  0  0  0
  2  3  1  0  0  0  0
  3  4  2  0  0  0  0
  4  5  1  0  0  0  0
  5  8  1  0  0  0  0
  6  5  2  0  0  0  0
  7  2  1  0  0  0  0
  9  3  1  0  0  0  0
  9 16  2  0  0  0  0
 10  9  1  0  0  0  0
 11 10  1  0  0  0  0
 12 10  2  0  0  0  0
 12 14  1  0  0  0  0
 13 12  1  0  0  0  0
 14 15  1  0  0  0  0
 14 16  1  0  0  0  0
 17 19  1  0  0  0  0
 17  1  1  0  0  0  0
 18 17  1  0  0  0  0
 20 17  1  0  0  0  0
M  END
>  <minimizedAffinity>
-4.64586496

$$$$

 OpenBabel03252503523D

 20 21  0  0  0  0  0  0  0  0999 V2000
   37.1760   26.7200   41.5570 C   0  0  0  0  0  0  0  0  0  0  0  0
   37.1710   27.9950   40.9750 C   0  0  0  0  0  0  0  0  0  0  0  0
   37.3220   29.1040   41.8130 C   0  0  0  0  0  0  0  0  0  0  0  0
   37.4630   28.8960   43.1330 N   0  0  0  0  0  0  0  0  0  0  0  0
   37.4660   27.6520   43.6800 C   0  0  0  0  0  0  0  0  0  0  0  0
   37.3220   26.5670   42.8890 N   0  0  0  0  0  0  0  0  0  0  0  0
   37.0530   28.1250   39.8930 H   0  0  0  0  0  0  0  0  0  0  0  0
   37.5850   27.5770   44.7490 H   0  0  0  0  0  0  0  0  0  0  0  0
   37.3230   30.4490   41.2510 C   0  0  0  0  0  0  0  0  0  0  0  0
   38.4370   31.1780   40.9250 C   0  0  0  0  0  0  0  0  0  0  0  0
   39.4890   30.9310   41.0080 H   0  0  0  0  0  0  0  0  0  0  0  0
   38.0430   32.4040   40.4220 C   0  0  0  0  0  0  0  0  0  0  0  0
   38.5480   33.2830   40.0440 H   0  0  0  0  0  0  0  0  0  0  0  0
   36.6770   32.3750   40.4600 N   0  0  0  0  0  0  0  0  0  0  0  0
   35.9680   33.0950   40.1740 H   0  0  0  0  0  0  0  0  0  0  0  0
   36.2640   31.2060   40.9560 N   0  0  0  0  0  0  0  0  0  0  0  0
   37.0110   25.5650   40.6120 C   0  0  0  0  0  0  0  0  0  0  0  0
   36.5090   24.4610   41.2610 F   0  0  0  0  0  0  0  0  0  0  0  0
   36.1640   25.9700   39.5890 F   0  0  0  0  0  0  0  0  0  0  0  0
   38.2270   25.2680   40.0130 F   0  0  0  0  0  0  0  0  0  0  0  0
  1  6  1  0  0  0  0
  2  1  2  0  0  0  0
  2  3  1  0  0  0  0
  3  4  2  0  0  0  0
  4  5  1  0  0  0  0
  5  8  1  0  0  0  0
  6  5  2  0  0  0  0
  7  2  1  0  0  0  0
  9  3  1  0  0  0  0
 10 11  1  0  0  0  0
 10  9  1  0  0  0  0
 12 14  1  0  0  0  0
 12 10  2  0  0  0  0
 13 12  1  0  0  0  0
 14 16  1  0  0  0  0
 15 14  1  0  0  0  0
 16  9  2  0  0  0  0
 17 18  1  0  0  0  0
 17  1  1  0  0  0  0
 19 17  1  0  0  0  0
 20 17  1  0  0  0  0
M  END
>  <minimizedAffinity>
-4.62127733

$$$$

 OpenBabel03252503523D

 20 21  0  0  0  0  0  0  0  0999 V2000
   37.4360   25.4440   40.6080 C   0  0  0  0  0  0  0  0  0  0  0  0
   36.9240   26.7110   40.9180 C   0  0  0  0  0  0  0  0  0  0  0  0
   37.4330   27.8160   40.2280 C   0  0  0  0  0  0  0  0  0  0  0  0
   38.3870   27.6110   39.3040 N   0  0  0  0  0  0  0  0  0  0  0  0
   38.8710   26.3740   39.0160 C   0  0  0  0  0  0  0  0  0  0  0  0
   38.3940   25.2940   39.6690 N   0  0  0  0  0  0  0  0  0  0  0  0
   36.1460   26.8380   41.6790 H   0  0  0  0  0  0  0  0  0  0  0  0
   39.6360   26.3010   38.2590 H   0  0  0  0  0  0  0  0  0  0  0  0
   36.9300   29.1530   40.5180 C   0  0  0  0  0  0  0  0  0  0  0  0
   37.5980   30.3270   40.2820 C   0  0  0  0  0  0  0  0  0  0  0  0
   38.5790   30.5050   39.8580 H   0  0  0  0  0  0  0  0  0  0  0  0
   36.8060   31.3850   40.6860 C   0  0  0  0  0  0  0  0  0  0  0  0
   36.9030   32.4630   40.6960 H   0  0  0  0  0  0  0  0  0  0  0  0
   35.6630   30.8070   41.1600 N   0  0  0  0  0  0  0  0  0  0  0  0
   34.7950   31.2350   41.5660 H   0  0  0  0  0  0  0  0  0  0  0  0
   35.7520   29.4780   41.0540 N   0  0  0  0  0  0  0  0  0  0  0  0
   36.8550   24.2930   41.3770 C   0  0  0  0  0  0  0  0  0  0  0  0
   37.7740   23.2810   41.5250 F   0  0  0  0  0  0  0  0  0  0  0  0
   36.4390   24.7740   42.6120 F   0  0  0  0  0  0  0  0  0  0  0  0
   35.7140   23.8270   40.7390 F   0  0  0  0  0  0  0  0  0  0  0  0
  1  2  1  0  0  0  0
  1 17  1  0  0  0  0
  2  7  1  0  0  0  0
  3  9  1  0  0  0  0
  3  2  2  0  0  0  0
  4  3  1  0  0  0  0
  5  4  2  0  0  0  0
  5  6  1  0  0  0  0
  6  1  2  0  0  0  0
  8  5  1  0  0  0  0
  9 16  2  0  0  0  0
 10  9  1  0  0  0  0
 10 12  2  0  0  0  0
 11 10  1  0  0  0  0
 12 13  1  0  0  0  0
 12 14  1  0  0  0  0
 14 15  1  0  0  0  0
 16 14  1  0  0  0  0
 17 18  1  0  0  0  0
 17 19  1  0  0  0  0
 20 17  1  0  0  0  0
M  END
>  <minimizedAffinity>
-4.49593639

$$$$

 OpenBabel03252503523D

 20 21  0  0  0  0  0  0  0  0999 V2000
   36.7550   29.0130   41.1900 C   0  0  0  0  0  0  0  0  0  0  0  0
   37.1090   27.6670   41.3510 C   0  0  0  0  0  0  0  0  0  0  0  0
   38.0840   27.3500   42.3020 C   0  0  0  0  0  0  0  0  0  0  0  0
   38.6350   28.3480   43.0130 N   0  0  0  0  0  0  0  0  0  0  0  0
   38.2780   29.6480   42.8440 C   0  0  0  0  0  0  0  0  0  0  0  0
   37.3390   29.9770   41.9320 N   0  0  0  0  0  0  0  0  0  0  0  0
   36.6370   26.8800   40.7520 H   0  0  0  0  0  0  0  0  0  0  0  0
   38.7710   30.3850   43.4580 H   0  0  0  0  0  0  0  0  0  0  0  0
   38.4830   25.9630   42.5030 C   0  0  0  0  0  0  0  0  0  0  0  0
   39.6550   25.5430   43.0790 C   0  0  0  0  0  0  0  0  0  0  0  0
   40.4840   26.1130   43.4820 H   0  0  0  0  0  0  0  0  0  0  0  0
   39.6800   24.1620   43.0960 C   0  0  0  0  0  0  0  0  0  0  0  0
   40.3740   23.4060   43.4400 H   0  0  0  0  0  0  0  0  0  0  0  0
   38.5010   23.7820   42.5210 N   0  0  0  0  0  0  0  0  0  0  0  0
   38.1060   22.8280   42.3300 H   0  0  0  0  0  0  0  0  0  0  0  0
   37.8000   24.8650   42.1730 N   0  0  0  0  0  0  0  0  0  0  0  0
   35.7030   29.2980   40.1580 C   0  0  0  0  0  0  0  0  0  0  0  0
   35.7560   30.6090   39.7440 F   0  0  0  0  0  0  0  0  0  0  0  0
   35.9070   28.4310   39.0920 F   0  0  0  0  0  0  0  0  0  0  0  0
   34.4470   28.9960   40.6660 F   0  0  0  0  0  0  0  0  0  0  0  0
  1  2  2  0  0  0  0
  1  6  1  0  0  0  0
  2  3  1  0  0  0  0
  3  9  1  0  0  0  0
  3  4  2  0  0  0  0
  5  4  1  0  0  0  0
  5  8  1  0  0  0  0
  6  5  2  0  0  0  0
  7  2  1  0  0  0  0
  9 10  1  0  0  0  0
 10 12  2  0  0  0  0
 10 11  1  0  0  0  0
 12 13  1  0  0  0  0
 14 12  1  0  0  0  0
 15 14  1  0  0  0  0
 16  9  2  0  0  0  0
 16 14  1  0  0  0  0
 17 20  1  0  0  0  0
 17  1  1  0  0  0  0
 18 17  1  0  0  0  0
 19 17  1  0  0  0  0
M  END
>  <minimizedAffinity>
-4.43299389

$$$$

 OpenBabel03252503523D

 20 21  0  0  0  0  0  0  0  0999 V2000
   36.9770   30.5190   38.2390 C   0  0  0  0  0  0  0  0  0  0  0  0
   37.1920   30.2640   39.6000 C   0  0  0  0  0  0  0  0  0  0  0  0
   36.6180   29.1160   40.1540 C   0  0  0  0  0  0  0  0  0  0  0  0
   35.8890   28.3140   39.3590 N   0  0  0  0  0  0  0  0  0  0  0  0
   35.6930   28.5780   38.0410 C   0  0  0  0  0  0  0  0  0  0  0  0
   36.2370   29.6800   37.4840 N   0  0  0  0  0  0  0  0  0  0  0  0
   37.7930   30.9420   40.2170 H   0  0  0  0  0  0  0  0  0  0  0  0
   35.0940   27.8800   37.4760 H   0  0  0  0  0  0  0  0  0  0  0  0
   36.8150   28.8100   41.5660 C   0  0  0  0  0  0  0  0  0  0  0  0
   36.5260   27.6150   42.1730 C   0  0  0  0  0  0  0  0  0  0  0  0
   36.1150   26.7000   41.7650 H   0  0  0  0  0  0  0  0  0  0  0  0
   36.8450   27.7020   43.5150 C   0  0  0  0  0  0  0  0  0  0  0  0
   36.7950   27.0360   44.3670 H   0  0  0  0  0  0  0  0  0  0  0  0
   37.3270   28.9700   43.6790 N   0  0  0  0  0  0  0  0  0  0  0  0
   37.6840   29.4630   44.5350 H   0  0  0  0  0  0  0  0  0  0  0  0
   37.3030   29.6170   42.5110 N   0  0  0  0  0  0  0  0  0  0  0  0
   37.6160   31.7640   37.6940 C   0  0  0  0  0  0  0  0  0  0  0  0
   37.0970   32.8900   38.2900 F   0  0  0  0  0  0  0  0  0  0  0  0
   38.9840   31.6700   37.9120 F   0  0  0  0  0  0  0  0  0  0  0  0
   37.4460   31.8180   36.3170 F   0  0  0  0  0  0  0  0  0  0  0  0
  1  2  1  0  0  0  0
  2  3  2  0  0  0  0
  2  7  1  0  0  0  0
  3  9  1  0  0  0  0
  4  3  1  0  0  0  0
  5  4  2  0  0  0  0
  6  5  1  0  0  0  0
  6  1  2  0  0  0  0
  8  5  1  0  0  0  0
  9 10  1  0  0  0  0
  9 16  2  0  0  0  0
 10 12  2  0  0  0  0
 11 10  1  0  0  0  0
 12 14  1  0  0  0  0
 12 13  1  0  0  0  0
 14 15  1  0  0  0  0
 16 14  1  0  0  0  0
 17 19  1  0  0  0  0
 17  1  1  0  0  0  0
 17 18  1  0  0  0  0
 20 17  1  0  0  0  0
M  END
>  <minimizedAffinity>
-4.38250303

$$$$
