
 OpenBabel03252504123D

 24 25  0  0  0  0  0  0  0  0999 V2000
   38.5550   26.2340   41.5480 C   0  0  0  0  0  0  0  0  0  0  0  0
   39.5990   26.3400   42.4640 C   0  0  0  0  0  0  0  0  0  0  0  0
   39.9170   27.6130   42.9540 C   0  0  0  0  0  0  0  0  0  0  0  0
   39.2010   28.6730   42.5170 N   0  0  0  0  0  0  0  0  0  0  0  0
   38.1990   28.5270   41.6290 C   0  0  0  0  0  0  0  0  0  0  0  0
   37.8630   27.3210   41.1360 N   0  0  0  0  0  0  0  0  0  0  0  0
   40.7170   27.7170   43.6600 H   0  0  0  0  0  0  0  0  0  0  0  0
   37.5360   29.7730   41.2690 C   0  0  0  0  0  0  0  0  0  0  0  0
   37.9890   30.9130   40.6440 C   0  0  0  0  0  0  0  0  0  0  0  0
   39.0120   31.0100   40.3160 H   0  0  0  0  0  0  0  0  0  0  0  0
   36.8740   31.7390   40.5930 C   0  0  0  0  0  0  0  0  0  0  0  0
   36.9790   32.7300   40.1300 H   0  0  0  0  0  0  0  0  0  0  0  0
   35.8170   31.1140   41.1620 N   0  0  0  0  0  0  0  0  0  0  0  0
   34.8690   31.5890   41.2180 H   0  0  0  0  0  0  0  0  0  0  0  0
   36.2210   29.9130   41.5740 N   0  0  0  0  0  0  0  0  0  0  0  0
   40.3290   25.1100   42.8850 C   0  0  0  0  0  0  0  0  0  0  0  0
   40.8650   24.4830   41.7690 F   0  0  0  0  0  0  0  0  0  0  0  0
   41.3860   25.4860   43.6760 F   0  0  0  0  0  0  0  0  0  0  0  0
   39.5660   24.2000   43.5460 F   0  0  0  0  0  0  0  0  0  0  0  0
   38.2530   25.0100   41.0800 O   0  0  0  0  0  0  0  0  0  0  0  0
   37.0940   24.2530   41.2990 C   0  0  0  0  0  0  0  0  0  0  0  0
   37.4870   22.9050   41.2540 F   0  0  0  0  0  0  0  0  0  0  0  0
   36.5490   24.5790   42.5140 F   0  0  0  0  0  0  0  0  0  0  0  0
   36.2090   24.4080   40.2500 F   0  0  0  0  0  0  0  0  0  0  0  0
  1  2  1  0  0  0  0
  2 16  1  0  0  0  0
  2  3  2  0  0  0  0
  3  7  1  0  0  0  0
  4  3  1  0  0  0  0
  5  4  2  0  0  0  0
  6  1  2  0  0  0  0
  6  5  1  0  0  0  0
  8 15  2  0  0  0  0
  8  5  1  0  0  0  0
  9  8  1  0  0  0  0
 10  9  1  0  0  0  0
 11  9  2  0  0  0  0
 11 13  1  0  0  0  0
 12 11  1  0  0  0  0
 13 14  1  0  0  0  0
 13 15  1  0  0  0  0
 16 19  1  0  0  0  0
 16 18  1  0  0  0  0
 17 16  1  0  0  0  0
 20 21  1  0  0  0  0
 20  1  1  0  0  0  0
 21 23  1  0  0  0  0
 22 21  1  0  0  0  0
 24 21  1  0  0  0  0
M  END
>  <minimizedAffinity>
-5.21377277

$$$$

 OpenBabel03252504123D

 24 25  0  0  0  0  0  0  0  0999 V2000
   37.7320   27.2790   41.7130 C   0  0  0  0  0  0  0  0  0  0  0  0
   37.0670   26.3890   40.8720 C   0  0  0  0  0  0  0  0  0  0  0  0
   36.4280   26.9090   39.7390 C   0  0  0  0  0  0  0  0  0  0  0  0
   36.4860   28.2410   39.5160 N   0  0  0  0  0  0  0  0  0  0  0  0
   37.1400   29.0660   40.3550 C   0  0  0  0  0  0  0  0  0  0  0  0
   37.7660   28.6060   41.4530 N   0  0  0  0  0  0  0  0  0  0  0  0
   35.9100   26.2420   39.0790 H   0  0  0  0  0  0  0  0  0  0  0  0
   37.1010   30.4680   39.9620 C   0  0  0  0  0  0  0  0  0  0  0  0
   37.2410   31.0900   38.7410 C   0  0  0  0  0  0  0  0  0  0  0  0
   37.4160   30.5280   37.8370 H   0  0  0  0  0  0  0  0  0  0  0  0
   37.1010   32.4410   39.0280 C   0  0  0  0  0  0  0  0  0  0  0  0
   37.1750   33.1610   38.2020 H   0  0  0  0  0  0  0  0  0  0  0  0
   36.8900   32.6050   40.3550 N   0  0  0  0  0  0  0  0  0  0  0  0
   36.7590   33.5740   40.7700 H   0  0  0  0  0  0  0  0  0  0  0  0
   36.8900   31.4010   40.9250 N   0  0  0  0  0  0  0  0  0  0  0  0
   37.0600   24.9360   41.2050 C   0  0  0  0  0  0  0  0  0  0  0  0
   36.5590   24.7540   42.4860 F   0  0  0  0  0  0  0  0  0  0  0  0
   36.1960   24.3020   40.3470 F   0  0  0  0  0  0  0  0  0  0  0  0
   38.2790   24.3390   41.1470 F   0  0  0  0  0  0  0  0  0  0  0  0
   38.3440   26.7750   42.8000 O   0  0  0  0  0  0  0  0  0  0  0  0
   39.7150   26.5820   43.0180 C   0  0  0  0  0  0  0  0  0  0  0  0
   40.2970   26.4150   41.7500 F   0  0  0  0  0  0  0  0  0  0  0  0
   40.2380   27.6660   43.6750 F   0  0  0  0  0  0  0  0  0  0  0  0
   39.9370   25.3900   43.6790 F   0  0  0  0  0  0  0  0  0  0  0  0
  1 20  1  0  0  0  0
  2 16  1  0  0  0  0
  2  1  2  0  0  0  0
  3  2  1  0  0  0  0
  4  3  2  0  0  0  0
  4  5  1  0  0  0  0
  5  6  2  0  0  0  0
  6  1  1  0  0  0  0
  7  3  1  0  0  0  0
  8  5  1  0  0  0  0
  8 15  2  0  0  0  0
  9 11  2  0  0  0  0
  9  8  1  0  0  0  0
 10  9  1  0  0  0  0
 11 13  1  0  0  0  0
 12 11  1  0  0  0  0
 13 14  1  0  0  0  0
 13 15  1  0  0  0  0
 16 17  1  0  0  0  0
 18 16  1  0  0  0  0
 19 16  1  0  0  0  0
 20 21  1  0  0  0  0
 21 23  1  0  0  0  0
 21 24  1  0  0  0  0
 22 21  1  0  0  0  0
M  END
>  <minimizedAffinity>
-5.15282249

$$$$

 OpenBabel03252504123D

 24 25  0  0  0  0  0  0  0  0999 V2000
   37.5060   26.9360   40.7430 C   0  0  0  0  0  0  0  0  0  0  0  0
   37.2340   28.0180   41.5790 C   0  0  0  0  0  0  0  0  0  0  0  0
   36.9200   29.2460   40.9830 C   0  0  0  0  0  0  0  0  0  0  0  0
   36.8960   29.3240   39.6340 N   0  0  0  0  0  0  0  0  0  0  0  0
   37.1660   28.2530   38.8620 C   0  0  0  0  0  0  0  0  0  0  0  0
   37.4720   27.0570   39.3970 N   0  0  0  0  0  0  0  0  0  0  0  0
   36.7070   30.0910   41.6070 H   0  0  0  0  0  0  0  0  0  0  0  0
   37.0940   28.5170   37.4320 C   0  0  0  0  0  0  0  0  0  0  0  0
   36.1550   29.1590   36.6560 C   0  0  0  0  0  0  0  0  0  0  0  0
   35.2630   29.5850   37.0860 H   0  0  0  0  0  0  0  0  0  0  0  0
   36.6650   29.0790   35.3670 C   0  0  0  0  0  0  0  0  0  0  0  0
   36.0870   29.5280   34.5480 H   0  0  0  0  0  0  0  0  0  0  0  0
   37.8480   28.4210   35.3850 N   0  0  0  0  0  0  0  0  0  0  0  0
   38.3940   28.2590   34.4890 H   0  0  0  0  0  0  0  0  0  0  0  0
   38.1100   28.0780   36.6460 N   0  0  0  0  0  0  0  0  0  0  0  0
   37.2860   27.8310   43.0570 C   0  0  0  0  0  0  0  0  0  0  0  0
   37.3860   29.0670   43.6790 F   0  0  0  0  0  0  0  0  0  0  0  0
   36.0980   27.2760   43.4630 F   0  0  0  0  0  0  0  0  0  0  0  0
   38.3200   27.0630   43.4920 F   0  0  0  0  0  0  0  0  0  0  0  0
   37.8080   25.7600   41.3210 O   0  0  0  0  0  0  0  0  0  0  0  0
   37.0350   24.5910   41.3760 C   0  0  0  0  0  0  0  0  0  0  0  0
   36.4040   24.5930   42.6310 F   0  0  0  0  0  0  0  0  0  0  0  0
   36.1230   24.5890   40.3520 F   0  0  0  0  0  0  0  0  0  0  0  0
   37.8460   23.4740   41.3790 F   0  0  0  0  0  0  0  0  0  0  0  0
  1 20  1  0  0  0  0
  1  2  1  0  0  0  0
  2 16  1  0  0  0  0
  3  2  2  0  0  0  0
  3  7  1  0  0  0  0
  4  3  1  0  0  0  0
  5  6  1  0  0  0  0
  5  4  2  0  0  0  0
  6  1  2  0  0  0  0
  8  5  1  0  0  0  0
  9 10  1  0  0  0  0
  9  8  1  0  0  0  0
 11 13  1  0  0  0  0
 11  9  2  0  0  0  0
 12 11  1  0  0  0  0
 13 15  1  0  0  0  0
 14 13  1  0  0  0  0
 15  8  2  0  0  0  0
 16 18  1  0  0  0  0
 16 19  1  0  0  0  0
 16 17  1  0  0  0  0
 20 21  1  0  0  0  0
 21 24  1  0  0  0  0
 21 22  1  0  0  0  0
 23 21  1  0  0  0  0
M  END
>  <minimizedAffinity>
-5.1234622

$$$$

 OpenBabel03252504123D

 24 25  0  0  0  0  0  0  0  0999 V2000
   37.9130   29.3200   42.1530 C   0  0  0  0  0  0  0  0  0  0  0  0
   38.3270   28.0460   42.5360 C   0  0  0  0  0  0  0  0  0  0  0  0
   39.6870   27.8520   42.8090 C   0  0  0  0  0  0  0  0  0  0  0  0
   40.5290   28.9020   42.6890 N   0  0  0  0  0  0  0  0  0  0  0  0
   40.0870   30.1180   42.3150 C   0  0  0  0  0  0  0  0  0  0  0  0
   38.7890   30.3450   42.0440 N   0  0  0  0  0  0  0  0  0  0  0  0
   40.0270   26.8800   43.1060 H   0  0  0  0  0  0  0  0  0  0  0  0
   41.1300   31.1320   42.2370 C   0  0  0  0  0  0  0  0  0  0  0  0
   41.4780   32.0260   41.2480 C   0  0  0  0  0  0  0  0  0  0  0  0
   40.9440   32.0690   40.3120 H   0  0  0  0  0  0  0  0  0  0  0  0
   42.5540   32.7210   41.7810 C   0  0  0  0  0  0  0  0  0  0  0  0
   43.0220   33.5070   41.1720 H   0  0  0  0  0  0  0  0  0  0  0  0
   42.8270   32.2580   43.0240 N   0  0  0  0  0  0  0  0  0  0  0  0
   43.6220   32.6680   43.5960 H   0  0  0  0  0  0  0  0  0  0  0  0
   41.9560   31.2880   43.3020 N   0  0  0  0  0  0  0  0  0  0  0  0
   37.3210   26.9520   42.6400 C   0  0  0  0  0  0  0  0  0  0  0  0
   36.7480   26.7260   41.3960 F   0  0  0  0  0  0  0  0  0  0  0  0
   37.9750   25.7970   42.9920 F   0  0  0  0  0  0  0  0  0  0  0  0
   36.3150   27.1920   43.5220 F   0  0  0  0  0  0  0  0  0  0  0  0
   36.6070   29.5020   41.8910 O   0  0  0  0  0  0  0  0  0  0  0  0
   35.9950   29.7890   40.6620 C   0  0  0  0  0  0  0  0  0  0  0  0
   34.7620   29.1140   40.6680 F   0  0  0  0  0  0  0  0  0  0  0  0
   35.8280   31.1430   40.5320 F   0  0  0  0  0  0  0  0  0  0  0  0
   36.7100   29.2290   39.6220 F   0  0  0  0  0  0  0  0  0  0  0  0
  1  2  1  0  0  0  0
  2 16  1  0  0  0  0
  2  3  2  0  0  0  0
  3  7  1  0  0  0  0
  4  3  1  0  0  0  0
  5  4  2  0  0  0  0
  6  1  2  0  0  0  0
  6  5  1  0  0  0  0
  8  5  1  0  0  0  0
  8 15  2  0  0  0  0
  9 11  2  0  0  0  0
  9  8  1  0  0  0  0
 10  9  1  0  0  0  0
 11 13  1  0  0  0  0
 12 11  1  0  0  0  0
 13 15  1  0  0  0  0
 13 14  1  0  0  0  0
 16 18  1  0  0  0  0
 16 19  1  0  0  0  0
 17 16  1  0  0  0  0
 20  1  1  0  0  0  0
 21 22  1  0  0  0  0
 21 20  1  0  0  0  0
 23 21  1  0  0  0  0
 24 21  1  0  0  0  0
M  END
>  <minimizedAffinity>
-5.11057568

$$$$

 OpenBabel03252504123D

 24 25  0  0  0  0  0  0  0  0999 V2000
   37.2370   30.1820   40.3920 C   0  0  0  0  0  0  0  0  0  0  0  0
   36.4920   29.6960   39.3200 C   0  0  0  0  0  0  0  0  0  0  0  0
   36.8580   30.0990   38.0290 C   0  0  0  0  0  0  0  0  0  0  0  0
   37.9100   30.9360   37.8860 N   0  0  0  0  0  0  0  0  0  0  0  0
   38.6040   31.3830   38.9510 C   0  0  0  0  0  0  0  0  0  0  0  0
   38.2830   31.0180   40.2050 N   0  0  0  0  0  0  0  0  0  0  0  0
   36.2990   29.7370   37.1900 H   0  0  0  0  0  0  0  0  0  0  0  0
   39.7040   32.2750   38.6130 C   0  0  0  0  0  0  0  0  0  0  0  0
   40.3700   33.2380   39.3380 C   0  0  0  0  0  0  0  0  0  0  0  0
   40.1090   33.4550   40.3620 H   0  0  0  0  0  0  0  0  0  0  0  0
   41.3180   33.7350   38.4550 C   0  0  0  0  0  0  0  0  0  0  0  0
   41.9890   34.5320   38.8030 H   0  0  0  0  0  0  0  0  0  0  0  0
   41.2130   33.0960   37.2660 N   0  0  0  0  0  0  0  0  0  0  0  0
   41.8580   33.3410   36.4580 H   0  0  0  0  0  0  0  0  0  0  0  0
   40.2280   32.2040   37.3630 N   0  0  0  0  0  0  0  0  0  0  0  0
   35.3480   28.7770   39.5810 C   0  0  0  0  0  0  0  0  0  0  0  0
   34.5700   28.6660   38.4380 F   0  0  0  0  0  0  0  0  0  0  0  0
   35.8510   27.5270   39.8420 F   0  0  0  0  0  0  0  0  0  0  0  0
   34.5360   29.1630   40.6010 F   0  0  0  0  0  0  0  0  0  0  0  0
   36.8810   29.7920   41.6290 O   0  0  0  0  0  0  0  0  0  0  0  0
   37.4350   28.7730   42.4170 C   0  0  0  0  0  0  0  0  0  0  0  0
   36.3660   27.9490   42.8070 F   0  0  0  0  0  0  0  0  0  0  0  0
   38.3670   28.0800   41.6890 F   0  0  0  0  0  0  0  0  0  0  0  0
   37.9420   29.2910   43.5920 F   0  0  0  0  0  0  0  0  0  0  0  0
  1 20  1  0  0  0  0
  2 16  1  0  0  0  0
  2  1  2  0  0  0  0
  3  2  1  0  0  0  0
  4  3  2  0  0  0  0
  4  5  1  0  0  0  0
  5  6  2  0  0  0  0
  6  1  1  0  0  0  0
  7  3  1  0  0  0  0
  8  5  1  0  0  0  0
  8  9  1  0  0  0  0
  9 10  1  0  0  0  0
 11 12  1  0  0  0  0
 11  9  2  0  0  0  0
 13 15  1  0  0  0  0
 13 11  1  0  0  0  0
 14 13  1  0  0  0  0
 15  8  2  0  0  0  0
 16 18  1  0  0  0  0
 16 19  1  0  0  0  0
 17 16  1  0  0  0  0
 20 21  1  0  0  0  0
 21 22  1  0  0  0  0
 21 24  1  0  0  0  0
 23 21  1  0  0  0  0
M  END
>  <minimizedAffinity>
-5.05037212

$$$$

 OpenBabel03252504123D

 24 25  0  0  0  0  0  0  0  0999 V2000
   37.0610   28.5260   41.0410 C   0  0  0  0  0  0  0  0  0  0  0  0
   37.9020   28.1570   42.0880 C   0  0  0  0  0  0  0  0  0  0  0  0
   38.7500   29.1350   42.6250 C   0  0  0  0  0  0  0  0  0  0  0  0
   38.7120   30.3820   42.1060 N   0  0  0  0  0  0  0  0  0  0  0  0
   37.8820   30.6960   41.0910 C   0  0  0  0  0  0  0  0  0  0  0  0
   37.0540   29.7850   40.5490 N   0  0  0  0  0  0  0  0  0  0  0  0
   39.4050   28.8730   43.4320 H   0  0  0  0  0  0  0  0  0  0  0  0
   37.9730   32.0830   40.6560 C   0  0  0  0  0  0  0  0  0  0  0  0
   38.9370   33.0490   40.8420 C   0  0  0  0  0  0  0  0  0  0  0  0
   39.8370   32.8480   41.4020 H   0  0  0  0  0  0  0  0  0  0  0  0
   38.4370   34.1610   40.1790 C   0  0  0  0  0  0  0  0  0  0  0  0
   39.0340   35.0830   40.1820 H   0  0  0  0  0  0  0  0  0  0  0  0
   37.2360   33.8630   39.6300 N   0  0  0  0  0  0  0  0  0  0  0  0
   36.6930   34.5920   39.0800 H   0  0  0  0  0  0  0  0  0  0  0  0
   36.9530   32.5940   39.9210 N   0  0  0  0  0  0  0  0  0  0  0  0
   37.8700   26.7550   42.5930 C   0  0  0  0  0  0  0  0  0  0  0  0
   38.3800   25.9000   41.6260 F   0  0  0  0  0  0  0  0  0  0  0  0
   38.7050   26.6690   43.6790 F   0  0  0  0  0  0  0  0  0  0  0  0
   36.6330   26.3060   42.9330 F   0  0  0  0  0  0  0  0  0  0  0  0
   36.2500   27.5830   40.5290 O   0  0  0  0  0  0  0  0  0  0  0  0
   36.3460   26.9260   39.2940 C   0  0  0  0  0  0  0  0  0  0  0  0
   36.2210   25.5530   39.5650 F   0  0  0  0  0  0  0  0  0  0  0  0
   35.3550   27.3670   38.4550 F   0  0  0  0  0  0  0  0  0  0  0  0
   37.6120   27.0770   38.7620 F   0  0  0  0  0  0  0  0  0  0  0  0
  1  2  1  0  0  0  0
  2 16  1  0  0  0  0
  2  3  2  0  0  0  0
  3  7  1  0  0  0  0
  4  3  1  0  0  0  0
  5  4  2  0  0  0  0
  6  1  2  0  0  0  0
  6  5  1  0  0  0  0
  8  9  1  0  0  0  0
  8  5  1  0  0  0  0
  9 10  1  0  0  0  0
 11 12  1  0  0  0  0
 11  9  2  0  0  0  0
 13 15  1  0  0  0  0
 13 11  1  0  0  0  0
 14 13  1  0  0  0  0
 15  8  2  0  0  0  0
 16 19  1  0  0  0  0
 16 18  1  0  0  0  0
 17 16  1  0  0  0  0
 20  1  1  0  0  0  0
 21 22  1  0  0  0  0
 21 20  1  0  0  0  0
 23 21  1  0  0  0  0
 24 21  1  0  0  0  0
M  END
>  <minimizedAffinity>
-5.03625154

$$$$

 OpenBabel03252504123D

 24 25  0  0  0  0  0  0  0  0999 V2000
   38.7050   28.5280   42.2730 C   0  0  0  0  0  0  0  0  0  0  0  0
   39.9900   28.1420   41.8970 C   0  0  0  0  0  0  0  0  0  0  0  0
   40.7370   29.0260   41.1070 C   0  0  0  0  0  0  0  0  0  0  0  0
   40.1810   30.2040   40.7500 N   0  0  0  0  0  0  0  0  0  0  0  0
   38.9340   30.5390   41.1350 C   0  0  0  0  0  0  0  0  0  0  0  0
   38.1850   29.7170   41.8930 N   0  0  0  0  0  0  0  0  0  0  0  0
   41.7280   28.7490   40.8070 H   0  0  0  0  0  0  0  0  0  0  0  0
   38.4940   31.8430   40.6590 C   0  0  0  0  0  0  0  0  0  0  0  0
   39.1880   32.9580   40.2430 C   0  0  0  0  0  0  0  0  0  0  0  0
   40.2660   32.9780   40.2260 H   0  0  0  0  0  0  0  0  0  0  0  0
   38.1970   33.8730   39.9140 C   0  0  0  0  0  0  0  0  0  0  0  0
   38.5010   34.8630   39.5480 H   0  0  0  0  0  0  0  0  0  0  0  0
   36.9790   33.3220   40.1280 N   0  0  0  0  0  0  0  0  0  0  0  0
   36.0910   33.8730   39.9340 H   0  0  0  0  0  0  0  0  0  0  0  0
   37.1600   32.0830   40.5830 N   0  0  0  0  0  0  0  0  0  0  0  0
   40.5160   26.8210   42.3430 C   0  0  0  0  0  0  0  0  0  0  0  0
   39.8320   25.8040   41.6910 F   0  0  0  0  0  0  0  0  0  0  0  0
   41.8300   26.7270   41.9570 F   0  0  0  0  0  0  0  0  0  0  0  0
   40.4170   26.5960   43.6800 F   0  0  0  0  0  0  0  0  0  0  0  0
   37.9920   27.6760   43.0300 O   0  0  0  0  0  0  0  0  0  0  0  0
   36.7780   27.0450   42.7260 C   0  0  0  0  0  0  0  0  0  0  0  0
   37.0470   25.6660   42.6910 F   0  0  0  0  0  0  0  0  0  0  0  0
   35.8430   27.3530   43.6800 F   0  0  0  0  0  0  0  0  0  0  0  0
   36.3720   27.3680   41.4460 F   0  0  0  0  0  0  0  0  0  0  0  0
  1 20  1  0  0  0  0
  2  1  1  0  0  0  0
  2 16  1  0  0  0  0
  3  2  2  0  0  0  0
  4  3  1  0  0  0  0
  4  5  2  0  0  0  0
  5  6  1  0  0  0  0
  6  1  2  0  0  0  0
  7  3  1  0  0  0  0
  8  5  1  0  0  0  0
  9  8  1  0  0  0  0
 10  9  1  0  0  0  0
 11 13  1  0  0  0  0
 11  9  2  0  0  0  0
 12 11  1  0  0  0  0
 13 15  1  0  0  0  0
 14 13  1  0  0  0  0
 15  8  2  0  0  0  0
 16 19  1  0  0  0  0
 17 16  1  0  0  0  0
 18 16  1  0  0  0  0
 21 20  1  0  0  0  0
 21 23  1  0  0  0  0
 22 21  1  0  0  0  0
 24 21  1  0  0  0  0
M  END
>  <minimizedAffinity>
-5.00461817

$$$$

 OpenBabel03252504123D

 24 25  0  0  0  0  0  0  0  0999 V2000
   37.7680   27.8580   40.6130 C   0  0  0  0  0  0  0  0  0  0  0  0
   37.1960   26.6210   40.9020 C   0  0  0  0  0  0  0  0  0  0  0  0
   36.5280   25.9490   39.8700 C   0  0  0  0  0  0  0  0  0  0  0  0
   36.4690   26.5290   38.6500 N   0  0  0  0  0  0  0  0  0  0  0  0
   37.0360   27.7280   38.4140 C   0  0  0  0  0  0  0  0  0  0  0  0
   37.6860   28.4040   39.3780 N   0  0  0  0  0  0  0  0  0  0  0  0
   36.0810   24.9950   40.0700 H   0  0  0  0  0  0  0  0  0  0  0  0
   36.8760   28.2020   37.0460 C   0  0  0  0  0  0  0  0  0  0  0  0
   35.7990   28.7370   36.3730 C   0  0  0  0  0  0  0  0  0  0  0  0
   34.8440   28.8750   36.8550 H   0  0  0  0  0  0  0  0  0  0  0  0
   36.2860   28.9890   35.0980 C   0  0  0  0  0  0  0  0  0  0  0  0
   35.6050   29.4260   34.3560 H   0  0  0  0  0  0  0  0  0  0  0  0
   37.5870   28.6190   35.0250 N   0  0  0  0  0  0  0  0  0  0  0  0
   38.1350   28.7350   34.1230 H   0  0  0  0  0  0  0  0  0  0  0  0
   37.9470   28.1390   36.2150 N   0  0  0  0  0  0  0  0  0  0  0  0
   37.3160   26.0640   42.2790 C   0  0  0  0  0  0  0  0  0  0  0  0
   36.4770   26.7610   43.1370 F   0  0  0  0  0  0  0  0  0  0  0  0
   36.8730   24.7650   42.2590 F   0  0  0  0  0  0  0  0  0  0  0  0
   38.5710   26.1090   42.7990 F   0  0  0  0  0  0  0  0  0  0  0  0
   38.4080   28.4990   41.6070 O   0  0  0  0  0  0  0  0  0  0  0  0
   37.9740   29.6020   42.3550 C   0  0  0  0  0  0  0  0  0  0  0  0
   39.0370   30.5210   42.3570 F   0  0  0  0  0  0  0  0  0  0  0  0
   36.8470   30.1360   41.7850 F   0  0  0  0  0  0  0  0  0  0  0  0
   37.7960   29.2510   43.6790 F   0  0  0  0  0  0  0  0  0  0  0  0
  1  2  1  0  0  0  0
  1 20  1  0  0  0  0
  2 16  1  0  0  0  0
  3  7  1  0  0  0  0
  3  2  2  0  0  0  0
  4  3  1  0  0  0  0
  5  4  2  0  0  0  0
  5  6  1  0  0  0  0
  6  1  2  0  0  0  0
  8  5  1  0  0  0  0
  9 10  1  0  0  0  0
  9  8  1  0  0  0  0
 11  9  2  0  0  0  0
 12 11  1  0  0  0  0
 13 11  1  0  0  0  0
 13 15  1  0  0  0  0
 14 13  1  0  0  0  0
 15  8  2  0  0  0  0
 16 19  1  0  0  0  0
 16 17  1  0  0  0  0
 18 16  1  0  0  0  0
 20 21  1  0  0  0  0
 21 22  1  0  0  0  0
 21 24  1  0  0  0  0
 23 21  1  0  0  0  0
M  END
>  <minimizedAffinity>
-4.87578106

$$$$

 OpenBabel03252504123D

 24 25  0  0  0  0  0  0  0  0999 V2000
   37.8170   28.8960   41.0510 C   0  0  0  0  0  0  0  0  0  0  0  0
   39.0220   29.5610   41.2640 C   0  0  0  0  0  0  0  0  0  0  0  0
   39.7050   30.0580   40.1460 C   0  0  0  0  0  0  0  0  0  0  0  0
   39.1660   29.8700   38.9210 N   0  0  0  0  0  0  0  0  0  0  0  0
   37.9970   29.2200   38.7600 C   0  0  0  0  0  0  0  0  0  0  0  0
   37.3120   28.7290   39.8080 N   0  0  0  0  0  0  0  0  0  0  0  0
   40.6340   30.5730   40.2880 H   0  0  0  0  0  0  0  0  0  0  0  0
   37.5660   29.1080   37.3730 C   0  0  0  0  0  0  0  0  0  0  0  0
   36.4760   29.6140   36.7000 C   0  0  0  0  0  0  0  0  0  0  0  0
   35.7380   30.2230   37.1980 H   0  0  0  0  0  0  0  0  0  0  0  0
   36.6330   29.1530   35.4010 C   0  0  0  0  0  0  0  0  0  0  0  0
   35.8760   29.4270   34.6540 H   0  0  0  0  0  0  0  0  0  0  0  0
   37.7610   28.4100   35.3140 N   0  0  0  0  0  0  0  0  0  0  0  0
   38.0520   27.9680   34.3930 H   0  0  0  0  0  0  0  0  0  0  0  0
   38.3310   28.3830   36.5180 N   0  0  0  0  0  0  0  0  0  0  0  0
   39.5340   29.7180   42.6550 C   0  0  0  0  0  0  0  0  0  0  0  0
   40.2370   28.5800   43.0240 F   0  0  0  0  0  0  0  0  0  0  0  0
   40.4280   30.7600   42.6700 F   0  0  0  0  0  0  0  0  0  0  0  0
   38.5710   29.9320   43.5900 F   0  0  0  0  0  0  0  0  0  0  0  0
   37.1660   28.4200   42.1270 O   0  0  0  0  0  0  0  0  0  0  0  0
   37.0390   27.0910   42.5540 C   0  0  0  0  0  0  0  0  0  0  0  0
   36.0290   27.0840   43.5310 F   0  0  0  0  0  0  0  0  0  0  0  0
   36.7160   26.2900   41.4880 F   0  0  0  0  0  0  0  0  0  0  0  0
   38.1830   26.6820   43.2100 F   0  0  0  0  0  0  0  0  0  0  0  0
  1  2  1  0  0  0  0
  1 20  1  0  0  0  0
  2 16  1  0  0  0  0
  3  7  1  0  0  0  0
  3  2  2  0  0  0  0
  4  3  1  0  0  0  0
  5  4  2  0  0  0  0
  5  6  1  0  0  0  0
  6  1  2  0  0  0  0
  8  5  1  0  0  0  0
  9 10  1  0  0  0  0
  9  8  1  0  0  0  0
 11  9  2  0  0  0  0
 12 11  1  0  0  0  0
 13 11  1  0  0  0  0
 13 15  1  0  0  0  0
 14 13  1  0  0  0  0
 15  8  2  0  0  0  0
 16 18  1  0  0  0  0
 16 17  1  0  0  0  0
 16 19  1  0  0  0  0
 20 21  1  0  0  0  0
 21 24  1  0  0  0  0
 21 22  1  0  0  0  0
 23 21  1  0  0  0  0
M  END
>  <minimizedAffinity>
-4.79769039

$$$$
