
 OpenBabel03252509263D

 29 31  0  0  1  0  0  0  0  0999 V2000
   46.6240   35.1160   41.9210 C   0  0  1  0  0  0  0  0  0  0  0  0
   48.1670   35.2630   41.9290 C   0  0  0  0  0  0  0  0  0  0  0  0
   47.3530   34.0980   41.2810 C   0  0  2  0  0  0  0  0  0  0  0  0
   46.1630   35.9660   41.4010 H   0  0  0  0  0  0  0  0  0  0  0  0
   48.6220   35.9120   41.1620 H   0  0  0  0  0  0  0  0  0  0  0  0
   48.7220   34.9850   42.8300 H   0  0  0  0  0  0  0  0  0  0  0  0
   47.4610   33.1070   41.8150 H   0  0  0  0  0  0  0  0  0  0  0  0
   44.6560   35.3960   45.0940 C   0  0  0  0  0  0  0  0  0  0  0  0
   45.1380   35.7180   43.7970 C   0  0  0  0  0  0  0  0  0  0  0  0
   46.0990   34.8760   43.3110 C   0  0  0  0  0  0  0  0  0  0  0  0
   46.5570   33.8070   44.0340 N   0  0  0  0  0  0  0  0  0  0  0  0
   46.0680   33.5440   45.2620 C   0  0  0  0  0  0  0  0  0  0  0  0
   45.1130   34.3420   45.7940 N   0  0  0  0  0  0  0  0  0  0  0  0
   43.8910   36.0190   45.5400 H   0  0  0  0  0  0  0  0  0  0  0  0
   46.4620   32.6880   45.7940 H   0  0  0  0  0  0  0  0  0  0  0  0
   44.6690   36.8410   43.0860 N   0  0  0  0  0  0  0  0  0  0  0  0
   43.6980   37.1430   42.8000 H   0  0  0  0  0  0  0  0  0  0  0  0
   45.4990   37.4370   42.8310 H   0  0  0  0  0  0  0  0  0  0  0  0
   47.3810   33.9610   39.7760 C   0  0  0  0  0  0  0  0  0  0  0  0
   48.3380   33.4990   39.4900 H   0  0  0  0  0  0  0  0  0  0  0  0
   47.2890   34.9410   39.2640 H   0  0  0  0  0  0  0  0  0  0  0  0
   46.2820   33.0370   39.4250 C   0  0  0  0  0  0  0  0  0  0  0  0
   45.7360   32.0020   40.1750 C   0  0  0  0  0  0  0  0  0  0  0  0
   46.0530   31.7120   41.1690 H   0  0  0  0  0  0  0  0  0  0  0  0
   44.7170   31.3950   39.4480 C   0  0  0  0  0  0  0  0  0  0  0  0
   44.0920   30.5640   39.7420 H   0  0  0  0  0  0  0  0  0  0  0  0
   44.6850   32.0930   38.2770 N   0  0  0  0  0  0  0  0  0  0  0  0
   43.9940   31.8330   37.5400 H   0  0  0  0  0  0  0  0  0  0  0  0
   45.5870   33.0410   38.2590 N   0  0  0  0  0  0  0  0  0  0  0  0
  1  4  1  6  0  0  0
  1  2  1  0  0  0  0
  1 10  1  0  0  0  0
  2  6  1  0  0  0  0
  3  7  1  1  0  0  0
  3  1  1  0  0  0  0
  3  2  1  0  0  0  0
  5  2  1  0  0  0  0
  8 14  1  0  0  0  0
  8 13  1  0  0  0  0
  9  8  2  0  0  0  0
 10  9  1  0  0  0  0
 10 11  2  0  0  0  0
 11 12  1  0  0  0  0
 12 15  1  0  0  0  0
 12 13  2  0  0  0  0
 16  9  1  0  0  0  0
 17 16  1  0  0  0  0
 18 16  1  0  0  0  0
 19  3  1  0  0  0  0
 20 19  1  0  0  0  0
 21 19  1  0  0  0  0
 22 19  1  0  0  0  0
 22 23  1  0  0  0  0
 23 24  1  0  0  0  0
 25 26  1  0  0  0  0
 25 23  2  0  0  0  0
 27 25  1  0  0  0  0
 28 27  1  0  0  0  0
 29 27  1  0  0  0  0
 29 22  2  0  0  0  0
M  END
>  <minimizedAffinity>
-4.40772724

>  <minimizedRMSD>
0.792326391

$$$$
