
 OpenBabel03252509263D

 29 31  0  0  1  0  0  0  0  0999 V2000
   46.7220   35.1710   42.0100 C   0  0  1  0  0  0  0  0  0  0  0  0
   48.2710   35.2040   42.0400 C   0  0  0  0  0  0  0  0  0  0  0  0
   47.3830   34.1410   41.3180 C   0  0  2  0  0  0  0  0  0  0  0  0
   46.3300   36.0810   41.5370 H   0  0  0  0  0  0  0  0  0  0  0  0
   48.7820   35.8620   41.3150 H   0  0  0  0  0  0  0  0  0  0  0  0
   48.7930   34.8360   42.9270 H   0  0  0  0  0  0  0  0  0  0  0  0
   47.4120   33.1160   41.7950 H   0  0  0  0  0  0  0  0  0  0  0  0
   44.6510   35.3340   45.1260 C   0  0  0  0  0  0  0  0  0  0  0  0
   45.1620   35.6930   43.8490 C   0  0  0  0  0  0  0  0  0  0  0  0
   46.1630   34.8900   43.3800 C   0  0  0  0  0  0  0  0  0  0  0  0
   46.6330   33.8250   44.0980 N   0  0  0  0  0  0  0  0  0  0  0  0
   46.1160   33.5250   45.3070 C   0  0  0  0  0  0  0  0  0  0  0  0
   45.1210   34.2830   45.8220 N   0  0  0  0  0  0  0  0  0  0  0  0
   43.8540   35.9250   45.5590 H   0  0  0  0  0  0  0  0  0  0  0  0
   46.5220   32.6730   45.8360 H   0  0  0  0  0  0  0  0  0  0  0  0
   44.6790   36.8130   43.1440 N   0  0  0  0  0  0  0  0  0  0  0  0
   43.7070   37.0890   42.8330 H   0  0  0  0  0  0  0  0  0  0  0  0
   45.4960   37.4390   42.9230 H   0  0  0  0  0  0  0  0  0  0  0  0
   47.4200   34.0890   39.8080 C   0  0  0  0  0  0  0  0  0  0  0  0
   48.4010   33.6970   39.5010 H   0  0  0  0  0  0  0  0  0  0  0  0
   47.2730   35.0890   39.3510 H   0  0  0  0  0  0  0  0  0  0  0  0
   46.3750   33.1260   39.4030 C   0  0  0  0  0  0  0  0  0  0  0  0
   44.9950   33.2190   39.5480 C   0  0  0  0  0  0  0  0  0  0  0  0
   44.4660   34.0500   40.0000 H   0  0  0  0  0  0  0  0  0  0  0  0
   44.4000   32.0780   39.0230 C   0  0  0  0  0  0  0  0  0  0  0  0
   43.3470   31.8350   38.9760 H   0  0  0  0  0  0  0  0  0  0  0  0
   45.4490   31.3320   38.5750 N   0  0  0  0  0  0  0  0  0  0  0  0
   45.2730   30.4080   38.1270 H   0  0  0  0  0  0  0  0  0  0  0  0
   46.5920   31.9340   38.7930 N   0  0  0  0  0  0  0  0  0  0  0  0
  1  4  1  6  0  0  0
  1  2  1  0  0  0  0
  1 10  1  0  0  0  0
  2  6  1  0  0  0  0
  3  7  1  1  0  0  0
  3  1  1  0  0  0  0
  3  2  1  0  0  0  0
  5  2  1  0  0  0  0
  8 14  1  0  0  0  0
  8 13  1  0  0  0  0
  9  8  2  0  0  0  0
 10  9  1  0  0  0  0
 10 11  2  0  0  0  0
 11 12  1  0  0  0  0
 12 13  2  0  0  0  0
 12 15  1  0  0  0  0
 16  9  1  0  0  0  0
 17 16  1  0  0  0  0
 18 16  1  0  0  0  0
 19  3  1  0  0  0  0
 20 19  1  0  0  0  0
 21 19  1  0  0  0  0
 22 23  1  0  0  0  0
 22 19  1  0  0  0  0
 23 24  1  0  0  0  0
 25 23  2  0  0  0  0
 26 25  1  0  0  0  0
 27 29  1  0  0  0  0
 27 25  1  0  0  0  0
 28 27  1  0  0  0  0
 29 22  2  0  0  0  0
M  END
>  <minimizedAffinity>
-4.39695358

>  <minimizedRMSD>
0.767061532

$$$$
