
 OpenBabel03242523043D

 31 33  0  0  0  0  0  0  0  0999 V2000
   36.8000   30.1910   37.8940 C   0  0  0  0  0  0  0  0  0  0  0  0
   37.1080   30.2740   39.2550 C   0  0  0  0  0  0  0  0  0  0  0  0
   36.7260   29.2280   40.0650 C   0  0  0  0  0  0  0  0  0  0  0  0
   36.0680   28.1590   39.5170 N   0  0  0  0  0  0  0  0  0  0  0  0
   35.7820   28.1090   38.1810 C   0  0  0  0  0  0  0  0  0  0  0  0
   36.1510   29.1150   37.4060 N   0  0  0  0  0  0  0  0  0  0  0  0
   37.0100   30.9030   37.1190 H   0  0  0  0  0  0  0  0  0  0  0  0
   35.2590   27.2370   37.8020 H   0  0  0  0  0  0  0  0  0  0  0  0
   37.7870   31.4300   39.6770 N   0  0  0  0  0  0  0  0  0  0  0  0
   37.1110   32.6700   39.7330 C   0  0  0  0  0  0  0  0  0  0  0  0
   38.0340   33.8150   40.0340 C   0  0  0  0  0  0  0  0  0  0  0  0
   38.8630   33.5830   41.1470 N   0  0  0  0  0  0  0  0  0  0  0  0
   39.4240   32.2980   41.2650 C   0  0  0  0  0  0  0  0  0  0  0  0
   39.1790   31.4710   40.0490 C   0  0  0  0  0  0  0  0  0  0  0  0
   36.7110   32.9370   38.7080 H   0  0  0  0  0  0  0  0  0  0  0  0
   36.3810   32.7370   40.5540 H   0  0  0  0  0  0  0  0  0  0  0  0
   37.4080   34.7180   40.1810 H   0  0  0  0  0  0  0  0  0  0  0  0
   38.6340   34.0300   39.1040 H   0  0  0  0  0  0  0  0  0  0  0  0
   39.4400   34.3840   41.4130 H   0  0  0  0  0  0  0  0  0  0  0  0
   40.5170   32.3730   41.4350 H   0  0  0  0  0  0  0  0  0  0  0  0
   39.0020   31.7970   42.1790 H   0  0  0  0  0  0  0  0  0  0  0  0
   39.8060   31.8650   39.2180 H   0  0  0  0  0  0  0  0  0  0  0  0
   39.5120   30.4340   40.3390 H   0  0  0  0  0  0  0  0  0  0  0  0
   36.9550   29.0710   41.4840 C   0  0  0  0  0  0  0  0  0  0  0  0
   36.5240   27.8270   42.0050 C   0  0  0  0  0  0  0  0  0  0  0  0
   36.0650   26.9370   41.5150 H   0  0  0  0  0  0  0  0  0  0  0  0
   36.6980   27.6660   43.3680 C   0  0  0  0  0  0  0  0  0  0  0  0
   36.4890   26.8760   44.0610 H   0  0  0  0  0  0  0  0  0  0  0  0
   37.2470   28.8460   43.6800 N   0  0  0  0  0  0  0  0  0  0  0  0
   37.5760   29.2450   44.5920 H   0  0  0  0  0  0  0  0  0  0  0  0
   37.3770   29.5920   42.6410 N   0  0  0  0  0  0  0  0  0  0  0  0
  1  2  1  0  0  0  0
  2  9  1  0  0  0  0
  2  3  2  0  0  0  0
  3 24  1  0  0  0  0
  4  3  1  0  0  0  0
  5  4  2  0  0  0  0
  6  1  2  0  0  0  0
  6  5  1  0  0  0  0
  7  1  1  0  0  0  0
  8  5  1  0  0  0  0
  9 10  1  0  0  0  0
  9 14  1  0  0  0  0
 10 11  1  0  0  0  0
 10 16  1  0  0  0  0
 11 17  1  0  0  0  0
 11 12  1  0  0  0  0
 12 13  1  0  0  0  0
 12 19  1  0  0  0  0
 13 20  1  0  0  0  0
 13 21  1  0  0  0  0
 14 23  1  0  0  0  0
 14 13  1  0  0  0  0
 15 10  1  0  0  0  0
 18 11  1  0  0  0  0
 22 14  1  0  0  0  0
 24 25  1  0  0  0  0
 24 31  2  0  0  0  0
 25 27  2  0  0  0  0
 26 25  1  0  0  0  0
 27 29  1  0  0  0  0
 27 28  1  0  0  0  0
 29 30  1  0  0  0  0
 31 29  1  0  0  0  0
M  END
>  <minimizedAffinity>
-4.92940044

$$$$

 OpenBabel03242523043D

 31 33  0  0  0  0  0  0  0  0999 V2000
   41.0950   29.4560   41.9880 C   0  0  0  0  0  0  0  0  0  0  0  0
   39.8980   29.9650   41.4740 C   0  0  0  0  0  0  0  0  0  0  0  0
   38.7240   29.3640   41.8680 C   0  0  0  0  0  0  0  0  0  0  0  0
   38.7680   28.3050   42.7340 N   0  0  0  0  0  0  0  0  0  0  0  0
   39.9560   27.8320   43.2180 C   0  0  0  0  0  0  0  0  0  0  0  0
   41.0820   28.4110   42.8390 N   0  0  0  0  0  0  0  0  0  0  0  0
   42.0970   29.7880   41.7940 H   0  0  0  0  0  0  0  0  0  0  0  0
   39.9310   26.9890   43.9030 H   0  0  0  0  0  0  0  0  0  0  0  0
   40.0040   31.0570   40.5950 N   0  0  0  0  0  0  0  0  0  0  0  0
   40.2680   30.8400   39.2230 C   0  0  0  0  0  0  0  0  0  0  0  0
   40.5210   32.1180   38.4780 C   0  0  0  0  0  0  0  0  0  0  0  0
   39.5380   33.0980   38.7070 N   0  0  0  0  0  0  0  0  0  0  0  0
   39.0800   33.2430   40.0300 C   0  0  0  0  0  0  0  0  0  0  0  0
   39.8900   32.4380   40.9880 C   0  0  0  0  0  0  0  0  0  0  0  0
   41.2470   30.2840   39.1020 H   0  0  0  0  0  0  0  0  0  0  0  0
   39.4150   30.4130   38.6740 H   0  0  0  0  0  0  0  0  0  0  0  0
   40.5920   31.8670   37.4000 H   0  0  0  0  0  0  0  0  0  0  0  0
   41.5490   32.4840   38.7560 H   0  0  0  0  0  0  0  0  0  0  0  0
   39.6520   33.9440   38.1450 H   0  0  0  0  0  0  0  0  0  0  0  0
   39.1180   34.3090   40.3330 H   0  0  0  0  0  0  0  0  0  0  0  0
   37.9970   32.9460   40.0760 H   0  0  0  0  0  0  0  0  0  0  0  0
   40.8920   32.9110   41.0930 H   0  0  0  0  0  0  0  0  0  0  0  0
   39.3210   32.4980   41.9600 H   0  0  0  0  0  0  0  0  0  0  0  0
   37.3730   29.7240   41.5000 C   0  0  0  0  0  0  0  0  0  0  0  0
   36.5870   28.6370   41.0470 C   0  0  0  0  0  0  0  0  0  0  0  0
   36.8130   27.5500   40.9460 H   0  0  0  0  0  0  0  0  0  0  0  0
   35.3010   28.9620   40.6530 C   0  0  0  0  0  0  0  0  0  0  0  0
   34.4720   28.4020   40.2720 H   0  0  0  0  0  0  0  0  0  0  0  0
   35.3100   30.2820   40.8740 N   0  0  0  0  0  0  0  0  0  0  0  0
   34.5750   31.0180   40.7400 H   0  0  0  0  0  0  0  0  0  0  0  0
   36.4450   30.6730   41.3340 N   0  0  0  0  0  0  0  0  0  0  0  0
  1  6  1  0  0  0  0
  2  3  1  0  0  0  0
  2  1  2  0  0  0  0
  3  4  2  0  0  0  0
  4  5  1  0  0  0  0
  5  8  1  0  0  0  0
  6  5  2  0  0  0  0
  7  1  1  0  0  0  0
  9 14  1  0  0  0  0
  9  2  1  0  0  0  0
 10  9  1  0  0  0  0
 11 12  1  0  0  0  0
 11 18  1  0  0  0  0
 11 10  1  0  0  0  0
 12 13  1  0  0  0  0
 13 21  1  0  0  0  0
 13 20  1  0  0  0  0
 13 14  1  0  0  0  0
 14 22  1  0  0  0  0
 14 23  1  0  0  0  0
 15 10  1  0  0  0  0
 16 10  1  0  0  0  0
 17 11  1  0  0  0  0
 19 12  1  0  0  0  0
 24  3  1  0  0  0  0
 25 24  1  0  0  0  0
 26 25  1  0  0  0  0
 27 29  1  0  0  0  0
 27 25  2  0  0  0  0
 28 27  1  0  0  0  0
 29 31  1  0  0  0  0
 30 29  1  0  0  0  0
 31 24  2  0  0  0  0
M  END
>  <minimizedAffinity>
-4.58372974

$$$$

 OpenBabel03242523043D

 31 33  0  0  0  0  0  0  0  0999 V2000
   36.4570   27.0310   38.8880 C   0  0  0  0  0  0  0  0  0  0  0  0
   36.7740   28.1880   39.6060 C   0  0  0  0  0  0  0  0  0  0  0  0
   36.4280   29.4010   39.0540 C   0  0  0  0  0  0  0  0  0  0  0  0
   35.7960   29.4310   37.8400 N   0  0  0  0  0  0  0  0  0  0  0  0
   35.5000   28.2810   37.1630 C   0  0  0  0  0  0  0  0  0  0  0  0
   35.8330   27.1170   37.6960 N   0  0  0  0  0  0  0  0  0  0  0  0
   36.6500   26.0090   39.1530 H   0  0  0  0  0  0  0  0  0  0  0  0
   34.9980   28.3640   36.2040 H   0  0  0  0  0  0  0  0  0  0  0  0
   37.4220   28.0060   40.8400 N   0  0  0  0  0  0  0  0  0  0  0  0
   38.8120   27.7530   40.8800 C   0  0  0  0  0  0  0  0  0  0  0  0
   39.2940   27.4120   42.2600 C   0  0  0  0  0  0  0  0  0  0  0  0
   38.8670   28.3270   43.2400 N   0  0  0  0  0  0  0  0  0  0  0  0
   37.5360   28.7780   43.1520 C   0  0  0  0  0  0  0  0  0  0  0  0
   36.7630   28.0280   42.1210 C   0  0  0  0  0  0  0  0  0  0  0  0
   39.0500   26.8130   40.2960 H   0  0  0  0  0  0  0  0  0  0  0  0
   39.4260   28.6300   40.6280 H   0  0  0  0  0  0  0  0  0  0  0  0
   40.4010   27.3530   42.2230 H   0  0  0  0  0  0  0  0  0  0  0  0
   38.9590   26.3620   42.4950 H   0  0  0  0  0  0  0  0  0  0  0  0
   39.2520   28.1540   44.1710 H   0  0  0  0  0  0  0  0  0  0  0  0
   37.0300   28.6700   44.1320 H   0  0  0  0  0  0  0  0  0  0  0  0
   37.5390   29.8790   42.9240 H   0  0  0  0  0  0  0  0  0  0  0  0
   36.5780   26.9960   42.4960 H   0  0  0  0  0  0  0  0  0  0  0  0
   35.7930   28.5950   42.0260 H   0  0  0  0  0  0  0  0  0  0  0  0
   36.6200   30.7210   39.6130 C   0  0  0  0  0  0  0  0  0  0  0  0
   37.0800   31.6820   38.6800 C   0  0  0  0  0  0  0  0  0  0  0  0
   37.2960   31.6120   37.5880 H   0  0  0  0  0  0  0  0  0  0  0  0
   37.3080   32.9440   39.1980 C   0  0  0  0  0  0  0  0  0  0  0  0
   37.6470   33.8720   38.7840 H   0  0  0  0  0  0  0  0  0  0  0  0
   36.9790   32.7400   40.4780 N   0  0  0  0  0  0  0  0  0  0  0  0
   36.9720   33.3800   41.3090 H   0  0  0  0  0  0  0  0  0  0  0  0
   36.6090   31.5260   40.6800 N   0  0  0  0  0  0  0  0  0  0  0  0
  1  7  1  0  0  0  0
  1  2  1  0  0  0  0
  2  9  1  0  0  0  0
  3  2  2  0  0  0  0
  3 24  1  0  0  0  0
  4  3  1  0  0  0  0
  5  6  1  0  0  0  0
  5  4  2  0  0  0  0
  6  1  2  0  0  0  0
  8  5  1  0  0  0  0
  9 10  1  0  0  0  0
  9 14  1  0  0  0  0
 10 11  1  0  0  0  0
 11 18  1  0  0  0  0
 11 12  1  0  0  0  0
 12 19  1  0  0  0  0
 13 12  1  0  0  0  0
 13 20  1  0  0  0  0
 14 22  1  0  0  0  0
 14 13  1  0  0  0  0
 15 10  1  0  0  0  0
 16 10  1  0  0  0  0
 17 11  1  0  0  0  0
 21 13  1  0  0  0  0
 23 14  1  0  0  0  0
 24 31  2  0  0  0  0
 25 27  2  0  0  0  0
 25 24  1  0  0  0  0
 26 25  1  0  0  0  0
 27 29  1  0  0  0  0
 28 27  1  0  0  0  0
 29 31  1  0  0  0  0
 29 30  1  0  0  0  0
M  END
>  <minimizedAffinity>
-4.5636301

$$$$

 OpenBabel03242523043D

 31 33  0  0  0  0  0  0  0  0999 V2000
   38.4020   29.7190   42.4330 C   0  0  0  0  0  0  0  0  0  0  0  0
   37.5410   29.8080   41.3340 C   0  0  0  0  0  0  0  0  0  0  0  0
   36.5020   28.9080   41.2580 C   0  0  0  0  0  0  0  0  0  0  0  0
   36.3500   27.9720   42.2450 N   0  0  0  0  0  0  0  0  0  0  0  0
   37.2090   27.9120   43.3070 C   0  0  0  0  0  0  0  0  0  0  0  0
   38.2060   28.7770   43.3770 N   0  0  0  0  0  0  0  0  0  0  0  0
   39.2600   30.3230   42.6570 H   0  0  0  0  0  0  0  0  0  0  0  0
   37.0410   27.1480   44.0600 H   0  0  0  0  0  0  0  0  0  0  0  0
   37.8180   30.8200   40.3990 N   0  0  0  0  0  0  0  0  0  0  0  0
   37.1350   32.0560   40.4680 C   0  0  0  0  0  0  0  0  0  0  0  0
   37.4300   32.9410   39.2920 C   0  0  0  0  0  0  0  0  0  0  0  0
   38.8060   33.0800   39.0320 N   0  0  0  0  0  0  0  0  0  0  0  0
   39.5930   31.9170   39.1340 C   0  0  0  0  0  0  0  0  0  0  0  0
   38.7580   30.6960   39.3130 C   0  0  0  0  0  0  0  0  0  0  0  0
   36.0200   31.8850   40.3750 H   0  0  0  0  0  0  0  0  0  0  0  0
   37.4460   32.6830   41.3160 H   0  0  0  0  0  0  0  0  0  0  0  0
   36.9580   33.9250   39.4880 H   0  0  0  0  0  0  0  0  0  0  0  0
   36.8760   32.5300   38.4010 H   0  0  0  0  0  0  0  0  0  0  0  0
   39.0260   33.7430   38.2850 H   0  0  0  0  0  0  0  0  0  0  0  0
   40.2170   31.7970   38.2250 H   0  0  0  0  0  0  0  0  0  0  0  0
   40.3120   32.0370   39.9900 H   0  0  0  0  0  0  0  0  0  0  0  0
   38.2370   30.4760   38.3540 H   0  0  0  0  0  0  0  0  0  0  0  0
   39.4970   29.8800   39.5580 H   0  0  0  0  0  0  0  0  0  0  0  0
   35.4740   28.8200   40.2460 C   0  0  0  0  0  0  0  0  0  0  0  0
   35.8370   28.0430   39.1190 C   0  0  0  0  0  0  0  0  0  0  0  0
   36.7620   27.4670   38.8830 H   0  0  0  0  0  0  0  0  0  0  0  0
   34.8850   27.9730   38.1180 C   0  0  0  0  0  0  0  0  0  0  0  0
   34.8360   27.4890   37.1640 H   0  0  0  0  0  0  0  0  0  0  0  0
   33.9190   28.7300   38.6540 N   0  0  0  0  0  0  0  0  0  0  0  0
   32.9700   29.0050   38.3030 H   0  0  0  0  0  0  0  0  0  0  0  0
   34.2620   29.1780   39.8090 N   0  0  0  0  0  0  0  0  0  0  0  0
  1  7  1  0  0  0  0
  1  6  1  0  0  0  0
  2  1  2  0  0  0  0
  3  2  1  0  0  0  0
  3  4  2  0  0  0  0
  4  5  1  0  0  0  0
  5  6  2  0  0  0  0
  5  8  1  0  0  0  0
  9 10  1  0  0  0  0
  9  2  1  0  0  0  0
 10 16  1  0  0  0  0
 11 17  1  0  0  0  0
 11 10  1  0  0  0  0
 12 13  1  0  0  0  0
 12 11  1  0  0  0  0
 13 14  1  0  0  0  0
 13 21  1  0  0  0  0
 14 23  1  0  0  0  0
 14  9  1  0  0  0  0
 15 10  1  0  0  0  0
 18 11  1  0  0  0  0
 19 12  1  0  0  0  0
 20 13  1  0  0  0  0
 22 14  1  0  0  0  0
 24  3  1  0  0  0  0
 25 24  1  0  0  0  0
 26 25  1  0  0  0  0
 27 29  1  0  0  0  0
 27 25  2  0  0  0  0
 28 27  1  0  0  0  0
 29 31  1  0  0  0  0
 30 29  1  0  0  0  0
 31 24  2  0  0  0  0
M  END
>  <minimizedAffinity>
-4.56030273

$$$$

 OpenBabel03242523043D

 31 33  0  0  0  0  0  0  0  0999 V2000
   40.4680   28.7910   39.2710 C   0  0  0  0  0  0  0  0  0  0  0  0
   39.5030   29.6980   39.7210 C   0  0  0  0  0  0  0  0  0  0  0  0
   39.3680   30.8840   39.0350 C   0  0  0  0  0  0  0  0  0  0  0  0
   40.1700   31.1300   37.9530 N   0  0  0  0  0  0  0  0  0  0  0  0
   41.1040   30.2220   37.5390 C   0  0  0  0  0  0  0  0  0  0  0  0
   41.2320   29.0840   38.2000 N   0  0  0  0  0  0  0  0  0  0  0  0
   40.7190   27.8300   39.6780 H   0  0  0  0  0  0  0  0  0  0  0  0
   41.7130   30.4700   36.6760 H   0  0  0  0  0  0  0  0  0  0  0  0
   38.7510   29.3110   40.8440 N   0  0  0  0  0  0  0  0  0  0  0  0
   39.1380   29.7320   42.1370 C   0  0  0  0  0  0  0  0  0  0  0  0
   38.3260   29.0820   43.2190 C   0  0  0  0  0  0  0  0  0  0  0  0
   36.9390   29.1660   42.9990 N   0  0  0  0  0  0  0  0  0  0  0  0
   36.4890   28.9470   41.6830 C   0  0  0  0  0  0  0  0  0  0  0  0
   37.5850   28.4660   40.7950 C   0  0  0  0  0  0  0  0  0  0  0  0
   40.1860   29.3690   42.3620 H   0  0  0  0  0  0  0  0  0  0  0  0
   38.9610   30.8020   42.3220 H   0  0  0  0  0  0  0  0  0  0  0  0
   38.6090   29.5590   44.1800 H   0  0  0  0  0  0  0  0  0  0  0  0
   38.6700   28.0140   43.3160 H   0  0  0  0  0  0  0  0  0  0  0  0
   36.3700   28.8000   43.7660 H   0  0  0  0  0  0  0  0  0  0  0  0
   35.6680   28.2020   41.6790 H   0  0  0  0  0  0  0  0  0  0  0  0
   36.0450   29.9010   41.2860 H   0  0  0  0  0  0  0  0  0  0  0  0
   37.8360   27.4180   41.0750 H   0  0  0  0  0  0  0  0  0  0  0  0
   37.1460   28.5030   39.7570 H   0  0  0  0  0  0  0  0  0  0  0  0
   38.4300   31.9550   39.2860 C   0  0  0  0  0  0  0  0  0  0  0  0
   39.0220   33.1300   39.8120 C   0  0  0  0  0  0  0  0  0  0  0  0
   40.0820   33.3860   40.0420 H   0  0  0  0  0  0  0  0  0  0  0  0
   38.1420   34.1570   40.0960 C   0  0  0  0  0  0  0  0  0  0  0  0
   38.2500   35.1480   40.4900 H   0  0  0  0  0  0  0  0  0  0  0  0
   36.9860   33.5890   39.7350 N   0  0  0  0  0  0  0  0  0  0  0  0
   35.9980   33.9420   39.7480 H   0  0  0  0  0  0  0  0  0  0  0  0
   37.1670   32.3940   39.2980 N   0  0  0  0  0  0  0  0  0  0  0  0
  1  7  1  0  0  0  0
  1  2  1  0  0  0  0
  2  9  1  0  0  0  0
  3 24  1  0  0  0  0
  3  2  2  0  0  0  0
  4  3  1  0  0  0  0
  5  4  2  0  0  0  0
  5  6  1  0  0  0  0
  6  1  2  0  0  0  0
  8  5  1  0  0  0  0
  9 10  1  0  0  0  0
 10 16  1  0  0  0  0
 10 15  1  0  0  0  0
 10 11  1  0  0  0  0
 11 18  1  0  0  0  0
 11 17  1  0  0  0  0
 12 11  1  0  0  0  0
 12 19  1  0  0  0  0
 13 12  1  0  0  0  0
 14  9  1  0  0  0  0
 14 22  1  0  0  0  0
 14 13  1  0  0  0  0
 20 13  1  0  0  0  0
 21 13  1  0  0  0  0
 23 14  1  0  0  0  0
 24 31  2  0  0  0  0
 24 25  1  0  0  0  0
 25 26  1  0  0  0  0
 25 27  2  0  0  0  0
 27 28  1  0  0  0  0
 29 30  1  0  0  0  0
 29 27  1  0  0  0  0
 31 29  1  0  0  0  0
M  END
>  <minimizedAffinity>
-4.52369547

$$$$

 OpenBabel03242523043D

 31 33  0  0  0  0  0  0  0  0999 V2000
   36.6700   27.9750   39.1950 C   0  0  0  0  0  0  0  0  0  0  0  0
   37.2000   29.0400   39.9310 C   0  0  0  0  0  0  0  0  0  0  0  0
   37.1260   30.3000   39.3800 C   0  0  0  0  0  0  0  0  0  0  0  0
   36.5460   30.4630   38.1510 N   0  0  0  0  0  0  0  0  0  0  0  0
   36.0370   29.4000   37.4580 C   0  0  0  0  0  0  0  0  0  0  0  0
   36.1090   28.1920   37.9890 N   0  0  0  0  0  0  0  0  0  0  0  0
   36.6410   26.9340   39.4560 H   0  0  0  0  0  0  0  0  0  0  0  0
   35.5880   29.5890   36.4870 H   0  0  0  0  0  0  0  0  0  0  0  0
   37.7640   28.7230   41.1780 N   0  0  0  0  0  0  0  0  0  0  0  0
   36.9350   28.5690   42.3130 C   0  0  0  0  0  0  0  0  0  0  0  0
   37.7220   28.4090   43.5810 C   0  0  0  0  0  0  0  0  0  0  0  0
   38.7280   27.4300   43.4910 N   0  0  0  0  0  0  0  0  0  0  0  0
   39.4770   27.3950   42.2990 C   0  0  0  0  0  0  0  0  0  0  0  0
   39.1750   28.5610   41.4210 C   0  0  0  0  0  0  0  0  0  0  0  0
   36.3560   29.5240   42.5000 H   0  0  0  0  0  0  0  0  0  0  0  0
   36.3310   27.6500   42.2950 H   0  0  0  0  0  0  0  0  0  0  0  0
   37.0030   28.1710   44.3920 H   0  0  0  0  0  0  0  0  0  0  0  0
   38.1430   29.4160   43.8580 H   0  0  0  0  0  0  0  0  0  0  0  0
   39.2190   27.2520   44.3700 H   0  0  0  0  0  0  0  0  0  0  0  0
   40.5610   27.3880   42.5290 H   0  0  0  0  0  0  0  0  0  0  0  0
   39.2660   26.4280   41.7640 H   0  0  0  0  0  0  0  0  0  0  0  0
   39.6120   29.4760   41.8800 H   0  0  0  0  0  0  0  0  0  0  0  0
   39.6900   28.3230   40.4460 H   0  0  0  0  0  0  0  0  0  0  0  0
   37.5720   31.5490   39.9540 C   0  0  0  0  0  0  0  0  0  0  0  0
   37.1620   32.6960   39.2320 C   0  0  0  0  0  0  0  0  0  0  0  0
   36.5370   32.8110   38.3160 H   0  0  0  0  0  0  0  0  0  0  0  0
   37.6070   33.9030   39.7400 C   0  0  0  0  0  0  0  0  0  0  0  0
   37.4860   34.9270   39.4490 H   0  0  0  0  0  0  0  0  0  0  0  0
   38.3060   33.4750   40.7970 N   0  0  0  0  0  0  0  0  0  0  0  0
   38.8530   33.9890   41.5290 H   0  0  0  0  0  0  0  0  0  0  0  0
   38.2730   32.1940   40.8930 N   0  0  0  0  0  0  0  0  0  0  0  0
  1  7  1  0  0  0  0
  1  2  1  0  0  0  0
  2  9  1  0  0  0  0
  3  2  2  0  0  0  0
  3 24  1  0  0  0  0
  4  3  1  0  0  0  0
  5  6  1  0  0  0  0
  5  4  2  0  0  0  0
  6  1  2  0  0  0  0
  8  5  1  0  0  0  0
  9 14  1  0  0  0  0
  9 10  1  0  0  0  0
 10 15  1  0  0  0  0
 10 11  1  0  0  0  0
 11 18  1  0  0  0  0
 11 17  1  0  0  0  0
 12 11  1  0  0  0  0
 12 19  1  0  0  0  0
 13 20  1  0  0  0  0
 13 12  1  0  0  0  0
 14 22  1  0  0  0  0
 14 13  1  0  0  0  0
 16 10  1  0  0  0  0
 21 13  1  0  0  0  0
 23 14  1  0  0  0  0
 24 31  2  0  0  0  0
 25 27  2  0  0  0  0
 25 24  1  0  0  0  0
 26 25  1  0  0  0  0
 27 29  1  0  0  0  0
 28 27  1  0  0  0  0
 29 31  1  0  0  0  0
 29 30  1  0  0  0  0
M  END
>  <minimizedAffinity>
-4.43904924

$$$$

 OpenBabel03242523043D

 31 33  0  0  0  0  0  0  0  0999 V2000
   37.2270   27.7840   37.6620 C   0  0  0  0  0  0  0  0  0  0  0  0
   37.3690   28.4900   38.8610 C   0  0  0  0  0  0  0  0  0  0  0  0
   37.0120   27.8520   40.0270 C   0  0  0  0  0  0  0  0  0  0  0  0
   36.5380   26.5680   39.9740 N   0  0  0  0  0  0  0  0  0  0  0  0
   36.4110   25.9060   38.7840 C   0  0  0  0  0  0  0  0  0  0  0  0
   36.7550   26.5210   37.6650 N   0  0  0  0  0  0  0  0  0  0  0  0
   37.4460   28.1150   36.6640 H   0  0  0  0  0  0  0  0  0  0  0  0
   36.0300   24.8900   38.8010 H   0  0  0  0  0  0  0  0  0  0  0  0
   37.8700   29.8000   38.7640 N   0  0  0  0  0  0  0  0  0  0  0  0
   39.2510   30.0460   38.9380 C   0  0  0  0  0  0  0  0  0  0  0  0
   39.5730   31.5120   38.9760 C   0  0  0  0  0  0  0  0  0  0  0  0
   39.0100   32.2320   37.9060 N   0  0  0  0  0  0  0  0  0  0  0  0
   37.6890   31.9050   37.5450 C   0  0  0  0  0  0  0  0  0  0  0  0
   37.0630   30.9680   38.5200 C   0  0  0  0  0  0  0  0  0  0  0  0
   39.5790   29.6940   39.9630 H   0  0  0  0  0  0  0  0  0  0  0  0
   39.8700   29.6920   38.1000 H   0  0  0  0  0  0  0  0  0  0  0  0
   40.6770   31.6100   38.9880 H   0  0  0  0  0  0  0  0  0  0  0  0
   39.2370   31.9140   39.9730 H   0  0  0  0  0  0  0  0  0  0  0  0
   39.2860   33.2150   37.8720 H   0  0  0  0  0  0  0  0  0  0  0  0
   37.0730   32.8240   37.4800 H   0  0  0  0  0  0  0  0  0  0  0  0
   37.6930   31.4610   36.5110 H   0  0  0  0  0  0  0  0  0  0  0  0
   36.8580   31.5210   39.4640 H   0  0  0  0  0  0  0  0  0  0  0  0
   36.0970   30.6520   38.0300 H   0  0  0  0  0  0  0  0  0  0  0  0
   37.0950   28.3570   41.3790 C   0  0  0  0  0  0  0  0  0  0  0  0
   36.8860   27.3740   42.3780 C   0  0  0  0  0  0  0  0  0  0  0  0
   36.6950   26.2780   42.3100 H   0  0  0  0  0  0  0  0  0  0  0  0
   36.9240   27.8380   43.6800 C   0  0  0  0  0  0  0  0  0  0  0  0
   36.8090   27.3800   44.6410 H   0  0  0  0  0  0  0  0  0  0  0  0
   37.1610   29.1370   43.4630 N   0  0  0  0  0  0  0  0  0  0  0  0
   37.2810   29.9460   44.1210 H   0  0  0  0  0  0  0  0  0  0  0  0
   37.2500   29.3950   42.2070 N   0  0  0  0  0  0  0  0  0  0  0  0
  1  6  2  0  0  0  0
  1  2  1  0  0  0  0
  2  3  2  0  0  0  0
  3 24  1  0  0  0  0
  4  3  1  0  0  0  0
  5  8  1  0  0  0  0
  5  4  2  0  0  0  0
  6  5  1  0  0  0  0
  7  1  1  0  0  0  0
  9  2  1  0  0  0  0
  9 10  1  0  0  0  0
 10 11  1  0  0  0  0
 10 15  1  0  0  0  0
 11 17  1  0  0  0  0
 11 18  1  0  0  0  0
 12 11  1  0  0  0  0
 13 12  1  0  0  0  0
 13 14  1  0  0  0  0
 14  9  1  0  0  0  0
 14 22  1  0  0  0  0
 16 10  1  0  0  0  0
 19 12  1  0  0  0  0
 20 13  1  0  0  0  0
 21 13  1  0  0  0  0
 23 14  1  0  0  0  0
 24 31  2  0  0  0  0
 24 25  1  0  0  0  0
 25 27  2  0  0  0  0
 26 25  1  0  0  0  0
 27 28  1  0  0  0  0
 29 27  1  0  0  0  0
 29 30  1  0  0  0  0
 31 29  1  0  0  0  0
M  END
>  <minimizedAffinity>
-4.43632936

$$$$

 OpenBabel03242523043D

 31 33  0  0  0  0  0  0  0  0999 V2000
   39.9300   32.4030   38.6020 C   0  0  0  0  0  0  0  0  0  0  0  0
   39.1700   31.3780   39.1740 C   0  0  0  0  0  0  0  0  0  0  0  0
   38.7720   31.5280   40.4840 C   0  0  0  0  0  0  0  0  0  0  0  0
   39.1300   32.6590   41.1690 N   0  0  0  0  0  0  0  0  0  0  0  0
   39.8740   33.6420   40.5800 C   0  0  0  0  0  0  0  0  0  0  0  0
   40.2540   33.4950   39.3220 N   0  0  0  0  0  0  0  0  0  0  0  0
   40.3300   32.4590   37.6070 H   0  0  0  0  0  0  0  0  0  0  0  0
   40.1280   34.5170   41.1710 H   0  0  0  0  0  0  0  0  0  0  0  0
   38.8770   30.2760   38.3510 N   0  0  0  0  0  0  0  0  0  0  0  0
   37.8270   30.3560   37.4070 C   0  0  0  0  0  0  0  0  0  0  0  0
   37.5480   29.0370   36.7480 C   0  0  0  0  0  0  0  0  0  0  0  0
   38.7030   28.4120   36.2430 N   0  0  0  0  0  0  0  0  0  0  0  0
   39.8550   28.4590   37.0500 C   0  0  0  0  0  0  0  0  0  0  0  0
   39.5620   29.0110   38.4040 C   0  0  0  0  0  0  0  0  0  0  0  0
   36.8510   30.5810   37.9350 H   0  0  0  0  0  0  0  0  0  0  0  0
   38.0560   31.0030   36.5480 H   0  0  0  0  0  0  0  0  0  0  0  0
   36.8060   29.2170   35.9430 H   0  0  0  0  0  0  0  0  0  0  0  0
   37.0100   28.3840   37.4920 H   0  0  0  0  0  0  0  0  0  0  0  0
   38.5200   27.5530   35.7210 H   0  0  0  0  0  0  0  0  0  0  0  0
   40.2870   27.4440   37.1600 H   0  0  0  0  0  0  0  0  0  0  0  0
   40.6400   29.0750   36.5300 H   0  0  0  0  0  0  0  0  0  0  0  0
   38.9740   28.2580   38.9750 H   0  0  0  0  0  0  0  0  0  0  0  0
   40.5760   29.1610   38.8740 H   0  0  0  0  0  0  0  0  0  0  0  0
   37.9640   30.6300   41.2770 C   0  0  0  0  0  0  0  0  0  0  0  0
   38.6740   29.9730   42.3110 C   0  0  0  0  0  0  0  0  0  0  0  0
   39.7370   30.0430   42.6400 H   0  0  0  0  0  0  0  0  0  0  0  0
   37.9320   29.0800   43.0620 C   0  0  0  0  0  0  0  0  0  0  0  0
   38.1500   28.4370   43.8910 H   0  0  0  0  0  0  0  0  0  0  0  0
   36.7400   29.1990   42.4650 N   0  0  0  0  0  0  0  0  0  0  0  0
   35.8170   28.7350   42.6470 H   0  0  0  0  0  0  0  0  0  0  0  0
   36.7820   30.0450   41.4990 N   0  0  0  0  0  0  0  0  0  0  0  0
  1  2  2  0  0  0  0
  1  6  1  0  0  0  0
  2  3  1  0  0  0  0
  3  4  2  0  0  0  0
  3 24  1  0  0  0  0
  5  4  1  0  0  0  0
  5  8  1  0  0  0  0
  6  5  2  0  0  0  0
  7  1  1  0  0  0  0
  9 14  1  0  0  0  0
  9  2  1  0  0  0  0
 10 15  1  0  0  0  0
 10  9  1  0  0  0  0
 11 10  1  0  0  0  0
 11 18  1  0  0  0  0
 12 11  1  0  0  0  0
 12 13  1  0  0  0  0
 13 20  1  0  0  0  0
 13 14  1  0  0  0  0
 14 23  1  0  0  0  0
 14 22  1  0  0  0  0
 16 10  1  0  0  0  0
 17 11  1  0  0  0  0
 19 12  1  0  0  0  0
 21 13  1  0  0  0  0
 24 31  2  0  0  0  0
 24 25  1  0  0  0  0
 25 26  1  0  0  0  0
 25 27  2  0  0  0  0
 27 28  1  0  0  0  0
 29 30  1  0  0  0  0
 29 27  1  0  0  0  0
 31 29  1  0  0  0  0
M  END
>  <minimizedAffinity>
-4.37603855

$$$$

 OpenBabel03242523043D

 31 33  0  0  0  0  0  0  0  0999 V2000
   39.1260   31.4900   41.5610 C   0  0  0  0  0  0  0  0  0  0  0  0
   38.1670   30.5320   41.2170 C   0  0  0  0  0  0  0  0  0  0  0  0
   37.1580   30.9120   40.3610 C   0  0  0  0  0  0  0  0  0  0  0  0
   37.1290   32.1960   39.8850 N   0  0  0  0  0  0  0  0  0  0  0  0
   38.0820   33.1080   40.2420 C   0  0  0  0  0  0  0  0  0  0  0  0
   39.0500   32.7400   41.0630 N   0  0  0  0  0  0  0  0  0  0  0  0
   39.9730   31.3800   42.2120 H   0  0  0  0  0  0  0  0  0  0  0  0
   38.0100   34.1120   39.8340 H   0  0  0  0  0  0  0  0  0  0  0  0
   38.3240   29.2530   41.7810 N   0  0  0  0  0  0  0  0  0  0  0  0
   37.8320   28.9860   43.0790 C   0  0  0  0  0  0  0  0  0  0  0  0
   38.2430   27.6320   43.5800 C   0  0  0  0  0  0  0  0  0  0  0  0
   37.9830   26.5970   42.6630 N   0  0  0  0  0  0  0  0  0  0  0  0
   38.2690   26.8600   41.3100 C   0  0  0  0  0  0  0  0  0  0  0  0
   38.9920   28.1520   41.1370 C   0  0  0  0  0  0  0  0  0  0  0  0
   38.3170   29.6840   43.8270 H   0  0  0  0  0  0  0  0  0  0  0  0
   36.7340   28.9310   43.1310 H   0  0  0  0  0  0  0  0  0  0  0  0
   37.7160   27.4580   44.5410 H   0  0  0  0  0  0  0  0  0  0  0  0
   39.3340   27.6810   43.8570 H   0  0  0  0  0  0  0  0  0  0  0  0
   38.1820   25.6610   43.0210 H   0  0  0  0  0  0  0  0  0  0  0  0
   38.8840   26.0420   40.8840 H   0  0  0  0  0  0  0  0  0  0  0  0
   37.3070   26.8610   40.7270 H   0  0  0  0  0  0  0  0  0  0  0  0
   40.0310   28.0320   41.5200 H   0  0  0  0  0  0  0  0  0  0  0  0
   38.9990   28.3260   40.0230 H   0  0  0  0  0  0  0  0  0  0  0  0
   36.0800   30.1020   39.8410 C   0  0  0  0  0  0  0  0  0  0  0  0
   36.1180   29.9210   38.4370 C   0  0  0  0  0  0  0  0  0  0  0  0
   36.8440   30.2680   37.6640 H   0  0  0  0  0  0  0  0  0  0  0  0
   35.0760   29.1810   37.9090 C   0  0  0  0  0  0  0  0  0  0  0  0
   34.8090   28.8650   36.9210 H   0  0  0  0  0  0  0  0  0  0  0  0
   34.3880   28.9080   39.0230 N   0  0  0  0  0  0  0  0  0  0  0  0
   33.5030   28.3690   39.1840 H   0  0  0  0  0  0  0  0  0  0  0  0
   34.9520   29.4190   40.0590 N   0  0  0  0  0  0  0  0  0  0  0  0
  1  7  1  0  0  0  0
  2  1  1  0  0  0  0
  2  9  1  0  0  0  0
  3  2  2  0  0  0  0
  4  5  2  0  0  0  0
  4  3  1  0  0  0  0
  5  6  1  0  0  0  0
  6  1  2  0  0  0  0
  8  5  1  0  0  0  0
  9 10  1  0  0  0  0
 10 16  1  0  0  0  0
 10 11  1  0  0  0  0
 10 15  1  0  0  0  0
 11 18  1  0  0  0  0
 11 17  1  0  0  0  0
 12 19  1  0  0  0  0
 12 11  1  0  0  0  0
 13 12  1  0  0  0  0
 14 13  1  0  0  0  0
 14 22  1  0  0  0  0
 14  9  1  0  0  0  0
 20 13  1  0  0  0  0
 21 13  1  0  0  0  0
 23 14  1  0  0  0  0
 24 31  2  0  0  0  0
 24  3  1  0  0  0  0
 25 24  1  0  0  0  0
 26 25  1  0  0  0  0
 27 25  2  0  0  0  0
 27 29  1  0  0  0  0
 28 27  1  0  0  0  0
 29 30  1  0  0  0  0
 29 31  1  0  0  0  0
M  END
>  <minimizedAffinity>
-4.36783457

$$$$
