
 OpenBabel03252509253D

 29 31  0  0  1  0  0  0  0  0999 V2000
   46.8520   35.1670   41.8580 C   0  0  1  0  0  0  0  0  0  0  0  0
   48.3640   35.5030   41.9140 C   0  0  0  0  0  0  0  0  0  0  0  0
   47.7180   34.2670   41.2130 C   0  0  2  0  0  0  0  0  0  0  0  0
   46.3020   35.9680   41.3470 H   0  0  0  0  0  0  0  0  0  0  0  0
   48.7540   36.2270   41.1770 H   0  0  0  0  0  0  0  0  0  0  0  0
   48.9270   35.2710   42.8220 H   0  0  0  0  0  0  0  0  0  0  0  0
   47.9350   33.2810   41.7240 H   0  0  0  0  0  0  0  0  0  0  0  0
   44.8140   35.1380   44.9990 C   0  0  0  0  0  0  0  0  0  0  0  0
   45.2880   35.5560   43.7260 C   0  0  0  0  0  0  0  0  0  0  0  0
   46.3270   34.8220   43.2260 C   0  0  0  0  0  0  0  0  0  0  0  0
   46.8640   33.7680   43.9130 N   0  0  0  0  0  0  0  0  0  0  0  0
   46.3800   33.4110   45.1200 C   0  0  0  0  0  0  0  0  0  0  0  0
   45.3490   34.1000   45.6640 N   0  0  0  0  0  0  0  0  0  0  0  0
   43.9900   35.6730   45.4540 H   0  0  0  0  0  0  0  0  0  0  0  0
   46.8390   32.5710   45.6240 H   0  0  0  0  0  0  0  0  0  0  0  0
   44.7340   36.6640   43.0530 N   0  0  0  0  0  0  0  0  0  0  0  0
   43.7450   36.8920   42.7600 H   0  0  0  0  0  0  0  0  0  0  0  0
   45.5130   37.3400   42.8390 H   0  0  0  0  0  0  0  0  0  0  0  0
   47.8010   34.1780   39.7060 C   0  0  0  0  0  0  0  0  0  0  0  0
   48.8040   33.8150   39.4370 H   0  0  0  0  0  0  0  0  0  0  0  0
   47.6310   35.1600   39.2190 H   0  0  0  0  0  0  0  0  0  0  0  0
   46.8030   33.1670   39.2970 C   0  0  0  0  0  0  0  0  0  0  0  0
   46.0880   33.0730   38.1100 C   0  0  0  0  0  0  0  0  0  0  0  0
   46.1640   33.7610   37.2750 H   0  0  0  0  0  0  0  0  0  0  0  0
   45.2590   31.9580   38.1590 C   0  0  0  0  0  0  0  0  0  0  0  0
   44.5740   31.6020   37.4010 H   0  0  0  0  0  0  0  0  0  0  0  0
   45.5050   31.4150   39.3840 N   0  0  0  0  0  0  0  0  0  0  0  0
   45.0010   30.5510   39.6770 H   0  0  0  0  0  0  0  0  0  0  0  0
   46.3980   32.1100   40.0450 N   0  0  0  0  0  0  0  0  0  0  0  0
  1  4  1  6  0  0  0
  1  2  1  0  0  0  0
  1 10  1  0  0  0  0
  2  6  1  0  0  0  0
  3  7  1  1  0  0  0
  3  1  1  0  0  0  0
  3  2  1  0  0  0  0
  5  2  1  0  0  0  0
  8 14  1  0  0  0  0
  8 13  1  0  0  0  0
  9  8  2  0  0  0  0
 10  9  1  0  0  0  0
 10 11  2  0  0  0  0
 11 12  1  0  0  0  0
 12 15  1  0  0  0  0
 12 13  2  0  0  0  0
 16  9  1  0  0  0  0
 17 16  1  0  0  0  0
 18 16  1  0  0  0  0
 19  3  1  0  0  0  0
 20 19  1  0  0  0  0
 21 19  1  0  0  0  0
 22 19  1  0  0  0  0
 22 29  2  0  0  0  0
 23 25  2  0  0  0  0
 23 22  1  0  0  0  0
 24 23  1  0  0  0  0
 25 27  1  0  0  0  0
 26 25  1  0  0  0  0
 27 28  1  0  0  0  0
 27 29  1  0  0  0  0
M  END
>  <minimizedAffinity>
-4.44754601

>  <minimizedRMSD>
1.03682399

$$$$
