
 OpenBabel03252509263D

 29 31  0  0  1  0  0  0  0  0999 V2000
   46.7210   35.1580   41.9330 C   0  0  1  0  0  0  0  0  0  0  0  0
   48.2480   35.4170   41.9740 C   0  0  0  0  0  0  0  0  0  0  0  0
   47.5340   34.2030   41.3000 C   0  0  2  0  0  0  0  0  0  0  0  0
   46.2090   35.9770   41.4110 H   0  0  0  0  0  0  0  0  0  0  0  0
   48.6700   36.1050   41.2210 H   0  0  0  0  0  0  0  0  0  0  0  0
   48.8050   35.1720   42.8830 H   0  0  0  0  0  0  0  0  0  0  0  0
   47.7040   33.2170   41.8280 H   0  0  0  0  0  0  0  0  0  0  0  0
   44.7000   35.2870   45.0830 C   0  0  0  0  0  0  0  0  0  0  0  0
   45.1850   35.6560   43.8000 C   0  0  0  0  0  0  0  0  0  0  0  0
   46.1880   34.8670   43.3110 C   0  0  0  0  0  0  0  0  0  0  0  0
   46.6810   33.8040   44.0180 N   0  0  0  0  0  0  0  0  0  0  0  0
   46.1880   33.4940   45.2340 C   0  0  0  0  0  0  0  0  0  0  0  0
   45.1920   34.2400   45.7680 N   0  0  0  0  0  0  0  0  0  0  0  0
   43.9030   35.8680   45.5310 H   0  0  0  0  0  0  0  0  0  0  0  0
   46.6120   32.6460   45.7540 H   0  0  0  0  0  0  0  0  0  0  0  0
   44.6780   36.7730   43.1050 N   0  0  0  0  0  0  0  0  0  0  0  0
   43.6980   37.0390   42.8120 H   0  0  0  0  0  0  0  0  0  0  0  0
   45.4850   37.4090   42.8740 H   0  0  0  0  0  0  0  0  0  0  0  0
   47.6010   34.0820   39.7940 C   0  0  0  0  0  0  0  0  0  0  0  0
   48.5940   33.6920   39.5240 H   0  0  0  0  0  0  0  0  0  0  0  0
   47.4500   35.0580   39.2900 H   0  0  0  0  0  0  0  0  0  0  0  0
   46.5780   33.0860   39.4140 C   0  0  0  0  0  0  0  0  0  0  0  0
   46.1220   31.9840   40.1280 C   0  0  0  0  0  0  0  0  0  0  0  0
   46.4690   31.6840   41.1100 H   0  0  0  0  0  0  0  0  0  0  0  0
   45.1500   31.3240   39.3830 C   0  0  0  0  0  0  0  0  0  0  0  0
   44.5960   30.4340   39.6490 H   0  0  0  0  0  0  0  0  0  0  0  0
   45.0530   32.0570   38.2390 N   0  0  0  0  0  0  0  0  0  0  0  0
   44.3810   31.7720   37.4960 H   0  0  0  0  0  0  0  0  0  0  0  0
   45.8770   33.0770   38.2530 N   0  0  0  0  0  0  0  0  0  0  0  0
  1  4  1  6  0  0  0
  1  2  1  0  0  0  0
  1 10  1  0  0  0  0
  2  6  1  0  0  0  0
  3  7  1  1  0  0  0
  3  1  1  0  0  0  0
  3  2  1  0  0  0  0
  5  2  1  0  0  0  0
  8 14  1  0  0  0  0
  8 13  1  0  0  0  0
  9  8  2  0  0  0  0
 10  9  1  0  0  0  0
 10 11  2  0  0  0  0
 11 12  1  0  0  0  0
 12 15  1  0  0  0  0
 12 13  2  0  0  0  0
 16  9  1  0  0  0  0
 17 16  1  0  0  0  0
 18 16  1  0  0  0  0
 19  3  1  0  0  0  0
 20 19  1  0  0  0  0
 21 19  1  0  0  0  0
 22 19  1  0  0  0  0
 22 23  1  0  0  0  0
 23 24  1  0  0  0  0
 25 26  1  0  0  0  0
 25 23  2  0  0  0  0
 27 29  1  0  0  0  0
 27 25  1  0  0  0  0
 28 27  1  0  0  0  0
 29 22  2  0  0  0  0
M  END
>  <minimizedAffinity>
-4.41043377

>  <minimizedRMSD>
0.926497579

$$$$
