
 OpenBabel03252508363D

 30 32  0  0  0  0  0  0  0  0999 V2000
   37.8800   28.0470   41.1070 C   0  0  0  0  0  0  0  0  0  0  0  0
   37.8570   29.1090   41.9690 C   0  0  0  0  0  0  0  0  0  0  0  0
   37.3980   28.8720   43.2430 C   0  0  0  0  0  0  0  0  0  0  0  0
   36.9680   27.6320   43.6770 C   0  0  0  0  0  0  0  0  0  0  0  0
   37.0120   26.5860   42.7610 C   0  0  0  0  0  0  0  0  0  0  0  0
   37.4670   26.7900   41.4780 C   0  0  0  0  0  0  0  0  0  0  0  0
   37.3830   29.7210   43.9180 H   0  0  0  0  0  0  0  0  0  0  0  0
   36.6090   27.4590   44.6820 H   0  0  0  0  0  0  0  0  0  0  0  0
   36.6840   25.5990   43.0620 H   0  0  0  0  0  0  0  0  0  0  0  0
   37.9330   32.5640   40.4470 C   0  0  0  0  0  0  0  0  0  0  0  0
   37.4380   31.3290   40.9080 C   0  0  0  0  0  0  0  0  0  0  0  0
   38.3150   30.3940   41.4790 C   0  0  0  0  0  0  0  0  0  0  0  0
   39.6130   30.7750   41.5410 N   0  0  0  0  0  0  0  0  0  0  0  0
   40.0770   31.9410   41.1050 C   0  0  0  0  0  0  0  0  0  0  0  0
   39.2220   32.8410   40.5530 N   0  0  0  0  0  0  0  0  0  0  0  0
   37.0110   33.4690   39.8800 N   0  0  0  0  0  0  0  0  0  0  0  0
   36.3890   31.0680   40.8360 H   0  0  0  0  0  0  0  0  0  0  0  0
   41.1220   32.2130   41.1700 H   0  0  0  0  0  0  0  0  0  0  0  0
   35.9810   33.4080   40.1300 H   0  0  0  0  0  0  0  0  0  0  0  0
   37.4000   34.1880   39.2130 H   0  0  0  0  0  0  0  0  0  0  0  0
   37.5150   25.6950   40.5140 C   0  0  0  0  0  0  0  0  0  0  0  0
   36.5010   25.2850   39.6750 C   0  0  0  0  0  0  0  0  0  0  0  0
   35.5030   25.6880   39.5750 H   0  0  0  0  0  0  0  0  0  0  0  0
   36.9470   24.2190   38.9220 C   0  0  0  0  0  0  0  0  0  0  0  0
   36.4930   23.6030   38.1570 H   0  0  0  0  0  0  0  0  0  0  0  0
   38.2080   24.0010   39.3110 N   0  0  0  0  0  0  0  0  0  0  0  0
   38.9760   23.3150   39.0480 H   0  0  0  0  0  0  0  0  0  0  0  0
   38.5620   24.8780   40.2630 N   0  0  0  0  0  0  0  0  0  0  0  0
   38.7160   28.3760   38.6430 N   0  0  0  0  0  0  0  0  0  0  0  0
   38.3490   28.2220   39.7600 C   0  0  0  0  0  0  0  0  0  0  0  0
  1  6  2  0  0  0  0
  1  2  1  0  0  0  0
  2  3  2  0  0  0  0
  3  4  1  0  0  0  0
  3  7  1  0  0  0  0
  4  8  1  0  0  0  0
  5  9  1  0  0  0  0
  5  4  2  0  0  0  0
  6  5  1  0  0  0  0
 10 15  2  0  0  0  0
 10 11  1  0  0  0  0
 11 12  2  0  0  0  0
 12 13  1  0  0  0  0
 12  2  1  0  0  0  0
 14 18  1  0  0  0  0
 14 13  2  0  0  0  0
 15 14  1  0  0  0  0
 16 19  1  0  0  0  0
 16 10  1  0  0  0  0
 17 11  1  0  0  0  0
 20 16  1  0  0  0  0
 21  6  1  0  0  0  0
 22 21  1  0  0  0  0
 23 22  1  0  0  0  0
 24 26  1  0  0  0  0
 24 22  2  0  0  0  0
 25 24  1  0  0  0  0
 26 28  1  0  0  0  0
 27 26  1  0  0  0  0
 28 21  2  0  0  0  0
 29 30  3  0  0  0  0
 30  1  1  0  0  0  0
M  END
>  <minimizedAffinity>
-5.26619339

$$$$

 OpenBabel03252508363D

 30 32  0  0  0  0  0  0  0  0999 V2000
   38.5830   29.8680   39.3530 C   0  0  0  0  0  0  0  0  0  0  0  0
   38.7420   30.2970   38.0640 C   0  0  0  0  0  0  0  0  0  0  0  0
   37.6150   30.3520   37.2780 C   0  0  0  0  0  0  0  0  0  0  0  0
   36.3570   29.9970   37.7300 C   0  0  0  0  0  0  0  0  0  0  0  0
   36.2510   29.5670   39.0490 C   0  0  0  0  0  0  0  0  0  0  0  0
   37.3600   29.5020   39.8610 C   0  0  0  0  0  0  0  0  0  0  0  0
   37.7520   30.6930   36.2580 H   0  0  0  0  0  0  0  0  0  0  0  0
   35.4790   30.0450   37.1010 H   0  0  0  0  0  0  0  0  0  0  0  0
   35.2840   29.2810   39.4400 H   0  0  0  0  0  0  0  0  0  0  0  0
   41.7890   32.2980   37.0770 C   0  0  0  0  0  0  0  0  0  0  0  0
   40.4820   31.9980   37.5080 C   0  0  0  0  0  0  0  0  0  0  0  0
   40.0760   30.6600   37.6260 C   0  0  0  0  0  0  0  0  0  0  0  0
   41.0110   29.7360   37.3040 N   0  0  0  0  0  0  0  0  0  0  0  0
   42.2440   30.0220   36.8980 C   0  0  0  0  0  0  0  0  0  0  0  0
   42.6300   31.3200   36.7850 N   0  0  0  0  0  0  0  0  0  0  0  0
   42.1490   33.6580   36.9740 N   0  0  0  0  0  0  0  0  0  0  0  0
   39.7660   32.7730   37.7540 H   0  0  0  0  0  0  0  0  0  0  0  0
   42.9670   29.2580   36.6480 H   0  0  0  0  0  0  0  0  0  0  0  0
   41.6310   34.3920   37.5410 H   0  0  0  0  0  0  0  0  0  0  0  0
   42.9410   33.8920   36.3180 H   0  0  0  0  0  0  0  0  0  0  0  0
   37.2530   29.0520   41.2450 C   0  0  0  0  0  0  0  0  0  0  0  0
   37.1270   27.7520   41.6860 C   0  0  0  0  0  0  0  0  0  0  0  0
   37.0870   26.8420   41.1030 H   0  0  0  0  0  0  0  0  0  0  0  0
   37.0550   27.7520   43.0640 C   0  0  0  0  0  0  0  0  0  0  0  0
   36.9550   26.9720   43.8060 H   0  0  0  0  0  0  0  0  0  0  0  0
   37.1370   29.0350   43.4320 N   0  0  0  0  0  0  0  0  0  0  0  0
   37.1310   29.5620   44.3550 H   0  0  0  0  0  0  0  0  0  0  0  0
   37.2560   29.8250   42.3540 N   0  0  0  0  0  0  0  0  0  0  0  0
   40.6470   29.7340   40.9660 N   0  0  0  0  0  0  0  0  0  0  0  0
   39.7190   29.7860   40.2300 C   0  0  0  0  0  0  0  0  0  0  0  0
  1  6  1  0  0  0  0
  1 30  1  0  0  0  0
  2  1  2  0  0  0  0
  3  4  2  0  0  0  0
  3  2  1  0  0  0  0
  4  5  1  0  0  0  0
  5  9  1  0  0  0  0
  5  6  2  0  0  0  0
  6 21  1  0  0  0  0
  7  3  1  0  0  0  0
  8  4  1  0  0  0  0
 10 11  1  0  0  0  0
 11 12  2  0  0  0  0
 11 17  1  0  0  0  0
 12  2  1  0  0  0  0
 13 12  1  0  0  0  0
 14 13  2  0  0  0  0
 15 14  1  0  0  0  0
 15 10  2  0  0  0  0
 16 10  1  0  0  0  0
 16 19  1  0  0  0  0
 18 14  1  0  0  0  0
 20 16  1  0  0  0  0
 21 22  1  0  0  0  0
 21 28  2  0  0  0  0
 22 24  2  0  0  0  0
 23 22  1  0  0  0  0
 24 26  1  0  0  0  0
 24 25  1  0  0  0  0
 26 27  1  0  0  0  0
 28 26  1  0  0  0  0
 30 29  3  0  0  0  0
M  END
>  <minimizedAffinity>
-5.17671442

$$$$

 OpenBabel03252508363D

 30 32  0  0  0  0  0  0  0  0999 V2000
   38.7270   26.2080   41.2720 C   0  0  0  0  0  0  0  0  0  0  0  0
   39.0110   27.2480   42.1140 C   0  0  0  0  0  0  0  0  0  0  0  0
   39.6220   26.9410   43.3060 C   0  0  0  0  0  0  0  0  0  0  0  0
   39.9520   25.6520   43.6800 C   0  0  0  0  0  0  0  0  0  0  0  0
   39.6410   24.6300   42.7880 C   0  0  0  0  0  0  0  0  0  0  0  0
   39.0290   24.9050   41.5860 C   0  0  0  0  0  0  0  0  0  0  0  0
   39.8430   27.7730   43.9660 H   0  0  0  0  0  0  0  0  0  0  0  0
   40.4330   25.4240   44.6210 H   0  0  0  0  0  0  0  0  0  0  0  0
   39.8840   23.6070   43.0440 H   0  0  0  0  0  0  0  0  0  0  0  0
   37.0310   30.3660   41.3260 C   0  0  0  0  0  0  0  0  0  0  0  0
   37.3300   29.0570   41.7510 C   0  0  0  0  0  0  0  0  0  0  0  0
   38.6500   28.5870   41.6880 C   0  0  0  0  0  0  0  0  0  0  0  0
   39.5600   29.4660   41.2060 N   0  0  0  0  0  0  0  0  0  0  0  0
   39.2750   30.7000   40.8050 C   0  0  0  0  0  0  0  0  0  0  0  0
   37.9940   31.1490   40.8680 N   0  0  0  0  0  0  0  0  0  0  0  0
   35.6880   30.7920   41.4080 N   0  0  0  0  0  0  0  0  0  0  0  0
   36.5670   28.3890   42.1300 H   0  0  0  0  0  0  0  0  0  0  0  0
   40.0280   31.3770   40.4240 H   0  0  0  0  0  0  0  0  0  0  0  0
   35.0220   30.3270   42.0910 H   0  0  0  0  0  0  0  0  0  0  0  0
   35.3990   31.5780   40.7660 H   0  0  0  0  0  0  0  0  0  0  0  0
   38.7020   23.8370   40.6480 C   0  0  0  0  0  0  0  0  0  0  0  0
   37.6040   23.0030   40.6920 C   0  0  0  0  0  0  0  0  0  0  0  0
   36.7990   22.9850   41.4130 H   0  0  0  0  0  0  0  0  0  0  0  0
   37.6630   22.1290   39.6250 C   0  0  0  0  0  0  0  0  0  0  0  0
   37.0240   21.3270   39.2820 H   0  0  0  0  0  0  0  0  0  0  0  0
   38.7800   22.4430   38.9600 N   0  0  0  0  0  0  0  0  0  0  0  0
   39.2710   22.0820   38.0890 H   0  0  0  0  0  0  0  0  0  0  0  0
   39.4120   23.4630   39.5600 N   0  0  0  0  0  0  0  0  0  0  0  0
   37.5740   26.6790   38.9640 N   0  0  0  0  0  0  0  0  0  0  0  0
   38.0880   26.4570   40.0090 C   0  0  0  0  0  0  0  0  0  0  0  0
  1  6  2  0  0  0  0
  1  2  1  0  0  0  0
  2  3  2  0  0  0  0
  3  4  1  0  0  0  0
  3  7  1  0  0  0  0
  4  8  1  0  0  0  0
  5  9  1  0  0  0  0
  5  4  2  0  0  0  0
  6  5  1  0  0  0  0
 10 16  1  0  0  0  0
 10 11  1  0  0  0  0
 11 17  1  0  0  0  0
 12 11  2  0  0  0  0
 12  2  1  0  0  0  0
 13 12  1  0  0  0  0
 14 15  1  0  0  0  0
 14 13  2  0  0  0  0
 15 10  2  0  0  0  0
 16 19  1  0  0  0  0
 18 14  1  0  0  0  0
 20 16  1  0  0  0  0
 21 22  1  0  0  0  0
 21  6  1  0  0  0  0
 22 23  1  0  0  0  0
 24 22  2  0  0  0  0
 25 24  1  0  0  0  0
 26 28  1  0  0  0  0
 26 24  1  0  0  0  0
 27 26  1  0  0  0  0
 28 21  2  0  0  0  0
 29 30  3  0  0  0  0
 30  1  1  0  0  0  0
M  END
>  <minimizedAffinity>
-5.08621025

$$$$

 OpenBabel03252508363D

 30 32  0  0  0  0  0  0  0  0999 V2000
   37.5410   28.0470   40.9510 C   0  0  0  0  0  0  0  0  0  0  0  0
   37.5970   26.7560   41.4000 C   0  0  0  0  0  0  0  0  0  0  0  0
   37.5940   26.5640   42.7610 C   0  0  0  0  0  0  0  0  0  0  0  0
   37.5390   27.6010   43.6730 C   0  0  0  0  0  0  0  0  0  0  0  0
   37.4840   28.8950   43.1650 C   0  0  0  0  0  0  0  0  0  0  0  0
   37.4860   29.1210   41.8070 C   0  0  0  0  0  0  0  0  0  0  0  0
   37.6390   25.5370   43.1060 H   0  0  0  0  0  0  0  0  0  0  0  0
   37.5380   27.4360   44.7420 H   0  0  0  0  0  0  0  0  0  0  0  0
   37.4410   29.7340   43.8470 H   0  0  0  0  0  0  0  0  0  0  0  0
   36.6080   24.0140   38.9990 C   0  0  0  0  0  0  0  0  0  0  0  0
   36.4990   25.0390   39.9580 C   0  0  0  0  0  0  0  0  0  0  0  0
   37.6530   25.6940   40.4130 C   0  0  0  0  0  0  0  0  0  0  0  0
   38.8180   25.2670   39.8710 N   0  0  0  0  0  0  0  0  0  0  0  0
   38.9170   24.2990   38.9660 C   0  0  0  0  0  0  0  0  0  0  0  0
   37.7960   23.6690   38.5300 N   0  0  0  0  0  0  0  0  0  0  0  0
   35.4180   23.3860   38.5730 N   0  0  0  0  0  0  0  0  0  0  0  0
   35.5430   25.3460   40.3640 H   0  0  0  0  0  0  0  0  0  0  0  0
   39.8660   23.9830   38.5530 H   0  0  0  0  0  0  0  0  0  0  0  0
   34.4880   23.8910   38.6580 H   0  0  0  0  0  0  0  0  0  0  0  0
   35.5100   22.4120   38.1770 H   0  0  0  0  0  0  0  0  0  0  0  0
   37.4270   30.4760   41.2700 C   0  0  0  0  0  0  0  0  0  0  0  0
   38.4890   31.3300   41.0610 C   0  0  0  0  0  0  0  0  0  0  0  0
   39.5400   31.1600   41.2500 H   0  0  0  0  0  0  0  0  0  0  0  0
   38.0130   32.5170   40.5410 C   0  0  0  0  0  0  0  0  0  0  0  0
   38.4860   33.4400   40.2360 H   0  0  0  0  0  0  0  0  0  0  0  0
   36.6880   32.3650   40.4460 N   0  0  0  0  0  0  0  0  0  0  0  0
   35.8770   32.9680   40.1140 H   0  0  0  0  0  0  0  0  0  0  0  0
   36.3230   31.1490   40.8780 N   0  0  0  0  0  0  0  0  0  0  0  0
   37.5530   28.5620   38.3800 N   0  0  0  0  0  0  0  0  0  0  0  0
   37.5400   28.3210   39.5400 C   0  0  0  0  0  0  0  0  0  0  0  0
  1  2  2  0  0  0  0
  1  6  1  0  0  0  0
  2  3  1  0  0  0  0
  3  7  1  0  0  0  0
  3  4  2  0  0  0  0
  4  8  1  0  0  0  0
  5  4  1  0  0  0  0
  5  9  1  0  0  0  0
  6  5  2  0  0  0  0
 10 11  1  0  0  0  0
 11 17  1  0  0  0  0
 11 12  2  0  0  0  0
 12  2  1  0  0  0  0
 13 12  1  0  0  0  0
 14 13  2  0  0  0  0
 15 14  1  0  0  0  0
 15 10  2  0  0  0  0
 16 19  1  0  0  0  0
 16 10  1  0  0  0  0
 18 14  1  0  0  0  0
 20 16  1  0  0  0  0
 21  6  1  0  0  0  0
 22 23  1  0  0  0  0
 22 21  1  0  0  0  0
 24 22  2  0  0  0  0
 25 24  1  0  0  0  0
 26 24  1  0  0  0  0
 26 28  1  0  0  0  0
 27 26  1  0  0  0  0
 28 21  2  0  0  0  0
 29 30  3  0  0  0  0
 30  1  1  0  0  0  0
M  END
>  <minimizedAffinity>
-5.07804918

$$$$

 OpenBabel03252508363D

 30 32  0  0  0  0  0  0  0  0999 V2000
   38.7250   29.9030   40.4340 C   0  0  0  0  0  0  0  0  0  0  0  0
   37.9230   29.2730   41.3460 C   0  0  0  0  0  0  0  0  0  0  0  0
   36.6950   29.8390   41.5980 C   0  0  0  0  0  0  0  0  0  0  0  0
   36.2510   30.9930   40.9800 C   0  0  0  0  0  0  0  0  0  0  0  0
   37.1050   31.5940   40.0620 C   0  0  0  0  0  0  0  0  0  0  0  0
   38.3400   31.0530   39.7870 C   0  0  0  0  0  0  0  0  0  0  0  0
   36.0680   29.3310   42.3220 H   0  0  0  0  0  0  0  0  0  0  0  0
   35.2830   31.4270   41.1880 H   0  0  0  0  0  0  0  0  0  0  0  0
   36.7940   32.4990   39.5570 H   0  0  0  0  0  0  0  0  0  0  0  0
   38.5950   25.6450   42.1470 C   0  0  0  0  0  0  0  0  0  0  0  0
   38.0830   26.7870   41.5030 C   0  0  0  0  0  0  0  0  0  0  0  0
   38.4230   28.0650   41.9730 C   0  0  0  0  0  0  0  0  0  0  0  0
   39.2450   28.0910   43.0480 N   0  0  0  0  0  0  0  0  0  0  0  0
   39.7260   27.0110   43.6550 C   0  0  0  0  0  0  0  0  0  0  0  0
   39.3940   25.7770   43.1940 N   0  0  0  0  0  0  0  0  0  0  0  0
   38.2240   24.3820   41.6370 N   0  0  0  0  0  0  0  0  0  0  0  0
   37.4270   26.7160   40.6440 H   0  0  0  0  0  0  0  0  0  0  0  0
   40.3820   27.0680   44.5120 H   0  0  0  0  0  0  0  0  0  0  0  0
   37.9130   24.2860   40.6260 H   0  0  0  0  0  0  0  0  0  0  0  0
   38.2750   23.5660   42.3040 H   0  0  0  0  0  0  0  0  0  0  0  0
   39.2390   31.6790   38.8240 C   0  0  0  0  0  0  0  0  0  0  0  0
   40.3250   32.4810   39.1050 C   0  0  0  0  0  0  0  0  0  0  0  0
   40.7070   32.7880   40.0690 H   0  0  0  0  0  0  0  0  0  0  0  0
   40.9110   32.8730   37.9180 C   0  0  0  0  0  0  0  0  0  0  0  0
   41.7650   33.4900   37.6760 H   0  0  0  0  0  0  0  0  0  0  0  0
   40.1800   32.3110   36.9500 N   0  0  0  0  0  0  0  0  0  0  0  0
   40.2080   32.3000   35.8870 H   0  0  0  0  0  0  0  0  0  0  0  0
   39.1760   31.5930   37.4770 N   0  0  0  0  0  0  0  0  0  0  0  0
   41.0980   28.9420   39.8660 N   0  0  0  0  0  0  0  0  0  0  0  0
   40.0210   29.3660   40.1220 C   0  0  0  0  0  0  0  0  0  0  0  0
  1  2  1  0  0  0  0
  2  3  2  0  0  0  0
  2 12  1  0  0  0  0
  3  7  1  0  0  0  0
  4  8  1  0  0  0  0
  4  3  1  0  0  0  0
  5  4  2  0  0  0  0
  6  5  1  0  0  0  0
  6  1  2  0  0  0  0
  9  5  1  0  0  0  0
 10 15  1  0  0  0  0
 11 12  1  0  0  0  0
 11 10  2  0  0  0  0
 12 13  2  0  0  0  0
 13 14  1  0  0  0  0
 14 18  1  0  0  0  0
 15 14  2  0  0  0  0
 16 10  1  0  0  0  0
 16 20  1  0  0  0  0
 17 11  1  0  0  0  0
 19 16  1  0  0  0  0
 21 22  1  0  0  0  0
 21  6  1  0  0  0  0
 22 23  1  0  0  0  0
 24 22  2  0  0  0  0
 25 24  1  0  0  0  0
 26 28  1  0  0  0  0
 26 24  1  0  0  0  0
 27 26  1  0  0  0  0
 28 21  2  0  0  0  0
 29 30  3  0  0  0  0
 30  1  1  0  0  0  0
M  END
>  <minimizedAffinity>
-5.0502634

$$$$

 OpenBabel03252508363D

 30 32  0  0  0  0  0  0  0  0999 V2000
   38.5880   28.9360   41.1660 C   0  0  0  0  0  0  0  0  0  0  0  0
   37.9130   29.9810   40.5990 C   0  0  0  0  0  0  0  0  0  0  0  0
   36.5410   29.8970   40.5640 C   0  0  0  0  0  0  0  0  0  0  0  0
   35.8340   28.8210   41.0670 C   0  0  0  0  0  0  0  0  0  0  0  0
   36.5690   27.7830   41.6320 C   0  0  0  0  0  0  0  0  0  0  0  0
   37.9430   27.8380   41.6830 C   0  0  0  0  0  0  0  0  0  0  0  0
   36.0150   30.7310   40.1120 H   0  0  0  0  0  0  0  0  0  0  0  0
   34.7550   28.7670   41.0330 H   0  0  0  0  0  0  0  0  0  0  0  0
   36.0520   26.9230   42.0370 H   0  0  0  0  0  0  0  0  0  0  0  0
   39.7900   32.2900   38.2750 C   0  0  0  0  0  0  0  0  0  0  0  0
   39.0370   31.1900   38.7270 C   0  0  0  0  0  0  0  0  0  0  0  0
   38.6870   31.0930   40.0820 C   0  0  0  0  0  0  0  0  0  0  0  0
   39.1220   32.1050   40.8700 N   0  0  0  0  0  0  0  0  0  0  0  0
   39.8330   33.1420   40.4400 C   0  0  0  0  0  0  0  0  0  0  0  0
   40.1680   33.2290   39.1270 N   0  0  0  0  0  0  0  0  0  0  0  0
   40.1170   32.3420   36.9030 N   0  0  0  0  0  0  0  0  0  0  0  0
   38.7120   30.4030   38.0570 H   0  0  0  0  0  0  0  0  0  0  0  0
   40.1640   33.9340   41.0990 H   0  0  0  0  0  0  0  0  0  0  0  0
   39.5240   31.8200   36.1930 H   0  0  0  0  0  0  0  0  0  0  0  0
   40.9620   32.9160   36.6360 H   0  0  0  0  0  0  0  0  0  0  0  0
   38.7180   26.7530   42.2760 C   0  0  0  0  0  0  0  0  0  0  0  0
   39.0410   25.5490   41.6870 C   0  0  0  0  0  0  0  0  0  0  0  0
   38.7880   25.1910   40.6990 H   0  0  0  0  0  0  0  0  0  0  0  0
   39.7820   24.8000   42.5790 C   0  0  0  0  0  0  0  0  0  0  0  0
   40.2320   23.8180   42.5340 H   0  0  0  0  0  0  0  0  0  0  0  0
   39.8940   25.5510   43.6790 N   0  0  0  0  0  0  0  0  0  0  0  0
   40.3560   25.4410   44.6300 H   0  0  0  0  0  0  0  0  0  0  0  0
   39.2620   26.7230   43.5120 N   0  0  0  0  0  0  0  0  0  0  0  0
   41.2080   28.9630   41.2780 N   0  0  0  0  0  0  0  0  0  0  0  0
   40.0230   28.9580   41.2360 C   0  0  0  0  0  0  0  0  0  0  0  0
  1 30  1  0  0  0  0
  1  6  1  0  0  0  0
  2  1  2  0  0  0  0
  3  2  1  0  0  0  0
  3  4  2  0  0  0  0
  4  5  1  0  0  0  0
  5  6  2  0  0  0  0
  5  9  1  0  0  0  0
  6 21  1  0  0  0  0
  7  3  1  0  0  0  0
  8  4  1  0  0  0  0
 10 11  2  0  0  0  0
 10 15  1  0  0  0  0
 11 12  1  0  0  0  0
 12  2  1  0  0  0  0
 12 13  2  0  0  0  0
 14 13  1  0  0  0  0
 14 18  1  0  0  0  0
 15 14  2  0  0  0  0
 16 10  1  0  0  0  0
 17 11  1  0  0  0  0
 19 16  1  0  0  0  0
 20 16  1  0  0  0  0
 21 28  2  0  0  0  0
 22 21  1  0  0  0  0
 22 24  2  0  0  0  0
 23 22  1  0  0  0  0
 24 26  1  0  0  0  0
 25 24  1  0  0  0  0
 26 27  1  0  0  0  0
 28 26  1  0  0  0  0
 30 29  3  0  0  0  0
M  END
>  <minimizedAffinity>
-5.04144335

$$$$

 OpenBabel03252508363D

 30 32  0  0  0  0  0  0  0  0999 V2000
   40.6590   30.8060   38.8710 C   0  0  0  0  0  0  0  0  0  0  0  0
   39.9340   29.6740   39.1260 C   0  0  0  0  0  0  0  0  0  0  0  0
   40.1040   28.6140   38.2670 C   0  0  0  0  0  0  0  0  0  0  0  0
   40.9580   28.6470   37.1810 C   0  0  0  0  0  0  0  0  0  0  0  0
   41.6710   29.8210   36.9660 C   0  0  0  0  0  0  0  0  0  0  0  0
   41.5230   30.9000   37.8070 C   0  0  0  0  0  0  0  0  0  0  0  0
   39.5240   27.7220   38.4790 H   0  0  0  0  0  0  0  0  0  0  0  0
   41.0810   27.8060   36.5130 H   0  0  0  0  0  0  0  0  0  0  0  0
   42.3500   29.8870   36.1260 H   0  0  0  0  0  0  0  0  0  0  0  0
   36.9550   30.2430   41.3760 C   0  0  0  0  0  0  0  0  0  0  0  0
   37.7770   30.2680   40.2330 C   0  0  0  0  0  0  0  0  0  0  0  0
   39.0480   29.6760   40.2750 C   0  0  0  0  0  0  0  0  0  0  0  0
   39.3900   29.1090   41.4560 N   0  0  0  0  0  0  0  0  0  0  0  0
   38.6120   29.0880   42.5330 C   0  0  0  0  0  0  0  0  0  0  0  0
   37.3820   29.6630   42.4860 N   0  0  0  0  0  0  0  0  0  0  0  0
   35.6860   30.8530   41.2840 N   0  0  0  0  0  0  0  0  0  0  0  0
   37.4610   30.7350   39.3090 H   0  0  0  0  0  0  0  0  0  0  0  0
   38.9160   28.6250   43.4620 H   0  0  0  0  0  0  0  0  0  0  0  0
   35.2190   30.9730   40.3380 H   0  0  0  0  0  0  0  0  0  0  0  0
   35.2450   31.1720   42.1880 H   0  0  0  0  0  0  0  0  0  0  0  0
   42.2700   32.1340   37.5860 C   0  0  0  0  0  0  0  0  0  0  0  0
   43.5650   32.4000   37.9790 C   0  0  0  0  0  0  0  0  0  0  0  0
   44.2540   31.7590   38.5110 H   0  0  0  0  0  0  0  0  0  0  0  0
   43.9000   33.6780   37.5810 C   0  0  0  0  0  0  0  0  0  0  0  0
   44.7930   34.2810   37.6780 H   0  0  0  0  0  0  0  0  0  0  0  0
   42.8170   34.1610   36.9610 N   0  0  0  0  0  0  0  0  0  0  0  0
   42.5600   35.0750   36.4830 H   0  0  0  0  0  0  0  0  0  0  0  0
   41.8340   33.2480   36.9570 N   0  0  0  0  0  0  0  0  0  0  0  0
   40.4210   32.8850   40.4520 N   0  0  0  0  0  0  0  0  0  0  0  0
   40.5310   31.9520   39.7280 C   0  0  0  0  0  0  0  0  0  0  0  0
  1  2  1  0  0  0  0
  1 30  1  0  0  0  0
  2 12  1  0  0  0  0
  3  7  1  0  0  0  0
  3  2  2  0  0  0  0
  4  3  1  0  0  0  0
  5  4  2  0  0  0  0
  5  6  1  0  0  0  0
  6  1  2  0  0  0  0
  8  4  1  0  0  0  0
  9  5  1  0  0  0  0
 10 15  1  0  0  0  0
 11 12  1  0  0  0  0
 11 10  2  0  0  0  0
 12 13  2  0  0  0  0
 13 14  1  0  0  0  0
 14 18  1  0  0  0  0
 15 14  2  0  0  0  0
 16 10  1  0  0  0  0
 16 20  1  0  0  0  0
 17 11  1  0  0  0  0
 19 16  1  0  0  0  0
 21  6  1  0  0  0  0
 21 22  1  0  0  0  0
 22 23  1  0  0  0  0
 24 25  1  0  0  0  0
 24 22  2  0  0  0  0
 26 24  1  0  0  0  0
 27 26  1  0  0  0  0
 28 26  1  0  0  0  0
 28 21  2  0  0  0  0
 30 29  3  0  0  0  0
M  END
>  <minimizedAffinity>
-5.01725388

$$$$

 OpenBabel03252508363D

 30 32  0  0  0  0  0  0  0  0999 V2000
   37.6780   29.3230   39.3470 C   0  0  0  0  0  0  0  0  0  0  0  0
   36.7910   28.6680   40.1570 C   0  0  0  0  0  0  0  0  0  0  0  0
   36.0110   29.4400   40.9850 C   0  0  0  0  0  0  0  0  0  0  0  0
   36.0860   30.8190   41.0300 C   0  0  0  0  0  0  0  0  0  0  0  0
   37.0040   31.4350   40.1860 C   0  0  0  0  0  0  0  0  0  0  0  0
   37.8000   30.6910   39.3460 C   0  0  0  0  0  0  0  0  0  0  0  0
   35.3110   28.9110   41.6230 H   0  0  0  0  0  0  0  0  0  0  0  0
   35.4660   31.4140   41.6860 H   0  0  0  0  0  0  0  0  0  0  0  0
   37.0930   32.5140   40.1920 H   0  0  0  0  0  0  0  0  0  0  0  0
   37.1960   25.0030   40.9730 C   0  0  0  0  0  0  0  0  0  0  0  0
   37.2710   26.4040   41.0930 C   0  0  0  0  0  0  0  0  0  0  0  0
   36.7400   27.2200   40.0820 C   0  0  0  0  0  0  0  0  0  0  0  0
   36.1800   26.5660   39.0380 N   0  0  0  0  0  0  0  0  0  0  0  0
   36.1110   25.2440   38.9270 C   0  0  0  0  0  0  0  0  0  0  0  0
   36.6270   24.4590   39.9090 N   0  0  0  0  0  0  0  0  0  0  0  0
   37.7440   24.2260   42.0150 N   0  0  0  0  0  0  0  0  0  0  0  0
   37.7300   26.8830   41.9490 H   0  0  0  0  0  0  0  0  0  0  0  0
   35.6560   24.7530   38.0780 H   0  0  0  0  0  0  0  0  0  0  0  0
   37.8500   24.6370   42.9880 H   0  0  0  0  0  0  0  0  0  0  0  0
   38.0330   23.2400   41.7720 H   0  0  0  0  0  0  0  0  0  0  0  0
   38.7640   31.3330   38.4580 C   0  0  0  0  0  0  0  0  0  0  0  0
   40.0820   31.6260   38.7400 C   0  0  0  0  0  0  0  0  0  0  0  0
   40.6360   31.4380   39.6490 H   0  0  0  0  0  0  0  0  0  0  0  0
   40.6510   32.2320   37.6390 C   0  0  0  0  0  0  0  0  0  0  0  0
   41.6390   32.6180   37.4260 H   0  0  0  0  0  0  0  0  0  0  0  0
   39.6820   32.2980   36.7190 N   0  0  0  0  0  0  0  0  0  0  0  0
   39.6030   32.6640   35.7240 H   0  0  0  0  0  0  0  0  0  0  0  0
   38.5470   31.7630   37.1960 N   0  0  0  0  0  0  0  0  0  0  0  0
   39.2080   27.9510   37.7170 N   0  0  0  0  0  0  0  0  0  0  0  0
   38.5250   28.5780   38.4560 C   0  0  0  0  0  0  0  0  0  0  0  0
  1  2  1  0  0  0  0
  2  3  2  0  0  0  0
  3  4  1  0  0  0  0
  3  7  1  0  0  0  0
  4  8  1  0  0  0  0
  5  9  1  0  0  0  0
  5  4  2  0  0  0  0
  6  1  2  0  0  0  0
  6  5  1  0  0  0  0
 10 11  1  0  0  0  0
 10 16  1  0  0  0  0
 11 17  1  0  0  0  0
 12  2  1  0  0  0  0
 12 11  2  0  0  0  0
 13 12  1  0  0  0  0
 14 13  2  0  0  0  0
 14 15  1  0  0  0  0
 15 10  2  0  0  0  0
 16 19  1  0  0  0  0
 18 14  1  0  0  0  0
 20 16  1  0  0  0  0
 21 22  1  0  0  0  0
 21  6  1  0  0  0  0
 22 23  1  0  0  0  0
 24 22  2  0  0  0  0
 25 24  1  0  0  0  0
 26 28  1  0  0  0  0
 26 24  1  0  0  0  0
 27 26  1  0  0  0  0
 28 21  2  0  0  0  0
 29 30  3  0  0  0  0
 30  1  1  0  0  0  0
M  END
>  <minimizedAffinity>
-4.94472265

$$$$

 OpenBabel03252508363D

 30 32  0  0  0  0  0  0  0  0999 V2000
   35.5180   29.4020   37.0750 C   0  0  0  0  0  0  0  0  0  0  0  0
   34.8450   29.1370   38.2360 C   0  0  0  0  0  0  0  0  0  0  0  0
   33.5110   28.8190   38.1300 C   0  0  0  0  0  0  0  0  0  0  0  0
   32.8400   28.7590   36.9230 C   0  0  0  0  0  0  0  0  0  0  0  0
   33.5700   29.0390   35.7720 C   0  0  0  0  0  0  0  0  0  0  0  0
   34.9060   29.3600   35.8450 C   0  0  0  0  0  0  0  0  0  0  0  0
   32.9880   28.6100   39.0560 H   0  0  0  0  0  0  0  0  0  0  0  0
   31.7900   28.5080   36.8540 H   0  0  0  0  0  0  0  0  0  0  0  0
   33.0800   29.0030   34.8080 H   0  0  0  0  0  0  0  0  0  0  0  0
   36.7720   28.1840   41.3410 C   0  0  0  0  0  0  0  0  0  0  0  0
   36.0600   28.0600   40.1320 C   0  0  0  0  0  0  0  0  0  0  0  0
   35.5830   29.2080   39.4830 C   0  0  0  0  0  0  0  0  0  0  0  0
   35.8570   30.3830   40.0980 N   0  0  0  0  0  0  0  0  0  0  0  0
   36.5280   30.4960   41.2390 C   0  0  0  0  0  0  0  0  0  0  0  0
   36.9880   29.3800   41.8630 N   0  0  0  0  0  0  0  0  0  0  0  0
   37.2310   26.9990   41.9550 N   0  0  0  0  0  0  0  0  0  0  0  0
   35.8650   27.0970   39.6770 H   0  0  0  0  0  0  0  0  0  0  0  0
   36.7300   31.4520   41.7030 H   0  0  0  0  0  0  0  0  0  0  0  0
   37.3820   26.1220   41.3760 H   0  0  0  0  0  0  0  0  0  0  0  0
   37.4090   27.0410   42.9950 H   0  0  0  0  0  0  0  0  0  0  0  0
   35.6760   29.6520   34.6410 C   0  0  0  0  0  0  0  0  0  0  0  0
   35.7730   30.8670   33.9950 C   0  0  0  0  0  0  0  0  0  0  0  0
   35.3090   31.8090   34.2540 H   0  0  0  0  0  0  0  0  0  0  0  0
   36.5960   30.7250   32.8960 C   0  0  0  0  0  0  0  0  0  0  0  0
   36.9400   31.4040   32.1280 H   0  0  0  0  0  0  0  0  0  0  0  0
   36.9790   29.4430   32.8930 N   0  0  0  0  0  0  0  0  0  0  0  0
   37.5980   28.8380   32.2760 H   0  0  0  0  0  0  0  0  0  0  0  0
   36.4360   28.7900   33.9310 N   0  0  0  0  0  0  0  0  0  0  0  0
   38.0610   30.0350   37.1580 N   0  0  0  0  0  0  0  0  0  0  0  0
   36.9140   29.7410   37.1120 C   0  0  0  0  0  0  0  0  0  0  0  0
  1 30  1  0  0  0  0
  1  2  1  0  0  0  0
  2 12  1  0  0  0  0
  3  2  2  0  0  0  0
  3  7  1  0  0  0  0
  4  3  1  0  0  0  0
  5  6  1  0  0  0  0
  5  4  2  0  0  0  0
  6  1  2  0  0  0  0
  8  4  1  0  0  0  0
  9  5  1  0  0  0  0
 10 15  1  0  0  0  0
 10 16  1  0  0  0  0
 11 10  2  0  0  0  0
 12 13  2  0  0  0  0
 12 11  1  0  0  0  0
 13 14  1  0  0  0  0
 14 18  1  0  0  0  0
 14 15  2  0  0  0  0
 16 20  1  0  0  0  0
 17 11  1  0  0  0  0
 19 16  1  0  0  0  0
 21  6  1  0  0  0  0
 22 23  1  0  0  0  0
 22 21  1  0  0  0  0
 24 22  2  0  0  0  0
 25 24  1  0  0  0  0
 26 24  1  0  0  0  0
 26 28  1  0  0  0  0
 27 26  1  0  0  0  0
 28 21  2  0  0  0  0
 30 29  3  0  0  0  0
M  END
>  <minimizedAffinity>
-4.94457245

$$$$
