
 OpenBabel03252509253D

 29 31  0  0  1  0  0  0  0  0999 V2000
   46.7620   35.1860   41.9290 C   0  0  1  0  0  0  0  0  0  0  0  0
   48.2900   35.4340   41.9850 C   0  0  0  0  0  0  0  0  0  0  0  0
   47.5740   34.2340   41.2880 C   0  0  2  0  0  0  0  0  0  0  0  0
   46.2590   36.0160   41.4160 H   0  0  0  0  0  0  0  0  0  0  0  0
   48.7220   36.1310   41.2450 H   0  0  0  0  0  0  0  0  0  0  0  0
   48.8380   35.1720   42.8940 H   0  0  0  0  0  0  0  0  0  0  0  0
   47.7330   33.2390   41.8020 H   0  0  0  0  0  0  0  0  0  0  0  0
   44.7060   35.2690   45.0580 C   0  0  0  0  0  0  0  0  0  0  0  0
   45.2020   35.6540   43.7830 C   0  0  0  0  0  0  0  0  0  0  0  0
   46.2170   34.8770   43.2980 C   0  0  0  0  0  0  0  0  0  0  0  0
   46.7120   33.8120   44.0010 N   0  0  0  0  0  0  0  0  0  0  0  0
   46.2080   33.4870   45.2090 C   0  0  0  0  0  0  0  0  0  0  0  0
   45.2010   34.2200   45.7390 N   0  0  0  0  0  0  0  0  0  0  0  0
   43.9000   35.8380   45.5020 H   0  0  0  0  0  0  0  0  0  0  0  0
   46.6340   32.6380   45.7260 H   0  0  0  0  0  0  0  0  0  0  0  0
   44.6920   36.7720   43.0940 N   0  0  0  0  0  0  0  0  0  0  0  0
   43.7140   37.0330   42.7920 H   0  0  0  0  0  0  0  0  0  0  0  0
   45.4960   37.4170   42.8760 H   0  0  0  0  0  0  0  0  0  0  0  0
   47.6510   34.1360   39.7810 C   0  0  0  0  0  0  0  0  0  0  0  0
   48.6400   33.7360   39.5120 H   0  0  0  0  0  0  0  0  0  0  0  0
   47.5170   35.1210   39.2900 H   0  0  0  0  0  0  0  0  0  0  0  0
   46.6180   33.1600   39.3770 C   0  0  0  0  0  0  0  0  0  0  0  0
   46.0420   32.1360   40.1220 C   0  0  0  0  0  0  0  0  0  0  0  0
   46.2820   31.8970   41.1510 H   0  0  0  0  0  0  0  0  0  0  0  0
   45.1100   31.4650   39.3380 C   0  0  0  0  0  0  0  0  0  0  0  0
   44.4890   30.6230   39.6120 H   0  0  0  0  0  0  0  0  0  0  0  0
   45.1560   32.1140   38.1390 N   0  0  0  0  0  0  0  0  0  0  0  0
   44.5420   31.8020   37.3590 H   0  0  0  0  0  0  0  0  0  0  0  0
   46.0270   33.0930   38.1590 N   0  0  0  0  0  0  0  0  0  0  0  0
  1  4  1  6  0  0  0
  1  2  1  0  0  0  0
  1 10  1  0  0  0  0
  2  6  1  0  0  0  0
  3  7  1  1  0  0  0
  3  1  1  0  0  0  0
  3  2  1  0  0  0  0
  5  2  1  0  0  0  0
  8 14  1  0  0  0  0
  8 13  1  0  0  0  0
  9  8  2  0  0  0  0
 10  9  1  0  0  0  0
 10 11  2  0  0  0  0
 11 12  1  0  0  0  0
 12 15  1  0  0  0  0
 12 13  2  0  0  0  0
 16  9  1  0  0  0  0
 17 16  1  0  0  0  0
 18 16  1  0  0  0  0
 19  3  1  0  0  0  0
 20 19  1  0  0  0  0
 21 19  1  0  0  0  0
 22 19  1  0  0  0  0
 22 23  1  0  0  0  0
 23 24  1  0  0  0  0
 25 26  1  0  0  0  0
 25 23  2  0  0  0  0
 27 29  1  0  0  0  0
 27 25  1  0  0  0  0
 28 27  1  0  0  0  0
 29 22  2  0  0  0  0
M  END
>  <minimizedAffinity>
-4.42294073

>  <minimizedRMSD>
0.8529737

$$$$
