
 OpenBabel03252505403D

 27 29  0  0  1  0  0  0  0  0999 V2000
   36.3150   28.3070   39.9550 C   0  0  1  0  0  0  0  0  0  0  0  0
   34.9720   29.0470   40.0690 C   0  0  0  0  0  0  0  0  0  0  0  0
   36.0730   29.5320   39.1910 C   0  0  1  0  0  0  0  0  0  0  0  0
   36.2510   27.3120   39.4560 H   0  0  0  0  0  0  0  0  0  0  0  0
   34.7560   29.5300   41.0350 H   0  0  0  0  0  0  0  0  0  0  0  0
   34.1150   28.4980   39.6340 H   0  0  0  0  0  0  0  0  0  0  0  0
   35.8960   29.3680   38.0890 H   0  0  0  0  0  0  0  0  0  0  0  0
   37.1110   28.2730   41.2040 C   0  0  0  0  0  0  0  0  0  0  0  0
   36.4410   27.8380   42.3740 C   0  0  0  0  0  0  0  0  0  0  0  0
   37.1730   27.7830   43.5440 C   0  0  0  0  0  0  0  0  0  0  0  0
   38.4870   28.1500   43.5100 N   0  0  0  0  0  0  0  0  0  0  0  0
   39.0890   28.5600   42.3750 C   0  0  0  0  0  0  0  0  0  0  0  0
   38.3850   28.6180   41.2240 N   0  0  0  0  0  0  0  0  0  0  0  0
   35.4010   27.5470   42.4500 H   0  0  0  0  0  0  0  0  0  0  0  0
   36.7250   27.4600   44.4690 H   0  0  0  0  0  0  0  0  0  0  0  0
   40.5240   28.9140   42.5600 C   0  0  0  0  0  0  0  0  0  0  0  0
   40.6790   30.2390   42.8790 F   0  0  0  0  0  0  0  0  0  0  0  0
   41.2490   28.6340   41.4020 F   0  0  0  0  0  0  0  0  0  0  0  0
   41.0660   28.0830   43.5530 F   0  0  0  0  0  0  0  0  0  0  0  0
   36.5480   30.8760   39.5750 C   0  0  0  0  0  0  0  0  0  0  0  0
   37.1310   31.7200   38.6330 C   0  0  0  0  0  0  0  0  0  0  0  0
   37.3260   31.5540   37.5740 H   0  0  0  0  0  0  0  0  0  0  0  0
   37.4740   32.9030   39.2150 C   0  0  0  0  0  0  0  0  0  0  0  0
   37.9440   33.8170   38.8450 H   0  0  0  0  0  0  0  0  0  0  0  0
   37.1080   32.7920   40.5040 N   0  0  0  0  0  0  0  0  0  0  0  0
   37.1980   33.4800   41.2870 H   0  0  0  0  0  0  0  0  0  0  0  0
   36.5760   31.6190   40.6920 N   0  0  0  0  0  0  0  0  0  0  0  0
  1  4  1  6  0  0  0
  1  2  1  0  0  0  0
  1  8  1  0  0  0  0
  2  5  1  0  0  0  0
  3  7  1  6  0  0  0
  3 20  1  0  0  0  0
  3  1  1  0  0  0  0
  3  2  1  0  0  0  0
  6  2  1  0  0  0  0
  8 13  2  0  0  0  0
  8  9  1  0  0  0  0
  9 14  1  0  0  0  0
  9 10  2  0  0  0  0
 10 15  1  0  0  0  0
 11 10  1  0  0  0  0
 12 16  1  0  0  0  0
 12 11  2  0  0  0  0
 13 12  1  0  0  0  0
 16 17  1  0  0  0  0
 16 19  1  0  0  0  0
 18 16  1  0  0  0  0
 20 27  2  0  0  0  0
 21 23  2  0  0  0  0
 21 20  1  0  0  0  0
 22 21  1  0  0  0  0
 23 25  1  0  0  0  0
 24 23  1  0  0  0  0
 25 27  1  0  0  0  0
 25 26  1  0  0  0  0
M  END
>  <minimizedAffinity>
-5.1902566

$$$$

 OpenBabel03252505403D

 27 29  0  0  1  0  0  0  0  0999 V2000
   36.8640   25.3870   42.3560 C   0  0  1  0  0  0  0  0  0  0  0  0
   37.1290   24.7310   40.9910 C   0  0  0  0  0  0  0  0  0  0  0  0
   37.9830   24.4600   42.1810 C   0  0  1  0  0  0  0  0  0  0  0  0
   35.9260   25.0490   42.8540 H   0  0  0  0  0  0  0  0  0  0  0  0
   37.4710   25.3970   40.1820 H   0  0  0  0  0  0  0  0  0  0  0  0
   36.3570   24.0010   40.6820 H   0  0  0  0  0  0  0  0  0  0  0  0
   37.8240   23.4440   42.6450 H   0  0  0  0  0  0  0  0  0  0  0  0
   37.0260   26.8600   42.3760 C   0  0  0  0  0  0  0  0  0  0  0  0
   37.8170   27.3990   43.4210 C   0  0  0  0  0  0  0  0  0  0  0  0
   37.9940   28.7690   43.4450 C   0  0  0  0  0  0  0  0  0  0  0  0
   37.4000   29.5200   42.4720 N   0  0  0  0  0  0  0  0  0  0  0  0
   36.6540   28.9690   41.4930 C   0  0  0  0  0  0  0  0  0  0  0  0
   36.4740   27.6300   41.4580 N   0  0  0  0  0  0  0  0  0  0  0  0
   38.2970   26.8450   44.2170 H   0  0  0  0  0  0  0  0  0  0  0  0
   38.5830   29.2430   44.2100 H   0  0  0  0  0  0  0  0  0  0  0  0
   36.1000   29.9670   40.5360 C   0  0  0  0  0  0  0  0  0  0  0  0
   36.8900   30.0870   39.4210 F   0  0  0  0  0  0  0  0  0  0  0  0
   35.9790   31.2150   41.1470 F   0  0  0  0  0  0  0  0  0  0  0  0
   34.7930   29.5850   40.1970 F   0  0  0  0  0  0  0  0  0  0  0  0
   39.3880   24.8590   41.9690 C   0  0  0  0  0  0  0  0  0  0  0  0
   40.3270   24.7230   42.9870 C   0  0  0  0  0  0  0  0  0  0  0  0
   40.2040   24.3510   44.0050 H   0  0  0  0  0  0  0  0  0  0  0  0
   41.5500   25.1420   42.5550 C   0  0  0  0  0  0  0  0  0  0  0  0
   42.5350   25.2030   43.0230 H   0  0  0  0  0  0  0  0  0  0  0  0
   41.3680   25.5330   41.2820 N   0  0  0  0  0  0  0  0  0  0  0  0
   42.0560   25.9190   40.5950 H   0  0  0  0  0  0  0  0  0  0  0  0
   40.1170   25.3630   40.9610 N   0  0  0  0  0  0  0  0  0  0  0  0
  1  8  1  0  0  0  0
  1  4  1  1  0  0  0
  2  3  1  0  0  0  0
  2  1  1  0  0  0  0
  3  1  1  0  0  0  0
  3  7  1  1  0  0  0
  5  2  1  0  0  0  0
  6  2  1  0  0  0  0
  8  9  1  0  0  0  0
  9 10  2  0  0  0  0
  9 14  1  0  0  0  0
 10 15  1  0  0  0  0
 11 10  1  0  0  0  0
 12 11  2  0  0  0  0
 13 12  1  0  0  0  0
 13  8  2  0  0  0  0
 16 18  1  0  0  0  0
 16 12  1  0  0  0  0
 17 16  1  0  0  0  0
 19 16  1  0  0  0  0
 20  3  1  0  0  0  0
 20 21  1  0  0  0  0
 21 22  1  0  0  0  0
 23 21  2  0  0  0  0
 23 24  1  0  0  0  0
 25 23  1  0  0  0  0
 26 25  1  0  0  0  0
 27 25  1  0  0  0  0
 27 20  2  0  0  0  0
M  END
>  <minimizedAffinity>
-5.10822535

$$$$

 OpenBabel03252505403D

 27 29  0  0  1  0  0  0  0  0999 V2000
   36.7850   28.6430   38.2010 C   0  0  1  0  0  0  0  0  0  0  0  0
   35.3640   29.1070   38.5630 C   0  0  0  0  0  0  0  0  0  0  0  0
   36.3960   30.0450   38.0370 C   0  0  1  0  0  0  0  0  0  0  0  0
   36.8370   27.9670   37.3160 H   0  0  0  0  0  0  0  0  0  0  0  0
   35.0980   29.0910   39.6320 H   0  0  0  0  0  0  0  0  0  0  0  0
   34.5750   28.7150   37.8920 H   0  0  0  0  0  0  0  0  0  0  0  0
   36.2330   30.3630   36.9670 H   0  0  0  0  0  0  0  0  0  0  0  0
   37.5850   28.1520   39.3470 C   0  0  0  0  0  0  0  0  0  0  0  0
   38.9930   28.2700   39.2380 C   0  0  0  0  0  0  0  0  0  0  0  0
   39.7540   27.8330   40.3040 C   0  0  0  0  0  0  0  0  0  0  0  0
   39.1140   27.3140   41.3930 N   0  0  0  0  0  0  0  0  0  0  0  0
   37.7710   27.2180   41.4590 C   0  0  0  0  0  0  0  0  0  0  0  0
   37.0150   27.6420   40.4220 N   0  0  0  0  0  0  0  0  0  0  0  0
   39.5420   28.6650   38.3930 H   0  0  0  0  0  0  0  0  0  0  0  0
   40.8290   27.8950   40.2870 H   0  0  0  0  0  0  0  0  0  0  0  0
   37.2810   26.6230   42.7340 C   0  0  0  0  0  0  0  0  0  0  0  0
   36.8290   25.3400   42.5490 F   0  0  0  0  0  0  0  0  0  0  0  0
   36.2530   27.3970   43.2700 F   0  0  0  0  0  0  0  0  0  0  0  0
   38.3190   26.6680   43.6770 F   0  0  0  0  0  0  0  0  0  0  0  0
   36.7100   31.1270   38.9910 C   0  0  0  0  0  0  0  0  0  0  0  0
   37.3240   32.2990   38.5590 C   0  0  0  0  0  0  0  0  0  0  0  0
   37.6520   32.5870   37.5600 H   0  0  0  0  0  0  0  0  0  0  0  0
   37.5000   33.1500   39.6080 C   0  0  0  0  0  0  0  0  0  0  0  0
   37.9310   34.1490   39.7060 H   0  0  0  0  0  0  0  0  0  0  0  0
   36.9990   32.5100   40.6790 N   0  0  0  0  0  0  0  0  0  0  0  0
   36.9410   32.8190   41.6770 H   0  0  0  0  0  0  0  0  0  0  0  0
   36.5490   31.3470   40.3050 N   0  0  0  0  0  0  0  0  0  0  0  0
  1  4  1  6  0  0  0
  1  2  1  0  0  0  0
  1  8  1  0  0  0  0
  2  5  1  0  0  0  0
  3  7  1  6  0  0  0
  3  1  1  0  0  0  0
  3  2  1  0  0  0  0
  3 20  1  0  0  0  0
  6  2  1  0  0  0  0
  8 13  1  0  0  0  0
  9  8  2  0  0  0  0
  9 10  1  0  0  0  0
 10 11  2  0  0  0  0
 11 12  1  0  0  0  0
 12 16  1  0  0  0  0
 13 12  2  0  0  0  0
 14  9  1  0  0  0  0
 15 10  1  0  0  0  0
 16 18  1  0  0  0  0
 16 19  1  0  0  0  0
 17 16  1  0  0  0  0
 20 27  2  0  0  0  0
 21 20  1  0  0  0  0
 21 23  2  0  0  0  0
 22 21  1  0  0  0  0
 23 24  1  0  0  0  0
 23 25  1  0  0  0  0
 25 26  1  0  0  0  0
 27 25  1  0  0  0  0
M  END
>  <minimizedAffinity>
-5.05886364

$$$$

 OpenBabel03252505403D

 27 29  0  0  1  0  0  0  0  0999 V2000
   36.4170   27.7790   37.8480 C   0  0  1  0  0  0  0  0  0  0  0  0
   34.9200   27.9950   38.1270 C   0  0  0  0  0  0  0  0  0  0  0  0
   35.8810   29.1290   38.0310 C   0  0  1  0  0  0  0  0  0  0  0  0
   36.6450   27.3980   36.8250 H   0  0  0  0  0  0  0  0  0  0  0  0
   34.5450   27.6450   39.1010 H   0  0  0  0  0  0  0  0  0  0  0  0
   34.2610   27.7500   37.2720 H   0  0  0  0  0  0  0  0  0  0  0  0
   35.7970   29.7310   37.0800 H   0  0  0  0  0  0  0  0  0  0  0  0
   37.1440   27.0440   38.9090 C   0  0  0  0  0  0  0  0  0  0  0  0
   38.4600   27.4820   39.2000 C   0  0  0  0  0  0  0  0  0  0  0  0
   39.1460   26.8190   40.2000 C   0  0  0  0  0  0  0  0  0  0  0  0
   38.5250   25.7880   40.8440 N   0  0  0  0  0  0  0  0  0  0  0  0
   37.2710   25.4000   40.5370 C   0  0  0  0  0  0  0  0  0  0  0  0
   36.5890   26.0410   39.5620 N   0  0  0  0  0  0  0  0  0  0  0  0
   38.9940   28.2860   38.7110 H   0  0  0  0  0  0  0  0  0  0  0  0
   40.1490   27.1020   40.4710 H   0  0  0  0  0  0  0  0  0  0  0  0
   36.7850   24.2570   41.3600 C   0  0  0  0  0  0  0  0  0  0  0  0
   37.7470   23.2870   41.4890 F   0  0  0  0  0  0  0  0  0  0  0  0
   35.6430   23.6970   40.7910 F   0  0  0  0  0  0  0  0  0  0  0  0
   36.3820   24.7460   42.6120 F   0  0  0  0  0  0  0  0  0  0  0  0
   35.9590   29.9080   39.2820 C   0  0  0  0  0  0  0  0  0  0  0  0
   36.8490   30.9720   39.4040 C   0  0  0  0  0  0  0  0  0  0  0  0
   37.5680   31.3650   38.6850 H   0  0  0  0  0  0  0  0  0  0  0  0
   36.7300   31.5430   40.6350 C   0  0  0  0  0  0  0  0  0  0  0  0
   37.2280   32.3800   41.1290 H   0  0  0  0  0  0  0  0  0  0  0  0
   35.7770   30.8380   41.2690 N   0  0  0  0  0  0  0  0  0  0  0  0
   35.3890   30.9540   42.2330 H   0  0  0  0  0  0  0  0  0  0  0  0
   35.3440   29.9020   40.4750 N   0  0  0  0  0  0  0  0  0  0  0  0
  1  4  1  6  0  0  0
  1  3  1  0  0  0  0
  1  2  1  0  0  0  0
  1  8  1  0  0  0  0
  2  5  1  0  0  0  0
  3  7  1  6  0  0  0
  3  2  1  0  0  0  0
  3 20  1  0  0  0  0
  6  2  1  0  0  0  0
  8  9  2  0  0  0  0
  8 13  1  0  0  0  0
  9 10  1  0  0  0  0
 10 15  1  0  0  0  0
 10 11  2  0  0  0  0
 12 11  1  0  0  0  0
 12 16  1  0  0  0  0
 13 12  2  0  0  0  0
 14  9  1  0  0  0  0
 16 17  1  0  0  0  0
 16 19  1  0  0  0  0
 18 16  1  0  0  0  0
 20 21  1  0  0  0  0
 20 27  2  0  0  0  0
 21 23  2  0  0  0  0
 22 21  1  0  0  0  0
 23 24  1  0  0  0  0
 23 25  1  0  0  0  0
 25 26  1  0  0  0  0
 27 25  1  0  0  0  0
M  END
>  <minimizedAffinity>
-4.98023367

$$$$

 OpenBabel03252505403D

 27 29  0  0  1  0  0  0  0  0999 V2000
   37.0190   31.8000   40.3950 C   0  0  1  0  0  0  0  0  0  0  0  0
   38.0130   32.6450   39.5800 C   0  0  0  0  0  0  0  0  0  0  0  0
   36.9940   31.7730   38.9310 C   0  0  1  0  0  0  0  0  0  0  0  0
   36.2640   32.3960   40.9590 H   0  0  0  0  0  0  0  0  0  0  0  0
   39.0720   32.3450   39.6310 H   0  0  0  0  0  0  0  0  0  0  0  0
   37.8460   33.7370   39.6540 H   0  0  0  0  0  0  0  0  0  0  0  0
   36.1310   32.3330   38.4680 H   0  0  0  0  0  0  0  0  0  0  0  0
   37.6400   30.7340   41.2150 C   0  0  0  0  0  0  0  0  0  0  0  0
   38.9360   30.9960   41.7250 C   0  0  0  0  0  0  0  0  0  0  0  0
   39.5220   30.0210   42.5070 C   0  0  0  0  0  0  0  0  0  0  0  0
   38.8290   28.8680   42.7410 N   0  0  0  0  0  0  0  0  0  0  0  0
   37.5960   28.6560   42.2380 C   0  0  0  0  0  0  0  0  0  0  0  0
   37.0110   29.6030   41.4720 N   0  0  0  0  0  0  0  0  0  0  0  0
   39.5250   31.8880   41.5570 H   0  0  0  0  0  0  0  0  0  0  0  0
   40.5050   30.1560   42.9260 H   0  0  0  0  0  0  0  0  0  0  0  0
   37.0210   27.3350   42.6150 C   0  0  0  0  0  0  0  0  0  0  0  0
   35.9930   27.4720   43.5140 F   0  0  0  0  0  0  0  0  0  0  0  0
   38.0040   26.5130   43.1660 F   0  0  0  0  0  0  0  0  0  0  0  0
   36.5940   26.6820   41.4480 F   0  0  0  0  0  0  0  0  0  0  0  0
   37.6040   30.7220   38.0930 C   0  0  0  0  0  0  0  0  0  0  0  0
   36.8140   29.7470   37.4890 C   0  0  0  0  0  0  0  0  0  0  0  0
   35.7350   29.5990   37.5310 H   0  0  0  0  0  0  0  0  0  0  0  0
   37.5930   28.9000   36.7600 C   0  0  0  0  0  0  0  0  0  0  0  0
   37.3830   28.0220   36.1470 H   0  0  0  0  0  0  0  0  0  0  0  0
   38.8530   29.3460   36.9130 N   0  0  0  0  0  0  0  0  0  0  0  0
   39.7470   28.9750   36.5170 H   0  0  0  0  0  0  0  0  0  0  0  0
   38.8390   30.3960   37.6830 N   0  0  0  0  0  0  0  0  0  0  0  0
  1  4  1  1  0  0  0
  1  8  1  0  0  0  0
  2  5  1  0  0  0  0
  2  6  1  0  0  0  0
  2  1  1  0  0  0  0
  3  7  1  6  0  0  0
  3  2  1  0  0  0  0
  3  1  1  0  0  0  0
  8 13  2  0  0  0  0
  8  9  1  0  0  0  0
  9 10  2  0  0  0  0
 10 11  1  0  0  0  0
 10 15  1  0  0  0  0
 12 16  1  0  0  0  0
 12 11  2  0  0  0  0
 13 12  1  0  0  0  0
 14  9  1  0  0  0  0
 16 18  1  0  0  0  0
 16 17  1  0  0  0  0
 19 16  1  0  0  0  0
 20  3  1  0  0  0  0
 21 22  1  0  0  0  0
 21 20  1  0  0  0  0
 23 25  1  0  0  0  0
 23 21  2  0  0  0  0
 24 23  1  0  0  0  0
 25 27  1  0  0  0  0
 26 25  1  0  0  0  0
 27 20  2  0  0  0  0
M  END
>  <minimizedAffinity>
-4.97569323

$$$$

 OpenBabel03252505403D

 27 29  0  0  1  0  0  0  0  0999 V2000
   37.9010   28.2460   43.5890 C   0  0  1  0  0  0  0  0  0  0  0  0
   38.7140   29.4020   42.9810 C   0  0  0  0  0  0  0  0  0  0  0  0
   37.2660   29.2100   42.6880 C   0  0  1  0  0  0  0  0  0  0  0  0
   37.7470   28.3200   44.6900 H   0  0  0  0  0  0  0  0  0  0  0  0
   39.4870   29.1280   42.2470 H   0  0  0  0  0  0  0  0  0  0  0  0
   39.0360   30.1640   43.7170 H   0  0  0  0  0  0  0  0  0  0  0  0
   36.5850   29.9490   43.2000 H   0  0  0  0  0  0  0  0  0  0  0  0
   38.3310   26.8950   43.1590 C   0  0  0  0  0  0  0  0  0  0  0  0
   39.5620   26.4230   43.6800 C   0  0  0  0  0  0  0  0  0  0  0  0
   39.9690   25.1580   43.3040 C   0  0  0  0  0  0  0  0  0  0  0  0
   39.1740   24.4410   42.4570 N   0  0  0  0  0  0  0  0  0  0  0  0
   38.0090   24.9260   41.9820 C   0  0  0  0  0  0  0  0  0  0  0  0
   37.5980   26.1610   42.3430 N   0  0  0  0  0  0  0  0  0  0  0  0
   40.2270   26.9580   44.3440 H   0  0  0  0  0  0  0  0  0  0  0  0
   40.8930   24.7380   43.6640 H   0  0  0  0  0  0  0  0  0  0  0  0
   37.2990   23.9810   41.0750 C   0  0  0  0  0  0  0  0  0  0  0  0
   37.8130   22.7120   41.1680 F   0  0  0  0  0  0  0  0  0  0  0  0
   37.3870   24.4140   39.7530 F   0  0  0  0  0  0  0  0  0  0  0  0
   35.9310   24.0020   41.3880 F   0  0  0  0  0  0  0  0  0  0  0  0
   37.0080   28.9840   41.2520 C   0  0  0  0  0  0  0  0  0  0  0  0
   35.7100   28.8020   40.7830 C   0  0  0  0  0  0  0  0  0  0  0  0
   34.7670   28.7870   41.3280 H   0  0  0  0  0  0  0  0  0  0  0  0
   35.7220   28.6260   39.4320 C   0  0  0  0  0  0  0  0  0  0  0  0
   34.9420   28.4560   38.6860 H   0  0  0  0  0  0  0  0  0  0  0  0
   37.0150   28.6960   39.0700 N   0  0  0  0  0  0  0  0  0  0  0  0
   37.4500   28.6110   38.1220 H   0  0  0  0  0  0  0  0  0  0  0  0
   37.7410   28.9030   40.1300 N   0  0  0  0  0  0  0  0  0  0  0  0
  1  4  1  1  0  0  0
  2  1  1  0  0  0  0
  2  6  1  0  0  0  0
  3  2  1  0  0  0  0
  3  7  1  1  0  0  0
  3  1  1  0  0  0  0
  5  2  1  0  0  0  0
  8  1  1  0  0  0  0
  8  9  1  0  0  0  0
  9 14  1  0  0  0  0
 10 15  1  0  0  0  0
 10  9  2  0  0  0  0
 11 10  1  0  0  0  0
 12 13  1  0  0  0  0
 12 11  2  0  0  0  0
 13  8  2  0  0  0  0
 16 17  1  0  0  0  0
 16 19  1  0  0  0  0
 16 12  1  0  0  0  0
 18 16  1  0  0  0  0
 20  3  1  0  0  0  0
 21 20  1  0  0  0  0
 21 22  1  0  0  0  0
 23 21  2  0  0  0  0
 24 23  1  0  0  0  0
 25 23  1  0  0  0  0
 25 27  1  0  0  0  0
 26 25  1  0  0  0  0
 27 20  2  0  0  0  0
M  END
>  <minimizedAffinity>
-4.96380424

$$$$

 OpenBabel03252505403D

 27 29  0  0  1  0  0  0  0  0999 V2000
   38.1550   30.0390   38.0690 C   0  0  1  0  0  0  0  0  0  0  0  0
   37.8250   31.4190   37.4760 C   0  0  0  0  0  0  0  0  0  0  0  0
   39.0960   31.1520   38.2080 C   0  0  1  0  0  0  0  0  0  0  0  0
   38.3340   29.2430   37.3100 H   0  0  0  0  0  0  0  0  0  0  0  0
   37.0000   31.9740   37.9490 H   0  0  0  0  0  0  0  0  0  0  0  0
   37.8160   31.4460   36.3700 H   0  0  0  0  0  0  0  0  0  0  0  0
   40.0060   31.0790   37.5470 H   0  0  0  0  0  0  0  0  0  0  0  0
   37.2490   29.6010   39.1570 C   0  0  0  0  0  0  0  0  0  0  0  0
   35.8580   29.6730   38.8960 C   0  0  0  0  0  0  0  0  0  0  0  0
   35.0000   29.2510   39.8920 C   0  0  0  0  0  0  0  0  0  0  0  0
   35.5330   28.7960   41.0630 N   0  0  0  0  0  0  0  0  0  0  0  0
   36.8640   28.7440   41.2750 C   0  0  0  0  0  0  0  0  0  0  0  0
   37.7150   29.1520   40.3080 N   0  0  0  0  0  0  0  0  0  0  0  0
   35.3920   30.0350   37.9890 H   0  0  0  0  0  0  0  0  0  0  0  0
   33.9320   29.2790   39.7590 H   0  0  0  0  0  0  0  0  0  0  0  0
   37.2310   28.2160   42.6190 C   0  0  0  0  0  0  0  0  0  0  0  0
   37.6510   29.2190   43.4550 F   0  0  0  0  0  0  0  0  0  0  0  0
   38.2390   27.2590   42.5080 F   0  0  0  0  0  0  0  0  0  0  0  0
   36.1240   27.5370   43.1510 F   0  0  0  0  0  0  0  0  0  0  0  0
   39.2380   31.9940   39.4120 C   0  0  0  0  0  0  0  0  0  0  0  0
   38.4130   33.0980   39.6100 C   0  0  0  0  0  0  0  0  0  0  0  0
   37.6160   33.4940   38.9810 H   0  0  0  0  0  0  0  0  0  0  0  0
   38.7210   33.7070   40.7890 C   0  0  0  0  0  0  0  0  0  0  0  0
   38.3280   34.5820   41.3110 H   0  0  0  0  0  0  0  0  0  0  0  0
   39.7280   32.9880   41.3150 N   0  0  0  0  0  0  0  0  0  0  0  0
   40.2500   33.1230   42.2110 H   0  0  0  0  0  0  0  0  0  0  0  0
   40.0120   32.0060   40.5090 N   0  0  0  0  0  0  0  0  0  0  0  0
  1  4  1  6  0  0  0
  1  3  1  0  0  0  0
  1  8  1  0  0  0  0
  2  5  1  0  0  0  0
  2  1  1  0  0  0  0
  2  3  1  0  0  0  0
  3  7  1  6  0  0  0
  3 20  1  0  0  0  0
  6  2  1  0  0  0  0
  8 13  1  0  0  0  0
  9  8  2  0  0  0  0
  9 10  1  0  0  0  0
 10 11  2  0  0  0  0
 11 12  1  0  0  0  0
 12 16  1  0  0  0  0
 13 12  2  0  0  0  0
 14  9  1  0  0  0  0
 15 10  1  0  0  0  0
 16 19  1  0  0  0  0
 16 17  1  0  0  0  0
 18 16  1  0  0  0  0
 20 21  1  0  0  0  0
 20 27  2  0  0  0  0
 21 23  2  0  0  0  0
 22 21  1  0  0  0  0
 23 24  1  0  0  0  0
 23 25  1  0  0  0  0
 25 26  1  0  0  0  0
 27 25  1  0  0  0  0
M  END
>  <minimizedAffinity>
-4.88970852

$$$$

 OpenBabel03252505403D

 27 29  0  0  1  0  0  0  0  0999 V2000
   36.5730   27.3190   38.2540 C   0  0  1  0  0  0  0  0  0  0  0  0
   35.1070   27.7640   38.1170 C   0  0  0  0  0  0  0  0  0  0  0  0
   36.2310   28.7410   38.1820 C   0  0  1  0  0  0  0  0  0  0  0  0
   36.9800   26.7930   37.3590 H   0  0  0  0  0  0  0  0  0  0  0  0
   34.4540   27.5850   38.9850 H   0  0  0  0  0  0  0  0  0  0  0  0
   34.6470   27.5110   37.1420 H   0  0  0  0  0  0  0  0  0  0  0  0
   36.4780   29.2310   37.1970 H   0  0  0  0  0  0  0  0  0  0  0  0
   36.8920   26.6240   39.5230 C   0  0  0  0  0  0  0  0  0  0  0  0
   36.4670   25.2770   39.6360 C   0  0  0  0  0  0  0  0  0  0  0  0
   36.7720   24.6080   40.8050 C   0  0  0  0  0  0  0  0  0  0  0  0
   37.4560   25.2760   41.7790 N   0  0  0  0  0  0  0  0  0  0  0  0
   37.8430   26.5600   41.6340 C   0  0  0  0  0  0  0  0  0  0  0  0
   37.5520   27.2250   40.4950 N   0  0  0  0  0  0  0  0  0  0  0  0
   35.9150   24.7120   38.8960 H   0  0  0  0  0  0  0  0  0  0  0  0
   36.4790   23.5830   40.9560 H   0  0  0  0  0  0  0  0  0  0  0  0
   38.5760   27.0950   42.8160 C   0  0  0  0  0  0  0  0  0  0  0  0
   39.5600   27.9750   42.4400 F   0  0  0  0  0  0  0  0  0  0  0  0
   39.1480   26.0560   43.5480 F   0  0  0  0  0  0  0  0  0  0  0  0
   37.6520   27.7010   43.6800 F   0  0  0  0  0  0  0  0  0  0  0  0
   36.1230   29.6450   39.3440 C   0  0  0  0  0  0  0  0  0  0  0  0
   37.0300   30.6860   39.5220 C   0  0  0  0  0  0  0  0  0  0  0  0
   37.8850   30.9770   38.9120 H   0  0  0  0  0  0  0  0  0  0  0  0
   36.7220   31.3870   40.6480 C   0  0  0  0  0  0  0  0  0  0  0  0
   37.1650   32.2550   41.1410 H   0  0  0  0  0  0  0  0  0  0  0  0
   35.6360   30.7850   41.1630 N   0  0  0  0  0  0  0  0  0  0  0  0
   35.0890   31.0150   42.0240 H   0  0  0  0  0  0  0  0  0  0  0  0
   35.3050   29.7840   40.3990 N   0  0  0  0  0  0  0  0  0  0  0  0
  1  4  1  6  0  0  0
  1  8  1  0  0  0  0
  2  3  1  0  0  0  0
  2  1  1  0  0  0  0
  2  5  1  0  0  0  0
  3  7  1  6  0  0  0
  3  1  1  0  0  0  0
  3 20  1  0  0  0  0
  6  2  1  0  0  0  0
  8  9  2  0  0  0  0
  8 13  1  0  0  0  0
  9 10  1  0  0  0  0
 10 15  1  0  0  0  0
 10 11  2  0  0  0  0
 12 11  1  0  0  0  0
 12 16  1  0  0  0  0
 13 12  2  0  0  0  0
 14  9  1  0  0  0  0
 16 18  1  0  0  0  0
 16 19  1  0  0  0  0
 17 16  1  0  0  0  0
 20 21  1  0  0  0  0
 20 27  2  0  0  0  0
 21 23  2  0  0  0  0
 22 21  1  0  0  0  0
 23 24  1  0  0  0  0
 23 25  1  0  0  0  0
 25 26  1  0  0  0  0
 27 25  1  0  0  0  0
M  END
>  <minimizedAffinity>
-4.85821772

$$$$

 OpenBabel03252505403D

 27 29  0  0  1  0  0  0  0  0999 V2000
   41.0080   29.6380   41.0580 C   0  0  1  0  0  0  0  0  0  0  0  0
   41.3050   29.4870   42.5590 C   0  0  0  0  0  0  0  0  0  0  0  0
   40.3530   28.5910   41.8440 C   0  0  1  0  0  0  0  0  0  0  0  0
   41.8660   29.3870   40.3920 H   0  0  0  0  0  0  0  0  0  0  0  0
   40.9460   30.2950   43.2160 H   0  0  0  0  0  0  0  0  0  0  0  0
   42.3320   29.1410   42.7850 H   0  0  0  0  0  0  0  0  0  0  0  0
   40.7460   27.5510   41.6560 H   0  0  0  0  0  0  0  0  0  0  0  0
   40.3440   30.9080   40.6830 C   0  0  0  0  0  0  0  0  0  0  0  0
   41.0680   32.1020   40.9240 C   0  0  0  0  0  0  0  0  0  0  0  0
   40.4710   33.2940   40.5640 C   0  0  0  0  0  0  0  0  0  0  0  0
   39.2260   33.2570   40.0050 N   0  0  0  0  0  0  0  0  0  0  0  0
   38.5680   32.1000   39.7920 C   0  0  0  0  0  0  0  0  0  0  0  0
   39.1410   30.9270   40.1390 N   0  0  0  0  0  0  0  0  0  0  0  0
   42.0500   32.1790   41.3720 H   0  0  0  0  0  0  0  0  0  0  0  0
   40.9670   34.2370   40.7180 H   0  0  0  0  0  0  0  0  0  0  0  0
   37.2260   32.2860   39.1730 C   0  0  0  0  0  0  0  0  0  0  0  0
   36.2870   31.4700   39.7520 F   0  0  0  0  0  0  0  0  0  0  0  0
   37.2790   32.0240   37.8050 F   0  0  0  0  0  0  0  0  0  0  0  0
   36.8650   33.6370   39.2840 F   0  0  0  0  0  0  0  0  0  0  0  0
   38.9840   28.6750   42.3900 C   0  0  0  0  0  0  0  0  0  0  0  0
   38.0030   27.7710   41.9910 C   0  0  0  0  0  0  0  0  0  0  0  0
   38.0630   26.9460   41.2820 H   0  0  0  0  0  0  0  0  0  0  0  0
   36.8320   28.0360   42.6360 C   0  0  0  0  0  0  0  0  0  0  0  0
   35.8400   27.5810   42.6150 H   0  0  0  0  0  0  0  0  0  0  0  0
   37.0870   29.0950   43.4250 N   0  0  0  0  0  0  0  0  0  0  0  0
   36.4540   29.6080   44.0800 H   0  0  0  0  0  0  0  0  0  0  0  0
   38.3300   29.4490   43.2700 N   0  0  0  0  0  0  0  0  0  0  0  0
  1  4  1  6  0  0  0
  1  3  1  0  0  0  0
  1  2  1  0  0  0  0
  2  6  1  0  0  0  0
  2  5  1  0  0  0  0
  3  7  1  6  0  0  0
  3 20  1  0  0  0  0
  3  2  1  0  0  0  0
  8  9  1  0  0  0  0
  8  1  1  0  0  0  0
  9 14  1  0  0  0  0
 10 15  1  0  0  0  0
 10  9  2  0  0  0  0
 11 10  1  0  0  0  0
 12 11  2  0  0  0  0
 12 13  1  0  0  0  0
 13  8  2  0  0  0  0
 16 19  1  0  0  0  0
 16 17  1  0  0  0  0
 16 12  1  0  0  0  0
 18 16  1  0  0  0  0
 20 27  2  0  0  0  0
 21 20  1  0  0  0  0
 21 23  2  0  0  0  0
 22 21  1  0  0  0  0
 23 25  1  0  0  0  0
 24 23  1  0  0  0  0
 25 26  1  0  0  0  0
 27 25  1  0  0  0  0
M  END
>  <minimizedAffinity>
-4.81971931

$$$$
