
 OpenBabel03242522193D

 43 46  0  0  0  0  0  0  0  0999 V2000
   37.3590   31.2520   40.1130 C   0  0  0  0  0  0  0  0  0  0  0  0
   36.3030   31.5550   39.9560 H   0  0  0  0  0  0  0  0  0  0  0  0
   37.6980   31.8390   41.0050 H   0  0  0  0  0  0  0  0  0  0  0  0
   37.4610   29.8400   40.3890 C   0  0  0  0  0  0  0  0  0  0  0  0
   37.6500   28.7980   39.5410 C   0  0  0  0  0  0  0  0  0  0  0  0
   37.7170   27.4610   39.8970 C   0  0  0  0  0  0  0  0  0  0  0  0
   37.5730   27.1770   41.2560 C   0  0  0  0  0  0  0  0  0  0  0  0
   37.3870   28.2520   42.0830 C   0  0  0  0  0  0  0  0  0  0  0  0
   37.3270   29.5230   41.7140 N   0  0  0  0  0  0  0  0  0  0  0  0
   37.7420   29.2030   38.5110 H   0  0  0  0  0  0  0  0  0  0  0  0
   37.8730   26.8650   39.0350 H   0  0  0  0  0  0  0  0  0  0  0  0
   37.6970   25.7390   41.3510 C   0  0  0  0  0  0  0  0  0  0  0  0
   36.9040   24.6810   40.9830 C   0  0  0  0  0  0  0  0  0  0  0  0
   35.9230   24.6410   40.5330 H   0  0  0  0  0  0  0  0  0  0  0  0
   37.4840   23.4720   41.1930 C   0  0  0  0  0  0  0  0  0  0  0  0
   37.1860   22.4490   41.0360 H   0  0  0  0  0  0  0  0  0  0  0  0
   38.6820   23.7830   41.7060 N   0  0  0  0  0  0  0  0  0  0  0  0
   39.5050   23.1960   42.0350 H   0  0  0  0  0  0  0  0  0  0  0  0
   38.8100   25.0860   41.7980 N   0  0  0  0  0  0  0  0  0  0  0  0
   37.2900   27.8490   43.5210 C   0  0  0  0  0  0  0  0  0  0  0  0
   38.4500   27.2640   43.9640 F   0  0  0  0  0  0  0  0  0  0  0  0
   36.1730   27.1050   43.7900 F   0  0  0  0  0  0  0  0  0  0  0  0
   37.1650   29.0080   44.3280 F   0  0  0  0  0  0  0  0  0  0  0  0
   38.1390   31.7710   38.9290 C   0  0  0  0  0  0  0  0  0  0  0  0
   37.3870   32.2710   38.2750 H   0  0  0  0  0  0  0  0  0  0  0  0
   38.7040   30.9850   38.3960 H   0  0  0  0  0  0  0  0  0  0  0  0
   40.9910   34.0070   39.6070 C   0  0  0  0  0  0  0  0  0  0  0  0
   40.3470   35.0000   40.2430 C   0  0  0  0  0  0  0  0  0  0  0  0
   38.5980   34.3910   40.2270 S   0  0  0  0  0  0  0  0  0  0  0  0
   39.0880   32.8460   39.3290 C   0  0  0  0  0  0  0  0  0  0  0  0
   40.2080   33.0500   39.2410 N   0  0  0  0  0  0  0  0  0  0  0  0
   40.7220   35.9290   40.6660 H   0  0  0  0  0  0  0  0  0  0  0  0
   44.3670   33.9800   37.9240 C   0  0  0  0  0  0  0  0  0  0  0  0
   42.9700   33.9800   38.0730 C   0  0  0  0  0  0  0  0  0  0  0  0
   42.4560   34.0060   39.3480 C   0  0  0  0  0  0  0  0  0  0  0  0
   43.3590   34.0290   40.3930 N   0  0  0  0  0  0  0  0  0  0  0  0
   44.6910   34.0280   40.1800 C   0  0  0  0  0  0  0  0  0  0  0  0
   45.1990   34.0030   38.9550 N   0  0  0  0  0  0  0  0  0  0  0  0
   44.7790   33.9600   36.9050 H   0  0  0  0  0  0  0  0  0  0  0  0
   45.3770   34.0460   41.0180 H   0  0  0  0  0  0  0  0  0  0  0  0
   42.1860   33.9530   36.8970 N   0  0  0  0  0  0  0  0  0  0  0  0
   42.0900   33.2880   36.0960 H   0  0  0  0  0  0  0  0  0  0  0  0
   41.5190   34.7140   36.6690 H   0  0  0  0  0  0  0  0  0  0  0  0
  1  4  1  0  0  0  0
  1  3  1  0  0  0  0
  2  1  1  0  0  0  0
  4  9  1  0  0  0  0
  5  6  1  0  0  0  0
  5  4  2  0  0  0  0
  6  7  2  0  0  0  0
  7 12  1  0  0  0  0
  7  8  1  0  0  0  0
  8 20  1  0  0  0  0
  9  8  2  0  0  0  0
 10  5  1  0  0  0  0
 11  6  1  0  0  0  0
 12 19  2  0  0  0  0
 13 15  2  0  0  0  0
 13 12  1  0  0  0  0
 14 13  1  0  0  0  0
 15 17  1  0  0  0  0
 16 15  1  0  0  0  0
 17 19  1  0  0  0  0
 17 18  1  0  0  0  0
 20 22  1  0  0  0  0
 20 21  1  0  0  0  0
 20 23  1  0  0  0  0
 24 30  1  0  0  0  0
 24  1  1  0  0  0  0
 25 24  1  0  0  0  0
 26 24  1  0  0  0  0
 27 28  2  0  0  0  0
 28 32  1  0  0  0  0
 29 28  1  0  0  0  0
 30 29  1  0  0  0  0
 31 30  2  0  0  0  0
 31 27  1  0  0  0  0
 33 34  2  0  0  0  0
 33 38  1  0  0  0  0
 34 35  1  0  0  0  0
 35 27  1  0  0  0  0
 35 36  2  0  0  0  0
 37 36  1  0  0  0  0
 37 40  1  0  0  0  0
 38 37  2  0  0  0  0
 39 33  1  0  0  0  0
 41 34  1  0  0  0  0
 42 41  1  0  0  0  0
 43 41  1  0  0  0  0
M  END
>  <minimizedAffinity>
-7.05745983

$$$$

 OpenBabel03242522193D

 43 46  0  0  0  0  0  0  0  0999 V2000
   37.0910   31.0090   39.5100 C   0  0  0  0  0  0  0  0  0  0  0  0
   37.7030   31.2600   38.6200 H   0  0  0  0  0  0  0  0  0  0  0  0
   36.0340   31.2130   39.2010 H   0  0  0  0  0  0  0  0  0  0  0  0
   37.2360   29.6200   39.8680 C   0  0  0  0  0  0  0  0  0  0  0  0
   37.3930   28.5280   39.0780 C   0  0  0  0  0  0  0  0  0  0  0  0
   37.5060   27.2170   39.5140 C   0  0  0  0  0  0  0  0  0  0  0  0
   37.4510   27.0200   40.8950 C   0  0  0  0  0  0  0  0  0  0  0  0
   37.2950   28.1430   41.6620 C   0  0  0  0  0  0  0  0  0  0  0  0
   37.1880   29.3870   41.2170 N   0  0  0  0  0  0  0  0  0  0  0  0
   37.4150   28.8670   38.0210 H   0  0  0  0  0  0  0  0  0  0  0  0
   37.6210   26.5690   38.6830 H   0  0  0  0  0  0  0  0  0  0  0  0
   37.6070   25.5930   41.0730 C   0  0  0  0  0  0  0  0  0  0  0  0
   36.8040   24.5040   40.8450 C   0  0  0  0  0  0  0  0  0  0  0  0
   35.7890   24.4230   40.4830 H   0  0  0  0  0  0  0  0  0  0  0  0
   37.4200   23.3180   41.0830 C   0  0  0  0  0  0  0  0  0  0  0  0
   37.1280   22.2830   41.0200 H   0  0  0  0  0  0  0  0  0  0  0  0
   38.6520   23.6770   41.4710 N   0  0  0  0  0  0  0  0  0  0  0  0
   39.5100   23.1230   41.7660 H   0  0  0  0  0  0  0  0  0  0  0  0
   38.7640   24.9840   41.4650 N   0  0  0  0  0  0  0  0  0  0  0  0
   37.2930   27.8330   43.1250 C   0  0  0  0  0  0  0  0  0  0  0  0
   38.4930   27.3100   43.5360 F   0  0  0  0  0  0  0  0  0  0  0  0
   36.2160   27.0770   43.5060 F   0  0  0  0  0  0  0  0  0  0  0  0
   37.1770   29.0380   43.8620 F   0  0  0  0  0  0  0  0  0  0  0  0
   37.4360   32.0240   40.5740 C   0  0  0  0  0  0  0  0  0  0  0  0
   37.7760   31.4260   41.4530 H   0  0  0  0  0  0  0  0  0  0  0  0
   36.5990   32.7000   40.8240 H   0  0  0  0  0  0  0  0  0  0  0  0
   40.6140   33.4370   39.3540 C   0  0  0  0  0  0  0  0  0  0  0  0
   40.4290   34.7250   39.6940 C   0  0  0  0  0  0  0  0  0  0  0  0
   38.7500   34.6740   40.4740 S   0  0  0  0  0  0  0  0  0  0  0  0
   38.6110   32.8490   40.1820 C   0  0  0  0  0  0  0  0  0  0  0  0
   39.6200   32.6820   39.6750 N   0  0  0  0  0  0  0  0  0  0  0  0
   41.0720   35.5910   39.5610 H   0  0  0  0  0  0  0  0  0  0  0  0
   42.9910   31.8350   36.9020 C   0  0  0  0  0  0  0  0  0  0  0  0
   41.7840   32.2800   37.4670 C   0  0  0  0  0  0  0  0  0  0  0  0
   41.8380   32.9320   38.6770 C   0  0  0  0  0  0  0  0  0  0  0  0
   43.0840   33.1000   39.2480 N   0  0  0  0  0  0  0  0  0  0  0  0
   44.2060   32.6480   38.6510 C   0  0  0  0  0  0  0  0  0  0  0  0
   44.1670   32.0170   37.4840 N   0  0  0  0  0  0  0  0  0  0  0  0
   42.9480   31.3140   35.9350 H   0  0  0  0  0  0  0  0  0  0  0  0
   45.1710   32.7930   39.1210 H   0  0  0  0  0  0  0  0  0  0  0  0
   40.5920   32.0250   36.7510 N   0  0  0  0  0  0  0  0  0  0  0  0
   40.1060   31.1600   36.4220 H   0  0  0  0  0  0  0  0  0  0  0  0
   39.9780   32.7940   36.4230 H   0  0  0  0  0  0  0  0  0  0  0  0
  1  4  1  0  0  0  0
  1 24  1  0  0  0  0
  2  1  1  0  0  0  0
  3  1  1  0  0  0  0
  4  9  1  0  0  0  0
  5  6  1  0  0  0  0
  5  4  2  0  0  0  0
  6  7  2  0  0  0  0
  7 12  1  0  0  0  0
  7  8  1  0  0  0  0
  8 20  1  0  0  0  0
  9  8  2  0  0  0  0
 10  5  1  0  0  0  0
 11  6  1  0  0  0  0
 12 19  2  0  0  0  0
 13 12  1  0  0  0  0
 13 15  2  0  0  0  0
 14 13  1  0  0  0  0
 15 17  1  0  0  0  0
 16 15  1  0  0  0  0
 17 18  1  0  0  0  0
 19 17  1  0  0  0  0
 20 22  1  0  0  0  0
 20 21  1  0  0  0  0
 20 23  1  0  0  0  0
 24 26  1  0  0  0  0
 24 25  1  0  0  0  0
 27 31  1  0  0  0  0
 27 28  2  0  0  0  0
 28 29  1  0  0  0  0
 30 29  1  0  0  0  0
 30 24  1  0  0  0  0
 31 30  2  0  0  0  0
 32 28  1  0  0  0  0
 33 34  2  0  0  0  0
 33 38  1  0  0  0  0
 34 35  1  0  0  0  0
 35 36  2  0  0  0  0
 35 27  1  0  0  0  0
 37 40  1  0  0  0  0
 37 36  1  0  0  0  0
 38 37  2  0  0  0  0
 39 33  1  0  0  0  0
 41 34  1  0  0  0  0
 42 41  1  0  0  0  0
 43 41  1  0  0  0  0
M  END
>  <minimizedAffinity>
-6.5577507

$$$$

 OpenBabel03242522193D

 43 46  0  0  0  0  0  0  0  0999 V2000
   33.9240   28.4440   37.8400 C   0  0  0  0  0  0  0  0  0  0  0  0
   33.5570   27.4120   38.0130 H   0  0  0  0  0  0  0  0  0  0  0  0
   34.9700   28.3180   37.4570 H   0  0  0  0  0  0  0  0  0  0  0  0
   33.1210   29.1250   36.8550 C   0  0  0  0  0  0  0  0  0  0  0  0
   33.2800   29.2150   35.5110 C   0  0  0  0  0  0  0  0  0  0  0  0
   32.4620   29.9140   34.6390 C   0  0  0  0  0  0  0  0  0  0  0  0
   31.3800   30.5840   35.2120 C   0  0  0  0  0  0  0  0  0  0  0  0
   31.2480   30.4700   36.5700 C   0  0  0  0  0  0  0  0  0  0  0  0
   32.0470   29.7940   37.3810 N   0  0  0  0  0  0  0  0  0  0  0  0
   34.1810   28.6290   35.2310 H   0  0  0  0  0  0  0  0  0  0  0  0
   32.8200   29.8110   33.6460 H   0  0  0  0  0  0  0  0  0  0  0  0
   30.6960   31.2050   34.1000 C   0  0  0  0  0  0  0  0  0  0  0  0
   29.8240   30.7590   33.1380 C   0  0  0  0  0  0  0  0  0  0  0  0
   29.4240   29.7770   32.9320 H   0  0  0  0  0  0  0  0  0  0  0  0
   29.3580   31.7450   32.3310 C   0  0  0  0  0  0  0  0  0  0  0  0
   28.6830   31.7850   31.4920 H   0  0  0  0  0  0  0  0  0  0  0  0
   29.9550   32.8470   32.8040 N   0  0  0  0  0  0  0  0  0  0  0  0
   29.9190   33.8710   32.5200 H   0  0  0  0  0  0  0  0  0  0  0  0
   30.7250   32.5420   33.8220 N   0  0  0  0  0  0  0  0  0  0  0  0
   30.0360   31.1830   37.0810 C   0  0  0  0  0  0  0  0  0  0  0  0
   29.8980   31.0420   38.4400 F   0  0  0  0  0  0  0  0  0  0  0  0
   28.9000   30.8640   36.3870 F   0  0  0  0  0  0  0  0  0  0  0  0
   30.1990   32.5790   36.9010 F   0  0  0  0  0  0  0  0  0  0  0  0
   34.0350   29.0990   39.1960 C   0  0  0  0  0  0  0  0  0  0  0  0
   33.5710   28.3780   39.9110 H   0  0  0  0  0  0  0  0  0  0  0  0
   33.5650   30.0980   39.2420 H   0  0  0  0  0  0  0  0  0  0  0  0
   37.3950   28.8290   40.6890 C   0  0  0  0  0  0  0  0  0  0  0  0
   37.9960   29.8570   40.0660 C   0  0  0  0  0  0  0  0  0  0  0  0
   36.6280   30.5130   39.0050 S   0  0  0  0  0  0  0  0  0  0  0  0
   35.4530   29.2220   39.6300 C   0  0  0  0  0  0  0  0  0  0  0  0
   36.1610   28.6820   40.3450 N   0  0  0  0  0  0  0  0  0  0  0  0
   39.0140   30.2310   40.1410 H   0  0  0  0  0  0  0  0  0  0  0  0
   38.5960   27.2290   43.8870 C   0  0  0  0  0  0  0  0  0  0  0  0
   37.9110   28.1070   43.0300 C   0  0  0  0  0  0  0  0  0  0  0  0
   38.0770   27.9480   41.6740 C   0  0  0  0  0  0  0  0  0  0  0  0
   38.9100   26.9300   41.2550 N   0  0  0  0  0  0  0  0  0  0  0  0
   39.5390   26.1200   42.1320 C   0  0  0  0  0  0  0  0  0  0  0  0
   39.3880   26.2640   43.4420 N   0  0  0  0  0  0  0  0  0  0  0  0
   38.4640   27.3560   44.9710 H   0  0  0  0  0  0  0  0  0  0  0  0
   40.1880   25.3300   41.7760 H   0  0  0  0  0  0  0  0  0  0  0  0
   37.0960   29.0980   43.6240 N   0  0  0  0  0  0  0  0  0  0  0  0
   37.2700   29.8930   44.2800 H   0  0  0  0  0  0  0  0  0  0  0  0
   36.0760   29.1460   43.4400 H   0  0  0  0  0  0  0  0  0  0  0  0
  1  2  1  0  0  0  0
  1 24  1  0  0  0  0
  3  1  1  0  0  0  0
  4  9  1  0  0  0  0
  4  1  1  0  0  0  0
  5  4  2  0  0  0  0
  6  7  2  0  0  0  0
  6  5  1  0  0  0  0
  7  8  1  0  0  0  0
  8 20  1  0  0  0  0
  8  9  2  0  0  0  0
 10  5  1  0  0  0  0
 11  6  1  0  0  0  0
 12  7  1  0  0  0  0
 13 12  1  0  0  0  0
 14 13  1  0  0  0  0
 15 17  1  0  0  0  0
 15 13  2  0  0  0  0
 16 15  1  0  0  0  0
 17 19  1  0  0  0  0
 18 17  1  0  0  0  0
 19 12  2  0  0  0  0
 20 21  1  0  0  0  0
 22 20  1  0  0  0  0
 23 20  1  0  0  0  0
 24 26  1  0  0  0  0
 24 30  1  0  0  0  0
 24 25  1  0  0  0  0
 27 35  1  0  0  0  0
 28 32  1  0  0  0  0
 28 27  2  0  0  0  0
 29 30  1  0  0  0  0
 29 28  1  0  0  0  0
 30 31  2  0  0  0  0
 31 27  1  0  0  0  0
 33 39  1  0  0  0  0
 34 41  1  0  0  0  0
 34 33  2  0  0  0  0
 35 34  1  0  0  0  0
 36 35  2  0  0  0  0
 36 37  1  0  0  0  0
 37 38  2  0  0  0  0
 38 33  1  0  0  0  0
 40 37  1  0  0  0  0
 41 42  1  0  0  0  0
 43 41  1  0  0  0  0
M  END
>  <minimizedAffinity>
-6.32255363

$$$$

 OpenBabel03242522193D

 43 46  0  0  0  0  0  0  0  0999 V2000
   35.0960   29.1440   40.3860 C   0  0  0  0  0  0  0  0  0  0  0  0
   34.2260   28.5260   40.6910 H   0  0  0  0  0  0  0  0  0  0  0  0
   34.8210   30.1910   40.6740 H   0  0  0  0  0  0  0  0  0  0  0  0
   36.2920   28.7410   41.0830 C   0  0  0  0  0  0  0  0  0  0  0  0
   37.0550   29.4250   41.9720 C   0  0  0  0  0  0  0  0  0  0  0  0
   38.2090   28.9590   42.5810 C   0  0  0  0  0  0  0  0  0  0  0  0
   38.6100   27.6680   42.2370 C   0  0  0  0  0  0  0  0  0  0  0  0
   37.8160   27.0060   41.3390 C   0  0  0  0  0  0  0  0  0  0  0  0
   36.7160   27.4760   40.7710 N   0  0  0  0  0  0  0  0  0  0  0  0
   36.5930   30.4230   42.1270 H   0  0  0  0  0  0  0  0  0  0  0  0
   38.5980   29.7010   43.2300 H   0  0  0  0  0  0  0  0  0  0  0  0
   39.8070   27.4310   43.0120 C   0  0  0  0  0  0  0  0  0  0  0  0
   40.1280   26.5950   44.0530 C   0  0  0  0  0  0  0  0  0  0  0  0
   39.5380   25.8830   44.6100 H   0  0  0  0  0  0  0  0  0  0  0  0
   41.4360   26.6560   44.4120 C   0  0  0  0  0  0  0  0  0  0  0  0
   42.0430   26.1690   45.1560 H   0  0  0  0  0  0  0  0  0  0  0  0
   41.9520   27.5590   43.5660 N   0  0  0  0  0  0  0  0  0  0  0  0
   42.9300   27.9560   43.4380 H   0  0  0  0  0  0  0  0  0  0  0  0
   41.0200   28.0070   42.7590 N   0  0  0  0  0  0  0  0  0  0  0  0
   38.3030   25.6170   41.0710 C   0  0  0  0  0  0  0  0  0  0  0  0
   38.1070   24.7920   42.1500 F   0  0  0  0  0  0  0  0  0  0  0  0
   39.5860   25.5870   40.5940 F   0  0  0  0  0  0  0  0  0  0  0  0
   37.5160   25.0310   40.0480 F   0  0  0  0  0  0  0  0  0  0  0  0
   35.1440   29.1080   38.8770 C   0  0  0  0  0  0  0  0  0  0  0  0
   34.2080   29.6100   38.5390 H   0  0  0  0  0  0  0  0  0  0  0  0
   35.2480   28.0880   38.4640 H   0  0  0  0  0  0  0  0  0  0  0  0
   37.9460   31.4210   38.2500 C   0  0  0  0  0  0  0  0  0  0  0  0
   38.1110   31.2150   36.9310 C   0  0  0  0  0  0  0  0  0  0  0  0
   36.8000   29.9570   36.5750 S   0  0  0  0  0  0  0  0  0  0  0  0
   36.2530   29.9470   38.3460 C   0  0  0  0  0  0  0  0  0  0  0  0
   36.9940   30.7140   38.7550 N   0  0  0  0  0  0  0  0  0  0  0  0
   38.8180   31.6530   36.2310 H   0  0  0  0  0  0  0  0  0  0  0  0
   39.0700   34.2350   40.4950 C   0  0  0  0  0  0  0  0  0  0  0  0
   38.2120   33.3900   39.7720 C   0  0  0  0  0  0  0  0  0  0  0  0
   38.7730   32.3650   39.0470 C   0  0  0  0  0  0  0  0  0  0  0  0
   40.1470   32.2440   39.0850 N   0  0  0  0  0  0  0  0  0  0  0  0
   40.9160   33.0900   39.8020 C   0  0  0  0  0  0  0  0  0  0  0  0
   40.3870   34.0830   40.5050 N   0  0  0  0  0  0  0  0  0  0  0  0
   38.6220   35.0540   41.0760 H   0  0  0  0  0  0  0  0  0  0  0  0
   41.9920   32.9720   39.8140 H   0  0  0  0  0  0  0  0  0  0  0  0
   36.8240   33.6550   39.8390 N   0  0  0  0  0  0  0  0  0  0  0  0
   36.2210   34.4690   39.5840 H   0  0  0  0  0  0  0  0  0  0  0  0
   36.1540   32.9550   40.2110 H   0  0  0  0  0  0  0  0  0  0  0  0
  1  3  1  0  0  0  0
  1  2  1  0  0  0  0
  1  4  1  0  0  0  0
  4  5  1  0  0  0  0
  5 10  1  0  0  0  0
  5  6  2  0  0  0  0
  6 11  1  0  0  0  0
  7  6  1  0  0  0  0
  7 12  1  0  0  0  0
  8  7  2  0  0  0  0
  9  4  2  0  0  0  0
  9  8  1  0  0  0  0
 12 13  1  0  0  0  0
 13 15  2  0  0  0  0
 13 14  1  0  0  0  0
 15 16  1  0  0  0  0
 17 15  1  0  0  0  0
 18 17  1  0  0  0  0
 19 12  2  0  0  0  0
 19 17  1  0  0  0  0
 20  8  1  0  0  0  0
 20 21  1  0  0  0  0
 22 20  1  0  0  0  0
 23 20  1  0  0  0  0
 24  1  1  0  0  0  0
 25 24  1  0  0  0  0
 26 24  1  0  0  0  0
 27 31  1  0  0  0  0
 27 35  1  0  0  0  0
 28 27  2  0  0  0  0
 29 28  1  0  0  0  0
 29 30  1  0  0  0  0
 30 31  2  0  0  0  0
 30 24  1  0  0  0  0
 32 28  1  0  0  0  0
 33 38  1  0  0  0  0
 33 39  1  0  0  0  0
 34 41  1  0  0  0  0
 34 33  2  0  0  0  0
 35 36  2  0  0  0  0
 35 34  1  0  0  0  0
 36 37  1  0  0  0  0
 37 40  1  0  0  0  0
 37 38  2  0  0  0  0
 41 43  1  0  0  0  0
 42 41  1  0  0  0  0
M  END
>  <minimizedAffinity>
-6.29216194

$$$$

 OpenBabel03242522193D

 43 46  0  0  0  0  0  0  0  0999 V2000
   37.1980   31.3960   40.2310 C   0  0  0  0  0  0  0  0  0  0  0  0
   37.0990   31.5910   39.1440 H   0  0  0  0  0  0  0  0  0  0  0  0
   36.2180   31.7140   40.6720 H   0  0  0  0  0  0  0  0  0  0  0  0
   37.4210   29.9960   40.4920 C   0  0  0  0  0  0  0  0  0  0  0  0
   37.7160   28.9860   39.6360 C   0  0  0  0  0  0  0  0  0  0  0  0
   37.8960   27.6550   39.9780 C   0  0  0  0  0  0  0  0  0  0  0  0
   37.7560   27.3420   41.3310 C   0  0  0  0  0  0  0  0  0  0  0  0
   37.4610   28.3850   42.1670 C   0  0  0  0  0  0  0  0  0  0  0  0
   37.2940   29.6500   41.8110 N   0  0  0  0  0  0  0  0  0  0  0  0
   37.7890   29.4110   38.6130 H   0  0  0  0  0  0  0  0  0  0  0  0
   38.1190   27.0870   39.1110 H   0  0  0  0  0  0  0  0  0  0  0  0
   38.0060   25.9200   41.4110 C   0  0  0  0  0  0  0  0  0  0  0  0
   39.1370   25.1440   41.4380 C   0  0  0  0  0  0  0  0  0  0  0  0
   40.1850   25.4000   41.3760 H   0  0  0  0  0  0  0  0  0  0  0  0
   38.8830   23.8220   41.6150 C   0  0  0  0  0  0  0  0  0  0  0  0
   39.4890   22.9350   41.6860 H   0  0  0  0  0  0  0  0  0  0  0  0
   37.5470   23.7690   41.7030 N   0  0  0  0  0  0  0  0  0  0  0  0
   36.8600   22.9690   41.8440 H   0  0  0  0  0  0  0  0  0  0  0  0
   37.0380   24.9730   41.5880 N   0  0  0  0  0  0  0  0  0  0  0  0
   37.3760   27.9560   43.5970 C   0  0  0  0  0  0  0  0  0  0  0  0
   38.5240   27.3260   44.0080 F   0  0  0  0  0  0  0  0  0  0  0  0
   36.2410   27.2430   43.8720 F   0  0  0  0  0  0  0  0  0  0  0  0
   37.3030   29.1020   44.4290 F   0  0  0  0  0  0  0  0  0  0  0  0
   38.2400   32.3580   40.7510 C   0  0  0  0  0  0  0  0  0  0  0  0
   38.6650   31.8700   41.6590 H   0  0  0  0  0  0  0  0  0  0  0  0
   37.8400   33.3660   40.9630 H   0  0  0  0  0  0  0  0  0  0  0  0
   41.4240   32.9480   38.9890 C   0  0  0  0  0  0  0  0  0  0  0  0
   41.0770   32.5290   37.7590 C   0  0  0  0  0  0  0  0  0  0  0  0
   39.3140   32.0200   38.0140 S   0  0  0  0  0  0  0  0  0  0  0  0
   39.3810   32.4910   39.8060 C   0  0  0  0  0  0  0  0  0  0  0  0
   40.4640   32.8520   39.8450 N   0  0  0  0  0  0  0  0  0  0  0  0
   41.6530   32.4850   36.8390 H   0  0  0  0  0  0  0  0  0  0  0  0
   44.4210   34.2760   40.8550 C   0  0  0  0  0  0  0  0  0  0  0  0
   43.1240   33.7880   40.6240 C   0  0  0  0  0  0  0  0  0  0  0  0
   42.7730   33.4700   39.3330 C   0  0  0  0  0  0  0  0  0  0  0  0
   43.7300   33.6550   38.3550 N   0  0  0  0  0  0  0  0  0  0  0  0
   44.9600   34.1280   38.6450 C   0  0  0  0  0  0  0  0  0  0  0  0
   45.3100   34.4390   39.8860 N   0  0  0  0  0  0  0  0  0  0  0  0
   44.7020   34.5300   41.8870 H   0  0  0  0  0  0  0  0  0  0  0  0
   45.6920   34.2640   37.8580 H   0  0  0  0  0  0  0  0  0  0  0  0
   42.2640   33.6590   41.7390 N   0  0  0  0  0  0  0  0  0  0  0  0
   41.8760   34.3250   42.4450 H   0  0  0  0  0  0  0  0  0  0  0  0
   41.8670   32.7420   42.0170 H   0  0  0  0  0  0  0  0  0  0  0  0
  1  4  1  0  0  0  0
  1  3  1  0  0  0  0
  1 24  1  0  0  0  0
  2  1  1  0  0  0  0
  4  9  1  0  0  0  0
  5  6  1  0  0  0  0
  5  4  2  0  0  0  0
  6  7  2  0  0  0  0
  7 12  1  0  0  0  0
  7  8  1  0  0  0  0
  8 20  1  0  0  0  0
  9  8  2  0  0  0  0
 10  5  1  0  0  0  0
 11  6  1  0  0  0  0
 12 13  1  0  0  0  0
 12 19  2  0  0  0  0
 13 15  2  0  0  0  0
 14 13  1  0  0  0  0
 15 16  1  0  0  0  0
 15 17  1  0  0  0  0
 17 18  1  0  0  0  0
 19 17  1  0  0  0  0
 20 22  1  0  0  0  0
 20 21  1  0  0  0  0
 20 23  1  0  0  0  0
 24 26  1  0  0  0  0
 24 25  1  0  0  0  0
 27 35  1  0  0  0  0
 27 31  1  0  0  0  0
 28 29  1  0  0  0  0
 28 27  2  0  0  0  0
 29 30  1  0  0  0  0
 30 31  2  0  0  0  0
 30 24  1  0  0  0  0
 32 28  1  0  0  0  0
 33 39  1  0  0  0  0
 34 33  1  0  0  0  0
 34 41  1  0  0  0  0
 35 34  2  0  0  0  0
 36 37  2  0  0  0  0
 36 35  1  0  0  0  0
 37 38  1  0  0  0  0
 38 33  2  0  0  0  0
 40 37  1  0  0  0  0
 41 43  1  0  0  0  0
 41 42  1  0  0  0  0
M  END
>  <minimizedAffinity>
-6.21472502

$$$$

 OpenBabel03242522193D

 43 46  0  0  0  0  0  0  0  0999 V2000
   37.6990   32.8210   40.4050 C   0  0  0  0  0  0  0  0  0  0  0  0
   37.3660   33.8450   40.1410 H   0  0  0  0  0  0  0  0  0  0  0  0
   37.1400   32.5680   41.3420 H   0  0  0  0  0  0  0  0  0  0  0  0
   37.3650   31.8790   39.3660 C   0  0  0  0  0  0  0  0  0  0  0  0
   37.8210   31.7880   38.0920 C   0  0  0  0  0  0  0  0  0  0  0  0
   37.4240   30.8520   37.1500 C   0  0  0  0  0  0  0  0  0  0  0  0
   36.4650   29.9270   37.5660 C   0  0  0  0  0  0  0  0  0  0  0  0
   36.0290   30.0460   38.8580 C   0  0  0  0  0  0  0  0  0  0  0  0
   36.4270   30.9530   39.7380 N   0  0  0  0  0  0  0  0  0  0  0  0
   38.5680   32.5940   37.9340 H   0  0  0  0  0  0  0  0  0  0  0  0
   37.9430   31.0140   36.2400 H   0  0  0  0  0  0  0  0  0  0  0  0
   36.2490   29.0750   36.4180 C   0  0  0  0  0  0  0  0  0  0  0  0
   35.3440   29.0670   35.3850 C   0  0  0  0  0  0  0  0  0  0  0  0
   34.5020   29.7060   35.1630 H   0  0  0  0  0  0  0  0  0  0  0  0
   35.5860   28.1020   34.4620 C   0  0  0  0  0  0  0  0  0  0  0  0
   35.1130   27.7920   33.5450 H   0  0  0  0  0  0  0  0  0  0  0  0
   36.6800   27.4860   34.9310 N   0  0  0  0  0  0  0  0  0  0  0  0
   37.2620   26.6700   34.5750 H   0  0  0  0  0  0  0  0  0  0  0  0
   37.0650   28.0430   36.0540 N   0  0  0  0  0  0  0  0  0  0  0  0
   35.0410   28.9840   39.2210 C   0  0  0  0  0  0  0  0  0  0  0  0
   33.9950   28.9380   38.3330 F   0  0  0  0  0  0  0  0  0  0  0  0
   34.6370   29.0580   40.5270 F   0  0  0  0  0  0  0  0  0  0  0  0
   35.6490   27.7100   39.0940 F   0  0  0  0  0  0  0  0  0  0  0  0
   39.1580   32.9240   40.7840 C   0  0  0  0  0  0  0  0  0  0  0  0
   39.1960   33.6740   41.6080 H   0  0  0  0  0  0  0  0  0  0  0  0
   39.8140   33.1950   39.9370 H   0  0  0  0  0  0  0  0  0  0  0  0
   39.7270   29.5360   42.1200 C   0  0  0  0  0  0  0  0  0  0  0  0
   41.0050   29.6660   42.5160 C   0  0  0  0  0  0  0  0  0  0  0  0
   41.3710   31.4200   42.0500 S   0  0  0  0  0  0  0  0  0  0  0  0
   39.6580   31.6560   41.3820 C   0  0  0  0  0  0  0  0  0  0  0  0
   39.2490   30.6110   41.5940 N   0  0  0  0  0  0  0  0  0  0  0  0
   41.6750   28.9510   42.9870 H   0  0  0  0  0  0  0  0  0  0  0  0
   36.9300   27.0640   42.6680 C   0  0  0  0  0  0  0  0  0  0  0  0
   37.5920   28.2970   42.5410 C   0  0  0  0  0  0  0  0  0  0  0  0
   38.9400   28.2820   42.2700 C   0  0  0  0  0  0  0  0  0  0  0  0
   39.5450   27.0480   42.1440 N   0  0  0  0  0  0  0  0  0  0  0  0
   38.8500   25.8990   42.2770 C   0  0  0  0  0  0  0  0  0  0  0  0
   37.5500   25.9000   42.5390 N   0  0  0  0  0  0  0  0  0  0  0  0
   35.8530   27.0750   42.8840 H   0  0  0  0  0  0  0  0  0  0  0  0
   39.3500   24.9440   42.1730 H   0  0  0  0  0  0  0  0  0  0  0  0
   36.8230   29.4720   42.7020 N   0  0  0  0  0  0  0  0  0  0  0  0
   36.2510   29.8720   43.4800 H   0  0  0  0  0  0  0  0  0  0  0  0
   36.7310   30.1720   41.9410 H   0  0  0  0  0  0  0  0  0  0  0  0
  1 24  1  0  0  0  0
  1  3  1  0  0  0  0
  2  1  1  0  0  0  0
  4  9  1  0  0  0  0
  4  1  1  0  0  0  0
  5  4  2  0  0  0  0
  6  7  2  0  0  0  0
  6  5  1  0  0  0  0
  7  8  1  0  0  0  0
  8 20  1  0  0  0  0
  8  9  2  0  0  0  0
 10  5  1  0  0  0  0
 11  6  1  0  0  0  0
 12  7  1  0  0  0  0
 13 12  1  0  0  0  0
 14 13  1  0  0  0  0
 15 17  1  0  0  0  0
 15 13  2  0  0  0  0
 16 15  1  0  0  0  0
 17 19  1  0  0  0  0
 18 17  1  0  0  0  0
 19 12  2  0  0  0  0
 20 22  1  0  0  0  0
 21 20  1  0  0  0  0
 23 20  1  0  0  0  0
 24 30  1  0  0  0  0
 24 25  1  0  0  0  0
 26 24  1  0  0  0  0
 27 35  1  0  0  0  0
 27 28  2  0  0  0  0
 28 32  1  0  0  0  0
 29 28  1  0  0  0  0
 30 31  2  0  0  0  0
 30 29  1  0  0  0  0
 31 27  1  0  0  0  0
 33 39  1  0  0  0  0
 34 33  1  0  0  0  0
 34 41  1  0  0  0  0
 35 34  2  0  0  0  0
 36 35  1  0  0  0  0
 36 37  2  0  0  0  0
 37 38  1  0  0  0  0
 38 33  2  0  0  0  0
 40 37  1  0  0  0  0
 41 42  1  0  0  0  0
 43 41  1  0  0  0  0
M  END
>  <minimizedAffinity>
-6.18661499

$$$$

 OpenBabel03242522193D

 43 46  0  0  0  0  0  0  0  0999 V2000
   36.8700   29.7080   38.7560 C   0  0  0  0  0  0  0  0  0  0  0  0
   36.2490   29.0630   38.1020 H   0  0  0  0  0  0  0  0  0  0  0  0
   36.1350   30.2760   39.3830 H   0  0  0  0  0  0  0  0  0  0  0  0
   37.7290   28.9190   39.6040 C   0  0  0  0  0  0  0  0  0  0  0  0
   39.0150   28.5290   39.4210 C   0  0  0  0  0  0  0  0  0  0  0  0
   39.7600   27.7480   40.2900 C   0  0  0  0  0  0  0  0  0  0  0  0
   39.1130   27.3310   41.4540 C   0  0  0  0  0  0  0  0  0  0  0  0
   37.8170   27.7450   41.6080 C   0  0  0  0  0  0  0  0  0  0  0  0
   37.1280   28.4930   40.7590 N   0  0  0  0  0  0  0  0  0  0  0  0
   39.3670   28.9450   38.4540 H   0  0  0  0  0  0  0  0  0  0  0  0
   40.7340   27.5990   39.8970 H   0  0  0  0  0  0  0  0  0  0  0  0
   40.1030   26.5610   42.1740 C   0  0  0  0  0  0  0  0  0  0  0  0
   41.0450   26.8580   43.1270 C   0  0  0  0  0  0  0  0  0  0  0  0
   41.3270   27.7930   43.5900 H   0  0  0  0  0  0  0  0  0  0  0  0
   41.7080   25.7690   43.5910 C   0  0  0  0  0  0  0  0  0  0  0  0
   42.4890   25.6060   44.3150 H   0  0  0  0  0  0  0  0  0  0  0  0
   41.1610   24.7540   42.9080 N   0  0  0  0  0  0  0  0  0  0  0  0
   41.3310   23.7040   42.9090 H   0  0  0  0  0  0  0  0  0  0  0  0
   40.2370   25.2040   42.0930 N   0  0  0  0  0  0  0  0  0  0  0  0
   37.2280   27.2860   42.9040 C   0  0  0  0  0  0  0  0  0  0  0  0
   35.9150   27.6660   43.0280 F   0  0  0  0  0  0  0  0  0  0  0  0
   37.9930   27.6290   43.9860 F   0  0  0  0  0  0  0  0  0  0  0  0
   37.1750   25.8700   42.9230 F   0  0  0  0  0  0  0  0  0  0  0  0
   37.5450   30.7160   37.8570 C   0  0  0  0  0  0  0  0  0  0  0  0
   36.7210   31.1920   37.2760 H   0  0  0  0  0  0  0  0  0  0  0  0
   38.3200   30.2740   37.2050 H   0  0  0  0  0  0  0  0  0  0  0  0
   39.6970   33.2090   39.5150 C   0  0  0  0  0  0  0  0  0  0  0  0
   38.7590   33.8950   40.1930 C   0  0  0  0  0  0  0  0  0  0  0  0
   37.2110   33.0010   39.7090 S   0  0  0  0  0  0  0  0  0  0  0  0
   38.1610   31.8220   38.6410 C   0  0  0  0  0  0  0  0  0  0  0  0
   39.2090   32.2390   38.8200 N   0  0  0  0  0  0  0  0  0  0  0  0
   38.8510   34.7510   40.8560 H   0  0  0  0  0  0  0  0  0  0  0  0
   43.2820   33.8830   38.5580 C   0  0  0  0  0  0  0  0  0  0  0  0
   41.9200   33.5690   38.4220 C   0  0  0  0  0  0  0  0  0  0  0  0
   41.1480   33.5330   39.5590 C   0  0  0  0  0  0  0  0  0  0  0  0
   41.7750   33.8080   40.7570 N   0  0  0  0  0  0  0  0  0  0  0  0
   43.0910   34.1030   40.8190 C   0  0  0  0  0  0  0  0  0  0  0  0
   43.8460   34.1410   39.7290 N   0  0  0  0  0  0  0  0  0  0  0  0
   43.9000   33.9130   37.6490 H   0  0  0  0  0  0  0  0  0  0  0  0
   43.5580   34.3150   41.7730 H   0  0  0  0  0  0  0  0  0  0  0  0
   41.4350   33.3110   37.1190 N   0  0  0  0  0  0  0  0  0  0  0  0
   41.6590   32.6070   36.3800 H   0  0  0  0  0  0  0  0  0  0  0  0
   40.6860   33.8880   36.6920 H   0  0  0  0  0  0  0  0  0  0  0  0
  1  3  1  0  0  0  0
  1  4  1  0  0  0  0
  2  1  1  0  0  0  0
  4  9  1  0  0  0  0
  5  4  2  0  0  0  0
  5  6  1  0  0  0  0
  6  7  2  0  0  0  0
  7  8  1  0  0  0  0
  7 12  1  0  0  0  0
  8 20  1  0  0  0  0
  9  8  2  0  0  0  0
 10  5  1  0  0  0  0
 11  6  1  0  0  0  0
 12 13  1  0  0  0  0
 13 14  1  0  0  0  0
 13 15  2  0  0  0  0
 15 16  1  0  0  0  0
 17 18  1  0  0  0  0
 17 15  1  0  0  0  0
 19 12  2  0  0  0  0
 19 17  1  0  0  0  0
 20 23  1  0  0  0  0
 20 21  1  0  0  0  0
 20 22  1  0  0  0  0
 24 30  1  0  0  0  0
 24  1  1  0  0  0  0
 25 24  1  0  0  0  0
 26 24  1  0  0  0  0
 27 35  1  0  0  0  0
 27 28  2  0  0  0  0
 28 32  1  0  0  0  0
 29 28  1  0  0  0  0
 30 31  2  0  0  0  0
 30 29  1  0  0  0  0
 31 27  1  0  0  0  0
 33 38  1  0  0  0  0
 34 33  2  0  0  0  0
 34 35  1  0  0  0  0
 35 36  2  0  0  0  0
 36 37  1  0  0  0  0
 37 40  1  0  0  0  0
 38 37  2  0  0  0  0
 39 33  1  0  0  0  0
 41 34  1  0  0  0  0
 42 41  1  0  0  0  0
 43 41  1  0  0  0  0
M  END
>  <minimizedAffinity>
-6.14593935

$$$$

 OpenBabel03242522193D

 43 46  0  0  0  0  0  0  0  0999 V2000
   36.2140   30.7820   41.0820 C   0  0  0  0  0  0  0  0  0  0  0  0
   36.5190   30.3250   42.0460 H   0  0  0  0  0  0  0  0  0  0  0  0
   35.4720   31.5740   41.3600 H   0  0  0  0  0  0  0  0  0  0  0  0
   37.3400   31.3810   40.4090 C   0  0  0  0  0  0  0  0  0  0  0  0
   37.3980   32.0430   39.2260 C   0  0  0  0  0  0  0  0  0  0  0  0
   38.5380   32.5720   38.6440 C   0  0  0  0  0  0  0  0  0  0  0  0
   39.7290   32.3990   39.3520 C   0  0  0  0  0  0  0  0  0  0  0  0
   39.6340   31.7290   40.5420 C   0  0  0  0  0  0  0  0  0  0  0  0
   38.5280   31.2330   41.0760 N   0  0  0  0  0  0  0  0  0  0  0  0
   36.3710   32.0870   38.8060 H   0  0  0  0  0  0  0  0  0  0  0  0
   38.2910   33.0360   37.7240 H   0  0  0  0  0  0  0  0  0  0  0  0
   40.7380   33.0470   38.5450 C   0  0  0  0  0  0  0  0  0  0  0  0
   41.4980   34.1820   38.6860 C   0  0  0  0  0  0  0  0  0  0  0  0
   41.5230   34.9380   39.4570 H   0  0  0  0  0  0  0  0  0  0  0  0
   42.4050   34.3530   37.6910 C   0  0  0  0  0  0  0  0  0  0  0  0
   43.1510   35.0950   37.4620 H   0  0  0  0  0  0  0  0  0  0  0  0
   42.2080   33.2880   36.9000 N   0  0  0  0  0  0  0  0  0  0  0  0
   42.6640   32.9610   35.9970 H   0  0  0  0  0  0  0  0  0  0  0  0
   41.2520   32.5340   37.3880 N   0  0  0  0  0  0  0  0  0  0  0  0
   40.9510   31.6350   41.2440 C   0  0  0  0  0  0  0  0  0  0  0  0
   40.8710   30.8650   42.3770 F   0  0  0  0  0  0  0  0  0  0  0  0
   41.5250   32.8590   41.4630 F   0  0  0  0  0  0  0  0  0  0  0  0
   41.8740   30.9370   40.4250 F   0  0  0  0  0  0  0  0  0  0  0  0
   35.4540   29.7220   40.3210 C   0  0  0  0  0  0  0  0  0  0  0  0
   35.4230   30.0820   39.2660 H   0  0  0  0  0  0  0  0  0  0  0  0
   34.4460   29.5260   40.7290 H   0  0  0  0  0  0  0  0  0  0  0  0
   37.5640   26.7480   40.8610 C   0  0  0  0  0  0  0  0  0  0  0  0
   37.3060   26.0840   39.7200 C   0  0  0  0  0  0  0  0  0  0  0  0
   36.1220   27.2280   38.8730 S   0  0  0  0  0  0  0  0  0  0  0  0
   36.2040   28.4380   40.2760 C   0  0  0  0  0  0  0  0  0  0  0  0
   36.9350   27.8700   40.9450 N   0  0  0  0  0  0  0  0  0  0  0  0
   37.6760   25.1270   39.3610 H   0  0  0  0  0  0  0  0  0  0  0  0
   39.9310   26.5250   43.7890 C   0  0  0  0  0  0  0  0  0  0  0  0
   39.0790   27.0880   42.8240 C   0  0  0  0  0  0  0  0  0  0  0  0
   38.4800   26.2450   41.9190 C   0  0  0  0  0  0  0  0  0  0  0  0
   38.7620   24.8980   42.0280 N   0  0  0  0  0  0  0  0  0  0  0  0
   39.5900   24.4210   42.9810 C   0  0  0  0  0  0  0  0  0  0  0  0
   40.1760   25.2240   43.8590 N   0  0  0  0  0  0  0  0  0  0  0  0
   40.4100   27.1990   44.5130 H   0  0  0  0  0  0  0  0  0  0  0  0
   39.7950   23.3590   43.0430 H   0  0  0  0  0  0  0  0  0  0  0  0
   38.8980   28.4910   42.8500 N   0  0  0  0  0  0  0  0  0  0  0  0
   39.5350   29.3130   42.7520 H   0  0  0  0  0  0  0  0  0  0  0  0
   37.9630   28.9160   42.9930 H   0  0  0  0  0  0  0  0  0  0  0  0
  1  3  1  0  0  0  0
  1  2  1  0  0  0  0
  4  9  1  0  0  0  0
  4  1  1  0  0  0  0
  5  4  2  0  0  0  0
  6  5  1  0  0  0  0
  6  7  2  0  0  0  0
  7  8  1  0  0  0  0
  8  9  2  0  0  0  0
  8 20  1  0  0  0  0
 10  5  1  0  0  0  0
 11  6  1  0  0  0  0
 12 13  1  0  0  0  0
 12  7  1  0  0  0  0
 13 14  1  0  0  0  0
 15 13  2  0  0  0  0
 16 15  1  0  0  0  0
 17 19  1  0  0  0  0
 17 15  1  0  0  0  0
 18 17  1  0  0  0  0
 19 12  2  0  0  0  0
 20 22  1  0  0  0  0
 20 21  1  0  0  0  0
 23 20  1  0  0  0  0
 24 26  1  0  0  0  0
 24  1  1  0  0  0  0
 25 24  1  0  0  0  0
 27 31  1  0  0  0  0
 27 35  1  0  0  0  0
 28 27  2  0  0  0  0
 29 28  1  0  0  0  0
 29 30  1  0  0  0  0
 30 24  1  0  0  0  0
 30 31  2  0  0  0  0
 32 28  1  0  0  0  0
 33 38  1  0  0  0  0
 33 39  1  0  0  0  0
 34 41  1  0  0  0  0
 34 33  2  0  0  0  0
 35 36  2  0  0  0  0
 35 34  1  0  0  0  0
 36 37  1  0  0  0  0
 37 40  1  0  0  0  0
 37 38  2  0  0  0  0
 41 43  1  0  0  0  0
 42 41  1  0  0  0  0
M  END
>  <minimizedAffinity>
-6.13940954

$$$$

 OpenBabel03242522193D

 43 46  0  0  0  0  0  0  0  0999 V2000
   37.7660   28.3640   43.5570 C   0  0  0  0  0  0  0  0  0  0  0  0
   37.4430   28.6980   44.5640 H   0  0  0  0  0  0  0  0  0  0  0  0
   36.8460   27.9250   43.0910 H   0  0  0  0  0  0  0  0  0  0  0  0
   38.2340   29.4740   42.7640 C   0  0  0  0  0  0  0  0  0  0  0  0
   39.3520   30.2310   42.8990 C   0  0  0  0  0  0  0  0  0  0  0  0
   39.7140   31.2990   42.0940 C   0  0  0  0  0  0  0  0  0  0  0  0
   38.8360   31.6130   41.0550 C   0  0  0  0  0  0  0  0  0  0  0  0
   37.7200   30.8270   40.9460 C   0  0  0  0  0  0  0  0  0  0  0  0
   37.3990   29.8100   41.7320 N   0  0  0  0  0  0  0  0  0  0  0  0
   39.9270   29.8450   43.7670 H   0  0  0  0  0  0  0  0  0  0  0  0
   40.6350   31.7050   42.4260 H   0  0  0  0  0  0  0  0  0  0  0  0
   39.4500   32.7320   40.3760 C   0  0  0  0  0  0  0  0  0  0  0  0
   39.6000   34.0650   40.6640 C   0  0  0  0  0  0  0  0  0  0  0  0
   39.2600   34.6620   41.4980 H   0  0  0  0  0  0  0  0  0  0  0  0
   40.3450   34.7370   39.7500 C   0  0  0  0  0  0  0  0  0  0  0  0
   40.6710   35.7570   39.6360 H   0  0  0  0  0  0  0  0  0  0  0  0
   40.6750   33.7910   38.8590 N   0  0  0  0  0  0  0  0  0  0  0  0
   41.2470   33.8060   37.9630 H   0  0  0  0  0  0  0  0  0  0  0  0
   40.1630   32.6370   39.2150 N   0  0  0  0  0  0  0  0  0  0  0  0
   36.8690   31.2130   39.7780 C   0  0  0  0  0  0  0  0  0  0  0  0
   37.3900   30.7520   38.5950 F   0  0  0  0  0  0  0  0  0  0  0  0
   36.5740   32.5490   39.7540 F   0  0  0  0  0  0  0  0  0  0  0  0
   35.6140   30.5600   39.8730 F   0  0  0  0  0  0  0  0  0  0  0  0
   38.7330   27.2240   43.7670 C   0  0  0  0  0  0  0  0  0  0  0  0
   38.4200   26.7430   44.7230 H   0  0  0  0  0  0  0  0  0  0  0  0
   39.7910   27.5420   43.7820 H   0  0  0  0  0  0  0  0  0  0  0  0
   37.8220   25.0630   40.9220 C   0  0  0  0  0  0  0  0  0  0  0  0
   38.6640   24.0380   41.1450 C   0  0  0  0  0  0  0  0  0  0  0  0
   39.5460   24.5950   42.6740 S   0  0  0  0  0  0  0  0  0  0  0  0
   38.5700   26.1710   42.7270 C   0  0  0  0  0  0  0  0  0  0  0  0
   37.9270   26.0010   41.8000 N   0  0  0  0  0  0  0  0  0  0  0  0
   38.8130   23.1140   40.5920 H   0  0  0  0  0  0  0  0  0  0  0  0
   35.6680   26.2400   38.0580 C   0  0  0  0  0  0  0  0  0  0  0  0
   36.5840   26.2860   39.1230 C   0  0  0  0  0  0  0  0  0  0  0  0
   36.8680   25.1140   39.7830 C   0  0  0  0  0  0  0  0  0  0  0  0
   36.2260   23.9720   39.3460 N   0  0  0  0  0  0  0  0  0  0  0  0
   35.3560   23.9970   38.3150 C   0  0  0  0  0  0  0  0  0  0  0  0
   35.0730   25.1220   37.6700 N   0  0  0  0  0  0  0  0  0  0  0  0
   35.4420   27.1770   37.5300 H   0  0  0  0  0  0  0  0  0  0  0  0
   34.8650   23.0860   37.9930 H   0  0  0  0  0  0  0  0  0  0  0  0
   37.1530   27.5410   39.4440 N   0  0  0  0  0  0  0  0  0  0  0  0
   36.7670   28.4620   39.7500 H   0  0  0  0  0  0  0  0  0  0  0  0
   38.1760   27.7020   39.3990 H   0  0  0  0  0  0  0  0  0  0  0  0
  1 24  1  0  0  0  0
  1  2  1  0  0  0  0
  3  1  1  0  0  0  0
  4  5  1  0  0  0  0
  4  1  1  0  0  0  0
  5 10  1  0  0  0  0
  6 11  1  0  0  0  0
  6  5  2  0  0  0  0
  7  6  1  0  0  0  0
  8  7  2  0  0  0  0
  8  9  1  0  0  0  0
  9  4  2  0  0  0  0
 12 13  1  0  0  0  0
 12  7  1  0  0  0  0
 13 14  1  0  0  0  0
 15 13  2  0  0  0  0
 16 15  1  0  0  0  0
 17 19  1  0  0  0  0
 17 15  1  0  0  0  0
 18 17  1  0  0  0  0
 19 12  2  0  0  0  0
 20 23  1  0  0  0  0
 20  8  1  0  0  0  0
 21 20  1  0  0  0  0
 22 20  1  0  0  0  0
 24 26  1  0  0  0  0
 24 25  1  0  0  0  0
 27 28  2  0  0  0  0
 27 31  1  0  0  0  0
 28 29  1  0  0  0  0
 29 30  1  0  0  0  0
 30 24  1  0  0  0  0
 31 30  2  0  0  0  0
 32 28  1  0  0  0  0
 33 34  1  0  0  0  0
 34 41  1  0  0  0  0
 34 35  2  0  0  0  0
 35 27  1  0  0  0  0
 36 35  1  0  0  0  0
 37 36  2  0  0  0  0
 38 33  2  0  0  0  0
 38 37  1  0  0  0  0
 39 33  1  0  0  0  0
 40 37  1  0  0  0  0
 41 42  1  0  0  0  0
 43 41  1  0  0  0  0
M  END
>  <minimizedAffinity>
-6.10997677

$$$$
