
 OpenBabel03252509203D

 24 26  0  0  0  0  0  0  0  0999 V2000
   45.1180   34.0450   45.5720 C   0  0  0  0  0  0  0  0  0  0  0  0
   45.6100   33.8190   44.2750 C   0  0  0  0  0  0  0  0  0  0  0  0
   46.7170   32.9960   44.2150 C   0  0  0  0  0  0  0  0  0  0  0  0
   47.2490   32.4730   45.3810 N   0  0  0  0  0  0  0  0  0  0  0  0
   46.7390   32.7220   46.5880 C   0  0  0  0  0  0  0  0  0  0  0  0
   45.6640   33.5160   46.6640 N   0  0  0  0  0  0  0  0  0  0  0  0
   44.2500   34.6650   45.8060 H   0  0  0  0  0  0  0  0  0  0  0  0
   47.3230   32.2050   47.3310 H   0  0  0  0  0  0  0  0  0  0  0  0
   47.2520   32.5720   42.8650 C   0  0  0  0  0  0  0  0  0  0  0  0
   48.4280   33.4710   42.4620 C   0  0  0  0  0  0  0  0  0  0  0  0
   48.5670   31.9600   42.8250 C   0  0  0  0  0  0  0  0  0  0  0  0
   46.5180   32.6220   42.0550 H   0  0  0  0  0  0  0  0  0  0  0  0
   48.8730   34.1440   43.2180 H   0  0  0  0  0  0  0  0  0  0  0  0
   48.6030   33.7170   41.4150 H   0  0  0  0  0  0  0  0  0  0  0  0
   48.7830   31.3010   41.9430 H   0  0  0  0  0  0  0  0  0  0  0  0
   49.1280   31.7060   43.7310 H   0  0  0  0  0  0  0  0  0  0  0  0
   44.9160   34.4680   43.1840 C   0  0  0  0  0  0  0  0  0  0  0  0
   44.8020   35.7310   42.6870 C   0  0  0  0  0  0  0  0  0  0  0  0
   45.2790   36.6000   43.0470 H   0  0  0  0  0  0  0  0  0  0  0  0
   43.9260   35.7850   41.6300 C   0  0  0  0  0  0  0  0  0  0  0  0
   43.6430   36.6440   41.0470 H   0  0  0  0  0  0  0  0  0  0  0  0
   43.5080   34.5320   41.4920 N   0  0  0  0  0  0  0  0  0  0  0  0
   42.8220   34.1360   40.7890 H   0  0  0  0  0  0  0  0  0  0  0  0
   44.0820   33.7740   42.3900 N   0  0  0  0  0  0  0  0  0  0  0  0
  1  7  1  0  0  0  0
  1  6  1  0  0  0  0
  2  1  2  0  0  0  0
  3  2  1  0  0  0  0
  3  4  2  0  0  0  0
  4  5  1  0  0  0  0
  5  6  2  0  0  0  0
  5  8  1  0  0  0  0
  9  3  1  0  0  0  0
 10 11  1  0  0  0  0
 10  9  1  0  0  0  0
 10 13  1  0  0  0  0
 11  9  1  0  0  0  0
 11 16  1  0  0  0  0
 12  9  1  0  0  0  0
 14 10  1  0  0  0  0
 15 11  1  0  0  0  0
 17  2  1  0  0  0  0
 18 19  1  0  0  0  0
 18 17  1  0  0  0  0
 20 18  2  0  0  0  0
 21 20  1  0  0  0  0
 22 20  1  0  0  0  0
 22 24  1  0  0  0  0
 23 22  1  0  0  0  0
 24 17  2  0  0  0  0
M  END
>  <minimizedAffinity>
-3.37780094

>  <minimizedRMSD>
2.59045386

$$$$
