
 OpenBabel03252507273D

 26 28  0  0  0  0  0  0  0  0999 V2000
   37.3430   30.6020   40.9420 C   0  0  0  0  0  0  0  0  0  0  0  0
   36.0210   30.4100   40.5310 C   0  0  0  0  0  0  0  0  0  0  0  0
   35.4780   29.1360   40.6950 C   0  0  0  0  0  0  0  0  0  0  0  0
   36.2420   28.1350   41.2430 N   0  0  0  0  0  0  0  0  0  0  0  0
   37.5180   28.3860   41.6220 C   0  0  0  0  0  0  0  0  0  0  0  0
   38.0590   29.5870   41.4770 N   0  0  0  0  0  0  0  0  0  0  0  0
   35.4830   31.2450   40.1080 H   0  0  0  0  0  0  0  0  0  0  0  0
   34.4570   28.9610   40.3840 H   0  0  0  0  0  0  0  0  0  0  0  0
   38.2990   27.2960   42.2020 C   0  0  0  0  0  0  0  0  0  0  0  0
   39.3260   27.5630   43.0850 C   0  0  0  0  0  0  0  0  0  0  0  0
   40.1160   26.5930   43.6800 C   0  0  0  0  0  0  0  0  0  0  0  0
   39.7980   25.2900   43.3160 C   0  0  0  0  0  0  0  0  0  0  0  0
   38.7700   25.0060   42.4300 C   0  0  0  0  0  0  0  0  0  0  0  0
   38.0280   26.0140   41.8790 N   0  0  0  0  0  0  0  0  0  0  0  0
   39.5020   28.6210   43.3120 H   0  0  0  0  0  0  0  0  0  0  0  0
   40.9130   26.8430   44.3700 H   0  0  0  0  0  0  0  0  0  0  0  0
   40.3850   24.4940   43.7520 H   0  0  0  0  0  0  0  0  0  0  0  0
   38.5860   23.9610   42.1980 H   0  0  0  0  0  0  0  0  0  0  0  0
   38.0370   31.8830   40.8280 C   0  0  0  0  0  0  0  0  0  0  0  0
   37.5760   32.9310   40.0550 C   0  0  0  0  0  0  0  0  0  0  0  0
   36.6820   32.9810   39.4430 H   0  0  0  0  0  0  0  0  0  0  0  0
   38.4600   34.0120   40.1560 C   0  0  0  0  0  0  0  0  0  0  0  0
   38.4700   34.9970   39.7220 H   0  0  0  0  0  0  0  0  0  0  0  0
   39.4110   33.5220   41.0020 N   0  0  0  0  0  0  0  0  0  0  0  0
   40.2740   34.0150   41.3520 H   0  0  0  0  0  0  0  0  0  0  0  0
   39.1900   32.2980   41.4040 N   0  0  0  0  0  0  0  0  0  0  0  0
  1  6  1  0  0  0  0
  2  3  1  0  0  0  0
  2  1  2  0  0  0  0
  3  4  2  0  0  0  0
  4  5  1  0  0  0  0
  5  9  1  0  0  0  0
  6  5  2  0  0  0  0
  7  2  1  0  0  0  0
  8  3  1  0  0  0  0
  9 10  1  0  0  0  0
 10 15  1  0  0  0  0
 10 11  2  0  0  0  0
 11 16  1  0  0  0  0
 12 11  1  0  0  0  0
 12 17  1  0  0  0  0
 13 12  2  0  0  0  0
 14  9  2  0  0  0  0
 14 13  1  0  0  0  0
 18 13  1  0  0  0  0
 19  1  1  0  0  0  0
 19 26  2  0  0  0  0
 20 22  2  0  0  0  0
 20 19  1  0  0  0  0
 21 20  1  0  0  0  0
 22 24  1  0  0  0  0
 23 22  1  0  0  0  0
 24 25  1  0  0  0  0
 24 26  1  0  0  0  0
M  END
>  <minimizedAffinity>
-5.21613455

$$$$

 OpenBabel03252507273D

 26 28  0  0  0  0  0  0  0  0999 V2000
   38.1980   30.9610   39.7120 C   0  0  0  0  0  0  0  0  0  0  0  0
   36.9240   31.4340   40.0390 C   0  0  0  0  0  0  0  0  0  0  0  0
   36.2550   30.8020   41.0870 C   0  0  0  0  0  0  0  0  0  0  0  0
   36.8570   29.7600   41.7490 N   0  0  0  0  0  0  0  0  0  0  0  0
   38.0940   29.3480   41.3840 C   0  0  0  0  0  0  0  0  0  0  0  0
   38.7510   29.9300   40.3910 N   0  0  0  0  0  0  0  0  0  0  0  0
   36.5150   32.2580   39.4730 H   0  0  0  0  0  0  0  0  0  0  0  0
   35.2680   31.1490   41.3600 H   0  0  0  0  0  0  0  0  0  0  0  0
   38.7020   28.2370   42.1120 C   0  0  0  0  0  0  0  0  0  0  0  0
   39.8570   28.4260   42.8430 C   0  0  0  0  0  0  0  0  0  0  0  0
   40.4990   27.4310   43.5600 C   0  0  0  0  0  0  0  0  0  0  0  0
   39.8840   26.1860   43.4930 C   0  0  0  0  0  0  0  0  0  0  0  0
   38.7230   25.9800   42.7630 C   0  0  0  0  0  0  0  0  0  0  0  0
   38.1410   27.0090   42.0770 N   0  0  0  0  0  0  0  0  0  0  0  0
   40.2680   29.4430   42.8360 H   0  0  0  0  0  0  0  0  0  0  0  0
   41.4050   27.6200   44.1220 H   0  0  0  0  0  0  0  0  0  0  0  0
   40.3450   25.3730   44.0360 H   0  0  0  0  0  0  0  0  0  0  0  0
   38.3060   24.9770   42.7620 H   0  0  0  0  0  0  0  0  0  0  0  0
   39.0090   31.5280   38.6370 C   0  0  0  0  0  0  0  0  0  0  0  0
   40.3210   31.9250   38.8040 C   0  0  0  0  0  0  0  0  0  0  0  0
   40.9330   31.8870   39.6990 H   0  0  0  0  0  0  0  0  0  0  0  0
   40.8180   32.4230   37.5930 C   0  0  0  0  0  0  0  0  0  0  0  0
   41.7720   32.8250   37.2990 H   0  0  0  0  0  0  0  0  0  0  0  0
   39.7410   32.2850   36.7670 N   0  0  0  0  0  0  0  0  0  0  0  0
   39.6770   32.5420   35.7480 H   0  0  0  0  0  0  0  0  0  0  0  0
   38.6870   31.7720   37.3450 N   0  0  0  0  0  0  0  0  0  0  0  0
  1  2  2  0  0  0  0
  1  6  1  0  0  0  0
  2  3  1  0  0  0  0
  3  8  1  0  0  0  0
  3  4  2  0  0  0  0
  5  4  1  0  0  0  0
  5  9  1  0  0  0  0
  6  5  2  0  0  0  0
  7  2  1  0  0  0  0
  9 10  1  0  0  0  0
 10 11  2  0  0  0  0
 11 16  1  0  0  0  0
 12 11  1  0  0  0  0
 12 17  1  0  0  0  0
 13 12  2  0  0  0  0
 14  9  2  0  0  0  0
 14 13  1  0  0  0  0
 15 10  1  0  0  0  0
 18 13  1  0  0  0  0
 19 20  1  0  0  0  0
 19  1  1  0  0  0  0
 20 21  1  0  0  0  0
 22 20  2  0  0  0  0
 23 22  1  0  0  0  0
 24 26  1  0  0  0  0
 24 22  1  0  0  0  0
 25 24  1  0  0  0  0
 26 19  2  0  0  0  0
M  END
>  <minimizedAffinity>
-5.10795641

$$$$

 OpenBabel03252507273D

 26 28  0  0  0  0  0  0  0  0999 V2000
   37.6990   29.3640   41.8140 C   0  0  0  0  0  0  0  0  0  0  0  0
   38.2340   29.1280   43.0830 C   0  0  0  0  0  0  0  0  0  0  0  0
   38.3050   27.8040   43.5130 C   0  0  0  0  0  0  0  0  0  0  0  0
   37.8560   26.7970   42.6930 N   0  0  0  0  0  0  0  0  0  0  0  0
   37.3470   27.0910   41.4730 C   0  0  0  0  0  0  0  0  0  0  0  0
   37.2680   28.3420   41.0410 N   0  0  0  0  0  0  0  0  0  0  0  0
   38.5670   29.9710   43.6710 H   0  0  0  0  0  0  0  0  0  0  0  0
   38.7150   27.5940   44.4910 H   0  0  0  0  0  0  0  0  0  0  0  0
   36.8800   25.9940   40.6300 C   0  0  0  0  0  0  0  0  0  0  0  0
   36.8830   24.6970   41.1020 C   0  0  0  0  0  0  0  0  0  0  0  0
   36.4600   23.5990   40.3710 C   0  0  0  0  0  0  0  0  0  0  0  0
   36.0190   23.8990   39.0880 C   0  0  0  0  0  0  0  0  0  0  0  0
   36.0090   25.1960   38.5990 C   0  0  0  0  0  0  0  0  0  0  0  0
   36.4420   26.2350   39.3760 N   0  0  0  0  0  0  0  0  0  0  0  0
   37.2490   24.5600   42.1270 H   0  0  0  0  0  0  0  0  0  0  0  0
   36.4770   22.5960   40.7790 H   0  0  0  0  0  0  0  0  0  0  0  0
   35.6770   23.0760   38.4750 H   0  0  0  0  0  0  0  0  0  0  0  0
   35.6490   25.3440   37.5850 H   0  0  0  0  0  0  0  0  0  0  0  0
   37.5640   30.7010   41.2400 C   0  0  0  0  0  0  0  0  0  0  0  0
   38.6360   31.5440   41.0170 C   0  0  0  0  0  0  0  0  0  0  0  0
   39.6880   31.3710   41.2170 H   0  0  0  0  0  0  0  0  0  0  0  0
   38.1800   32.7450   40.4610 C   0  0  0  0  0  0  0  0  0  0  0  0
   38.6780   33.6450   40.1450 H   0  0  0  0  0  0  0  0  0  0  0  0
   36.8350   32.5300   40.3870 N   0  0  0  0  0  0  0  0  0  0  0  0
   36.0990   33.1900   40.0230 H   0  0  0  0  0  0  0  0  0  0  0  0
   36.4550   31.3600   40.8300 N   0  0  0  0  0  0  0  0  0  0  0  0
  1  2  1  0  0  0  0
  2  3  2  0  0  0  0
  2  7  1  0  0  0  0
  3  8  1  0  0  0  0
  4  3  1  0  0  0  0
  5  4  2  0  0  0  0
  6  5  1  0  0  0  0
  6  1  2  0  0  0  0
  9 10  1  0  0  0  0
  9  5  1  0  0  0  0
 10 15  1  0  0  0  0
 11 16  1  0  0  0  0
 11 10  2  0  0  0  0
 12 11  1  0  0  0  0
 13 12  2  0  0  0  0
 13 14  1  0  0  0  0
 14  9  2  0  0  0  0
 17 12  1  0  0  0  0
 18 13  1  0  0  0  0
 19  1  1  0  0  0  0
 20 21  1  0  0  0  0
 20 19  1  0  0  0  0
 22 20  2  0  0  0  0
 23 22  1  0  0  0  0
 24 22  1  0  0  0  0
 24 26  1  0  0  0  0
 25 24  1  0  0  0  0
 26 19  2  0  0  0  0
M  END
>  <minimizedAffinity>
-5.08821106

$$$$

 OpenBabel03252507273D

 26 28  0  0  0  0  0  0  0  0999 V2000
   37.5920   26.7880   42.1220 C   0  0  0  0  0  0  0  0  0  0  0  0
   37.5480   27.2330   43.4460 C   0  0  0  0  0  0  0  0  0  0  0  0
   37.4930   28.6100   43.6570 C   0  0  0  0  0  0  0  0  0  0  0  0
   37.4850   29.4650   42.5820 N   0  0  0  0  0  0  0  0  0  0  0  0
   37.5300   28.9700   41.3220 C   0  0  0  0  0  0  0  0  0  0  0  0
   37.5830   27.6660   41.0930 N   0  0  0  0  0  0  0  0  0  0  0  0
   37.5580   26.5020   44.2400 H   0  0  0  0  0  0  0  0  0  0  0  0
   37.4580   28.9820   44.6720 H   0  0  0  0  0  0  0  0  0  0  0  0
   37.5190   29.9100   40.2030 C   0  0  0  0  0  0  0  0  0  0  0  0
   37.1120   31.2160   40.3890 C   0  0  0  0  0  0  0  0  0  0  0  0
   37.0690   32.1700   39.3870 C   0  0  0  0  0  0  0  0  0  0  0  0
   37.4760   31.7120   38.1400 C   0  0  0  0  0  0  0  0  0  0  0  0
   37.8880   30.4040   37.9370 C   0  0  0  0  0  0  0  0  0  0  0  0
   37.9050   29.5110   38.9730 N   0  0  0  0  0  0  0  0  0  0  0  0
   36.8090   31.4840   41.4090 H   0  0  0  0  0  0  0  0  0  0  0  0
   36.7440   33.1860   39.5740 H   0  0  0  0  0  0  0  0  0  0  0  0
   37.4620   32.4190   37.3210 H   0  0  0  0  0  0  0  0  0  0  0  0
   38.1900   30.1260   36.9310 H   0  0  0  0  0  0  0  0  0  0  0  0
   37.6530   25.3750   41.7560 C   0  0  0  0  0  0  0  0  0  0  0  0
   36.8190   24.7950   40.8200 C   0  0  0  0  0  0  0  0  0  0  0  0
   36.0310   25.2570   40.2350 H   0  0  0  0  0  0  0  0  0  0  0  0
   37.1270   23.4350   40.6960 C   0  0  0  0  0  0  0  0  0  0  0  0
   36.7230   22.6420   40.0900 H   0  0  0  0  0  0  0  0  0  0  0  0
   38.1480   23.2930   41.5890 N   0  0  0  0  0  0  0  0  0  0  0  0
   38.6830   22.4150   41.8180 H   0  0  0  0  0  0  0  0  0  0  0  0
   38.4700   24.3960   42.2130 N   0  0  0  0  0  0  0  0  0  0  0  0
  1  2  1  0  0  0  0
  2  3  2  0  0  0  0
  2  7  1  0  0  0  0
  3  8  1  0  0  0  0
  4  3  1  0  0  0  0
  5  4  2  0  0  0  0
  6  5  1  0  0  0  0
  6  1  2  0  0  0  0
  9 10  1  0  0  0  0
  9  5  1  0  0  0  0
 10 15  1  0  0  0  0
 11 16  1  0  0  0  0
 11 10  2  0  0  0  0
 12 11  1  0  0  0  0
 13 12  2  0  0  0  0
 13 14  1  0  0  0  0
 14  9  2  0  0  0  0
 17 12  1  0  0  0  0
 18 13  1  0  0  0  0
 19  1  1  0  0  0  0
 19 26  2  0  0  0  0
 20 19  1  0  0  0  0
 21 20  1  0  0  0  0
 22 20  2  0  0  0  0
 22 24  1  0  0  0  0
 23 22  1  0  0  0  0
 24 25  1  0  0  0  0
 24 26  1  0  0  0  0
M  END
>  <minimizedAffinity>
-4.98831415

$$$$

 OpenBabel03252507273D

 26 28  0  0  0  0  0  0  0  0999 V2000
   36.5310   29.7100   38.6340 C   0  0  0  0  0  0  0  0  0  0  0  0
   36.1750   29.5160   37.2970 C   0  0  0  0  0  0  0  0  0  0  0  0
   35.9710   28.2040   36.8720 C   0  0  0  0  0  0  0  0  0  0  0  0
   36.1250   27.1680   37.7610 N   0  0  0  0  0  0  0  0  0  0  0  0
   36.4730   27.4220   39.0450 C   0  0  0  0  0  0  0  0  0  0  0  0
   36.6720   28.6600   39.4750 N   0  0  0  0  0  0  0  0  0  0  0  0
   36.0730   30.3800   36.6570 H   0  0  0  0  0  0  0  0  0  0  0  0
   35.6940   28.0260   35.8420 H   0  0  0  0  0  0  0  0  0  0  0  0
   36.6260   26.2950   39.9610 C   0  0  0  0  0  0  0  0  0  0  0  0
   37.1050   26.4920   41.2410 C   0  0  0  0  0  0  0  0  0  0  0  0
   37.2820   25.4830   42.1720 C   0  0  0  0  0  0  0  0  0  0  0  0
   36.9350   24.2160   41.7190 C   0  0  0  0  0  0  0  0  0  0  0  0
   36.4530   24.0010   40.4370 C   0  0  0  0  0  0  0  0  0  0  0  0
   36.3020   25.0450   39.5670 N   0  0  0  0  0  0  0  0  0  0  0  0
   37.3520   27.5270   41.5070 H   0  0  0  0  0  0  0  0  0  0  0  0
   37.6610   25.6790   43.1680 H   0  0  0  0  0  0  0  0  0  0  0  0
   37.0550   23.3910   42.4080 H   0  0  0  0  0  0  0  0  0  0  0  0
   36.2050   22.9800   40.1620 H   0  0  0  0  0  0  0  0  0  0  0  0
   36.7760   31.0290   39.2130 C   0  0  0  0  0  0  0  0  0  0  0  0
   37.2780   32.0950   38.4910 C   0  0  0  0  0  0  0  0  0  0  0  0
   37.5580   32.1330   37.4440 H   0  0  0  0  0  0  0  0  0  0  0  0
   37.3970   33.2120   39.3260 C   0  0  0  0  0  0  0  0  0  0  0  0
   37.7390   34.2190   39.1620 H   0  0  0  0  0  0  0  0  0  0  0  0
   36.9460   32.7250   40.5170 N   0  0  0  0  0  0  0  0  0  0  0  0
   36.8650   33.2410   41.4320 H   0  0  0  0  0  0  0  0  0  0  0  0
   36.5820   31.4700   40.4780 N   0  0  0  0  0  0  0  0  0  0  0  0
  1 19  1  0  0  0  0
  1  6  1  0  0  0  0
  2  1  2  0  0  0  0
  3  2  1  0  0  0  0
  3  4  2  0  0  0  0
  4  5  1  0  0  0  0
  5  6  2  0  0  0  0
  5  9  1  0  0  0  0
  7  2  1  0  0  0  0
  8  3  1  0  0  0  0
  9 10  1  0  0  0  0
 10 15  1  0  0  0  0
 10 11  2  0  0  0  0
 11 16  1  0  0  0  0
 12 11  1  0  0  0  0
 12 17  1  0  0  0  0
 13 12  2  0  0  0  0
 14  9  2  0  0  0  0
 14 13  1  0  0  0  0
 18 13  1  0  0  0  0
 19 26  2  0  0  0  0
 20 19  1  0  0  0  0
 20 22  2  0  0  0  0
 21 20  1  0  0  0  0
 22 24  1  0  0  0  0
 23 22  1  0  0  0  0
 24 25  1  0  0  0  0
 26 24  1  0  0  0  0
M  END
>  <minimizedAffinity>
-4.95270157

$$$$

 OpenBabel03252507273D

 26 28  0  0  0  0  0  0  0  0999 V2000
   37.5220   28.3000   41.7640 C   0  0  0  0  0  0  0  0  0  0  0  0
   36.1900   28.0620   41.4150 C   0  0  0  0  0  0  0  0  0  0  0  0
   35.4980   29.0970   40.7860 C   0  0  0  0  0  0  0  0  0  0  0  0
   36.1330   30.2890   40.5370 N   0  0  0  0  0  0  0  0  0  0  0  0
   37.4270   30.4570   40.9010 C   0  0  0  0  0  0  0  0  0  0  0  0
   38.1070   29.4900   41.5000 N   0  0  0  0  0  0  0  0  0  0  0  0
   35.7580   27.0990   41.6430 H   0  0  0  0  0  0  0  0  0  0  0  0
   34.4650   28.9380   40.5050 H   0  0  0  0  0  0  0  0  0  0  0  0
   38.0690   31.7380   40.6190 C   0  0  0  0  0  0  0  0  0  0  0  0
   37.3540   32.7670   40.0380 C   0  0  0  0  0  0  0  0  0  0  0  0
   37.8830   34.0110   39.7360 C   0  0  0  0  0  0  0  0  0  0  0  0
   39.2250   34.1600   40.0650 C   0  0  0  0  0  0  0  0  0  0  0  0
   39.9560   33.1370   40.6490 C   0  0  0  0  0  0  0  0  0  0  0  0
   39.3700   31.9320   40.9210 N   0  0  0  0  0  0  0  0  0  0  0  0
   36.3020   32.5550   39.8150 H   0  0  0  0  0  0  0  0  0  0  0  0
   37.2890   34.7930   39.2800 H   0  0  0  0  0  0  0  0  0  0  0  0
   39.6870   35.1140   39.8500 H   0  0  0  0  0  0  0  0  0  0  0  0
   40.9990   33.3360   40.8750 H   0  0  0  0  0  0  0  0  0  0  0  0
   38.3640   27.3070   42.4270 C   0  0  0  0  0  0  0  0  0  0  0  0
   39.4770   27.6320   43.1780 C   0  0  0  0  0  0  0  0  0  0  0  0
   39.8880   28.6130   43.3900 H   0  0  0  0  0  0  0  0  0  0  0  0
   40.0640   26.4640   43.6770 C   0  0  0  0  0  0  0  0  0  0  0  0
   40.9270   26.2800   44.2930 H   0  0  0  0  0  0  0  0  0  0  0  0
   39.2410   25.4980   43.1770 N   0  0  0  0  0  0  0  0  0  0  0  0
   39.3190   24.4560   43.3120 H   0  0  0  0  0  0  0  0  0  0  0  0
   38.2540   25.9570   42.4540 N   0  0  0  0  0  0  0  0  0  0  0  0
  1 19  1  0  0  0  0
  2  7  1  0  0  0  0
  2  1  2  0  0  0  0
  3  2  1  0  0  0  0
  4  3  2  0  0  0  0
  4  5  1  0  0  0  0
  5  6  2  0  0  0  0
  6  1  1  0  0  0  0
  8  3  1  0  0  0  0
  9  5  1  0  0  0  0
  9 14  1  0  0  0  0
 10  9  2  0  0  0  0
 11 10  1  0  0  0  0
 11 12  2  0  0  0  0
 12 13  1  0  0  0  0
 13 18  1  0  0  0  0
 13 14  2  0  0  0  0
 15 10  1  0  0  0  0
 16 11  1  0  0  0  0
 17 12  1  0  0  0  0
 19 26  2  0  0  0  0
 19 20  1  0  0  0  0
 20 21  1  0  0  0  0
 20 22  2  0  0  0  0
 22 23  1  0  0  0  0
 24 25  1  0  0  0  0
 24 22  1  0  0  0  0
 26 24  1  0  0  0  0
M  END
>  <minimizedAffinity>
-4.85135603

$$$$

 OpenBabel03252507273D

 26 28  0  0  0  0  0  0  0  0999 V2000
   37.3670   30.2340   38.1340 C   0  0  0  0  0  0  0  0  0  0  0  0
   37.2030   31.6100   38.3160 C   0  0  0  0  0  0  0  0  0  0  0  0
   37.2720   32.0960   39.6220 C   0  0  0  0  0  0  0  0  0  0  0  0
   37.4910   31.2260   40.6620 N   0  0  0  0  0  0  0  0  0  0  0  0
   37.6410   29.9020   40.4190 C   0  0  0  0  0  0  0  0  0  0  0  0
   37.5810   29.4140   39.1880 N   0  0  0  0  0  0  0  0  0  0  0  0
   37.0340   32.2320   37.4500 H   0  0  0  0  0  0  0  0  0  0  0  0
   37.1490   33.1570   39.7900 H   0  0  0  0  0  0  0  0  0  0  0  0
   37.8750   29.0080   41.5500 C   0  0  0  0  0  0  0  0  0  0  0  0
   36.8190   28.3640   42.1640 C   0  0  0  0  0  0  0  0  0  0  0  0
   36.9490   27.5030   43.2400 C   0  0  0  0  0  0  0  0  0  0  0  0
   38.2560   27.3240   43.6780 C   0  0  0  0  0  0  0  0  0  0  0  0
   39.3270   27.9630   43.0720 C   0  0  0  0  0  0  0  0  0  0  0  0
   39.1270   28.8020   42.0120 N   0  0  0  0  0  0  0  0  0  0  0  0
   35.8250   28.5680   41.7480 H   0  0  0  0  0  0  0  0  0  0  0  0
   36.0950   27.0160   43.6940 H   0  0  0  0  0  0  0  0  0  0  0  0
   38.4130   26.6600   44.5170 H   0  0  0  0  0  0  0  0  0  0  0  0
   40.3160   27.7690   43.4760 H   0  0  0  0  0  0  0  0  0  0  0  0
   37.3180   29.5910   36.8230 C   0  0  0  0  0  0  0  0  0  0  0  0
   36.4700   29.9930   35.8100 C   0  0  0  0  0  0  0  0  0  0  0  0
   35.7460   30.8010   35.8120 H   0  0  0  0  0  0  0  0  0  0  0  0
   36.6630   29.1810   34.6860 C   0  0  0  0  0  0  0  0  0  0  0  0
   36.2140   29.1590   33.7080 H   0  0  0  0  0  0  0  0  0  0  0  0
   37.6360   28.3280   35.1170 N   0  0  0  0  0  0  0  0  0  0  0  0
   38.0850   27.5420   34.5790 H   0  0  0  0  0  0  0  0  0  0  0  0
   38.0300   28.5430   36.3450 N   0  0  0  0  0  0  0  0  0  0  0  0
  1  2  2  0  0  0  0
  1  6  1  0  0  0  0
  2  3  1  0  0  0  0
  3  8  1  0  0  0  0
  3  4  2  0  0  0  0
  5  4  1  0  0  0  0
  5  9  1  0  0  0  0
  6  5  2  0  0  0  0
  7  2  1  0  0  0  0
  9 14  2  0  0  0  0
  9 10  1  0  0  0  0
 10 11  2  0  0  0  0
 11 12  1  0  0  0  0
 11 16  1  0  0  0  0
 12 17  1  0  0  0  0
 13 18  1  0  0  0  0
 13 12  2  0  0  0  0
 14 13  1  0  0  0  0
 15 10  1  0  0  0  0
 19  1  1  0  0  0  0
 20 21  1  0  0  0  0
 20 19  1  0  0  0  0
 22 24  1  0  0  0  0
 22 20  2  0  0  0  0
 23 22  1  0  0  0  0
 24 26  1  0  0  0  0
 25 24  1  0  0  0  0
 26 19  2  0  0  0  0
M  END
>  <minimizedAffinity>
-4.82266569

$$$$

 OpenBabel03252507273D

 26 28  0  0  0  0  0  0  0  0999 V2000
   37.2720   29.8120   40.1480 C   0  0  0  0  0  0  0  0  0  0  0  0
   36.4160   29.5150   39.0840 C   0  0  0  0  0  0  0  0  0  0  0  0
   36.6540   30.1610   37.8720 C   0  0  0  0  0  0  0  0  0  0  0  0
   37.6980   31.0470   37.7650 N   0  0  0  0  0  0  0  0  0  0  0  0
   38.4920   31.2920   38.8340 C   0  0  0  0  0  0  0  0  0  0  0  0
   38.2880   30.6920   39.9980 N   0  0  0  0  0  0  0  0  0  0  0  0
   35.6160   28.8070   39.2440 H   0  0  0  0  0  0  0  0  0  0  0  0
   36.0050   29.9490   37.0320 H   0  0  0  0  0  0  0  0  0  0  0  0
   39.5930   32.2400   38.6820 C   0  0  0  0  0  0  0  0  0  0  0  0
   40.5060   32.0950   37.6560 C   0  0  0  0  0  0  0  0  0  0  0  0
   41.5770   32.9450   37.4390 C   0  0  0  0  0  0  0  0  0  0  0  0
   41.6770   33.9880   38.3520 C   0  0  0  0  0  0  0  0  0  0  0  0
   40.7680   34.1470   39.3870 C   0  0  0  0  0  0  0  0  0  0  0  0
   39.7320   33.2700   39.5440 N   0  0  0  0  0  0  0  0  0  0  0  0
   40.3440   31.2420   36.9870 H   0  0  0  0  0  0  0  0  0  0  0  0
   42.2720   32.7970   36.6220 H   0  0  0  0  0  0  0  0  0  0  0  0
   42.4970   34.6810   38.2270 H   0  0  0  0  0  0  0  0  0  0  0  0
   40.9180   34.9890   40.0570 H   0  0  0  0  0  0  0  0  0  0  0  0
   37.1390   29.2100   41.4730 C   0  0  0  0  0  0  0  0  0  0  0  0
   36.5510   27.9790   41.6940 C   0  0  0  0  0  0  0  0  0  0  0  0
   36.1190   27.2950   40.9710 H   0  0  0  0  0  0  0  0  0  0  0  0
   36.5770   27.6860   43.0620 C   0  0  0  0  0  0  0  0  0  0  0  0
   36.2310   26.8470   43.6410 H   0  0  0  0  0  0  0  0  0  0  0  0
   37.1930   28.7890   43.5770 N   0  0  0  0  0  0  0  0  0  0  0  0
   37.4180   28.9850   44.5870 H   0  0  0  0  0  0  0  0  0  0  0  0
   37.5260   29.6810   42.6820 N   0  0  0  0  0  0  0  0  0  0  0  0
  1 19  1  0  0  0  0
  2  7  1  0  0  0  0
  2  1  2  0  0  0  0
  3  2  1  0  0  0  0
  4  3  2  0  0  0  0
  4  5  1  0  0  0  0
  5  6  2  0  0  0  0
  6  1  1  0  0  0  0
  8  3  1  0  0  0  0
  9  5  1  0  0  0  0
  9 14  1  0  0  0  0
 10  9  2  0  0  0  0
 11 10  1  0  0  0  0
 11 12  2  0  0  0  0
 12 13  1  0  0  0  0
 13 14  2  0  0  0  0
 13 18  1  0  0  0  0
 15 10  1  0  0  0  0
 16 11  1  0  0  0  0
 17 12  1  0  0  0  0
 19 20  1  0  0  0  0
 19 26  2  0  0  0  0
 20 22  2  0  0  0  0
 21 20  1  0  0  0  0
 22 24  1  0  0  0  0
 22 23  1  0  0  0  0
 24 25  1  0  0  0  0
 26 24  1  0  0  0  0
M  END
>  <minimizedAffinity>
-4.69906139

$$$$

 OpenBabel03252507273D

 26 28  0  0  0  0  0  0  0  0999 V2000
   38.2580   31.1790   38.7590 C   0  0  0  0  0  0  0  0  0  0  0  0
   37.3210   30.9820   37.7410 C   0  0  0  0  0  0  0  0  0  0  0  0
   36.3730   29.9770   37.9290 C   0  0  0  0  0  0  0  0  0  0  0  0
   36.3910   29.2300   39.0820 N   0  0  0  0  0  0  0  0  0  0  0  0
   37.3260   29.4710   40.0320 C   0  0  0  0  0  0  0  0  0  0  0  0
   38.2380   30.4200   39.8780 N   0  0  0  0  0  0  0  0  0  0  0  0
   37.3700   31.6080   36.8630 H   0  0  0  0  0  0  0  0  0  0  0  0
   35.6370   29.8030   37.1560 H   0  0  0  0  0  0  0  0  0  0  0  0
   37.3130   28.6570   41.2450 C   0  0  0  0  0  0  0  0  0  0  0  0
   37.5070   29.2400   42.4810 C   0  0  0  0  0  0  0  0  0  0  0  0
   37.5110   28.5450   43.6790 C   0  0  0  0  0  0  0  0  0  0  0  0
   37.3010   27.1770   43.5510 C   0  0  0  0  0  0  0  0  0  0  0  0
   37.1040   26.5770   42.3160 C   0  0  0  0  0  0  0  0  0  0  0  0
   37.1130   27.3240   41.1710 N   0  0  0  0  0  0  0  0  0  0  0  0
   37.6640   30.3250   42.4820 H   0  0  0  0  0  0  0  0  0  0  0  0
   37.6660   29.0390   44.6300 H   0  0  0  0  0  0  0  0  0  0  0  0
   37.2940   26.5870   44.4570 H   0  0  0  0  0  0  0  0  0  0  0  0
   36.9470   25.5030   42.3030 H   0  0  0  0  0  0  0  0  0  0  0  0
   39.3060   32.1950   38.6940 C   0  0  0  0  0  0  0  0  0  0  0  0
   39.4990   33.1530   39.6710 C   0  0  0  0  0  0  0  0  0  0  0  0
   38.9440   33.3050   40.5900 H   0  0  0  0  0  0  0  0  0  0  0  0
   40.5770   33.9740   39.3170 C   0  0  0  0  0  0  0  0  0  0  0  0
   41.0440   34.8190   39.7910 H   0  0  0  0  0  0  0  0  0  0  0  0
   40.9620   33.4360   38.1240 N   0  0  0  0  0  0  0  0  0  0  0  0
   41.7500   33.7540   37.5020 H   0  0  0  0  0  0  0  0  0  0  0  0
   40.2460   32.4110   37.7430 N   0  0  0  0  0  0  0  0  0  0  0  0
  1  6  1  0  0  0  0
  2  3  1  0  0  0  0
  2  1  2  0  0  0  0
  3  4  2  0  0  0  0
  4  5  1  0  0  0  0
  5  9  1  0  0  0  0
  6  5  2  0  0  0  0
  7  2  1  0  0  0  0
  8  3  1  0  0  0  0
  9 10  1  0  0  0  0
 10 15  1  0  0  0  0
 10 11  2  0  0  0  0
 11 16  1  0  0  0  0
 12 11  1  0  0  0  0
 12 17  1  0  0  0  0
 13 12  2  0  0  0  0
 14  9  2  0  0  0  0
 14 13  1  0  0  0  0
 18 13  1  0  0  0  0
 19  1  1  0  0  0  0
 19 20  1  0  0  0  0
 20 21  1  0  0  0  0
 22 20  2  0  0  0  0
 22 23  1  0  0  0  0
 24 22  1  0  0  0  0
 25 24  1  0  0  0  0
 26 24  1  0  0  0  0
 26 19  2  0  0  0  0
M  END
>  <minimizedAffinity>
-4.65747786

$$$$
