
 OpenBabel03252508333D

 31 33  0  0  1  0  0  0  0  0999 V2000
   38.1630   30.3750   41.1510 N   0  0  0  0  0  0  0  0  0  0  0  0
   36.8930   30.9760   40.8820 C   0  0  1  0  0  0  0  0  0  0  0  0
   36.9540   32.3040   40.2200 C   0  0  0  0  0  0  0  0  0  0  0  0
   37.9630   33.1580   40.6800 N   0  0  0  0  0  0  0  0  0  0  0  0
   39.1980   32.5890   41.0140 C   0  0  0  0  0  0  0  0  0  0  0  0
   39.2780   31.1250   40.6620 C   0  0  0  0  0  0  0  0  0  0  0  0
   36.3670   31.0910   41.8560 H   0  0  0  0  0  0  0  0  0  0  0  0
   36.9730   32.1260   39.1060 H   0  0  0  0  0  0  0  0  0  0  0  0
   35.9480   32.7950   40.3660 H   0  0  0  0  0  0  0  0  0  0  0  0
   37.8730   34.1520   40.5290 H   0  0  0  0  0  0  0  0  0  0  0  0
   39.3510   32.6650   42.1300 H   0  0  0  0  0  0  0  0  0  0  0  0
   40.0950   33.0820   40.5820 H   0  0  0  0  0  0  0  0  0  0  0  0
   39.2230   31.0960   39.5360 H   0  0  0  0  0  0  0  0  0  0  0  0
   40.2730   30.7790   40.9130 H   0  0  0  0  0  0  0  0  0  0  0  0
   38.7810   28.0830   41.1690 C   0  0  0  0  0  0  0  0  0  0  0  0
   38.1990   29.1510   41.8380 C   0  0  0  0  0  0  0  0  0  0  0  0
   37.6990   28.9150   43.1160 C   0  0  0  0  0  0  0  0  0  0  0  0
   37.7810   27.6810   43.6780 N   0  0  0  0  0  0  0  0  0  0  0  0
   38.3610   26.6530   42.9890 C   0  0  0  0  0  0  0  0  0  0  0  0
   38.8430   26.8640   41.7680 N   0  0  0  0  0  0  0  0  0  0  0  0
   39.2190   28.0560   40.1940 H   0  0  0  0  0  0  0  0  0  0  0  0
   37.2550   29.7360   43.6300 H   0  0  0  0  0  0  0  0  0  0  0  0
   38.3930   25.6970   43.4940 H   0  0  0  0  0  0  0  0  0  0  0  0
   36.0260   30.1110   40.0330 C   0  0  0  0  0  0  0  0  0  0  0  0
   36.3540   30.1300   38.6840 C   0  0  0  0  0  0  0  0  0  0  0  0
   37.0950   30.6160   38.0660 H   0  0  0  0  0  0  0  0  0  0  0  0
   35.4590   29.2850   38.0310 C   0  0  0  0  0  0  0  0  0  0  0  0
   35.2770   28.9520   37.0180 H   0  0  0  0  0  0  0  0  0  0  0  0
   34.6460   28.8050   38.9910 N   0  0  0  0  0  0  0  0  0  0  0  0
   33.8170   28.1400   39.0260 H   0  0  0  0  0  0  0  0  0  0  0  0
   34.9740   29.2860   40.1670 N   0  0  0  0  0  0  0  0  0  0  0  0
  1 16  1  0  0  0  0
  2  1  1  0  0  0  0
  2  7  1  1  0  0  0
  3  9  1  0  0  0  0
  3  4  1  0  0  0  0
  3  2  1  0  0  0  0
  4  5  1  0  0  0  0
  5 11  1  0  0  0  0
  6 14  1  0  0  0  0
  6  5  1  0  0  0  0
  6  1  1  0  0  0  0
  8  3  1  0  0  0  0
 10  4  1  0  0  0  0
 12  5  1  0  0  0  0
 13  6  1  0  0  0  0
 15 20  2  0  0  0  0
 15 16  1  0  0  0  0
 16 17  2  0  0  0  0
 17 22  1  0  0  0  0
 17 18  1  0  0  0  0
 19 23  1  0  0  0  0
 19 18  2  0  0  0  0
 20 19  1  0  0  0  0
 21 15  1  0  0  0  0
 24 31  2  0  0  0  0
 24  2  1  0  0  0  0
 25 24  1  0  0  0  0
 26 25  1  0  0  0  0
 27 25  2  0  0  0  0
 27 29  1  0  0  0  0
 28 27  1  0  0  0  0
 29 30  1  0  0  0  0
 29 31  1  0  0  0  0
M  END
>  <minimizedAffinity>
-4.62432528

$$$$

 OpenBabel03252508333D

 31 33  0  0  1  0  0  0  0  0999 V2000
   37.4150   30.7700   38.7040 N   0  0  0  0  0  0  0  0  0  0  0  0
   36.2410   30.2420   39.3290 C   0  0  1  0  0  0  0  0  0  0  0  0
   35.5870   29.1280   38.5970 C   0  0  0  0  0  0  0  0  0  0  0  0
   35.5440   29.2670   37.2060 N   0  0  0  0  0  0  0  0  0  0  0  0
   36.6530   29.8400   36.5720 C   0  0  0  0  0  0  0  0  0  0  0  0
   37.8040   30.0750   37.5160 C   0  0  0  0  0  0  0  0  0  0  0  0
   35.5120   31.0780   39.4240 H   0  0  0  0  0  0  0  0  0  0  0  0
   36.0620   28.1670   38.9510 H   0  0  0  0  0  0  0  0  0  0  0  0
   34.5360   29.0370   39.0000 H   0  0  0  0  0  0  0  0  0  0  0  0
   34.8570   28.7460   36.6790 H   0  0  0  0  0  0  0  0  0  0  0  0
   36.3610   30.8490   36.1560 H   0  0  0  0  0  0  0  0  0  0  0  0
   37.0520   29.2880   35.6940 H   0  0  0  0  0  0  0  0  0  0  0  0
   38.1330   29.0450   37.8320 H   0  0  0  0  0  0  0  0  0  0  0  0
   38.6270   30.4790   36.9390 H   0  0  0  0  0  0  0  0  0  0  0  0
   37.3130   33.0400   39.3920 C   0  0  0  0  0  0  0  0  0  0  0  0
   38.0560   31.8710   39.2920 C   0  0  0  0  0  0  0  0  0  0  0  0
   39.3640   31.8970   39.7710 C   0  0  0  0  0  0  0  0  0  0  0  0
   39.8840   33.0290   40.3140 N   0  0  0  0  0  0  0  0  0  0  0  0
   39.1210   34.1610   40.3960 C   0  0  0  0  0  0  0  0  0  0  0  0
   37.8720   34.1500   39.9430 N   0  0  0  0  0  0  0  0  0  0  0  0
   36.3060   33.2250   39.0880 H   0  0  0  0  0  0  0  0  0  0  0  0
   39.9330   30.9990   39.6970 H   0  0  0  0  0  0  0  0  0  0  0  0
   39.5960   35.0260   40.8380 H   0  0  0  0  0  0  0  0  0  0  0  0
   36.5060   29.7530   40.7120 C   0  0  0  0  0  0  0  0  0  0  0  0
   36.2840   28.3940   40.8830 C   0  0  0  0  0  0  0  0  0  0  0  0
   35.9640   27.5690   40.2640 H   0  0  0  0  0  0  0  0  0  0  0  0
   36.5680   28.0970   42.2150 C   0  0  0  0  0  0  0  0  0  0  0  0
   36.5600   27.2210   42.8520 H   0  0  0  0  0  0  0  0  0  0  0  0
   36.9390   29.2620   42.7770 N   0  0  0  0  0  0  0  0  0  0  0  0
   37.2490   29.5780   43.7440 H   0  0  0  0  0  0  0  0  0  0  0  0
   36.9050   30.2380   41.9000 N   0  0  0  0  0  0  0  0  0  0  0  0
  1 16  1  0  0  0  0
  1  2  1  0  0  0  0
  2  7  1  1  0  0  0
  2 24  1  0  0  0  0
  3  8  1  0  0  0  0
  3  9  1  0  0  0  0
  3  2  1  0  0  0  0
  4  3  1  0  0  0  0
  5  4  1  0  0  0  0
  5  6  1  0  0  0  0
  6 13  1  0  0  0  0
  6  1  1  0  0  0  0
 10  4  1  0  0  0  0
 11  5  1  0  0  0  0
 12  5  1  0  0  0  0
 14  6  1  0  0  0  0
 15 20  1  0  0  0  0
 16 15  2  0  0  0  0
 16 17  1  0  0  0  0
 17 18  2  0  0  0  0
 18 19  1  0  0  0  0
 19 23  1  0  0  0  0
 20 19  2  0  0  0  0
 21 15  1  0  0  0  0
 22 17  1  0  0  0  0
 24 25  1  0  0  0  0
 24 31  2  0  0  0  0
 25 27  2  0  0  0  0
 26 25  1  0  0  0  0
 27 29  1  0  0  0  0
 27 28  1  0  0  0  0
 29 30  1  0  0  0  0
 31 29  1  0  0  0  0
M  END
>  <minimizedAffinity>
-4.56871271

$$$$

 OpenBabel03252508333D

 31 33  0  0  1  0  0  0  0  0999 V2000
   37.4770   30.1470   39.2990 N   0  0  0  0  0  0  0  0  0  0  0  0
   38.2970   31.1500   38.6910 C   0  0  1  0  0  0  0  0  0  0  0  0
   37.8710   31.5710   37.3320 C   0  0  0  0  0  0  0  0  0  0  0  0
   37.4250   30.5400   36.4970 N   0  0  0  0  0  0  0  0  0  0  0  0
   36.6740   29.5090   37.0760 C   0  0  0  0  0  0  0  0  0  0  0  0
   36.3360   29.7780   38.5210 C   0  0  0  0  0  0  0  0  0  0  0  0
   39.3300   30.7400   38.6260 H   0  0  0  0  0  0  0  0  0  0  0  0
   37.1340   32.4170   37.4550 H   0  0  0  0  0  0  0  0  0  0  0  0
   38.7520   32.0890   36.8530 H   0  0  0  0  0  0  0  0  0  0  0  0
   37.4310   30.6780   35.4970 H   0  0  0  0  0  0  0  0  0  0  0  0
   37.2780   28.5550   37.0540 H   0  0  0  0  0  0  0  0  0  0  0  0
   35.7280   29.2450   36.5580 H   0  0  0  0  0  0  0  0  0  0  0  0
   35.6530   30.6740   38.4950 H   0  0  0  0  0  0  0  0  0  0  0  0
   35.7240   28.9570   38.8740 H   0  0  0  0  0  0  0  0  0  0  0  0
   39.0290   28.9130   40.6050 C   0  0  0  0  0  0  0  0  0  0  0  0
   37.8480   29.6410   40.5540 C   0  0  0  0  0  0  0  0  0  0  0  0
   37.1370   29.7970   41.7420 C   0  0  0  0  0  0  0  0  0  0  0  0
   37.5900   29.2520   42.9010 N   0  0  0  0  0  0  0  0  0  0  0  0
   38.7580   28.5410   42.9120 C   0  0  0  0  0  0  0  0  0  0  0  0
   39.4470   28.3850   41.7860 N   0  0  0  0  0  0  0  0  0  0  0  0
   39.7120   28.6820   39.8160 H   0  0  0  0  0  0  0  0  0  0  0  0
   36.2320   30.3590   41.7040 H   0  0  0  0  0  0  0  0  0  0  0  0
   39.0610   28.1340   43.8670 H   0  0  0  0  0  0  0  0  0  0  0  0
   38.3840   32.3880   39.5170 C   0  0  0  0  0  0  0  0  0  0  0  0
   39.6660   32.9100   39.6210 C   0  0  0  0  0  0  0  0  0  0  0  0
   40.6470   32.6540   39.2500 H   0  0  0  0  0  0  0  0  0  0  0  0
   39.5820   34.0480   40.4210 C   0  0  0  0  0  0  0  0  0  0  0  0
   40.2590   34.8010   40.8040 H   0  0  0  0  0  0  0  0  0  0  0  0
   38.2830   34.1610   40.7580 N   0  0  0  0  0  0  0  0  0  0  0  0
   37.7020   34.8370   41.3380 H   0  0  0  0  0  0  0  0  0  0  0  0
   37.5760   33.1900   40.2310 N   0  0  0  0  0  0  0  0  0  0  0  0
  1 16  1  0  0  0  0
  2  7  1  6  0  0  0
  2  1  1  0  0  0  0
  2 24  1  0  0  0  0
  3  8  1  0  0  0  0
  3  2  1  0  0  0  0
  4  5  1  0  0  0  0
  4  3  1  0  0  0  0
  5  6  1  0  0  0  0
  6 14  1  0  0  0  0
  6  1  1  0  0  0  0
  9  3  1  0  0  0  0
 10  4  1  0  0  0  0
 11  5  1  0  0  0  0
 12  5  1  0  0  0  0
 13  6  1  0  0  0  0
 15 20  1  0  0  0  0
 16 15  2  0  0  0  0
 16 17  1  0  0  0  0
 17 18  2  0  0  0  0
 18 19  1  0  0  0  0
 19 23  1  0  0  0  0
 20 19  2  0  0  0  0
 21 15  1  0  0  0  0
 22 17  1  0  0  0  0
 24 25  1  0  0  0  0
 24 31  2  0  0  0  0
 25 27  2  0  0  0  0
 26 25  1  0  0  0  0
 27 29  1  0  0  0  0
 27 28  1  0  0  0  0
 29 30  1  0  0  0  0
 31 29  1  0  0  0  0
M  END
>  <minimizedAffinity>
-4.53403425

$$$$

 OpenBabel03252508333D

 31 33  0  0  1  0  0  0  0  0999 V2000
   36.9060   30.4670   38.7990 N   0  0  0  0  0  0  0  0  0  0  0  0
   35.8660   30.0010   39.6650 C   0  0  1  0  0  0  0  0  0  0  0  0
   35.0810   28.8530   39.1440 C   0  0  0  0  0  0  0  0  0  0  0  0
   34.7790   28.9030   37.7790 N   0  0  0  0  0  0  0  0  0  0  0  0
   35.7530   29.4150   36.9120 C   0  0  0  0  0  0  0  0  0  0  0  0
   37.0620   29.6910   37.6080 C   0  0  0  0  0  0  0  0  0  0  0  0
   35.1720   30.8540   39.8380 H   0  0  0  0  0  0  0  0  0  0  0  0
   35.6090   27.9090   39.4660 H   0  0  0  0  0  0  0  0  0  0  0  0
   34.1240   28.8070   39.7410 H   0  0  0  0  0  0  0  0  0  0  0  0
   34.0040   28.3620   37.4250 H   0  0  0  0  0  0  0  0  0  0  0  0
   35.3940   30.4000   36.4920 H   0  0  0  0  0  0  0  0  0  0  0  0
   35.9780   28.8010   36.0150 H   0  0  0  0  0  0  0  0  0  0  0  0
   37.4390   28.6770   37.9250 H   0  0  0  0  0  0  0  0  0  0  0  0
   37.7650   30.0410   36.8620 H   0  0  0  0  0  0  0  0  0  0  0  0
   39.0270   31.4270   39.2590 C   0  0  0  0  0  0  0  0  0  0  0  0
   37.6510   31.5920   39.1820 C   0  0  0  0  0  0  0  0  0  0  0  0
   37.1340   32.8470   39.4980 C   0  0  0  0  0  0  0  0  0  0  0  0
   37.9550   33.8640   39.8680 N   0  0  0  0  0  0  0  0  0  0  0  0
   39.3060   33.6640   39.9330 C   0  0  0  0  0  0  0  0  0  0  0  0
   39.8120   32.4720   39.6330 N   0  0  0  0  0  0  0  0  0  0  0  0
   39.6130   30.5560   39.0600 H   0  0  0  0  0  0  0  0  0  0  0  0
   36.0780   32.9740   39.4370 H   0  0  0  0  0  0  0  0  0  0  0  0
   39.9010   34.5150   40.2340 H   0  0  0  0  0  0  0  0  0  0  0  0
   36.3820   29.5980   41.0040 C   0  0  0  0  0  0  0  0  0  0  0  0
   36.2810   28.2380   41.2630 C   0  0  0  0  0  0  0  0  0  0  0  0
   35.9210   27.3660   40.7380 H   0  0  0  0  0  0  0  0  0  0  0  0
   36.7950   28.0240   42.5410 C   0  0  0  0  0  0  0  0  0  0  0  0
   36.9480   27.1830   43.2040 H   0  0  0  0  0  0  0  0  0  0  0  0
   37.1750   29.2360   42.9880 N   0  0  0  0  0  0  0  0  0  0  0  0
   37.6150   29.6170   43.8780 H   0  0  0  0  0  0  0  0  0  0  0  0
   36.9350   30.1630   42.0900 N   0  0  0  0  0  0  0  0  0  0  0  0
  1 16  1  0  0  0  0
  1  2  1  0  0  0  0
  2  7  1  1  0  0  0
  2 24  1  0  0  0  0
  3  8  1  0  0  0  0
  3  2  1  0  0  0  0
  3  9  1  0  0  0  0
  4  3  1  0  0  0  0
  5  6  1  0  0  0  0
  5  4  1  0  0  0  0
  6 13  1  0  0  0  0
  6  1  1  0  0  0  0
 10  4  1  0  0  0  0
 11  5  1  0  0  0  0
 12  5  1  0  0  0  0
 14  6  1  0  0  0  0
 15 20  1  0  0  0  0
 16 15  2  0  0  0  0
 16 17  1  0  0  0  0
 17 18  2  0  0  0  0
 18 19  1  0  0  0  0
 19 23  1  0  0  0  0
 20 19  2  0  0  0  0
 21 15  1  0  0  0  0
 22 17  1  0  0  0  0
 24 25  1  0  0  0  0
 24 31  2  0  0  0  0
 25 27  2  0  0  0  0
 26 25  1  0  0  0  0
 27 29  1  0  0  0  0
 27 28  1  0  0  0  0
 29 30  1  0  0  0  0
 31 29  1  0  0  0  0
M  END
>  <minimizedAffinity>
-4.47113895

$$$$

 OpenBabel03252508333D

 31 33  0  0  1  0  0  0  0  0999 V2000
   36.5950   29.4290   38.7480 N   0  0  0  0  0  0  0  0  0  0  0  0
   36.6330   30.8580   38.8040 C   0  0  1  0  0  0  0  0  0  0  0  0
   36.6750   31.4320   40.1720 C   0  0  0  0  0  0  0  0  0  0  0  0
   35.8630   30.7930   41.1160 N   0  0  0  0  0  0  0  0  0  0  0  0
   35.7530   29.3990   41.0460 C   0  0  0  0  0  0  0  0  0  0  0  0
   36.6830   28.7940   40.0260 C   0  0  0  0  0  0  0  0  0  0  0  0
   35.7200   31.2350   38.2900 H   0  0  0  0  0  0  0  0  0  0  0  0
   37.7590   31.5100   40.4740 H   0  0  0  0  0  0  0  0  0  0  0  0
   36.3720   32.5170   40.0870 H   0  0  0  0  0  0  0  0  0  0  0  0
   35.5850   31.2950   41.9480 H   0  0  0  0  0  0  0  0  0  0  0  0
   34.7030   29.1260   40.7330 H   0  0  0  0  0  0  0  0  0  0  0  0
   35.9050   28.8500   42.0000 H   0  0  0  0  0  0  0  0  0  0  0  0
   37.7180   28.9980   40.4220 H   0  0  0  0  0  0  0  0  0  0  0  0
   36.5640   27.7180   40.0680 H   0  0  0  0  0  0  0  0  0  0  0  0
   35.3140   29.0420   36.7870 C   0  0  0  0  0  0  0  0  0  0  0  0
   36.4840   28.8050   37.4960 C   0  0  0  0  0  0  0  0  0  0  0  0
   37.4320   27.9680   36.9110 C   0  0  0  0  0  0  0  0  0  0  0  0
   37.2110   27.4100   35.6930 N   0  0  0  0  0  0  0  0  0  0  0  0
   36.0460   27.6660   35.0240 C   0  0  0  0  0  0  0  0  0  0  0  0
   35.1320   28.4630   35.5700 N   0  0  0  0  0  0  0  0  0  0  0  0
   34.4740   29.6450   37.0560 H   0  0  0  0  0  0  0  0  0  0  0  0
   38.3310   27.7880   37.4550 H   0  0  0  0  0  0  0  0  0  0  0  0
   35.9340   27.1900   34.0600 H   0  0  0  0  0  0  0  0  0  0  0  0
   37.7980   31.4230   38.0650 C   0  0  0  0  0  0  0  0  0  0  0  0
   38.9680   31.4790   38.8100 C   0  0  0  0  0  0  0  0  0  0  0  0
   39.2710   31.2130   39.8110 H   0  0  0  0  0  0  0  0  0  0  0  0
   39.9510   32.0290   37.9890 C   0  0  0  0  0  0  0  0  0  0  0  0
   41.0000   32.2840   38.0690 H   0  0  0  0  0  0  0  0  0  0  0  0
   39.3460   32.2760   36.8120 N   0  0  0  0  0  0  0  0  0  0  0  0
   39.6410   32.6810   35.8740 H   0  0  0  0  0  0  0  0  0  0  0  0
   38.0830   31.9220   36.8500 N   0  0  0  0  0  0  0  0  0  0  0  0
  1  2  1  0  0  0  0
  1  6  1  0  0  0  0
  2  7  1  6  0  0  0
  2  3  1  0  0  0  0
  3  8  1  0  0  0  0
  3  4  1  0  0  0  0
  4 10  1  0  0  0  0
  5  4  1  0  0  0  0
  5 12  1  0  0  0  0
  6 14  1  0  0  0  0
  6 13  1  0  0  0  0
  6  5  1  0  0  0  0
  9  3  1  0  0  0  0
 11  5  1  0  0  0  0
 15 21  1  0  0  0  0
 15 16  1  0  0  0  0
 16  1  1  0  0  0  0
 17 22  1  0  0  0  0
 17 16  2  0  0  0  0
 18 17  1  0  0  0  0
 19 20  1  0  0  0  0
 19 18  2  0  0  0  0
 20 15  2  0  0  0  0
 23 19  1  0  0  0  0
 24  2  1  0  0  0  0
 24 25  1  0  0  0  0
 25 26  1  0  0  0  0
 27 28  1  0  0  0  0
 27 25  2  0  0  0  0
 29 31  1  0  0  0  0
 29 27  1  0  0  0  0
 30 29  1  0  0  0  0
 31 24  2  0  0  0  0
M  END
>  <minimizedAffinity>
-4.44493341

$$$$

 OpenBabel03252508333D

 31 33  0  0  1  0  0  0  0  0999 V2000
   38.1260   28.9110   39.4590 N   0  0  0  0  0  0  0  0  0  0  0  0
   38.8280   30.1050   39.0970 C   0  0  1  0  0  0  0  0  0  0  0  0
   39.0580   30.2820   37.6420 C   0  0  0  0  0  0  0  0  0  0  0  0
   39.4040   29.1200   36.9430 N   0  0  0  0  0  0  0  0  0  0  0  0
   38.7820   27.9230   37.3170 C   0  0  0  0  0  0  0  0  0  0  0  0
   37.6950   28.1290   38.3420 C   0  0  0  0  0  0  0  0  0  0  0  0
   39.8150   30.0770   39.6110 H   0  0  0  0  0  0  0  0  0  0  0  0
   38.1620   30.8240   37.2210 H   0  0  0  0  0  0  0  0  0  0  0  0
   39.8780   31.0500   37.5260 H   0  0  0  0  0  0  0  0  0  0  0  0
   39.8820   29.2010   36.0570 H   0  0  0  0  0  0  0  0  0  0  0  0
   39.5480   27.2390   37.7870 H   0  0  0  0  0  0  0  0  0  0  0  0
   38.3480   27.3200   36.4910 H   0  0  0  0  0  0  0  0  0  0  0  0
   36.9050   28.7290   37.8070 H   0  0  0  0  0  0  0  0  0  0  0  0
   37.2430   27.1660   38.5410 H   0  0  0  0  0  0  0  0  0  0  0  0
   39.0510   28.6740   41.6320 C   0  0  0  0  0  0  0  0  0  0  0  0
   37.9260   28.6300   40.8190 C   0  0  0  0  0  0  0  0  0  0  0  0
   36.7120   28.3050   41.4180 C   0  0  0  0  0  0  0  0  0  0  0  0
   36.6410   28.0420   42.7490 N   0  0  0  0  0  0  0  0  0  0  0  0
   37.7700   28.0950   43.5180 C   0  0  0  0  0  0  0  0  0  0  0  0
   38.9360   28.4040   42.9590 N   0  0  0  0  0  0  0  0  0  0  0  0
   40.0630   28.9010   41.3710 H   0  0  0  0  0  0  0  0  0  0  0  0
   35.8480   28.2740   40.7940 H   0  0  0  0  0  0  0  0  0  0  0  0
   37.6430   27.8740   44.5690 H   0  0  0  0  0  0  0  0  0  0  0  0
   38.1360   31.3350   39.5770 C   0  0  0  0  0  0  0  0  0  0  0  0
   38.9890   32.4000   39.8350 C   0  0  0  0  0  0  0  0  0  0  0  0
   40.0520   32.5830   39.7760 H   0  0  0  0  0  0  0  0  0  0  0  0
   38.2000   33.4610   40.2750 C   0  0  0  0  0  0  0  0  0  0  0  0
   38.3520   34.4830   40.5970 H   0  0  0  0  0  0  0  0  0  0  0  0
   36.9340   33.0010   40.2650 N   0  0  0  0  0  0  0  0  0  0  0  0
   35.9770   33.3990   40.5040 H   0  0  0  0  0  0  0  0  0  0  0  0
   36.8910   31.7550   39.8570 N   0  0  0  0  0  0  0  0  0  0  0  0
  1 16  1  0  0  0  0
  2  1  1  0  0  0  0
  2 24  1  0  0  0  0
  2  7  1  1  0  0  0
  3  2  1  0  0  0  0
  4  5  1  0  0  0  0
  4  3  1  0  0  0  0
  5 11  1  0  0  0  0
  5  6  1  0  0  0  0
  6 14  1  0  0  0  0
  6  1  1  0  0  0  0
  8  3  1  0  0  0  0
  9  3  1  0  0  0  0
 10  4  1  0  0  0  0
 12  5  1  0  0  0  0
 13  6  1  0  0  0  0
 15 20  1  0  0  0  0
 16 17  1  0  0  0  0
 16 15  2  0  0  0  0
 17 18  2  0  0  0  0
 18 19  1  0  0  0  0
 19 23  1  0  0  0  0
 20 19  2  0  0  0  0
 21 15  1  0  0  0  0
 22 17  1  0  0  0  0
 24 25  1  0  0  0  0
 24 31  2  0  0  0  0
 25 27  2  0  0  0  0
 26 25  1  0  0  0  0
 27 28  1  0  0  0  0
 29 27  1  0  0  0  0
 29 30  1  0  0  0  0
 31 29  1  0  0  0  0
M  END
>  <minimizedAffinity>
-4.40276194

$$$$

 OpenBabel03252508333D

 31 33  0  0  1  0  0  0  0  0999 V2000
   37.8470   29.0080   41.2760 N   0  0  0  0  0  0  0  0  0  0  0  0
   36.5720   28.3590   41.2440 C   0  0  1  0  0  0  0  0  0  0  0  0
   35.4770   29.1550   40.6360 C   0  0  0  0  0  0  0  0  0  0  0  0
   35.4750   30.5170   40.9580 N   0  0  0  0  0  0  0  0  0  0  0  0
   36.7120   31.1660   41.0600 C   0  0  0  0  0  0  0  0  0  0  0  0
   37.8640   30.2880   40.6400 C   0  0  0  0  0  0  0  0  0  0  0  0
   36.2940   28.1210   42.2960 H   0  0  0  0  0  0  0  0  0  0  0  0
   35.4790   28.9430   39.5280 H   0  0  0  0  0  0  0  0  0  0  0  0
   34.5030   28.6890   40.9660 H   0  0  0  0  0  0  0  0  0  0  0  0
   34.6190   31.0450   40.8650 H   0  0  0  0  0  0  0  0  0  0  0  0
   36.8930   31.4490   42.1380 H   0  0  0  0  0  0  0  0  0  0  0  0
   36.8070   32.1240   40.5070 H   0  0  0  0  0  0  0  0  0  0  0  0
   37.7040   30.1100   39.5390 H   0  0  0  0  0  0  0  0  0  0  0  0
   38.7700   30.8780   40.7100 H   0  0  0  0  0  0  0  0  0  0  0  0
   40.0870   28.2310   41.1500 C   0  0  0  0  0  0  0  0  0  0  0  0
   38.9220   28.3540   41.8970 C   0  0  0  0  0  0  0  0  0  0  0  0
   38.9210   27.8140   43.1800 C   0  0  0  0  0  0  0  0  0  0  0  0
   40.0230   27.1910   43.6750 N   0  0  0  0  0  0  0  0  0  0  0  0
   41.1520   27.0890   42.9100 C   0  0  0  0  0  0  0  0  0  0  0  0
   41.1670   27.6010   41.6830 N   0  0  0  0  0  0  0  0  0  0  0  0
   40.2900   28.5730   40.1580 H   0  0  0  0  0  0  0  0  0  0  0  0
   38.0280   27.9100   43.7540 H   0  0  0  0  0  0  0  0  0  0  0  0
   41.9920   26.5820   43.3640 H   0  0  0  0  0  0  0  0  0  0  0  0
   36.6160   27.0590   40.5150 C   0  0  0  0  0  0  0  0  0  0  0  0
   36.2460   27.1470   39.1800 C   0  0  0  0  0  0  0  0  0  0  0  0
   35.9290   27.9290   38.5060 H   0  0  0  0  0  0  0  0  0  0  0  0
   36.3330   25.8630   38.6450 C   0  0  0  0  0  0  0  0  0  0  0  0
   36.1640   25.3900   37.6860 H   0  0  0  0  0  0  0  0  0  0  0  0
   36.7400   25.0740   39.6570 N   0  0  0  0  0  0  0  0  0  0  0  0
   36.9560   24.0390   39.7770 H   0  0  0  0  0  0  0  0  0  0  0  0
   36.9080   25.7700   40.7560 N   0  0  0  0  0  0  0  0  0  0  0  0
  1 16  1  0  0  0  0
  2  1  1  0  0  0  0
  2  7  1  1  0  0  0
  3  4  1  0  0  0  0
  3  9  1  0  0  0  0
  3  2  1  0  0  0  0
  4  5  1  0  0  0  0
  5 11  1  0  0  0  0
  6 14  1  0  0  0  0
  6  5  1  0  0  0  0
  6  1  1  0  0  0  0
  8  3  1  0  0  0  0
 10  4  1  0  0  0  0
 12  5  1  0  0  0  0
 13  6  1  0  0  0  0
 15 20  2  0  0  0  0
 15 16  1  0  0  0  0
 16 17  2  0  0  0  0
 17 18  1  0  0  0  0
 17 22  1  0  0  0  0
 19 23  1  0  0  0  0
 19 18  2  0  0  0  0
 20 19  1  0  0  0  0
 21 15  1  0  0  0  0
 24 31  2  0  0  0  0
 24  2  1  0  0  0  0
 25 24  1  0  0  0  0
 26 25  1  0  0  0  0
 27 25  2  0  0  0  0
 27 29  1  0  0  0  0
 28 27  1  0  0  0  0
 29 30  1  0  0  0  0
 29 31  1  0  0  0  0
M  END
>  <minimizedAffinity>
-4.33474255

$$$$

 OpenBabel03252508333D

 31 33  0  0  1  0  0  0  0  0999 V2000
   38.3240   26.8590   41.1350 N   0  0  0  0  0  0  0  0  0  0  0  0
   37.7020   27.6400   42.1610 C   0  0  1  0  0  0  0  0  0  0  0  0
   38.6400   28.3490   43.0670 C   0  0  0  0  0  0  0  0  0  0  0  0
   39.7780   27.6240   43.4390 N   0  0  0  0  0  0  0  0  0  0  0  0
   40.3720   26.8000   42.4750 C   0  0  0  0  0  0  0  0  0  0  0  0
   39.7500   26.9600   41.1110 C   0  0  0  0  0  0  0  0  0  0  0  0
   37.0760   26.9490   42.7700 H   0  0  0  0  0  0  0  0  0  0  0  0
   38.8640   29.3530   42.6030 H   0  0  0  0  0  0  0  0  0  0  0  0
   38.0570   28.6370   43.9900 H   0  0  0  0  0  0  0  0  0  0  0  0
   40.2780   27.8880   44.2760 H   0  0  0  0  0  0  0  0  0  0  0  0
   40.2290   25.7200   42.7740 H   0  0  0  0  0  0  0  0  0  0  0  0
   41.4700   26.9070   42.3530 H   0  0  0  0  0  0  0  0  0  0  0  0
   39.9980   28.0160   40.8040 H   0  0  0  0  0  0  0  0  0  0  0  0
   40.2930   26.3220   40.4250 H   0  0  0  0  0  0  0  0  0  0  0  0
   36.9050   24.9800   40.8310 C   0  0  0  0  0  0  0  0  0  0  0  0
   37.5120   26.1000   40.2780 C   0  0  0  0  0  0  0  0  0  0  0  0
   37.2720   26.3640   38.9320 C   0  0  0  0  0  0  0  0  0  0  0  0
   36.4720   25.5500   38.1950 N   0  0  0  0  0  0  0  0  0  0  0  0
   35.8910   24.4560   38.7730 C   0  0  0  0  0  0  0  0  0  0  0  0
   36.1120   24.1920   40.0580 N   0  0  0  0  0  0  0  0  0  0  0  0
   36.9610   24.6070   41.8310 H   0  0  0  0  0  0  0  0  0  0  0  0
   37.7360   27.2260   38.5090 H   0  0  0  0  0  0  0  0  0  0  0  0
   35.2670   23.8500   38.1310 H   0  0  0  0  0  0  0  0  0  0  0  0
   36.7780   28.6690   41.6060 C   0  0  0  0  0  0  0  0  0  0  0  0
   37.2930   29.9580   41.6190 C   0  0  0  0  0  0  0  0  0  0  0  0
   38.2130   30.4300   41.9300 H   0  0  0  0  0  0  0  0  0  0  0  0
   36.3180   30.7950   41.0800 C   0  0  0  0  0  0  0  0  0  0  0  0
   36.2070   31.8510   40.8670 H   0  0  0  0  0  0  0  0  0  0  0  0
   35.2800   29.9950   40.7720 N   0  0  0  0  0  0  0  0  0  0  0  0
   34.3140   30.1280   40.3470 H   0  0  0  0  0  0  0  0  0  0  0  0
   35.5440   28.7470   41.0790 N   0  0  0  0  0  0  0  0  0  0  0  0
  1  2  1  0  0  0  0
  2  7  1  1  0  0  0
  2  3  1  0  0  0  0
  3  4  1  0  0  0  0
  3  9  1  0  0  0  0
  4 10  1  0  0  0  0
  5 11  1  0  0  0  0
  5  4  1  0  0  0  0
  6  1  1  0  0  0  0
  6  5  1  0  0  0  0
  8  3  1  0  0  0  0
 12  5  1  0  0  0  0
 13  6  1  0  0  0  0
 14  6  1  0  0  0  0
 15 21  1  0  0  0  0
 16 15  1  0  0  0  0
 16  1  1  0  0  0  0
 17 16  2  0  0  0  0
 18 19  2  0  0  0  0
 18 17  1  0  0  0  0
 19 20  1  0  0  0  0
 20 15  2  0  0  0  0
 22 17  1  0  0  0  0
 23 19  1  0  0  0  0
 24 25  1  0  0  0  0
 24  2  1  0  0  0  0
 25 26  1  0  0  0  0
 27 25  2  0  0  0  0
 28 27  1  0  0  0  0
 29 31  1  0  0  0  0
 29 27  1  0  0  0  0
 30 29  1  0  0  0  0
 31 24  2  0  0  0  0
M  END
>  <minimizedAffinity>
-4.32386446

$$$$

 OpenBabel03252508333D

 31 33  0  0  1  0  0  0  0  0999 V2000
   40.9050   32.0550   40.7280 N   0  0  0  0  0  0  0  0  0  0  0  0
   41.7120   33.2220   40.5440 C   0  0  1  0  0  0  0  0  0  0  0  0
   42.9860   33.2310   41.3070 C   0  0  0  0  0  0  0  0  0  0  0  0
   42.9090   32.7260   42.6100 N   0  0  0  0  0  0  0  0  0  0  0  0
   42.0750   31.6230   42.8350 C   0  0  0  0  0  0  0  0  0  0  0  0
   41.5050   31.0570   41.5590 C   0  0  0  0  0  0  0  0  0  0  0  0
   41.1040   34.0990   40.8610 H   0  0  0  0  0  0  0  0  0  0  0  0
   43.7690   32.7340   40.6650 H   0  0  0  0  0  0  0  0  0  0  0  0
   43.3470   34.3000   41.3380 H   0  0  0  0  0  0  0  0  0  0  0  0
   43.6140   32.9890   43.2830 H   0  0  0  0  0  0  0  0  0  0  0  0
   41.1990   31.9450   43.4700 H   0  0  0  0  0  0  0  0  0  0  0  0
   42.5250   30.7790   43.3990 H   0  0  0  0  0  0  0  0  0  0  0  0
   42.3960   30.6560   40.9980 H   0  0  0  0  0  0  0  0  0  0  0  0
   40.9110   30.1900   41.8200 H   0  0  0  0  0  0  0  0  0  0  0  0
   38.6820   32.8720   40.5650 C   0  0  0  0  0  0  0  0  0  0  0  0
   39.6520   31.9940   40.0990 C   0  0  0  0  0  0  0  0  0  0  0  0
   39.2970   31.1330   39.0640 C   0  0  0  0  0  0  0  0  0  0  0  0
   38.0450   31.1570   38.5360 N   0  0  0  0  0  0  0  0  0  0  0  0
   37.1160   32.0350   39.0210 C   0  0  0  0  0  0  0  0  0  0  0  0
   37.4410   32.8640   40.0090 N   0  0  0  0  0  0  0  0  0  0  0  0
   38.7510   33.6030   41.3410 H   0  0  0  0  0  0  0  0  0  0  0  0
   40.0430   30.4610   38.7050 H   0  0  0  0  0  0  0  0  0  0  0  0
   36.1400   32.0020   38.5570 H   0  0  0  0  0  0  0  0  0  0  0  0
   42.0660   33.4460   39.1140 C   0  0  0  0  0  0  0  0  0  0  0  0
   43.1760   32.7310   38.6860 C   0  0  0  0  0  0  0  0  0  0  0  0
   43.8720   32.0320   39.1240 H   0  0  0  0  0  0  0  0  0  0  0  0
   43.3770   33.0500   37.3450 C   0  0  0  0  0  0  0  0  0  0  0  0
   44.0750   32.7820   36.5610 H   0  0  0  0  0  0  0  0  0  0  0  0
   42.4040   33.9240   37.0270 N   0  0  0  0  0  0  0  0  0  0  0  0
   42.1140   34.4590   36.1550 H   0  0  0  0  0  0  0  0  0  0  0  0
   41.6310   34.1600   38.0610 N   0  0  0  0  0  0  0  0  0  0  0  0
  1  6  1  0  0  0  0
  2  1  1  0  0  0  0
  2  7  1  1  0  0  0
  2  3  1  0  0  0  0
  3  9  1  0  0  0  0
  3  4  1  0  0  0  0
  4  5  1  0  0  0  0
  4 10  1  0  0  0  0
  5 12  1  0  0  0  0
  5 11  1  0  0  0  0
  6 14  1  0  0  0  0
  6  5  1  0  0  0  0
  8  3  1  0  0  0  0
 13  6  1  0  0  0  0
 15 21  1  0  0  0  0
 16 15  1  0  0  0  0
 16  1  1  0  0  0  0
 17 16  2  0  0  0  0
 18 19  2  0  0  0  0
 18 17  1  0  0  0  0
 19 20  1  0  0  0  0
 20 15  2  0  0  0  0
 22 17  1  0  0  0  0
 23 19  1  0  0  0  0
 24  2  1  0  0  0  0
 25 24  1  0  0  0  0
 25 26  1  0  0  0  0
 27 25  2  0  0  0  0
 28 27  1  0  0  0  0
 29 27  1  0  0  0  0
 29 31  1  0  0  0  0
 30 29  1  0  0  0  0
 31 24  2  0  0  0  0
M  END
>  <minimizedAffinity>
-4.32232237

$$$$
