
 OpenBabel03242513133D

 29 31  0  0  0  0  0  0  0  0999 V2000
   44.8120   30.7330   48.1790 Cl  0  0  0  0  0  0  0  0  0  0  0  0
   46.0000   30.5760   46.8660 C   0  0  0  0  0  0  0  0  0  0  0  0
   46.3880   31.6760   46.1870 C   0  0  0  0  0  0  0  0  0  0  0  0
   47.3350   31.5040   45.2110 C   0  0  0  0  0  0  0  0  0  0  0  0
   47.8560   30.2630   44.9440 C   0  0  0  0  0  0  0  0  0  0  0  0
   47.4370   29.1320   45.6600 C   0  0  0  0  0  0  0  0  0  0  0  0
   46.4910   29.3200   46.6340 C   0  0  0  0  0  0  0  0  0  0  0  0
   47.7710   32.2590   44.5890 H   0  0  0  0  0  0  0  0  0  0  0  0
   48.6120   30.0940   44.1720 H   0  0  0  0  0  0  0  0  0  0  0  0
   47.8970   28.1880   45.3880 H   0  0  0  0  0  0  0  0  0  0  0  0
   46.1090   28.0950   47.3280 C   0  0  0  0  0  0  0  0  0  0  0  0
   46.6780   26.8600   47.5060 C   0  0  0  0  0  0  0  0  0  0  0  0
   47.6100   26.5380   47.1230 H   0  0  0  0  0  0  0  0  0  0  0  0
   45.9210   26.0220   48.2540 C   0  0  0  0  0  0  0  0  0  0  0  0
   46.0850   25.0190   48.5620 H   0  0  0  0  0  0  0  0  0  0  0  0
   44.8570   26.7450   48.5510 N   0  0  0  0  0  0  0  0  0  0  0  0
   43.9780   26.5390   49.1150 H   0  0  0  0  0  0  0  0  0  0  0  0
   44.9580   27.9330   48.0230 N   0  0  0  0  0  0  0  0  0  0  0  0
   45.7890   32.9610   46.4820 C   0  0  0  0  0  0  0  0  0  0  0  0
   45.4740   33.1720   47.6880 O   0  0  0  0  0  0  0  0  0  0  0  0
   44.5000   35.9080   44.8050 C   0  0  0  0  0  0  0  0  0  0  0  0
   45.0910   35.9040   43.5390 C   0  0  0  0  0  0  0  0  0  0  0  0
   45.9520   34.8380   43.2930 C   0  0  0  0  0  0  0  0  0  0  0  0
   46.1550   33.9000   44.2680 N   0  0  0  0  0  0  0  0  0  0  0  0
   45.5620   33.9530   45.4630 C   0  0  0  0  0  0  0  0  0  0  0  0
   44.7330   34.9650   45.7210 N   0  0  0  0  0  0  0  0  0  0  0  0
   43.8130   36.7170   45.0630 H   0  0  0  0  0  0  0  0  0  0  0  0
   44.8770   36.6780   42.8370 H   0  0  0  0  0  0  0  0  0  0  0  0
   46.4280   34.8000   42.3270 H   0  0  0  0  0  0  0  0  0  0  0  0
  2  1  1  0  0  0  0
  3 19  1  0  0  0  0
  3  2  2  0  0  0  0
  4  3  1  0  0  0  0
  5  4  2  0  0  0  0
  5  6  1  0  0  0  0
  6  7  2  0  0  0  0
  7  2  1  0  0  0  0
  7 11  1  0  0  0  0
  8  4  1  0  0  0  0
  9  5  1  0  0  0  0
 10  6  1  0  0  0  0
 11 12  1  0  0  0  0
 11 18  2  0  0  0  0
 12 14  2  0  0  0  0
 13 12  1  0  0  0  0
 14 16  1  0  0  0  0
 14 15  1  0  0  0  0
 16 17  1  0  0  0  0
 18 16  1  0  0  0  0
 19 20  2  0  0  0  0
 21 27  1  0  0  0  0
 21 26  1  0  0  0  0
 22 21  2  0  0  0  0
 23 22  1  0  0  0  0
 23 24  2  0  0  0  0
 24 25  1  0  0  0  0
 25 26  2  0  0  0  0
 25 19  1  0  0  0  0
 28 22  1  0  0  0  0
 29 23  1  0  0  0  0
M  END
>  <minimizedAffinity>
-5.00064564

>  <minimizedRMSD>
0.823918164

$$$$
