
 OpenBabel03242513013D

 30 33  0  0  0  0  0  0  0  0999 V2000
   46.7090   34.9430   42.7070 C   0  0  0  0  0  0  0  0  0  0  0  0
   47.8740   34.5710   42.0380 C   0  0  0  0  0  0  0  0  0  0  0  0
   48.5540   33.4330   42.4890 C   0  0  0  0  0  0  0  0  0  0  0  0
   48.0490   32.7410   43.5600 N   0  0  0  0  0  0  0  0  0  0  0  0
   46.9140   33.1350   44.1800 C   0  0  0  0  0  0  0  0  0  0  0  0
   46.2640   34.2230   43.7500 N   0  0  0  0  0  0  0  0  0  0  0  0
   46.1960   35.8240   42.3460 H   0  0  0  0  0  0  0  0  0  0  0  0
   48.2720   35.1190   41.1920 H   0  0  0  0  0  0  0  0  0  0  0  0
   46.1030   31.0300   45.1610 C   0  0  0  0  0  0  0  0  0  0  0  0
   46.4300   32.3520   45.3140 C   0  0  0  0  0  0  0  0  0  0  0  0
   46.3220   33.0120   46.5330 C   0  0  0  0  0  0  0  0  0  0  0  0
   45.8680   32.3270   47.6570 C   0  0  0  0  0  0  0  0  0  0  0  0
   45.6420   32.6320   48.9650 N   0  0  0  0  0  0  0  0  0  0  0  0
   45.1830   31.4960   49.5840 C   0  0  0  0  0  0  0  0  0  0  0  0
   45.1360   30.5210   48.6490 N   0  0  0  0  0  0  0  0  0  0  0  0
   45.5470   30.9930   47.4630 C   0  0  0  0  0  0  0  0  0  0  0  0
   45.6480   30.3260   46.2660 C   0  0  0  0  0  0  0  0  0  0  0  0
   46.1840   30.5110   44.2210 H   0  0  0  0  0  0  0  0  0  0  0  0
   46.5730   34.0610   46.6920 H   0  0  0  0  0  0  0  0  0  0  0  0
   45.8190   33.6000   49.3360 H   0  0  0  0  0  0  0  0  0  0  0  0
   44.9420   31.5280   50.6380 H   0  0  0  0  0  0  0  0  0  0  0  0
   45.3750   29.2680   46.1890 H   0  0  0  0  0  0  0  0  0  0  0  0
   49.7830   32.9540   41.8640 C   0  0  0  0  0  0  0  0  0  0  0  0
   49.7810   32.0940   40.7720 C   0  0  0  0  0  0  0  0  0  0  0  0
   48.9040   31.6990   40.2830 H   0  0  0  0  0  0  0  0  0  0  0  0
   51.0900   31.8230   40.4090 C   0  0  0  0  0  0  0  0  0  0  0  0
   51.4150   31.1840   39.5940 H   0  0  0  0  0  0  0  0  0  0  0  0
   51.8530   32.5230   41.2890 N   0  0  0  0  0  0  0  0  0  0  0  0
   52.9150   32.5360   41.2890 H   0  0  0  0  0  0  0  0  0  0  0  0
   51.0810   33.1820   42.1340 N   0  0  0  0  0  0  0  0  0  0  0  0
  1  6  1  0  0  0  0
  2  3  1  0  0  0  0
  2  1  2  0  0  0  0
  3  4  2  0  0  0  0
  4  5  1  0  0  0  0
  5 10  1  0  0  0  0
  6  5  2  0  0  0  0
  7  1  1  0  0  0  0
  8  2  1  0  0  0  0
  9 10  2  0  0  0  0
  9 17  1  0  0  0  0
 10 11  1  0  0  0  0
 11 19  1  0  0  0  0
 11 12  2  0  0  0  0
 12 13  1  0  0  0  0
 13 20  1  0  0  0  0
 13 14  1  0  0  0  0
 14 21  1  0  0  0  0
 15 14  2  0  0  0  0
 16 12  1  0  0  0  0
 16 15  1  0  0  0  0
 17 16  2  0  0  0  0
 18  9  1  0  0  0  0
 22 17  1  0  0  0  0
 23 30  2  0  0  0  0
 23  3  1  0  0  0  0
 24 23  1  0  0  0  0
 25 24  1  0  0  0  0
 26 24  2  0  0  0  0
 26 28  1  0  0  0  0
 27 26  1  0  0  0  0
 28 30  1  0  0  0  0
 29 28  1  0  0  0  0
M  END
>  <minimizedAffinity>
-5.99038696

>  <minimizedRMSD>
0.898451924

$$$$
