
 OpenBabel03252509153D

 24 26  0  0  0  0  0  0  0  0999 V2000
   46.0850   32.9620   45.8100 C   0  0  0  0  0  0  0  0  0  0  0  0
   45.7370   32.7510   47.1740 C   0  0  0  0  0  0  0  0  0  0  0  0
   46.2080   31.6370   47.7700 C   0  0  0  0  0  0  0  0  0  0  0  0
   47.0190   30.7270   47.0400 C   0  0  0  0  0  0  0  0  0  0  0  0
   47.1140   31.5190   45.3850 S   0  0  0  0  0  0  0  0  0  0  0  0
   45.1180   33.4720   47.6880 H   0  0  0  0  0  0  0  0  0  0  0  0
   46.0080   31.3780   48.7950 H   0  0  0  0  0  0  0  0  0  0  0  0
   44.4780   36.0700   44.5820 C   0  0  0  0  0  0  0  0  0  0  0  0
   45.0680   36.1590   43.2940 C   0  0  0  0  0  0  0  0  0  0  0  0
   45.9830   35.1580   42.9100 C   0  0  0  0  0  0  0  0  0  0  0  0
   46.2410   34.1630   43.8080 N   0  0  0  0  0  0  0  0  0  0  0  0
   45.6490   34.1270   45.0230 C   0  0  0  0  0  0  0  0  0  0  0  0
   44.7650   35.0760   45.4190 N   0  0  0  0  0  0  0  0  0  0  0  0
   43.7900   36.8390   44.8460 H   0  0  0  0  0  0  0  0  0  0  0  0
   44.8570   36.9520   42.5900 H   0  0  0  0  0  0  0  0  0  0  0  0
   46.4690   35.1550   41.9570 H   0  0  0  0  0  0  0  0  0  0  0  0
   47.6180   29.5150   47.4470 C   0  0  0  0  0  0  0  0  0  0  0  0
   48.9110   29.2620   47.8510 C   0  0  0  0  0  0  0  0  0  0  0  0
   49.6330   30.0500   47.8900 H   0  0  0  0  0  0  0  0  0  0  0  0
   48.9250   27.8930   48.1300 C   0  0  0  0  0  0  0  0  0  0  0  0
   49.8450   27.4150   48.4780 H   0  0  0  0  0  0  0  0  0  0  0  0
   47.6890   27.3740   47.8960 N   0  0  0  0  0  0  0  0  0  0  0  0
   47.4750   26.3690   48.0390 H   0  0  0  0  0  0  0  0  0  0  0  0
   46.9290   28.3590   47.4910 N   0  0  0  0  0  0  0  0  0  0  0  0
  1  2  2  0  0  0  0
  2  6  1  0  0  0  0
  2  3  1  0  0  0  0
  3  7  1  0  0  0  0
  4 17  1  0  0  0  0
  4  3  2  0  0  0  0
  5  1  1  0  0  0  0
  5  4  1  0  0  0  0
  8 14  1  0  0  0  0
  8 13  1  0  0  0  0
  9  8  2  0  0  0  0
 10  9  1  0  0  0  0
 10 11  2  0  0  0  0
 11 12  1  0  0  0  0
 12 13  2  0  0  0  0
 12  1  1  0  0  0  0
 15  9  1  0  0  0  0
 16 10  1  0  0  0  0
 17 24  2  0  0  0  0
 17 18  1  0  0  0  0
 18 19  1  0  0  0  0
 18 20  2  0  0  0  0
 20 21  1  0  0  0  0
 22 23  1  0  0  0  0
 22 20  1  0  0  0  0
 24 22  1  0  0  0  0
M  END
>  <minimizedAffinity>
-4.54941034

>  <minimizedRMSD>
1.48902154

$$$$
