
 OpenBabel03252503533D

 35 37  0  0  1  0  0  0  0  0999 V2000
   45.8210   32.8990   46.2250 N   0  0  0  0  0  0  0  0  0  0  0  0
   45.2900   33.1570   47.5690 C   0  0  0  0  0  0  0  0  0  0  0  0
   46.0600   32.2390   48.5070 C   0  0  0  0  0  0  0  0  0  0  0  0
   45.6400   30.8230   48.2400 C   0  0  0  0  0  0  0  0  0  0  0  0
   45.6810   30.5600   46.7670 C   0  0  0  0  0  0  0  0  0  0  0  0
   46.3870   31.6270   45.9910 C   0  0  1  0  0  0  0  0  0  0  0  0
   45.3730   34.2060   47.8430 H   0  0  0  0  0  0  0  0  0  0  0  0
   44.2510   32.7670   47.5560 H   0  0  0  0  0  0  0  0  0  0  0  0
   45.7300   32.4870   49.5330 H   0  0  0  0  0  0  0  0  0  0  0  0
   47.1550   32.3880   48.4070 H   0  0  0  0  0  0  0  0  0  0  0  0
   46.3390   30.1050   48.7550 H   0  0  0  0  0  0  0  0  0  0  0  0
   44.6500   30.6520   48.7070 H   0  0  0  0  0  0  0  0  0  0  0  0
   46.0060   29.5380   46.5050 H   0  0  0  0  0  0  0  0  0  0  0  0
   44.6050   30.6020   46.4240 H   0  0  0  0  0  0  0  0  0  0  0  0
   47.4490   31.6340   46.3020 H   0  0  0  0  0  0  0  0  0  0  0  0
   46.4350   34.8480   43.1490 C   0  0  0  0  0  0  0  0  0  0  0  0
   46.5830   33.8870   44.1480 C   0  0  0  0  0  0  0  0  0  0  0  0
   45.7370   33.8820   45.2410 C   0  0  0  0  0  0  0  0  0  0  0  0
   44.7950   34.8400   45.2850 N   0  0  0  0  0  0  0  0  0  0  0  0
   44.6400   35.7900   44.3210 C   0  0  0  0  0  0  0  0  0  0  0  0
   45.4730   35.7810   43.2490 N   0  0  0  0  0  0  0  0  0  0  0  0
   47.4070   33.2270   44.0000 H   0  0  0  0  0  0  0  0  0  0  0  0
   43.8610   36.5410   44.4110 H   0  0  0  0  0  0  0  0  0  0  0  0
   47.3540   34.7650   41.9640 C   0  0  0  0  0  0  0  0  0  0  0  0
   46.6410   34.6110   40.7770 F   0  0  0  0  0  0  0  0  0  0  0  0
   48.1040   35.9180   41.9540 F   0  0  0  0  0  0  0  0  0  0  0  0
   48.2090   33.6820   42.1100 F   0  0  0  0  0  0  0  0  0  0  0  0
   46.3340   31.1410   44.5610 C   0  0  0  0  0  0  0  0  0  0  0  0
   45.2110   30.7600   43.8010 C   0  0  0  0  0  0  0  0  0  0  0  0
   44.2400   30.8060   44.3060 H   0  0  0  0  0  0  0  0  0  0  0  0
   45.6560   30.4090   42.5530 C   0  0  0  0  0  0  0  0  0  0  0  0
   44.8720   30.0960   41.8760 H   0  0  0  0  0  0  0  0  0  0  0  0
   46.9840   30.5640   42.5400 N   0  0  0  0  0  0  0  0  0  0  0  0
   47.5060   30.3470   41.6710 H   0  0  0  0  0  0  0  0  0  0  0  0
   47.3980   30.9950   43.7150 N   0  0  0  0  0  0  0  0  0  0  0  0
  1  2  1  0  0  0  0
  2  7  1  0  0  0  0
  2  3  1  0  0  0  0
  3  9  1  0  0  0  0
  4  3  1  0  0  0  0
  4 12  1  0  0  0  0
  4 11  1  0  0  0  0
  5  4  1  0  0  0  0
  6  1  1  0  0  0  0
  6 15  1  1  0  0  0
  6  5  1  0  0  0  0
  8  2  1  0  0  0  0
 10  3  1  0  0  0  0
 13  5  1  0  0  0  0
 14  5  1  0  0  0  0
 16 21  2  0  0  0  0
 16 17  1  0  0  0  0
 17 18  2  0  0  0  0
 18 19  1  0  0  0  0
 18  1  1  0  0  0  0
 20 23  1  0  0  0  0
 20 19  2  0  0  0  0
 21 20  1  0  0  0  0
 22 17  1  0  0  0  0
 24 27  1  0  0  0  0
 24 16  1  0  0  0  0
 25 24  1  0  0  0  0
 26 24  1  0  0  0  0
 28  6  1  0  0  0  0
 29 30  1  0  0  0  0
 29 28  1  0  0  0  0
 31 29  2  0  0  0  0
 32 31  1  0  0  0  0
 33 31  1  0  0  0  0
 33 35  1  0  0  0  0
 34 33  1  0  0  0  0
 35 28  2  0  0  0  0
M  END
>  <minimizedAffinity>
-5.28522825

>  <minimizedRMSD>
0.256808966

$$$$
