
 OpenBabel03252502433D

 30 32  0  0  1  0  0  0  0  0999 V2000
   46.3480   34.6200   41.1640 C   0  0  0  0  0  0  0  0  0  0  0  0
   45.8110   34.7070   40.1930 H   0  0  0  0  0  0  0  0  0  0  0  0
   46.2600   35.6630   41.5980 H   0  0  0  0  0  0  0  0  0  0  0  0
   47.8160   34.4080   40.9670 C   0  0  1  0  0  0  0  0  0  0  0  0
   48.6880   35.5550   41.3020 C   0  0  0  0  0  0  0  0  0  0  0  0
   48.6870   34.2230   42.0590 C   0  0  2  0  0  0  0  0  0  0  0  0
   48.0330   33.9670   39.9920 H   0  0  0  0  0  0  0  0  0  0  0  0
   49.6110   35.7450   40.7350 H   0  0  0  0  0  0  0  0  0  0  0  0
   48.2200   36.4430   41.7130 H   0  0  0  0  0  0  0  0  0  0  0  0
   48.7630   34.4800   43.0960 H   0  0  0  0  0  0  0  0  0  0  0  0
   49.8660   33.3050   41.7910 C   0  0  0  0  0  0  0  0  0  0  0  0
   49.8650   32.2330   40.8880 C   0  0  0  0  0  0  0  0  0  0  0  0
   49.0520   31.8810   40.2400 H   0  0  0  0  0  0  0  0  0  0  0  0
   51.0810   31.5980   40.8750 C   0  0  0  0  0  0  0  0  0  0  0  0
   51.4210   30.7470   40.3050 H   0  0  0  0  0  0  0  0  0  0  0  0
   51.7860   32.3020   41.7710 N   0  0  0  0  0  0  0  0  0  0  0  0
   52.7740   32.1750   42.0880 H   0  0  0  0  0  0  0  0  0  0  0  0
   51.1250   33.2970   42.3250 N   0  0  0  0  0  0  0  0  0  0  0  0
   45.8730   33.5730   42.0610 C   0  0  0  0  0  0  0  0  0  0  0  0
   46.3680   32.6760   42.2970 H   0  0  0  0  0  0  0  0  0  0  0  0
   44.8730   33.2320   41.6220 H   0  0  0  0  0  0  0  0  0  0  0  0
   44.4540   36.0020   44.5530 C   0  0  0  0  0  0  0  0  0  0  0  0
   44.8810   35.3860   43.3350 C   0  0  0  0  0  0  0  0  0  0  0  0
   45.4700   34.1450   43.3660 C   0  0  0  0  0  0  0  0  0  0  0  0
   45.6160   33.5610   44.5890 N   0  0  0  0  0  0  0  0  0  0  0  0
   45.2140   34.1460   45.7130 C   0  0  0  0  0  0  0  0  0  0  0  0
   44.6370   35.3530   45.7180 N   0  0  0  0  0  0  0  0  0  0  0  0
   43.9840   36.9740   44.6180 H   0  0  0  0  0  0  0  0  0  0  0  0
   44.6520   36.0380   42.5120 H   0  0  0  0  0  0  0  0  0  0  0  0
   45.3960   33.5590   46.6150 H   0  0  0  0  0  0  0  0  0  0  0  0
  1  3  1  0  0  0  0
  1 19  1  0  0  0  0
  2  1  1  0  0  0  0
  4  7  1  6  0  0  0
  4  1  1  0  0  0  0
  4  5  1  0  0  0  0
  4  6  1  0  0  0  0
  5  9  1  0  0  0  0
  5  6  1  0  0  0  0
  6 10  1  1  0  0  0
  8  5  1  0  0  0  0
 11  6  1  0  0  0  0
 11 18  2  0  0  0  0
 12 11  1  0  0  0  0
 13 12  1  0  0  0  0
 14 12  2  0  0  0  0
 14 16  1  0  0  0  0
 15 14  1  0  0  0  0
 16 17  1  0  0  0  0
 16 18  1  0  0  0  0
 19 20  1  0  0  0  0
 19 24  1  0  0  0  0
 21 19  1  0  0  0  0
 22 28  1  0  0  0  0
 22 27  1  0  0  0  0
 23 24  1  0  0  0  0
 23 22  2  0  0  0  0
 24 25  2  0  0  0  0
 25 26  1  0  0  0  0
 26 27  2  0  0  0  0
 26 30  1  0  0  0  0
 29 23  1  0  0  0  0
M  END
>  <minimizedAffinity>
-4.88133335

>  <minimizedRMSD>
1.27780926

$$$$
