
 OpenBabel03252508273D

 40 44  0  0  1  0  0  0  0  0999 V2000
   38.5350   29.3710   42.4310 C   0  0  1  0  0  0  0  0  0  0  0  0
   37.6710   29.0950   43.5870 C   0  0  0  0  0  0  0  0  0  0  0  0
   37.9090   28.0640   42.4150 C   0  0  2  0  0  0  0  0  0  0  0  0
   39.5630   29.6170   42.8820 H   0  0  0  0  0  0  0  0  0  0  0  0
   36.6500   29.5020   43.6720 H   0  0  0  0  0  0  0  0  0  0  0  0
   38.0280   28.6480   44.5300 H   0  0  0  0  0  0  0  0  0  0  0  0
   36.8560   27.8740   42.0500 H   0  0  0  0  0  0  0  0  0  0  0  0
   38.5840   26.7920   42.6950 C   0  0  0  0  0  0  0  0  0  0  0  0
   39.6260   26.5760   43.5360 C   0  0  0  0  0  0  0  0  0  0  0  0
   40.3150   25.3770   43.6790 C   0  0  0  0  0  0  0  0  0  0  0  0
   39.8830   24.3090   42.8810 C   0  0  0  0  0  0  0  0  0  0  0  0
   38.8110   24.5010   42.0090 C   0  0  0  0  0  0  0  0  0  0  0  0
   38.3810   23.4000   41.2910 C   0  0  0  0  0  0  0  0  0  0  0  0
   37.2710   23.5290   40.4670 C   0  0  0  0  0  0  0  0  0  0  0  0
   36.6050   24.7340   40.3680 C   0  0  0  0  0  0  0  0  0  0  0  0
   37.0760   25.7970   41.1030 C   0  0  0  0  0  0  0  0  0  0  0  0
   38.1840   25.7230   41.9320 C   0  0  0  0  0  0  0  0  0  0  0  0
   39.9290   27.4270   44.1350 H   0  0  0  0  0  0  0  0  0  0  0  0
   41.1390   25.2760   44.3730 H   0  0  0  0  0  0  0  0  0  0  0  0
   40.3880   23.3560   42.9530 H   0  0  0  0  0  0  0  0  0  0  0  0
   38.9270   22.4650   41.3930 H   0  0  0  0  0  0  0  0  0  0  0  0
   37.0240   22.5990   39.9480 H   0  0  0  0  0  0  0  0  0  0  0  0
   35.7840   24.6340   39.6950 H   0  0  0  0  0  0  0  0  0  0  0  0
   36.3690   26.5550   40.9280 H   0  0  0  0  0  0  0  0  0  0  0  0
   36.4750   31.5650   40.2930 C   0  0  0  0  0  0  0  0  0  0  0  0
   37.4630   32.1920   39.4570 C   0  0  0  0  0  0  0  0  0  0  0  0
   38.8340   31.8350   39.6760 C   0  0  0  0  0  0  0  0  0  0  0  0
   39.1380   30.9480   40.6310 N   0  0  0  0  0  0  0  0  0  0  0  0
   38.1450   30.3790   41.4020 C   0  0  0  0  0  0  0  0  0  0  0  0
   36.8610   30.6800   41.2350 N   0  0  0  0  0  0  0  0  0  0  0  0
   35.4560   31.8560   40.1000 H   0  0  0  0  0  0  0  0  0  0  0  0
   37.2250   32.8990   38.6950 H   0  0  0  0  0  0  0  0  0  0  0  0
   39.8640   32.4490   38.8490 C   0  0  0  0  0  0  0  0  0  0  0  0
   40.7730   33.3920   39.2680 C   0  0  0  0  0  0  0  0  0  0  0  0
   40.9040   33.8490   40.2420 H   0  0  0  0  0  0  0  0  0  0  0  0
   41.5730   33.7060   38.1650 C   0  0  0  0  0  0  0  0  0  0  0  0
   42.4000   34.3980   38.0640 H   0  0  0  0  0  0  0  0  0  0  0  0
   41.1250   32.9510   37.1300 N   0  0  0  0  0  0  0  0  0  0  0  0
   41.4330   32.8770   36.1460 H   0  0  0  0  0  0  0  0  0  0  0  0
   40.1190   32.2170   37.5500 N   0  0  0  0  0  0  0  0  0  0  0  0
  1  4  1  1  0  0  0
  1  2  1  0  0  0  0
  2  5  1  0  0  0  0
  2  6  1  0  0  0  0
  3  7  1  6  0  0  0
  3  1  1  0  0  0  0
  3  8  1  0  0  0  0
  3  2  1  0  0  0  0
  8  9  1  0  0  0  0
  9 10  2  0  0  0  0
  9 18  1  0  0  0  0
 10 19  1  0  0  0  0
 11 20  1  0  0  0  0
 11 10  1  0  0  0  0
 12 11  2  0  0  0  0
 13 21  1  0  0  0  0
 13 12  1  0  0  0  0
 14 13  2  0  0  0  0
 15 14  1  0  0  0  0
 15 16  2  0  0  0  0
 16 17  1  0  0  0  0
 17 12  1  0  0  0  0
 17  8  2  0  0  0  0
 22 14  1  0  0  0  0
 23 15  1  0  0  0  0
 24 16  1  0  0  0  0
 25 30  1  0  0  0  0
 26 27  1  0  0  0  0
 26 25  2  0  0  0  0
 27 28  2  0  0  0  0
 28 29  1  0  0  0  0
 29  1  1  0  0  0  0
 30 29  2  0  0  0  0
 31 25  1  0  0  0  0
 32 26  1  0  0  0  0
 33 34  1  0  0  0  0
 33 27  1  0  0  0  0
 34 35  1  0  0  0  0
 36 34  2  0  0  0  0
 37 36  1  0  0  0  0
 38 40  1  0  0  0  0
 38 36  1  0  0  0  0
 39 38  1  0  0  0  0
 40 33  2  0  0  0  0
M  END
>  <minimizedAffinity>
-6.88616848

$$$$

 OpenBabel03252508273D

 40 44  0  0  1  0  0  0  0  0999 V2000
   38.8840   27.8430   42.7540 C   0  0  1  0  0  0  0  0  0  0  0  0
   37.6400   27.8300   43.5370 C   0  0  0  0  0  0  0  0  0  0  0  0
   37.6980   27.5020   41.9930 C   0  0  2  0  0  0  0  0  0  0  0  0
   39.5760   27.0970   43.2870 H   0  0  0  0  0  0  0  0  0  0  0  0
   37.1080   28.7550   43.8140 H   0  0  0  0  0  0  0  0  0  0  0  0
   37.2580   26.9450   44.0730 H   0  0  0  0  0  0  0  0  0  0  0  0
   36.9840   28.2660   41.5620 H   0  0  0  0  0  0  0  0  0  0  0  0
   37.3430   26.1590   41.5240 C   0  0  0  0  0  0  0  0  0  0  0  0
   37.6280   24.9720   42.1180 C   0  0  0  0  0  0  0  0  0  0  0  0
   37.3790   23.7160   41.5770 C   0  0  0  0  0  0  0  0  0  0  0  0
   36.7800   23.6890   40.3100 C   0  0  0  0  0  0  0  0  0  0  0  0
   36.4720   24.8940   39.6770 C   0  0  0  0  0  0  0  0  0  0  0  0
   35.8230   24.8140   38.4580 C   0  0  0  0  0  0  0  0  0  0  0  0
   35.4320   25.9880   37.8290 C   0  0  0  0  0  0  0  0  0  0  0  0
   35.6840   27.2140   38.4100 C   0  0  0  0  0  0  0  0  0  0  0  0
   36.3330   27.2360   39.6220 C   0  0  0  0  0  0  0  0  0  0  0  0
   36.7510   26.0940   40.2870 C   0  0  0  0  0  0  0  0  0  0  0  0
   38.0910   25.0380   43.0960 H   0  0  0  0  0  0  0  0  0  0  0  0
   37.6330   22.8100   42.1090 H   0  0  0  0  0  0  0  0  0  0  0  0
   36.5680   22.7370   39.8450 H   0  0  0  0  0  0  0  0  0  0  0  0
   35.6390   23.8310   38.0290 H   0  0  0  0  0  0  0  0  0  0  0  0
   34.9320   25.8050   36.8730 H   0  0  0  0  0  0  0  0  0  0  0  0
   35.3080   27.9900   37.7820 H   0  0  0  0  0  0  0  0  0  0  0  0
   36.3290   28.2530   39.8900 H   0  0  0  0  0  0  0  0  0  0  0  0
   41.5240   30.4190   42.6100 C   0  0  0  0  0  0  0  0  0  0  0  0
   40.8510   31.5090   41.9590 C   0  0  0  0  0  0  0  0  0  0  0  0
   39.4850   31.3060   41.5750 C   0  0  0  0  0  0  0  0  0  0  0  0
   38.8980   30.1310   41.8320 N   0  0  0  0  0  0  0  0  0  0  0  0
   39.5960   29.1210   42.4610 C   0  0  0  0  0  0  0  0  0  0  0  0
   40.8630   29.2640   42.8350 N   0  0  0  0  0  0  0  0  0  0  0  0
   42.5480   30.6070   42.8860 H   0  0  0  0  0  0  0  0  0  0  0  0
   41.3150   32.4470   41.7520 H   0  0  0  0  0  0  0  0  0  0  0  0
   38.7690   32.3880   40.9120 C   0  0  0  0  0  0  0  0  0  0  0  0
   39.2900   33.6220   40.5970 C   0  0  0  0  0  0  0  0  0  0  0  0
   40.2830   34.0220   40.7680 H   0  0  0  0  0  0  0  0  0  0  0  0
   38.2720   34.3480   39.9740 C   0  0  0  0  0  0  0  0  0  0  0  0
   38.2620   35.3550   39.5750 H   0  0  0  0  0  0  0  0  0  0  0  0
   37.1830   33.5390   39.9330 N   0  0  0  0  0  0  0  0  0  0  0  0
   36.2300   33.6840   39.5610 H   0  0  0  0  0  0  0  0  0  0  0  0
   37.4930   32.3890   40.4890 N   0  0  0  0  0  0  0  0  0  0  0  0
  1  4  1  1  0  0  0
  1  2  1  0  0  0  0
  2  5  1  0  0  0  0
  2  6  1  0  0  0  0
  3  7  1  6  0  0  0
  3  1  1  0  0  0  0
  3  2  1  0  0  0  0
  8  3  1  0  0  0  0
  8  9  1  0  0  0  0
  9 18  1  0  0  0  0
 10 19  1  0  0  0  0
 10  9  2  0  0  0  0
 11 10  1  0  0  0  0
 12 17  1  0  0  0  0
 12 11  2  0  0  0  0
 13 12  1  0  0  0  0
 14 15  1  0  0  0  0
 14 13  2  0  0  0  0
 15 16  2  0  0  0  0
 16 24  1  0  0  0  0
 16 17  1  0  0  0  0
 17  8  2  0  0  0  0
 20 11  1  0  0  0  0
 21 13  1  0  0  0  0
 22 14  1  0  0  0  0
 23 15  1  0  0  0  0
 25 30  1  0  0  0  0
 25 31  1  0  0  0  0
 26 25  2  0  0  0  0
 27 28  2  0  0  0  0
 27 26  1  0  0  0  0
 28 29  1  0  0  0  0
 29  1  1  0  0  0  0
 29 30  2  0  0  0  0
 32 26  1  0  0  0  0
 33 27  1  0  0  0  0
 34 35  1  0  0  0  0
 34 33  1  0  0  0  0
 36 34  2  0  0  0  0
 37 36  1  0  0  0  0
 38 36  1  0  0  0  0
 38 40  1  0  0  0  0
 39 38  1  0  0  0  0
 40 33  2  0  0  0  0
M  END
>  <minimizedAffinity>
-6.60867167

$$$$

 OpenBabel03252508273D

 40 44  0  0  1  0  0  0  0  0999 V2000
   34.7650   29.1130   37.6920 C   0  0  1  0  0  0  0  0  0  0  0  0
   34.2290   27.7760   37.4010 C   0  0  0  0  0  0  0  0  0  0  0  0
   33.3190   29.0310   37.7030 C   0  0  2  0  0  0  0  0  0  0  0  0
   35.4150   29.3750   36.7820 H   0  0  0  0  0  0  0  0  0  0  0  0
   34.2080   26.9720   38.1540 H   0  0  0  0  0  0  0  0  0  0  0  0
   34.0030   27.4100   36.3850 H   0  0  0  0  0  0  0  0  0  0  0  0
   32.7140   28.6760   38.5900 H   0  0  0  0  0  0  0  0  0  0  0  0
   32.4270   29.5470   36.6580 C   0  0  0  0  0  0  0  0  0  0  0  0
   32.6920   29.6780   35.3340 C   0  0  0  0  0  0  0  0  0  0  0  0
   31.8630   30.2850   34.3990 C   0  0  0  0  0  0  0  0  0  0  0  0
   30.6520   30.8020   34.8800 C   0  0  0  0  0  0  0  0  0  0  0  0
   30.3500   30.6780   36.2370 C   0  0  0  0  0  0  0  0  0  0  0  0
   29.1160   31.1440   36.6500 C   0  0  0  0  0  0  0  0  0  0  0  0
   28.7450   30.9740   37.9770 C   0  0  0  0  0  0  0  0  0  0  0  0
   29.5930   30.3490   38.8690 C   0  0  0  0  0  0  0  0  0  0  0  0
   30.8090   29.9050   38.4050 C   0  0  0  0  0  0  0  0  0  0  0  0
   31.2290   30.0580   37.0940 C   0  0  0  0  0  0  0  0  0  0  0  0
   33.6390   29.2660   35.0040 H   0  0  0  0  0  0  0  0  0  0  0  0
   32.1390   30.3540   33.3560 H   0  0  0  0  0  0  0  0  0  0  0  0
   29.9730   31.2860   34.1930 H   0  0  0  0  0  0  0  0  0  0  0  0
   28.4710   31.6310   35.9210 H   0  0  0  0  0  0  0  0  0  0  0  0
   27.7530   31.3830   38.1910 H   0  0  0  0  0  0  0  0  0  0  0  0
   29.1330   30.3100   39.8310 H   0  0  0  0  0  0  0  0  0  0  0  0
   31.2230   29.4020   39.2300 H   0  0  0  0  0  0  0  0  0  0  0  0
   36.0590   28.7400   41.1300 C   0  0  0  0  0  0  0  0  0  0  0  0
   36.7830   29.9670   41.3180 C   0  0  0  0  0  0  0  0  0  0  0  0
   36.8080   30.8920   40.2240 C   0  0  0  0  0  0  0  0  0  0  0  0
   36.1680   30.5860   39.0890 N   0  0  0  0  0  0  0  0  0  0  0  0
   35.4890   29.3910   38.9670 C   0  0  0  0  0  0  0  0  0  0  0  0
   35.4390   28.5030   39.9550 N   0  0  0  0  0  0  0  0  0  0  0  0
   36.0610   28.0690   41.9720 H   0  0  0  0  0  0  0  0  0  0  0  0
   37.2940   30.2160   42.2210 H   0  0  0  0  0  0  0  0  0  0  0  0
   37.5320   32.1480   40.3760 C   0  0  0  0  0  0  0  0  0  0  0  0
   37.3500   33.2770   39.6130 C   0  0  0  0  0  0  0  0  0  0  0  0
   36.6720   33.4580   38.7870 H   0  0  0  0  0  0  0  0  0  0  0  0
   38.2410   34.2420   40.0940 C   0  0  0  0  0  0  0  0  0  0  0  0
   38.4200   35.2610   39.7750 H   0  0  0  0  0  0  0  0  0  0  0  0
   38.9210   33.6690   41.1180 N   0  0  0  0  0  0  0  0  0  0  0  0
   39.6640   34.0310   41.7400 H   0  0  0  0  0  0  0  0  0  0  0  0
   38.4920   32.4370   41.2720 N   0  0  0  0  0  0  0  0  0  0  0  0
  1  4  1  6  0  0  0
  1  3  1  0  0  0  0
  1 29  1  0  0  0  0
  2  1  1  0  0  0  0
  2  3  1  0  0  0  0
  2  5  1  0  0  0  0
  3  7  1  1  0  0  0
  6  2  1  0  0  0  0
  8 17  1  0  0  0  0
  8  3  1  0  0  0  0
  9  8  2  0  0  0  0
 10 11  2  0  0  0  0
 10  9  1  0  0  0  0
 11 12  1  0  0  0  0
 12 13  2  0  0  0  0
 12 17  1  0  0  0  0
 13 14  1  0  0  0  0
 14 22  1  0  0  0  0
 14 15  2  0  0  0  0
 15 23  1  0  0  0  0
 16 15  1  0  0  0  0
 16 24  1  0  0  0  0
 17 16  2  0  0  0  0
 18  9  1  0  0  0  0
 19 10  1  0  0  0  0
 20 11  1  0  0  0  0
 21 13  1  0  0  0  0
 25 26  1  0  0  0  0
 25 31  1  0  0  0  0
 26 32  1  0  0  0  0
 27 33  1  0  0  0  0
 27 26  2  0  0  0  0
 28 27  1  0  0  0  0
 29 28  2  0  0  0  0
 29 30  1  0  0  0  0
 30 25  2  0  0  0  0
 33 40  2  0  0  0  0
 34 36  2  0  0  0  0
 34 33  1  0  0  0  0
 35 34  1  0  0  0  0
 36 38  1  0  0  0  0
 37 36  1  0  0  0  0
 38 40  1  0  0  0  0
 38 39  1  0  0  0  0
M  END
>  <minimizedAffinity>
-6.5738821

$$$$

 OpenBabel03252508273D

 40 44  0  0  1  0  0  0  0  0999 V2000
   38.5680   29.2760   41.7290 C   0  0  1  0  0  0  0  0  0  0  0  0
   37.9070   29.3100   43.0410 C   0  0  0  0  0  0  0  0  0  0  0  0
   37.8610   28.0600   42.0760 C   0  0  2  0  0  0  0  0  0  0  0  0
   39.6740   29.4950   41.9500 H   0  0  0  0  0  0  0  0  0  0  0  0
   36.9480   29.8280   43.2050 H   0  0  0  0  0  0  0  0  0  0  0  0
   38.3930   29.0110   43.9850 H   0  0  0  0  0  0  0  0  0  0  0  0
   36.7490   27.9140   41.9320 H   0  0  0  0  0  0  0  0  0  0  0  0
   38.4850   26.8000   42.4940 C   0  0  0  0  0  0  0  0  0  0  0  0
   39.4770   26.6290   43.4030 C   0  0  0  0  0  0  0  0  0  0  0  0
   40.1240   25.4310   43.6790 C   0  0  0  0  0  0  0  0  0  0  0  0
   39.7040   24.3100   42.9490 C   0  0  0  0  0  0  0  0  0  0  0  0
   38.6820   24.4560   42.0090 C   0  0  0  0  0  0  0  0  0  0  0  0
   38.2580   23.3090   41.3620 C   0  0  0  0  0  0  0  0  0  0  0  0
   37.1950   23.3960   40.4730 C   0  0  0  0  0  0  0  0  0  0  0  0
   36.5690   24.6040   40.2420 C   0  0  0  0  0  0  0  0  0  0  0  0
   37.0320   25.7120   40.9120 C   0  0  0  0  0  0  0  0  0  0  0  0
   38.0940   25.6810   41.8010 C   0  0  0  0  0  0  0  0  0  0  0  0
   39.7730   27.5200   43.9460 H   0  0  0  0  0  0  0  0  0  0  0  0
   40.9090   25.3680   44.4200 H   0  0  0  0  0  0  0  0  0  0  0  0
   40.1770   23.3550   43.1240 H   0  0  0  0  0  0  0  0  0  0  0  0
   38.7720   22.3730   41.5680 H   0  0  0  0  0  0  0  0  0  0  0  0
   36.9490   22.4320   40.0190 H   0  0  0  0  0  0  0  0  0  0  0  0
   35.7800   24.4670   39.5370 H   0  0  0  0  0  0  0  0  0  0  0  0
   36.3550   26.4700   40.6390 H   0  0  0  0  0  0  0  0  0  0  0  0
   37.2500   32.1450   39.8160 C   0  0  0  0  0  0  0  0  0  0  0  0
   37.1060   31.5920   38.4970 C   0  0  0  0  0  0  0  0  0  0  0  0
   37.4880   30.2230   38.3110 C   0  0  0  0  0  0  0  0  0  0  0  0
   37.9570   29.5240   39.3510 N   0  0  0  0  0  0  0  0  0  0  0  0
   38.0720   30.1100   40.5950 C   0  0  0  0  0  0  0  0  0  0  0  0
   37.7290   31.3750   40.8150 N   0  0  0  0  0  0  0  0  0  0  0  0
   36.9520   33.1750   39.9190 H   0  0  0  0  0  0  0  0  0  0  0  0
   36.7330   32.1450   37.6650 H   0  0  0  0  0  0  0  0  0  0  0  0
   37.3570   29.6270   36.9880 C   0  0  0  0  0  0  0  0  0  0  0  0
   36.4040   29.9510   36.0510 C   0  0  0  0  0  0  0  0  0  0  0  0
   35.5990   30.6760   36.1000 H   0  0  0  0  0  0  0  0  0  0  0  0
   36.6400   29.1470   34.9330 C   0  0  0  0  0  0  0  0  0  0  0  0
   36.1220   29.0850   33.9830 H   0  0  0  0  0  0  0  0  0  0  0  0
   37.7140   28.3730   35.2280 N   0  0  0  0  0  0  0  0  0  0  0  0
   38.2130   27.6490   34.6840 H   0  0  0  0  0  0  0  0  0  0  0  0
   38.1250   28.6680   36.4410 N   0  0  0  0  0  0  0  0  0  0  0  0
  1  4  1  1  0  0  0
  1  3  1  0  0  0  0
  1  2  1  0  0  0  0
  2  5  1  0  0  0  0
  2  6  1  0  0  0  0
  3  7  1  6  0  0  0
  3  8  1  0  0  0  0
  3  2  1  0  0  0  0
  8  9  1  0  0  0  0
  9 10  2  0  0  0  0
  9 18  1  0  0  0  0
 10 19  1  0  0  0  0
 11 20  1  0  0  0  0
 11 10  1  0  0  0  0
 12 11  2  0  0  0  0
 13 21  1  0  0  0  0
 13 12  1  0  0  0  0
 14 13  2  0  0  0  0
 15 14  1  0  0  0  0
 15 16  2  0  0  0  0
 16 17  1  0  0  0  0
 17 12  1  0  0  0  0
 17  8  2  0  0  0  0
 22 14  1  0  0  0  0
 23 15  1  0  0  0  0
 24 16  1  0  0  0  0
 25 31  1  0  0  0  0
 25 30  1  0  0  0  0
 26 25  2  0  0  0  0
 27 26  1  0  0  0  0
 27 28  2  0  0  0  0
 28 29  1  0  0  0  0
 29 30  2  0  0  0  0
 29  1  1  0  0  0  0
 32 26  1  0  0  0  0
 33 27  1  0  0  0  0
 34 35  1  0  0  0  0
 34 33  1  0  0  0  0
 36 38  1  0  0  0  0
 36 34  2  0  0  0  0
 37 36  1  0  0  0  0
 38 40  1  0  0  0  0
 39 38  1  0  0  0  0
 40 33  2  0  0  0  0
M  END
>  <minimizedAffinity>
-6.51276875

$$$$

 OpenBabel03252508273D

 40 44  0  0  1  0  0  0  0  0999 V2000
   36.3340   29.2990   39.2780 C   0  0  1  0  0  0  0  0  0  0  0  0
   35.8170   30.2410   40.2800 C   0  0  0  0  0  0  0  0  0  0  0  0
   35.8850   28.6800   40.5090 C   0  0  2  0  0  0  0  0  0  0  0  0
   37.4030   29.6580   39.0590 H   0  0  0  0  0  0  0  0  0  0  0  0
   34.8070   30.6770   40.2160 H   0  0  0  0  0  0  0  0  0  0  0  0
   36.4450   30.7380   41.0400 H   0  0  0  0  0  0  0  0  0  0  0  0
   34.8050   28.4270   40.7300 H   0  0  0  0  0  0  0  0  0  0  0  0
   36.7550   28.1390   41.5580 C   0  0  0  0  0  0  0  0  0  0  0  0
   37.2980   28.8030   42.6080 C   0  0  0  0  0  0  0  0  0  0  0  0
   38.2160   28.2800   43.5110 C   0  0  0  0  0  0  0  0  0  0  0  0
   38.6060   26.9490   43.3050 C   0  0  0  0  0  0  0  0  0  0  0  0
   38.0610   26.2390   42.2340 C   0  0  0  0  0  0  0  0  0  0  0  0
   38.4260   24.9100   42.1130 C   0  0  0  0  0  0  0  0  0  0  0  0
   37.8510   24.1470   41.1050 C   0  0  0  0  0  0  0  0  0  0  0  0
   36.9290   24.7030   40.2420 C   0  0  0  0  0  0  0  0  0  0  0  0
   36.6030   26.0280   40.4080 C   0  0  0  0  0  0  0  0  0  0  0  0
   37.1540   26.8350   41.3900 C   0  0  0  0  0  0  0  0  0  0  0  0
   36.9710   29.8300   42.7320 H   0  0  0  0  0  0  0  0  0  0  0  0
   38.6080   28.8700   44.3280 H   0  0  0  0  0  0  0  0  0  0  0  0
   39.3200   26.4970   43.9780 H   0  0  0  0  0  0  0  0  0  0  0  0
   39.1550   24.5040   42.8110 H   0  0  0  0  0  0  0  0  0  0  0  0
   38.2150   23.1160   41.1020 H   0  0  0  0  0  0  0  0  0  0  0  0
   36.6020   23.9630   39.5460 H   0  0  0  0  0  0  0  0  0  0  0  0
   35.8380   26.1880   39.7030 H   0  0  0  0  0  0  0  0  0  0  0  0
   33.7740   28.0550   36.9270 C   0  0  0  0  0  0  0  0  0  0  0  0
   34.2730   28.5160   35.6600 C   0  0  0  0  0  0  0  0  0  0  0  0
   35.4950   29.2660   35.6670 C   0  0  0  0  0  0  0  0  0  0  0  0
   36.1140   29.5040   36.8290 N   0  0  0  0  0  0  0  0  0  0  0  0
   35.5860   29.0340   38.0140 C   0  0  0  0  0  0  0  0  0  0  0  0
   34.4560   28.3350   38.0570 N   0  0  0  0  0  0  0  0  0  0  0  0
   32.8550   27.4940   36.8840 H   0  0  0  0  0  0  0  0  0  0  0  0
   33.7830   28.3290   34.7320 H   0  0  0  0  0  0  0  0  0  0  0  0
   36.0330   29.7510   34.4020 C   0  0  0  0  0  0  0  0  0  0  0  0
   36.0410   31.0600   33.9820 C   0  0  0  0  0  0  0  0  0  0  0  0
   35.6690   31.9510   34.4750 H   0  0  0  0  0  0  0  0  0  0  0  0
   36.6460   31.0810   32.7220 C   0  0  0  0  0  0  0  0  0  0  0  0
   36.8480   31.9040   32.0480 H   0  0  0  0  0  0  0  0  0  0  0  0
   36.9800   29.7990   32.4280 N   0  0  0  0  0  0  0  0  0  0  0  0
   37.4400   29.3790   31.6040 H   0  0  0  0  0  0  0  0  0  0  0  0
   36.6120   29.0290   33.4270 N   0  0  0  0  0  0  0  0  0  0  0  0
  1  4  1  6  0  0  0
  1  2  1  0  0  0  0
  1  3  1  0  0  0  0
  2  3  1  0  0  0  0
  2  6  1  0  0  0  0
  3  7  1  6  0  0  0
  3  8  1  0  0  0  0
  5  2  1  0  0  0  0
  8  9  1  0  0  0  0
  9 18  1  0  0  0  0
  9 10  2  0  0  0  0
 10 19  1  0  0  0  0
 11 10  1  0  0  0  0
 11 20  1  0  0  0  0
 12 11  2  0  0  0  0
 13 12  1  0  0  0  0
 13 21  1  0  0  0  0
 14 13  2  0  0  0  0
 15 16  2  0  0  0  0
 15 14  1  0  0  0  0
 16 17  1  0  0  0  0
 17  8  2  0  0  0  0
 17 12  1  0  0  0  0
 22 14  1  0  0  0  0
 23 15  1  0  0  0  0
 24 16  1  0  0  0  0
 25 30  1  0  0  0  0
 26 27  1  0  0  0  0
 26 25  2  0  0  0  0
 27 28  2  0  0  0  0
 28 29  1  0  0  0  0
 29 30  2  0  0  0  0
 29  1  1  0  0  0  0
 31 25  1  0  0  0  0
 32 26  1  0  0  0  0
 33 27  1  0  0  0  0
 34 33  1  0  0  0  0
 34 35  1  0  0  0  0
 36 34  2  0  0  0  0
 37 36  1  0  0  0  0
 38 36  1  0  0  0  0
 38 40  1  0  0  0  0
 39 38  1  0  0  0  0
 40 33  2  0  0  0  0
M  END
>  <minimizedAffinity>
-6.45845366

$$$$

 OpenBabel03252508273D

 40 44  0  0  1  0  0  0  0  0999 V2000
   38.4160   29.2850   41.2630 C   0  0  1  0  0  0  0  0  0  0  0  0
   38.1570   29.1390   42.7020 C   0  0  0  0  0  0  0  0  0  0  0  0
   37.2060   28.5560   41.5840 C   0  0  2  0  0  0  0  0  0  0  0  0
   39.4550   28.8220   41.1010 H   0  0  0  0  0  0  0  0  0  0  0  0
   37.7400   29.9550   43.3130 H   0  0  0  0  0  0  0  0  0  0  0  0
   38.5370   28.3030   43.3150 H   0  0  0  0  0  0  0  0  0  0  0  0
   36.2190   29.0500   41.8330 H   0  0  0  0  0  0  0  0  0  0  0  0
   37.0290   27.1050   41.4680 C   0  0  0  0  0  0  0  0  0  0  0  0
   37.3110   26.1590   42.3990 C   0  0  0  0  0  0  0  0  0  0  0  0
   37.2430   24.7850   42.2040 C   0  0  0  0  0  0  0  0  0  0  0  0
   36.8470   24.3530   40.9300 C   0  0  0  0  0  0  0  0  0  0  0  0
   36.5460   25.3040   39.9530 C   0  0  0  0  0  0  0  0  0  0  0  0
   36.0960   24.8290   38.7350 C   0  0  0  0  0  0  0  0  0  0  0  0
   35.7160   25.7410   37.7590 C   0  0  0  0  0  0  0  0  0  0  0  0
   35.7830   27.0980   38.0020 C   0  0  0  0  0  0  0  0  0  0  0  0
   36.2380   27.5150   39.2310 C   0  0  0  0  0  0  0  0  0  0  0  0
   36.6370   26.6470   40.2340 C   0  0  0  0  0  0  0  0  0  0  0  0
   37.6150   26.5350   43.3700 H   0  0  0  0  0  0  0  0  0  0  0  0
   37.4830   24.0870   42.9950 H   0  0  0  0  0  0  0  0  0  0  0  0
   36.7810   23.2940   40.7270 H   0  0  0  0  0  0  0  0  0  0  0  0
   36.0550   23.7530   38.5770 H   0  0  0  0  0  0  0  0  0  0  0  0
   35.3810   25.2550   36.8390 H   0  0  0  0  0  0  0  0  0  0  0  0
   35.4470   27.6310   37.1410 H   0  0  0  0  0  0  0  0  0  0  0  0
   36.1160   28.5590   39.2020 H   0  0  0  0  0  0  0  0  0  0  0  0
   37.0390   32.4910   40.0570 C   0  0  0  0  0  0  0  0  0  0  0  0
   38.1350   33.0280   39.2970 C   0  0  0  0  0  0  0  0  0  0  0  0
   39.3390   32.2510   39.2380 C   0  0  0  0  0  0  0  0  0  0  0  0
   39.3960   31.0780   39.8800 N   0  0  0  0  0  0  0  0  0  0  0  0
   38.3100   30.6150   40.5930 C   0  0  0  0  0  0  0  0  0  0  0  0
   37.1740   31.3000   40.6760 N   0  0  0  0  0  0  0  0  0  0  0  0
   36.1510   33.1000   40.0790 H   0  0  0  0  0  0  0  0  0  0  0  0
   38.0930   33.9620   38.7850 H   0  0  0  0  0  0  0  0  0  0  0  0
   40.4720   32.7620   38.4780 C   0  0  0  0  0  0  0  0  0  0  0  0
   41.3230   33.7640   38.8810 C   0  0  0  0  0  0  0  0  0  0  0  0
   41.3280   34.3490   39.7940 H   0  0  0  0  0  0  0  0  0  0  0  0
   42.2620   33.9370   37.8600 C   0  0  0  0  0  0  0  0  0  0  0  0
   43.1000   34.6190   37.7760 H   0  0  0  0  0  0  0  0  0  0  0  0
   41.9500   33.0440   36.8870 N   0  0  0  0  0  0  0  0  0  0  0  0
   42.3850   32.8430   35.9710 H   0  0  0  0  0  0  0  0  0  0  0  0
   40.8950   32.3610   37.2660 N   0  0  0  0  0  0  0  0  0  0  0  0
  1  4  1  6  0  0  0
  1  3  1  0  0  0  0
  1  2  1  0  0  0  0
  2  5  1  0  0  0  0
  2  6  1  0  0  0  0
  3  7  1  6  0  0  0
  3  2  1  0  0  0  0
  8  3  1  0  0  0  0
  8  9  1  0  0  0  0
  9 18  1  0  0  0  0
 10  9  2  0  0  0  0
 10 19  1  0  0  0  0
 11 10  1  0  0  0  0
 12 17  1  0  0  0  0
 12 11  2  0  0  0  0
 13 12  1  0  0  0  0
 14 15  1  0  0  0  0
 14 13  2  0  0  0  0
 15 16  2  0  0  0  0
 16 17  1  0  0  0  0
 17  8  2  0  0  0  0
 20 11  1  0  0  0  0
 21 13  1  0  0  0  0
 22 14  1  0  0  0  0
 23 15  1  0  0  0  0
 24 16  1  0  0  0  0
 25 31  1  0  0  0  0
 25 30  1  0  0  0  0
 26 25  2  0  0  0  0
 27 26  1  0  0  0  0
 27 28  2  0  0  0  0
 28 29  1  0  0  0  0
 29 30  2  0  0  0  0
 29  1  1  0  0  0  0
 32 26  1  0  0  0  0
 33 34  1  0  0  0  0
 33 27  1  0  0  0  0
 34 35  1  0  0  0  0
 36 34  2  0  0  0  0
 37 36  1  0  0  0  0
 38 40  1  0  0  0  0
 38 36  1  0  0  0  0
 39 38  1  0  0  0  0
 40 33  2  0  0  0  0
M  END
>  <minimizedAffinity>
-6.41481447

$$$$

 OpenBabel03252508273D

 40 44  0  0  1  0  0  0  0  0999 V2000
   34.1960   29.1550   35.2410 C   0  0  1  0  0  0  0  0  0  0  0  0
   33.2230   28.1270   34.8420 C   0  0  0  0  0  0  0  0  0  0  0  0
   32.8940   29.2850   35.8640 C   0  0  2  0  0  0  0  0  0  0  0  0
   34.5200   29.6510   34.2570 H   0  0  0  0  0  0  0  0  0  0  0  0
   33.2390   27.1070   35.2580 H   0  0  0  0  0  0  0  0  0  0  0  0
   32.5500   28.2190   33.9730 H   0  0  0  0  0  0  0  0  0  0  0  0
   32.5730   28.7070   36.7810 H   0  0  0  0  0  0  0  0  0  0  0  0
   31.8800   30.2880   35.5200 C   0  0  0  0  0  0  0  0  0  0  0  0
   31.7900   31.0170   34.3800 C   0  0  0  0  0  0  0  0  0  0  0  0
   30.8850   32.0450   34.1450 C   0  0  0  0  0  0  0  0  0  0  0  0
   29.9920   32.3410   35.1850 C   0  0  0  0  0  0  0  0  0  0  0  0
   30.0580   31.6040   36.3680 C   0  0  0  0  0  0  0  0  0  0  0  0
   29.1150   31.8900   37.3380 C   0  0  0  0  0  0  0  0  0  0  0  0
   29.0980   31.1310   38.5010 C   0  0  0  0  0  0  0  0  0  0  0  0
   30.0050   30.1080   38.6850 C   0  0  0  0  0  0  0  0  0  0  0  0
   30.9220   29.8680   37.6890 C   0  0  0  0  0  0  0  0  0  0  0  0
   30.9860   30.6000   36.5150 C   0  0  0  0  0  0  0  0  0  0  0  0
   32.4990   30.7570   33.6010 H   0  0  0  0  0  0  0  0  0  0  0  0
   30.8700   32.5850   33.2080 H   0  0  0  0  0  0  0  0  0  0  0  0
   29.2700   33.1330   35.0530 H   0  0  0  0  0  0  0  0  0  0  0  0
   28.4130   32.7030   37.1600 H   0  0  0  0  0  0  0  0  0  0  0  0
   28.3140   31.4470   39.1960 H   0  0  0  0  0  0  0  0  0  0  0  0
   29.8320   29.6440   39.6300 H   0  0  0  0  0  0  0  0  0  0  0  0
   31.4310   29.0080   38.0190 H   0  0  0  0  0  0  0  0  0  0  0  0
   37.4450   27.7600   36.3020 C   0  0  0  0  0  0  0  0  0  0  0  0
   37.5040   28.1440   37.6860 C   0  0  0  0  0  0  0  0  0  0  0  0
   36.4010   28.8960   38.2090 C   0  0  0  0  0  0  0  0  0  0  0  0
   35.3770   29.2080   37.4060 N   0  0  0  0  0  0  0  0  0  0  0  0
   35.3770   28.8110   36.0850 C   0  0  0  0  0  0  0  0  0  0  0  0
   36.3770   28.1120   35.5560 N   0  0  0  0  0  0  0  0  0  0  0  0
   38.2890   27.1960   35.9430 H   0  0  0  0  0  0  0  0  0  0  0  0
   38.3180   27.8990   38.3300 H   0  0  0  0  0  0  0  0  0  0  0  0
   36.4250   29.3040   39.6080 C   0  0  0  0  0  0  0  0  0  0  0  0
   37.1980   28.7410   40.5960 C   0  0  0  0  0  0  0  0  0  0  0  0
   37.9080   27.9230   40.5430 H   0  0  0  0  0  0  0  0  0  0  0  0
   36.9140   29.4290   41.7790 C   0  0  0  0  0  0  0  0  0  0  0  0
   37.3020   29.3020   42.7820 H   0  0  0  0  0  0  0  0  0  0  0  0
   35.9900   30.3730   41.4690 N   0  0  0  0  0  0  0  0  0  0  0  0
   35.5150   31.0880   42.0460 H   0  0  0  0  0  0  0  0  0  0  0  0
   35.7130   30.2870   40.1880 N   0  0  0  0  0  0  0  0  0  0  0  0
  1  4  1  6  0  0  0
  1  3  1  0  0  0  0
  1 29  1  0  0  0  0
  2  1  1  0  0  0  0
  2  5  1  0  0  0  0
  2  3  1  0  0  0  0
  3  7  1  1  0  0  0
  6  2  1  0  0  0  0
  8  3  1  0  0  0  0
  8 17  1  0  0  0  0
  9  8  2  0  0  0  0
 10  9  1  0  0  0  0
 10 11  2  0  0  0  0
 11 12  1  0  0  0  0
 12 17  2  0  0  0  0
 12 13  1  0  0  0  0
 13 14  2  0  0  0  0
 14 15  1  0  0  0  0
 14 22  1  0  0  0  0
 15 23  1  0  0  0  0
 16 24  1  0  0  0  0
 16 15  2  0  0  0  0
 17 16  1  0  0  0  0
 18  9  1  0  0  0  0
 19 10  1  0  0  0  0
 20 11  1  0  0  0  0
 21 13  1  0  0  0  0
 25 26  1  0  0  0  0
 26 27  2  0  0  0  0
 26 32  1  0  0  0  0
 27 33  1  0  0  0  0
 28 27  1  0  0  0  0
 29 28  2  0  0  0  0
 30 29  1  0  0  0  0
 30 25  2  0  0  0  0
 31 25  1  0  0  0  0
 33 40  2  0  0  0  0
 33 34  1  0  0  0  0
 34 36  2  0  0  0  0
 35 34  1  0  0  0  0
 36 37  1  0  0  0  0
 38 36  1  0  0  0  0
 38 39  1  0  0  0  0
 40 38  1  0  0  0  0
M  END
>  <minimizedAffinity>
-6.25956202

$$$$

 OpenBabel03252508273D

 40 44  0  0  1  0  0  0  0  0999 V2000
   33.0670   28.6930   36.9500 C   0  0  1  0  0  0  0  0  0  0  0  0
   34.2070   29.0220   36.0830 C   0  0  0  0  0  0  0  0  0  0  0  0
   34.2840   29.0290   37.6600 C   0  0  2  0  0  0  0  0  0  0  0  0
   32.7480   27.6370   36.6290 H   0  0  0  0  0  0  0  0  0  0  0  0
   34.3100   30.0030   35.5900 H   0  0  0  0  0  0  0  0  0  0  0  0
   34.9230   28.2780   35.6960 H   0  0  0  0  0  0  0  0  0  0  0  0
   34.6170   30.0880   37.8760 H   0  0  0  0  0  0  0  0  0  0  0  0
   35.1630   28.0750   38.3460 C   0  0  0  0  0  0  0  0  0  0  0  0
   35.3950   26.7800   38.0180 C   0  0  0  0  0  0  0  0  0  0  0  0
   36.1400   25.8760   38.7660 C   0  0  0  0  0  0  0  0  0  0  0  0
   36.6920   26.3590   39.9600 C   0  0  0  0  0  0  0  0  0  0  0  0
   36.4730   27.6890   40.3220 C   0  0  0  0  0  0  0  0  0  0  0  0
   37.0940   28.1350   41.4750 C   0  0  0  0  0  0  0  0  0  0  0  0
   36.9620   29.4700   41.8320 C   0  0  0  0  0  0  0  0  0  0  0  0
   36.2280   30.3380   41.0500 C   0  0  0  0  0  0  0  0  0  0  0  0
   35.6310   29.8410   39.9150 C   0  0  0  0  0  0  0  0  0  0  0  0
   35.7240   28.5170   39.5190 C   0  0  0  0  0  0  0  0  0  0  0  0
   34.9500   26.4460   37.0870 H   0  0  0  0  0  0  0  0  0  0  0  0
   36.2840   24.8540   38.4410 H   0  0  0  0  0  0  0  0  0  0  0  0
   37.2780   25.6950   40.5790 H   0  0  0  0  0  0  0  0  0  0  0  0
   37.6660   27.4250   42.0680 H   0  0  0  0  0  0  0  0  0  0  0  0
   37.4900   29.7100   42.7600 H   0  0  0  0  0  0  0  0  0  0  0  0
   36.2470   31.3130   41.4830 H   0  0  0  0  0  0  0  0  0  0  0  0
   35.2150   30.6910   39.4580 H   0  0  0  0  0  0  0  0  0  0  0  0
   30.1860   30.5390   38.3350 C   0  0  0  0  0  0  0  0  0  0  0  0
   29.6880   31.2380   37.1810 C   0  0  0  0  0  0  0  0  0  0  0  0
   30.3880   31.0510   35.9440 C   0  0  0  0  0  0  0  0  0  0  0  0
   31.4580   30.2480   35.9100 N   0  0  0  0  0  0  0  0  0  0  0  0
   31.8890   29.6030   37.0510 C   0  0  0  0  0  0  0  0  0  0  0  0
   31.2720   29.7460   38.2190 N   0  0  0  0  0  0  0  0  0  0  0  0
   29.6360   30.7030   39.2460 H   0  0  0  0  0  0  0  0  0  0  0  0
   28.8360   31.8790   37.2040 H   0  0  0  0  0  0  0  0  0  0  0  0
   29.9140   31.7420   34.7530 C   0  0  0  0  0  0  0  0  0  0  0  0
   30.4380   31.6130   33.4880 C   0  0  0  0  0  0  0  0  0  0  0  0
   31.2640   31.0060   33.1350 H   0  0  0  0  0  0  0  0  0  0  0  0
   29.6910   32.4460   32.6500 C   0  0  0  0  0  0  0  0  0  0  0  0
   29.7730   32.6390   31.5870 H   0  0  0  0  0  0  0  0  0  0  0  0
   28.7520   33.0420   33.4280 N   0  0  0  0  0  0  0  0  0  0  0  0
   28.0060   33.7240   33.2080 H   0  0  0  0  0  0  0  0  0  0  0  0
   28.8970   32.6170   34.6620 N   0  0  0  0  0  0  0  0  0  0  0  0
  1  4  1  1  0  0  0
  1 29  1  0  0  0  0
  1  3  1  0  0  0  0
  2  1  1  0  0  0  0
  2  3  1  0  0  0  0
  3  7  1  1  0  0  0
  3  8  1  0  0  0  0
  5  2  1  0  0  0  0
  6  2  1  0  0  0  0
  8 17  1  0  0  0  0
  9  8  2  0  0  0  0
  9 10  1  0  0  0  0
 10 11  2  0  0  0  0
 11 12  1  0  0  0  0
 11 20  1  0  0  0  0
 12 13  1  0  0  0  0
 13 14  2  0  0  0  0
 13 21  1  0  0  0  0
 14 22  1  0  0  0  0
 15 23  1  0  0  0  0
 15 14  1  0  0  0  0
 16 15  2  0  0  0  0
 17 16  1  0  0  0  0
 17 12  2  0  0  0  0
 18  9  1  0  0  0  0
 19 10  1  0  0  0  0
 24 16  1  0  0  0  0
 25 31  1  0  0  0  0
 26 32  1  0  0  0  0
 26 25  2  0  0  0  0
 27 26  1  0  0  0  0
 28 27  2  0  0  0  0
 28 29  1  0  0  0  0
 29 30  2  0  0  0  0
 30 25  1  0  0  0  0
 33 27  1  0  0  0  0
 34 33  1  0  0  0  0
 35 34  1  0  0  0  0
 36 38  1  0  0  0  0
 36 34  2  0  0  0  0
 37 36  1  0  0  0  0
 38 40  1  0  0  0  0
 39 38  1  0  0  0  0
 40 33  2  0  0  0  0
M  END
>  <minimizedAffinity>
-6.09927845

$$$$

 OpenBabel03252508273D

 40 44  0  0  1  0  0  0  0  0999 V2000
   38.0140   28.9650   42.0260 C   0  0  1  0  0  0  0  0  0  0  0  0
   36.6650   29.2790   41.5340 C   0  0  0  0  0  0  0  0  0  0  0  0
   37.5670   28.1350   40.9250 C   0  0  2  0  0  0  0  0  0  0  0  0
   37.8740   28.7310   43.1420 H   0  0  0  0  0  0  0  0  0  0  0  0
   36.4620   30.1380   40.8740 H   0  0  0  0  0  0  0  0  0  0  0  0
   35.7420   28.8270   41.9340 H   0  0  0  0  0  0  0  0  0  0  0  0
   37.6340   28.4410   39.8380 H   0  0  0  0  0  0  0  0  0  0  0  0
   37.1350   26.7380   41.0310 C   0  0  0  0  0  0  0  0  0  0  0  0
   37.2660   25.9090   42.0970 C   0  0  0  0  0  0  0  0  0  0  0  0
   36.9530   24.5550   42.1130 C   0  0  0  0  0  0  0  0  0  0  0  0
   36.4590   24.0140   40.9180 C   0  0  0  0  0  0  0  0  0  0  0  0
   36.3100   24.8430   39.8060 C   0  0  0  0  0  0  0  0  0  0  0  0
   35.7570   24.2780   38.6710 C   0  0  0  0  0  0  0  0  0  0  0  0
   35.5230   25.0850   37.5660 C   0  0  0  0  0  0  0  0  0  0  0  0
   35.8320   26.4290   37.6000 C   0  0  0  0  0  0  0  0  0  0  0  0
   36.3800   26.9390   38.7530 C   0  0  0  0  0  0  0  0  0  0  0  0
   36.6420   26.1760   39.8790 C   0  0  0  0  0  0  0  0  0  0  0  0
   37.6520   26.3670   43.0010 H   0  0  0  0  0  0  0  0  0  0  0  0
   37.0830   23.9540   43.0020 H   0  0  0  0  0  0  0  0  0  0  0  0
   36.2030   22.9650   40.8780 H   0  0  0  0  0  0  0  0  0  0  0  0
   35.5240   23.2150   38.6790 H   0  0  0  0  0  0  0  0  0  0  0  0
   35.0880   24.5320   36.7280 H   0  0  0  0  0  0  0  0  0  0  0  0
   35.5780   26.8770   36.6650 H   0  0  0  0  0  0  0  0  0  0  0  0
   36.4440   27.9720   38.5640 H   0  0  0  0  0  0  0  0  0  0  0  0
   40.9250   31.1360   42.6910 C   0  0  0  0  0  0  0  0  0  0  0  0
   41.1900   31.6960   41.3940 C   0  0  0  0  0  0  0  0  0  0  0  0
   40.3430   31.2860   40.3130 C   0  0  0  0  0  0  0  0  0  0  0  0
   39.3550   30.4130   40.5460 N   0  0  0  0  0  0  0  0  0  0  0  0
   39.1490   29.9100   41.8140 C   0  0  0  0  0  0  0  0  0  0  0  0
   39.9090   30.2610   42.8460 N   0  0  0  0  0  0  0  0  0  0  0  0
   41.5800   31.4670   43.4800 H   0  0  0  0  0  0  0  0  0  0  0  0
   41.9760   32.3920   41.2040 H   0  0  0  0  0  0  0  0  0  0  0  0
   40.5800   31.8330   38.9830 C   0  0  0  0  0  0  0  0  0  0  0  0
   41.7380   32.4410   38.5600 C   0  0  0  0  0  0  0  0  0  0  0  0
   42.6610   32.6310   39.0960 H   0  0  0  0  0  0  0  0  0  0  0  0
   41.5410   32.8130   37.2270 C   0  0  0  0  0  0  0  0  0  0  0  0
   42.1970   33.3150   36.5270 H   0  0  0  0  0  0  0  0  0  0  0  0
   40.2850   32.4210   36.8950 N   0  0  0  0  0  0  0  0  0  0  0  0
   39.7470   32.5030   36.0150 H   0  0  0  0  0  0  0  0  0  0  0  0
   39.7330   31.8450   37.9390 N   0  0  0  0  0  0  0  0  0  0  0  0
  1  4  1  1  0  0  0
  2  6  1  0  0  0  0
  2  1  1  0  0  0  0
  3  7  1  6  0  0  0
  3  8  1  0  0  0  0
  3  2  1  0  0  0  0
  3  1  1  0  0  0  0
  5  2  1  0  0  0  0
  8  9  1  0  0  0  0
  9 10  2  0  0  0  0
  9 18  1  0  0  0  0
 10 19  1  0  0  0  0
 11 10  1  0  0  0  0
 12 17  1  0  0  0  0
 12 11  2  0  0  0  0
 13 21  1  0  0  0  0
 13 12  1  0  0  0  0
 14 15  1  0  0  0  0
 14 13  2  0  0  0  0
 15 16  2  0  0  0  0
 16 17  1  0  0  0  0
 17  8  2  0  0  0  0
 20 11  1  0  0  0  0
 22 14  1  0  0  0  0
 23 15  1  0  0  0  0
 24 16  1  0  0  0  0
 25 30  1  0  0  0  0
 25 31  1  0  0  0  0
 26 25  2  0  0  0  0
 27 28  2  0  0  0  0
 27 26  1  0  0  0  0
 28 29  1  0  0  0  0
 29  1  1  0  0  0  0
 29 30  2  0  0  0  0
 32 26  1  0  0  0  0
 33 27  1  0  0  0  0
 34 33  1  0  0  0  0
 34 35  1  0  0  0  0
 36 34  2  0  0  0  0
 37 36  1  0  0  0  0
 38 36  1  0  0  0  0
 38 40  1  0  0  0  0
 39 38  1  0  0  0  0
 40 33  2  0  0  0  0
M  END
>  <minimizedAffinity>
-6.06718016

$$$$
