
 OpenBabel03242521373D

 20 21  0  0  0  0  0  0  0  0999 V2000
   45.2920   35.0700   43.1390 C   0  0  0  0  0  0  0  0  0  0  0  0
   46.5890   34.8740   42.6200 C   0  0  0  0  0  0  0  0  0  0  0  0
   47.4560   34.0700   43.3650 C   0  0  0  0  0  0  0  0  0  0  0  0
   47.0170   33.5320   44.5220 N   0  0  0  0  0  0  0  0  0  0  0  0
   45.7650   33.7440   44.9860 C   0  0  0  0  0  0  0  0  0  0  0  0
   44.9070   34.5180   44.2850 N   0  0  0  0  0  0  0  0  0  0  0  0
   46.9120   35.3220   41.6830 H   0  0  0  0  0  0  0  0  0  0  0  0
   45.4320   33.3080   45.9100 H   0  0  0  0  0  0  0  0  0  0  0  0
   48.8160   33.8120   42.9060 C   0  0  0  0  0  0  0  0  0  0  0  0
   49.2950   32.5850   42.4970 C   0  0  0  0  0  0  0  0  0  0  0  0
   48.7410   31.6750   42.4630 H   0  0  0  0  0  0  0  0  0  0  0  0
   50.6290   32.8380   42.1580 C   0  0  0  0  0  0  0  0  0  0  0  0
   51.2780   32.0480   41.7930 H   0  0  0  0  0  0  0  0  0  0  0  0
   50.9020   34.1420   42.3600 N   0  0  0  0  0  0  0  0  0  0  0  0
   51.8320   34.5940   42.1830 H   0  0  0  0  0  0  0  0  0  0  0  0
   49.7980   34.7190   42.8130 N   0  0  0  0  0  0  0  0  0  0  0  0
   44.3630   35.9280   42.3470 C   0  0  0  0  0  0  0  0  0  0  0  0
   43.5780   36.3050   43.0550 H   0  0  0  0  0  0  0  0  0  0  0  0
   43.8780   35.2520   41.6030 H   0  0  0  0  0  0  0  0  0  0  0  0
   44.8750   36.7460   41.8300 H   0  0  0  0  0  0  0  0  0  0  0  0
  1  6  1  0  0  0  0
  2  1  2  0  0  0  0
  2  3  1  0  0  0  0
  3  4  2  0  0  0  0
  4  5  1  0  0  0  0
  5  8  1  0  0  0  0
  6  5  2  0  0  0  0
  7  2  1  0  0  0  0
  9  3  1  0  0  0  0
 10  9  1  0  0  0  0
 11 10  1  0  0  0  0
 12 14  1  0  0  0  0
 12 10  2  0  0  0  0
 13 12  1  0  0  0  0
 14 16  1  0  0  0  0
 15 14  1  0  0  0  0
 16  9  2  0  0  0  0
 17 18  1  0  0  0  0
 17  1  1  0  0  0  0
 19 17  1  0  0  0  0
 20 17  1  0  0  0  0
M  END
>  <minimizedAffinity>
-4.19210911

>  <minimizedRMSD>
1.849635

$$$$
