
 OpenBabel03242514143D

 33 35  0  0  0  0  0  0  0  0999 V2000
   38.2460   29.2980   42.1480 C   0  0  0  0  0  0  0  0  0  0  0  0
   37.8440   28.9200   43.4580 C   0  0  0  0  0  0  0  0  0  0  0  0
   37.8720   27.4300   43.6800 C   0  0  0  0  0  0  0  0  0  0  0  0
   36.8170   26.8010   42.7670 C   0  0  0  0  0  0  0  0  0  0  0  0
   36.9380   27.2880   41.3590 C   0  0  0  0  0  0  0  0  0  0  0  0
   38.1930   28.1010   41.1610 C   0  0  0  0  0  0  0  0  0  0  0  0
   37.5730   29.9980   41.6220 H   0  0  0  0  0  0  0  0  0  0  0  0
   38.0180   29.5610   44.3210 H   0  0  0  0  0  0  0  0  0  0  0  0
   36.7010   29.0630   43.4590 H   0  0  0  0  0  0  0  0  0  0  0  0
   38.7580   26.8900   43.3010 H   0  0  0  0  0  0  0  0  0  0  0  0
   37.6110   27.1550   44.7190 H   0  0  0  0  0  0  0  0  0  0  0  0
   36.9120   25.6960   42.8020 H   0  0  0  0  0  0  0  0  0  0  0  0
   35.8400   27.0410   43.2300 H   0  0  0  0  0  0  0  0  0  0  0  0
   36.1040   28.0380   41.2210 H   0  0  0  0  0  0  0  0  0  0  0  0
   36.8520   26.5430   40.5810 H   0  0  0  0  0  0  0  0  0  0  0  0
   39.1040   27.5210   41.3510 H   0  0  0  0  0  0  0  0  0  0  0  0
   38.2290   28.4770   40.1350 H   0  0  0  0  0  0  0  0  0  0  0  0
   39.5720   29.9270   42.0140 C   0  0  0  0  0  0  0  0  0  0  0  0
   39.5900   31.1930   41.4800 C   0  0  0  0  0  0  0  0  0  0  0  0
   40.8350   31.7950   41.5030 C   0  0  0  0  0  0  0  0  0  0  0  0
   41.9130   31.1460   42.0130 N   0  0  0  0  0  0  0  0  0  0  0  0
   41.8770   29.9240   42.5160 C   0  0  0  0  0  0  0  0  0  0  0  0
   40.7020   29.3470   42.5020 N   0  0  0  0  0  0  0  0  0  0  0  0
   41.1890   32.7580   41.1750 H   0  0  0  0  0  0  0  0  0  0  0  0
   42.6530   29.3300   42.9320 H   0  0  0  0  0  0  0  0  0  0  0  0
   38.7740   32.1900   40.8460 C   0  0  0  0  0  0  0  0  0  0  0  0
   39.0630   33.5190   40.4710 C   0  0  0  0  0  0  0  0  0  0  0  0
   40.0150   34.0210   40.5550 H   0  0  0  0  0  0  0  0  0  0  0  0
   37.9620   34.1590   39.9690 C   0  0  0  0  0  0  0  0  0  0  0  0
   37.8690   35.1590   39.6050 H   0  0  0  0  0  0  0  0  0  0  0  0
   37.0110   33.2200   40.0430 N   0  0  0  0  0  0  0  0  0  0  0  0
   36.0010   33.2790   39.7630 H   0  0  0  0  0  0  0  0  0  0  0  0
   37.4580   32.0850   40.5450 N   0  0  0  0  0  0  0  0  0  0  0  0
  1  2  1  0  0  0  0
  2  9  1  0  0  0  0
  2  3  1  0  0  0  0
  2  8  1  0  0  0  0
  3 11  1  0  0  0  0
  4 12  1  0  0  0  0
  4 13  1  0  0  0  0
  4  3  1  0  0  0  0
  5  4  1  0  0  0  0
  6 16  1  0  0  0  0
  6  5  1  0  0  0  0
  6  1  1  0  0  0  0
  7  1  1  0  0  0  0
 10  3  1  0  0  0  0
 14  5  1  0  0  0  0
 15  5  1  0  0  0  0
 17  6  1  0  0  0  0
 18  1  1  0  0  0  0
 18 23  1  0  0  0  0
 19 20  1  0  0  0  0
 19 18  2  0  0  0  0
 20 21  2  0  0  0  0
 21 22  1  0  0  0  0
 22 25  1  0  0  0  0
 23 22  2  0  0  0  0
 24 20  1  0  0  0  0
 26 19  1  0  0  0  0
 27 28  1  0  0  0  0
 27 26  1  0  0  0  0
 29 31  1  0  0  0  0
 29 27  2  0  0  0  0
 30 29  1  0  0  0  0
 31 33  1  0  0  0  0
 32 31  1  0  0  0  0
 33 26  2  0  0  0  0
M  END
>  <minimizedAffinity>
-5.12100458

$$$$

 OpenBabel03242514143D

 33 35  0  0  0  0  0  0  0  0999 V2000
   37.2500   26.3050   41.5440 C   0  0  0  0  0  0  0  0  0  0  0  0
   36.9670   25.0740   42.1970 C   0  0  0  0  0  0  0  0  0  0  0  0
   37.2860   23.8680   41.3540 C   0  0  0  0  0  0  0  0  0  0  0  0
   36.3460   23.8760   40.1480 C   0  0  0  0  0  0  0  0  0  0  0  0
   36.3290   25.2060   39.4650 C   0  0  0  0  0  0  0  0  0  0  0  0
   37.3980   26.1210   40.0100 C   0  0  0  0  0  0  0  0  0  0  0  0
   36.4390   27.0540   41.5600 H   0  0  0  0  0  0  0  0  0  0  0  0
   37.0400   24.9680   43.2790 H   0  0  0  0  0  0  0  0  0  0  0  0
   35.8180   24.9930   42.1690 H   0  0  0  0  0  0  0  0  0  0  0  0
   38.2480   23.8840   40.8110 H   0  0  0  0  0  0  0  0  0  0  0  0
   37.1140   22.9190   41.8960 H   0  0  0  0  0  0  0  0  0  0  0  0
   36.6510   23.0820   39.4360 H   0  0  0  0  0  0  0  0  0  0  0  0
   35.3550   23.5740   40.5400 H   0  0  0  0  0  0  0  0  0  0  0  0
   35.3620   25.7010   39.7800 H   0  0  0  0  0  0  0  0  0  0  0  0
   36.3640   25.1950   38.3850 H   0  0  0  0  0  0  0  0  0  0  0  0
   38.4080   25.7230   39.8550 H   0  0  0  0  0  0  0  0  0  0  0  0
   37.3300   27.0960   39.5200 H   0  0  0  0  0  0  0  0  0  0  0  0
   38.4260   27.0550   42.0180 C   0  0  0  0  0  0  0  0  0  0  0  0
   38.3310   28.4250   41.9640 C   0  0  0  0  0  0  0  0  0  0  0  0
   39.3970   29.0850   42.5470 C   0  0  0  0  0  0  0  0  0  0  0  0
   40.4250   28.3940   43.1010 N   0  0  0  0  0  0  0  0  0  0  0  0
   40.5030   27.0750   43.1350 C   0  0  0  0  0  0  0  0  0  0  0  0
   39.4960   26.4400   42.5900 N   0  0  0  0  0  0  0  0  0  0  0  0
   39.6310   30.1300   42.6750 H   0  0  0  0  0  0  0  0  0  0  0  0
   41.2550   26.4420   43.5370 H   0  0  0  0  0  0  0  0  0  0  0  0
   37.5150   29.5080   41.4900 C   0  0  0  0  0  0  0  0  0  0  0  0
   37.8680   30.7470   40.9140 C   0  0  0  0  0  0  0  0  0  0  0  0
   38.8630   31.0860   40.6720 H   0  0  0  0  0  0  0  0  0  0  0  0
   36.7710   31.5330   40.6830 C   0  0  0  0  0  0  0  0  0  0  0  0
   36.7190   32.5130   40.2600 H   0  0  0  0  0  0  0  0  0  0  0  0
   35.7600   30.7720   41.1200 N   0  0  0  0  0  0  0  0  0  0  0  0
   34.7330   30.9830   41.1340 H   0  0  0  0  0  0  0  0  0  0  0  0
   36.1690   29.6090   41.5870 N   0  0  0  0  0  0  0  0  0  0  0  0
  1  7  1  0  0  0  0
  1 18  1  0  0  0  0
  1  2  1  0  0  0  0
  2  8  1  0  0  0  0
  3 11  1  0  0  0  0
  3  2  1  0  0  0  0
  4 13  1  0  0  0  0
  4  3  1  0  0  0  0
  5 14  1  0  0  0  0
  5  6  1  0  0  0  0
  5  4  1  0  0  0  0
  6  1  1  0  0  0  0
  9  2  1  0  0  0  0
 10  3  1  0  0  0  0
 12  4  1  0  0  0  0
 15  5  1  0  0  0  0
 16  6  1  0  0  0  0
 17  6  1  0  0  0  0
 18 23  1  0  0  0  0
 19 18  2  0  0  0  0
 19 20  1  0  0  0  0
 20 24  1  0  0  0  0
 20 21  2  0  0  0  0
 21 22  1  0  0  0  0
 22 25  1  0  0  0  0
 23 22  2  0  0  0  0
 26 33  2  0  0  0  0
 26 19  1  0  0  0  0
 27 26  1  0  0  0  0
 28 27  1  0  0  0  0
 29 27  2  0  0  0  0
 29 31  1  0  0  0  0
 30 29  1  0  0  0  0
 31 32  1  0  0  0  0
 31 33  1  0  0  0  0
M  END
>  <minimizedAffinity>
-5.10308361

$$$$

 OpenBabel03242514143D

 33 35  0  0  0  0  0  0  0  0999 V2000
   36.2320   27.8030   40.2220 C   0  0  0  0  0  0  0  0  0  0  0  0
   36.9930   27.9160   39.0250 C   0  0  0  0  0  0  0  0  0  0  0  0
   36.8700   29.2660   38.3700 C   0  0  0  0  0  0  0  0  0  0  0  0
   35.4200   29.4340   37.9100 C   0  0  0  0  0  0  0  0  0  0  0  0
   34.4490   29.1090   39.0000 C   0  0  0  0  0  0  0  0  0  0  0  0
   35.1490   28.9100   40.3220 C   0  0  0  0  0  0  0  0  0  0  0  0
   35.5880   26.9100   40.2980 H   0  0  0  0  0  0  0  0  0  0  0  0
   37.9230   27.3690   38.8810 H   0  0  0  0  0  0  0  0  0  0  0  0
   36.3990   27.3050   38.2510 H   0  0  0  0  0  0  0  0  0  0  0  0
   36.9320   30.1470   39.0340 H   0  0  0  0  0  0  0  0  0  0  0  0
   37.5100   29.3580   37.4720 H   0  0  0  0  0  0  0  0  0  0  0  0
   35.2640   30.4730   37.5530 H   0  0  0  0  0  0  0  0  0  0  0  0
   35.3120   28.7840   37.0200 H   0  0  0  0  0  0  0  0  0  0  0  0
   34.0420   28.0840   38.7520 H   0  0  0  0  0  0  0  0  0  0  0  0
   33.6130   29.7830   39.1200 H   0  0  0  0  0  0  0  0  0  0  0  0
   35.6770   29.8120   40.6570 H   0  0  0  0  0  0  0  0  0  0  0  0
   34.4180   28.6320   41.0860 H   0  0  0  0  0  0  0  0  0  0  0  0
   36.9830   27.7990   41.4890 C   0  0  0  0  0  0  0  0  0  0  0  0
   37.5880   26.6130   41.8300 C   0  0  0  0  0  0  0  0  0  0  0  0
   38.3940   26.6950   42.9510 C   0  0  0  0  0  0  0  0  0  0  0  0
   38.5340   27.8650   43.6230 N   0  0  0  0  0  0  0  0  0  0  0  0
   37.9380   28.9950   43.2850 C   0  0  0  0  0  0  0  0  0  0  0  0
   37.1760   28.9290   42.2220 N   0  0  0  0  0  0  0  0  0  0  0  0
   38.9980   25.9710   43.4730 H   0  0  0  0  0  0  0  0  0  0  0  0
   37.9770   29.9540   43.7380 H   0  0  0  0  0  0  0  0  0  0  0  0
   37.7000   25.2280   41.4660 C   0  0  0  0  0  0  0  0  0  0  0  0
   36.8570   24.4070   40.6870 C   0  0  0  0  0  0  0  0  0  0  0  0
   35.9640   24.7120   40.1630 H   0  0  0  0  0  0  0  0  0  0  0  0
   37.2910   23.1090   40.6600 C   0  0  0  0  0  0  0  0  0  0  0  0
   36.8670   22.2650   40.1610 H   0  0  0  0  0  0  0  0  0  0  0  0
   38.3910   23.1460   41.4220 N   0  0  0  0  0  0  0  0  0  0  0  0
   39.0460   22.3670   41.6760 H   0  0  0  0  0  0  0  0  0  0  0  0
   38.6400   24.3530   41.8930 N   0  0  0  0  0  0  0  0  0  0  0  0
  1  7  1  0  0  0  0
  1  6  1  0  0  0  0
  1 18  1  0  0  0  0
  2  1  1  0  0  0  0
  3  2  1  0  0  0  0
  3 10  1  0  0  0  0
  4  3  1  0  0  0  0
  4  5  1  0  0  0  0
  5 15  1  0  0  0  0
  5  6  1  0  0  0  0
  6 16  1  0  0  0  0
  6 17  1  0  0  0  0
  8  2  1  0  0  0  0
  9  2  1  0  0  0  0
 11  3  1  0  0  0  0
 12  4  1  0  0  0  0
 13  4  1  0  0  0  0
 14  5  1  0  0  0  0
 18 19  2  0  0  0  0
 18 23  1  0  0  0  0
 19 20  1  0  0  0  0
 20 24  1  0  0  0  0
 20 21  2  0  0  0  0
 22 21  1  0  0  0  0
 22 25  1  0  0  0  0
 23 22  2  0  0  0  0
 26 19  1  0  0  0  0
 26 33  2  0  0  0  0
 27 26  1  0  0  0  0
 28 27  1  0  0  0  0
 29 27  2  0  0  0  0
 29 31  1  0  0  0  0
 30 29  1  0  0  0  0
 31 32  1  0  0  0  0
 31 33  1  0  0  0  0
M  END
>  <minimizedAffinity>
-5.00647926

$$$$

 OpenBabel03242514143D

 33 35  0  0  0  0  0  0  0  0999 V2000
   37.4380   29.2270   41.6090 C   0  0  0  0  0  0  0  0  0  0  0  0
   38.8220   28.9990   41.8440 C   0  0  0  0  0  0  0  0  0  0  0  0
   39.1220   27.5970   42.3050 C   0  0  0  0  0  0  0  0  0  0  0  0
   38.4730   27.4060   43.6770 C   0  0  0  0  0  0  0  0  0  0  0  0
   37.0410   27.8380   43.6800 C   0  0  0  0  0  0  0  0  0  0  0  0
   36.5540   28.1460   42.2860 C   0  0  0  0  0  0  0  0  0  0  0  0
   37.0140   30.1310   42.0810 H   0  0  0  0  0  0  0  0  0  0  0  0
   39.5950   29.5210   41.2810 H   0  0  0  0  0  0  0  0  0  0  0  0
   39.0380   29.5460   42.8340 H   0  0  0  0  0  0  0  0  0  0  0  0
   38.6110   26.7790   41.7670 H   0  0  0  0  0  0  0  0  0  0  0  0
   40.2070   27.4190   42.4290 H   0  0  0  0  0  0  0  0  0  0  0  0
   38.5540   26.3410   43.9780 H   0  0  0  0  0  0  0  0  0  0  0  0
   39.1030   27.9750   44.3870 H   0  0  0  0  0  0  0  0  0  0  0  0
   37.0250   28.8410   44.2010 H   0  0  0  0  0  0  0  0  0  0  0  0
   36.3410   27.1860   44.1830 H   0  0  0  0  0  0  0  0  0  0  0  0
   36.5970   27.2720   41.6240 H   0  0  0  0  0  0  0  0  0  0  0  0
   35.5200   28.4990   42.3280 H   0  0  0  0  0  0  0  0  0  0  0  0
   37.0110   29.3360   40.2030 C   0  0  0  0  0  0  0  0  0  0  0  0
   37.2510   30.5430   39.5900 C   0  0  0  0  0  0  0  0  0  0  0  0
   36.9620   30.5530   38.2380 C   0  0  0  0  0  0  0  0  0  0  0  0
   36.4800   29.4440   37.6200 N   0  0  0  0  0  0  0  0  0  0  0  0
   36.2480   28.2940   38.2290 C   0  0  0  0  0  0  0  0  0  0  0  0
   36.5220   28.2730   39.5090 N   0  0  0  0  0  0  0  0  0  0  0  0
   37.0350   31.3140   37.4790 H   0  0  0  0  0  0  0  0  0  0  0  0
   35.8740   27.3780   37.8460 H   0  0  0  0  0  0  0  0  0  0  0  0
   37.6910   31.8890   39.8250 C   0  0  0  0  0  0  0  0  0  0  0  0
   38.7580   32.3900   40.6000 C   0  0  0  0  0  0  0  0  0  0  0  0
   39.4950   31.8100   41.1360 H   0  0  0  0  0  0  0  0  0  0  0  0
   38.7740   33.7580   40.6240 C   0  0  0  0  0  0  0  0  0  0  0  0
   39.4530   34.4180   41.1210 H   0  0  0  0  0  0  0  0  0  0  0  0
   37.7180   34.0830   39.8680 N   0  0  0  0  0  0  0  0  0  0  0  0
   37.3540   35.0330   39.6160 H   0  0  0  0  0  0  0  0  0  0  0  0
   37.0850   33.0240   39.4030 N   0  0  0  0  0  0  0  0  0  0  0  0
  1  2  1  0  0  0  0
  1  7  1  0  0  0  0
  1  6  1  0  0  0  0
  2  3  1  0  0  0  0
  2  9  1  0  0  0  0
  3 11  1  0  0  0  0
  3  4  1  0  0  0  0
  4  5  1  0  0  0  0
  4 12  1  0  0  0  0
  4 13  1  0  0  0  0
  5 15  1  0  0  0  0
  5 14  1  0  0  0  0
  6 17  1  0  0  0  0
  6  5  1  0  0  0  0
  8  2  1  0  0  0  0
 10  3  1  0  0  0  0
 16  6  1  0  0  0  0
 18  1  1  0  0  0  0
 19 26  1  0  0  0  0
 19 18  1  0  0  0  0
 20 19  2  0  0  0  0
 21 22  2  0  0  0  0
 21 20  1  0  0  0  0
 22 23  1  0  0  0  0
 23 18  2  0  0  0  0
 24 20  1  0  0  0  0
 25 22  1  0  0  0  0
 26 27  1  0  0  0  0
 27 29  2  0  0  0  0
 27 28  1  0  0  0  0
 29 30  1  0  0  0  0
 31 29  1  0  0  0  0
 32 31  1  0  0  0  0
 33 26  2  0  0  0  0
 33 31  1  0  0  0  0
M  END
>  <minimizedAffinity>
-4.97181129

$$$$

 OpenBabel03242514143D

 33 35  0  0  0  0  0  0  0  0999 V2000
   36.0900   29.7350   39.9200 C   0  0  0  0  0  0  0  0  0  0  0  0
   34.7590   29.2950   39.6810 C   0  0  0  0  0  0  0  0  0  0  0  0
   34.6520   28.3260   38.5330 C   0  0  0  0  0  0  0  0  0  0  0  0
   35.0370   29.0710   37.2530 C   0  0  0  0  0  0  0  0  0  0  0  0
   36.3250   29.8140   37.4070 C   0  0  0  0  0  0  0  0  0  0  0  0
   37.0140   29.4620   38.7020 C   0  0  0  0  0  0  0  0  0  0  0  0
   36.2250   30.8270   40.0110 H   0  0  0  0  0  0  0  0  0  0  0  0
   34.0300   29.2070   40.4850 H   0  0  0  0  0  0  0  0  0  0  0  0
   34.2460   30.1960   39.1810 H   0  0  0  0  0  0  0  0  0  0  0  0
   35.4120   27.5240   38.4890 H   0  0  0  0  0  0  0  0  0  0  0  0
   33.6210   27.9490   38.3950 H   0  0  0  0  0  0  0  0  0  0  0  0
   35.1060   28.3490   36.4130 H   0  0  0  0  0  0  0  0  0  0  0  0
   34.1770   29.7300   37.0220 H   0  0  0  0  0  0  0  0  0  0  0  0
   36.0390   30.9000   37.5370 H   0  0  0  0  0  0  0  0  0  0  0  0
   37.0230   29.7460   36.5850 H   0  0  0  0  0  0  0  0  0  0  0  0
   37.2770   28.3990   38.7630 H   0  0  0  0  0  0  0  0  0  0  0  0
   37.9280   30.0530   38.8030 H   0  0  0  0  0  0  0  0  0  0  0  0
   36.7630   29.2010   41.1170 C   0  0  0  0  0  0  0  0  0  0  0  0
   37.7470   29.9910   41.6610 C   0  0  0  0  0  0  0  0  0  0  0  0
   38.2510   29.5160   42.8580 C   0  0  0  0  0  0  0  0  0  0  0  0
   37.7860   28.3620   43.4010 N   0  0  0  0  0  0  0  0  0  0  0  0
   36.8430   27.6120   42.8590 C   0  0  0  0  0  0  0  0  0  0  0  0
   36.3560   28.0540   41.7270 N   0  0  0  0  0  0  0  0  0  0  0  0
   39.0090   29.8830   43.5300 H   0  0  0  0  0  0  0  0  0  0  0  0
   36.4130   26.7010   43.1940 H   0  0  0  0  0  0  0  0  0  0  0  0
   38.5210   31.1810   41.4460 C   0  0  0  0  0  0  0  0  0  0  0  0
   38.2320   32.3510   40.7130 C   0  0  0  0  0  0  0  0  0  0  0  0
   37.3080   32.5830   40.2040 H   0  0  0  0  0  0  0  0  0  0  0  0
   39.2920   33.2170   40.6940 C   0  0  0  0  0  0  0  0  0  0  0  0
   39.3750   34.1740   40.2250 H   0  0  0  0  0  0  0  0  0  0  0  0
   40.2200   32.5700   41.4100 N   0  0  0  0  0  0  0  0  0  0  0  0
   41.1960   32.8700   41.6520 H   0  0  0  0  0  0  0  0  0  0  0  0
   39.7950   31.4010   41.8480 N   0  0  0  0  0  0  0  0  0  0  0  0
  1  7  1  0  0  0  0
  1 18  1  0  0  0  0
  2  1  1  0  0  0  0
  2  8  1  0  0  0  0
  3  2  1  0  0  0  0
  4  5  1  0  0  0  0
  4  3  1  0  0  0  0
  5 14  1  0  0  0  0
  5  6  1  0  0  0  0
  6 16  1  0  0  0  0
  6 17  1  0  0  0  0
  6  1  1  0  0  0  0
  9  2  1  0  0  0  0
 10  3  1  0  0  0  0
 11  3  1  0  0  0  0
 12  4  1  0  0  0  0
 13  4  1  0  0  0  0
 15  5  1  0  0  0  0
 18 19  2  0  0  0  0
 18 23  1  0  0  0  0
 19 20  1  0  0  0  0
 20 21  2  0  0  0  0
 20 24  1  0  0  0  0
 22 25  1  0  0  0  0
 22 21  1  0  0  0  0
 23 22  2  0  0  0  0
 26 19  1  0  0  0  0
 26 33  2  0  0  0  0
 27 26  1  0  0  0  0
 28 27  1  0  0  0  0
 29 27  2  0  0  0  0
 29 31  1  0  0  0  0
 30 29  1  0  0  0  0
 31 32  1  0  0  0  0
 31 33  1  0  0  0  0
M  END
>  <minimizedAffinity>
-4.94130611

$$$$

 OpenBabel03242514143D

 33 35  0  0  0  0  0  0  0  0999 V2000
   37.9420   30.8690   40.3650 C   0  0  0  0  0  0  0  0  0  0  0  0
   39.2310   31.4390   40.5480 C   0  0  0  0  0  0  0  0  0  0  0  0
   39.1870   32.8650   41.0320 C   0  0  0  0  0  0  0  0  0  0  0  0
   38.5530   33.7150   39.9290 C   0  0  0  0  0  0  0  0  0  0  0  0
   37.2760   33.1180   39.4310 C   0  0  0  0  0  0  0  0  0  0  0  0
   36.8370   31.9570   40.2880 C   0  0  0  0  0  0  0  0  0  0  0  0
   37.7720   30.3670   39.3970 H   0  0  0  0  0  0  0  0  0  0  0  0
   40.0920   30.8360   40.8350 H   0  0  0  0  0  0  0  0  0  0  0  0
   39.6080   31.6420   39.4780 H   0  0  0  0  0  0  0  0  0  0  0  0
   38.4700   33.0900   41.8420 H   0  0  0  0  0  0  0  0  0  0  0  0
   40.1960   33.2760   41.2230 H   0  0  0  0  0  0  0  0  0  0  0  0
   38.3750   34.7410   40.3100 H   0  0  0  0  0  0  0  0  0  0  0  0
   39.3270   33.8090   39.1420 H   0  0  0  0  0  0  0  0  0  0  0  0
   37.5270   32.6420   38.4360 H   0  0  0  0  0  0  0  0  0  0  0  0
   36.4510   33.8000   39.2780 H   0  0  0  0  0  0  0  0  0  0  0  0
   36.6400   32.2520   41.3250 H   0  0  0  0  0  0  0  0  0  0  0  0
   35.9260   31.5180   39.8720 H   0  0  0  0  0  0  0  0  0  0  0  0
   37.5110   29.8670   41.3560 C   0  0  0  0  0  0  0  0  0  0  0  0
   36.5310   28.9950   40.9470 C   0  0  0  0  0  0  0  0  0  0  0  0
   36.2590   27.9890   41.8560 C   0  0  0  0  0  0  0  0  0  0  0  0
   36.9250   27.9200   43.0380 N   0  0  0  0  0  0  0  0  0  0  0  0
   37.8590   28.7730   43.4170 C   0  0  0  0  0  0  0  0  0  0  0  0
   38.1270   29.7270   42.5610 N   0  0  0  0  0  0  0  0  0  0  0  0
   35.5680   27.1620   41.8490 H   0  0  0  0  0  0  0  0  0  0  0  0
   38.4330   28.8110   44.3100 H   0  0  0  0  0  0  0  0  0  0  0  0
   35.6040   28.7150   39.8870 C   0  0  0  0  0  0  0  0  0  0  0  0
   35.7670   27.9940   38.6850 C   0  0  0  0  0  0  0  0  0  0  0  0
   36.6490   27.4580   38.3670 H   0  0  0  0  0  0  0  0  0  0  0  0
   34.6440   28.0430   37.9040 C   0  0  0  0  0  0  0  0  0  0  0  0
   34.4650   27.5990   36.9480 H   0  0  0  0  0  0  0  0  0  0  0  0
   33.8070   28.7930   38.6310 N   0  0  0  0  0  0  0  0  0  0  0  0
   32.8250   29.0890   38.4110 H   0  0  0  0  0  0  0  0  0  0  0  0
   34.3420   29.1880   39.7700 N   0  0  0  0  0  0  0  0  0  0  0  0
  1  2  1  0  0  0  0
  1 18  1  0  0  0  0
  2  8  1  0  0  0  0
  2  3  1  0  0  0  0
  3 11  1  0  0  0  0
  3 10  1  0  0  0  0
  4 12  1  0  0  0  0
  4  3  1  0  0  0  0
  5  4  1  0  0  0  0
  5  6  1  0  0  0  0
  6  1  1  0  0  0  0
  6 16  1  0  0  0  0
  7  1  1  0  0  0  0
  9  2  1  0  0  0  0
 13  4  1  0  0  0  0
 14  5  1  0  0  0  0
 15  5  1  0  0  0  0
 17  6  1  0  0  0  0
 18 23  1  0  0  0  0
 19 18  2  0  0  0  0
 19 20  1  0  0  0  0
 20 21  2  0  0  0  0
 21 22  1  0  0  0  0
 22 25  1  0  0  0  0
 23 22  2  0  0  0  0
 24 20  1  0  0  0  0
 26 19  1  0  0  0  0
 27 26  1  0  0  0  0
 28 27  1  0  0  0  0
 29 31  1  0  0  0  0
 29 27  2  0  0  0  0
 30 29  1  0  0  0  0
 31 33  1  0  0  0  0
 32 31  1  0  0  0  0
 33 26  2  0  0  0  0
M  END
>  <minimizedAffinity>
-4.79014969

$$$$

 OpenBabel03242514143D

 33 35  0  0  0  0  0  0  0  0999 V2000
   38.8690   27.5660   41.7510 C   0  0  0  0  0  0  0  0  0  0  0  0
   38.7320   26.2680   41.1860 C   0  0  0  0  0  0  0  0  0  0  0  0
   38.4010   25.2090   42.2040 C   0  0  0  0  0  0  0  0  0  0  0  0
   39.5950   25.0820   43.1530 C   0  0  0  0  0  0  0  0  0  0  0  0
   40.0420   26.4120   43.6670 C   0  0  0  0  0  0  0  0  0  0  0  0
   39.0730   27.5050   43.2890 C   0  0  0  0  0  0  0  0  0  0  0  0
   39.7810   28.1190   41.4680 H   0  0  0  0  0  0  0  0  0  0  0  0
   38.3740   26.1200   40.1680 H   0  0  0  0  0  0  0  0  0  0  0  0
   39.8130   25.9420   40.9570 H   0  0  0  0  0  0  0  0  0  0  0  0
   37.6270   25.4650   42.9500 H   0  0  0  0  0  0  0  0  0  0  0  0
   38.2430   24.2170   41.7420 H   0  0  0  0  0  0  0  0  0  0  0  0
   39.3250   24.4140   43.9970 H   0  0  0  0  0  0  0  0  0  0  0  0
   40.3770   24.5500   42.5770 H   0  0  0  0  0  0  0  0  0  0  0  0
   40.9780   26.6670   43.0860 H   0  0  0  0  0  0  0  0  0  0  0  0
   40.2740   26.4700   44.7210 H   0  0  0  0  0  0  0  0  0  0  0  0
   38.0740   27.3450   43.7140 H   0  0  0  0  0  0  0  0  0  0  0  0
   39.4510   28.4680   43.6420 H   0  0  0  0  0  0  0  0  0  0  0  0
   37.7830   28.5260   41.4840 C   0  0  0  0  0  0  0  0  0  0  0  0
   38.1550   29.8440   41.3760 C   0  0  0  0  0  0  0  0  0  0  0  0
   37.1300   30.6870   40.9880 C   0  0  0  0  0  0  0  0  0  0  0  0
   35.8820   30.2050   40.7550 N   0  0  0  0  0  0  0  0  0  0  0  0
   35.5420   28.9330   40.8720 C   0  0  0  0  0  0  0  0  0  0  0  0
   36.5070   28.1260   41.2340 N   0  0  0  0  0  0  0  0  0  0  0  0
   37.0810   31.7490   40.8120 H   0  0  0  0  0  0  0  0  0  0  0  0
   34.6060   28.4560   40.7170 H   0  0  0  0  0  0  0  0  0  0  0  0
   39.2570   30.7500   41.5410 C   0  0  0  0  0  0  0  0  0  0  0  0
   39.9360   31.5590   40.6050 C   0  0  0  0  0  0  0  0  0  0  0  0
   39.6940   31.6780   39.5590 H   0  0  0  0  0  0  0  0  0  0  0  0
   40.9980   32.2110   41.1690 C   0  0  0  0  0  0  0  0  0  0  0  0
   41.6940   32.8870   40.7190 H   0  0  0  0  0  0  0  0  0  0  0  0
   40.9630   31.7960   42.4410 N   0  0  0  0  0  0  0  0  0  0  0  0
   41.5990   32.0470   43.2360 H   0  0  0  0  0  0  0  0  0  0  0  0
   39.9720   30.9570   42.6720 N   0  0  0  0  0  0  0  0  0  0  0  0
  1  6  1  0  0  0  0
  2  1  1  0  0  0  0
  2  3  1  0  0  0  0
  3 10  1  0  0  0  0
  3  4  1  0  0  0  0
  4  5  1  0  0  0  0
  4 12  1  0  0  0  0
  5 15  1  0  0  0  0
  6 17  1  0  0  0  0
  6  5  1  0  0  0  0
  6 16  1  0  0  0  0
  7  1  1  0  0  0  0
  8  2  1  0  0  0  0
  9  2  1  0  0  0  0
 11  3  1  0  0  0  0
 13  4  1  0  0  0  0
 14  5  1  0  0  0  0
 18  1  1  0  0  0  0
 19 18  1  0  0  0  0
 19 26  1  0  0  0  0
 20 19  2  0  0  0  0
 21 22  2  0  0  0  0
 21 20  1  0  0  0  0
 22 23  1  0  0  0  0
 23 18  2  0  0  0  0
 24 20  1  0  0  0  0
 25 22  1  0  0  0  0
 26 33  2  0  0  0  0
 27 29  2  0  0  0  0
 27 26  1  0  0  0  0
 28 27  1  0  0  0  0
 29 31  1  0  0  0  0
 30 29  1  0  0  0  0
 31 33  1  0  0  0  0
 31 32  1  0  0  0  0
M  END
>  <minimizedAffinity>
-4.71076393

$$$$

 OpenBabel03242514143D

 33 35  0  0  0  0  0  0  0  0999 V2000
   36.5720   27.7020   41.3480 C   0  0  0  0  0  0  0  0  0  0  0  0
   36.9040   27.3800   42.6930 C   0  0  0  0  0  0  0  0  0  0  0  0
   38.0350   26.3920   42.8050 C   0  0  0  0  0  0  0  0  0  0  0  0
   37.5600   25.0660   42.2080 C   0  0  0  0  0  0  0  0  0  0  0  0
   36.9410   25.2520   40.8600 C   0  0  0  0  0  0  0  0  0  0  0  0
   37.1410   26.6580   40.3500 C   0  0  0  0  0  0  0  0  0  0  0  0
   35.5010   27.6370   41.0900 H   0  0  0  0  0  0  0  0  0  0  0  0
   36.7790   28.0960   43.5040 H   0  0  0  0  0  0  0  0  0  0  0  0
   36.0510   26.6900   43.0410 H   0  0  0  0  0  0  0  0  0  0  0  0
   38.9080   26.5620   42.1490 H   0  0  0  0  0  0  0  0  0  0  0  0
   38.3190   26.1940   43.8560 H   0  0  0  0  0  0  0  0  0  0  0  0
   38.4150   24.3620   42.1450 H   0  0  0  0  0  0  0  0  0  0  0  0
   36.8620   24.6360   42.9530 H   0  0  0  0  0  0  0  0  0  0  0  0
   35.8250   25.1780   41.0210 H   0  0  0  0  0  0  0  0  0  0  0  0
   37.2190   24.5380   40.0980 H   0  0  0  0  0  0  0  0  0  0  0  0
   38.2000   26.9130   40.2260 H   0  0  0  0  0  0  0  0  0  0  0  0
   36.6400   26.7720   39.3840 H   0  0  0  0  0  0  0  0  0  0  0  0
   36.9660   29.0380   40.8680 C   0  0  0  0  0  0  0  0  0  0  0  0
   36.2020   29.5650   39.8540 C   0  0  0  0  0  0  0  0  0  0  0  0
   36.5190   30.8720   39.5330 C   0  0  0  0  0  0  0  0  0  0  0  0
   37.5120   31.5280   40.1860 N   0  0  0  0  0  0  0  0  0  0  0  0
   38.2420   31.0010   41.1530 C   0  0  0  0  0  0  0  0  0  0  0  0
   37.9460   29.7650   41.4680 N   0  0  0  0  0  0  0  0  0  0  0  0
   36.1250   31.5640   38.8070 H   0  0  0  0  0  0  0  0  0  0  0  0
   39.0350   31.4200   41.7210 H   0  0  0  0  0  0  0  0  0  0  0  0
   35.1500   29.2620   38.9250 C   0  0  0  0  0  0  0  0  0  0  0  0
   35.1580   29.1730   37.5170 C   0  0  0  0  0  0  0  0  0  0  0  0
   36.0160   29.2730   36.8690 H   0  0  0  0  0  0  0  0  0  0  0  0
   33.9070   28.9440   37.0120 C   0  0  0  0  0  0  0  0  0  0  0  0
   33.5990   28.8300   35.9950 H   0  0  0  0  0  0  0  0  0  0  0  0
   33.1450   28.8980   38.1110 N   0  0  0  0  0  0  0  0  0  0  0  0
   32.1100   28.7420   38.1920 H   0  0  0  0  0  0  0  0  0  0  0  0
   33.8400   29.0790   39.2170 N   0  0  0  0  0  0  0  0  0  0  0  0
  1  2  1  0  0  0  0
  2  3  1  0  0  0  0
  2  9  1  0  0  0  0
  2  8  1  0  0  0  0
  3 11  1  0  0  0  0
  4  3  1  0  0  0  0
  4 13  1  0  0  0  0
  5 14  1  0  0  0  0
  5  4  1  0  0  0  0
  6  5  1  0  0  0  0
  6  1  1  0  0  0  0
  7  1  1  0  0  0  0
 10  3  1  0  0  0  0
 12  4  1  0  0  0  0
 15  5  1  0  0  0  0
 16  6  1  0  0  0  0
 17  6  1  0  0  0  0
 18  1  1  0  0  0  0
 18 23  1  0  0  0  0
 19 18  2  0  0  0  0
 20 19  1  0  0  0  0
 20 21  2  0  0  0  0
 21 22  1  0  0  0  0
 22 23  2  0  0  0  0
 22 25  1  0  0  0  0
 24 20  1  0  0  0  0
 26 33  2  0  0  0  0
 26 19  1  0  0  0  0
 27 26  1  0  0  0  0
 28 27  1  0  0  0  0
 29 27  2  0  0  0  0
 29 31  1  0  0  0  0
 30 29  1  0  0  0  0
 31 32  1  0  0  0  0
 31 33  1  0  0  0  0
M  END
>  <minimizedAffinity>
-4.69647169

$$$$

 OpenBabel03242514143D

 33 35  0  0  0  0  0  0  0  0999 V2000
   37.9540   25.7280   40.9150 C   0  0  0  0  0  0  0  0  0  0  0  0
   37.6690   25.9810   39.5450 C   0  0  0  0  0  0  0  0  0  0  0  0
   36.2570   25.6300   39.1580 C   0  0  0  0  0  0  0  0  0  0  0  0
   36.0940   24.1150   39.3010 C   0  0  0  0  0  0  0  0  0  0  0  0
   36.5850   23.6250   40.6260 C   0  0  0  0  0  0  0  0  0  0  0  0
   36.9110   24.7710   41.5520 C   0  0  0  0  0  0  0  0  0  0  0  0
   38.8750   25.1530   41.1150 H   0  0  0  0  0  0  0  0  0  0  0  0
   38.1580   26.7840   38.9960 H   0  0  0  0  0  0  0  0  0  0  0  0
   38.2080   25.1340   38.9800 H   0  0  0  0  0  0  0  0  0  0  0  0
   35.4590   25.9460   39.8550 H   0  0  0  0  0  0  0  0  0  0  0  0
   36.0340   25.8850   38.1050 H   0  0  0  0  0  0  0  0  0  0  0  0
   35.0270   23.8440   39.1620 H   0  0  0  0  0  0  0  0  0  0  0  0
   36.6380   23.6750   38.4430 H   0  0  0  0  0  0  0  0  0  0  0  0
   37.5890   23.1470   40.4220 H   0  0  0  0  0  0  0  0  0  0  0  0
   35.9640   22.9010   41.1340 H   0  0  0  0  0  0  0  0  0  0  0  0
   36.0350   25.3930   41.7740 H   0  0  0  0  0  0  0  0  0  0  0  0
   37.3070   24.3790   42.4930 H   0  0  0  0  0  0  0  0  0  0  0  0
   38.0780   26.9010   41.7970 C   0  0  0  0  0  0  0  0  0  0  0  0
   39.2430   26.9930   42.5210 C   0  0  0  0  0  0  0  0  0  0  0  0
   39.3750   28.1760   43.2250 C   0  0  0  0  0  0  0  0  0  0  0  0
   38.4070   29.1270   43.1770 N   0  0  0  0  0  0  0  0  0  0  0  0
   37.2890   29.0160   42.4810 C   0  0  0  0  0  0  0  0  0  0  0  0
   37.1560   27.9020   41.8080 N   0  0  0  0  0  0  0  0  0  0  0  0
   40.1450   28.5610   43.8730 H   0  0  0  0  0  0  0  0  0  0  0  0
   36.4750   29.6910   42.3780 H   0  0  0  0  0  0  0  0  0  0  0  0
   40.4430   26.2860   42.8710 C   0  0  0  0  0  0  0  0  0  0  0  0
   41.6300   26.7320   43.4890 C   0  0  0  0  0  0  0  0  0  0  0  0
   41.8280   27.7220   43.8700 H   0  0  0  0  0  0  0  0  0  0  0  0
   42.5720   25.7410   43.5600 C   0  0  0  0  0  0  0  0  0  0  0  0
   43.5590   25.7740   43.9690 H   0  0  0  0  0  0  0  0  0  0  0  0
   41.9550   24.7010   42.9840 N   0  0  0  0  0  0  0  0  0  0  0  0
   42.3120   23.7280   42.8240 H   0  0  0  0  0  0  0  0  0  0  0  0
   40.7350   24.9960   42.5830 N   0  0  0  0  0  0  0  0  0  0  0  0
  1  7  1  0  0  0  0
  1  6  1  0  0  0  0
  1 18  1  0  0  0  0
  2  1  1  0  0  0  0
  3  4  1  0  0  0  0
  3  2  1  0  0  0  0
  3 10  1  0  0  0  0
  4  5  1  0  0  0  0
  5 15  1  0  0  0  0
  5  6  1  0  0  0  0
  6 16  1  0  0  0  0
  6 17  1  0  0  0  0
  8  2  1  0  0  0  0
  9  2  1  0  0  0  0
 11  3  1  0  0  0  0
 12  4  1  0  0  0  0
 13  4  1  0  0  0  0
 14  5  1  0  0  0  0
 18 23  2  0  0  0  0
 18 19  1  0  0  0  0
 19 26  1  0  0  0  0
 19 20  2  0  0  0  0
 20 24  1  0  0  0  0
 21 20  1  0  0  0  0
 22 21  2  0  0  0  0
 23 22  1  0  0  0  0
 25 22  1  0  0  0  0
 26 27  1  0  0  0  0
 27 29  2  0  0  0  0
 27 28  1  0  0  0  0
 29 30  1  0  0  0  0
 31 29  1  0  0  0  0
 32 31  1  0  0  0  0
 33 26  2  0  0  0  0
 33 31  1  0  0  0  0
M  END
>  <minimizedAffinity>
-4.67240763

$$$$
