
 OpenBabel03252509293D

 20 21  0  0  0  0  0  0  0  0999 V2000
   47.0810   34.9130   41.9630 C   0  0  0  0  0  0  0  0  0  0  0  0
   48.0020   34.2980   42.1850 H   0  0  0  0  0  0  0  0  0  0  0  0
   47.4700   35.9190   41.7090 H   0  0  0  0  0  0  0  0  0  0  0  0
   44.5990   36.0180   44.5130 C   0  0  0  0  0  0  0  0  0  0  0  0
   45.3810   36.0130   43.3390 C   0  0  0  0  0  0  0  0  0  0  0  0
   46.2620   34.9320   43.1780 C   0  0  0  0  0  0  0  0  0  0  0  0
   46.3100   33.9700   44.1450 N   0  0  0  0  0  0  0  0  0  0  0  0
   45.5390   34.0220   45.2520 C   0  0  0  0  0  0  0  0  0  0  0  0
   44.6810   35.0580   45.4260 N   0  0  0  0  0  0  0  0  0  0  0  0
   43.9380   36.8780   44.5800 H   0  0  0  0  0  0  0  0  0  0  0  0
   45.3080   36.7970   42.6010 H   0  0  0  0  0  0  0  0  0  0  0  0
   45.6610   33.2050   45.9510 H   0  0  0  0  0  0  0  0  0  0  0  0
   46.4420   34.2580   40.8030 C   0  0  0  0  0  0  0  0  0  0  0  0
   45.0700   34.0340   40.8310 C   0  0  0  0  0  0  0  0  0  0  0  0
   44.3270   34.2700   41.6040 H   0  0  0  0  0  0  0  0  0  0  0  0
   44.6540   33.4160   39.6660 C   0  0  0  0  0  0  0  0  0  0  0  0
   43.6880   33.0950   39.3390 H   0  0  0  0  0  0  0  0  0  0  0  0
   45.8100   33.2820   38.9570 N   0  0  0  0  0  0  0  0  0  0  0  0
   45.9640   32.8620   38.0060 H   0  0  0  0  0  0  0  0  0  0  0  0
   46.8660   33.7770   39.6230 N   0  0  0  0  0  0  0  0  0  0  0  0
  1  2  1  0  0  0  0
  1  6  1  0  0  0  0
  3  1  1  0  0  0  0
  4 10  1  0  0  0  0
  4  9  1  0  0  0  0
  5  4  2  0  0  0  0
  6  5  1  0  0  0  0
  6  7  2  0  0  0  0
  7  8  1  0  0  0  0
  8  9  2  0  0  0  0
  8 12  1  0  0  0  0
 11  5  1  0  0  0  0
 13 14  1  0  0  0  0
 13  1  1  0  0  0  0
 14 15  1  0  0  0  0
 16 14  2  0  0  0  0
 17 16  1  0  0  0  0
 18 20  1  0  0  0  0
 18 16  1  0  0  0  0
 19 18  1  0  0  0  0
 20 13  2  0  0  0  0
M  END
>  <minimizedAffinity>
-3.8786459

>  <minimizedRMSD>
0.44579494

$$$$
