
 OpenBabel03252509293D

 20 21  0  0  0  0  0  0  0  0999 V2000
   46.9970   35.0070   41.8780 C   0  0  0  0  0  0  0  0  0  0  0  0
   48.0140   34.5740   42.1110 H   0  0  0  0  0  0  0  0  0  0  0  0
   47.2050   36.0390   41.5310 H   0  0  0  0  0  0  0  0  0  0  0  0
   44.5900   36.0310   44.5310 C   0  0  0  0  0  0  0  0  0  0  0  0
   45.3340   36.0600   43.3320 C   0  0  0  0  0  0  0  0  0  0  0  0
   46.2190   34.9910   43.1190 C   0  0  0  0  0  0  0  0  0  0  0  0
   46.3070   34.0090   44.0630 N   0  0  0  0  0  0  0  0  0  0  0  0
   45.5730   34.0290   45.1950 C   0  0  0  0  0  0  0  0  0  0  0  0
   44.7120   35.0530   45.4200 N   0  0  0  0  0  0  0  0  0  0  0  0
   43.9240   36.8830   44.6390 H   0  0  0  0  0  0  0  0  0  0  0  0
   45.2290   36.8590   42.6150 H   0  0  0  0  0  0  0  0  0  0  0  0
   45.7250   33.1980   45.8710 H   0  0  0  0  0  0  0  0  0  0  0  0
   46.4480   34.1610   40.7990 C   0  0  0  0  0  0  0  0  0  0  0  0
   45.0680   34.0330   40.6840 C   0  0  0  0  0  0  0  0  0  0  0  0
   44.2620   34.4720   41.2850 H   0  0  0  0  0  0  0  0  0  0  0  0
   44.7430   33.2080   39.6220 C   0  0  0  0  0  0  0  0  0  0  0  0
   43.7990   32.8850   39.2390 H   0  0  0  0  0  0  0  0  0  0  0  0
   45.9610   32.8560   39.1200 N   0  0  0  0  0  0  0  0  0  0  0  0
   46.1890   32.2360   38.3030 H   0  0  0  0  0  0  0  0  0  0  0  0
   46.9660   33.4160   39.8100 N   0  0  0  0  0  0  0  0  0  0  0  0
  1  2  1  0  0  0  0
  1  6  1  0  0  0  0
  3  1  1  0  0  0  0
  4 10  1  0  0  0  0
  4  9  1  0  0  0  0
  5  4  2  0  0  0  0
  6  5  1  0  0  0  0
  6  7  2  0  0  0  0
  7  8  1  0  0  0  0
  8  9  2  0  0  0  0
  8 12  1  0  0  0  0
 11  5  1  0  0  0  0
 13  1  1  0  0  0  0
 14 13  1  0  0  0  0
 14 15  1  0  0  0  0
 16 14  2  0  0  0  0
 17 16  1  0  0  0  0
 18 16  1  0  0  0  0
 18 20  1  0  0  0  0
 19 18  1  0  0  0  0
 20 13  2  0  0  0  0
M  END
>  <minimizedAffinity>
-3.70664334

>  <minimizedRMSD>
0.238577694

$$$$
