
 OpenBabel03252509283D

 20 21  0  0  0  0  0  0  0  0999 V2000
   47.0280   34.8660   41.9610 C   0  0  0  0  0  0  0  0  0  0  0  0
   47.9270   34.2150   42.1670 H   0  0  0  0  0  0  0  0  0  0  0  0
   47.4520   35.8580   41.7080 H   0  0  0  0  0  0  0  0  0  0  0  0
   44.6020   36.0320   44.5380 C   0  0  0  0  0  0  0  0  0  0  0  0
   45.3670   36.0050   43.3530 C   0  0  0  0  0  0  0  0  0  0  0  0
   46.2270   34.9080   43.1880 C   0  0  0  0  0  0  0  0  0  0  0  0
   46.2720   33.9530   44.1620 N   0  0  0  0  0  0  0  0  0  0  0  0
   45.5190   34.0260   45.2790 C   0  0  0  0  0  0  0  0  0  0  0  0
   44.6820   35.0780   45.4580 N   0  0  0  0  0  0  0  0  0  0  0  0
   43.9570   36.9040   44.6090 H   0  0  0  0  0  0  0  0  0  0  0  0
   45.2960   36.7850   42.6100 H   0  0  0  0  0  0  0  0  0  0  0  0
   45.6380   33.2120   45.9830 H   0  0  0  0  0  0  0  0  0  0  0  0
   46.3480   34.2430   40.8070 C   0  0  0  0  0  0  0  0  0  0  0  0
   44.9660   34.1030   40.8380 C   0  0  0  0  0  0  0  0  0  0  0  0
   44.2400   34.3870   41.6110 H   0  0  0  0  0  0  0  0  0  0  0  0
   44.5100   33.5030   39.6770 C   0  0  0  0  0  0  0  0  0  0  0  0
   43.5260   33.2400   39.3540 H   0  0  0  0  0  0  0  0  0  0  0  0
   45.6560   33.2950   38.9680 N   0  0  0  0  0  0  0  0  0  0  0  0
   45.7810   32.8610   38.0190 H   0  0  0  0  0  0  0  0  0  0  0  0
   46.7390   33.7300   39.6300 N   0  0  0  0  0  0  0  0  0  0  0  0
  1  2  1  0  0  0  0
  1  6  1  0  0  0  0
  3  1  1  0  0  0  0
  4 10  1  0  0  0  0
  4  9  1  0  0  0  0
  5  4  2  0  0  0  0
  6  5  1  0  0  0  0
  6  7  2  0  0  0  0
  7  8  1  0  0  0  0
  8  9  2  0  0  0  0
  8 12  1  0  0  0  0
 11  5  1  0  0  0  0
 13 14  1  0  0  0  0
 13  1  1  0  0  0  0
 14 15  1  0  0  0  0
 16 14  2  0  0  0  0
 17 16  1  0  0  0  0
 18 20  1  0  0  0  0
 18 16  1  0  0  0  0
 19 18  1  0  0  0  0
 20 13  2  0  0  0  0
M  END
>  <minimizedAffinity>
-3.8957448

>  <minimizedRMSD>
0.287254453

$$$$
