
 OpenBabel03252503543D

 35 37  0  0  1  0  0  0  0  0999 V2000
   36.9690   28.1810   40.9480 N   0  0  0  0  0  0  0  0  0  0  0  0
   37.3080   26.8520   41.4700 C   0  0  0  0  0  0  0  0  0  0  0  0
   36.9420   26.8760   42.9470 C   0  0  0  0  0  0  0  0  0  0  0  0
   37.9040   27.7780   43.6620 C   0  0  0  0  0  0  0  0  0  0  0  0
   38.0200   29.0720   42.9200 C   0  0  0  0  0  0  0  0  0  0  0  0
   36.9700   29.2520   41.8690 C   0  0  1  0  0  0  0  0  0  0  0  0
   36.8010   26.0600   40.9230 H   0  0  0  0  0  0  0  0  0  0  0  0
   38.4150   26.7950   41.4380 H   0  0  0  0  0  0  0  0  0  0  0  0
   37.1110   25.8520   43.3310 H   0  0  0  0  0  0  0  0  0  0  0  0
   35.8830   27.1730   43.0950 H   0  0  0  0  0  0  0  0  0  0  0  0
   37.5370   27.9910   44.7060 H   0  0  0  0  0  0  0  0  0  0  0  0
   38.8640   27.2390   43.7950 H   0  0  0  0  0  0  0  0  0  0  0  0
   38.1430   29.9530   43.5740 H   0  0  0  0  0  0  0  0  0  0  0  0
   38.9990   29.0100   42.3580 H   0  0  0  0  0  0  0  0  0  0  0  0
   35.9850   29.3060   42.3710 H   0  0  0  0  0  0  0  0  0  0  0  0
   35.1260   28.6030   37.7760 C   0  0  0  0  0  0  0  0  0  0  0  0
   35.3820   28.3740   39.1270 C   0  0  0  0  0  0  0  0  0  0  0  0
   36.6830   28.3480   39.5950 C   0  0  0  0  0  0  0  0  0  0  0  0
   37.6580   28.5420   38.6910 N   0  0  0  0  0  0  0  0  0  0  0  0
   37.4260   28.7610   37.3670 C   0  0  0  0  0  0  0  0  0  0  0  0
   36.1440   28.7910   36.9200 N   0  0  0  0  0  0  0  0  0  0  0  0
   34.5100   28.1850   39.7110 H   0  0  0  0  0  0  0  0  0  0  0  0
   38.2540   28.9100   36.6810 H   0  0  0  0  0  0  0  0  0  0  0  0
   33.6890   28.6700   37.3440 C   0  0  0  0  0  0  0  0  0  0  0  0
   33.5270   29.5070   36.2430 F   0  0  0  0  0  0  0  0  0  0  0  0
   33.2930   27.3840   37.0600 F   0  0  0  0  0  0  0  0  0  0  0  0
   32.9100   29.1530   38.3860 F   0  0  0  0  0  0  0  0  0  0  0  0
   37.2600   30.6150   41.2850 C   0  0  0  0  0  0  0  0  0  0  0  0
   38.5070   31.2360   41.0750 C   0  0  0  0  0  0  0  0  0  0  0  0
   39.3940   30.6710   41.3810 H   0  0  0  0  0  0  0  0  0  0  0  0
   38.2680   32.4610   40.5070 C   0  0  0  0  0  0  0  0  0  0  0  0
   39.1620   33.0330   40.2980 H   0  0  0  0  0  0  0  0  0  0  0  0
   36.9450   32.5920   40.3730 N   0  0  0  0  0  0  0  0  0  0  0  0
   36.5660   33.4630   39.9560 H   0  0  0  0  0  0  0  0  0  0  0  0
   36.3370   31.5130   40.8270 N   0  0  0  0  0  0  0  0  0  0  0  0
  1  2  1  0  0  0  0
  1  6  1  0  0  0  0
  2  3  1  0  0  0  0
  3 10  1  0  0  0  0
  3  9  1  0  0  0  0
  3  4  1  0  0  0  0
  4 12  1  0  0  0  0
  4 11  1  0  0  0  0
  5 13  1  0  0  0  0
  5  4  1  0  0  0  0
  6 15  1  1  0  0  0
  6  5  1  0  0  0  0
  7  2  1  0  0  0  0
  8  2  1  0  0  0  0
 14  5  1  0  0  0  0
 16 17  1  0  0  0  0
 17 18  2  0  0  0  0
 17 22  1  0  0  0  0
 18  1  1  0  0  0  0
 19 18  1  0  0  0  0
 20 19  2  0  0  0  0
 21 20  1  0  0  0  0
 21 16  2  0  0  0  0
 23 20  1  0  0  0  0
 24 16  1  0  0  0  0
 24 27  1  0  0  0  0
 25 24  1  0  0  0  0
 26 24  1  0  0  0  0
 28  6  1  0  0  0  0
 29 28  1  0  0  0  0
 29 30  1  0  0  0  0
 31 29  2  0  0  0  0
 32 31  1  0  0  0  0
 33 31  1  0  0  0  0
 33 35  1  0  0  0  0
 34 33  1  0  0  0  0
 35 28  2  0  0  0  0
M  END
>  <minimizedAffinity>
-5.5787406

$$$$

 OpenBabel03252503543D

 35 37  0  0  1  0  0  0  0  0999 V2000
   36.8360   28.0810   40.9450 N   0  0  0  0  0  0  0  0  0  0  0  0
   37.1850   26.7490   41.4540 C   0  0  0  0  0  0  0  0  0  0  0  0
   36.8960   26.7830   42.9480 C   0  0  0  0  0  0  0  0  0  0  0  0
   37.9050   27.6760   43.6090 C   0  0  0  0  0  0  0  0  0  0  0  0
   37.9990   28.9650   42.8560 C   0  0  0  0  0  0  0  0  0  0  0  0
   36.8980   29.1550   41.8600 C   0  0  1  0  0  0  0  0  0  0  0  0
   36.6410   25.9620   40.9370 H   0  0  0  0  0  0  0  0  0  0  0  0
   38.2890   26.6780   41.3660 H   0  0  0  0  0  0  0  0  0  0  0  0
   37.0720   25.7590   43.3270 H   0  0  0  0  0  0  0  0  0  0  0  0
   35.8500   27.0940   43.1490 H   0  0  0  0  0  0  0  0  0  0  0  0
   37.5950   27.8970   44.6700 H   0  0  0  0  0  0  0  0  0  0  0  0
   38.8640   27.1260   43.6950 H   0  0  0  0  0  0  0  0  0  0  0  0
   38.1660   29.8470   43.4990 H   0  0  0  0  0  0  0  0  0  0  0  0
   38.9460   28.8890   42.2450 H   0  0  0  0  0  0  0  0  0  0  0  0
   35.9420   29.2230   42.4110 H   0  0  0  0  0  0  0  0  0  0  0  0
   37.0070   28.1970   37.2580 C   0  0  0  0  0  0  0  0  0  0  0  0
   37.4040   28.0840   38.5900 C   0  0  0  0  0  0  0  0  0  0  0  0
   36.4830   28.2460   39.6080 C   0  0  0  0  0  0  0  0  0  0  0  0
   35.2180   28.5220   39.2450 N   0  0  0  0  0  0  0  0  0  0  0  0
   34.8140   28.6410   37.9500 C   0  0  0  0  0  0  0  0  0  0  0  0
   35.7260   28.4740   36.9580 N   0  0  0  0  0  0  0  0  0  0  0  0
   38.4480   27.9150   38.7210 H   0  0  0  0  0  0  0  0  0  0  0  0
   33.7780   28.8670   37.7160 H   0  0  0  0  0  0  0  0  0  0  0  0
   38.0470   27.9570   36.2010 C   0  0  0  0  0  0  0  0  0  0  0  0
   38.2670   26.5960   36.0030 F   0  0  0  0  0  0  0  0  0  0  0  0
   37.6000   28.5660   35.0520 F   0  0  0  0  0  0  0  0  0  0  0  0
   39.2430   28.5490   36.5790 F   0  0  0  0  0  0  0  0  0  0  0  0
   37.1750   30.5120   41.2560 C   0  0  0  0  0  0  0  0  0  0  0  0
   38.4170   31.1030   40.9490 C   0  0  0  0  0  0  0  0  0  0  0  0
   39.3110   30.5160   41.1850 H   0  0  0  0  0  0  0  0  0  0  0  0
   38.1640   32.3350   40.4020 C   0  0  0  0  0  0  0  0  0  0  0  0
   39.0530   32.8850   40.1240 H   0  0  0  0  0  0  0  0  0  0  0  0
   36.8370   32.4980   40.3720 N   0  0  0  0  0  0  0  0  0  0  0  0
   36.4490   33.3790   39.9870 H   0  0  0  0  0  0  0  0  0  0  0  0
   36.2410   31.4340   40.8720 N   0  0  0  0  0  0  0  0  0  0  0  0
  1  2  1  0  0  0  0
  1  6  1  0  0  0  0
  2  3  1  0  0  0  0
  3 10  1  0  0  0  0
  3  9  1  0  0  0  0
  3  4  1  0  0  0  0
  4 12  1  0  0  0  0
  4 11  1  0  0  0  0
  5 13  1  0  0  0  0
  5  4  1  0  0  0  0
  6 15  1  1  0  0  0
  6  5  1  0  0  0  0
  7  2  1  0  0  0  0
  8  2  1  0  0  0  0
 14  5  1  0  0  0  0
 16 17  1  0  0  0  0
 17 22  1  0  0  0  0
 17 18  2  0  0  0  0
 18  1  1  0  0  0  0
 19 18  1  0  0  0  0
 20 19  2  0  0  0  0
 21 16  2  0  0  0  0
 21 20  1  0  0  0  0
 23 20  1  0  0  0  0
 24 27  1  0  0  0  0
 24 16  1  0  0  0  0
 25 24  1  0  0  0  0
 26 24  1  0  0  0  0
 28  6  1  0  0  0  0
 29 30  1  0  0  0  0
 29 28  1  0  0  0  0
 31 29  2  0  0  0  0
 32 31  1  0  0  0  0
 33 31  1  0  0  0  0
 33 35  1  0  0  0  0
 34 33  1  0  0  0  0
 35 28  2  0  0  0  0
M  END
>  <minimizedAffinity>
-5.34695721

$$$$

 OpenBabel03252503543D

 35 37  0  0  1  0  0  0  0  0999 V2000
   35.8710   27.2940   38.3260 N   0  0  0  0  0  0  0  0  0  0  0  0
   35.0980   26.2920   37.5800 C   0  0  0  0  0  0  0  0  0  0  0  0
   34.4980   27.0280   36.3910 C   0  0  0  0  0  0  0  0  0  0  0  0
   33.4420   27.9670   36.8940 C   0  0  0  0  0  0  0  0  0  0  0  0
   33.9850   28.7600   38.0410 C   0  0  0  0  0  0  0  0  0  0  0  0
   35.4680   28.6410   38.1970 C   0  0  1  0  0  0  0  0  0  0  0  0
   35.7120   25.4440   37.2860 H   0  0  0  0  0  0  0  0  0  0  0  0
   34.2410   26.0330   38.2350 H   0  0  0  0  0  0  0  0  0  0  0  0
   33.9860   26.2650   35.7740 H   0  0  0  0  0  0  0  0  0  0  0  0
   35.2820   27.5410   35.7970 H   0  0  0  0  0  0  0  0  0  0  0  0
   33.1310   28.6780   36.0770 H   0  0  0  0  0  0  0  0  0  0  0  0
   32.5310   27.3820   37.1340 H   0  0  0  0  0  0  0  0  0  0  0  0
   33.6210   29.8020   38.0760 H   0  0  0  0  0  0  0  0  0  0  0  0
   33.5470   28.2860   38.9690 H   0  0  0  0  0  0  0  0  0  0  0  0
   35.9460   29.0830   37.3030 H   0  0  0  0  0  0  0  0  0  0  0  0
   37.8620   25.5630   40.9100 C   0  0  0  0  0  0  0  0  0  0  0  0
   36.7670   25.9870   40.1590 C   0  0  0  0  0  0  0  0  0  0  0  0
   36.9350   26.8960   39.1320 C   0  0  0  0  0  0  0  0  0  0  0  0
   38.1850   27.3410   38.9120 N   0  0  0  0  0  0  0  0  0  0  0  0
   39.2660   26.9420   39.6390 C   0  0  0  0  0  0  0  0  0  0  0  0
   39.0890   26.0440   40.6420 N   0  0  0  0  0  0  0  0  0  0  0  0
   35.8330   25.5870   40.4850 H   0  0  0  0  0  0  0  0  0  0  0  0
   40.2530   27.3360   39.4180 H   0  0  0  0  0  0  0  0  0  0  0  0
   37.6160   24.5350   41.9770 C   0  0  0  0  0  0  0  0  0  0  0  0
   38.6680   24.4860   42.8880 F   0  0  0  0  0  0  0  0  0  0  0  0
   36.4330   24.8690   42.5920 F   0  0  0  0  0  0  0  0  0  0  0  0
   37.4750   23.2830   41.3960 F   0  0  0  0  0  0  0  0  0  0  0  0
   35.7890   29.5340   39.3740 C   0  0  0  0  0  0  0  0  0  0  0  0
   36.6530   30.6460   39.4260 C   0  0  0  0  0  0  0  0  0  0  0  0
   37.1770   30.9030   38.4990 H   0  0  0  0  0  0  0  0  0  0  0  0
   36.6070   31.1450   40.7020 C   0  0  0  0  0  0  0  0  0  0  0  0
   37.2370   32.0100   40.8610 H   0  0  0  0  0  0  0  0  0  0  0  0
   35.7610   30.3830   41.4030 N   0  0  0  0  0  0  0  0  0  0  0  0
   35.5930   30.6080   42.4010 H   0  0  0  0  0  0  0  0  0  0  0  0
   35.2720   29.4300   40.6350 N   0  0  0  0  0  0  0  0  0  0  0  0
  1 18  1  0  0  0  0
  2  8  1  0  0  0  0
  2  1  1  0  0  0  0
  3  4  1  0  0  0  0
  3  2  1  0  0  0  0
  4 12  1  0  0  0  0
  4  5  1  0  0  0  0
  5 13  1  0  0  0  0
  5  6  1  0  0  0  0
  5 14  1  0  0  0  0
  6 15  1  6  0  0  0
  6  1  1  0  0  0  0
  6 28  1  0  0  0  0
  7  2  1  0  0  0  0
  9  3  1  0  0  0  0
 10  3  1  0  0  0  0
 11  4  1  0  0  0  0
 16 24  1  0  0  0  0
 17 22  1  0  0  0  0
 17 16  2  0  0  0  0
 18 17  1  0  0  0  0
 19 18  2  0  0  0  0
 19 20  1  0  0  0  0
 20 21  2  0  0  0  0
 21 16  1  0  0  0  0
 23 20  1  0  0  0  0
 24 26  1  0  0  0  0
 24 25  1  0  0  0  0
 27 24  1  0  0  0  0
 28 29  1  0  0  0  0
 28 35  2  0  0  0  0
 29 31  2  0  0  0  0
 30 29  1  0  0  0  0
 31 32  1  0  0  0  0
 31 33  1  0  0  0  0
 33 34  1  0  0  0  0
 35 33  1  0  0  0  0
M  END
>  <minimizedAffinity>
-5.29398632

$$$$

 OpenBabel03252503543D

 35 37  0  0  1  0  0  0  0  0999 V2000
   38.3460   28.7170   41.4510 N   0  0  0  0  0  0  0  0  0  0  0  0
   39.1100   28.6440   42.7030 C   0  0  0  0  0  0  0  0  0  0  0  0
   38.9270   27.2260   43.2230 C   0  0  0  0  0  0  0  0  0  0  0  0
   37.5070   27.0650   43.6800 C   0  0  0  0  0  0  0  0  0  0  0  0
   36.5810   27.5780   42.6220 C   0  0  0  0  0  0  0  0  0  0  0  0
   37.2570   27.8300   41.3110 C   0  0  1  0  0  0  0  0  0  0  0  0
   40.1550   28.9080   42.5560 H   0  0  0  0  0  0  0  0  0  0  0  0
   38.5680   29.2960   43.4180 H   0  0  0  0  0  0  0  0  0  0  0  0
   39.5690   27.1330   44.1190 H   0  0  0  0  0  0  0  0  0  0  0  0
   39.2200   26.4760   42.4590 H   0  0  0  0  0  0  0  0  0  0  0  0
   37.2770   25.9770   43.8660 H   0  0  0  0  0  0  0  0  0  0  0  0
   37.3930   27.5590   44.6660 H   0  0  0  0  0  0  0  0  0  0  0  0
   35.6450   27.0000   42.5300 H   0  0  0  0  0  0  0  0  0  0  0  0
   36.2420   28.5930   42.9850 H   0  0  0  0  0  0  0  0  0  0  0  0
   37.6200   26.8620   40.9180 H   0  0  0  0  0  0  0  0  0  0  0  0
   38.9040   31.9110   39.6830 C   0  0  0  0  0  0  0  0  0  0  0  0
   38.4890   31.0010   40.6540 C   0  0  0  0  0  0  0  0  0  0  0  0
   38.6960   29.6460   40.4730 C   0  0  0  0  0  0  0  0  0  0  0  0
   39.2970   29.2700   39.3310 N   0  0  0  0  0  0  0  0  0  0  0  0
   39.7040   30.1450   38.3700 C   0  0  0  0  0  0  0  0  0  0  0  0
   39.5000   31.4740   38.5610 N   0  0  0  0  0  0  0  0  0  0  0  0
   37.9810   31.4450   41.4800 H   0  0  0  0  0  0  0  0  0  0  0  0
   40.1830   29.7830   37.4650 H   0  0  0  0  0  0  0  0  0  0  0  0
   38.6960   33.3710   39.9660 C   0  0  0  0  0  0  0  0  0  0  0  0
   39.6100   34.1600   39.2720 F   0  0  0  0  0  0  0  0  0  0  0  0
   37.4020   33.6700   39.6090 F   0  0  0  0  0  0  0  0  0  0  0  0
   38.8460   33.6100   41.3250 F   0  0  0  0  0  0  0  0  0  0  0  0
   36.1430   28.3020   40.4050 C   0  0  0  0  0  0  0  0  0  0  0  0
   35.8900   27.9510   39.0640 C   0  0  0  0  0  0  0  0  0  0  0  0
   36.5930   27.2520   38.6000 H   0  0  0  0  0  0  0  0  0  0  0  0
   34.7590   28.6190   38.6690 C   0  0  0  0  0  0  0  0  0  0  0  0
   34.4660   28.4240   37.6460 H   0  0  0  0  0  0  0  0  0  0  0  0
   34.3350   29.3440   39.7090 N   0  0  0  0  0  0  0  0  0  0  0  0
   33.4820   29.9240   39.6020 H   0  0  0  0  0  0  0  0  0  0  0  0
   35.1400   29.1690   40.7390 N   0  0  0  0  0  0  0  0  0  0  0  0
  1  2  1  0  0  0  0
  2  3  1  0  0  0  0
  2  8  1  0  0  0  0
  3  4  1  0  0  0  0
  3  9  1  0  0  0  0
  4 11  1  0  0  0  0
  4 12  1  0  0  0  0
  5 14  1  0  0  0  0
  5  4  1  0  0  0  0
  6 15  1  6  0  0  0
  6  1  1  0  0  0  0
  6  5  1  0  0  0  0
  7  2  1  0  0  0  0
 10  3  1  0  0  0  0
 13  5  1  0  0  0  0
 16 24  1  0  0  0  0
 16 17  1  0  0  0  0
 17 22  1  0  0  0  0
 18 17  2  0  0  0  0
 18  1  1  0  0  0  0
 19 18  1  0  0  0  0
 20 21  1  0  0  0  0
 20 19  2  0  0  0  0
 21 16  2  0  0  0  0
 23 20  1  0  0  0  0
 24 27  1  0  0  0  0
 25 24  1  0  0  0  0
 26 24  1  0  0  0  0
 28 35  2  0  0  0  0
 28  6  1  0  0  0  0
 29 28  1  0  0  0  0
 30 29  1  0  0  0  0
 31 29  2  0  0  0  0
 31 33  1  0  0  0  0
 32 31  1  0  0  0  0
 33 35  1  0  0  0  0
 34 33  1  0  0  0  0
M  END
>  <minimizedAffinity>
-5.22815657

$$$$

 OpenBabel03252503543D

 35 37  0  0  1  0  0  0  0  0999 V2000
   37.5280   29.8260   40.2370 N   0  0  0  0  0  0  0  0  0  0  0  0
   36.3110   30.1510   39.4820 C   0  0  0  0  0  0  0  0  0  0  0  0
   36.7770   30.5530   38.0900 C   0  0  0  0  0  0  0  0  0  0  0  0
   37.4820   31.8730   38.1860 C   0  0  0  0  0  0  0  0  0  0  0  0
   38.4780   31.8280   39.3010 C   0  0  0  0  0  0  0  0  0  0  0  0
   38.7260   30.4470   39.8220 C   0  0  1  0  0  0  0  0  0  0  0  0
   35.6090   29.3210   39.4680 H   0  0  0  0  0  0  0  0  0  0  0  0
   35.9160   31.0790   39.9430 H   0  0  0  0  0  0  0  0  0  0  0  0
   35.8640   30.7150   37.4860 H   0  0  0  0  0  0  0  0  0  0  0  0
   37.4060   29.7620   37.6320 H   0  0  0  0  0  0  0  0  0  0  0  0
   38.0250   32.0970   37.2240 H   0  0  0  0  0  0  0  0  0  0  0  0
   36.7220   32.6750   38.2830 H   0  0  0  0  0  0  0  0  0  0  0  0
   39.4040   32.3940   39.0970 H   0  0  0  0  0  0  0  0  0  0  0  0
   37.9970   32.3890   40.1570 H   0  0  0  0  0  0  0  0  0  0  0  0
   39.1880   29.8510   39.0120 H   0  0  0  0  0  0  0  0  0  0  0  0
   37.4840   26.7370   42.2600 C   0  0  0  0  0  0  0  0  0  0  0  0
   37.4880   27.5830   41.1520 C   0  0  0  0  0  0  0  0  0  0  0  0
   37.4640   28.9540   41.3220 C   0  0  0  0  0  0  0  0  0  0  0  0
   37.4280   29.4100   42.5860 N   0  0  0  0  0  0  0  0  0  0  0  0
   37.4170   28.5980   43.6800 C   0  0  0  0  0  0  0  0  0  0  0  0
   37.4470   27.2530   43.5010 N   0  0  0  0  0  0  0  0  0  0  0  0
   37.4650   27.0750   40.2150 H   0  0  0  0  0  0  0  0  0  0  0  0
   37.3860   29.0220   44.6790 H   0  0  0  0  0  0  0  0  0  0  0  0
   37.5640   25.2590   42.0050 C   0  0  0  0  0  0  0  0  0  0  0  0
   37.6630   24.9810   40.6440 F   0  0  0  0  0  0  0  0  0  0  0  0
   38.6580   24.7900   42.6950 F   0  0  0  0  0  0  0  0  0  0  0  0
   36.4280   24.6370   42.5020 F   0  0  0  0  0  0  0  0  0  0  0  0
   39.7690   30.6390   40.8990 C   0  0  0  0  0  0  0  0  0  0  0  0
   40.8580   29.8090   41.2280 C   0  0  0  0  0  0  0  0  0  0  0  0
   40.9710   28.8920   40.6390 H   0  0  0  0  0  0  0  0  0  0  0  0
   41.5340   30.4040   42.2620 C   0  0  0  0  0  0  0  0  0  0  0  0
   42.3990   29.8500   42.6010 H   0  0  0  0  0  0  0  0  0  0  0  0
   40.8970   31.5410   42.5580 N   0  0  0  0  0  0  0  0  0  0  0  0
   41.2630   32.1380   43.3230 H   0  0  0  0  0  0  0  0  0  0  0  0
   39.8550   31.6940   41.7640 N   0  0  0  0  0  0  0  0  0  0  0  0
  1 18  1  0  0  0  0
  2  8  1  0  0  0  0
  2  1  1  0  0  0  0
  3  4  1  0  0  0  0
  3  2  1  0  0  0  0
  4 12  1  0  0  0  0
  4  5  1  0  0  0  0
  5  6  1  0  0  0  0
  5 14  1  0  0  0  0
  6 15  1  6  0  0  0
  6  1  1  0  0  0  0
  6 28  1  0  0  0  0
  7  2  1  0  0  0  0
  9  3  1  0  0  0  0
 10  3  1  0  0  0  0
 11  4  1  0  0  0  0
 13  5  1  0  0  0  0
 16 21  1  0  0  0  0
 17 18  1  0  0  0  0
 17 16  2  0  0  0  0
 18 19  2  0  0  0  0
 19 20  1  0  0  0  0
 20 23  1  0  0  0  0
 21 20  2  0  0  0  0
 22 17  1  0  0  0  0
 24 16  1  0  0  0  0
 24 27  1  0  0  0  0
 24 26  1  0  0  0  0
 25 24  1  0  0  0  0
 28 29  1  0  0  0  0
 28 35  2  0  0  0  0
 29 31  2  0  0  0  0
 30 29  1  0  0  0  0
 31 33  1  0  0  0  0
 31 32  1  0  0  0  0
 33 34  1  0  0  0  0
 35 33  1  0  0  0  0
M  END
>  <minimizedAffinity>
-5.18691015

$$$$

 OpenBabel03252503543D

 35 37  0  0  1  0  0  0  0  0999 V2000
   38.0110   29.3930   41.6630 N   0  0  0  0  0  0  0  0  0  0  0  0
   38.6580   29.3960   42.9800 C   0  0  0  0  0  0  0  0  0  0  0  0
   38.7900   27.9350   43.3850 C   0  0  0  0  0  0  0  0  0  0  0  0
   37.4210   27.3970   43.6800 C   0  0  0  0  0  0  0  0  0  0  0  0
   36.4910   27.7620   42.5660 C   0  0  0  0  0  0  0  0  0  0  0  0
   37.1920   28.2850   41.3520 C   0  0  1  0  0  0  0  0  0  0  0  0
   39.6130   29.9160   42.9610 H   0  0  0  0  0  0  0  0  0  0  0  0
   37.9120   29.8320   43.6760 H   0  0  0  0  0  0  0  0  0  0  0  0
   39.3550   27.9210   44.3360 H   0  0  0  0  0  0  0  0  0  0  0  0
   39.3250   27.3480   42.6100 H   0  0  0  0  0  0  0  0  0  0  0  0
   37.4540   26.2740   43.7700 H   0  0  0  0  0  0  0  0  0  0  0  0
   37.1030   27.7600   44.6780 H   0  0  0  0  0  0  0  0  0  0  0  0
   35.7380   26.9870   42.3390 H   0  0  0  0  0  0  0  0  0  0  0  0
   35.8800   28.6300   42.9560 H   0  0  0  0  0  0  0  0  0  0  0  0
   37.8170   27.4720   40.9370 H   0  0  0  0  0  0  0  0  0  0  0  0
   39.3220   31.5030   38.9300 C   0  0  0  0  0  0  0  0  0  0  0  0
   39.1950   30.4450   39.8290 C   0  0  0  0  0  0  0  0  0  0  0  0
   38.2010   30.4620   40.7890 C   0  0  0  0  0  0  0  0  0  0  0  0
   37.3920   31.5360   40.8080 N   0  0  0  0  0  0  0  0  0  0  0  0
   37.5050   32.5800   39.9420 C   0  0  0  0  0  0  0  0  0  0  0  0
   38.4820   32.5500   38.9990 N   0  0  0  0  0  0  0  0  0  0  0  0
   39.9410   29.6910   39.7240 H   0  0  0  0  0  0  0  0  0  0  0  0
   36.8240   33.4230   40.0050 H   0  0  0  0  0  0  0  0  0  0  0  0
   40.3900   31.3970   37.8800 C   0  0  0  0  0  0  0  0  0  0  0  0
   40.4420   30.1170   37.3330 F   0  0  0  0  0  0  0  0  0  0  0  0
   40.1080   32.3420   36.9220 F   0  0  0  0  0  0  0  0  0  0  0  0
   41.6260   31.6890   38.4390 F   0  0  0  0  0  0  0  0  0  0  0  0
   36.0770   28.5530   40.3670 C   0  0  0  0  0  0  0  0  0  0  0  0
   36.0140   28.2240   38.9980 C   0  0  0  0  0  0  0  0  0  0  0  0
   36.8880   27.7160   38.5760 H   0  0  0  0  0  0  0  0  0  0  0  0
   34.8000   28.6540   38.5270 C   0  0  0  0  0  0  0  0  0  0  0  0
   34.6390   28.4520   37.4760 H   0  0  0  0  0  0  0  0  0  0  0  0
   34.1470   29.2170   39.5470 N   0  0  0  0  0  0  0  0  0  0  0  0
   33.1990   29.6050   39.3840 H   0  0  0  0  0  0  0  0  0  0  0  0
   34.8860   29.1660   40.6380 N   0  0  0  0  0  0  0  0  0  0  0  0
  1  2  1  0  0  0  0
  2  3  1  0  0  0  0
  2  8  1  0  0  0  0
  3  4  1  0  0  0  0
  3  9  1  0  0  0  0
  4 11  1  0  0  0  0
  4 12  1  0  0  0  0
  5 14  1  0  0  0  0
  5  4  1  0  0  0  0
  6 15  1  6  0  0  0
  6  1  1  0  0  0  0
  6  5  1  0  0  0  0
  7  2  1  0  0  0  0
 10  3  1  0  0  0  0
 13  5  1  0  0  0  0
 16 21  2  0  0  0  0
 16 17  1  0  0  0  0
 17 18  2  0  0  0  0
 18 19  1  0  0  0  0
 18  1  1  0  0  0  0
 20 23  1  0  0  0  0
 20 19  2  0  0  0  0
 21 20  1  0  0  0  0
 22 17  1  0  0  0  0
 24 27  1  0  0  0  0
 24 16  1  0  0  0  0
 25 24  1  0  0  0  0
 26 24  1  0  0  0  0
 28 35  2  0  0  0  0
 28  6  1  0  0  0  0
 29 28  1  0  0  0  0
 30 29  1  0  0  0  0
 31 29  2  0  0  0  0
 31 33  1  0  0  0  0
 32 31  1  0  0  0  0
 33 35  1  0  0  0  0
 34 33  1  0  0  0  0
M  END
>  <minimizedAffinity>
-5.17613983

$$$$

 OpenBabel03252503543D

 35 37  0  0  1  0  0  0  0  0999 V2000
   35.4200   28.9360   38.4020 N   0  0  0  0  0  0  0  0  0  0  0  0
   33.9760   28.9090   38.1360 C   0  0  0  0  0  0  0  0  0  0  0  0
   33.7940   28.0360   36.9030 C   0  0  0  0  0  0  0  0  0  0  0  0
   34.3460   28.7670   35.7150 C   0  0  0  0  0  0  0  0  0  0  0  0
   35.7090   29.2910   36.0410 C   0  0  0  0  0  0  0  0  0  0  0  0
   36.2790   28.7230   37.3020 C   0  0  1  0  0  0  0  0  0  0  0  0
   33.4120   28.5500   38.9940 H   0  0  0  0  0  0  0  0  0  0  0  0
   33.7160   29.9380   37.8140 H   0  0  0  0  0  0  0  0  0  0  0  0
   32.7030   27.9370   36.7450 H   0  0  0  0  0  0  0  0  0  0  0  0
   34.2550   27.0370   37.0450 H   0  0  0  0  0  0  0  0  0  0  0  0
   34.4270   28.0720   34.8310 H   0  0  0  0  0  0  0  0  0  0  0  0
   33.6190   29.5460   35.4070 H   0  0  0  0  0  0  0  0  0  0  0  0
   36.4130   29.2660   35.1900 H   0  0  0  0  0  0  0  0  0  0  0  0
   35.5670   30.3930   36.2460 H   0  0  0  0  0  0  0  0  0  0  0  0
   36.4260   27.6360   37.1560 H   0  0  0  0  0  0  0  0  0  0  0  0
   36.6580   28.4280   41.8430 C   0  0  0  0  0  0  0  0  0  0  0  0
   36.1340   28.1550   40.5820 C   0  0  0  0  0  0  0  0  0  0  0  0
   35.8880   29.1820   39.6910 C   0  0  0  0  0  0  0  0  0  0  0  0
   36.1690   30.4290   40.1080 N   0  0  0  0  0  0  0  0  0  0  0  0
   36.6760   30.7150   41.3390 C   0  0  0  0  0  0  0  0  0  0  0  0
   36.9200   29.6970   42.2040 N   0  0  0  0  0  0  0  0  0  0  0  0
   35.9140   27.1250   40.4150 H   0  0  0  0  0  0  0  0  0  0  0  0
   36.8830   31.7430   41.6230 H   0  0  0  0  0  0  0  0  0  0  0  0
   36.9510   27.2610   42.7420 C   0  0  0  0  0  0  0  0  0  0  0  0
   38.2020   27.3820   43.3430 F   0  0  0  0  0  0  0  0  0  0  0  0
   35.9450   27.2130   43.6800 F   0  0  0  0  0  0  0  0  0  0  0  0
   36.9250   26.0860   42.0050 F   0  0  0  0  0  0  0  0  0  0  0  0
   37.6470   29.3580   37.4100 C   0  0  0  0  0  0  0  0  0  0  0  0
   38.8710   28.7580   37.7640 C   0  0  0  0  0  0  0  0  0  0  0  0
   38.8410   27.6900   38.0080 H   0  0  0  0  0  0  0  0  0  0  0  0
   39.8380   29.7280   37.7070 C   0  0  0  0  0  0  0  0  0  0  0  0
   40.8300   29.3780   37.9610 H   0  0  0  0  0  0  0  0  0  0  0  0
   39.2450   30.8680   37.3370 N   0  0  0  0  0  0  0  0  0  0  0  0
   39.8210   31.7240   37.2380 H   0  0  0  0  0  0  0  0  0  0  0  0
   37.9540   30.6660   37.1590 N   0  0  0  0  0  0  0  0  0  0  0  0
  1 18  1  0  0  0  0
  2  1  1  0  0  0  0
  2  7  1  0  0  0  0
  3 10  1  0  0  0  0
  3  2  1  0  0  0  0
  4  5  1  0  0  0  0
  4  3  1  0  0  0  0
  5 14  1  0  0  0  0
  5  6  1  0  0  0  0
  6 15  1  6  0  0  0
  6 28  1  0  0  0  0
  6  1  1  0  0  0  0
  8  2  1  0  0  0  0
  9  3  1  0  0  0  0
 11  4  1  0  0  0  0
 12  4  1  0  0  0  0
 13  5  1  0  0  0  0
 16 21  1  0  0  0  0
 16 24  1  0  0  0  0
 17 16  2  0  0  0  0
 18 19  2  0  0  0  0
 18 17  1  0  0  0  0
 19 20  1  0  0  0  0
 20 23  1  0  0  0  0
 20 21  2  0  0  0  0
 22 17  1  0  0  0  0
 24 25  1  0  0  0  0
 24 26  1  0  0  0  0
 27 24  1  0  0  0  0
 28 29  1  0  0  0  0
 29 30  1  0  0  0  0
 31 29  2  0  0  0  0
 31 32  1  0  0  0  0
 33 31  1  0  0  0  0
 34 33  1  0  0  0  0
 35 33  1  0  0  0  0
 35 28  2  0  0  0  0
M  END
>  <minimizedAffinity>
-5.17073011

$$$$

 OpenBabel03252503543D

 35 37  0  0  1  0  0  0  0  0999 V2000
   37.7570   26.0670   40.1460 N   0  0  0  0  0  0  0  0  0  0  0  0
   38.3420   24.8990   39.4760 C   0  0  0  0  0  0  0  0  0  0  0  0
   38.0950   23.7180   40.4030 C   0  0  0  0  0  0  0  0  0  0  0  0
   38.9570   23.8790   41.6210 C   0  0  0  0  0  0  0  0  0  0  0  0
   38.8080   25.2680   42.1560 C   0  0  0  0  0  0  0  0  0  0  0  0
   37.6630   26.0190   41.5540 C   0  0  1  0  0  0  0  0  0  0  0  0
   37.9240   24.7500   38.4830 H   0  0  0  0  0  0  0  0  0  0  0  0
   39.4380   25.0670   39.4920 H   0  0  0  0  0  0  0  0  0  0  0  0
   38.4540   22.8170   39.8700 H   0  0  0  0  0  0  0  0  0  0  0  0
   37.0180   23.6170   40.6490 H   0  0  0  0  0  0  0  0  0  0  0  0
   38.6450   23.1480   42.4200 H   0  0  0  0  0  0  0  0  0  0  0  0
   39.9970   23.5990   41.3600 H   0  0  0  0  0  0  0  0  0  0  0  0
   38.8420   25.3290   43.2580 H   0  0  0  0  0  0  0  0  0  0  0  0
   39.7360   25.8200   41.8240 H   0  0  0  0  0  0  0  0  0  0  0  0
   36.7250   25.5080   41.8430 H   0  0  0  0  0  0  0  0  0  0  0  0
   35.6240   28.4710   38.3270 C   0  0  0  0  0  0  0  0  0  0  0  0
   36.0210   27.3310   39.0250 C   0  0  0  0  0  0  0  0  0  0  0  0
   37.3410   27.1660   39.3970 C   0  0  0  0  0  0  0  0  0  0  0  0
   38.1990   28.1400   39.0460 N   0  0  0  0  0  0  0  0  0  0  0  0
   37.8300   29.2570   38.3600 C   0  0  0  0  0  0  0  0  0  0  0  0
   36.5290   29.4120   38.0050 N   0  0  0  0  0  0  0  0  0  0  0  0
   35.2390   26.6240   39.1850 H   0  0  0  0  0  0  0  0  0  0  0  0
   38.5670   30.0120   38.1020 H   0  0  0  0  0  0  0  0  0  0  0  0
   34.1650   28.6120   37.9990 C   0  0  0  0  0  0  0  0  0  0  0  0
   33.6160   27.4010   37.5850 F   0  0  0  0  0  0  0  0  0  0  0  0
   33.5430   29.0860   39.1310 F   0  0  0  0  0  0  0  0  0  0  0  0
   34.0030   29.5430   36.9830 F   0  0  0  0  0  0  0  0  0  0  0  0
   37.6870   27.3580   42.2560 C   0  0  0  0  0  0  0  0  0  0  0  0
   38.8000   28.1380   42.6260 C   0  0  0  0  0  0  0  0  0  0  0  0
   39.7870   27.7270   42.3890 H   0  0  0  0  0  0  0  0  0  0  0  0
   38.3250   29.2780   43.2220 C   0  0  0  0  0  0  0  0  0  0  0  0
   39.0990   29.9600   43.5500 H   0  0  0  0  0  0  0  0  0  0  0  0
   36.9900   29.2080   43.2220 N   0  0  0  0  0  0  0  0  0  0  0  0
   36.4460   29.9870   43.6350 H   0  0  0  0  0  0  0  0  0  0  0  0
   36.5990   28.0820   42.6560 N   0  0  0  0  0  0  0  0  0  0  0  0
  1  6  1  0  0  0  0
  2  8  1  0  0  0  0
  2  1  1  0  0  0  0
  2  3  1  0  0  0  0
  3 10  1  0  0  0  0
  3  4  1  0  0  0  0
  4  5  1  0  0  0  0
  4 11  1  0  0  0  0
  5 13  1  0  0  0  0
  6 15  1  1  0  0  0
  6  5  1  0  0  0  0
  6 28  1  0  0  0  0
  7  2  1  0  0  0  0
  9  3  1  0  0  0  0
 12  4  1  0  0  0  0
 14  5  1  0  0  0  0
 16 17  1  0  0  0  0
 17 22  1  0  0  0  0
 17 18  2  0  0  0  0
 18  1  1  0  0  0  0
 19 18  1  0  0  0  0
 20 19  2  0  0  0  0
 21 16  2  0  0  0  0
 21 20  1  0  0  0  0
 23 20  1  0  0  0  0
 24 16  1  0  0  0  0
 24 26  1  0  0  0  0
 25 24  1  0  0  0  0
 27 24  1  0  0  0  0
 28 29  1  0  0  0  0
 28 35  2  0  0  0  0
 29 31  2  0  0  0  0
 30 29  1  0  0  0  0
 31 33  1  0  0  0  0
 31 32  1  0  0  0  0
 33 34  1  0  0  0  0
 35 33  1  0  0  0  0
M  END
>  <minimizedAffinity>
-5.05187893

$$$$

 OpenBabel03252503543D

 35 37  0  0  1  0  0  0  0  0999 V2000
   37.7770   26.3420   39.7440 N   0  0  0  0  0  0  0  0  0  0  0  0
   38.0600   25.0580   39.0900 C   0  0  0  0  0  0  0  0  0  0  0  0
   36.8860   24.1500   39.4260 C   0  0  0  0  0  0  0  0  0  0  0  0
   36.9490   23.8090   40.8850 C   0  0  0  0  0  0  0  0  0  0  0  0
   37.1530   25.0600   41.6810 C   0  0  0  0  0  0  0  0  0  0  0  0
   36.9480   26.3110   40.8870 C   0  0  1  0  0  0  0  0  0  0  0  0
   38.2100   25.1740   38.0190 H   0  0  0  0  0  0  0  0  0  0  0  0
   38.9290   24.6340   39.6320 H   0  0  0  0  0  0  0  0  0  0  0  0
   37.0440   23.2090   38.8660 H   0  0  0  0  0  0  0  0  0  0  0  0
   35.9210   24.6140   39.1340 H   0  0  0  0  0  0  0  0  0  0  0  0
   35.9870   23.3230   41.2150 H   0  0  0  0  0  0  0  0  0  0  0  0
   37.7320   23.0380   41.0370 H   0  0  0  0  0  0  0  0  0  0  0  0
   36.6250   25.0640   42.6510 H   0  0  0  0  0  0  0  0  0  0  0  0
   38.2470   25.0610   41.9650 H   0  0  0  0  0  0  0  0  0  0  0  0
   35.8880   26.3510   40.5720 H   0  0  0  0  0  0  0  0  0  0  0  0
   38.1430   29.6580   38.1620 C   0  0  0  0  0  0  0  0  0  0  0  0
   37.5680   28.4650   38.5970 C   0  0  0  0  0  0  0  0  0  0  0  0
   38.3350   27.5170   39.2460 C   0  0  0  0  0  0  0  0  0  0  0  0
   39.6380   27.8040   39.4200 N   0  0  0  0  0  0  0  0  0  0  0  0
   40.2170   28.9610   38.9970 C   0  0  0  0  0  0  0  0  0  0  0  0
   39.4520   29.8880   38.3650 N   0  0  0  0  0  0  0  0  0  0  0  0
   36.5380   28.3580   38.3400 H   0  0  0  0  0  0  0  0  0  0  0  0
   41.2750   29.1390   39.1630 H   0  0  0  0  0  0  0  0  0  0  0  0
   37.2410   30.6670   37.5110 C   0  0  0  0  0  0  0  0  0  0  0  0
   36.3530   30.0600   36.6260 F   0  0  0  0  0  0  0  0  0  0  0  0
   36.5760   31.3230   38.5200 F   0  0  0  0  0  0  0  0  0  0  0  0
   38.0030   31.5910   36.8090 F   0  0  0  0  0  0  0  0  0  0  0  0
   37.1700   27.4240   41.8850 C   0  0  0  0  0  0  0  0  0  0  0  0
   38.1430   27.5160   42.8990 C   0  0  0  0  0  0  0  0  0  0  0  0
   38.8320   26.6700   42.9960 H   0  0  0  0  0  0  0  0  0  0  0  0
   37.9620   28.7160   43.5380 C   0  0  0  0  0  0  0  0  0  0  0  0
   38.6610   28.8980   44.3430 H   0  0  0  0  0  0  0  0  0  0  0  0
   36.9320   29.3340   42.9510 N   0  0  0  0  0  0  0  0  0  0  0  0
   36.6410   30.2660   43.2990 H   0  0  0  0  0  0  0  0  0  0  0  0
   36.4540   28.5850   41.9760 N   0  0  0  0  0  0  0  0  0  0  0  0
  1  6  1  0  0  0  0
  2  3  1  0  0  0  0
  2  8  1  0  0  0  0
  2  1  1  0  0  0  0
  3  4  1  0  0  0  0
  4 12  1  0  0  0  0
  4 11  1  0  0  0  0
  4  5  1  0  0  0  0
  5 14  1  0  0  0  0
  5 13  1  0  0  0  0
  6 15  1  6  0  0  0
  6  5  1  0  0  0  0
  6 28  1  0  0  0  0
  7  2  1  0  0  0  0
  9  3  1  0  0  0  0
 10  3  1  0  0  0  0
 16 21  2  0  0  0  0
 16 17  1  0  0  0  0
 17 18  2  0  0  0  0
 18 19  1  0  0  0  0
 18  1  1  0  0  0  0
 20 23  1  0  0  0  0
 20 19  2  0  0  0  0
 21 20  1  0  0  0  0
 22 17  1  0  0  0  0
 24 16  1  0  0  0  0
 24 26  1  0  0  0  0
 25 24  1  0  0  0  0
 27 24  1  0  0  0  0
 28 35  2  0  0  0  0
 28 29  1  0  0  0  0
 29 30  1  0  0  0  0
 29 31  2  0  0  0  0
 31 32  1  0  0  0  0
 33 34  1  0  0  0  0
 33 31  1  0  0  0  0
 35 33  1  0  0  0  0
M  END
>  <minimizedAffinity>
-5.03694677

$$$$
