
 OpenBabel03252504443D

 20 21  0  0  0  0  0  0  0  0999 V2000
   48.3870   34.3180   42.1550 C   0  0  0  0  0  0  0  0  0  0  0  0
   48.9320   33.0860   41.7850 C   0  0  0  0  0  0  0  0  0  0  0  0
   48.6050   31.9770   42.5760 C   0  0  0  0  0  0  0  0  0  0  0  0
   47.7890   32.1620   43.6440 N   0  0  0  0  0  0  0  0  0  0  0  0
   47.2850   33.3810   43.9620 C   0  0  0  0  0  0  0  0  0  0  0  0
   47.5880   34.4590   43.2110 N   0  0  0  0  0  0  0  0  0  0  0  0
   49.5780   32.9610   40.9310 H   0  0  0  0  0  0  0  0  0  0  0  0
   48.9810   30.9820   42.3660 H   0  0  0  0  0  0  0  0  0  0  0  0
   46.4180   33.4560   45.1350 C   0  0  0  0  0  0  0  0  0  0  0  0
   46.6520   32.5240   46.1250 C   0  0  0  0  0  0  0  0  0  0  0  0
   47.3520   31.7030   46.2670 H   0  0  0  0  0  0  0  0  0  0  0  0
   45.7150   32.7870   47.1320 C   0  0  0  0  0  0  0  0  0  0  0  0
   45.5520   32.2870   48.0890 H   0  0  0  0  0  0  0  0  0  0  0  0
   44.9660   33.8490   46.7160 N   0  0  0  0  0  0  0  0  0  0  0  0
   44.1930   34.2650   47.2630 H   0  0  0  0  0  0  0  0  0  0  0  0
   45.3940   34.2400   45.5250 N   0  0  0  0  0  0  0  0  0  0  0  0
   48.7430   35.4980   41.3010 C   0  0  0  0  0  0  0  0  0  0  0  0
   49.6550   35.9400   41.7750 H   0  0  0  0  0  0  0  0  0  0  0  0
   49.0000   35.1630   40.2810 H   0  0  0  0  0  0  0  0  0  0  0  0
   47.9710   36.2860   41.3170 H   0  0  0  0  0  0  0  0  0  0  0  0
  1  6  1  0  0  0  0
  2  1  2  0  0  0  0
  2  3  1  0  0  0  0
  3  4  2  0  0  0  0
  4  5  1  0  0  0  0
  5  9  1  0  0  0  0
  6  5  2  0  0  0  0
  7  2  1  0  0  0  0
  8  3  1  0  0  0  0
  9 16  2  0  0  0  0
  9 10  1  0  0  0  0
 10 11  1  0  0  0  0
 10 12  2  0  0  0  0
 12 13  1  0  0  0  0
 14 12  1  0  0  0  0
 14 15  1  0  0  0  0
 16 14  1  0  0  0  0
 17 20  1  0  0  0  0
 17 18  1  0  0  0  0
 17  1  1  0  0  0  0
 19 17  1  0  0  0  0
M  END
>  <minimizedAffinity>
-4.1339798

>  <minimizedRMSD>
3.07280397

$$$$
