
 OpenBabel03252504373D

 22 23  0  0  0  0  0  0  0  0999 V2000
   36.8670   27.7590   42.3260 C   0  0  0  0  0  3  0  0  0  0  0  0
   36.5170   27.8970   41.0530 C   0  0  0  0  0  3  0  0  0  0  0  0
   37.8920   26.7320   42.6210 C   0  0  0  0  0  0  0  0  0  0  0  0
   39.0030   27.0530   43.4310 C   0  0  0  0  0  0  0  0  0  0  0  0
   39.9320   26.0550   43.6780 C   0  0  0  0  0  0  0  0  0  0  0  0
   39.7210   24.8420   43.1340 N   0  0  0  0  0  0  0  0  0  0  0  0
   38.6470   24.5390   42.3540 C   0  0  0  0  0  0  0  0  0  0  0  0
   37.7530   25.4950   42.1140 N   0  0  0  0  0  0  0  0  0  0  0  0
   39.0890   28.0550   43.8240 H   0  0  0  0  0  0  0  0  0  0  0  0
   40.7960   26.2630   44.2940 H   0  0  0  0  0  0  0  0  0  0  0  0
   38.5760   23.5270   41.9660 H   0  0  0  0  0  0  0  0  0  0  0  0
   35.4950   28.9140   40.6910 C   0  0  0  0  0  0  0  0  0  0  0  0
   34.8740   28.4410   39.8860 H   0  0  0  0  0  0  0  0  0  0  0  0
   34.8220   29.0340   41.5640 H   0  0  0  0  0  0  0  0  0  0  0  0
   36.0980   30.1880   40.2820 C   0  0  0  0  0  0  0  0  0  0  0  0
   36.6380   30.6110   39.0870 C   0  0  0  0  0  0  0  0  0  0  0  0
   36.6910   29.9790   38.2020 H   0  0  0  0  0  0  0  0  0  0  0  0
   37.0860   31.9180   39.1990 C   0  0  0  0  0  0  0  0  0  0  0  0
   37.5490   32.5260   38.4580 H   0  0  0  0  0  0  0  0  0  0  0  0
   36.7990   32.2590   40.4760 N   0  0  0  0  0  0  0  0  0  0  0  0
   36.9800   33.1700   40.9580 H   0  0  0  0  0  0  0  0  0  0  0  0
   36.2290   31.2630   41.1020 N   0  0  0  0  0  0  0  0  0  0  0  0
  1  3  1  0  0  0  0
  2  1  2  0  0  0  0
  3  4  1  0  0  0  0
  4  5  2  0  0  0  0
  4  9  1  0  0  0  0
  5 10  1  0  0  0  0
  6  5  1  0  0  0  0
  7  6  2  0  0  0  0
  8  7  1  0  0  0  0
  8  3  2  0  0  0  0
 11  7  1  0  0  0  0
 12  2  1  0  0  0  0
 12 14  1  0  0  0  0
 13 12  1  0  0  0  0
 15 12  1  0  0  0  0
 15 22  2  0  0  0  0
 16 18  2  0  0  0  0
 16 15  1  0  0  0  0
 17 16  1  0  0  0  0
 18 20  1  0  0  0  0
 19 18  1  0  0  0  0
 20 21  1  0  0  0  0
 20 22  1  0  0  0  0
M  END
>  <minimizedAffinity>
-4.70468283

$$$$

 OpenBabel03252504373D

 22 23  0  0  0  0  0  0  0  0999 V2000
   37.4370   28.4350   42.8770 C   0  0  0  0  0  3  0  0  0  0  0  0
   36.9540   27.4110   42.1840 C   0  0  0  0  0  3  0  0  0  0  0  0
   37.6790   29.6860   42.1230 C   0  0  0  0  0  0  0  0  0  0  0  0
   38.9560   30.2890   42.1410 C   0  0  0  0  0  0  0  0  0  0  0  0
   39.1290   31.4570   41.4160 C   0  0  0  0  0  0  0  0  0  0  0  0
   38.0750   31.9460   40.7380 N   0  0  0  0  0  0  0  0  0  0  0  0
   36.8460   31.3590   40.7240 C   0  0  0  0  0  0  0  0  0  0  0  0
   36.6750   30.2380   41.4190 N   0  0  0  0  0  0  0  0  0  0  0  0
   39.7430   29.8240   42.7150 H   0  0  0  0  0  0  0  0  0  0  0  0
   40.0930   31.9470   41.4060 H   0  0  0  0  0  0  0  0  0  0  0  0
   36.0660   31.8410   40.1420 H   0  0  0  0  0  0  0  0  0  0  0  0
   36.6860   26.1280   42.8860 C   0  0  0  0  0  0  0  0  0  0  0  0
   37.1600   26.2350   43.8970 H   0  0  0  0  0  0  0  0  0  0  0  0
   35.5940   26.0700   43.0660 H   0  0  0  0  0  0  0  0  0  0  0  0
   37.1820   24.9690   42.1350 C   0  0  0  0  0  0  0  0  0  0  0  0
   36.6550   24.2600   41.0770 C   0  0  0  0  0  0  0  0  0  0  0  0
   35.6970   24.5010   40.6190 H   0  0  0  0  0  0  0  0  0  0  0  0
   37.5130   23.2330   40.7140 C   0  0  0  0  0  0  0  0  0  0  0  0
   37.3930   22.5140   39.9390 H   0  0  0  0  0  0  0  0  0  0  0  0
   38.5520   23.3490   41.5710 N   0  0  0  0  0  0  0  0  0  0  0  0
   39.4130   22.7580   41.6260 H   0  0  0  0  0  0  0  0  0  0  0  0
   38.3640   24.3490   42.3920 N   0  0  0  0  0  0  0  0  0  0  0  0
  2  1  2  0  0  0  0
  2 12  1  0  0  0  0
  3  4  1  0  0  0  0
  3  1  1  0  0  0  0
  4  9  1  0  0  0  0
  5  4  2  0  0  0  0
  6  5  1  0  0  0  0
  7  6  2  0  0  0  0
  7  8  1  0  0  0  0
  8  3  2  0  0  0  0
 10  5  1  0  0  0  0
 11  7  1  0  0  0  0
 12 14  1  0  0  0  0
 12 13  1  0  0  0  0
 15 22  2  0  0  0  0
 15 12  1  0  0  0  0
 16 15  1  0  0  0  0
 17 16  1  0  0  0  0
 18 16  2  0  0  0  0
 18 20  1  0  0  0  0
 19 18  1  0  0  0  0
 20 21  1  0  0  0  0
 20 22  1  0  0  0  0
M  END
>  <minimizedAffinity>
-4.28463125

$$$$

 OpenBabel03252504373D

 22 23  0  0  0  0  0  0  0  0999 V2000
   36.0940   28.8220   41.1040 C   0  0  0  0  0  3  0  0  0  0  0  0
   36.9260   28.4860   42.0830 C   0  0  0  0  0  3  0  0  0  0  0  0
   36.4850   29.9880   40.2790 C   0  0  0  0  0  0  0  0  0  0  0  0
   36.5940   29.8580   38.8770 C   0  0  0  0  0  0  0  0  0  0  0  0
   36.9600   30.9800   38.1510 C   0  0  0  0  0  0  0  0  0  0  0  0
   37.1880   32.1240   38.8230 N   0  0  0  0  0  0  0  0  0  0  0  0
   37.0810   32.2420   40.1750 C   0  0  0  0  0  0  0  0  0  0  0  0
   36.7300   31.1670   40.8750 N   0  0  0  0  0  0  0  0  0  0  0  0
   36.3920   28.8990   38.4250 H   0  0  0  0  0  0  0  0  0  0  0  0
   37.0540   30.9200   37.0760 H   0  0  0  0  0  0  0  0  0  0  0  0
   37.2880   33.2140   40.6120 H   0  0  0  0  0  0  0  0  0  0  0  0
   36.5920   27.3220   42.9450 C   0  0  0  0  0  0  0  0  0  0  0  0
   36.8560   27.6370   43.9890 H   0  0  0  0  0  0  0  0  0  0  0  0
   35.4900   27.2040   42.9320 H   0  0  0  0  0  0  0  0  0  0  0  0
   37.2820   26.0980   42.5200 C   0  0  0  0  0  0  0  0  0  0  0  0
   36.8120   24.8640   42.1250 C   0  0  0  0  0  0  0  0  0  0  0  0
   35.7520   24.6200   42.0770 H   0  0  0  0  0  0  0  0  0  0  0  0
   37.8710   24.0250   41.8160 C   0  0  0  0  0  0  0  0  0  0  0  0
   37.8390   23.0140   41.4830 H   0  0  0  0  0  0  0  0  0  0  0  0
   38.9700   24.7820   42.0330 N   0  0  0  0  0  0  0  0  0  0  0  0
   39.9740   24.5130   41.9140 H   0  0  0  0  0  0  0  0  0  0  0  0
   38.6330   25.9780   42.4390 N   0  0  0  0  0  0  0  0  0  0  0  0
  1  2  2  0  0  0  0
  2 12  1  0  0  0  0
  3  8  1  0  0  0  0
  3  1  1  0  0  0  0
  4  3  2  0  0  0  0
  5  6  2  0  0  0  0
  5  4  1  0  0  0  0
  6  7  1  0  0  0  0
  7 11  1  0  0  0  0
  7  8  2  0  0  0  0
  9  4  1  0  0  0  0
 10  5  1  0  0  0  0
 12 13  1  0  0  0  0
 14 12  1  0  0  0  0
 15 12  1  0  0  0  0
 16 15  1  0  0  0  0
 17 16  1  0  0  0  0
 18 20  1  0  0  0  0
 18 16  2  0  0  0  0
 19 18  1  0  0  0  0
 20 22  1  0  0  0  0
 21 20  1  0  0  0  0
 22 15  2  0  0  0  0
M  END
>  <minimizedAffinity>
-4.16346598

$$$$

 OpenBabel03252504373D

 22 23  0  0  0  0  0  0  0  0999 V2000
   37.4060   29.2250   42.5100 C   0  0  0  0  0  3  0  0  0  0  0  0
   36.8700   29.4800   41.3220 C   0  0  0  0  0  3  0  0  0  0  0  0
   38.0070   27.8840   42.6870 C   0  0  0  0  0  0  0  0  0  0  0  0
   37.4360   26.7610   42.0490 C   0  0  0  0  0  0  0  0  0  0  0  0
   38.0400   25.5300   42.2460 C   0  0  0  0  0  0  0  0  0  0  0  0
   39.1330   25.4770   43.0310 N   0  0  0  0  0  0  0  0  0  0  0  0
   39.6780   26.5630   43.6430 C   0  0  0  0  0  0  0  0  0  0  0  0
   39.1010   27.7470   43.4560 N   0  0  0  0  0  0  0  0  0  0  0  0
   36.5570   26.9010   41.4380 H   0  0  0  0  0  0  0  0  0  0  0  0
   37.6320   24.6470   41.7740 H   0  0  0  0  0  0  0  0  0  0  0  0
   40.5620   26.4050   44.2540 H   0  0  0  0  0  0  0  0  0  0  0  0
   36.2530   30.8110   41.0790 C   0  0  0  0  0  0  0  0  0  0  0  0
   35.2890   30.6010   40.5460 H   0  0  0  0  0  0  0  0  0  0  0  0
   35.9700   31.2310   42.0650 H   0  0  0  0  0  0  0  0  0  0  0  0
   37.1420   31.7090   40.3330 C   0  0  0  0  0  0  0  0  0  0  0  0
   38.2470   32.4410   40.7140 C   0  0  0  0  0  0  0  0  0  0  0  0
   38.6360   32.4420   41.7310 H   0  0  0  0  0  0  0  0  0  0  0  0
   38.7520   33.1440   39.6320 C   0  0  0  0  0  0  0  0  0  0  0  0
   39.5930   33.7960   39.6010 H   0  0  0  0  0  0  0  0  0  0  0  0
   37.9320   32.8150   38.6090 N   0  0  0  0  0  0  0  0  0  0  0  0
   37.9760   33.1390   37.6150 H   0  0  0  0  0  0  0  0  0  0  0  0
   37.0030   31.9870   39.0100 N   0  0  0  0  0  0  0  0  0  0  0  0
  1  3  1  0  0  0  0
  2  1  2  0  0  0  0
  3  8  1  0  0  0  0
  4  5  1  0  0  0  0
  4  3  2  0  0  0  0
  5  6  2  0  0  0  0
  6  7  1  0  0  0  0
  7 11  1  0  0  0  0
  8  7  2  0  0  0  0
  9  4  1  0  0  0  0
 10  5  1  0  0  0  0
 12  2  1  0  0  0  0
 12 14  1  0  0  0  0
 13 12  1  0  0  0  0
 15 16  1  0  0  0  0
 15 12  1  0  0  0  0
 16 17  1  0  0  0  0
 18 16  2  0  0  0  0
 19 18  1  0  0  0  0
 20 22  1  0  0  0  0
 20 18  1  0  0  0  0
 21 20  1  0  0  0  0
 22 15  2  0  0  0  0
M  END
>  <minimizedAffinity>
-4.15364742

$$$$

 OpenBabel03252504373D

 22 23  0  0  0  0  0  0  0  0999 V2000
   38.8590   29.6190   42.8340 C   0  0  0  0  0  3  0  0  0  0  0  0
   39.4620   30.1830   41.7950 C   0  0  0  0  0  3  0  0  0  0  0  0
   38.6370   28.1570   42.7540 C   0  0  0  0  0  0  0  0  0  0  0  0
   39.6300   27.2630   43.2140 C   0  0  0  0  0  0  0  0  0  0  0  0
   39.3710   25.9060   43.1190 C   0  0  0  0  0  0  0  0  0  0  0  0
   38.1920   25.5190   42.5960 N   0  0  0  0  0  0  0  0  0  0  0  0
   37.2400   26.3860   42.1540 C   0  0  0  0  0  0  0  0  0  0  0  0
   37.4850   27.6900   42.2440 N   0  0  0  0  0  0  0  0  0  0  0  0
   40.5460   27.6660   43.6190 H   0  0  0  0  0  0  0  0  0  0  0  0
   40.1070   25.1910   43.4610 H   0  0  0  0  0  0  0  0  0  0  0  0
   36.3250   25.9630   41.7500 H   0  0  0  0  0  0  0  0  0  0  0  0
   39.7170   31.6470   41.8170 C   0  0  0  0  0  0  0  0  0  0  0  0
   39.7150   31.9350   42.9010 H   0  0  0  0  0  0  0  0  0  0  0  0
   40.7530   31.8100   41.4600 H   0  0  0  0  0  0  0  0  0  0  0  0
   38.7370   32.3950   41.0200 C   0  0  0  0  0  0  0  0  0  0  0  0
   38.8000   33.6210   40.3930 C   0  0  0  0  0  0  0  0  0  0  0  0
   39.6840   34.2560   40.4180 H   0  0  0  0  0  0  0  0  0  0  0  0
   37.5990   33.8960   39.7570 C   0  0  0  0  0  0  0  0  0  0  0  0
   37.3320   34.7570   39.1910 H   0  0  0  0  0  0  0  0  0  0  0  0
   36.8300   32.8150   40.0170 N   0  0  0  0  0  0  0  0  0  0  0  0
   35.8460   32.6340   39.7120 H   0  0  0  0  0  0  0  0  0  0  0  0
   37.4840   31.9480   40.7450 N   0  0  0  0  0  0  0  0  0  0  0  0
  2 12  1  0  0  0  0
  2  1  2  0  0  0  0
  3  1  1  0  0  0  0
  3  4  1  0  0  0  0
  4  9  1  0  0  0  0
  5  4  2  0  0  0  0
  5 10  1  0  0  0  0
  6  5  1  0  0  0  0
  7  8  1  0  0  0  0
  7  6  2  0  0  0  0
  8  3  2  0  0  0  0
 11  7  1  0  0  0  0
 12 13  1  0  0  0  0
 14 12  1  0  0  0  0
 15 12  1  0  0  0  0
 16 17  1  0  0  0  0
 16 15  1  0  0  0  0
 18 20  1  0  0  0  0
 18 16  2  0  0  0  0
 19 18  1  0  0  0  0
 20 22  1  0  0  0  0
 21 20  1  0  0  0  0
 22 15  2  0  0  0  0
M  END
>  <minimizedAffinity>
-4.14942932

$$$$

 OpenBabel03252504373D

 22 23  0  0  0  0  0  0  0  0999 V2000
   38.6940   29.4330   42.9340 C   0  0  0  0  0  3  0  0  0  0  0  0
   39.2810   28.3430   42.4530 C   0  0  0  0  0  3  0  0  0  0  0  0
   38.2610   30.4420   41.9410 C   0  0  0  0  0  0  0  0  0  0  0  0
   36.9890   30.3420   41.3370 C   0  0  0  0  0  0  0  0  0  0  0  0
   36.6320   31.3140   40.4160 C   0  0  0  0  0  0  0  0  0  0  0  0
   37.5170   32.2940   40.1530 N   0  0  0  0  0  0  0  0  0  0  0  0
   38.7420   32.3850   40.7390 C   0  0  0  0  0  0  0  0  0  0  0  0
   39.0880   31.4530   41.6230 N   0  0  0  0  0  0  0  0  0  0  0  0
   36.3460   29.5190   41.6100 H   0  0  0  0  0  0  0  0  0  0  0  0
   35.6660   31.2710   39.9330 H   0  0  0  0  0  0  0  0  0  0  0  0
   39.3760   33.2180   40.4520 H   0  0  0  0  0  0  0  0  0  0  0  0
   39.7340   27.2900   43.3990 C   0  0  0  0  0  0  0  0  0  0  0  0
   40.8530   27.3590   43.4090 H   0  0  0  0  0  0  0  0  0  0  0  0
   39.4020   27.5900   44.4130 H   0  0  0  0  0  0  0  0  0  0  0  0
   39.2410   25.9590   43.0280 C   0  0  0  0  0  0  0  0  0  0  0  0
   38.1460   25.5510   42.2960 C   0  0  0  0  0  0  0  0  0  0  0  0
   37.4330   26.2470   41.8560 H   0  0  0  0  0  0  0  0  0  0  0  0
   38.1070   24.1680   42.2220 C   0  0  0  0  0  0  0  0  0  0  0  0
   37.3920   23.5510   41.7320 H   0  0  0  0  0  0  0  0  0  0  0  0
   39.1950   23.7670   42.9190 N   0  0  0  0  0  0  0  0  0  0  0  0
   39.5230   22.7900   43.0980 H   0  0  0  0  0  0  0  0  0  0  0  0
   39.8500   24.7980   43.3840 N   0  0  0  0  0  0  0  0  0  0  0  0
  2  1  2  0  0  0  0
  2 12  1  0  0  0  0
  3  1  1  0  0  0  0
  4  9  1  0  0  0  0
  4  3  2  0  0  0  0
  5  4  1  0  0  0  0
  6  5  2  0  0  0  0
  6  7  1  0  0  0  0
  7  8  2  0  0  0  0
  8  3  1  0  0  0  0
 10  5  1  0  0  0  0
 11  7  1  0  0  0  0
 12 13  1  0  0  0  0
 12 14  1  0  0  0  0
 15 22  2  0  0  0  0
 15 12  1  0  0  0  0
 16 15  1  0  0  0  0
 17 16  1  0  0  0  0
 18 16  2  0  0  0  0
 18 20  1  0  0  0  0
 19 18  1  0  0  0  0
 20 21  1  0  0  0  0
 20 22  1  0  0  0  0
M  END
>  <minimizedAffinity>
-4.10592794

$$$$

 OpenBabel03252504373D

 22 23  0  0  0  0  0  0  0  0999 V2000
   37.1140   28.4250   41.3200 C   0  0  0  0  0  3  0  0  0  0  0  0
   36.0880   29.1840   40.9560 C   0  0  0  0  0  3  0  0  0  0  0  0
   36.9490   26.9650   41.1440 C   0  0  0  0  0  0  0  0  0  0  0  0
   36.6160   26.4370   39.8770 C   0  0  0  0  0  0  0  0  0  0  0  0
   36.4760   25.0630   39.7660 C   0  0  0  0  0  0  0  0  0  0  0  0
   36.6660   24.3140   40.8690 N   0  0  0  0  0  0  0  0  0  0  0  0
   36.9870   24.8290   42.0870 C   0  0  0  0  0  0  0  0  0  0  0  0
   37.1220   26.1480   42.1980 N   0  0  0  0  0  0  0  0  0  0  0  0
   36.4830   27.1160   39.0490 H   0  0  0  0  0  0  0  0  0  0  0  0
   36.2220   24.6220   38.8120 H   0  0  0  0  0  0  0  0  0  0  0  0
   37.1170   24.1320   42.9100 H   0  0  0  0  0  0  0  0  0  0  0  0
   36.1930   30.6600   41.1040 C   0  0  0  0  0  0  0  0  0  0  0  0
   35.1560   31.0110   41.3450 H   0  0  0  0  0  0  0  0  0  0  0  0
   36.8000   30.8600   42.0100 H   0  0  0  0  0  0  0  0  0  0  0  0
   36.7570   31.3000   39.9110 C   0  0  0  0  0  0  0  0  0  0  0  0
   36.9090   30.8620   38.6130 C   0  0  0  0  0  0  0  0  0  0  0  0
   36.5940   29.8740   38.2790 H   0  0  0  0  0  0  0  0  0  0  0  0
   37.5050   31.8470   37.8410 C   0  0  0  0  0  0  0  0  0  0  0  0
   37.7560   31.8160   36.8070 H   0  0  0  0  0  0  0  0  0  0  0  0
   37.7010   32.8710   38.7020 N   0  0  0  0  0  0  0  0  0  0  0  0
   38.1290   33.8050   38.5070 H   0  0  0  0  0  0  0  0  0  0  0  0
   37.2700   32.5590   39.8960 N   0  0  0  0  0  0  0  0  0  0  0  0
  2 12  1  0  0  0  0
  2  1  2  0  0  0  0
  3  1  1  0  0  0  0
  3  8  1  0  0  0  0
  4  3  2  0  0  0  0
  5  4  1  0  0  0  0
  5  6  2  0  0  0  0
  6  7  1  0  0  0  0
  7  8  2  0  0  0  0
  7 11  1  0  0  0  0
  9  4  1  0  0  0  0
 10  5  1  0  0  0  0
 12 13  1  0  0  0  0
 12 14  1  0  0  0  0
 15 12  1  0  0  0  0
 16 15  1  0  0  0  0
 17 16  1  0  0  0  0
 18 16  2  0  0  0  0
 18 20  1  0  0  0  0
 19 18  1  0  0  0  0
 20 22  1  0  0  0  0
 21 20  1  0  0  0  0
 22 15  2  0  0  0  0
M  END
>  <minimizedAffinity>
-4.06972361

$$$$

 OpenBabel03252504373D

 22 23  0  0  0  0  0  0  0  0999 V2000
   39.9180   30.9140   41.9460 C   0  0  0  0  0  3  0  0  0  0  0  0
   39.0390   31.6040   41.2300 C   0  0  0  0  0  3  0  0  0  0  0  0
   39.4310   29.6550   42.5530 C   0  0  0  0  0  0  0  0  0  0  0  0
   40.3220   28.5800   42.7670 C   0  0  0  0  0  0  0  0  0  0  0  0
   39.8160   27.4250   43.3410 C   0  0  0  0  0  0  0  0  0  0  0  0
   38.5090   27.3960   43.6610 N   0  0  0  0  0  0  0  0  0  0  0  0
   37.6550   28.4350   43.4520 C   0  0  0  0  0  0  0  0  0  0  0  0
   38.1370   29.5450   42.9010 N   0  0  0  0  0  0  0  0  0  0  0  0
   41.3560   28.6960   42.4780 H   0  0  0  0  0  0  0  0  0  0  0  0
   40.4680   26.5820   43.5210 H   0  0  0  0  0  0  0  0  0  0  0  0
   36.6190   28.3020   43.7480 H   0  0  0  0  0  0  0  0  0  0  0  0
   39.4680   32.8760   40.5910 C   0  0  0  0  0  0  0  0  0  0  0  0
   38.5770   33.5550   40.6480 H   0  0  0  0  0  0  0  0  0  0  0  0
   40.2390   33.3320   41.2430 H   0  0  0  0  0  0  0  0  0  0  0  0
   39.9540   32.6740   39.2210 C   0  0  0  0  0  0  0  0  0  0  0  0
   41.1980   32.8370   38.6500 C   0  0  0  0  0  0  0  0  0  0  0  0
   42.0690   33.1740   39.2100 H   0  0  0  0  0  0  0  0  0  0  0  0
   41.1530   32.5150   37.3030 C   0  0  0  0  0  0  0  0  0  0  0  0
   41.9430   32.5370   36.5900 H   0  0  0  0  0  0  0  0  0  0  0  0
   39.8650   32.1590   37.0890 N   0  0  0  0  0  0  0  0  0  0  0  0
   39.4220   31.8470   36.1950 H   0  0  0  0  0  0  0  0  0  0  0  0
   39.1720   32.2500   38.1940 N   0  0  0  0  0  0  0  0  0  0  0  0
  1  3  1  0  0  0  0
  2  1  2  0  0  0  0
  3  4  2  0  0  0  0
  3  8  1  0  0  0  0
  4  5  1  0  0  0  0
  5 10  1  0  0  0  0
  5  6  2  0  0  0  0
  7  6  1  0  0  0  0
  7 11  1  0  0  0  0
  8  7  2  0  0  0  0
  9  4  1  0  0  0  0
 12 13  1  0  0  0  0
 12  2  1  0  0  0  0
 12 14  1  0  0  0  0
 15 12  1  0  0  0  0
 16 17  1  0  0  0  0
 16 15  1  0  0  0  0
 18 16  2  0  0  0  0
 19 18  1  0  0  0  0
 20 18  1  0  0  0  0
 20 22  1  0  0  0  0
 21 20  1  0  0  0  0
 22 15  2  0  0  0  0
M  END
>  <minimizedAffinity>
-3.98557162

$$$$

 OpenBabel03252504373D

 22 23  0  0  0  0  0  0  0  0999 V2000
   37.5330   30.4850   40.4930 C   0  0  0  0  0  3  0  0  0  0  0  0
   36.2070   30.5470   40.5070 C   0  0  0  0  0  3  0  0  0  0  0  0
   38.2530   31.7780   40.4410 C   0  0  0  0  0  0  0  0  0  0  0  0
   37.5640   32.9580   40.0850 C   0  0  0  0  0  0  0  0  0  0  0  0
   38.2840   34.1420   40.0540 C   0  0  0  0  0  0  0  0  0  0  0  0
   39.5930   34.0970   40.3640 N   0  0  0  0  0  0  0  0  0  0  0  0
   40.2510   32.9560   40.7060 C   0  0  0  0  0  0  0  0  0  0  0  0
   39.5640   31.8180   40.7370 N   0  0  0  0  0  0  0  0  0  0  0  0
   36.5120   32.8970   39.8520 H   0  0  0  0  0  0  0  0  0  0  0  0
   37.7910   35.0660   39.7870 H   0  0  0  0  0  0  0  0  0  0  0  0
   41.3090   33.0360   40.9380 H   0  0  0  0  0  0  0  0  0  0  0  0
   35.4270   29.2830   40.5630 C   0  0  0  0  0  0  0  0  0  0  0  0
   34.5230   29.5170   41.1850 H   0  0  0  0  0  0  0  0  0  0  0  0
   35.0490   29.0800   39.5410 H   0  0  0  0  0  0  0  0  0  0  0  0
   36.2160   28.1640   41.0910 C   0  0  0  0  0  0  0  0  0  0  0  0
   36.8240   27.0920   40.4740 C   0  0  0  0  0  0  0  0  0  0  0  0
   36.7860   26.9250   39.3990 H   0  0  0  0  0  0  0  0  0  0  0  0
   37.4610   26.2960   41.4140 C   0  0  0  0  0  0  0  0  0  0  0  0
   38.0150   25.4010   41.2570 H   0  0  0  0  0  0  0  0  0  0  0  0
   37.2210   26.9160   42.5910 N   0  0  0  0  0  0  0  0  0  0  0  0
   37.5340   26.6290   43.5480 H   0  0  0  0  0  0  0  0  0  0  0  0
   36.5040   27.9930   42.4080 N   0  0  0  0  0  0  0  0  0  0  0  0
  1  2  2  0  0  0  0
  2 12  1  0  0  0  0
  3  1  1  0  0  0  0
  3  8  1  0  0  0  0
  4  3  2  0  0  0  0
  5  4  1  0  0  0  0
  5  6  2  0  0  0  0
  6  7  1  0  0  0  0
  7  8  2  0  0  0  0
  7 11  1  0  0  0  0
  9  4  1  0  0  0  0
 10  5  1  0  0  0  0
 12 15  1  0  0  0  0
 12 13  1  0  0  0  0
 14 12  1  0  0  0  0
 15 22  2  0  0  0  0
 16 15  1  0  0  0  0
 16 18  2  0  0  0  0
 17 16  1  0  0  0  0
 18 20  1  0  0  0  0
 19 18  1  0  0  0  0
 20 21  1  0  0  0  0
 22 20  1  0  0  0  0
M  END
>  <minimizedAffinity>
-3.95058632

$$$$
