
 OpenBabel03252507543D

 43 46  0  0  1  0  0  0  0  0999 V2000
   47.1080   34.8250   42.0940 C   0  0  2  0  0  0  0  0  0  0  0  0
   46.3160   34.3210   40.8830 C   0  0  0  0  0  0  0  0  0  0  0  0
   47.5100   34.1640   39.9150 C   0  0  0  0  0  0  0  0  0  0  0  0
   48.6330   33.6670   40.7720 C   0  0  1  0  0  0  0  0  0  0  0  0
   48.1330   33.7280   42.1830 C   0  0  0  0  0  0  0  0  0  0  0  0
   47.4870   35.8190   41.8330 H   0  0  0  0  0  0  0  0  0  0  0  0
   45.6120   35.0710   40.5140 H   0  0  0  0  0  0  0  0  0  0  0  0
   45.8990   33.3260   41.0870 H   0  0  0  0  0  0  0  0  0  0  0  0
   47.7240   35.2060   39.5390 H   0  0  0  0  0  0  0  0  0  0  0  0
   47.2750   33.4830   39.0880 H   0  0  0  0  0  0  0  0  0  0  0  0
   49.5210   34.3560   40.7150 H   0  0  0  0  0  0  0  0  0  0  0  0
   47.6170   32.8020   42.4270 H   0  0  0  0  0  0  0  0  0  0  0  0
   48.9380   33.9950   42.8980 H   0  0  0  0  0  0  0  0  0  0  0  0
   44.5320   35.8180   44.6580 C   0  0  0  0  0  0  0  0  0  0  0  0
   45.2620   35.8550   43.4750 C   0  0  0  0  0  0  0  0  0  0  0  0
   46.2380   34.8800   43.3060 C   0  0  0  0  0  0  0  0  0  0  0  0
   46.4570   33.9170   44.2970 N   0  0  0  0  0  0  0  0  0  0  0  0
   45.7120   33.9330   45.4340 C   0  0  0  0  0  0  0  0  0  0  0  0
   44.7530   34.8800   45.6110 N   0  0  0  0  0  0  0  0  0  0  0  0
   43.7630   36.5640   44.8190 H   0  0  0  0  0  0  0  0  0  0  0  0
   45.1080   36.5900   42.6970 H   0  0  0  0  0  0  0  0  0  0  0  0
   45.8840   33.1870   46.1980 H   0  0  0  0  0  0  0  0  0  0  0  0
   49.0500   32.2400   40.5020 C   0  0  2  0  0  0  0  0  0  0  0  0
   49.7660   31.5680   41.5740 C   0  0  0  0  0  0  0  0  0  0  0  0
   50.4490   31.8780   40.2790 C   0  0  1  0  0  0  0  0  0  0  0  0
   48.2920   31.6670   39.9370 H   0  0  0  0  0  0  0  0  0  0  0  0
   50.1420   32.1920   42.4350 H   0  0  0  0  0  0  0  0  0  0  0  0
   49.6340   30.5080   41.8700 H   0  0  0  0  0  0  0  0  0  0  0  0
   51.1130   32.7180   40.0910 H   0  0  0  0  0  0  0  0  0  0  0  0
   50.7100   30.7830   39.4180 O   0  0  0  0  0  0  0  0  0  0  0  0
   52.5230   29.8720   37.7830 O   0  0  0  0  0  0  0  0  0  0  0  0
   52.2200   31.0140   38.7190 P   0  0  1  0  0  0  0  0  0  0  0  0
   52.2190   32.4550   37.7890 O   0  0  0  0  0  0  0  0  0  0  0  0
   52.5680   33.2000   38.3200 H   0  0  0  0  0  0  0  0  0  0  0  0
   53.4700   31.1490   39.8070 O   0  0  0  0  0  0  0  0  0  0  0  0
   53.7850   30.1910   40.7560 C   0  0  0  0  0  0  0  0  0  0  0  0
   53.1130   29.6980   41.8780 C   0  0  0  0  0  0  0  0  0  0  0  0
   52.1430   30.0830   42.1440 H   0  0  0  0  0  0  0  0  0  0  0  0
   53.8990   28.7400   42.4680 C   0  0  0  0  0  0  0  0  0  0  0  0
   53.6280   28.1860   43.3620 H   0  0  0  0  0  0  0  0  0  0  0  0
   55.0150   28.6550   41.7190 N   0  0  0  0  0  0  0  0  0  0  0  0
   55.7830   27.9900   41.9590 H   0  0  0  0  0  0  0  0  0  0  0  0
   54.9620   29.5080   40.7030 N   0  0  0  0  0  0  0  0  0  0  0  0
  1  6  1  6  0  0  0
  1  5  1  0  0  0  0
  1 16  1  0  0  0  0
  2  8  1  0  0  0  0
  2  1  1  0  0  0  0
  3  4  1  0  0  0  0
  3  2  1  0  0  0  0
  4 11  1  6  0  0  0
  4  5  1  0  0  0  0
  5 12  1  0  0  0  0
  5 13  1  0  0  0  0
  7  2  1  0  0  0  0
  9  3  1  0  0  0  0
 10  3  1  0  0  0  0
 14 20  1  0  0  0  0
 14 19  1  0  0  0  0
 15 14  2  0  0  0  0
 16 15  1  0  0  0  0
 16 17  2  0  0  0  0
 17 18  1  0  0  0  0
 18 19  2  0  0  0  0
 18 22  1  0  0  0  0
 21 15  1  0  0  0  0
 23 26  1  6  0  0  0
 23  4  1  0  0  0  0
 23 24  1  0  0  0  0
 24 28  1  0  0  0  0
 24 27  1  0  0  0  0
 25 29  1  1  0  0  0
 25 23  1  0  0  0  0
 25 24  1  0  0  0  0
 30 25  1  0  0  0  0
 32 31  2  6  0  0  0
 32 30  1  0  0  0  0
 32 35  1  0  0  0  0
 33 34  1  0  0  0  0
 33 32  1  0  0  0  0
 35 36  1  0  0  0  0
 36 37  1  0  0  0  0
 37 38  1  0  0  0  0
 37 39  2  0  0  0  0
 39 40  1  0  0  0  0
 41 42  1  0  0  0  0
 41 39  1  0  0  0  0
 43 36  2  0  0  0  0
 43 41  1  0  0  0  0
M  END
>  <minimizedAffinity>
-5.14246655

>  <minimizedRMSD>
1.0009048

$$$$
