
 OpenBabel03252502413D

 23 24  0  0  0  0  0  0  0  0999 V2000
   46.9570   34.7140   41.7560 C   0  0  0  0  0  0  0  0  0  0  0  0
   46.3620   35.1610   40.9480 H   0  0  0  0  0  0  0  0  0  0  0  0
   47.1760   33.6430   41.5970 H   0  0  0  0  0  0  0  0  0  0  0  0
   44.6040   36.0070   44.3950 C   0  0  0  0  0  0  0  0  0  0  0  0
   45.3250   35.8840   43.1990 C   0  0  0  0  0  0  0  0  0  0  0  0
   46.2050   34.8260   43.0280 C   0  0  0  0  0  0  0  0  0  0  0  0
   46.3120   33.9530   44.0580 N   0  0  0  0  0  0  0  0  0  0  0  0
   45.6110   34.0850   45.2060 C   0  0  0  0  0  0  0  0  0  0  0  0
   44.7660   35.0980   45.3750 N   0  0  0  0  0  0  0  0  0  0  0  0
   43.9490   36.8620   44.4250 H   0  0  0  0  0  0  0  0  0  0  0  0
   45.2240   36.5850   42.3960 H   0  0  0  0  0  0  0  0  0  0  0  0
   45.7270   33.3580   46.0160 H   0  0  0  0  0  0  0  0  0  0  0  0
   48.2910   35.4310   41.9240 C   0  0  0  0  0  0  0  0  0  0  0  0
   48.2830   35.9350   42.8990 H   0  0  0  0  0  0  0  0  0  0  0  0
   48.4180   36.0990   41.0620 H   0  0  0  0  0  0  0  0  0  0  0  0
   49.3370   34.3550   41.8800 C   0  0  0  0  0  0  0  0  0  0  0  0
   49.1120   33.1620   41.1860 C   0  0  0  0  0  0  0  0  0  0  0  0
   48.2330   32.8780   40.6370 H   0  0  0  0  0  0  0  0  0  0  0  0
   50.3120   32.4750   41.4070 C   0  0  0  0  0  0  0  0  0  0  0  0
   50.4760   31.4800   40.9920 H   0  0  0  0  0  0  0  0  0  0  0  0
   51.1530   33.1990   42.1560 N   0  0  0  0  0  0  0  0  0  0  0  0
   52.1120   32.9480   42.4780 H   0  0  0  0  0  0  0  0  0  0  0  0
   50.5560   34.3610   42.4510 N   0  0  0  0  0  0  0  0  0  0  0  0
  1 13  1  0  0  0  0
  1  6  1  0  0  0  0
  2  1  1  0  0  0  0
  3  1  1  0  0  0  0
  4 10  1  0  0  0  0
  4  9  1  0  0  0  0
  5  4  2  0  0  0  0
  6  5  1  0  0  0  0
  6  7  2  0  0  0  0
  7  8  1  0  0  0  0
  8  9  2  0  0  0  0
  8 12  1  0  0  0  0
 11  5  1  0  0  0  0
 13 14  1  0  0  0  0
 15 13  1  0  0  0  0
 16 13  1  0  0  0  0
 16 23  2  0  0  0  0
 17 19  2  0  0  0  0
 17 16  1  0  0  0  0
 18 17  1  0  0  0  0
 19 21  1  0  0  0  0
 20 19  1  0  0  0  0
 21 23  1  0  0  0  0
 21 22  1  0  0  0  0
M  END
>  <minimizedAffinity>
-4.56061268

>  <minimizedRMSD>
2.09700918

$$$$
