
 OpenBabel03252508203D

 33 35  0  0  0  0  0  0  0  0999 V2000
   40.9100   31.2940   37.5960 C   0  0  0  0  0  0  0  0  0  0  0  0
   39.5680   31.1610   37.9420 C   0  0  0  0  0  0  0  0  0  0  0  0
   38.7040   30.1710   37.4860 C   0  0  0  0  0  0  0  0  0  0  0  0
   39.2770   29.2620   36.6150 C   0  0  0  0  0  0  0  0  0  0  0  0
   40.5970   29.3710   36.2600 C   0  0  0  0  0  0  0  0  0  0  0  0
   41.4450   30.3630   36.7240 C   0  0  0  0  0  0  0  0  0  0  0  0
   39.1990   31.9200   38.6320 H   0  0  0  0  0  0  0  0  0  0  0  0
   37.6990   30.2150   37.8520 H   0  0  0  0  0  0  0  0  0  0  0  0
   38.6150   28.4910   36.2570 H   0  0  0  0  0  0  0  0  0  0  0  0
   40.8810   28.5790   35.5730 H   0  0  0  0  0  0  0  0  0  0  0  0
   42.8000   30.2790   36.2080 C   0  0  0  0  0  0  0  0  0  0  0  0
   43.9840   29.7740   36.6760 C   0  0  0  0  0  0  0  0  0  0  0  0
   44.1380   29.2990   37.6240 H   0  0  0  0  0  0  0  0  0  0  0  0
   45.0120   29.9040   35.8090 C   0  0  0  0  0  0  0  0  0  0  0  0
   46.0370   29.6090   35.8960 H   0  0  0  0  0  0  0  0  0  0  0  0
   44.4440   30.5130   34.7610 N   0  0  0  0  0  0  0  0  0  0  0  0
   44.8640   30.8190   33.8400 H   0  0  0  0  0  0  0  0  0  0  0  0
   43.1750   30.7170   35.0140 N   0  0  0  0  0  0  0  0  0  0  0  0
   41.7660   32.3650   38.0930 C   0  0  0  0  0  0  0  0  0  0  0  0
   42.5660   32.5140   37.3340 H   0  0  0  0  0  0  0  0  0  0  0  0
   42.1800   32.1770   39.0950 H   0  0  0  0  0  0  0  0  0  0  0  0
   41.0330   33.7230   38.0870 C   0  0  0  0  0  0  0  0  0  0  0  0
   41.5290   34.3090   37.3050 H   0  0  0  0  0  0  0  0  0  0  0  0
   39.9670   33.5730   37.9260 H   0  0  0  0  0  0  0  0  0  0  0  0
   42.8050   35.0020   41.1710 C   0  0  0  0  0  0  0  0  0  0  0  0
   42.5990   34.3530   39.9220 C   0  0  0  0  0  0  0  0  0  0  0  0
   41.3180   34.3800   39.3950 C   0  0  0  0  0  0  0  0  0  0  0  0
   40.3530   35.0330   40.1240 N   0  0  0  0  0  0  0  0  0  0  0  0
   40.5740   35.6300   41.2860 C   0  0  0  0  0  0  0  0  0  0  0  0
   41.7990   35.6200   41.8190 N   0  0  0  0  0  0  0  0  0  0  0  0
   43.8160   34.9660   41.5610 H   0  0  0  0  0  0  0  0  0  0  0  0
   43.4200   33.8640   39.4190 H   0  0  0  0  0  0  0  0  0  0  0  0
   39.7860   36.1320   41.8270 H   0  0  0  0  0  0  0  0  0  0  0  0
  1  2  1  0  0  0  0
  1 19  1  0  0  0  0
  2  7  1  0  0  0  0
  3  8  1  0  0  0  0
  3  2  2  0  0  0  0
  4  3  1  0  0  0  0
  5  4  2  0  0  0  0
  5  6  1  0  0  0  0
  6  1  2  0  0  0  0
  9  4  1  0  0  0  0
 10  5  1  0  0  0  0
 11 12  1  0  0  0  0
 11  6  1  0  0  0  0
 12 13  1  0  0  0  0
 14 15  1  0  0  0  0
 14 12  2  0  0  0  0
 16 18  1  0  0  0  0
 16 14  1  0  0  0  0
 17 16  1  0  0  0  0
 18 11  2  0  0  0  0
 19 21  1  0  0  0  0
 20 19  1  0  0  0  0
 22 19  1  0  0  0  0
 22 27  1  0  0  0  0
 23 22  1  0  0  0  0
 24 22  1  0  0  0  0
 25 31  1  0  0  0  0
 25 30  1  0  0  0  0
 26 25  2  0  0  0  0
 27 26  1  0  0  0  0
 27 28  2  0  0  0  0
 28 29  1  0  0  0  0
 29 30  2  0  0  0  0
 29 33  1  0  0  0  0
 32 26  1  0  0  0  0
M  END
>  <minimizedAffinity>
-3.41523957

>  <minimizedRMSD>
8.19584751

$$$$
