
 OpenBabel03252507543D

 43 46  0  0  1  0  0  0  0  0999 V2000
   47.1120   34.8140   42.1280 C   0  0  2  0  0  0  0  0  0  0  0  0
   46.3030   34.3760   40.9030 C   0  0  0  0  0  0  0  0  0  0  0  0
   47.4900   34.2140   39.9270 C   0  0  0  0  0  0  0  0  0  0  0  0
   48.5970   33.6530   40.7650 C   0  0  1  0  0  0  0  0  0  0  0  0
   48.1010   33.6830   42.1780 C   0  0  0  0  0  0  0  0  0  0  0  0
   47.5220   35.8040   41.9000 H   0  0  0  0  0  0  0  0  0  0  0  0
   45.6230   35.1600   40.5610 H   0  0  0  0  0  0  0  0  0  0  0  0
   45.8550   33.3890   41.0740 H   0  0  0  0  0  0  0  0  0  0  0  0
   47.7370   35.2610   39.5860 H   0  0  0  0  0  0  0  0  0  0  0  0
   47.2330   33.5690   39.0780 H   0  0  0  0  0  0  0  0  0  0  0  0
   49.5070   34.3150   40.7290 H   0  0  0  0  0  0  0  0  0  0  0  0
   47.5560   32.7660   42.3920 H   0  0  0  0  0  0  0  0  0  0  0  0
   48.9150   33.9000   42.9000 H   0  0  0  0  0  0  0  0  0  0  0  0
   44.5380   35.7740   44.7060 C   0  0  0  0  0  0  0  0  0  0  0  0
   45.2640   35.8230   43.5210 C   0  0  0  0  0  0  0  0  0  0  0  0
   46.2460   34.8560   43.3430 C   0  0  0  0  0  0  0  0  0  0  0  0
   46.4740   33.8880   44.3280 N   0  0  0  0  0  0  0  0  0  0  0  0
   45.7320   33.8920   45.4670 C   0  0  0  0  0  0  0  0  0  0  0  0
   44.7680   34.8310   45.6530 N   0  0  0  0  0  0  0  0  0  0  0  0
   43.7640   36.5140   44.8750 H   0  0  0  0  0  0  0  0  0  0  0  0
   45.1020   36.5620   42.7490 H   0  0  0  0  0  0  0  0  0  0  0  0
   45.9120   33.1420   46.2250 H   0  0  0  0  0  0  0  0  0  0  0  0
   48.9690   32.2240   40.4460 C   0  0  2  0  0  0  0  0  0  0  0  0
   49.7300   31.5170   41.4630 C   0  0  0  0  0  0  0  0  0  0  0  0
   50.3450   31.8380   40.1370 C   0  0  1  0  0  0  0  0  0  0  0  0
   48.1680   31.6770   39.9150 H   0  0  0  0  0  0  0  0  0  0  0  0
   50.1680   32.1170   42.3120 H   0  0  0  0  0  0  0  0  0  0  0  0
   49.5920   30.4550   41.7470 H   0  0  0  0  0  0  0  0  0  0  0  0
   51.0150   32.6680   39.9260 H   0  0  0  0  0  0  0  0  0  0  0  0
   50.5340   30.7540   39.2440 O   0  0  0  0  0  0  0  0  0  0  0  0
   51.2640   30.3260   36.7780 O   0  0  0  0  0  0  0  0  0  0  0  0
   51.3820   31.3180   37.9070 P   0  0  1  0  0  0  0  0  0  0  0  0
   50.7030   32.7970   37.3640 O   0  0  0  0  0  0  0  0  0  0  0  0
   51.1910   33.5540   37.7480 H   0  0  0  0  0  0  0  0  0  0  0  0
   52.9950   31.6080   38.1870 O   0  0  0  0  0  0  0  0  0  0  0  0
   53.8360   30.7440   38.8670 C   0  0  0  0  0  0  0  0  0  0  0  0
   53.8680   30.2780   40.1840 C   0  0  0  0  0  0  0  0  0  0  0  0
   53.1270   30.6000   40.8940 H   0  0  0  0  0  0  0  0  0  0  0  0
   54.9360   29.4240   40.3160 C   0  0  0  0  0  0  0  0  0  0  0  0
   55.2050   28.9120   41.2350 H   0  0  0  0  0  0  0  0  0  0  0  0
   55.5320   29.3780   39.1080 N   0  0  0  0  0  0  0  0  0  0  0  0
   56.3790   28.7920   38.9410 H   0  0  0  0  0  0  0  0  0  0  0  0
   54.8930   30.1530   38.2410 N   0  0  0  0  0  0  0  0  0  0  0  0
  1  6  1  6  0  0  0
  1  5  1  0  0  0  0
  1 16  1  0  0  0  0
  2  8  1  0  0  0  0
  2  1  1  0  0  0  0
  3  4  1  0  0  0  0
  3  2  1  0  0  0  0
  4 11  1  6  0  0  0
  4  5  1  0  0  0  0
  5 12  1  0  0  0  0
  5 13  1  0  0  0  0
  7  2  1  0  0  0  0
  9  3  1  0  0  0  0
 10  3  1  0  0  0  0
 14 20  1  0  0  0  0
 14 19  1  0  0  0  0
 15 14  2  0  0  0  0
 16 15  1  0  0  0  0
 16 17  2  0  0  0  0
 17 18  1  0  0  0  0
 18 19  2  0  0  0  0
 18 22  1  0  0  0  0
 21 15  1  0  0  0  0
 23 26  1  6  0  0  0
 23  4  1  0  0  0  0
 23 24  1  0  0  0  0
 24 28  1  0  0  0  0
 24 27  1  0  0  0  0
 25 29  1  6  0  0  0
 25 23  1  0  0  0  0
 25 24  1  0  0  0  0
 30 25  1  0  0  0  0
 32 31  2  6  0  0  0
 32 35  1  0  0  0  0
 32 30  1  0  0  0  0
 33 34  1  0  0  0  0
 33 32  1  0  0  0  0
 35 36  1  0  0  0  0
 36 37  1  0  0  0  0
 37 39  2  0  0  0  0
 37 38  1  0  0  0  0
 39 40  1  0  0  0  0
 41 39  1  0  0  0  0
 42 41  1  0  0  0  0
 43 36  2  0  0  0  0
 43 41  1  0  0  0  0
M  END
>  <minimizedAffinity>
-5.16417599

>  <minimizedRMSD>
0.806492448

$$$$
