
 OpenBabel03252508223D

 33 35  0  0  0  0  0  0  0  0999 V2000
   36.1900   30.1980   39.0600 C   0  0  0  0  0  0  0  0  0  0  0  0
   35.7200   29.3130   38.0930 C   0  0  0  0  0  0  0  0  0  0  0  0
   36.0980   29.2960   36.7540 C   0  0  0  0  0  0  0  0  0  0  0  0
   37.0240   30.2610   36.4030 C   0  0  0  0  0  0  0  0  0  0  0  0
   37.5020   31.1430   37.3380 C   0  0  0  0  0  0  0  0  0  0  0  0
   37.1160   31.1470   38.6680 C   0  0  0  0  0  0  0  0  0  0  0  0
   34.9930   28.5860   38.4550 H   0  0  0  0  0  0  0  0  0  0  0  0
   35.6380   28.5460   36.1430 H   0  0  0  0  0  0  0  0  0  0  0  0
   37.3220   30.2540   35.3680 H   0  0  0  0  0  0  0  0  0  0  0  0
   38.2170   31.8290   36.8940 H   0  0  0  0  0  0  0  0  0  0  0  0
   37.7530   32.1770   39.4710 C   0  0  0  0  0  0  0  0  0  0  0  0
   38.9080   32.2550   40.2020 C   0  0  0  0  0  0  0  0  0  0  0  0
   39.6300   31.4760   40.3310 H   0  0  0  0  0  0  0  0  0  0  0  0
   39.1050   33.4630   40.7780 C   0  0  0  0  0  0  0  0  0  0  0  0
   39.9050   33.8160   41.3960 H   0  0  0  0  0  0  0  0  0  0  0  0
   38.0310   34.1600   40.3890 N   0  0  0  0  0  0  0  0  0  0  0  0
   37.7530   35.1580   40.5980 H   0  0  0  0  0  0  0  0  0  0  0  0
   37.2710   33.3990   39.6400 N   0  0  0  0  0  0  0  0  0  0  0  0
   35.7440   30.1810   40.4480 C   0  0  0  0  0  0  0  0  0  0  0  0
   34.7040   30.5750   40.4560 H   0  0  0  0  0  0  0  0  0  0  0  0
   36.3990   30.7400   41.1340 H   0  0  0  0  0  0  0  0  0  0  0  0
   35.5680   28.7390   40.9680 C   0  0  0  0  0  0  0  0  0  0  0  0
   34.6920   28.7810   41.6260 H   0  0  0  0  0  0  0  0  0  0  0  0
   35.4690   28.0480   40.1330 H   0  0  0  0  0  0  0  0  0  0  0  0
   38.1630   26.9000   43.0110 C   0  0  0  0  0  0  0  0  0  0  0  0
   37.0120   27.1270   42.2050 C   0  0  0  0  0  0  0  0  0  0  0  0
   36.7560   28.4310   41.8160 C   0  0  0  0  0  0  0  0  0  0  0  0
   37.6360   29.3980   42.2410 N   0  0  0  0  0  0  0  0  0  0  0  0
   38.7010   29.1580   42.9910 C   0  0  0  0  0  0  0  0  0  0  0  0
   38.9740   27.9100   43.3820 N   0  0  0  0  0  0  0  0  0  0  0  0
   38.3410   25.8710   43.3010 H   0  0  0  0  0  0  0  0  0  0  0  0
   36.3760   26.3030   41.9190 H   0  0  0  0  0  0  0  0  0  0  0  0
   39.3670   29.9480   43.3030 H   0  0  0  0  0  0  0  0  0  0  0  0
  1 19  1  0  0  0  0
  2  7  1  0  0  0  0
  2  1  2  0  0  0  0
  3  2  1  0  0  0  0
  4  3  2  0  0  0  0
  4  5  1  0  0  0  0
  5  6  2  0  0  0  0
  6  1  1  0  0  0  0
  6 11  1  0  0  0  0
  8  3  1  0  0  0  0
  9  4  1  0  0  0  0
 10  5  1  0  0  0  0
 11 18  2  0  0  0  0
 11 12  1  0  0  0  0
 12 13  1  0  0  0  0
 12 14  2  0  0  0  0
 14 15  1  0  0  0  0
 16 17  1  0  0  0  0
 16 14  1  0  0  0  0
 18 16  1  0  0  0  0
 19 20  1  0  0  0  0
 19 22  1  0  0  0  0
 19 21  1  0  0  0  0
 22 23  1  0  0  0  0
 22 27  1  0  0  0  0
 24 22  1  0  0  0  0
 25 31  1  0  0  0  0
 25 30  1  0  0  0  0
 26 25  2  0  0  0  0
 27 26  1  0  0  0  0
 27 28  2  0  0  0  0
 28 29  1  0  0  0  0
 29 33  1  0  0  0  0
 29 30  2  0  0  0  0
 32 26  1  0  0  0  0
M  END
>  <minimizedAffinity>
-5.51714516

$$$$

 OpenBabel03252508223D

 33 35  0  0  0  0  0  0  0  0999 V2000
   38.4340   25.9690   42.5820 C   0  0  0  0  0  0  0  0  0  0  0  0
   37.0980   25.6520   42.3550 C   0  0  0  0  0  0  0  0  0  0  0  0
   36.6320   24.5580   41.6330 C   0  0  0  0  0  0  0  0  0  0  0  0
   37.6230   23.7440   41.1160 C   0  0  0  0  0  0  0  0  0  0  0  0
   38.9460   24.0350   41.3260 C   0  0  0  0  0  0  0  0  0  0  0  0
   39.3940   25.1280   42.0480 C   0  0  0  0  0  0  0  0  0  0  0  0
   36.3840   26.3460   42.7980 H   0  0  0  0  0  0  0  0  0  0  0  0
   35.5680   24.4610   41.5540 H   0  0  0  0  0  0  0  0  0  0  0  0
   37.2710   22.8940   40.5550 H   0  0  0  0  0  0  0  0  0  0  0  0
   39.5860   23.2960   40.8520 H   0  0  0  0  0  0  0  0  0  0  0  0
   40.8410   25.2340   42.1350 C   0  0  0  0  0  0  0  0  0  0  0  0
   41.8210   25.7600   41.3380 C   0  0  0  0  0  0  0  0  0  0  0  0
   41.6780   26.2380   40.3910 H   0  0  0  0  0  0  0  0  0  0  0  0
   43.0650   25.6460   41.8570 C   0  0  0  0  0  0  0  0  0  0  0  0
   44.0120   25.9600   41.4690 H   0  0  0  0  0  0  0  0  0  0  0  0
   42.8460   25.0260   43.0230 N   0  0  0  0  0  0  0  0  0  0  0  0
   43.5260   24.7260   43.7740 H   0  0  0  0  0  0  0  0  0  0  0  0
   41.5620   24.8010   43.1590 N   0  0  0  0  0  0  0  0  0  0  0  0
   38.8660   27.1420   43.3340 C   0  0  0  0  0  0  0  0  0  0  0  0
   39.5340   27.7250   42.6630 H   0  0  0  0  0  0  0  0  0  0  0  0
   39.3530   26.9030   44.2920 H   0  0  0  0  0  0  0  0  0  0  0  0
   37.6960   28.1160   43.5810 C   0  0  0  0  0  0  0  0  0  0  0  0
   36.8030   27.5790   43.2390 H   0  0  0  0  0  0  0  0  0  0  0  0
   37.6670   28.4120   44.6280 H   0  0  0  0  0  0  0  0  0  0  0  0
   39.2430   31.0430   41.7560 C   0  0  0  0  0  0  0  0  0  0  0  0
   39.1160   29.9410   42.6480 C   0  0  0  0  0  0  0  0  0  0  0  0
   37.8970   29.2820   42.6720 C   0  0  0  0  0  0  0  0  0  0  0  0
   36.9140   29.7480   41.8330 N   0  0  0  0  0  0  0  0  0  0  0  0
   37.0610   30.7770   41.0120 C   0  0  0  0  0  0  0  0  0  0  0  0
   38.2240   31.4320   40.9660 N   0  0  0  0  0  0  0  0  0  0  0  0
   40.2070   31.5400   41.7560 H   0  0  0  0  0  0  0  0  0  0  0  0
   39.9450   29.6450   43.2720 H   0  0  0  0  0  0  0  0  0  0  0  0
   36.2610   31.1110   40.3690 H   0  0  0  0  0  0  0  0  0  0  0  0
  1 19  1  0  0  0  0
  2  1  1  0  0  0  0
  2  7  1  0  0  0  0
  3  2  2  0  0  0  0
  4  5  2  0  0  0  0
  4  3  1  0  0  0  0
  5  6  1  0  0  0  0
  6 11  1  0  0  0  0
  6  1  2  0  0  0  0
  8  3  1  0  0  0  0
  9  4  1  0  0  0  0
 10  5  1  0  0  0  0
 11 18  2  0  0  0  0
 12 14  2  0  0  0  0
 12 11  1  0  0  0  0
 13 12  1  0  0  0  0
 14 16  1  0  0  0  0
 15 14  1  0  0  0  0
 16 18  1  0  0  0  0
 16 17  1  0  0  0  0
 19 22  1  0  0  0  0
 19 21  1  0  0  0  0
 20 19  1  0  0  0  0
 22 24  1  0  0  0  0
 23 22  1  0  0  0  0
 25 26  1  0  0  0  0
 26 27  2  0  0  0  0
 26 32  1  0  0  0  0
 27 22  1  0  0  0  0
 28 27  1  0  0  0  0
 29 28  2  0  0  0  0
 30 29  1  0  0  0  0
 30 25  2  0  0  0  0
 31 25  1  0  0  0  0
 33 29  1  0  0  0  0
M  END
>  <minimizedAffinity>
-5.28398514

$$$$

 OpenBabel03252508223D

 33 35  0  0  0  0  0  0  0  0999 V2000
   39.0570   31.6410   40.6650 C   0  0  0  0  0  0  0  0  0  0  0  0
   39.8520   32.7830   40.7060 C   0  0  0  0  0  0  0  0  0  0  0  0
   39.4540   34.0650   40.3400 C   0  0  0  0  0  0  0  0  0  0  0  0
   38.1450   34.1610   39.9050 C   0  0  0  0  0  0  0  0  0  0  0  0
   37.3420   33.0500   39.8560 C   0  0  0  0  0  0  0  0  0  0  0  0
   37.7540   31.7800   40.2250 C   0  0  0  0  0  0  0  0  0  0  0  0
   40.8690   32.6180   41.0610 H   0  0  0  0  0  0  0  0  0  0  0  0
   40.1940   34.8340   40.4330 H   0  0  0  0  0  0  0  0  0  0  0  0
   37.8290   35.1500   39.6190 H   0  0  0  0  0  0  0  0  0  0  0  0
   36.3510   33.3030   39.4920 H   0  0  0  0  0  0  0  0  0  0  0  0
   36.7310   30.7570   40.0860 C   0  0  0  0  0  0  0  0  0  0  0  0
   36.4070   29.8390   39.1240 C   0  0  0  0  0  0  0  0  0  0  0  0
   36.9070   29.6980   38.1880 H   0  0  0  0  0  0  0  0  0  0  0  0
   35.3560   29.0540   39.4540 C   0  0  0  0  0  0  0  0  0  0  0  0
   34.8830   28.2600   38.9120 H   0  0  0  0  0  0  0  0  0  0  0  0
   35.0150   29.5040   40.6670 N   0  0  0  0  0  0  0  0  0  0  0  0
   34.2450   29.1900   41.3200 H   0  0  0  0  0  0  0  0  0  0  0  0
   35.8190   30.4810   41.0080 N   0  0  0  0  0  0  0  0  0  0  0  0
   39.5340   30.3160   41.0450 C   0  0  0  0  0  0  0  0  0  0  0  0
   40.6450   30.3500   41.0020 H   0  0  0  0  0  0  0  0  0  0  0  0
   39.1240   29.5010   40.4300 H   0  0  0  0  0  0  0  0  0  0  0  0
   39.2600   30.0230   42.5350 C   0  0  0  0  0  0  0  0  0  0  0  0
   40.2320   29.7340   42.9500 H   0  0  0  0  0  0  0  0  0  0  0  0
   38.8080   30.8910   43.0120 H   0  0  0  0  0  0  0  0  0  0  0  0
   36.7070   27.4720   43.6630 C   0  0  0  0  0  0  0  0  0  0  0  0
   37.5320   28.6330   43.6750 C   0  0  0  0  0  0  0  0  0  0  0  0
   38.3720   28.8260   42.5900 C   0  0  0  0  0  0  0  0  0  0  0  0
   38.3380   27.8800   41.5930 N   0  0  0  0  0  0  0  0  0  0  0  0
   37.5590   26.8090   41.6090 C   0  0  0  0  0  0  0  0  0  0  0  0
   36.7390   26.5950   42.6420 N   0  0  0  0  0  0  0  0  0  0  0  0
   36.0600   27.3460   44.5240 H   0  0  0  0  0  0  0  0  0  0  0  0
   37.4900   29.3230   44.5030 H   0  0  0  0  0  0  0  0  0  0  0  0
   37.5650   26.0890   40.8050 H   0  0  0  0  0  0  0  0  0  0  0  0
  1  2  1  0  0  0  0
  1 19  1  0  0  0  0
  2  7  1  0  0  0  0
  3  8  1  0  0  0  0
  3  2  2  0  0  0  0
  4  3  1  0  0  0  0
  5  4  2  0  0  0  0
  5  6  1  0  0  0  0
  6  1  2  0  0  0  0
  9  4  1  0  0  0  0
 10  5  1  0  0  0  0
 11  6  1  0  0  0  0
 11 18  2  0  0  0  0
 12 14  2  0  0  0  0
 12 11  1  0  0  0  0
 13 12  1  0  0  0  0
 14 16  1  0  0  0  0
 15 14  1  0  0  0  0
 16 18  1  0  0  0  0
 16 17  1  0  0  0  0
 19 22  1  0  0  0  0
 20 19  1  0  0  0  0
 21 19  1  0  0  0  0
 22 27  1  0  0  0  0
 22 23  1  0  0  0  0
 22 24  1  0  0  0  0
 25 26  1  0  0  0  0
 25 31  1  0  0  0  0
 26 32  1  0  0  0  0
 27 26  2  0  0  0  0
 28 29  2  0  0  0  0
 28 27  1  0  0  0  0
 29 30  1  0  0  0  0
 30 25  2  0  0  0  0
 33 29  1  0  0  0  0
M  END
>  <minimizedAffinity>
-5.25457382

$$$$

 OpenBabel03252508223D

 33 35  0  0  0  0  0  0  0  0999 V2000
   36.8550   26.3560   39.8600 C   0  0  0  0  0  0  0  0  0  0  0  0
   36.4750   25.1200   39.3430 C   0  0  0  0  0  0  0  0  0  0  0  0
   36.3570   23.9370   40.0660 C   0  0  0  0  0  0  0  0  0  0  0  0
   36.6540   24.0510   41.4120 C   0  0  0  0  0  0  0  0  0  0  0  0
   37.0300   25.2570   41.9450 C   0  0  0  0  0  0  0  0  0  0  0  0
   37.1420   26.4270   41.2120 C   0  0  0  0  0  0  0  0  0  0  0  0
   36.2600   25.1200   38.2750 H   0  0  0  0  0  0  0  0  0  0  0  0
   36.0530   23.0730   39.5120 H   0  0  0  0  0  0  0  0  0  0  0  0
   36.5650   23.1390   41.9790 H   0  0  0  0  0  0  0  0  0  0  0  0
   37.2250   25.1670   43.0090 H   0  0  0  0  0  0  0  0  0  0  0  0
   37.5590   27.5810   41.9890 C   0  0  0  0  0  0  0  0  0  0  0  0
   38.7210   28.2940   42.1130 C   0  0  0  0  0  0  0  0  0  0  0  0
   39.6410   28.1000   41.6010 H   0  0  0  0  0  0  0  0  0  0  0  0
   38.6290   29.3400   42.9660 C   0  0  0  0  0  0  0  0  0  0  0  0
   39.3610   30.0640   43.2590 H   0  0  0  0  0  0  0  0  0  0  0  0
   37.3610   29.2720   43.3880 N   0  0  0  0  0  0  0  0  0  0  0  0
   36.8340   29.8870   44.0660 H   0  0  0  0  0  0  0  0  0  0  0  0
   36.7680   28.2540   42.8120 N   0  0  0  0  0  0  0  0  0  0  0  0
   36.9790   27.5620   39.0500 C   0  0  0  0  0  0  0  0  0  0  0  0
   36.8610   27.2500   37.9900 H   0  0  0  0  0  0  0  0  0  0  0  0
   37.9170   28.1140   39.2140 H   0  0  0  0  0  0  0  0  0  0  0  0
   35.7810   28.5100   39.2630 C   0  0  0  0  0  0  0  0  0  0  0  0
   35.1820   28.4190   38.3500 H   0  0  0  0  0  0  0  0  0  0  0  0
   35.2500   28.2470   40.1760 H   0  0  0  0  0  0  0  0  0  0  0  0
   37.3140   31.8200   38.2670 C   0  0  0  0  0  0  0  0  0  0  0  0
   36.8130   30.4920   38.1560 C   0  0  0  0  0  0  0  0  0  0  0  0
   36.3240   29.8990   39.3090 C   0  0  0  0  0  0  0  0  0  0  0  0
   36.3650   30.6430   40.4630 N   0  0  0  0  0  0  0  0  0  0  0  0
   36.8370   31.8780   40.5370 C   0  0  0  0  0  0  0  0  0  0  0  0
   37.3140   32.4770   39.4420 N   0  0  0  0  0  0  0  0  0  0  0  0
   37.6890   32.2600   37.3500 H   0  0  0  0  0  0  0  0  0  0  0  0
   36.8210   29.9840   37.2030 H   0  0  0  0  0  0  0  0  0  0  0  0
   36.8500   32.4280   41.4660 H   0  0  0  0  0  0  0  0  0  0  0  0
  1  6  1  0  0  0  0
  2  1  2  0  0  0  0
  2  3  1  0  0  0  0
  3  4  2  0  0  0  0
  4  5  1  0  0  0  0
  4  9  1  0  0  0  0
  5 10  1  0  0  0  0
  6  5  2  0  0  0  0
  6 11  1  0  0  0  0
  7  2  1  0  0  0  0
  8  3  1  0  0  0  0
 11 12  1  0  0  0  0
 11 18  2  0  0  0  0
 12 14  2  0  0  0  0
 13 12  1  0  0  0  0
 14 15  1  0  0  0  0
 14 16  1  0  0  0  0
 16 17  1  0  0  0  0
 18 16  1  0  0  0  0
 19 21  1  0  0  0  0
 19 22  1  0  0  0  0
 19  1  1  0  0  0  0
 20 19  1  0  0  0  0
 22 27  1  0  0  0  0
 22 24  1  0  0  0  0
 23 22  1  0  0  0  0
 25 30  1  0  0  0  0
 26 25  2  0  0  0  0
 26 27  1  0  0  0  0
 27 28  2  0  0  0  0
 28 29  1  0  0  0  0
 29 33  1  0  0  0  0
 30 29  2  0  0  0  0
 31 25  1  0  0  0  0
 32 26  1  0  0  0  0
M  END
>  <minimizedAffinity>
-5.25055885

$$$$

 OpenBabel03252508223D

 33 35  0  0  0  0  0  0  0  0999 V2000
   37.0020   28.0630   40.8360 C   0  0  0  0  0  0  0  0  0  0  0  0
   36.9120   26.8370   41.4900 C   0  0  0  0  0  0  0  0  0  0  0  0
   37.0940   26.6270   42.8530 C   0  0  0  0  0  0  0  0  0  0  0  0
   37.3870   27.7680   43.5790 C   0  0  0  0  0  0  0  0  0  0  0  0
   37.4800   28.9860   42.9570 C   0  0  0  0  0  0  0  0  0  0  0  0
   37.2960   29.1790   41.5990 C   0  0  0  0  0  0  0  0  0  0  0  0
   36.6780   25.9920   40.8430 H   0  0  0  0  0  0  0  0  0  0  0  0
   36.9890   25.6180   43.1940 H   0  0  0  0  0  0  0  0  0  0  0  0
   37.5290   27.6140   44.6360 H   0  0  0  0  0  0  0  0  0  0  0  0
   37.7150   29.7700   43.6720 H   0  0  0  0  0  0  0  0  0  0  0  0
   37.4470   30.5580   41.1650 C   0  0  0  0  0  0  0  0  0  0  0  0
   38.5090   31.3990   40.9730 C   0  0  0  0  0  0  0  0  0  0  0  0
   39.5410   31.1640   41.1330 H   0  0  0  0  0  0  0  0  0  0  0  0
   38.1570   32.6260   40.5230 C   0  0  0  0  0  0  0  0  0  0  0  0
   38.7590   33.4780   40.2850 H   0  0  0  0  0  0  0  0  0  0  0  0
   36.8240   32.5400   40.4340 N   0  0  0  0  0  0  0  0  0  0  0  0
   36.1140   33.2600   40.1250 H   0  0  0  0  0  0  0  0  0  0  0  0
   36.4420   31.3440   40.8070 N   0  0  0  0  0  0  0  0  0  0  0  0
   36.8190   28.2220   39.3980 C   0  0  0  0  0  0  0  0  0  0  0  0
   37.8350   28.2760   38.9490 H   0  0  0  0  0  0  0  0  0  0  0  0
   36.2010   29.0900   39.1200 H   0  0  0  0  0  0  0  0  0  0  0  0
   36.2300   26.9470   38.7590 C   0  0  0  0  0  0  0  0  0  0  0  0
   36.9900   26.6130   38.0420 H   0  0  0  0  0  0  0  0  0  0  0  0
   35.9890   26.2170   39.5300 H   0  0  0  0  0  0  0  0  0  0  0  0
   33.3760   28.9800   37.3400 C   0  0  0  0  0  0  0  0  0  0  0  0
   34.5240   28.6470   38.1130 C   0  0  0  0  0  0  0  0  0  0  0  0
   35.0270   27.3620   37.9810 C   0  0  0  0  0  0  0  0  0  0  0  0
   34.3740   26.5180   37.1160 N   0  0  0  0  0  0  0  0  0  0  0  0
   33.3070   26.8560   36.4080 C   0  0  0  0  0  0  0  0  0  0  0  0
   32.7990   28.0870   36.5140 N   0  0  0  0  0  0  0  0  0  0  0  0
   33.0040   29.9910   37.4610 H   0  0  0  0  0  0  0  0  0  0  0  0
   34.9720   29.3780   38.7680 H   0  0  0  0  0  0  0  0  0  0  0  0
   32.8240   26.1600   35.7390 H   0  0  0  0  0  0  0  0  0  0  0  0
  1  2  2  0  0  0  0
  1  6  1  0  0  0  0
  2  3  1  0  0  0  0
  3  8  1  0  0  0  0
  3  4  2  0  0  0  0
  4  9  1  0  0  0  0
  5  4  1  0  0  0  0
  5 10  1  0  0  0  0
  6  5  2  0  0  0  0
  7  2  1  0  0  0  0
 11  6  1  0  0  0  0
 12 13  1  0  0  0  0
 12 11  1  0  0  0  0
 14 12  2  0  0  0  0
 15 14  1  0  0  0  0
 16 14  1  0  0  0  0
 16 18  1  0  0  0  0
 17 16  1  0  0  0  0
 18 11  2  0  0  0  0
 19  1  1  0  0  0  0
 20 19  1  0  0  0  0
 21 19  1  0  0  0  0
 22 19  1  0  0  0  0
 22 24  1  0  0  0  0
 23 22  1  0  0  0  0
 25 31  1  0  0  0  0
 25 26  1  0  0  0  0
 26 32  1  0  0  0  0
 27 26  2  0  0  0  0
 27 22  1  0  0  0  0
 28 27  1  0  0  0  0
 29 30  1  0  0  0  0
 29 28  2  0  0  0  0
 30 25  2  0  0  0  0
 33 29  1  0  0  0  0
M  END
>  <minimizedAffinity>
-5.11373329

$$$$

 OpenBabel03252508223D

 33 35  0  0  0  0  0  0  0  0999 V2000
   35.9470   27.3460   38.3700 C   0  0  0  0  0  0  0  0  0  0  0  0
   35.3120   26.4560   37.5060 C   0  0  0  0  0  0  0  0  0  0  0  0
   34.1050   26.6780   36.8520 C   0  0  0  0  0  0  0  0  0  0  0  0
   33.5240   27.9060   37.1130 C   0  0  0  0  0  0  0  0  0  0  0  0
   34.1300   28.7990   37.9590 C   0  0  0  0  0  0  0  0  0  0  0  0
   35.3330   28.5630   38.6030 C   0  0  0  0  0  0  0  0  0  0  0  0
   35.8390   25.5130   37.3570 H   0  0  0  0  0  0  0  0  0  0  0  0
   33.7570   25.8860   36.2210 H   0  0  0  0  0  0  0  0  0  0  0  0
   32.5890   28.0850   36.6100 H   0  0  0  0  0  0  0  0  0  0  0  0
   33.5400   29.7070   38.0510 H   0  0  0  0  0  0  0  0  0  0  0  0
   35.7780   29.6530   39.4530 C   0  0  0  0  0  0  0  0  0  0  0  0
   36.6680   30.6850   39.3150 C   0  0  0  0  0  0  0  0  0  0  0  0
   37.2690   30.8920   38.4540 H   0  0  0  0  0  0  0  0  0  0  0  0
   36.7360   31.4920   40.3990 C   0  0  0  0  0  0  0  0  0  0  0  0
   37.3310   32.3650   40.5790 H   0  0  0  0  0  0  0  0  0  0  0  0
   35.8550   30.9400   41.2400 N   0  0  0  0  0  0  0  0  0  0  0  0
   35.5690   31.2290   42.2160 H   0  0  0  0  0  0  0  0  0  0  0  0
   35.3190   29.8860   40.6750 N   0  0  0  0  0  0  0  0  0  0  0  0
   37.2060   27.0520   39.0440 C   0  0  0  0  0  0  0  0  0  0  0  0
   37.6200   28.0250   39.3880 H   0  0  0  0  0  0  0  0  0  0  0  0
   37.9250   26.4960   38.4230 H   0  0  0  0  0  0  0  0  0  0  0  0
   36.9740   26.2920   40.3670 C   0  0  0  0  0  0  0  0  0  0  0  0
   35.8880   26.1610   40.4310 H   0  0  0  0  0  0  0  0  0  0  0  0
   37.5390   25.3620   40.3700 H   0  0  0  0  0  0  0  0  0  0  0  0
   38.8050   28.9010   42.4000 C   0  0  0  0  0  0  0  0  0  0  0  0
   38.4680   28.0540   41.3080 C   0  0  0  0  0  0  0  0  0  0  0  0
   37.3850   27.2040   41.4730 C   0  0  0  0  0  0  0  0  0  0  0  0
   36.7280   27.2520   42.6790 N   0  0  0  0  0  0  0  0  0  0  0  0
   37.0650   28.0520   43.6800 C   0  0  0  0  0  0  0  0  0  0  0  0
   38.1040   28.8820   43.5500 N   0  0  0  0  0  0  0  0  0  0  0  0
   39.6560   29.5550   42.2440 H   0  0  0  0  0  0  0  0  0  0  0  0
   39.0430   28.0850   40.3940 H   0  0  0  0  0  0  0  0  0  0  0  0
   36.5220   28.0570   44.6120 H   0  0  0  0  0  0  0  0  0  0  0  0
  1  6  1  0  0  0  0
  1 19  1  0  0  0  0
  2  1  2  0  0  0  0
  3  4  2  0  0  0  0
  3  2  1  0  0  0  0
  4  5  1  0  0  0  0
  5 10  1  0  0  0  0
  5  6  2  0  0  0  0
  6 11  1  0  0  0  0
  7  2  1  0  0  0  0
  8  3  1  0  0  0  0
  9  4  1  0  0  0  0
 11 18  2  0  0  0  0
 12 11  1  0  0  0  0
 12 14  2  0  0  0  0
 13 12  1  0  0  0  0
 14 15  1  0  0  0  0
 14 16  1  0  0  0  0
 16 17  1  0  0  0  0
 18 16  1  0  0  0  0
 19 20  1  0  0  0  0
 19 22  1  0  0  0  0
 21 19  1  0  0  0  0
 22 24  1  0  0  0  0
 22 23  1  0  0  0  0
 22 27  1  0  0  0  0
 25 30  1  0  0  0  0
 26 27  1  0  0  0  0
 26 25  2  0  0  0  0
 27 28  2  0  0  0  0
 28 29  1  0  0  0  0
 29 33  1  0  0  0  0
 30 29  2  0  0  0  0
 31 25  1  0  0  0  0
 32 26  1  0  0  0  0
M  END
>  <minimizedAffinity>
-5.10053682

$$$$

 OpenBabel03252508223D

 33 35  0  0  0  0  0  0  0  0999 V2000
   36.4310   30.1640   38.9610 C   0  0  0  0  0  0  0  0  0  0  0  0
   35.2160   29.4850   38.8960 C   0  0  0  0  0  0  0  0  0  0  0  0
   34.7120   28.8230   37.7820 C   0  0  0  0  0  0  0  0  0  0  0  0
   35.5260   28.8710   36.6640 C   0  0  0  0  0  0  0  0  0  0  0  0
   36.7260   29.5330   36.7030 C   0  0  0  0  0  0  0  0  0  0  0  0
   37.2150   30.1870   37.8220 C   0  0  0  0  0  0  0  0  0  0  0  0
   34.6390   29.4970   39.8210 H   0  0  0  0  0  0  0  0  0  0  0  0
   33.7590   28.3500   37.9040 H   0  0  0  0  0  0  0  0  0  0  0  0
   35.1430   28.3600   35.7970 H   0  0  0  0  0  0  0  0  0  0  0  0
   37.2340   29.4720   35.7450 H   0  0  0  0  0  0  0  0  0  0  0  0
   38.5080   30.8210   37.6260 C   0  0  0  0  0  0  0  0  0  0  0  0
   39.8030   30.4800   37.9060 C   0  0  0  0  0  0  0  0  0  0  0  0
   40.1330   29.5800   38.3830 H   0  0  0  0  0  0  0  0  0  0  0  0
   40.7080   31.4030   37.5050 C   0  0  0  0  0  0  0  0  0  0  0  0
   41.7750   31.4110   37.5860 H   0  0  0  0  0  0  0  0  0  0  0  0
   39.9420   32.3520   36.9540 N   0  0  0  0  0  0  0  0  0  0  0  0
   40.2110   33.2690   36.5030 H   0  0  0  0  0  0  0  0  0  0  0  0
   38.6840   31.9950   37.0350 N   0  0  0  0  0  0  0  0  0  0  0  0
   36.9020   30.8570   40.1540 C   0  0  0  0  0  0  0  0  0  0  0  0
   36.5380   31.9060   40.0800 H   0  0  0  0  0  0  0  0  0  0  0  0
   37.9920   30.8100   40.2960 H   0  0  0  0  0  0  0  0  0  0  0  0
   36.1950   30.3390   41.4240 C   0  0  0  0  0  0  0  0  0  0  0  0
   36.1800   31.1950   42.1080 H   0  0  0  0  0  0  0  0  0  0  0  0
   35.2110   29.9480   41.1740 H   0  0  0  0  0  0  0  0  0  0  0  0
   37.5140   27.0520   42.7460 C   0  0  0  0  0  0  0  0  0  0  0  0
   36.6200   27.9990   42.1710 C   0  0  0  0  0  0  0  0  0  0  0  0
   37.0790   29.2970   42.0230 C   0  0  0  0  0  0  0  0  0  0  0  0
   38.3600   29.5630   42.4430 N   0  0  0  0  0  0  0  0  0  0  0  0
   39.1710   28.6610   42.9750 C   0  0  0  0  0  0  0  0  0  0  0  0
   38.7560   27.4000   43.1310 N   0  0  0  0  0  0  0  0  0  0  0  0
   37.1300   26.0440   42.8500 H   0  0  0  0  0  0  0  0  0  0  0  0
   35.6280   27.6980   41.8680 H   0  0  0  0  0  0  0  0  0  0  0  0
   40.1710   28.9120   43.2940 H   0  0  0  0  0  0  0  0  0  0  0  0
  1 19  1  0  0  0  0
  2  1  1  0  0  0  0
  2  7  1  0  0  0  0
  3  8  1  0  0  0  0
  3  2  2  0  0  0  0
  4  5  2  0  0  0  0
  4  3  1  0  0  0  0
  5  6  1  0  0  0  0
  6  1  2  0  0  0  0
  9  4  1  0  0  0  0
 10  5  1  0  0  0  0
 11  6  1  0  0  0  0
 11 12  1  0  0  0  0
 12 13  1  0  0  0  0
 14 15  1  0  0  0  0
 14 12  2  0  0  0  0
 16 18  1  0  0  0  0
 16 14  1  0  0  0  0
 17 16  1  0  0  0  0
 18 11  2  0  0  0  0
 19 21  1  0  0  0  0
 19 22  1  0  0  0  0
 20 19  1  0  0  0  0
 22 27  1  0  0  0  0
 22 23  1  0  0  0  0
 24 22  1  0  0  0  0
 25 31  1  0  0  0  0
 25 30  1  0  0  0  0
 26 25  2  0  0  0  0
 27 26  1  0  0  0  0
 27 28  2  0  0  0  0
 28 29  1  0  0  0  0
 29 30  2  0  0  0  0
 29 33  1  0  0  0  0
 32 26  1  0  0  0  0
M  END
>  <minimizedAffinity>
-5.01181602

$$$$

 OpenBabel03252508223D

 33 35  0  0  0  0  0  0  0  0999 V2000
   38.2720   26.4730   42.8460 C   0  0  0  0  0  0  0  0  0  0  0  0
   39.3660   26.6930   43.6800 C   0  0  0  0  0  0  0  0  0  0  0  0
   40.5590   25.9780   43.6630 C   0  0  0  0  0  0  0  0  0  0  0  0
   40.6150   24.9700   42.7170 C   0  0  0  0  0  0  0  0  0  0  0  0
   39.5510   24.7340   41.8850 C   0  0  0  0  0  0  0  0  0  0  0  0
   38.3690   25.4560   41.9140 C   0  0  0  0  0  0  0  0  0  0  0  0
   39.2370   27.5060   44.3950 H   0  0  0  0  0  0  0  0  0  0  0  0
   41.3010   26.2790   44.3740 H   0  0  0  0  0  0  0  0  0  0  0  0
   41.5350   24.4110   42.6980 H   0  0  0  0  0  0  0  0  0  0  0  0
   39.7630   23.9120   41.2080 H   0  0  0  0  0  0  0  0  0  0  0  0
   37.3820   25.0240   40.9390 C   0  0  0  0  0  0  0  0  0  0  0  0
   37.0230   25.4290   39.6820 C   0  0  0  0  0  0  0  0  0  0  0  0
   37.4560   26.2380   39.1290 H   0  0  0  0  0  0  0  0  0  0  0  0
   36.0330   24.6880   39.1330 C   0  0  0  0  0  0  0  0  0  0  0  0
   35.5540   24.7650   38.1790 H   0  0  0  0  0  0  0  0  0  0  0  0
   35.7690   23.7880   40.0890 N   0  0  0  0  0  0  0  0  0  0  0  0
   35.0650   23.0010   40.1070 H   0  0  0  0  0  0  0  0  0  0  0  0
   36.5560   24.0030   41.1140 N   0  0  0  0  0  0  0  0  0  0  0  0
   37.0370   27.2440   42.9210 C   0  0  0  0  0  0  0  0  0  0  0  0
   36.5940   27.0460   43.9210 H   0  0  0  0  0  0  0  0  0  0  0  0
   36.3270   27.0290   42.1070 H   0  0  0  0  0  0  0  0  0  0  0  0
   37.3200   28.7600   42.9670 C   0  0  0  0  0  0  0  0  0  0  0  0
   36.6280   29.1540   43.7210 H   0  0  0  0  0  0  0  0  0  0  0  0
   38.3710   28.9400   43.1850 H   0  0  0  0  0  0  0  0  0  0  0  0
   35.5120   29.3570   39.7010 C   0  0  0  0  0  0  0  0  0  0  0  0
   35.8480   28.7720   40.9540 C   0  0  0  0  0  0  0  0  0  0  0  0
   36.9150   29.3220   41.6460 C   0  0  0  0  0  0  0  0  0  0  0  0
   37.5590   30.3880   41.0630 N   0  0  0  0  0  0  0  0  0  0  0  0
   37.2230   30.9120   39.8940 C   0  0  0  0  0  0  0  0  0  0  0  0
   36.1990   30.4030   39.2040 N   0  0  0  0  0  0  0  0  0  0  0  0
   34.6730   28.9080   39.1810 H   0  0  0  0  0  0  0  0  0  0  0  0
   35.2840   27.9340   41.3350 H   0  0  0  0  0  0  0  0  0  0  0  0
   37.7570   31.7500   39.4720 H   0  0  0  0  0  0  0  0  0  0  0  0
  1 19  1  0  0  0  0
  1  2  1  0  0  0  0
  2  7  1  0  0  0  0
  3  2  2  0  0  0  0
  3  8  1  0  0  0  0
  4  3  1  0  0  0  0
  5  6  1  0  0  0  0
  5  4  2  0  0  0  0
  6  1  2  0  0  0  0
  9  4  1  0  0  0  0
 10  5  1  0  0  0  0
 11 18  2  0  0  0  0
 11  6  1  0  0  0  0
 12 11  1  0  0  0  0
 13 12  1  0  0  0  0
 14 12  2  0  0  0  0
 14 16  1  0  0  0  0
 15 14  1  0  0  0  0
 16 17  1  0  0  0  0
 16 18  1  0  0  0  0
 19 22  1  0  0  0  0
 19 20  1  0  0  0  0
 21 19  1  0  0  0  0
 22 24  1  0  0  0  0
 22 23  1  0  0  0  0
 25 26  1  0  0  0  0
 26 32  1  0  0  0  0
 26 27  2  0  0  0  0
 27 22  1  0  0  0  0
 28 27  1  0  0  0  0
 29 28  2  0  0  0  0
 30 25  2  0  0  0  0
 30 29  1  0  0  0  0
 31 25  1  0  0  0  0
 33 29  1  0  0  0  0
M  END
>  <minimizedAffinity>
-4.95262051

$$$$

 OpenBabel03252508223D

 33 35  0  0  0  0  0  0  0  0999 V2000
   38.3110   27.2720   42.6780 C   0  0  0  0  0  0  0  0  0  0  0  0
   39.3930   26.6970   43.3400 C   0  0  0  0  0  0  0  0  0  0  0  0
   40.6320   27.2940   43.5460 C   0  0  0  0  0  0  0  0  0  0  0  0
   40.7500   28.5720   43.0300 C   0  0  0  0  0  0  0  0  0  0  0  0
   39.6990   29.1600   42.3740 C   0  0  0  0  0  0  0  0  0  0  0  0
   38.4710   28.5520   42.1780 C   0  0  0  0  0  0  0  0  0  0  0  0
   39.2130   25.6890   43.7140 H   0  0  0  0  0  0  0  0  0  0  0  0
   41.3560   26.7100   44.0760 H   0  0  0  0  0  0  0  0  0  0  0  0
   41.7070   29.0410   43.1850 H   0  0  0  0  0  0  0  0  0  0  0  0
   39.9630   30.1580   42.0360 H   0  0  0  0  0  0  0  0  0  0  0  0
   37.5100   29.3670   41.4530 C   0  0  0  0  0  0  0  0  0  0  0  0
   37.2020   29.5530   40.1330 C   0  0  0  0  0  0  0  0  0  0  0  0
   37.6760   29.0770   39.2990 H   0  0  0  0  0  0  0  0  0  0  0  0
   36.1840   30.4200   39.9280 C   0  0  0  0  0  0  0  0  0  0  0  0
   35.7290   30.7570   39.0190 H   0  0  0  0  0  0  0  0  0  0  0  0
   35.8490   30.7860   41.1710 N   0  0  0  0  0  0  0  0  0  0  0  0
   35.1000   31.4520   41.5080 H   0  0  0  0  0  0  0  0  0  0  0  0
   36.6240   30.1670   42.0280 N   0  0  0  0  0  0  0  0  0  0  0  0
   37.0380   26.5910   42.4750 C   0  0  0  0  0  0  0  0  0  0  0  0
   36.6200   26.9720   41.5170 H   0  0  0  0  0  0  0  0  0  0  0  0
   36.3300   26.7110   43.3090 H   0  0  0  0  0  0  0  0  0  0  0  0
   37.2410   25.0890   42.1860 C   0  0  0  0  0  0  0  0  0  0  0  0
   38.3280   24.9460   42.1800 H   0  0  0  0  0  0  0  0  0  0  0  0
   36.7140   24.4890   42.9250 H   0  0  0  0  0  0  0  0  0  0  0  0
   36.1470   25.5830   38.6010 C   0  0  0  0  0  0  0  0  0  0  0  0
   36.6220   25.8900   39.9070 C   0  0  0  0  0  0  0  0  0  0  0  0
   36.7460   24.8390   40.8010 C   0  0  0  0  0  0  0  0  0  0  0  0
   36.4000   23.5870   40.3510 N   0  0  0  0  0  0  0  0  0  0  0  0
   35.9610   23.3310   39.1280 C   0  0  0  0  0  0  0  0  0  0  0  0
   35.8310   24.3240   38.2440 N   0  0  0  0  0  0  0  0  0  0  0  0
   36.0600   26.4240   37.9210 H   0  0  0  0  0  0  0  0  0  0  0  0
   36.8710   26.9060   40.1720 H   0  0  0  0  0  0  0  0  0  0  0  0
   35.6990   22.3320   38.8150 H   0  0  0  0  0  0  0  0  0  0  0  0
  1  2  1  0  0  0  0
  2  3  2  0  0  0  0
  2  7  1  0  0  0  0
  3  8  1  0  0  0  0
  4  9  1  0  0  0  0
  4  3  1  0  0  0  0
  5  4  2  0  0  0  0
  6  5  1  0  0  0  0
  6  1  2  0  0  0  0
 10  5  1  0  0  0  0
 11 18  2  0  0  0  0
 11  6  1  0  0  0  0
 12 11  1  0  0  0  0
 13 12  1  0  0  0  0
 14 12  2  0  0  0  0
 14 16  1  0  0  0  0
 15 14  1  0  0  0  0
 16 17  1  0  0  0  0
 16 18  1  0  0  0  0
 19  1  1  0  0  0  0
 19 21  1  0  0  0  0
 20 19  1  0  0  0  0
 22 19  1  0  0  0  0
 22 24  1  0  0  0  0
 23 22  1  0  0  0  0
 25 26  1  0  0  0  0
 26 32  1  0  0  0  0
 26 27  2  0  0  0  0
 27 22  1  0  0  0  0
 28 27  1  0  0  0  0
 29 28  2  0  0  0  0
 30 25  2  0  0  0  0
 30 29  1  0  0  0  0
 31 25  1  0  0  0  0
 33 29  1  0  0  0  0
M  END
>  <minimizedAffinity>
-4.92829418

$$$$
