
 OpenBabel03242522573D

 30 32  0  0  0  0  0  0  0  0999 V2000
   44.7110   34.1910   46.8150 C   0  0  0  0  0  0  0  0  0  0  0  0
   45.0470   34.4670   45.4860 C   0  0  0  0  0  0  0  0  0  0  0  0
   46.0240   33.7530   44.8250 C   0  0  0  0  0  0  0  0  0  0  0  0
   46.6310   32.7760   45.5390 N   0  0  0  0  0  0  0  0  0  0  0  0
   46.3130   32.5040   46.8200 C   0  0  0  0  0  0  0  0  0  0  0  0
   45.3450   33.2190   47.4550 N   0  0  0  0  0  0  0  0  0  0  0  0
   43.9370   34.7960   47.2530 H   0  0  0  0  0  0  0  0  0  0  0  0
   44.5390   35.2540   44.9550 H   0  0  0  0  0  0  0  0  0  0  0  0
   44.2020   32.5820   42.7760 Cl  0  0  0  0  0  0  0  0  0  0  0  0
   45.6360   33.5090   42.4380 C   0  0  0  0  0  0  0  0  0  0  0  0
   46.4110   34.0070   43.4310 C   0  0  0  0  0  0  0  0  0  0  0  0
   47.5150   34.7220   43.0400 C   0  0  0  0  0  0  0  0  0  0  0  0
   47.8570   34.9460   41.7630 C   0  0  0  0  0  0  0  0  0  0  0  0
   47.0740   34.4420   40.7540 C   0  0  0  0  0  0  0  0  0  0  0  0
   45.9510   33.7160   41.1070 C   0  0  0  0  0  0  0  0  0  0  0  0
   48.1580   35.1350   43.8340 H   0  0  0  0  0  0  0  0  0  0  0  0
   47.2780   34.5760   39.6940 H   0  0  0  0  0  0  0  0  0  0  0  0
   45.3230   33.3110   40.3220 H   0  0  0  0  0  0  0  0  0  0  0  0
   49.0540   35.7200   41.3490 C   0  0  0  0  0  0  0  0  0  0  0  0
   50.1680   35.0200   41.7050 F   0  0  0  0  0  0  0  0  0  0  0  0
   49.0530   36.9900   41.9190 F   0  0  0  0  0  0  0  0  0  0  0  0
   49.0240   35.8870   39.9770 F   0  0  0  0  0  0  0  0  0  0  0  0
   47.0110   31.4340   47.5260 C   0  0  0  0  0  0  0  0  0  0  0  0
   47.7860   30.3950   47.0240 C   0  0  0  0  0  0  0  0  0  0  0  0
   47.9870   30.2310   45.9740 H   0  0  0  0  0  0  0  0  0  0  0  0
   48.1940   29.6900   48.1400 C   0  0  0  0  0  0  0  0  0  0  0  0
   48.8230   28.8030   48.1210 H   0  0  0  0  0  0  0  0  0  0  0  0
   47.7060   30.2550   49.2590 N   0  0  0  0  0  0  0  0  0  0  0  0
   47.8100   29.9920   50.2670 H   0  0  0  0  0  0  0  0  0  0  0  0
   46.9960   31.3020   48.8810 N   0  0  0  0  0  0  0  0  0  0  0  0
  1  7  1  0  0  0  0
  1  6  1  0  0  0  0
  2  1  2  0  0  0  0
  3  2  1  0  0  0  0
  3  4  2  0  0  0  0
  4  5  1  0  0  0  0
  5  6  2  0  0  0  0
  5 23  1  0  0  0  0
  8  2  1  0  0  0  0
 10  9  1  0  0  0  0
 10 11  1  0  0  0  0
 11  3  1  0  0  0  0
 12 11  2  0  0  0  0
 12 16  1  0  0  0  0
 13 12  1  0  0  0  0
 14 15  1  0  0  0  0
 14 13  2  0  0  0  0
 15 10  2  0  0  0  0
 17 14  1  0  0  0  0
 18 15  1  0  0  0  0
 19 20  1  0  0  0  0
 19 13  1  0  0  0  0
 19 21  1  0  0  0  0
 22 19  1  0  0  0  0
 23 30  2  0  0  0  0
 24 23  1  0  0  0  0
 24 26  2  0  0  0  0
 25 24  1  0  0  0  0
 26 28  1  0  0  0  0
 27 26  1  0  0  0  0
 28 29  1  0  0  0  0
 30 28  1  0  0  0  0
M  END
>  <minimizedAffinity>
-6.09930372

>  <minimizedRMSD>
0.522771418

$$$$
