
 OpenBabel03252507513D

 30 32  0  0  1  0  0  0  0  0999 V2000
   46.8220   33.0090   44.9010 C   0  0  2  0  0  0  0  0  0  0  0  0
   46.5720   31.7200   44.1830 C   0  0  0  0  0  0  0  0  0  0  0  0
   47.2520   30.7460   45.1500 C   0  0  0  0  0  0  0  0  0  0  0  0
   47.0990   31.3610   46.5150 C   0  0  1  0  0  0  0  0  0  0  0  0
   46.2990   32.6470   46.2990 C   0  0  0  0  0  0  0  0  0  0  0  0
   47.9130   33.1760   44.9920 H   0  0  0  0  0  0  0  0  0  0  0  0
   47.0910   31.7260   43.2150 H   0  0  0  0  0  0  0  0  0  0  0  0
   45.5100   31.4860   44.0730 H   0  0  0  0  0  0  0  0  0  0  0  0
   48.3040   30.6140   44.8530 H   0  0  0  0  0  0  0  0  0  0  0  0
   46.6760   29.7950   45.0760 H   0  0  0  0  0  0  0  0  0  0  0  0
   48.0930   31.5830   46.9230 H   0  0  0  0  0  0  0  0  0  0  0  0
   46.6630   33.4210   46.9820 H   0  0  0  0  0  0  0  0  0  0  0  0
   45.2210   32.4760   46.2830 H   0  0  0  0  0  0  0  0  0  0  0  0
   45.6710   35.8390   42.6880 C   0  0  0  0  0  0  0  0  0  0  0  0
   46.4070   34.7100   43.0890 C   0  0  0  0  0  0  0  0  0  0  0  0
   46.1530   34.1840   44.3470 C   0  0  0  0  0  0  0  0  0  0  0  0
   45.2060   34.7990   45.1160 N   0  0  0  0  0  0  0  0  0  0  0  0
   44.5150   35.8800   44.7090 C   0  0  0  0  0  0  0  0  0  0  0  0
   44.7420   36.4030   43.5000 N   0  0  0  0  0  0  0  0  0  0  0  0
   45.9440   36.1720   41.6870 H   0  0  0  0  0  0  0  0  0  0  0  0
   47.1530   34.2380   42.4650 H   0  0  0  0  0  0  0  0  0  0  0  0
   43.7730   36.3540   45.3200 H   0  0  0  0  0  0  0  0  0  0  0  0
   46.2860   30.5040   47.4220 C   0  0  0  0  0  0  0  0  0  0  0  0
   45.5780   29.3620   47.0480 C   0  0  0  0  0  0  0  0  0  0  0  0
   45.5200   28.9400   46.0520 H   0  0  0  0  0  0  0  0  0  0  0  0
   45.0000   28.9360   48.2330 C   0  0  0  0  0  0  0  0  0  0  0  0
   44.3760   28.0840   48.3540 H   0  0  0  0  0  0  0  0  0  0  0  0
   45.3740   29.8050   49.2140 N   0  0  0  0  0  0  0  0  0  0  0  0
   45.0780   29.7250   50.2220 H   0  0  0  0  0  0  0  0  0  0  0  0
   46.1530   30.7600   48.7370 N   0  0  0  0  0  0  0  0  0  0  0  0
  1  6  1  1  0  0  0
  1  5  1  0  0  0  0
  2  1  1  0  0  0  0
  2  3  1  0  0  0  0
  3  4  1  0  0  0  0
  4 11  1  1  0  0  0
  4 23  1  0  0  0  0
  5  4  1  0  0  0  0
  5 12  1  0  0  0  0
  7  2  1  0  0  0  0
  8  2  1  0  0  0  0
  9  3  1  0  0  0  0
 10  3  1  0  0  0  0
 13  5  1  0  0  0  0
 14 15  2  0  0  0  0
 14 19  1  0  0  0  0
 15 16  1  0  0  0  0
 16  1  1  0  0  0  0
 16 17  2  0  0  0  0
 18 17  1  0  0  0  0
 18 22  1  0  0  0  0
 19 18  2  0  0  0  0
 20 14  1  0  0  0  0
 21 15  1  0  0  0  0
 23 30  2  0  0  0  0
 24 23  1  0  0  0  0
 24 26  2  0  0  0  0
 25 24  1  0  0  0  0
 26 27  1  0  0  0  0
 26 28  1  0  0  0  0
 28 29  1  0  0  0  0
 30 28  1  0  0  0  0
M  END
>  <minimizedAffinity>
-4.55164528

>  <minimizedRMSD>
6.77500391

$$$$
