
 OpenBabel03252507543D

 43 46  0  0  1  0  0  0  0  0999 V2000
   47.0870   34.8350   42.1090 C   0  0  2  0  0  0  0  0  0  0  0  0
   46.2940   34.3290   40.9000 C   0  0  0  0  0  0  0  0  0  0  0  0
   47.4860   34.1690   39.9310 C   0  0  0  0  0  0  0  0  0  0  0  0
   48.6090   33.6710   40.7880 C   0  0  1  0  0  0  0  0  0  0  0  0
   48.1110   33.7360   42.1990 C   0  0  0  0  0  0  0  0  0  0  0  0
   47.4680   35.8280   41.8460 H   0  0  0  0  0  0  0  0  0  0  0  0
   45.5910   35.0800   40.5310 H   0  0  0  0  0  0  0  0  0  0  0  0
   45.8750   33.3350   41.1060 H   0  0  0  0  0  0  0  0  0  0  0  0
   47.7010   35.2090   39.5520 H   0  0  0  0  0  0  0  0  0  0  0  0
   47.2490   33.4870   39.1050 H   0  0  0  0  0  0  0  0  0  0  0  0
   49.4990   34.3590   40.7290 H   0  0  0  0  0  0  0  0  0  0  0  0
   47.5940   32.8120   42.4450 H   0  0  0  0  0  0  0  0  0  0  0  0
   48.9170   34.0040   42.9130 H   0  0  0  0  0  0  0  0  0  0  0  0
   44.5210   35.8400   44.6770 C   0  0  0  0  0  0  0  0  0  0  0  0
   45.2500   35.8750   43.4940 C   0  0  0  0  0  0  0  0  0  0  0  0
   46.2200   34.8940   43.3220 C   0  0  0  0  0  0  0  0  0  0  0  0
   46.4330   33.9260   44.3110 N   0  0  0  0  0  0  0  0  0  0  0  0
   45.6880   33.9450   45.4490 C   0  0  0  0  0  0  0  0  0  0  0  0
   44.7360   34.8990   45.6290 N   0  0  0  0  0  0  0  0  0  0  0  0
   43.7570   36.5920   44.8410 H   0  0  0  0  0  0  0  0  0  0  0  0
   45.1010   36.6120   42.7180 H   0  0  0  0  0  0  0  0  0  0  0  0
   45.8550   33.1960   46.2100 H   0  0  0  0  0  0  0  0  0  0  0  0
   49.0240   32.2440   40.5200 C   0  0  2  0  0  0  0  0  0  0  0  0
   49.7260   31.5670   41.5990 C   0  0  0  0  0  0  0  0  0  0  0  0
   50.4240   31.8760   40.3120 C   0  0  1  0  0  0  0  0  0  0  0  0
   48.2700   31.6740   39.9460 H   0  0  0  0  0  0  0  0  0  0  0  0
   50.0950   32.1880   42.4650 H   0  0  0  0  0  0  0  0  0  0  0  0
   49.5860   30.5070   41.8910 H   0  0  0  0  0  0  0  0  0  0  0  0
   51.0930   32.7140   40.1320 H   0  0  0  0  0  0  0  0  0  0  0  0
   50.6910   30.7810   39.4530 O   0  0  0  0  0  0  0  0  0  0  0  0
   52.5130   29.8740   37.8250 O   0  0  0  0  0  0  0  0  0  0  0  0
   52.1930   31.0270   38.7410 P   0  0  1  0  0  0  0  0  0  0  0  0
   52.1630   32.4510   37.7860 O   0  0  0  0  0  0  0  0  0  0  0  0
   52.5010   33.2110   38.3010 H   0  0  0  0  0  0  0  0  0  0  0  0
   53.4450   31.2030   39.8210 O   0  0  0  0  0  0  0  0  0  0  0  0
   53.8710   30.2130   40.6900 C   0  0  0  0  0  0  0  0  0  0  0  0
   55.0060   29.3990   40.7310 C   0  0  0  0  0  0  0  0  0  0  0  0
   55.7660   29.4840   39.9720 H   0  0  0  0  0  0  0  0  0  0  0  0
   54.9140   28.5800   41.8300 C   0  0  0  0  0  0  0  0  0  0  0  0
   55.6580   27.8410   42.1110 H   0  0  0  0  0  0  0  0  0  0  0  0
   53.7520   28.8940   42.4350 N   0  0  0  0  0  0  0  0  0  0  0  0
   53.4440   28.4070   43.3050 H   0  0  0  0  0  0  0  0  0  0  0  0
   53.1240   29.8580   41.7730 N   0  0  0  0  0  0  0  0  0  0  0  0
  1  6  1  6  0  0  0
  1  5  1  0  0  0  0
  1 16  1  0  0  0  0
  2  8  1  0  0  0  0
  2  1  1  0  0  0  0
  3  4  1  0  0  0  0
  3  2  1  0  0  0  0
  4 11  1  6  0  0  0
  4  5  1  0  0  0  0
  5 12  1  0  0  0  0
  5 13  1  0  0  0  0
  7  2  1  0  0  0  0
  9  3  1  0  0  0  0
 10  3  1  0  0  0  0
 14 20  1  0  0  0  0
 14 19  1  0  0  0  0
 15 14  2  0  0  0  0
 16 15  1  0  0  0  0
 16 17  2  0  0  0  0
 17 18  1  0  0  0  0
 18 19  2  0  0  0  0
 18 22  1  0  0  0  0
 21 15  1  0  0  0  0
 23 26  1  6  0  0  0
 23  4  1  0  0  0  0
 23 24  1  0  0  0  0
 24 28  1  0  0  0  0
 24 27  1  0  0  0  0
 25 29  1  1  0  0  0
 25 23  1  0  0  0  0
 25 24  1  0  0  0  0
 30 25  1  0  0  0  0
 32 31  2  6  0  0  0
 32 30  1  0  0  0  0
 32 35  1  0  0  0  0
 33 34  1  0  0  0  0
 33 32  1  0  0  0  0
 35 36  1  0  0  0  0
 36 37  1  0  0  0  0
 36 43  2  0  0  0  0
 37 39  2  0  0  0  0
 38 37  1  0  0  0  0
 39 40  1  0  0  0  0
 39 41  1  0  0  0  0
 41 42  1  0  0  0  0
 43 41  1  0  0  0  0
M  END
>  <minimizedAffinity>
-5.17572689

>  <minimizedRMSD>
0.88000232

$$$$
