
 OpenBabel03252500463D

 25 27  0  0  0  0  0  0  0  0999 V2000
   45.3440   34.2750   44.9880 C   0  0  0  0  0  0  0  0  0  0  0  0
   45.1740   33.6570   43.7460 C   0  0  0  0  0  0  0  0  0  0  0  0
   45.6460   32.3690   43.5150 C   0  0  0  0  0  0  0  0  0  0  0  0
   46.2770   31.7450   44.5560 N   0  0  0  0  0  0  0  0  0  0  0  0
   46.4370   32.3500   45.7560 C   0  0  0  0  0  0  0  0  0  0  0  0
   45.9800   33.5970   45.9780 N   0  0  0  0  0  0  0  0  0  0  0  0
   44.9940   35.2710   45.2100 H   0  0  0  0  0  0  0  0  0  0  0  0
   45.5200   31.8840   42.5580 H   0  0  0  0  0  0  0  0  0  0  0  0
   47.1180   31.6480   46.8400 C   0  0  0  0  0  0  0  0  0  0  0  0
   47.3030   30.2950   46.8160 C   0  0  0  0  0  0  0  0  0  0  0  0
   47.9350   29.5980   47.8100 C   0  0  0  0  0  0  0  0  0  0  0  0
   48.3890   30.3340   48.8650 N   0  0  0  0  0  0  0  0  0  0  0  0
   48.2060   31.6740   48.8890 C   0  0  0  0  0  0  0  0  0  0  0  0
   47.5800   32.3750   47.9070 N   0  0  0  0  0  0  0  0  0  0  0  0
   46.9520   29.6840   45.9880 H   0  0  0  0  0  0  0  0  0  0  0  0
   48.0890   28.5310   47.8060 H   0  0  0  0  0  0  0  0  0  0  0  0
   48.5500   32.2970   49.7070 H   0  0  0  0  0  0  0  0  0  0  0  0
   44.4870   34.4050   42.6980 C   0  0  0  0  0  0  0  0  0  0  0  0
   44.3120   34.0030   41.3890 C   0  0  0  0  0  0  0  0  0  0  0  0
   44.6720   33.0780   41.0000 H   0  0  0  0  0  0  0  0  0  0  0  0
   43.6030   35.0630   40.8120 C   0  0  0  0  0  0  0  0  0  0  0  0
   43.3150   35.0290   39.7660 H   0  0  0  0  0  0  0  0  0  0  0  0
   43.3780   36.0320   41.7410 N   0  0  0  0  0  0  0  0  0  0  0  0
   42.8530   36.8830   41.4310 H   0  0  0  0  0  0  0  0  0  0  0  0
   43.9280   35.6110   42.8900 N   0  0  0  0  0  0  0  0  0  0  0  0
  1  7  1  0  0  0  0
  1  6  1  0  0  0  0
  2  1  2  0  0  0  0
  3  2  1  0  0  0  0
  3  4  2  0  0  0  0
  4  5  1  0  0  0  0
  5  6  2  0  0  0  0
  5  9  1  0  0  0  0
  8  3  1  0  0  0  0
  9 14  1  0  0  0  0
 10  9  2  0  0  0  0
 10 11  1  0  0  0  0
 11 12  2  0  0  0  0
 12 13  1  0  0  0  0
 13 17  1  0  0  0  0
 14 13  2  0  0  0  0
 15 10  1  0  0  0  0
 16 11  1  0  0  0  0
 18 25  2  0  0  0  0
 18  2  1  0  0  0  0
 19 18  1  0  0  0  0
 20 19  1  0  0  0  0
 21 19  2  0  0  0  0
 21 23  1  0  0  0  0
 22 21  1  0  0  0  0
 23 25  1  0  0  0  0
 24 23  1  0  0  0  0
M  END
>  <minimizedAffinity>
-4.50324011

>  <minimizedRMSD>
2.26527667

$$$$
