
 OpenBabel03252508203D

 33 35  0  0  0  0  0  0  0  0999 V2000
   41.5580   34.5790   39.5730 C   0  0  0  0  0  0  0  0  0  0  0  0
   42.1080   35.5660   38.7590 C   0  0  0  0  0  0  0  0  0  0  0  0
   41.5340   36.0790   37.6010 C   0  0  0  0  0  0  0  0  0  0  0  0
   40.3090   35.5280   37.2710 C   0  0  0  0  0  0  0  0  0  0  0  0
   39.7470   34.5540   38.0560 C   0  0  0  0  0  0  0  0  0  0  0  0
   40.3320   34.0540   39.2080 C   0  0  0  0  0  0  0  0  0  0  0  0
   43.0740   35.9450   39.0930 H   0  0  0  0  0  0  0  0  0  0  0  0
   42.0920   36.8380   37.0920 H   0  0  0  0  0  0  0  0  0  0  0  0
   39.8570   35.9200   36.3750 H   0  0  0  0  0  0  0  0  0  0  0  0
   38.7900   34.2350   37.6530 H   0  0  0  0  0  0  0  0  0  0  0  0
   39.5520   33.0250   39.8740 C   0  0  0  0  0  0  0  0  0  0  0  0
   39.6400   31.6640   39.9840 C   0  0  0  0  0  0  0  0  0  0  0  0
   40.3870   31.0390   39.5350 H   0  0  0  0  0  0  0  0  0  0  0  0
   38.6740   31.1160   40.7520 C   0  0  0  0  0  0  0  0  0  0  0  0
   38.4890   30.0930   41.0150 H   0  0  0  0  0  0  0  0  0  0  0  0
   37.9580   32.1790   41.1370 N   0  0  0  0  0  0  0  0  0  0  0  0
   37.0990   32.2380   41.7510 H   0  0  0  0  0  0  0  0  0  0  0  0
   38.4820   33.2630   40.6210 N   0  0  0  0  0  0  0  0  0  0  0  0
   42.2150   34.0650   40.7690 C   0  0  0  0  0  0  0  0  0  0  0  0
   43.1740   33.6100   40.4380 H   0  0  0  0  0  0  0  0  0  0  0  0
   41.6010   33.3560   41.3450 H   0  0  0  0  0  0  0  0  0  0  0  0
   42.6820   35.2100   41.6920 C   0  0  0  0  0  0  0  0  0  0  0  0
   42.6470   36.1090   41.0670 H   0  0  0  0  0  0  0  0  0  0  0  0
   42.0540   35.2560   42.5800 H   0  0  0  0  0  0  0  0  0  0  0  0
   46.3480   34.3260   41.4210 C   0  0  0  0  0  0  0  0  0  0  0  0
   44.9970   34.5570   41.0360 C   0  0  0  0  0  0  0  0  0  0  0  0
   44.1110   34.9470   42.0270 C   0  0  0  0  0  0  0  0  0  0  0  0
   44.6130   35.0790   43.3000 N   0  0  0  0  0  0  0  0  0  0  0  0
   45.8760   34.8570   43.6300 C   0  0  0  0  0  0  0  0  0  0  0  0
   46.7530   34.4790   42.6960 N   0  0  0  0  0  0  0  0  0  0  0  0
   47.0190   34.0220   40.6260 H   0  0  0  0  0  0  0  0  0  0  0  0
   44.6930   34.4280   40.0080 H   0  0  0  0  0  0  0  0  0  0  0  0
   46.2280   34.9720   44.6440 H   0  0  0  0  0  0  0  0  0  0  0  0
  1 19  1  0  0  0  0
  2  7  1  0  0  0  0
  2  1  2  0  0  0  0
  3  2  1  0  0  0  0
  4  3  2  0  0  0  0
  4  5  1  0  0  0  0
  5  6  2  0  0  0  0
  6  1  1  0  0  0  0
  6 11  1  0  0  0  0
  8  3  1  0  0  0  0
  9  4  1  0  0  0  0
 10  5  1  0  0  0  0
 11 12  1  0  0  0  0
 11 18  2  0  0  0  0
 12 14  2  0  0  0  0
 13 12  1  0  0  0  0
 14 15  1  0  0  0  0
 14 16  1  0  0  0  0
 16 17  1  0  0  0  0
 18 16  1  0  0  0  0
 19 21  1  0  0  0  0
 19 22  1  0  0  0  0
 20 19  1  0  0  0  0
 22 27  1  0  0  0  0
 22 24  1  0  0  0  0
 23 22  1  0  0  0  0
 25 30  1  0  0  0  0
 26 25  2  0  0  0  0
 26 27  1  0  0  0  0
 27 28  2  0  0  0  0
 28 29  1  0  0  0  0
 29 33  1  0  0  0  0
 30 29  2  0  0  0  0
 31 25  1  0  0  0  0
 32 26  1  0  0  0  0
M  END
>  <minimizedAffinity>
-5.46915722

>  <minimizedRMSD>
6.98319721

$$$$
