
 OpenBabel03252508193D

 33 35  0  0  0  0  0  0  0  0999 V2000
   41.7460   34.2930   40.4830 C   0  0  0  0  0  0  0  0  0  0  0  0
   40.9070   35.3410   40.1120 C   0  0  0  0  0  0  0  0  0  0  0  0
   39.5240   35.2710   39.9870 C   0  0  0  0  0  0  0  0  0  0  0  0
   38.9810   34.0300   40.2680 C   0  0  0  0  0  0  0  0  0  0  0  0
   39.7860   32.9830   40.6360 C   0  0  0  0  0  0  0  0  0  0  0  0
   41.1630   33.0690   40.7560 C   0  0  0  0  0  0  0  0  0  0  0  0
   41.4180   36.2830   39.9090 H   0  0  0  0  0  0  0  0  0  0  0  0
   39.0290   36.1740   39.6910 H   0  0  0  0  0  0  0  0  0  0  0  0
   37.9100   33.9670   40.1740 H   0  0  0  0  0  0  0  0  0  0  0  0
   39.1990   32.0880   40.8180 H   0  0  0  0  0  0  0  0  0  0  0  0
   41.8060   31.8290   41.1560 C   0  0  0  0  0  0  0  0  0  0  0  0
   42.0690   31.2190   42.3520 C   0  0  0  0  0  0  0  0  0  0  0  0
   41.8240   31.5970   43.3240 H   0  0  0  0  0  0  0  0  0  0  0  0
   42.6870   30.0220   42.2290 C   0  0  0  0  0  0  0  0  0  0  0  0
   43.0120   29.3280   42.9750 H   0  0  0  0  0  0  0  0  0  0  0  0
   42.8110   29.8850   40.9040 N   0  0  0  0  0  0  0  0  0  0  0  0
   43.2340   29.1020   40.3350 H   0  0  0  0  0  0  0  0  0  0  0  0
   42.2980   30.9350   40.3090 N   0  0  0  0  0  0  0  0  0  0  0  0
   43.1960   34.4200   40.5800 C   0  0  0  0  0  0  0  0  0  0  0  0
   43.5630   34.6860   39.5650 H   0  0  0  0  0  0  0  0  0  0  0  0
   43.6960   33.5230   40.9750 H   0  0  0  0  0  0  0  0  0  0  0  0
   43.6000   35.6470   41.4230 C   0  0  0  0  0  0  0  0  0  0  0  0
   44.4100   36.1240   40.8580 H   0  0  0  0  0  0  0  0  0  0  0  0
   42.7360   36.2860   41.5950 H   0  0  0  0  0  0  0  0  0  0  0  0
   45.2780   33.4340   43.9880 C   0  0  0  0  0  0  0  0  0  0  0  0
   44.7390   33.8640   42.7430 C   0  0  0  0  0  0  0  0  0  0  0  0
   44.1800   35.1310   42.6970 C   0  0  0  0  0  0  0  0  0  0  0  0
   44.1950   35.8670   43.8580 N   0  0  0  0  0  0  0  0  0  0  0  0
   44.7050   35.4400   45.0030 C   0  0  0  0  0  0  0  0  0  0  0  0
   45.2500   34.2230   45.0780 N   0  0  0  0  0  0  0  0  0  0  0  0
   45.7090   32.4390   43.9960 H   0  0  0  0  0  0  0  0  0  0  0  0
   44.7720   33.2160   41.8800 H   0  0  0  0  0  0  0  0  0  0  0  0
   44.6960   36.0510   45.8930 H   0  0  0  0  0  0  0  0  0  0  0  0
  1 19  1  0  0  0  0
  1  6  1  0  0  0  0
  2  1  2  0  0  0  0
  3  2  1  0  0  0  0
  3  4  2  0  0  0  0
  4  5  1  0  0  0  0
  5  6  2  0  0  0  0
  5 10  1  0  0  0  0
  6 11  1  0  0  0  0
  7  2  1  0  0  0  0
  8  3  1  0  0  0  0
  9  4  1  0  0  0  0
 11 12  1  0  0  0  0
 12 13  1  0  0  0  0
 14 12  2  0  0  0  0
 14 15  1  0  0  0  0
 16 14  1  0  0  0  0
 17 16  1  0  0  0  0
 18 16  1  0  0  0  0
 18 11  2  0  0  0  0
 19 21  1  0  0  0  0
 19 22  1  0  0  0  0
 20 19  1  0  0  0  0
 22 24  1  0  0  0  0
 22 27  1  0  0  0  0
 23 22  1  0  0  0  0
 25 31  1  0  0  0  0
 25 30  1  0  0  0  0
 26 25  2  0  0  0  0
 27 26  1  0  0  0  0
 27 28  2  0  0  0  0
 28 29  1  0  0  0  0
 29 30  2  0  0  0  0
 29 33  1  0  0  0  0
 32 26  1  0  0  0  0
M  END
>  <minimizedAffinity>
-4.68096447

>  <minimizedRMSD>
6.43397141

$$$$
