
 OpenBabel03252508203D

 33 35  0  0  0  0  0  0  0  0999 V2000
   42.6090   30.8140   37.4360 C   0  0  0  0  0  0  0  0  0  0  0  0
   41.5470   30.1260   36.8550 C   0  0  0  0  0  0  0  0  0  0  0  0
   41.4930   29.6740   35.5400 C   0  0  0  0  0  0  0  0  0  0  0  0
   42.6170   29.9570   34.7860 C   0  0  0  0  0  0  0  0  0  0  0  0
   43.6760   30.6330   35.3360 C   0  0  0  0  0  0  0  0  0  0  0  0
   43.7150   31.0760   36.6480 C   0  0  0  0  0  0  0  0  0  0  0  0
   40.7030   29.9460   37.5200 H   0  0  0  0  0  0  0  0  0  0  0  0
   40.5980   29.1610   35.2530 H   0  0  0  0  0  0  0  0  0  0  0  0
   42.5830   29.6110   33.7660 H   0  0  0  0  0  0  0  0  0  0  0  0
   44.4700   30.7700   34.6080 H   0  0  0  0  0  0  0  0  0  0  0  0
   44.9390   31.7710   37.0070 C   0  0  0  0  0  0  0  0  0  0  0  0
   45.3200   33.0830   37.0800 C   0  0  0  0  0  0  0  0  0  0  0  0
   44.7100   33.9330   36.8500 H   0  0  0  0  0  0  0  0  0  0  0  0
   46.5930   33.2570   37.5020 C   0  0  0  0  0  0  0  0  0  0  0  0
   47.1580   34.1550   37.6530 H   0  0  0  0  0  0  0  0  0  0  0  0
   47.0180   32.0040   37.6980 N   0  0  0  0  0  0  0  0  0  0  0  0
   47.9550   31.6460   38.0300 H   0  0  0  0  0  0  0  0  0  0  0  0
   46.0510   31.1690   37.4080 N   0  0  0  0  0  0  0  0  0  0  0  0
   42.6040   31.2800   38.8180 C   0  0  0  0  0  0  0  0  0  0  0  0
   43.1780   32.2320   38.8370 H   0  0  0  0  0  0  0  0  0  0  0  0
   43.0000   30.5470   39.5370 H   0  0  0  0  0  0  0  0  0  0  0  0
   41.1940   31.7230   39.2600 C   0  0  0  0  0  0  0  0  0  0  0  0
   40.5100   31.2270   38.5610 H   0  0  0  0  0  0  0  0  0  0  0  0
   41.0300   31.4690   40.3050 H   0  0  0  0  0  0  0  0  0  0  0  0
   40.1320   35.0990   37.9310 C   0  0  0  0  0  0  0  0  0  0  0  0
   40.1730   33.6890   38.1140 C   0  0  0  0  0  0  0  0  0  0  0  0
   41.1000   33.1920   39.0160 C   0  0  0  0  0  0  0  0  0  0  0  0
   41.9020   34.1040   39.6590 N   0  0  0  0  0  0  0  0  0  0  0  0
   41.8410   35.4130   39.4690 C   0  0  0  0  0  0  0  0  0  0  0  0
   40.9580   35.9220   38.6050 N   0  0  0  0  0  0  0  0  0  0  0  0
   39.3980   35.4610   37.2200 H   0  0  0  0  0  0  0  0  0  0  0  0
   39.5010   33.0470   37.5640 H   0  0  0  0  0  0  0  0  0  0  0  0
   42.4920   36.0960   39.9950 H   0  0  0  0  0  0  0  0  0  0  0  0
  1 19  1  0  0  0  0
  2  1  1  0  0  0  0
  2  7  1  0  0  0  0
  3  2  2  0  0  0  0
  4  5  2  0  0  0  0
  4  3  1  0  0  0  0
  5  6  1  0  0  0  0
  6 11  1  0  0  0  0
  6  1  2  0  0  0  0
  8  3  1  0  0  0  0
  9  4  1  0  0  0  0
 10  5  1  0  0  0  0
 11 12  1  0  0  0  0
 11 18  2  0  0  0  0
 12 14  2  0  0  0  0
 13 12  1  0  0  0  0
 14 15  1  0  0  0  0
 14 16  1  0  0  0  0
 16 17  1  0  0  0  0
 18 16  1  0  0  0  0
 19 20  1  0  0  0  0
 19 22  1  0  0  0  0
 19 21  1  0  0  0  0
 22 24  1  0  0  0  0
 23 22  1  0  0  0  0
 25 26  2  0  0  0  0
 25 30  1  0  0  0  0
 26 27  1  0  0  0  0
 27 22  1  0  0  0  0
 27 28  2  0  0  0  0
 29 28  1  0  0  0  0
 29 33  1  0  0  0  0
 30 29  2  0  0  0  0
 31 25  1  0  0  0  0
 32 26  1  0  0  0  0
M  END
>  <minimizedAffinity>
-3.23574519

>  <minimizedRMSD>
6.78427792

$$$$
