
 OpenBabel03252508203D

 33 35  0  0  0  0  0  0  0  0999 V2000
   45.0650   31.3890   37.4740 C   0  0  0  0  0  0  0  0  0  0  0  0
   44.1110   30.4780   37.9200 C   0  0  0  0  0  0  0  0  0  0  0  0
   44.0970   29.1140   37.6450 C   0  0  0  0  0  0  0  0  0  0  0  0
   45.1450   28.6730   36.8560 C   0  0  0  0  0  0  0  0  0  0  0  0
   46.0960   29.5510   36.4050 C   0  0  0  0  0  0  0  0  0  0  0  0
   46.0960   30.9070   36.6880 C   0  0  0  0  0  0  0  0  0  0  0  0
   43.3220   30.9100   38.5360 H   0  0  0  0  0  0  0  0  0  0  0  0
   43.2880   28.5550   38.0690 H   0  0  0  0  0  0  0  0  0  0  0  0
   45.1410   27.6190   36.6390 H   0  0  0  0  0  0  0  0  0  0  0  0
   46.8410   29.0400   35.8020 H   0  0  0  0  0  0  0  0  0  0  0  0
   47.2040   31.6400   36.0990 C   0  0  0  0  0  0  0  0  0  0  0  0
   47.4720   32.1550   34.8600 C   0  0  0  0  0  0  0  0  0  0  0  0
   46.8380   32.0960   33.9980 H   0  0  0  0  0  0  0  0  0  0  0  0
   48.6580   32.8000   34.7840 C   0  0  0  0  0  0  0  0  0  0  0  0
   49.1280   33.2960   33.9580 H   0  0  0  0  0  0  0  0  0  0  0  0
   49.1430   32.6820   36.0250 N   0  0  0  0  0  0  0  0  0  0  0  0
   50.0500   33.0330   36.4390 H   0  0  0  0  0  0  0  0  0  0  0  0
   48.2910   32.0120   36.7610 N   0  0  0  0  0  0  0  0  0  0  0  0
   45.0200   32.8140   37.7790 C   0  0  0  0  0  0  0  0  0  0  0  0
   45.0040   33.3500   36.8050 H   0  0  0  0  0  0  0  0  0  0  0  0
   45.8420   33.1580   38.4240 H   0  0  0  0  0  0  0  0  0  0  0  0
   43.6700   33.2140   38.4100 C   0  0  0  0  0  0  0  0  0  0  0  0
   43.2330   33.9350   37.7100 H   0  0  0  0  0  0  0  0  0  0  0  0
   43.0590   32.3300   38.5830 H   0  0  0  0  0  0  0  0  0  0  0  0
   45.3990   34.4330   41.5430 C   0  0  0  0  0  0  0  0  0  0  0  0
   45.1660   33.7020   40.3440 C   0  0  0  0  0  0  0  0  0  0  0  0
   43.9760   33.9420   39.6750 C   0  0  0  0  0  0  0  0  0  0  0  0
   43.1210   34.8660   40.2260 N   0  0  0  0  0  0  0  0  0  0  0  0
   43.3650   35.5320   41.3450 C   0  0  0  0  0  0  0  0  0  0  0  0
   44.5030   35.3220   42.0120 N   0  0  0  0  0  0  0  0  0  0  0  0
   46.3370   34.2260   42.0460 H   0  0  0  0  0  0  0  0  0  0  0  0
   45.8970   32.9940   39.9860 H   0  0  0  0  0  0  0  0  0  0  0  0
   42.6650   36.2500   41.7440 H   0  0  0  0  0  0  0  0  0  0  0  0
  1 19  1  0  0  0  0
  1  2  1  0  0  0  0
  2  7  1  0  0  0  0
  3  2  2  0  0  0  0
  3  8  1  0  0  0  0
  4  3  1  0  0  0  0
  5  6  1  0  0  0  0
  5  4  2  0  0  0  0
  6  1  2  0  0  0  0
  9  4  1  0  0  0  0
 10  5  1  0  0  0  0
 11  6  1  0  0  0  0
 11 18  2  0  0  0  0
 12 11  1  0  0  0  0
 13 12  1  0  0  0  0
 14 12  2  0  0  0  0
 14 16  1  0  0  0  0
 15 14  1  0  0  0  0
 16 17  1  0  0  0  0
 16 18  1  0  0  0  0
 19 22  1  0  0  0  0
 19 21  1  0  0  0  0
 20 19  1  0  0  0  0
 22 24  1  0  0  0  0
 22 27  1  0  0  0  0
 23 22  1  0  0  0  0
 25 30  1  0  0  0  0
 25 31  1  0  0  0  0
 26 25  2  0  0  0  0
 27 28  2  0  0  0  0
 27 26  1  0  0  0  0
 28 29  1  0  0  0  0
 29 33  1  0  0  0  0
 29 30  2  0  0  0  0
 32 26  1  0  0  0  0
M  END
>  <minimizedAffinity>
-3.11942577

>  <minimizedRMSD>
6.95367289

$$$$
