
 OpenBabel03252505293D

 26 27  0  0  0  0  0  0  0  0999 V2000
   45.0060   34.6650   45.6620 O   0  0  0  0  0  0  0  0  0  0  0  0
   45.5310   33.7510   44.5680 P   0  0  1  0  0  0  0  0  0  0  0  0
   44.3540   33.4140   43.4040 O   0  0  0  0  0  0  0  0  0  0  0  0
   44.0910   34.1810   42.8600 H   0  0  0  0  0  0  0  0  0  0  0  0
   46.8680   34.5130   43.8630 O   0  0  0  0  0  0  0  0  0  0  0  0
   46.9510   33.4200   40.4870 C   0  0  0  0  0  0  0  0  0  0  0  0
   47.9020   34.2620   39.8660 C   0  0  0  0  0  0  0  0  0  0  0  0
   48.5080   35.2240   40.6890 C   0  0  0  0  0  0  0  0  0  0  0  0
   48.1490   35.2880   42.0100 N   0  0  0  0  0  0  0  0  0  0  0  0
   47.2350   34.4570   42.5370 C   0  0  0  0  0  0  0  0  0  0  0  0
   46.6470   33.5390   41.7880 N   0  0  0  0  0  0  0  0  0  0  0  0
   46.4720   32.6680   39.8570 H   0  0  0  0  0  0  0  0  0  0  0  0
   48.1380   34.1580   38.8240 H   0  0  0  0  0  0  0  0  0  0  0  0
   49.2430   35.8960   40.2760 H   0  0  0  0  0  0  0  0  0  0  0  0
   45.9410   32.2790   45.2850 O   0  0  0  0  0  0  0  0  0  0  0  0
   46.8130   32.5370   46.3180 C   0  0  0  0  0  0  0  0  0  0  0  0
   46.9100   33.6320   46.4250 H   0  0  0  0  0  0  0  0  0  0  0  0
   47.8490   32.1920   46.0350 H   0  0  0  0  0  0  0  0  0  0  0  0
   46.4000   31.9680   47.6210 C   0  0  0  0  0  0  0  0  0  0  0  0
   45.1560   31.9850   48.2330 C   0  0  0  0  0  0  0  0  0  0  0  0
   44.2680   32.4540   47.7910 H   0  0  0  0  0  0  0  0  0  0  0  0
   45.3270   31.3160   49.4260 C   0  0  0  0  0  0  0  0  0  0  0  0
   44.5260   31.1690   50.1230 H   0  0  0  0  0  0  0  0  0  0  0  0
   46.6020   30.9190   49.5280 N   0  0  0  0  0  0  0  0  0  0  0  0
   47.0280   30.3930   50.3200 H   0  0  0  0  0  0  0  0  0  0  0  0
   47.2550   31.3060   48.4500 N   0  0  0  0  0  0  0  0  0  0  0  0
  2 15  1  0  0  0  0
  2  1  2  1  0  0  0
  3  2  1  0  0  0  0
  4  3  1  0  0  0  0
  5  2  1  0  0  0  0
  6 11  1  0  0  0  0
  7  6  2  0  0  0  0
  7  8  1  0  0  0  0
  8  9  2  0  0  0  0
  9 10  1  0  0  0  0
 10  5  1  0  0  0  0
 11 10  2  0  0  0  0
 12  6  1  0  0  0  0
 13  7  1  0  0  0  0
 14  8  1  0  0  0  0
 15 16  1  0  0  0  0
 16 17  1  0  0  0  0
 16 19  1  0  0  0  0
 18 16  1  0  0  0  0
 19 20  1  0  0  0  0
 19 26  2  0  0  0  0
 20 22  2  0  0  0  0
 21 20  1  0  0  0  0
 22 24  1  0  0  0  0
 22 23  1  0  0  0  0
 24 25  1  0  0  0  0
 26 24  1  0  0  0  0
M  END
>  <minimizedAffinity>
-4.89337301

>  <minimizedRMSD>
3.5939889

$$$$
