
 OpenBabel03252508203D

 33 35  0  0  0  0  0  0  0  0999 V2000
   45.7210   34.2440   40.9660 C   0  0  0  0  0  0  0  0  0  0  0  0
   46.5820   33.9550   39.9100 C   0  0  0  0  0  0  0  0  0  0  0  0
   47.9400   34.2500   39.8640 C   0  0  0  0  0  0  0  0  0  0  0  0
   48.4320   34.8860   40.9900 C   0  0  0  0  0  0  0  0  0  0  0  0
   47.6040   35.1800   42.0430 C   0  0  0  0  0  0  0  0  0  0  0  0
   46.2530   34.8780   42.0740 C   0  0  0  0  0  0  0  0  0  0  0  0
   46.1120   33.4550   39.0630 H   0  0  0  0  0  0  0  0  0  0  0  0
   48.4580   33.9580   38.9730 H   0  0  0  0  0  0  0  0  0  0  0  0
   49.4830   35.1180   40.9620 H   0  0  0  0  0  0  0  0  0  0  0  0
   48.1510   35.6750   42.8400 H   0  0  0  0  0  0  0  0  0  0  0  0
   45.5770   35.2890   43.2930 C   0  0  0  0  0  0  0  0  0  0  0  0
   45.2000   34.6580   44.4480 C   0  0  0  0  0  0  0  0  0  0  0  0
   45.3480   33.6240   44.6820 H   0  0  0  0  0  0  0  0  0  0  0  0
   44.6010   35.4760   45.3440 C   0  0  0  0  0  0  0  0  0  0  0  0
   44.2070   35.2700   46.3180 H   0  0  0  0  0  0  0  0  0  0  0  0
   44.6080   36.6600   44.7190 N   0  0  0  0  0  0  0  0  0  0  0  0
   44.2440   37.6000   45.0360 H   0  0  0  0  0  0  0  0  0  0  0  0
   45.1740   36.5260   43.5450 N   0  0  0  0  0  0  0  0  0  0  0  0
   44.2980   33.9260   40.9520 C   0  0  0  0  0  0  0  0  0  0  0  0
   43.9780   33.8390   42.0140 H   0  0  0  0  0  0  0  0  0  0  0  0
   44.0480   33.0240   40.3730 H   0  0  0  0  0  0  0  0  0  0  0  0
   43.4590   35.1150   40.4390 C   0  0  0  0  0  0  0  0  0  0  0  0
   43.6440   35.9220   41.1570 H   0  0  0  0  0  0  0  0  0  0  0  0
   43.7340   35.3550   39.4140 H   0  0  0  0  0  0  0  0  0  0  0  0
   39.6910   35.0770   40.1350 C   0  0  0  0  0  0  0  0  0  0  0  0
   41.0390   35.5090   39.9860 C   0  0  0  0  0  0  0  0  0  0  0  0
   42.0250   34.7230   40.5600 C   0  0  0  0  0  0  0  0  0  0  0  0
   41.6170   33.5910   41.2260 N   0  0  0  0  0  0  0  0  0  0  0  0
   40.3540   33.2140   41.3480 C   0  0  0  0  0  0  0  0  0  0  0  0
   39.3810   33.9510   40.8050 N   0  0  0  0  0  0  0  0  0  0  0  0
   38.9400   35.7100   39.6750 H   0  0  0  0  0  0  0  0  0  0  0  0
   41.2650   36.4150   39.4440 H   0  0  0  0  0  0  0  0  0  0  0  0
   40.0770   32.3160   41.8800 H   0  0  0  0  0  0  0  0  0  0  0  0
  1  6  1  0  0  0  0
  2  1  2  0  0  0  0
  3  2  1  0  0  0  0
  3  4  2  0  0  0  0
  4  5  1  0  0  0  0
  5  6  2  0  0  0  0
  5 10  1  0  0  0  0
  6 11  1  0  0  0  0
  7  2  1  0  0  0  0
  8  3  1  0  0  0  0
  9  4  1  0  0  0  0
 11 18  2  0  0  0  0
 11 12  1  0  0  0  0
 12 13  1  0  0  0  0
 12 14  2  0  0  0  0
 14 15  1  0  0  0  0
 16 17  1  0  0  0  0
 16 14  1  0  0  0  0
 18 16  1  0  0  0  0
 19  1  1  0  0  0  0
 19 20  1  0  0  0  0
 21 19  1  0  0  0  0
 22 27  1  0  0  0  0
 22 19  1  0  0  0  0
 22 23  1  0  0  0  0
 24 22  1  0  0  0  0
 25 30  1  0  0  0  0
 26 25  2  0  0  0  0
 26 27  1  0  0  0  0
 27 28  2  0  0  0  0
 28 29  1  0  0  0  0
 29 33  1  0  0  0  0
 30 29  2  0  0  0  0
 31 25  1  0  0  0  0
 32 26  1  0  0  0  0
M  END
>  <minimizedAffinity>
-6.05630207

>  <minimizedRMSD>
1.10510075

$$$$
