
 OpenBabel03252500473D

 25 27  0  0  0  0  0  0  0  0999 V2000
   39.5180   30.0870   40.7980 C   0  0  0  0  0  0  0  0  0  0  0  0
   38.2730   30.6660   41.0630 C   0  0  0  0  0  0  0  0  0  0  0  0
   37.2830   29.9620   41.7410 C   0  0  0  0  0  0  0  0  0  0  0  0
   37.5880   28.6870   42.1320 N   0  0  0  0  0  0  0  0  0  0  0  0
   38.7960   28.1330   41.8730 C   0  0  0  0  0  0  0  0  0  0  0  0
   39.7530   28.8160   41.2160 N   0  0  0  0  0  0  0  0  0  0  0  0
   40.3130   30.5970   40.2770 H   0  0  0  0  0  0  0  0  0  0  0  0
   36.3190   30.4010   41.9500 H   0  0  0  0  0  0  0  0  0  0  0  0
   39.0790   26.7680   42.3070 C   0  0  0  0  0  0  0  0  0  0  0  0
   38.2620   25.7250   41.9790 C   0  0  0  0  0  0  0  0  0  0  0  0
   38.4900   24.4320   42.3640 C   0  0  0  0  0  0  0  0  0  0  0  0
   39.6070   24.2180   43.1190 N   0  0  0  0  0  0  0  0  0  0  0  0
   40.4170   25.2510   43.4440 C   0  0  0  0  0  0  0  0  0  0  0  0
   40.1990   26.5380   43.0660 N   0  0  0  0  0  0  0  0  0  0  0  0
   37.3660   25.8670   41.3790 H   0  0  0  0  0  0  0  0  0  0  0  0
   37.8550   23.5980   42.1130 H   0  0  0  0  0  0  0  0  0  0  0  0
   41.3140   25.1270   44.0400 H   0  0  0  0  0  0  0  0  0  0  0  0
   38.0430   32.0330   40.6060 C   0  0  0  0  0  0  0  0  0  0  0  0
   38.9090   33.0980   40.7480 C   0  0  0  0  0  0  0  0  0  0  0  0
   39.8630   33.0280   41.2190 H   0  0  0  0  0  0  0  0  0  0  0  0
   38.2230   34.1610   40.1510 C   0  0  0  0  0  0  0  0  0  0  0  0
   38.6680   35.1510   40.1090 H   0  0  0  0  0  0  0  0  0  0  0  0
   37.0180   33.7340   39.6850 N   0  0  0  0  0  0  0  0  0  0  0  0
   36.4060   34.4410   39.2140 H   0  0  0  0  0  0  0  0  0  0  0  0
   36.9260   32.4270   39.9740 N   0  0  0  0  0  0  0  0  0  0  0  0
  1  2  2  0  0  0  0
  1  6  1  0  0  0  0
  2  3  1  0  0  0  0
  3  8  1  0  0  0  0
  3  4  2  0  0  0  0
  5  4  1  0  0  0  0
  5  9  1  0  0  0  0
  6  5  2  0  0  0  0
  7  1  1  0  0  0  0
  9 14  1  0  0  0  0
 10  9  2  0  0  0  0
 10 11  1  0  0  0  0
 11 12  2  0  0  0  0
 12 13  1  0  0  0  0
 13 17  1  0  0  0  0
 14 13  2  0  0  0  0
 15 10  1  0  0  0  0
 16 11  1  0  0  0  0
 18 19  1  0  0  0  0
 18  2  1  0  0  0  0
 19 20  1  0  0  0  0
 21 19  2  0  0  0  0
 22 21  1  0  0  0  0
 23 25  1  0  0  0  0
 23 21  1  0  0  0  0
 24 23  1  0  0  0  0
 25 18  2  0  0  0  0
M  END
>  <minimizedAffinity>
-4.7971797

$$$$

 OpenBabel03252500473D

 25 27  0  0  0  0  0  0  0  0999 V2000
   38.8020   27.9240   40.6580 C   0  0  0  0  0  0  0  0  0  0  0  0
   38.7870   27.6070   42.0200 C   0  0  0  0  0  0  0  0  0  0  0  0
   38.6290   28.5950   42.9850 C   0  0  0  0  0  0  0  0  0  0  0  0
   38.4890   29.8800   42.5380 N   0  0  0  0  0  0  0  0  0  0  0  0
   38.5040   30.1800   41.2180 C   0  0  0  0  0  0  0  0  0  0  0  0
   38.6580   29.2210   40.2850 N   0  0  0  0  0  0  0  0  0  0  0  0
   38.9220   27.1890   39.8770 H   0  0  0  0  0  0  0  0  0  0  0  0
   38.6170   28.3600   44.0390 H   0  0  0  0  0  0  0  0  0  0  0  0
   38.3520   31.5660   40.7840 C   0  0  0  0  0  0  0  0  0  0  0  0
   37.3030   31.9630   40.0060 C   0  0  0  0  0  0  0  0  0  0  0  0
   37.1220   33.2500   39.5770 C   0  0  0  0  0  0  0  0  0  0  0  0
   38.0660   34.1530   39.9700 N   0  0  0  0  0  0  0  0  0  0  0  0
   39.1050   33.7600   40.7410 C   0  0  0  0  0  0  0  0  0  0  0  0
   39.2930   32.4840   41.1720 N   0  0  0  0  0  0  0  0  0  0  0  0
   36.5360   31.2650   39.6780 H   0  0  0  0  0  0  0  0  0  0  0  0
   36.3000   33.5800   38.9620 H   0  0  0  0  0  0  0  0  0  0  0  0
   39.8780   34.4420   41.0760 H   0  0  0  0  0  0  0  0  0  0  0  0
   38.9440   26.2050   42.3980 C   0  0  0  0  0  0  0  0  0  0  0  0
   39.9410   25.6810   43.1950 C   0  0  0  0  0  0  0  0  0  0  0  0
   40.7210   26.2640   43.6290 H   0  0  0  0  0  0  0  0  0  0  0  0
   39.6380   24.3160   43.2440 C   0  0  0  0  0  0  0  0  0  0  0  0
   40.2630   23.6330   43.8120 H   0  0  0  0  0  0  0  0  0  0  0  0
   38.5200   24.0600   42.5120 N   0  0  0  0  0  0  0  0  0  0  0  0
   38.1890   23.0680   42.4700 H   0  0  0  0  0  0  0  0  0  0  0  0
   38.1100   25.2310   42.0000 N   0  0  0  0  0  0  0  0  0  0  0  0
  1  2  1  0  0  0  0
  2 18  1  0  0  0  0
  2  3  2  0  0  0  0
  3  8  1  0  0  0  0
  4  3  1  0  0  0  0
  5  4  2  0  0  0  0
  6  1  2  0  0  0  0
  6  5  1  0  0  0  0
  7  1  1  0  0  0  0
  9 14  1  0  0  0  0
  9  5  1  0  0  0  0
 10  9  2  0  0  0  0
 11 12  2  0  0  0  0
 11 10  1  0  0  0  0
 12 13  1  0  0  0  0
 13 17  1  0  0  0  0
 13 14  2  0  0  0  0
 15 10  1  0  0  0  0
 16 11  1  0  0  0  0
 18 19  1  0  0  0  0
 19 21  2  0  0  0  0
 19 20  1  0  0  0  0
 21 22  1  0  0  0  0
 23 21  1  0  0  0  0
 24 23  1  0  0  0  0
 25 18  2  0  0  0  0
 25 23  1  0  0  0  0
M  END
>  <minimizedAffinity>
-4.75499296

$$$$

 OpenBabel03252500473D

 25 27  0  0  0  0  0  0  0  0999 V2000
   38.2110   29.8010   39.6030 C   0  0  0  0  0  0  0  0  0  0  0  0
   37.5090   30.6670   40.4480 C   0  0  0  0  0  0  0  0  0  0  0  0
   36.6270   30.1780   41.4050 C   0  0  0  0  0  0  0  0  0  0  0  0
   36.4830   28.8190   41.4770 N   0  0  0  0  0  0  0  0  0  0  0  0
   37.1660   27.9870   40.6570 C   0  0  0  0  0  0  0  0  0  0  0  0
   38.0200   28.4630   39.7310 N   0  0  0  0  0  0  0  0  0  0  0  0
   38.9040   30.1380   38.8490 H   0  0  0  0  0  0  0  0  0  0  0  0
   36.0800   30.8390   42.0600 H   0  0  0  0  0  0  0  0  0  0  0  0
   36.9830   26.5420   40.7680 C   0  0  0  0  0  0  0  0  0  0  0  0
   37.2260   25.8750   41.9340 C   0  0  0  0  0  0  0  0  0  0  0  0
   37.0670   24.5240   42.0810 C   0  0  0  0  0  0  0  0  0  0  0  0
   36.6430   23.8440   40.9770 N   0  0  0  0  0  0  0  0  0  0  0  0
   36.4030   24.5050   39.8220 C   0  0  0  0  0  0  0  0  0  0  0  0
   36.5580   25.8470   39.6660 N   0  0  0  0  0  0  0  0  0  0  0  0
   37.5640   26.3910   42.8290 H   0  0  0  0  0  0  0  0  0  0  0  0
   37.2530   23.9820   42.9950 H   0  0  0  0  0  0  0  0  0  0  0  0
   36.0650   24.0060   38.9200 H   0  0  0  0  0  0  0  0  0  0  0  0
   37.7300   32.1020   40.2930 C   0  0  0  0  0  0  0  0  0  0  0  0
   38.7660   32.8320   40.8390 C   0  0  0  0  0  0  0  0  0  0  0  0
   39.5330   32.4090   41.4470 H   0  0  0  0  0  0  0  0  0  0  0  0
   38.5180   34.1350   40.3960 C   0  0  0  0  0  0  0  0  0  0  0  0
   39.1840   34.9480   40.6730 H   0  0  0  0  0  0  0  0  0  0  0  0
   37.3940   34.1610   39.6300 N   0  0  0  0  0  0  0  0  0  0  0  0
   37.1000   35.0860   39.2370 H   0  0  0  0  0  0  0  0  0  0  0  0
   36.9240   32.9050   39.5800 N   0  0  0  0  0  0  0  0  0  0  0  0
  1  6  2  0  0  0  0
  1  2  1  0  0  0  0
  2  3  2  0  0  0  0
  3  4  1  0  0  0  0
  3  8  1  0  0  0  0
  5  9  1  0  0  0  0
  5  4  2  0  0  0  0
  6  5  1  0  0  0  0
  7  1  1  0  0  0  0
  9 10  1  0  0  0  0
 10 11  2  0  0  0  0
 10 15  1  0  0  0  0
 11 16  1  0  0  0  0
 12 11  1  0  0  0  0
 13 12  2  0  0  0  0
 14 13  1  0  0  0  0
 14  9  2  0  0  0  0
 17 13  1  0  0  0  0
 18  2  1  0  0  0  0
 18 19  1  0  0  0  0
 19 20  1  0  0  0  0
 21 22  1  0  0  0  0
 21 19  2  0  0  0  0
 23 21  1  0  0  0  0
 24 23  1  0  0  0  0
 25 23  1  0  0  0  0
 25 18  2  0  0  0  0
M  END
>  <minimizedAffinity>
-4.72436619

$$$$

 OpenBabel03252500473D

 25 27  0  0  0  0  0  0  0  0999 V2000
   38.6650   28.2240   42.1810 C   0  0  0  0  0  0  0  0  0  0  0  0
   37.9960   27.3820   41.2870 C   0  0  0  0  0  0  0  0  0  0  0  0
   37.3930   27.8870   40.1400 C   0  0  0  0  0  0  0  0  0  0  0  0
   37.4880   29.2360   39.9340 N   0  0  0  0  0  0  0  0  0  0  0  0
   38.1370   30.0450   40.8040 C   0  0  0  0  0  0  0  0  0  0  0  0
   38.7200   29.5540   41.9140 N   0  0  0  0  0  0  0  0  0  0  0  0
   39.1470   27.8740   43.0810 H   0  0  0  0  0  0  0  0  0  0  0  0
   36.8730   27.2450   39.4450 H   0  0  0  0  0  0  0  0  0  0  0  0
   38.2140   31.4800   40.5450 C   0  0  0  0  0  0  0  0  0  0  0  0
   37.2410   32.1380   39.8500 C   0  0  0  0  0  0  0  0  0  0  0  0
   37.2730   33.4800   39.5860 C   0  0  0  0  0  0  0  0  0  0  0  0
   38.3550   34.1610   40.0620 N   0  0  0  0  0  0  0  0  0  0  0  0
   39.3190   33.5090   40.7510 C   0  0  0  0  0  0  0  0  0  0  0  0
   39.2960   32.1770   41.0180 N   0  0  0  0  0  0  0  0  0  0  0  0
   36.3670   31.6200   39.4590 H   0  0  0  0  0  0  0  0  0  0  0  0
   36.5120   34.0140   39.0380 H   0  0  0  0  0  0  0  0  0  0  0  0
   40.1960   34.0100   41.1460 H   0  0  0  0  0  0  0  0  0  0  0  0
   37.9500   25.9560   41.5950 C   0  0  0  0  0  0  0  0  0  0  0  0
   37.0830   25.0310   41.0490 C   0  0  0  0  0  0  0  0  0  0  0  0
   36.3380   25.2710   40.3260 H   0  0  0  0  0  0  0  0  0  0  0  0
   37.4500   23.8320   41.6700 C   0  0  0  0  0  0  0  0  0  0  0  0
   36.9320   22.9070   41.4330 H   0  0  0  0  0  0  0  0  0  0  0  0
   38.4790   24.0500   42.5330 N   0  0  0  0  0  0  0  0  0  0  0  0
   38.8460   23.2250   43.0630 H   0  0  0  0  0  0  0  0  0  0  0  0
   38.7710   25.3580   42.4740 N   0  0  0  0  0  0  0  0  0  0  0  0
  1  7  1  0  0  0  0
  2 18  1  0  0  0  0
  2  1  2  0  0  0  0
  3  2  1  0  0  0  0
  4  3  2  0  0  0  0
  4  5  1  0  0  0  0
  5  6  2  0  0  0  0
  6  1  1  0  0  0  0
  8  3  1  0  0  0  0
  9  5  1  0  0  0  0
  9 14  1  0  0  0  0
 10  9  2  0  0  0  0
 11 10  1  0  0  0  0
 11 12  2  0  0  0  0
 12 13  1  0  0  0  0
 13 14  2  0  0  0  0
 13 17  1  0  0  0  0
 15 10  1  0  0  0  0
 16 11  1  0  0  0  0
 18 25  2  0  0  0  0
 19 18  1  0  0  0  0
 19 21  2  0  0  0  0
 20 19  1  0  0  0  0
 21 23  1  0  0  0  0
 22 21  1  0  0  0  0
 23 24  1  0  0  0  0
 25 23  1  0  0  0  0
M  END
>  <minimizedAffinity>
-4.52910948

$$$$

 OpenBabel03252500473D

 25 27  0  0  0  0  0  0  0  0999 V2000
   38.3660   29.7640   39.5560 C   0  0  0  0  0  0  0  0  0  0  0  0
   37.7580   30.5840   40.5110 C   0  0  0  0  0  0  0  0  0  0  0  0
   37.1050   30.0420   41.6120 C   0  0  0  0  0  0  0  0  0  0  0  0
   37.0900   28.6770   41.7120 N   0  0  0  0  0  0  0  0  0  0  0  0
   37.6820   27.8900   40.7840 C   0  0  0  0  0  0  0  0  0  0  0  0
   38.3130   28.4170   39.7180 N   0  0  0  0  0  0  0  0  0  0  0  0
   38.8830   30.1430   38.6880 H   0  0  0  0  0  0  0  0  0  0  0  0
   36.6310   30.6670   42.3540 H   0  0  0  0  0  0  0  0  0  0  0  0
   37.6420   26.4370   40.9290 C   0  0  0  0  0  0  0  0  0  0  0  0
   38.1430   25.6050   39.9700 C   0  0  0  0  0  0  0  0  0  0  0  0
   38.1260   24.2410   40.0640 C   0  0  0  0  0  0  0  0  0  0  0  0
   37.5680   23.7230   41.1970 N   0  0  0  0  0  0  0  0  0  0  0  0
   37.0720   24.5470   42.1480 C   0  0  0  0  0  0  0  0  0  0  0  0
   37.0840   25.9040   42.0620 N   0  0  0  0  0  0  0  0  0  0  0  0
   38.5940   25.9900   39.0570 H   0  0  0  0  0  0  0  0  0  0  0  0
   38.5180   23.5700   39.3160 H   0  0  0  0  0  0  0  0  0  0  0  0
   36.6200   24.1800   43.0630 H   0  0  0  0  0  0  0  0  0  0  0  0
   37.8280   32.0290   40.3160 C   0  0  0  0  0  0  0  0  0  0  0  0
   38.7950   32.8750   40.8200 C   0  0  0  0  0  0  0  0  0  0  0  0
   39.6130   32.5490   41.4200 H   0  0  0  0  0  0  0  0  0  0  0  0
   38.4060   34.1350   40.3500 C   0  0  0  0  0  0  0  0  0  0  0  0
   38.9900   35.0180   40.5910 H   0  0  0  0  0  0  0  0  0  0  0  0
   37.2690   34.0250   39.6100 N   0  0  0  0  0  0  0  0  0  0  0  0
   36.8750   34.9040   39.2010 H   0  0  0  0  0  0  0  0  0  0  0  0
   36.9300   32.7270   39.6020 N   0  0  0  0  0  0  0  0  0  0  0  0
  1  6  2  0  0  0  0
  1  2  1  0  0  0  0
  2  3  2  0  0  0  0
  3  4  1  0  0  0  0
  3  8  1  0  0  0  0
  5  9  1  0  0  0  0
  5  4  2  0  0  0  0
  6  5  1  0  0  0  0
  7  1  1  0  0  0  0
  9 14  1  0  0  0  0
 10 11  1  0  0  0  0
 10  9  2  0  0  0  0
 11 12  2  0  0  0  0
 12 13  1  0  0  0  0
 13 17  1  0  0  0  0
 14 13  2  0  0  0  0
 15 10  1  0  0  0  0
 16 11  1  0  0  0  0
 18  2  1  0  0  0  0
 18 19  1  0  0  0  0
 19 20  1  0  0  0  0
 21 22  1  0  0  0  0
 21 19  2  0  0  0  0
 23 21  1  0  0  0  0
 24 23  1  0  0  0  0
 25 23  1  0  0  0  0
 25 18  2  0  0  0  0
M  END
>  <minimizedAffinity>
-4.5041604

$$$$

 OpenBabel03252500473D

 25 27  0  0  0  0  0  0  0  0999 V2000
   38.8000   27.4350   40.1370 C   0  0  0  0  0  0  0  0  0  0  0  0
   37.8040   26.8770   40.9440 C   0  0  0  0  0  0  0  0  0  0  0  0
   36.8410   27.6750   41.5520 C   0  0  0  0  0  0  0  0  0  0  0  0
   36.9180   29.0220   41.3200 N   0  0  0  0  0  0  0  0  0  0  0  0
   37.8850   29.5550   40.5370 C   0  0  0  0  0  0  0  0  0  0  0  0
   38.8160   28.7800   39.9500 N   0  0  0  0  0  0  0  0  0  0  0  0
   39.5650   26.8530   39.6470 H   0  0  0  0  0  0  0  0  0  0  0  0
   36.0690   27.2540   42.1780 H   0  0  0  0  0  0  0  0  0  0  0  0
   37.9300   30.9980   40.3170 C   0  0  0  0  0  0  0  0  0  0  0  0
   38.7310   31.8130   41.0620 C   0  0  0  0  0  0  0  0  0  0  0  0
   38.8050   33.1680   40.8890 C   0  0  0  0  0  0  0  0  0  0  0  0
   38.0170   33.6930   39.9070 N   0  0  0  0  0  0  0  0  0  0  0  0
   37.2230   32.8850   39.1680 C   0  0  0  0  0  0  0  0  0  0  0  0
   37.1430   31.5380   39.3320 N   0  0  0  0  0  0  0  0  0  0  0  0
   39.3700   31.4220   41.8520 H   0  0  0  0  0  0  0  0  0  0  0  0
   39.4330   33.8260   41.4690 H   0  0  0  0  0  0  0  0  0  0  0  0
   36.5810   33.2580   38.3780 H   0  0  0  0  0  0  0  0  0  0  0  0
   37.8060   25.4290   41.1310 C   0  0  0  0  0  0  0  0  0  0  0  0
   37.0590   24.5130   40.4190 C   0  0  0  0  0  0  0  0  0  0  0  0
   36.3840   24.7780   39.6370 H   0  0  0  0  0  0  0  0  0  0  0  0
   37.4230   23.2850   40.9810 C   0  0  0  0  0  0  0  0  0  0  0  0
   36.9880   22.3600   40.6150 H   0  0  0  0  0  0  0  0  0  0  0  0
   38.3380   23.4780   41.9700 N   0  0  0  0  0  0  0  0  0  0  0  0
   38.6920   22.6300   42.4710 H   0  0  0  0  0  0  0  0  0  0  0  0
   38.5590   24.7990   42.0480 N   0  0  0  0  0  0  0  0  0  0  0  0
  1  2  1  0  0  0  0
  2 18  1  0  0  0  0
  2  3  2  0  0  0  0
  3  8  1  0  0  0  0
  4  3  1  0  0  0  0
  5  4  2  0  0  0  0
  6  1  2  0  0  0  0
  6  5  1  0  0  0  0
  7  1  1  0  0  0  0
  9  5  1  0  0  0  0
  9 10  1  0  0  0  0
 10 15  1  0  0  0  0
 11 10  2  0  0  0  0
 11 16  1  0  0  0  0
 12 11  1  0  0  0  0
 13 14  1  0  0  0  0
 13 12  2  0  0  0  0
 14  9  2  0  0  0  0
 17 13  1  0  0  0  0
 18 25  2  0  0  0  0
 19 21  2  0  0  0  0
 19 18  1  0  0  0  0
 20 19  1  0  0  0  0
 21 23  1  0  0  0  0
 22 21  1  0  0  0  0
 23 25  1  0  0  0  0
 23 24  1  0  0  0  0
M  END
>  <minimizedAffinity>
-4.2746501

$$$$

 OpenBabel03252500473D

 25 27  0  0  0  0  0  0  0  0999 V2000
   36.4650   27.3930   39.5500 C   0  0  0  0  0  0  0  0  0  0  0  0
   36.0210   28.3470   40.4710 C   0  0  0  0  0  0  0  0  0  0  0  0
   34.9430   29.1770   40.1820 C   0  0  0  0  0  0  0  0  0  0  0  0
   34.3450   29.0130   38.9630 N   0  0  0  0  0  0  0  0  0  0  0  0
   34.7800   28.0870   38.0760 C   0  0  0  0  0  0  0  0  0  0  0  0
   35.8240   27.2840   38.3580 N   0  0  0  0  0  0  0  0  0  0  0  0
   37.2950   26.7290   39.7330 H   0  0  0  0  0  0  0  0  0  0  0  0
   34.5950   29.9170   40.8870 H   0  0  0  0  0  0  0  0  0  0  0  0
   34.1120   27.9460   36.7850 C   0  0  0  0  0  0  0  0  0  0  0  0
   32.9990   28.6690   36.4690 C   0  0  0  0  0  0  0  0  0  0  0  0
   32.3430   28.5680   35.2720 C   0  0  0  0  0  0  0  0  0  0  0  0
   32.8640   27.6820   34.3740 N   0  0  0  0  0  0  0  0  0  0  0  0
   33.9680   26.9660   34.6870 C   0  0  0  0  0  0  0  0  0  0  0  0
   34.6250   27.0600   35.8730 N   0  0  0  0  0  0  0  0  0  0  0  0
   32.5620   29.3810   37.1650 H   0  0  0  0  0  0  0  0  0  0  0  0
   31.4630   29.1320   35.0070 H   0  0  0  0  0  0  0  0  0  0  0  0
   34.4160   26.2520   34.0050 H   0  0  0  0  0  0  0  0  0  0  0  0
   36.7250   28.4450   41.7460 C   0  0  0  0  0  0  0  0  0  0  0  0
   36.9480   27.4160   42.6370 C   0  0  0  0  0  0  0  0  0  0  0  0
   36.6200   26.4140   42.4800 H   0  0  0  0  0  0  0  0  0  0  0  0
   37.6530   28.0290   43.6780 C   0  0  0  0  0  0  0  0  0  0  0  0
   37.9730   27.4540   44.5420 H   0  0  0  0  0  0  0  0  0  0  0  0
   37.8300   29.3500   43.4050 N   0  0  0  0  0  0  0  0  0  0  0  0
   38.3470   29.9240   44.1130 H   0  0  0  0  0  0  0  0  0  0  0  0
   37.2530   29.5860   42.2170 N   0  0  0  0  0  0  0  0  0  0  0  0
  1  7  1  0  0  0  0
  1  2  1  0  0  0  0
  2 18  1  0  0  0  0
  3  2  2  0  0  0  0
  3  8  1  0  0  0  0
  4  3  1  0  0  0  0
  5  6  1  0  0  0  0
  5  4  2  0  0  0  0
  6  1  2  0  0  0  0
  9  5  1  0  0  0  0
 10  9  1  0  0  0  0
 10 15  1  0  0  0  0
 11 10  2  0  0  0  0
 12 13  2  0  0  0  0
 12 11  1  0  0  0  0
 13 14  1  0  0  0  0
 14  9  2  0  0  0  0
 16 11  1  0  0  0  0
 17 13  1  0  0  0  0
 18 25  2  0  0  0  0
 18 19  1  0  0  0  0
 19 21  2  0  0  0  0
 20 19  1  0  0  0  0
 21 22  1  0  0  0  0
 23 21  1  0  0  0  0
 23 24  1  0  0  0  0
 25 23  1  0  0  0  0
M  END
>  <minimizedAffinity>
-4.16672516

$$$$

 OpenBabel03252500473D

 25 27  0  0  0  0  0  0  0  0999 V2000
   35.5560   27.7130   38.0980 C   0  0  0  0  0  0  0  0  0  0  0  0
   34.4820   28.6030   38.1830 C   0  0  0  0  0  0  0  0  0  0  0  0
   34.1980   29.2750   39.3670 C   0  0  0  0  0  0  0  0  0  0  0  0
   35.0180   29.0240   40.4330 N   0  0  0  0  0  0  0  0  0  0  0  0
   36.0570   28.1610   40.3430 C   0  0  0  0  0  0  0  0  0  0  0  0
   36.3300   27.5110   39.1960 N   0  0  0  0  0  0  0  0  0  0  0  0
   35.8120   27.1720   37.2000 H   0  0  0  0  0  0  0  0  0  0  0  0
   33.3690   29.9630   39.4430 H   0  0  0  0  0  0  0  0  0  0  0  0
   36.9080   27.9210   41.5060 C   0  0  0  0  0  0  0  0  0  0  0  0
   37.4000   26.6810   41.7920 C   0  0  0  0  0  0  0  0  0  0  0  0
   38.2000   26.4110   42.8690 C   0  0  0  0  0  0  0  0  0  0  0  0
   38.4960   27.4700   43.6770 N   0  0  0  0  0  0  0  0  0  0  0  0
   38.0090   28.7000   43.3940 C   0  0  0  0  0  0  0  0  0  0  0  0
   37.2140   28.9760   42.3270 N   0  0  0  0  0  0  0  0  0  0  0  0
   37.1810   25.8190   41.1650 H   0  0  0  0  0  0  0  0  0  0  0  0
   38.5970   25.4380   43.1080 H   0  0  0  0  0  0  0  0  0  0  0  0
   38.2180   29.5680   44.0080 H   0  0  0  0  0  0  0  0  0  0  0  0
   33.6640   28.8040   36.9910 C   0  0  0  0  0  0  0  0  0  0  0  0
   32.3600   29.2540   36.9620 C   0  0  0  0  0  0  0  0  0  0  0  0
   31.8010   29.5080   37.8330 H   0  0  0  0  0  0  0  0  0  0  0  0
   32.0480   29.2680   35.5980 C   0  0  0  0  0  0  0  0  0  0  0  0
   31.0660   29.5860   35.2600 H   0  0  0  0  0  0  0  0  0  0  0  0
   33.1180   28.8480   34.8710 N   0  0  0  0  0  0  0  0  0  0  0  0
   33.0100   28.8130   33.8300 H   0  0  0  0  0  0  0  0  0  0  0  0
   34.0990   28.5670   35.7430 N   0  0  0  0  0  0  0  0  0  0  0  0
  1  2  2  0  0  0  0
  1  6  1  0  0  0  0
  2  3  1  0  0  0  0
  3  8  1  0  0  0  0
  3  4  2  0  0  0  0
  5  4  1  0  0  0  0
  5  9  1  0  0  0  0
  6  5  2  0  0  0  0
  7  1  1  0  0  0  0
  9 10  2  0  0  0  0
  9 14  1  0  0  0  0
 10 11  1  0  0  0  0
 11 16  1  0  0  0  0
 11 12  2  0  0  0  0
 13 12  1  0  0  0  0
 13 17  1  0  0  0  0
 14 13  2  0  0  0  0
 15 10  1  0  0  0  0
 18  2  1  0  0  0  0
 19 18  1  0  0  0  0
 19 20  1  0  0  0  0
 21 19  2  0  0  0  0
 22 21  1  0  0  0  0
 23 21  1  0  0  0  0
 23 25  1  0  0  0  0
 24 23  1  0  0  0  0
 25 18  2  0  0  0  0
M  END
>  <minimizedAffinity>
-4.12936211

$$$$

 OpenBabel03252500473D

 25 27  0  0  0  0  0  0  0  0999 V2000
   37.8350   28.7890   39.2220 C   0  0  0  0  0  0  0  0  0  0  0  0
   37.5040   29.4370   40.4150 C   0  0  0  0  0  0  0  0  0  0  0  0
   37.0270   28.7260   41.5110 C   0  0  0  0  0  0  0  0  0  0  0  0
   36.9010   27.3720   41.3610 N   0  0  0  0  0  0  0  0  0  0  0  0
   37.2230   26.7500   40.2030 C   0  0  0  0  0  0  0  0  0  0  0  0
   37.6850   27.4420   39.1430 N   0  0  0  0  0  0  0  0  0  0  0  0
   38.2090   29.3020   38.3490 H   0  0  0  0  0  0  0  0  0  0  0  0
   36.7680   29.2180   42.4360 H   0  0  0  0  0  0  0  0  0  0  0  0
   37.0720   25.3030   40.0860 C   0  0  0  0  0  0  0  0  0  0  0  0
   36.1840   24.7410   39.2140 C   0  0  0  0  0  0  0  0  0  0  0  0
   36.0110   23.3920   39.0720 C   0  0  0  0  0  0  0  0  0  0  0  0
   36.7880   22.5990   39.8660 N   0  0  0  0  0  0  0  0  0  0  0  0
   37.6680   23.1540   40.7290 C   0  0  0  0  0  0  0  0  0  0  0  0
   37.8460   24.4940   40.8780 N   0  0  0  0  0  0  0  0  0  0  0  0
   35.5530   25.3490   38.5690 H   0  0  0  0  0  0  0  0  0  0  0  0
   35.3150   22.9320   38.3880 H   0  0  0  0  0  0  0  0  0  0  0  0
   38.3040   22.5640   41.3790 H   0  0  0  0  0  0  0  0  0  0  0  0
   37.6740   30.8860   40.4770 C   0  0  0  0  0  0  0  0  0  0  0  0
   38.8400   31.5590   40.7800 C   0  0  0  0  0  0  0  0  0  0  0  0
   39.7630   31.0740   41.0050 H   0  0  0  0  0  0  0  0  0  0  0  0
   38.4710   32.9060   40.7040 C   0  0  0  0  0  0  0  0  0  0  0  0
   39.1980   33.6890   40.8970 H   0  0  0  0  0  0  0  0  0  0  0  0
   37.1550   33.0100   40.3740 N   0  0  0  0  0  0  0  0  0  0  0  0
   36.7550   33.9740   40.2870 H   0  0  0  0  0  0  0  0  0  0  0  0
   36.6840   31.7610   40.2400 N   0  0  0  0  0  0  0  0  0  0  0  0
  1  2  1  0  0  0  0
  2 18  1  0  0  0  0
  2  3  2  0  0  0  0
  3  8  1  0  0  0  0
  4  3  1  0  0  0  0
  5  4  2  0  0  0  0
  6  1  2  0  0  0  0
  6  5  1  0  0  0  0
  7  1  1  0  0  0  0
  9  5  1  0  0  0  0
  9 14  1  0  0  0  0
 10  9  2  0  0  0  0
 11 10  1  0  0  0  0
 11 12  2  0  0  0  0
 12 13  1  0  0  0  0
 13 14  2  0  0  0  0
 13 17  1  0  0  0  0
 15 10  1  0  0  0  0
 16 11  1  0  0  0  0
 18 19  1  0  0  0  0
 19 20  1  0  0  0  0
 21 19  2  0  0  0  0
 21 22  1  0  0  0  0
 23 21  1  0  0  0  0
 24 23  1  0  0  0  0
 25 23  1  0  0  0  0
 25 18  2  0  0  0  0
M  END
>  <minimizedAffinity>
-4.11153746

$$$$
