
 OpenBabel03252507553D

 43 46  0  0  1  0  0  0  0  0999 V2000
   47.1240   34.8310   42.0950 C   0  0  2  0  0  0  0  0  0  0  0  0
   46.3400   34.3190   40.8820 C   0  0  0  0  0  0  0  0  0  0  0  0
   47.5370   34.1800   39.9150 C   0  0  0  0  0  0  0  0  0  0  0  0
   48.6650   33.6960   40.7720 C   0  0  1  0  0  0  0  0  0  0  0  0
   48.1630   33.7480   42.1830 C   0  0  0  0  0  0  0  0  0  0  0  0
   47.4910   35.8310   41.8360 H   0  0  0  0  0  0  0  0  0  0  0  0
   45.6270   35.0610   40.5140 H   0  0  0  0  0  0  0  0  0  0  0  0
   45.9360   33.3180   41.0840 H   0  0  0  0  0  0  0  0  0  0  0  0
   47.7370   35.2250   39.5410 H   0  0  0  0  0  0  0  0  0  0  0  0
   47.3120   33.4980   39.0870 H   0  0  0  0  0  0  0  0  0  0  0  0
   49.5450   34.3960   40.7180 H   0  0  0  0  0  0  0  0  0  0  0  0
   47.6590   32.8150   42.4240 H   0  0  0  0  0  0  0  0  0  0  0  0
   48.9640   34.0240   42.9000 H   0  0  0  0  0  0  0  0  0  0  0  0
   44.5390   35.7900   44.6630 C   0  0  0  0  0  0  0  0  0  0  0  0
   45.2710   35.8400   43.4810 C   0  0  0  0  0  0  0  0  0  0  0  0
   46.2530   34.8730   43.3070 C   0  0  0  0  0  0  0  0  0  0  0  0
   46.4760   33.9030   44.2910 N   0  0  0  0  0  0  0  0  0  0  0  0
   45.7290   33.9060   45.4270 C   0  0  0  0  0  0  0  0  0  0  0  0
   44.7640   34.8470   45.6100 N   0  0  0  0  0  0  0  0  0  0  0  0
   43.7660   36.5310   44.8290 H   0  0  0  0  0  0  0  0  0  0  0  0
   45.1140   36.5800   42.7090 H   0  0  0  0  0  0  0  0  0  0  0  0
   45.9040   33.1560   46.1850 H   0  0  0  0  0  0  0  0  0  0  0  0
   49.1010   32.2760   40.5000 C   0  0  2  0  0  0  0  0  0  0  0  0
   49.9150   31.6460   41.5280 C   0  0  0  0  0  0  0  0  0  0  0  0
   50.4900   31.9460   40.1790 C   0  0  1  0  0  0  0  0  0  0  0  0
   48.3200   31.6700   40.0050 H   0  0  0  0  0  0  0  0  0  0  0  0
   50.3360   32.2980   42.3460 H   0  0  0  0  0  0  0  0  0  0  0  0
   49.8340   30.5900   41.8530 H   0  0  0  0  0  0  0  0  0  0  0  0
   51.1140   32.7990   39.9260 H   0  0  0  0  0  0  0  0  0  0  0  0
   50.7170   30.8400   39.3240 O   0  0  0  0  0  0  0  0  0  0  0  0
   51.1520   30.3690   36.7970 O   0  0  0  0  0  0  0  0  0  0  0  0
   51.3170   31.4200   37.8650 P   0  0  1  0  0  0  0  0  0  0  0  0
   50.4240   32.7990   37.3720 O   0  0  0  0  0  0  0  0  0  0  0  0
   50.8800   33.6160   37.6600 H   0  0  0  0  0  0  0  0  0  0  0  0
   52.9150   31.8770   37.9110 O   0  0  0  0  0  0  0  0  0  0  0  0
   53.9690   31.0060   38.1260 C   0  0  0  0  0  0  0  0  0  0  0  0
   54.2470   30.0660   39.1230 C   0  0  0  0  0  0  0  0  0  0  0  0
   53.5570   29.9160   39.9360 H   0  0  0  0  0  0  0  0  0  0  0  0
   55.4510   29.4710   38.8370 C   0  0  0  0  0  0  0  0  0  0  0  0
   55.9170   28.7010   39.4430 H   0  0  0  0  0  0  0  0  0  0  0  0
   55.8890   30.0390   37.6970 N   0  0  0  0  0  0  0  0  0  0  0  0
   56.7940   29.7600   37.2620 H   0  0  0  0  0  0  0  0  0  0  0  0
   55.0240   30.9490   37.2640 N   0  0  0  0  0  0  0  0  0  0  0  0
  1  6  1  6  0  0  0
  1  5  1  0  0  0  0
  1 16  1  0  0  0  0
  2  8  1  0  0  0  0
  2  1  1  0  0  0  0
  3  4  1  0  0  0  0
  3  2  1  0  0  0  0
  4 11  1  6  0  0  0
  4  5  1  0  0  0  0
  5 12  1  0  0  0  0
  5 13  1  0  0  0  0
  7  2  1  0  0  0  0
  9  3  1  0  0  0  0
 10  3  1  0  0  0  0
 14 20  1  0  0  0  0
 14 19  1  0  0  0  0
 15 14  2  0  0  0  0
 16 15  1  0  0  0  0
 16 17  2  0  0  0  0
 17 18  1  0  0  0  0
 18 19  2  0  0  0  0
 18 22  1  0  0  0  0
 21 15  1  0  0  0  0
 23 26  1  6  0  0  0
 23  4  1  0  0  0  0
 23 24  1  0  0  0  0
 24 28  1  0  0  0  0
 24 27  1  0  0  0  0
 25 29  1  6  0  0  0
 25 23  1  0  0  0  0
 25 24  1  0  0  0  0
 30 25  1  0  0  0  0
 32 31  2  6  0  0  0
 32 35  1  0  0  0  0
 32 30  1  0  0  0  0
 33 34  1  0  0  0  0
 33 32  1  0  0  0  0
 35 36  1  0  0  0  0
 36 37  1  0  0  0  0
 37 38  1  0  0  0  0
 39 37  2  0  0  0  0
 39 40  1  0  0  0  0
 41 39  1  0  0  0  0
 42 41  1  0  0  0  0
 43 41  1  0  0  0  0
 43 36  2  0  0  0  0
M  END
>  <minimizedAffinity>
-5.37218809

>  <minimizedRMSD>
1.23530877

$$$$
