
 OpenBabel03252507223D

 46 49  0  0  1  0  0  0  0  0999 V2000
   47.3360   33.7140   42.8340 C   0  0  0  0  0  0  0  0  0  0  0  0
   48.4550   33.5340   43.4290 O   0  0  0  0  0  0  0  0  0  0  0  0
   47.0420   33.1920   41.5450 N   0  0  0  0  0  0  0  0  0  0  0  0
   45.8310   32.5260   41.0450 C   0  0  0  0  0  0  0  0  0  0  0  0
   45.3820   33.1970   39.7560 C   0  0  0  0  0  0  0  0  0  0  0  0
   46.4230   33.0710   38.6850 C   0  0  0  0  0  0  0  0  0  0  0  0
   47.7170   32.5730   39.3020 C   0  0  0  0  0  0  0  0  0  0  0  0
   48.0640   33.3130   40.5430 C   0  0  2  0  0  0  0  0  0  0  0  0
   45.9820   31.4490   40.9220 H   0  0  0  0  0  0  0  0  0  0  0  0
   45.0150   32.7370   41.7900 H   0  0  0  0  0  0  0  0  0  0  0  0
   45.1240   34.2440   40.0150 H   0  0  0  0  0  0  0  0  0  0  0  0
   44.4570   32.6470   39.4420 H   0  0  0  0  0  0  0  0  0  0  0  0
   46.1410   32.4410   37.8370 H   0  0  0  0  0  0  0  0  0  0  0  0
   46.5870   34.1070   38.2660 H   0  0  0  0  0  0  0  0  0  0  0  0
   48.5480   32.6350   38.5760 H   0  0  0  0  0  0  0  0  0  0  0  0
   47.5660   31.4780   39.4740 H   0  0  0  0  0  0  0  0  0  0  0  0
   48.1090   34.3960   40.2760 H   0  0  0  0  0  0  0  0  0  0  0  0
   45.9440   35.7230   42.9530 C   0  0  0  0  0  0  0  0  0  0  0  0
   46.3260   34.4910   43.5200 C   0  0  0  0  0  0  0  0  0  0  0  0
   45.7460   34.0490   44.6960 C   0  0  0  0  0  0  0  0  0  0  0  0
   44.8120   34.8420   45.2660 N   0  0  0  0  0  0  0  0  0  0  0  0
   44.4270   36.0380   44.7360 C   0  0  0  0  0  0  0  0  0  0  0  0
   45.0060   36.4560   43.5820 N   0  0  0  0  0  0  0  0  0  0  0  0
   46.4010   36.0580   42.0360 H   0  0  0  0  0  0  0  0  0  0  0  0
   43.6880   36.6570   45.1920 H   0  0  0  0  0  0  0  0  0  0  0  0
   46.1610   32.7860   45.2480 C   0  0  0  0  0  0  0  0  0  0  0  0
   45.8040   31.6210   44.6560 C   0  0  0  0  0  0  0  0  0  0  0  0
   46.2190   30.4270   45.2120 C   0  0  0  0  0  0  0  0  0  0  0  0
   46.9960   30.3630   46.3680 C   0  0  0  0  0  0  0  0  0  0  0  0
   47.3360   31.5950   46.9380 C   0  0  0  0  0  0  0  0  0  0  0  0
   46.9150   32.7230   46.3700 N   0  0  0  0  0  0  0  0  0  0  0  0
   45.2050   31.5430   43.7590 H   0  0  0  0  0  0  0  0  0  0  0  0
   45.9690   29.4520   44.7900 H   0  0  0  0  0  0  0  0  0  0  0  0
   47.3510   29.4880   46.8520 H   0  0  0  0  0  0  0  0  0  0  0  0
   47.9360   31.7320   47.8410 H   0  0  0  0  0  0  0  0  0  0  0  0
   49.4400   32.9510   41.0050 C   0  0  0  0  0  0  0  0  0  0  0  0
   49.7910   33.4370   41.9150 H   0  0  0  0  0  0  0  0  0  0  0  0
   50.1040   33.3900   40.2080 H   0  0  0  0  0  0  0  0  0  0  0  0
   49.7140   31.4900   40.9490 C   0  0  0  0  0  0  0  0  0  0  0  0
   50.7480   31.0430   40.1500 C   0  0  0  0  0  0  0  0  0  0  0  0
   51.4790   31.5260   39.4910 H   0  0  0  0  0  0  0  0  0  0  0  0
   50.7720   29.6540   40.2910 C   0  0  0  0  0  0  0  0  0  0  0  0
   51.4260   28.9120   39.8380 H   0  0  0  0  0  0  0  0  0  0  0  0
   49.7730   29.3100   41.1540 N   0  0  0  0  0  0  0  0  0  0  0  0
   49.5550   28.3290   41.4490 H   0  0  0  0  0  0  0  0  0  0  0  0
   49.1610   30.4330   41.5280 N   0  0  0  0  0  0  0  0  0  0  0  0
  1  2  2  0  0  0  0
  1 19  1  0  0  0  0
  3  1  1  0  0  0  0
  4  3  1  0  0  0  0
  4 10  1  0  0  0  0
  5 11  1  0  0  0  0
  5  4  1  0  0  0  0
  6  7  1  0  0  0  0
  6  5  1  0  0  0  0
  7 16  1  0  0  0  0
  7  8  1  0  0  0  0
  8 17  1  6  0  0  0
  8 36  1  0  0  0  0
  8  3  1  0  0  0  0
  9  4  1  0  0  0  0
 12  5  1  0  0  0  0
 13  6  1  0  0  0  0
 14  6  1  0  0  0  0
 15  7  1  0  0  0  0
 18 19  2  0  0  0  0
 18 23  1  0  0  0  0
 19 20  1  0  0  0  0
 20 26  1  0  0  0  0
 20 21  2  0  0  0  0
 22 25  1  0  0  0  0
 22 21  1  0  0  0  0
 23 22  2  0  0  0  0
 24 18  1  0  0  0  0
 26 31  1  0  0  0  0
 27 28  1  0  0  0  0
 27 26  2  0  0  0  0
 28 29  2  0  0  0  0
 29 34  1  0  0  0  0
 29 30  1  0  0  0  0
 30 35  1  0  0  0  0
 31 30  2  0  0  0  0
 32 27  1  0  0  0  0
 33 28  1  0  0  0  0
 36 37  1  0  0  0  0
 38 36  1  0  0  0  0
 39 36  1  0  0  0  0
 39 46  2  0  0  0  0
 40 42  2  0  0  0  0
 40 39  1  0  0  0  0
 41 40  1  0  0  0  0
 42 44  1  0  0  0  0
 43 42  1  0  0  0  0
 44 45  1  0  0  0  0
 44 46  1  0  0  0  0
M  END
>  <minimizedAffinity>
-4.87111139

>  <minimizedRMSD>
0.507963002

$$$$
