
 OpenBabel03252505473D

 28 30  0  0  1  0  0  0  0  0999 V2000
   46.5200   33.5000   43.4010 C   0  0  0  0  0  0  0  0  0  0  0  0
   46.6550   34.7840   42.8160 C   0  0  0  0  0  0  0  0  0  0  0  0
   47.5130   34.9890   41.7220 C   0  0  0  0  0  0  0  0  0  0  0  0
   48.1870   33.8880   41.2840 N   0  0  0  0  0  0  0  0  0  0  0  0
   48.0210   32.6730   41.8840 C   0  0  0  0  0  0  0  0  0  0  0  0
   47.2150   32.4740   42.9100 N   0  0  0  0  0  0  0  0  0  0  0  0
   46.1050   35.6550   43.1850 H   0  0  0  0  0  0  0  0  0  0  0  0
   47.6230   35.9630   41.2690 H   0  0  0  0  0  0  0  0  0  0  0  0
   45.6140   33.3550   44.5510 C   0  0  1  0  0  0  0  0  0  0  0  0
   46.3750   33.5360   45.9130 C   0  0  1  0  0  0  0  0  0  0  0  0
   45.2210   34.3860   45.4340 C   0  0  0  0  0  0  0  0  0  0  0  0
   45.0440   32.3850   44.5040 H   0  0  0  0  0  0  0  0  0  0  0  0
   47.3780   33.9530   45.8830 H   0  0  0  0  0  0  0  0  0  0  0  0
   44.2680   34.3650   45.9820 H   0  0  0  0  0  0  0  0  0  0  0  0
   45.5160   35.4490   45.1940 H   0  0  0  0  0  0  0  0  0  0  0  0
   45.9870   32.5200   46.9620 C   0  0  0  0  0  0  0  0  0  0  0  0
   46.9430   32.3330   47.9190 F   0  0  0  0  0  0  0  0  0  0  0  0
   44.8190   32.9710   47.6080 F   0  0  0  0  0  0  0  0  0  0  0  0
   45.6210   31.3170   46.3770 F   0  0  0  0  0  0  0  0  0  0  0  0
   48.7890   31.6550   41.3080 O   0  0  0  0  0  0  0  0  0  0  0  0
   50.1260   31.7790   41.0480 C   0  0  0  0  0  0  0  0  0  0  0  0
   50.7270   31.2040   39.9470 C   0  0  0  0  0  0  0  0  0  0  0  0
   50.2930   30.5970   39.1480 H   0  0  0  0  0  0  0  0  0  0  0  0
   52.0760   31.5510   40.0340 C   0  0  0  0  0  0  0  0  0  0  0  0
   52.8940   31.2980   39.3620 H   0  0  0  0  0  0  0  0  0  0  0  0
   52.2140   32.2930   41.1440 N   0  0  0  0  0  0  0  0  0  0  0  0
   53.0890   32.7310   41.5310 H   0  0  0  0  0  0  0  0  0  0  0  0
   51.0610   32.4470   41.7760 N   0  0  0  0  0  0  0  0  0  0  0  0
  1  9  1  0  0  0  0
  2  7  1  0  0  0  0
  2  1  2  0  0  0  0
  3  2  1  0  0  0  0
  4  3  2  0  0  0  0
  4  5  1  0  0  0  0
  5  6  2  0  0  0  0
  6  1  1  0  0  0  0
  8  3  1  0  0  0  0
  9 12  1  6  0  0  0
  9 11  1  0  0  0  0
  9 10  1  0  0  0  0
 10 13  1  1  0  0  0
 10 16  1  0  0  0  0
 11 10  1  0  0  0  0
 11 14  1  0  0  0  0
 15 11  1  0  0  0  0
 16 18  1  0  0  0  0
 16 17  1  0  0  0  0
 19 16  1  0  0  0  0
 20  5  1  0  0  0  0
 21 20  1  0  0  0  0
 21 28  2  0  0  0  0
 22 24  2  0  0  0  0
 22 21  1  0  0  0  0
 23 22  1  0  0  0  0
 24 26  1  0  0  0  0
 25 24  1  0  0  0  0
 26 27  1  0  0  0  0
 26 28  1  0  0  0  0
M  END
>  <minimizedAffinity>
-4.71597815

>  <minimizedRMSD>
6.76904964

$$$$
