
 OpenBabel03242516193D

 27 29  0  0  0  0  0  0  0  0999 V2000
   45.9410   32.8110   47.0600 C   0  0  0  0  0  0  0  0  0  0  0  0
   47.2070   32.4050   47.4310 C   0  0  0  0  0  0  0  0  0  0  0  0
   47.4070   31.5880   48.5310 C   0  0  0  0  0  0  0  0  0  0  0  0
   46.3590   31.1500   49.2980 C   0  0  0  0  0  0  0  0  0  0  0  0
   45.1000   31.5420   48.9480 C   0  0  0  0  0  0  0  0  0  0  0  0
   44.8840   32.3630   47.8440 C   0  0  0  0  0  0  0  0  0  0  0  0
   48.0390   32.7480   46.8280 H   0  0  0  0  0  0  0  0  0  0  0  0
   46.5860   30.5240   50.1330 H   0  0  0  0  0  0  0  0  0  0  0  0
   44.2600   31.2120   49.5340 H   0  0  0  0  0  0  0  0  0  0  0  0
   43.8670   32.6600   47.5860 H   0  0  0  0  0  0  0  0  0  0  0  0
   44.5810   35.4920   44.9890 C   0  0  0  0  0  0  0  0  0  0  0  0
   45.2840   35.3550   43.7730 C   0  0  0  0  0  0  0  0  0  0  0  0
   46.2370   34.3280   43.6670 C   0  0  0  0  0  0  0  0  0  0  0  0
   46.4260   33.5240   44.7450 N   0  0  0  0  0  0  0  0  0  0  0  0
   45.7430   33.6710   45.8980 C   0  0  0  0  0  0  0  0  0  0  0  0
   44.8170   34.6610   46.0180 N   0  0  0  0  0  0  0  0  0  0  0  0
   43.8450   36.2760   45.0870 H   0  0  0  0  0  0  0  0  0  0  0  0
   45.0940   36.0230   42.9490 H   0  0  0  0  0  0  0  0  0  0  0  0
   46.7880   34.2030   42.7470 H   0  0  0  0  0  0  0  0  0  0  0  0
   48.7710   31.1950   48.8680 C   0  0  0  0  0  0  0  0  0  0  0  0
   49.3590   29.9660   48.6310 C   0  0  0  0  0  0  0  0  0  0  0  0
   48.9280   29.0900   48.1640 H   0  0  0  0  0  0  0  0  0  0  0  0
   50.6590   30.0020   49.0990 C   0  0  0  0  0  0  0  0  0  0  0  0
   51.4590   29.2730   49.1170 H   0  0  0  0  0  0  0  0  0  0  0  0
   50.8370   31.2510   49.6120 N   0  0  0  0  0  0  0  0  0  0  0  0
   51.6330   31.7440   50.0690 H   0  0  0  0  0  0  0  0  0  0  0  0
   49.7210   31.9250   49.4640 N   0  0  0  0  0  0  0  0  0  0  0  0
  1  2  2  0  0  0  0
  1  6  1  0  0  0  0
  2  3  1  0  0  0  0
  3 20  1  0  0  0  0
  3  4  2  0  0  0  0
  4  8  1  0  0  0  0
  5  4  1  0  0  0  0
  5  9  1  0  0  0  0
  6  5  2  0  0  0  0
  7  2  1  0  0  0  0
 10  6  1  0  0  0  0
 11 17  1  0  0  0  0
 11 16  1  0  0  0  0
 12 11  2  0  0  0  0
 13 12  1  0  0  0  0
 13 14  2  0  0  0  0
 14 15  1  0  0  0  0
 15 16  2  0  0  0  0
 15  1  1  0  0  0  0
 18 12  1  0  0  0  0
 19 13  1  0  0  0  0
 20 27  2  0  0  0  0
 21 20  1  0  0  0  0
 21 23  2  0  0  0  0
 22 21  1  0  0  0  0
 23 24  1  0  0  0  0
 23 25  1  0  0  0  0
 25 26  1  0  0  0  0
 27 25  1  0  0  0  0
M  END
>  <minimizedAffinity>
-5.52689743

>  <minimizedRMSD>
0.73659569

$$$$
