
 OpenBabel03252502333D

 23 24  0  0  0  0  0  0  0  0999 V2000
   35.6000   29.1320   39.8410 C   0  0  0  0  0  0  0  0  0  0  0  0
   36.2710   30.3810   39.7580 C   0  0  0  0  0  0  0  0  0  0  0  0
   37.2130   30.6640   40.7630 C   0  0  0  0  0  0  0  0  0  0  0  0
   37.4230   29.7450   41.7360 N   0  0  0  0  0  0  0  0  0  0  0  0
   36.7660   28.5730   41.7780 C   0  0  0  0  0  0  0  0  0  0  0  0
   35.8600   28.2690   40.8360 N   0  0  0  0  0  0  0  0  0  0  0  0
   36.0570   31.0670   38.9590 H   0  0  0  0  0  0  0  0  0  0  0  0
   37.9350   31.9190   40.7410 C   0  0  0  0  0  0  0  0  0  0  0  0
   37.5680   33.0270   40.0170 C   0  0  0  0  0  0  0  0  0  0  0  0
   36.7120   33.1480   39.3640 H   0  0  0  0  0  0  0  0  0  0  0  0
   38.5680   33.9550   40.3290 C   0  0  0  0  0  0  0  0  0  0  0  0
   38.6030   34.9600   39.9290 H   0  0  0  0  0  0  0  0  0  0  0  0
   39.4610   33.4180   41.1830 N   0  0  0  0  0  0  0  0  0  0  0  0
   40.3120   33.8620   41.5930 H   0  0  0  0  0  0  0  0  0  0  0  0
   39.0590   32.1750   41.4230 N   0  0  0  0  0  0  0  0  0  0  0  0
   34.6050   28.8430   38.7720 C   0  0  0  0  0  0  0  0  0  0  0  0
   34.6190   27.5220   38.3990 F   0  0  0  0  0  0  0  0  0  0  0  0
   33.3490   29.2300   39.2150 F   0  0  0  0  0  0  0  0  0  0  0  0
   34.8700   29.6610   37.6670 F   0  0  0  0  0  0  0  0  0  0  0  0
   37.0230   27.5890   42.8630 C   0  0  0  0  0  0  0  0  0  0  0  0
   38.0500   28.0090   43.6800 F   0  0  0  0  0  0  0  0  0  0  0  0
   37.2990   26.3330   42.3390 F   0  0  0  0  0  0  0  0  0  0  0  0
   35.9110   27.4160   43.6680 F   0  0  0  0  0  0  0  0  0  0  0  0
  1  6  1  0  0  0  0
  2  1  2  0  0  0  0
  2  3  1  0  0  0  0
  3  4  2  0  0  0  0
  4  5  1  0  0  0  0
  5 20  1  0  0  0  0
  6  5  2  0  0  0  0
  7  2  1  0  0  0  0
  8  3  1  0  0  0  0
  8 15  2  0  0  0  0
  9 11  2  0  0  0  0
  9  8  1  0  0  0  0
 10  9  1  0  0  0  0
 11 13  1  0  0  0  0
 12 11  1  0  0  0  0
 13 15  1  0  0  0  0
 13 14  1  0  0  0  0
 16 18  1  0  0  0  0
 16  1  1  0  0  0  0
 17 16  1  0  0  0  0
 19 16  1  0  0  0  0
 20 23  1  0  0  0  0
 20 21  1  0  0  0  0
 22 20  1  0  0  0  0
M  END
>  <minimizedAffinity>
-5.71797991

$$$$

 OpenBabel03252502333D

 23 24  0  0  0  0  0  0  0  0999 V2000
   36.7020   28.5820   41.7910 C   0  0  0  0  0  0  0  0  0  0  0  0
   37.4420   29.7940   41.8010 C   0  0  0  0  0  0  0  0  0  0  0  0
   37.1830   30.7060   40.7620 C   0  0  0  0  0  0  0  0  0  0  0  0
   36.2580   30.3820   39.8280 N   0  0  0  0  0  0  0  0  0  0  0  0
   35.5780   29.2230   39.8540 C   0  0  0  0  0  0  0  0  0  0  0  0
   35.7990   28.3290   40.8300 N   0  0  0  0  0  0  0  0  0  0  0  0
   38.1630   29.9900   42.5740 H   0  0  0  0  0  0  0  0  0  0  0  0
   37.9020   31.9630   40.7110 C   0  0  0  0  0  0  0  0  0  0  0  0
   37.5410   33.0460   39.9480 C   0  0  0  0  0  0  0  0  0  0  0  0
   36.6930   33.1440   39.2810 H   0  0  0  0  0  0  0  0  0  0  0  0
   38.5340   33.9870   40.2450 C   0  0  0  0  0  0  0  0  0  0  0  0
   38.5710   34.9800   39.8150 H   0  0  0  0  0  0  0  0  0  0  0  0
   39.4170   33.4800   41.1260 N   0  0  0  0  0  0  0  0  0  0  0  0
   40.2610   33.9390   41.5340 H   0  0  0  0  0  0  0  0  0  0  0  0
   39.0160   32.2430   41.3990 N   0  0  0  0  0  0  0  0  0  0  0  0
   36.9840   27.6240   42.8950 C   0  0  0  0  0  0  0  0  0  0  0  0
   35.8790   27.4020   43.6780 F   0  0  0  0  0  0  0  0  0  0  0  0
   37.4630   26.4430   42.3490 F   0  0  0  0  0  0  0  0  0  0  0  0
   38.0380   28.1200   43.6730 F   0  0  0  0  0  0  0  0  0  0  0  0
   34.5700   28.9020   38.8090 C   0  0  0  0  0  0  0  0  0  0  0  0
   33.2980   29.2170   39.2340 F   0  0  0  0  0  0  0  0  0  0  0  0
   34.6440   27.5650   38.4410 F   0  0  0  0  0  0  0  0  0  0  0  0
   34.7960   29.6160   37.6470 F   0  0  0  0  0  0  0  0  0  0  0  0
  1  2  1  0  0  0  0
  1 16  1  0  0  0  0
  2  7  1  0  0  0  0
  3  2  2  0  0  0  0
  4  5  2  0  0  0  0
  4  3  1  0  0  0  0
  5  6  1  0  0  0  0
  6  1  2  0  0  0  0
  8  3  1  0  0  0  0
  8 15  2  0  0  0  0
  9 11  2  0  0  0  0
  9  8  1  0  0  0  0
 10  9  1  0  0  0  0
 11 13  1  0  0  0  0
 12 11  1  0  0  0  0
 13 15  1  0  0  0  0
 13 14  1  0  0  0  0
 16 19  1  0  0  0  0
 16 17  1  0  0  0  0
 18 16  1  0  0  0  0
 20 21  1  0  0  0  0
 20  5  1  0  0  0  0
 22 20  1  0  0  0  0
 23 20  1  0  0  0  0
M  END
>  <minimizedAffinity>
-5.68719244

$$$$

 OpenBabel03252502333D

 23 24  0  0  0  0  0  0  0  0999 V2000
   35.9570   28.9100   39.5390 C   0  0  0  0  0  0  0  0  0  0  0  0
   36.4510   30.2330   39.3860 C   0  0  0  0  0  0  0  0  0  0  0  0
   37.2400   30.7420   40.4310 C   0  0  0  0  0  0  0  0  0  0  0  0
   37.4820   29.9560   41.5070 N   0  0  0  0  0  0  0  0  0  0  0  0
   36.9960   28.7070   41.6140 C   0  0  0  0  0  0  0  0  0  0  0  0
   36.2390   28.1880   40.6360 N   0  0  0  0  0  0  0  0  0  0  0  0
   36.2210   30.8050   38.5050 H   0  0  0  0  0  0  0  0  0  0  0  0
   37.7770   32.0850   40.3410 C   0  0  0  0  0  0  0  0  0  0  0  0
   38.8530   32.5530   41.0540 C   0  0  0  0  0  0  0  0  0  0  0  0
   39.4610   32.0230   41.7770 H   0  0  0  0  0  0  0  0  0  0  0  0
   38.9700   33.8780   40.6180 C   0  0  0  0  0  0  0  0  0  0  0  0
   39.7260   34.5660   40.9740 H   0  0  0  0  0  0  0  0  0  0  0  0
   38.0190   34.1610   39.7070 N   0  0  0  0  0  0  0  0  0  0  0  0
   37.8510   35.0600   39.2040 H   0  0  0  0  0  0  0  0  0  0  0  0
   37.2990   33.0550   39.5500 N   0  0  0  0  0  0  0  0  0  0  0  0
   35.1220   28.3810   38.4260 C   0  0  0  0  0  0  0  0  0  0  0  0
   35.1270   27.0090   38.3860 F   0  0  0  0  0  0  0  0  0  0  0  0
   33.8340   28.8780   38.5600 F   0  0  0  0  0  0  0  0  0  0  0  0
   35.5900   28.9040   37.2150 F   0  0  0  0  0  0  0  0  0  0  0  0
   37.2830   27.8740   42.8110 C   0  0  0  0  0  0  0  0  0  0  0  0
   36.1190   27.5190   43.4590 F   0  0  0  0  0  0  0  0  0  0  0  0
   38.1440   28.5310   43.6800 F   0  0  0  0  0  0  0  0  0  0  0  0
   37.9300   26.6990   42.4710 F   0  0  0  0  0  0  0  0  0  0  0  0
  1  6  1  0  0  0  0
  2  1  2  0  0  0  0
  2  3  1  0  0  0  0
  3  4  2  0  0  0  0
  4  5  1  0  0  0  0
  5 20  1  0  0  0  0
  6  5  2  0  0  0  0
  7  2  1  0  0  0  0
  8  3  1  0  0  0  0
  8  9  1  0  0  0  0
  9 10  1  0  0  0  0
 11 12  1  0  0  0  0
 11  9  2  0  0  0  0
 13 11  1  0  0  0  0
 14 13  1  0  0  0  0
 15 13  1  0  0  0  0
 15  8  2  0  0  0  0
 16 18  1  0  0  0  0
 16  1  1  0  0  0  0
 17 16  1  0  0  0  0
 19 16  1  0  0  0  0
 20 21  1  0  0  0  0
 20 22  1  0  0  0  0
 23 20  1  0  0  0  0
M  END
>  <minimizedAffinity>
-5.22034883

$$$$

 OpenBabel03252502333D

 23 24  0  0  0  0  0  0  0  0999 V2000
   35.4120   28.9610   38.8010 C   0  0  0  0  0  0  0  0  0  0  0  0
   36.3490   29.8040   38.1470 C   0  0  0  0  0  0  0  0  0  0  0  0
   37.5970   29.9710   38.7730 C   0  0  0  0  0  0  0  0  0  0  0  0
   37.8310   29.3290   39.9420 N   0  0  0  0  0  0  0  0  0  0  0  0
   36.9150   28.5380   40.5290 C   0  0  0  0  0  0  0  0  0  0  0  0
   35.7140   28.3550   39.9620 N   0  0  0  0  0  0  0  0  0  0  0  0
   36.1000   30.2840   37.2190 H   0  0  0  0  0  0  0  0  0  0  0  0
   38.6010   30.8180   38.1620 C   0  0  0  0  0  0  0  0  0  0  0  0
   39.9350   30.8220   38.4900 C   0  0  0  0  0  0  0  0  0  0  0  0
   40.4450   30.2190   39.2320 H   0  0  0  0  0  0  0  0  0  0  0  0
   40.4690   31.7920   37.6340 C   0  0  0  0  0  0  0  0  0  0  0  0
   41.5150   32.0680   37.6150 H   0  0  0  0  0  0  0  0  0  0  0  0
   39.5040   32.3180   36.8560 N   0  0  0  0  0  0  0  0  0  0  0  0
   39.5930   33.0580   36.1250 H   0  0  0  0  0  0  0  0  0  0  0  0
   38.3700   31.7120   37.1920 N   0  0  0  0  0  0  0  0  0  0  0  0
   34.0930   28.7900   38.1300 C   0  0  0  0  0  0  0  0  0  0  0  0
   34.0090   29.5160   36.9690 F   0  0  0  0  0  0  0  0  0  0  0  0
   33.8840   27.4390   37.8980 F   0  0  0  0  0  0  0  0  0  0  0  0
   33.0770   29.1700   39.0150 F   0  0  0  0  0  0  0  0  0  0  0  0
   37.2080   27.8510   41.8140 C   0  0  0  0  0  0  0  0  0  0  0  0
   36.1020   27.8440   42.6360 F   0  0  0  0  0  0  0  0  0  0  0  0
   38.2900   28.4380   42.4570 F   0  0  0  0  0  0  0  0  0  0  0  0
   37.5720   26.5310   41.6140 F   0  0  0  0  0  0  0  0  0  0  0  0
  1  6  1  0  0  0  0
  2  3  1  0  0  0  0
  2  1  2  0  0  0  0
  3  4  2  0  0  0  0
  4  5  1  0  0  0  0
  5 20  1  0  0  0  0
  6  5  2  0  0  0  0
  7  2  1  0  0  0  0
  8  9  1  0  0  0  0
  8  3  1  0  0  0  0
  9 10  1  0  0  0  0
 11  9  2  0  0  0  0
 12 11  1  0  0  0  0
 13 15  1  0  0  0  0
 13 11  1  0  0  0  0
 14 13  1  0  0  0  0
 15  8  2  0  0  0  0
 16  1  1  0  0  0  0
 16 19  1  0  0  0  0
 17 16  1  0  0  0  0
 18 16  1  0  0  0  0
 20 22  1  0  0  0  0
 20 21  1  0  0  0  0
 23 20  1  0  0  0  0
M  END
>  <minimizedAffinity>
-4.95659208

$$$$

 OpenBabel03252502333D

 23 24  0  0  0  0  0  0  0  0999 V2000
   37.5160   31.3870   40.3010 C   0  0  0  0  0  0  0  0  0  0  0  0
   36.7010   30.9910   39.2080 C   0  0  0  0  0  0  0  0  0  0  0  0
   36.1200   29.7120   39.2780 C   0  0  0  0  0  0  0  0  0  0  0  0
   36.3660   28.9450   40.3670 N   0  0  0  0  0  0  0  0  0  0  0  0
   37.1450   29.3580   41.3830 C   0  0  0  0  0  0  0  0  0  0  0  0
   37.7150   30.5710   41.3500 N   0  0  0  0  0  0  0  0  0  0  0  0
   36.5460   31.6490   38.3720 H   0  0  0  0  0  0  0  0  0  0  0  0
   35.2770   29.2430   38.1980 C   0  0  0  0  0  0  0  0  0  0  0  0
   33.9670   28.8540   38.3330 C   0  0  0  0  0  0  0  0  0  0  0  0
   33.3630   28.8320   39.2310 H   0  0  0  0  0  0  0  0  0  0  0  0
   33.6070   28.4960   37.0280 C   0  0  0  0  0  0  0  0  0  0  0  0
   32.6250   28.1350   36.7510 H   0  0  0  0  0  0  0  0  0  0  0  0
   34.6460   28.6670   36.1880 N   0  0  0  0  0  0  0  0  0  0  0  0
   34.6840   28.4860   35.1610 H   0  0  0  0  0  0  0  0  0  0  0  0
   35.6570   29.1230   36.9190 N   0  0  0  0  0  0  0  0  0  0  0  0
   38.1250   32.7430   40.2160 C   0  0  0  0  0  0  0  0  0  0  0  0
   37.1940   33.7080   39.9230 F   0  0  0  0  0  0  0  0  0  0  0  0
   38.7760   33.0140   41.4100 F   0  0  0  0  0  0  0  0  0  0  0  0
   39.1340   32.7310   39.2450 F   0  0  0  0  0  0  0  0  0  0  0  0
   37.3920   28.4870   42.5610 C   0  0  0  0  0  0  0  0  0  0  0  0
   38.4330   27.6160   42.3240 F   0  0  0  0  0  0  0  0  0  0  0  0
   36.2440   27.7900   42.9140 F   0  0  0  0  0  0  0  0  0  0  0  0
   37.7310   29.2270   43.6800 F   0  0  0  0  0  0  0  0  0  0  0  0
  1  6  1  0  0  0  0
  2  3  1  0  0  0  0
  2  1  2  0  0  0  0
  3  4  2  0  0  0  0
  4  5  1  0  0  0  0
  5 20  1  0  0  0  0
  6  5  2  0  0  0  0
  7  2  1  0  0  0  0
  8  9  1  0  0  0  0
  8  3  1  0  0  0  0
  9 10  1  0  0  0  0
 11  9  2  0  0  0  0
 12 11  1  0  0  0  0
 13 15  1  0  0  0  0
 13 11  1  0  0  0  0
 14 13  1  0  0  0  0
 15  8  2  0  0  0  0
 16  1  1  0  0  0  0
 16 18  1  0  0  0  0
 17 16  1  0  0  0  0
 19 16  1  0  0  0  0
 20 22  1  0  0  0  0
 20 23  1  0  0  0  0
 21 20  1  0  0  0  0
M  END
>  <minimizedAffinity>
-4.87914228

$$$$

 OpenBabel03252502333D

 23 24  0  0  0  0  0  0  0  0999 V2000
   36.9290   27.3380   41.4910 C   0  0  0  0  0  0  0  0  0  0  0  0
   37.2580   28.7130   41.6290 C   0  0  0  0  0  0  0  0  0  0  0  0
   37.2190   29.4950   40.4610 C   0  0  0  0  0  0  0  0  0  0  0  0
   36.8750   28.9040   39.2930 N   0  0  0  0  0  0  0  0  0  0  0  0
   36.5690   27.5980   39.2050 C   0  0  0  0  0  0  0  0  0  0  0  0
   36.5960   26.8200   40.2980 N   0  0  0  0  0  0  0  0  0  0  0  0
   37.5240   29.1200   42.5880 H   0  0  0  0  0  0  0  0  0  0  0  0
   37.5440   30.9050   40.5280 C   0  0  0  0  0  0  0  0  0  0  0  0
   38.7580   31.4170   40.9160 C   0  0  0  0  0  0  0  0  0  0  0  0
   39.6450   30.8780   41.2270 H   0  0  0  0  0  0  0  0  0  0  0  0
   38.5660   32.8000   40.8120 C   0  0  0  0  0  0  0  0  0  0  0  0
   39.3280   33.5330   41.0430 H   0  0  0  0  0  0  0  0  0  0  0  0
   37.3170   33.0730   40.3890 N   0  0  0  0  0  0  0  0  0  0  0  0
   36.8820   34.0060   40.2170 H   0  0  0  0  0  0  0  0  0  0  0  0
   36.7070   31.9050   40.2210 N   0  0  0  0  0  0  0  0  0  0  0  0
   36.9730   26.5190   42.7340 C   0  0  0  0  0  0  0  0  0  0  0  0
   36.6440   25.2070   42.4980 F   0  0  0  0  0  0  0  0  0  0  0  0
   38.2350   26.6300   43.2960 F   0  0  0  0  0  0  0  0  0  0  0  0
   36.1030   27.0750   43.6790 F   0  0  0  0  0  0  0  0  0  0  0  0
   36.1960   26.9840   37.9030 C   0  0  0  0  0  0  0  0  0  0  0  0
   37.2980   26.8430   37.0880 F   0  0  0  0  0  0  0  0  0  0  0  0
   35.2100   27.7280   37.2680 F   0  0  0  0  0  0  0  0  0  0  0  0
   35.6540   25.7230   38.0710 F   0  0  0  0  0  0  0  0  0  0  0  0
  1  2  1  0  0  0  0
  1 16  1  0  0  0  0
  2  7  1  0  0  0  0
  3  8  1  0  0  0  0
  3  2  2  0  0  0  0
  4  3  1  0  0  0  0
  5  4  2  0  0  0  0
  5  6  1  0  0  0  0
  6  1  2  0  0  0  0
  8  9  1  0  0  0  0
  9 10  1  0  0  0  0
 11  9  2  0  0  0  0
 11 12  1  0  0  0  0
 13 11  1  0  0  0  0
 14 13  1  0  0  0  0
 15 13  1  0  0  0  0
 15  8  2  0  0  0  0
 16 18  1  0  0  0  0
 16 19  1  0  0  0  0
 17 16  1  0  0  0  0
 20 23  1  0  0  0  0
 20  5  1  0  0  0  0
 21 20  1  0  0  0  0
 22 20  1  0  0  0  0
M  END
>  <minimizedAffinity>
-4.87892628

$$$$

 OpenBabel03252502333D

 23 24  0  0  0  0  0  0  0  0999 V2000
   38.0710   27.2000   41.9990 C   0  0  0  0  0  0  0  0  0  0  0  0
   39.2760   27.8270   42.4130 C   0  0  0  0  0  0  0  0  0  0  0  0
   39.3630   29.2190   42.2300 C   0  0  0  0  0  0  0  0  0  0  0  0
   38.3110   29.8700   41.6800 N   0  0  0  0  0  0  0  0  0  0  0  0
   37.1860   29.2380   41.3010 C   0  0  0  0  0  0  0  0  0  0  0  0
   37.0670   27.9110   41.4600 N   0  0  0  0  0  0  0  0  0  0  0  0
   40.0750   27.2510   42.8430 H   0  0  0  0  0  0  0  0  0  0  0  0
   40.5640   29.9240   42.6290 C   0  0  0  0  0  0  0  0  0  0  0  0
   41.7860   29.3380   42.8470 C   0  0  0  0  0  0  0  0  0  0  0  0
   42.0540   28.2920   42.7610 H   0  0  0  0  0  0  0  0  0  0  0  0
   42.5970   30.4220   43.2040 C   0  0  0  0  0  0  0  0  0  0  0  0
   43.6480   30.3330   43.4510 H   0  0  0  0  0  0  0  0  0  0  0  0
   41.8880   31.5670   43.1940 N   0  0  0  0  0  0  0  0  0  0  0  0
   42.2150   32.5320   43.4150 H   0  0  0  0  0  0  0  0  0  0  0  0
   40.6490   31.2440   42.8420 N   0  0  0  0  0  0  0  0  0  0  0  0
   37.9900   25.7260   42.1980 C   0  0  0  0  0  0  0  0  0  0  0  0
   36.7340   25.3270   42.5810 F   0  0  0  0  0  0  0  0  0  0  0  0
   38.3850   25.0970   41.0270 F   0  0  0  0  0  0  0  0  0  0  0  0
   38.9350   25.3410   43.1560 F   0  0  0  0  0  0  0  0  0  0  0  0
   36.0520   29.9870   40.7000 C   0  0  0  0  0  0  0  0  0  0  0  0
   34.8880   29.2520   40.7550 F   0  0  0  0  0  0  0  0  0  0  0  0
   36.3360   30.3530   39.3910 F   0  0  0  0  0  0  0  0  0  0  0  0
   35.8130   31.1740   41.3700 F   0  0  0  0  0  0  0  0  0  0  0  0
  1 16  1  0  0  0  0
  1  2  1  0  0  0  0
  2  7  1  0  0  0  0
  3  2  2  0  0  0  0
  3  8  1  0  0  0  0
  4  3  1  0  0  0  0
  5  6  1  0  0  0  0
  5  4  2  0  0  0  0
  6  1  2  0  0  0  0
  8 15  2  0  0  0  0
  8  9  1  0  0  0  0
  9 11  2  0  0  0  0
 10  9  1  0  0  0  0
 11 12  1  0  0  0  0
 13 11  1  0  0  0  0
 13 14  1  0  0  0  0
 15 13  1  0  0  0  0
 16 17  1  0  0  0  0
 16 19  1  0  0  0  0
 18 16  1  0  0  0  0
 20 21  1  0  0  0  0
 20  5  1  0  0  0  0
 20 23  1  0  0  0  0
 22 20  1  0  0  0  0
M  END
>  <minimizedAffinity>
-4.87418747

$$$$

 OpenBabel03252502333D

 23 24  0  0  0  0  0  0  0  0999 V2000
   37.3040   29.5310   41.3510 C   0  0  0  0  0  0  0  0  0  0  0  0
   36.4460   28.9940   40.3550 C   0  0  0  0  0  0  0  0  0  0  0  0
   36.1480   29.8220   39.2580 C   0  0  0  0  0  0  0  0  0  0  0  0
   36.6880   31.0630   39.2150 N   0  0  0  0  0  0  0  0  0  0  0  0
   37.4980   31.5350   40.1790 C   0  0  0  0  0  0  0  0  0  0  0  0
   37.8030   30.7730   41.2400 N   0  0  0  0  0  0  0  0  0  0  0  0
   36.0500   27.9990   40.4500 H   0  0  0  0  0  0  0  0  0  0  0  0
   35.2790   29.3380   38.2050 C   0  0  0  0  0  0  0  0  0  0  0  0
   34.0120   28.8450   38.3930 C   0  0  0  0  0  0  0  0  0  0  0  0
   33.4660   28.7360   39.3220 H   0  0  0  0  0  0  0  0  0  0  0  0
   33.6030   28.5190   37.0950 C   0  0  0  0  0  0  0  0  0  0  0  0
   32.6360   28.0960   36.8560 H   0  0  0  0  0  0  0  0  0  0  0  0
   34.5740   28.8070   36.2070 N   0  0  0  0  0  0  0  0  0  0  0  0
   34.5640   28.6760   35.1720 H   0  0  0  0  0  0  0  0  0  0  0  0
   35.5910   29.3050   36.9020 N   0  0  0  0  0  0  0  0  0  0  0  0
   37.6120   28.6450   42.5080 C   0  0  0  0  0  0  0  0  0  0  0  0
   38.5770   27.7180   42.2030 F   0  0  0  0  0  0  0  0  0  0  0  0
   37.9900   29.4330   43.5840 F   0  0  0  0  0  0  0  0  0  0  0  0
   36.4370   28.0050   42.9190 F   0  0  0  0  0  0  0  0  0  0  0  0
   38.0710   32.9030   40.0970 C   0  0  0  0  0  0  0  0  0  0  0  0
   37.1010   33.8290   39.7800 F   0  0  0  0  0  0  0  0  0  0  0  0
   39.1110   32.9520   39.1770 F   0  0  0  0  0  0  0  0  0  0  0  0
   38.6270   33.2960   41.3010 F   0  0  0  0  0  0  0  0  0  0  0  0
  1 16  1  0  0  0  0
  2  7  1  0  0  0  0
  2  1  2  0  0  0  0
  3  2  1  0  0  0  0
  4  3  2  0  0  0  0
  4  5  1  0  0  0  0
  5  6  2  0  0  0  0
  6  1  1  0  0  0  0
  8  9  1  0  0  0  0
  8  3  1  0  0  0  0
  9 10  1  0  0  0  0
 11  9  2  0  0  0  0
 12 11  1  0  0  0  0
 13 15  1  0  0  0  0
 13 11  1  0  0  0  0
 14 13  1  0  0  0  0
 15  8  2  0  0  0  0
 16 19  1  0  0  0  0
 16 18  1  0  0  0  0
 17 16  1  0  0  0  0
 20  5  1  0  0  0  0
 20 23  1  0  0  0  0
 21 20  1  0  0  0  0
 22 20  1  0  0  0  0
M  END
>  <minimizedAffinity>
-4.86076689

$$$$

 OpenBabel03252502333D

 23 24  0  0  0  0  0  0  0  0999 V2000
   37.0330   29.1920   41.1900 C   0  0  0  0  0  0  0  0  0  0  0  0
   38.1780   29.9390   41.5760 C   0  0  0  0  0  0  0  0  0  0  0  0
   39.2390   29.2230   42.1550 C   0  0  0  0  0  0  0  0  0  0  0  0
   39.1140   27.8830   42.3080 N   0  0  0  0  0  0  0  0  0  0  0  0
   38.0120   27.2110   41.9280 C   0  0  0  0  0  0  0  0  0  0  0  0
   36.9790   27.8620   41.3720 N   0  0  0  0  0  0  0  0  0  0  0  0
   38.2130   31.0040   41.4270 H   0  0  0  0  0  0  0  0  0  0  0  0
   40.4380   29.9220   42.5720 C   0  0  0  0  0  0  0  0  0  0  0  0
   41.6610   29.3330   42.7810 C   0  0  0  0  0  0  0  0  0  0  0  0
   41.9300   28.2890   42.6750 H   0  0  0  0  0  0  0  0  0  0  0  0
   42.4690   30.4100   43.1630 C   0  0  0  0  0  0  0  0  0  0  0  0
   43.5190   30.3180   43.4110 H   0  0  0  0  0  0  0  0  0  0  0  0
   41.7580   31.5540   43.1740 N   0  0  0  0  0  0  0  0  0  0  0  0
   42.0830   32.5160   43.4160 H   0  0  0  0  0  0  0  0  0  0  0  0
   40.5200   31.2370   42.8120 N   0  0  0  0  0  0  0  0  0  0  0  0
   35.9150   29.9610   40.5780 C   0  0  0  0  0  0  0  0  0  0  0  0
   34.7350   29.2600   40.6000 F   0  0  0  0  0  0  0  0  0  0  0  0
   35.7950   31.1740   41.2390 F   0  0  0  0  0  0  0  0  0  0  0  0
   36.2570   30.2960   39.2620 F   0  0  0  0  0  0  0  0  0  0  0  0
   37.9110   25.7400   42.1130 C   0  0  0  0  0  0  0  0  0  0  0  0
   38.1370   25.0750   40.9270 F   0  0  0  0  0  0  0  0  0  0  0  0
   36.6750   25.3900   42.6400 F   0  0  0  0  0  0  0  0  0  0  0  0
   38.8440   25.2750   43.0210 F   0  0  0  0  0  0  0  0  0  0  0  0
  1  6  2  0  0  0  0
  1  2  1  0  0  0  0
  2  3  2  0  0  0  0
  3  4  1  0  0  0  0
  3  8  1  0  0  0  0
  5 20  1  0  0  0  0
  5  4  2  0  0  0  0
  6  5  1  0  0  0  0
  7  2  1  0  0  0  0
  8  9  1  0  0  0  0
  8 15  2  0  0  0  0
  9 11  2  0  0  0  0
 10  9  1  0  0  0  0
 11 13  1  0  0  0  0
 11 12  1  0  0  0  0
 13 14  1  0  0  0  0
 15 13  1  0  0  0  0
 16 17  1  0  0  0  0
 16  1  1  0  0  0  0
 16 18  1  0  0  0  0
 19 16  1  0  0  0  0
 20 22  1  0  0  0  0
 20 23  1  0  0  0  0
 21 20  1  0  0  0  0
M  END
>  <minimizedAffinity>
-4.826231

$$$$
