
 OpenBabel03252507223D

 46 49  0  0  1  0  0  0  0  0999 V2000
   47.3330   33.6530   42.8550 C   0  0  0  0  0  0  0  0  0  0  0  0
   48.4470   33.4610   43.4580 O   0  0  0  0  0  0  0  0  0  0  0  0
   47.0400   33.1220   41.5690 N   0  0  0  0  0  0  0  0  0  0  0  0
   45.8220   32.4700   41.0670 C   0  0  0  0  0  0  0  0  0  0  0  0
   45.3900   33.1350   39.7700 C   0  0  0  0  0  0  0  0  0  0  0  0
   46.4360   32.9830   38.7070 C   0  0  0  0  0  0  0  0  0  0  0  0
   47.7190   32.4720   39.3370 C   0  0  0  0  0  0  0  0  0  0  0  0
   48.0690   33.2180   40.5720 C   0  0  2  0  0  0  0  0  0  0  0  0
   45.9570   31.3890   40.9560 H   0  0  0  0  0  0  0  0  0  0  0  0
   45.0050   32.7000   41.8050 H   0  0  0  0  0  0  0  0  0  0  0  0
   45.1470   34.1880   40.0160 H   0  0  0  0  0  0  0  0  0  0  0  0
   44.4600   32.5960   39.4560 H   0  0  0  0  0  0  0  0  0  0  0  0
   46.1500   32.3490   37.8630 H   0  0  0  0  0  0  0  0  0  0  0  0
   46.6180   34.0110   38.2780 H   0  0  0  0  0  0  0  0  0  0  0  0
   48.5550   32.5140   38.6150 H   0  0  0  0  0  0  0  0  0  0  0  0
   47.5500   31.3800   39.5180 H   0  0  0  0  0  0  0  0  0  0  0  0
   48.1320   34.2970   40.2950 H   0  0  0  0  0  0  0  0  0  0  0  0
   45.9600   35.6760   42.9370 C   0  0  0  0  0  0  0  0  0  0  0  0
   46.3320   34.4510   43.5270 C   0  0  0  0  0  0  0  0  0  0  0  0
   45.7490   34.0360   44.7110 C   0  0  0  0  0  0  0  0  0  0  0  0
   44.8220   34.8490   45.2670 N   0  0  0  0  0  0  0  0  0  0  0  0
   44.4470   36.0380   44.7150 C   0  0  0  0  0  0  0  0  0  0  0  0
   45.0290   36.4290   43.5520 N   0  0  0  0  0  0  0  0  0  0  0  0
   46.4200   35.9890   42.0130 H   0  0  0  0  0  0  0  0  0  0  0  0
   43.7150   36.6720   45.1600 H   0  0  0  0  0  0  0  0  0  0  0  0
   46.1520   32.7800   45.2860 C   0  0  0  0  0  0  0  0  0  0  0  0
   45.7870   31.6080   44.7150 C   0  0  0  0  0  0  0  0  0  0  0  0
   46.1910   30.4210   45.2930 C   0  0  0  0  0  0  0  0  0  0  0  0
   46.9660   30.3720   46.4500 C   0  0  0  0  0  0  0  0  0  0  0  0
   47.3160   31.6100   46.9990 C   0  0  0  0  0  0  0  0  0  0  0  0
   46.9050   32.7310   46.4100 N   0  0  0  0  0  0  0  0  0  0  0  0
   45.1880   31.5190   43.8190 H   0  0  0  0  0  0  0  0  0  0  0  0
   45.9330   29.4400   44.8880 H   0  0  0  0  0  0  0  0  0  0  0  0
   47.3140   29.5030   46.9510 H   0  0  0  0  0  0  0  0  0  0  0  0
   47.9160   31.7590   47.9000 H   0  0  0  0  0  0  0  0  0  0  0  0
   49.4370   32.8400   41.0460 C   0  0  0  0  0  0  0  0  0  0  0  0
   49.8590   33.4470   41.8460 H   0  0  0  0  0  0  0  0  0  0  0  0
   50.0940   33.0850   40.1640 H   0  0  0  0  0  0  0  0  0  0  0  0
   49.6090   31.3740   41.2370 C   0  0  0  0  0  0  0  0  0  0  0  0
   50.5360   30.9340   42.1600 C   0  0  0  0  0  0  0  0  0  0  0  0
   51.2360   31.4250   42.8480 H   0  0  0  0  0  0  0  0  0  0  0  0
   50.4830   29.5390   42.1260 C   0  0  0  0  0  0  0  0  0  0  0  0
   51.0440   28.7970   42.6920 H   0  0  0  0  0  0  0  0  0  0  0  0
   49.5440   29.1850   41.2010 N   0  0  0  0  0  0  0  0  0  0  0  0
   49.2890   28.1980   40.9610 H   0  0  0  0  0  0  0  0  0  0  0  0
   49.0420   30.3080   40.6890 N   0  0  0  0  0  0  0  0  0  0  0  0
  1  2  2  0  0  0  0
  1 19  1  0  0  0  0
  3  1  1  0  0  0  0
  4  3  1  0  0  0  0
  4 10  1  0  0  0  0
  5 11  1  0  0  0  0
  5  4  1  0  0  0  0
  6  7  1  0  0  0  0
  6  5  1  0  0  0  0
  7 16  1  0  0  0  0
  7  8  1  0  0  0  0
  8 17  1  6  0  0  0
  8 36  1  0  0  0  0
  8  3  1  0  0  0  0
  9  4  1  0  0  0  0
 12  5  1  0  0  0  0
 13  6  1  0  0  0  0
 14  6  1  0  0  0  0
 15  7  1  0  0  0  0
 18 19  2  0  0  0  0
 18 23  1  0  0  0  0
 19 20  1  0  0  0  0
 20 21  2  0  0  0  0
 20 26  1  0  0  0  0
 22 25  1  0  0  0  0
 22 21  1  0  0  0  0
 23 22  2  0  0  0  0
 24 18  1  0  0  0  0
 26 31  1  0  0  0  0
 27 26  2  0  0  0  0
 27 28  1  0  0  0  0
 28 29  2  0  0  0  0
 29 34  1  0  0  0  0
 29 30  1  0  0  0  0
 30 35  1  0  0  0  0
 31 30  2  0  0  0  0
 32 27  1  0  0  0  0
 33 28  1  0  0  0  0
 36 39  1  0  0  0  0
 36 37  1  0  0  0  0
 38 36  1  0  0  0  0
 39 40  1  0  0  0  0
 40 41  1  0  0  0  0
 42 40  2  0  0  0  0
 42 43  1  0  0  0  0
 44 42  1  0  0  0  0
 45 44  1  0  0  0  0
 46 44  1  0  0  0  0
 46 39  2  0  0  0  0
M  END
>  <minimizedAffinity>
-4.84311724

>  <minimizedRMSD>
0.252024531

$$$$
