
 OpenBabel03252507223D

 46 49  0  0  1  0  0  0  0  0999 V2000
   47.3240   33.7020   42.8400 C   0  0  0  0  0  0  0  0  0  0  0  0
   48.4460   33.5200   43.4300 O   0  0  0  0  0  0  0  0  0  0  0  0
   47.0230   33.1770   41.5530 N   0  0  0  0  0  0  0  0  0  0  0  0
   45.8080   32.5130   41.0610 C   0  0  0  0  0  0  0  0  0  0  0  0
   45.3540   33.1800   39.7720 C   0  0  0  0  0  0  0  0  0  0  0  0
   46.3910   33.0480   38.6970 C   0  0  0  0  0  0  0  0  0  0  0  0
   47.6860   32.5480   39.3100 C   0  0  0  0  0  0  0  0  0  0  0  0
   48.0400   33.2910   40.5460 C   0  0  2  0  0  0  0  0  0  0  0  0
   45.9540   31.4340   40.9410 H   0  0  0  0  0  0  0  0  0  0  0  0
   44.9960   32.7290   41.8090 H   0  0  0  0  0  0  0  0  0  0  0  0
   45.1010   34.2290   40.0280 H   0  0  0  0  0  0  0  0  0  0  0  0
   44.4270   32.6330   39.4640 H   0  0  0  0  0  0  0  0  0  0  0  0
   46.1030   32.4160   37.8520 H   0  0  0  0  0  0  0  0  0  0  0  0
   46.5560   34.0810   38.2730 H   0  0  0  0  0  0  0  0  0  0  0  0
   48.5140   32.6050   38.5800 H   0  0  0  0  0  0  0  0  0  0  0  0
   47.5320   31.4540   39.4860 H   0  0  0  0  0  0  0  0  0  0  0  0
   48.0870   34.3730   40.2760 H   0  0  0  0  0  0  0  0  0  0  0  0
   45.9380   35.7150   42.9570 C   0  0  0  0  0  0  0  0  0  0  0  0
   46.3200   34.4840   43.5280 C   0  0  0  0  0  0  0  0  0  0  0  0
   45.7450   34.0490   44.7080 C   0  0  0  0  0  0  0  0  0  0  0  0
   44.8160   34.8470   45.2800 N   0  0  0  0  0  0  0  0  0  0  0  0
   44.4310   36.0410   44.7460 C   0  0  0  0  0  0  0  0  0  0  0  0
   45.0050   36.4530   43.5870 N   0  0  0  0  0  0  0  0  0  0  0  0
   46.3920   36.0450   42.0360 H   0  0  0  0  0  0  0  0  0  0  0  0
   43.6960   36.6640   45.2040 H   0  0  0  0  0  0  0  0  0  0  0  0
   46.1590   32.7870   45.2630 C   0  0  0  0  0  0  0  0  0  0  0  0
   45.8090   31.6210   44.6700 C   0  0  0  0  0  0  0  0  0  0  0  0
   46.2230   30.4280   45.2290 C   0  0  0  0  0  0  0  0  0  0  0  0
   46.9930   30.3670   46.3890 C   0  0  0  0  0  0  0  0  0  0  0  0
   47.3270   31.6000   46.9610 C   0  0  0  0  0  0  0  0  0  0  0  0
   46.9070   32.7260   46.3890 N   0  0  0  0  0  0  0  0  0  0  0  0
   45.2150   31.5410   43.7700 H   0  0  0  0  0  0  0  0  0  0  0  0
   45.9770   29.4520   44.8060 H   0  0  0  0  0  0  0  0  0  0  0  0
   47.3480   29.4930   46.8770 H   0  0  0  0  0  0  0  0  0  0  0  0
   47.9220   31.7390   47.8670 H   0  0  0  0  0  0  0  0  0  0  0  0
   49.4180   32.9260   41.0040 C   0  0  0  0  0  0  0  0  0  0  0  0
   49.7370   33.3370   41.9600 H   0  0  0  0  0  0  0  0  0  0  0  0
   50.0840   33.4530   40.2640 H   0  0  0  0  0  0  0  0  0  0  0  0
   49.7350   31.4840   40.8230 C   0  0  0  0  0  0  0  0  0  0  0  0
   49.2930   30.5870   41.7750 C   0  0  0  0  0  0  0  0  0  0  0  0
   48.7210   30.6690   42.7070 H   0  0  0  0  0  0  0  0  0  0  0  0
   49.7290   29.3290   41.3520 C   0  0  0  0  0  0  0  0  0  0  0  0
   49.5980   28.3490   41.8070 H   0  0  0  0  0  0  0  0  0  0  0  0
   50.4070   29.5000   40.1820 N   0  0  0  0  0  0  0  0  0  0  0  0
   50.8500   28.7250   39.6330 H   0  0  0  0  0  0  0  0  0  0  0  0
   50.3920   30.8020   39.8940 N   0  0  0  0  0  0  0  0  0  0  0  0
  1  2  2  0  0  0  0
  1 19  1  0  0  0  0
  3  1  1  0  0  0  0
  4  3  1  0  0  0  0
  4 10  1  0  0  0  0
  5 11  1  0  0  0  0
  5  4  1  0  0  0  0
  6  7  1  0  0  0  0
  6  5  1  0  0  0  0
  7 16  1  0  0  0  0
  7  8  1  0  0  0  0
  8 17  1  6  0  0  0
  8 36  1  0  0  0  0
  8  3  1  0  0  0  0
  9  4  1  0  0  0  0
 12  5  1  0  0  0  0
 13  6  1  0  0  0  0
 14  6  1  0  0  0  0
 15  7  1  0  0  0  0
 18 19  2  0  0  0  0
 18 23  1  0  0  0  0
 19 20  1  0  0  0  0
 20 26  1  0  0  0  0
 20 21  2  0  0  0  0
 22 25  1  0  0  0  0
 22 21  1  0  0  0  0
 23 22  2  0  0  0  0
 24 18  1  0  0  0  0
 26 31  1  0  0  0  0
 27 28  1  0  0  0  0
 27 26  2  0  0  0  0
 28 29  2  0  0  0  0
 29 34  1  0  0  0  0
 29 30  1  0  0  0  0
 30 35  1  0  0  0  0
 31 30  2  0  0  0  0
 32 27  1  0  0  0  0
 33 28  1  0  0  0  0
 36 37  1  0  0  0  0
 38 36  1  0  0  0  0
 39 36  1  0  0  0  0
 39 40  1  0  0  0  0
 40 41  1  0  0  0  0
 42 40  2  0  0  0  0
 42 43  1  0  0  0  0
 44 42  1  0  0  0  0
 45 44  1  0  0  0  0
 46 44  1  0  0  0  0
 46 39  2  0  0  0  0
M  END
>  <minimizedAffinity>
-4.86630535

>  <minimizedRMSD>
0.695896864

$$$$
