
 OpenBabel03242522283D

 37 40  0  0  0  0  0  0  0  0999 V2000
   38.1500   27.9020   39.6690 F   0  0  0  0  0  0  0  0  0  0  0  0
   37.9680   28.0300   41.0210 C   0  0  0  0  0  0  0  0  0  0  0  0
   37.8900   29.2710   41.5700 C   0  0  0  0  0  0  0  0  0  0  0  0
   37.6080   29.3140   42.9170 C   0  0  0  0  0  0  0  0  0  0  0  0
   37.4170   28.1830   43.6800 C   0  0  0  0  0  0  0  0  0  0  0  0
   37.5160   26.9920   43.0500 C   0  0  0  0  0  0  0  0  0  0  0  0
   37.7910   26.8810   41.7210 C   0  0  0  0  0  0  0  0  0  0  0  0
   37.5650   30.3740   43.2610 H   0  0  0  0  0  0  0  0  0  0  0  0
   37.2130   28.4990   44.6920 H   0  0  0  0  0  0  0  0  0  0  0  0
   37.2870   26.3550   43.8520 H   0  0  0  0  0  0  0  0  0  0  0  0
   37.7640   25.5470   41.1420 C   0  0  0  0  0  0  0  0  0  0  0  0
   36.5560   25.0560   40.6350 C   0  0  0  0  0  0  0  0  0  0  0  0
   36.4850   23.7490   40.2400 C   0  0  0  0  0  0  0  0  0  0  0  0
   37.5890   22.9280   40.3420 C   0  0  0  0  0  0  0  0  0  0  0  0
   38.7770   23.4730   40.8540 C   0  0  0  0  0  0  0  0  0  0  0  0
   38.8690   24.7770   41.2500 C   0  0  0  0  0  0  0  0  0  0  0  0
   35.6210   25.5250   40.4930 H   0  0  0  0  0  0  0  0  0  0  0  0
   35.5830   23.2710   39.8300 H   0  0  0  0  0  0  0  0  0  0  0  0
   37.4980   21.8700   40.0180 H   0  0  0  0  0  0  0  0  0  0  0  0
   39.5560   22.7060   40.8760 H   0  0  0  0  0  0  0  0  0  0  0  0
   40.2300   25.0120   41.6110 C   0  0  0  0  0  0  0  0  0  0  0  0
   41.2830   25.7610   41.0330 C   0  0  0  0  0  0  0  0  0  0  0  0
   41.1320   26.2680   40.0890 H   0  0  0  0  0  0  0  0  0  0  0  0
   42.3310   25.6150   41.9510 C   0  0  0  0  0  0  0  0  0  0  0  0
   43.2690   26.0950   41.7480 H   0  0  0  0  0  0  0  0  0  0  0  0
   41.9360   24.8520   42.9750 N   0  0  0  0  0  0  0  0  0  0  0  0
   42.5260   24.5860   43.7980 H   0  0  0  0  0  0  0  0  0  0  0  0
   40.6820   24.4760   42.7970 N   0  0  0  0  0  0  0  0  0  0  0  0
   37.3180   32.3940   39.5260 C   0  0  0  0  0  0  0  0  0  0  0  0
   37.0790   31.2790   40.3230 C   0  0  0  0  0  0  0  0  0  0  0  0
   38.1270   30.4310   40.7410 C   0  0  0  0  0  0  0  0  0  0  0  0
   39.3540   30.7680   40.3240 N   0  0  0  0  0  0  0  0  0  0  0  0
   39.5660   31.8500   39.5520 C   0  0  0  0  0  0  0  0  0  0  0  0
   38.5620   32.6530   39.1570 N   0  0  0  0  0  0  0  0  0  0  0  0
   36.3780   32.9020   39.3210 H   0  0  0  0  0  0  0  0  0  0  0  0
   36.0970   30.9520   40.6960 H   0  0  0  0  0  0  0  0  0  0  0  0
   40.5800   32.0720   39.2460 H   0  0  0  0  0  0  0  0  0  0  0  0
  1  2  1  0  0  0  0
  2  3  2  0  0  0  0
  2  7  1  0  0  0  0
  3  4  1  0  0  0  0
  4  8  1  0  0  0  0
  4  5  2  0  0  0  0
  5  9  1  0  0  0  0
  6  5  1  0  0  0  0
  6 10  1  0  0  0  0
  7  6  2  0  0  0  0
 11 16  1  0  0  0  0
 11  7  1  0  0  0  0
 12 11  2  0  0  0  0
 13 14  2  0  0  0  0
 13 12  1  0  0  0  0
 14 15  1  0  0  0  0
 15 20  1  0  0  0  0
 15 16  2  0  0  0  0
 16 21  1  0  0  0  0
 17 12  1  0  0  0  0
 18 13  1  0  0  0  0
 19 14  1  0  0  0  0
 21 28  2  0  0  0  0
 22 21  1  0  0  0  0
 22 24  2  0  0  0  0
 23 22  1  0  0  0  0
 24 26  1  0  0  0  0
 25 24  1  0  0  0  0
 26 27  1  0  0  0  0
 28 26  1  0  0  0  0
 29 30  1  0  0  0  0
 30 36  1  0  0  0  0
 30 31  2  0  0  0  0
 31  3  1  0  0  0  0
 32 31  1  0  0  0  0
 33 32  2  0  0  0  0
 34 29  2  0  0  0  0
 34 33  1  0  0  0  0
 35 29  1  0  0  0  0
 37 33  1  0  0  0  0
M  END
>  <minimizedAffinity>
-6.05947018

$$$$

 OpenBabel03242522283D

 37 40  0  0  0  0  0  0  0  0999 V2000
   39.4260   27.0610   40.6960 F   0  0  0  0  0  0  0  0  0  0  0  0
   38.4910   27.3940   41.6400 C   0  0  0  0  0  0  0  0  0  0  0  0
   37.4720   26.5340   41.9040 C   0  0  0  0  0  0  0  0  0  0  0  0
   36.6320   26.8970   42.9330 C   0  0  0  0  0  0  0  0  0  0  0  0
   36.7950   28.0570   43.6600 C   0  0  0  0  0  0  0  0  0  0  0  0
   37.8340   28.8530   43.3260 C   0  0  0  0  0  0  0  0  0  0  0  0
   38.7000   28.5500   42.3200 C   0  0  0  0  0  0  0  0  0  0  0  0
   35.8390   26.1250   43.0650 H   0  0  0  0  0  0  0  0  0  0  0  0
   36.0080   28.0950   44.3980 H   0  0  0  0  0  0  0  0  0  0  0  0
   37.7200   29.5980   44.0550 H   0  0  0  0  0  0  0  0  0  0  0  0
   39.8390   29.4340   42.1300 C   0  0  0  0  0  0  0  0  0  0  0  0
   41.0500   29.1200   42.7560 C   0  0  0  0  0  0  0  0  0  0  0  0
   42.0730   30.0260   42.7170 C   0  0  0  0  0  0  0  0  0  0  0  0
   41.9100   31.2350   42.0700 C   0  0  0  0  0  0  0  0  0  0  0  0
   40.6770   31.4970   41.4550 C   0  0  0  0  0  0  0  0  0  0  0  0
   39.6450   30.6030   41.4790 C   0  0  0  0  0  0  0  0  0  0  0  0
   41.3500   28.2640   43.2970 H   0  0  0  0  0  0  0  0  0  0  0  0
   43.0590   29.8710   43.1780 H   0  0  0  0  0  0  0  0  0  0  0  0
   42.7580   31.9510   42.0600 H   0  0  0  0  0  0  0  0  0  0  0  0
   40.6990   32.4870   40.9890 H   0  0  0  0  0  0  0  0  0  0  0  0
   38.5970   31.1470   40.6760 C   0  0  0  0  0  0  0  0  0  0  0  0
   37.9000   30.6900   39.5310 C   0  0  0  0  0  0  0  0  0  0  0  0
   38.1780   29.7540   39.0660 H   0  0  0  0  0  0  0  0  0  0  0  0
   36.9460   31.6910   39.3080 C   0  0  0  0  0  0  0  0  0  0  0  0
   36.2710   31.5890   38.4800 H   0  0  0  0  0  0  0  0  0  0  0  0
   37.0670   32.6500   40.2320 N   0  0  0  0  0  0  0  0  0  0  0  0
   36.4770   33.5120   40.2940 H   0  0  0  0  0  0  0  0  0  0  0  0
   38.0490   32.3500   41.0640 N   0  0  0  0  0  0  0  0  0  0  0  0
   37.6970   22.9580   40.7130 C   0  0  0  0  0  0  0  0  0  0  0  0
   37.8500   24.0980   41.4950 C   0  0  0  0  0  0  0  0  0  0  0  0
   37.3190   25.3440   41.0990 C   0  0  0  0  0  0  0  0  0  0  0  0
   36.6650   25.3560   39.9300 N   0  0  0  0  0  0  0  0  0  0  0  0
   36.5270   24.2420   39.1860 C   0  0  0  0  0  0  0  0  0  0  0  0
   37.0370   23.0590   39.5710 N   0  0  0  0  0  0  0  0  0  0  0  0
   38.1800   22.1140   41.2020 H   0  0  0  0  0  0  0  0  0  0  0  0
   38.3760   24.1510   42.4610 H   0  0  0  0  0  0  0  0  0  0  0  0
   35.9880   24.3130   38.2510 H   0  0  0  0  0  0  0  0  0  0  0  0
  1  2  1  0  0  0  0
  2  3  2  0  0  0  0
  2  7  1  0  0  0  0
  3  4  1  0  0  0  0
  4  8  1  0  0  0  0
  4  5  2  0  0  0  0
  5  9  1  0  0  0  0
  6  5  1  0  0  0  0
  6 10  1  0  0  0  0
  7  6  2  0  0  0  0
 11  7  1  0  0  0  0
 11 12  1  0  0  0  0
 12 17  1  0  0  0  0
 13 12  2  0  0  0  0
 13 18  1  0  0  0  0
 14 13  1  0  0  0  0
 15 16  1  0  0  0  0
 15 14  2  0  0  0  0
 16 11  2  0  0  0  0
 19 14  1  0  0  0  0
 20 15  1  0  0  0  0
 21 28  2  0  0  0  0
 21 16  1  0  0  0  0
 22 21  1  0  0  0  0
 23 22  1  0  0  0  0
 24 22  2  0  0  0  0
 24 26  1  0  0  0  0
 25 24  1  0  0  0  0
 26 27  1  0  0  0  0
 26 28  1  0  0  0  0
 29 35  1  0  0  0  0
 29 30  1  0  0  0  0
 30 36  1  0  0  0  0
 31 30  2  0  0  0  0
 31  3  1  0  0  0  0
 32 31  1  0  0  0  0
 33 34  1  0  0  0  0
 33 32  2  0  0  0  0
 34 29  2  0  0  0  0
 37 33  1  0  0  0  0
M  END
>  <minimizedAffinity>
-6.05402851

$$$$

 OpenBabel03242522283D

 37 40  0  0  0  0  0  0  0  0999 V2000
   36.9800   26.9750   39.0100 F   0  0  0  0  0  0  0  0  0  0  0  0
   36.7170   27.9890   39.8920 C   0  0  0  0  0  0  0  0  0  0  0  0
   37.1720   27.8990   41.1700 C   0  0  0  0  0  0  0  0  0  0  0  0
   36.9510   29.0030   41.9640 C   0  0  0  0  0  0  0  0  0  0  0  0
   36.3080   30.1350   41.5120 C   0  0  0  0  0  0  0  0  0  0  0  0
   35.8880   30.1350   40.2280 C   0  0  0  0  0  0  0  0  0  0  0  0
   36.0770   29.0770   39.3920 C   0  0  0  0  0  0  0  0  0  0  0  0
   37.3630   28.8240   42.9830 H   0  0  0  0  0  0  0  0  0  0  0  0
   36.2700   30.8400   42.3300 H   0  0  0  0  0  0  0  0  0  0  0  0
   35.4950   31.1060   40.1770 H   0  0  0  0  0  0  0  0  0  0  0  0
   35.6740   29.2420   38.0040 C   0  0  0  0  0  0  0  0  0  0  0  0
   34.4630   28.6850   37.5820 C   0  0  0  0  0  0  0  0  0  0  0  0
   34.1560   28.6930   36.2500 C   0  0  0  0  0  0  0  0  0  0  0  0
   35.0320   29.2440   35.3350 C   0  0  0  0  0  0  0  0  0  0  0  0
   36.2310   29.7940   35.8140 C   0  0  0  0  0  0  0  0  0  0  0  0
   36.5530   29.7980   37.1410 C   0  0  0  0  0  0  0  0  0  0  0  0
   33.6860   28.2180   38.1250 H   0  0  0  0  0  0  0  0  0  0  0  0
   33.2310   28.2800   35.8210 H   0  0  0  0  0  0  0  0  0  0  0  0
   34.7560   29.2310   34.2600 H   0  0  0  0  0  0  0  0  0  0  0  0
   36.8170   30.1870   34.9770 H   0  0  0  0  0  0  0  0  0  0  0  0
   37.7770   30.5220   37.2750 C   0  0  0  0  0  0  0  0  0  0  0  0
   39.0390   30.2190   37.8410 C   0  0  0  0  0  0  0  0  0  0  0  0
   39.1950   29.2720   38.3410 H   0  0  0  0  0  0  0  0  0  0  0  0
   39.8050   31.3570   37.5580 C   0  0  0  0  0  0  0  0  0  0  0  0
   40.8270   31.3890   37.8860 H   0  0  0  0  0  0  0  0  0  0  0  0
   39.0670   32.2480   36.8890 N   0  0  0  0  0  0  0  0  0  0  0  0
   39.3980   33.1850   36.5570 H   0  0  0  0  0  0  0  0  0  0  0  0
   37.8470   31.7740   36.7060 N   0  0  0  0  0  0  0  0  0  0  0  0
   37.7270   24.3130   42.2090 C   0  0  0  0  0  0  0  0  0  0  0  0
   37.0980   25.4790   41.7830 C   0  0  0  0  0  0  0  0  0  0  0  0
   37.8130   26.6830   41.6120 C   0  0  0  0  0  0  0  0  0  0  0  0
   39.1230   26.6300   41.8850 N   0  0  0  0  0  0  0  0  0  0  0  0
   39.7130   25.4920   42.2970 C   0  0  0  0  0  0  0  0  0  0  0  0
   39.0250   24.3480   42.4570 N   0  0  0  0  0  0  0  0  0  0  0  0
   36.9960   23.5090   42.2730 H   0  0  0  0  0  0  0  0  0  0  0  0
   36.0300   25.5840   41.5440 H   0  0  0  0  0  0  0  0  0  0  0  0
   40.7760   25.5100   42.5020 H   0  0  0  0  0  0  0  0  0  0  0  0
  1  2  1  0  0  0  0
  2  3  1  0  0  0  0
  3 31  1  0  0  0  0
  3  4  2  0  0  0  0
  4  8  1  0  0  0  0
  5  4  1  0  0  0  0
  5  9  1  0  0  0  0
  6  5  2  0  0  0  0
  7  2  2  0  0  0  0
  7  6  1  0  0  0  0
 10  6  1  0  0  0  0
 11  7  1  0  0  0  0
 12 11  1  0  0  0  0
 12 17  1  0  0  0  0
 13 12  2  0  0  0  0
 14 15  2  0  0  0  0
 14 13  1  0  0  0  0
 15 16  1  0  0  0  0
 16 21  1  0  0  0  0
 16 11  2  0  0  0  0
 18 13  1  0  0  0  0
 19 14  1  0  0  0  0
 20 15  1  0  0  0  0
 21 22  1  0  0  0  0
 22 23  1  0  0  0  0
 24 22  2  0  0  0  0
 24 25  1  0  0  0  0
 26 24  1  0  0  0  0
 27 26  1  0  0  0  0
 28 26  1  0  0  0  0
 28 21  2  0  0  0  0
 29 35  1  0  0  0  0
 29 34  1  0  0  0  0
 30 29  2  0  0  0  0
 31 30  1  0  0  0  0
 31 32  2  0  0  0  0
 32 33  1  0  0  0  0
 33 34  2  0  0  0  0
 33 37  1  0  0  0  0
 36 30  1  0  0  0  0
M  END
>  <minimizedAffinity>
-6.02381182

$$$$

 OpenBabel03242522283D

 37 40  0  0  0  0  0  0  0  0999 V2000
   39.4300   27.4090   40.3430 F   0  0  0  0  0  0  0  0  0  0  0  0
   38.5650   27.4560   41.4030 C   0  0  0  0  0  0  0  0  0  0  0  0
   39.0410   27.2690   42.6630 C   0  0  0  0  0  0  0  0  0  0  0  0
   38.1250   27.4310   43.6790 C   0  0  0  0  0  0  0  0  0  0  0  0
   36.8050   27.7570   43.4550 C   0  0  0  0  0  0  0  0  0  0  0  0
   36.4210   27.9210   42.1700 C   0  0  0  0  0  0  0  0  0  0  0  0
   37.2770   27.7770   41.1210 C   0  0  0  0  0  0  0  0  0  0  0  0
   38.6190   27.2580   44.6630 H   0  0  0  0  0  0  0  0  0  0  0  0
   36.3150   27.8200   44.4150 H   0  0  0  0  0  0  0  0  0  0  0  0
   35.4190   28.1940   42.3250 H   0  0  0  0  0  0  0  0  0  0  0  0
   36.7650   28.0850   39.7940 C   0  0  0  0  0  0  0  0  0  0  0  0
   36.2010   27.0570   39.0330 C   0  0  0  0  0  0  0  0  0  0  0  0
   35.8690   27.3010   37.7300 C   0  0  0  0  0  0  0  0  0  0  0  0
   36.0910   28.5450   37.1740 C   0  0  0  0  0  0  0  0  0  0  0  0
   36.6560   29.5420   37.9840 C   0  0  0  0  0  0  0  0  0  0  0  0
   36.9900   29.3190   39.2890 C   0  0  0  0  0  0  0  0  0  0  0  0
   35.9700   26.0560   39.2800 H   0  0  0  0  0  0  0  0  0  0  0  0
   35.4220   26.5590   37.0520 H   0  0  0  0  0  0  0  0  0  0  0  0
   35.8150   28.7100   36.1120 H   0  0  0  0  0  0  0  0  0  0  0  0
   36.7710   30.4640   37.4080 H   0  0  0  0  0  0  0  0  0  0  0  0
   37.4330   30.5640   39.8300 C   0  0  0  0  0  0  0  0  0  0  0  0
   38.7070   31.1140   40.1100 C   0  0  0  0  0  0  0  0  0  0  0  0
   39.5990   30.5220   39.9530 H   0  0  0  0  0  0  0  0  0  0  0  0
   38.4120   32.4080   40.5580 C   0  0  0  0  0  0  0  0  0  0  0  0
   39.2200   33.0540   40.8440 H   0  0  0  0  0  0  0  0  0  0  0  0
   37.0900   32.6050   40.5450 N   0  0  0  0  0  0  0  0  0  0  0  0
   36.6040   33.4860   40.8330 H   0  0  0  0  0  0  0  0  0  0  0  0
   36.4790   31.5160   40.1130 N   0  0  0  0  0  0  0  0  0  0  0  0
   42.7540   27.4880   43.3070 C   0  0  0  0  0  0  0  0  0  0  0  0
   41.4250   27.8560   43.1250 C   0  0  0  0  0  0  0  0  0  0  0  0
   40.4240   26.8990   42.8530 C   0  0  0  0  0  0  0  0  0  0  0  0
   40.8350   25.6270   42.7810 N   0  0  0  0  0  0  0  0  0  0  0  0
   42.1260   25.2900   42.9590 C   0  0  0  0  0  0  0  0  0  0  0  0
   43.0740   26.2080   43.2190 N   0  0  0  0  0  0  0  0  0  0  0  0
   43.3530   28.3750   43.5040 H   0  0  0  0  0  0  0  0  0  0  0  0
   41.0280   28.8810   43.1720 H   0  0  0  0  0  0  0  0  0  0  0  0
   42.3990   24.2450   42.8900 H   0  0  0  0  0  0  0  0  0  0  0  0
  1  2  1  0  0  0  0
  2  3  1  0  0  0  0
  3 31  1  0  0  0  0
  3  4  2  0  0  0  0
  4  8  1  0  0  0  0
  5  4  1  0  0  0  0
  5  9  1  0  0  0  0
  6 10  1  0  0  0  0
  6  5  2  0  0  0  0
  7  2  2  0  0  0  0
  7  6  1  0  0  0  0
 11  7  1  0  0  0  0
 12 17  1  0  0  0  0
 12 11  2  0  0  0  0
 13 12  1  0  0  0  0
 14 13  2  0  0  0  0
 14 15  1  0  0  0  0
 15 16  2  0  0  0  0
 16 11  1  0  0  0  0
 16 21  1  0  0  0  0
 18 13  1  0  0  0  0
 19 14  1  0  0  0  0
 20 15  1  0  0  0  0
 21 22  1  0  0  0  0
 21 28  2  0  0  0  0
 22 24  2  0  0  0  0
 23 22  1  0  0  0  0
 24 25  1  0  0  0  0
 26 24  1  0  0  0  0
 26 27  1  0  0  0  0
 28 26  1  0  0  0  0
 29 35  1  0  0  0  0
 30 36  1  0  0  0  0
 30 29  2  0  0  0  0
 31 30  1  0  0  0  0
 32 31  2  0  0  0  0
 32 33  1  0  0  0  0
 33 34  2  0  0  0  0
 34 29  1  0  0  0  0
 37 33  1  0  0  0  0
M  END
>  <minimizedAffinity>
-5.98420811

$$$$

 OpenBabel03242522283D

 37 40  0  0  0  0  0  0  0  0999 V2000
   38.8410   28.4230   39.6690 F   0  0  0  0  0  0  0  0  0  0  0  0
   37.6170   28.7370   39.1430 C   0  0  0  0  0  0  0  0  0  0  0  0
   37.4430   29.9330   38.5210 C   0  0  0  0  0  0  0  0  0  0  0  0
   36.2130   30.1300   37.9340 C   0  0  0  0  0  0  0  0  0  0  0  0
   35.2070   29.1890   37.9660 C   0  0  0  0  0  0  0  0  0  0  0  0
   35.4680   28.0300   38.6090 C   0  0  0  0  0  0  0  0  0  0  0  0
   36.6630   27.7730   39.2080 C   0  0  0  0  0  0  0  0  0  0  0  0
   36.1800   31.1360   37.4540 H   0  0  0  0  0  0  0  0  0  0  0  0
   34.3590   29.5960   37.4350 H   0  0  0  0  0  0  0  0  0  0  0  0
   34.5640   27.5280   38.4290 H   0  0  0  0  0  0  0  0  0  0  0  0
   36.8560   26.4470   39.7740 C   0  0  0  0  0  0  0  0  0  0  0  0
   36.6820   25.3300   38.9490 C   0  0  0  0  0  0  0  0  0  0  0  0
   36.7000   24.0830   39.5090 C   0  0  0  0  0  0  0  0  0  0  0  0
   36.8850   23.9300   40.8690 C   0  0  0  0  0  0  0  0  0  0  0  0
   37.0580   25.0840   41.6480 C   0  0  0  0  0  0  0  0  0  0  0  0
   37.0480   26.3380   41.1070 C   0  0  0  0  0  0  0  0  0  0  0  0
   36.5210   25.2540   37.9090 H   0  0  0  0  0  0  0  0  0  0  0  0
   36.5720   23.1460   38.9460 H   0  0  0  0  0  0  0  0  0  0  0  0
   36.8890   22.9040   41.2930 H   0  0  0  0  0  0  0  0  0  0  0  0
   37.1900   24.8040   42.6970 H   0  0  0  0  0  0  0  0  0  0  0  0
   37.3550   27.2530   42.1590 C   0  0  0  0  0  0  0  0  0  0  0  0
   38.5630   27.6980   42.7510 C   0  0  0  0  0  0  0  0  0  0  0  0
   39.5080   27.2810   42.4310 H   0  0  0  0  0  0  0  0  0  0  0  0
   38.1370   28.6560   43.6800 C   0  0  0  0  0  0  0  0  0  0  0  0
   38.8720   29.1610   44.2780 H   0  0  0  0  0  0  0  0  0  0  0  0
   36.8050   28.7670   43.6420 N   0  0  0  0  0  0  0  0  0  0  0  0
   36.2320   29.4120   44.2360 H   0  0  0  0  0  0  0  0  0  0  0  0
   36.3110   27.9370   42.7410 N   0  0  0  0  0  0  0  0  0  0  0  0
   40.5530   31.8540   37.5790 C   0  0  0  0  0  0  0  0  0  0  0  0
   39.5280   30.9140   37.5560 C   0  0  0  0  0  0  0  0  0  0  0  0
   38.5130   30.9040   38.5360 C   0  0  0  0  0  0  0  0  0  0  0  0
   38.6020   31.8490   39.4800 N   0  0  0  0  0  0  0  0  0  0  0  0
   39.6020   32.7500   39.4870 C   0  0  0  0  0  0  0  0  0  0  0  0
   40.5660   32.7530   38.5490 N   0  0  0  0  0  0  0  0  0  0  0  0
   41.2230   31.6820   36.7390 H   0  0  0  0  0  0  0  0  0  0  0  0
   39.4020   30.1170   36.8090 H   0  0  0  0  0  0  0  0  0  0  0  0
   39.6210   33.4910   40.2760 H   0  0  0  0  0  0  0  0  0  0  0  0
  2  7  1  0  0  0  0
  2  1  1  0  0  0  0
  3 31  1  0  0  0  0
  3  2  2  0  0  0  0
  4  5  2  0  0  0  0
  4  3  1  0  0  0  0
  5  6  1  0  0  0  0
  6  7  2  0  0  0  0
  7 11  1  0  0  0  0
  8  4  1  0  0  0  0
  9  5  1  0  0  0  0
 10  6  1  0  0  0  0
 11 16  1  0  0  0  0
 12 13  1  0  0  0  0
 12 11  2  0  0  0  0
 13 14  2  0  0  0  0
 14 19  1  0  0  0  0
 14 15  1  0  0  0  0
 15 20  1  0  0  0  0
 16 15  2  0  0  0  0
 16 21  1  0  0  0  0
 17 12  1  0  0  0  0
 18 13  1  0  0  0  0
 21 28  2  0  0  0  0
 21 22  1  0  0  0  0
 22 24  2  0  0  0  0
 23 22  1  0  0  0  0
 24 25  1  0  0  0  0
 26 24  1  0  0  0  0
 26 27  1  0  0  0  0
 28 26  1  0  0  0  0
 29 34  1  0  0  0  0
 30 29  2  0  0  0  0
 30 31  1  0  0  0  0
 31 32  2  0  0  0  0
 32 33  1  0  0  0  0
 33 37  1  0  0  0  0
 34 33  2  0  0  0  0
 35 29  1  0  0  0  0
 36 30  1  0  0  0  0
M  END
>  <minimizedAffinity>
-5.95955372

$$$$

 OpenBabel03242522283D

 37 40  0  0  0  0  0  0  0  0999 V2000
   40.0960   30.9360   38.4390 F   0  0  0  0  0  0  0  0  0  0  0  0
   39.3870   31.9480   39.0300 C   0  0  0  0  0  0  0  0  0  0  0  0
   40.0040   33.1290   39.2970 C   0  0  0  0  0  0  0  0  0  0  0  0
   39.1970   34.1270   39.8000 C   0  0  0  0  0  0  0  0  0  0  0  0
   37.8490   33.9570   40.0280 C   0  0  0  0  0  0  0  0  0  0  0  0
   37.3220   32.7480   39.7350 C   0  0  0  0  0  0  0  0  0  0  0  0
   38.0640   31.7220   39.2350 C   0  0  0  0  0  0  0  0  0  0  0  0
   39.8000   35.0460   39.9790 H   0  0  0  0  0  0  0  0  0  0  0  0
   37.4620   34.8860   40.4180 H   0  0  0  0  0  0  0  0  0  0  0  0
   36.3160   32.9400   39.9660 H   0  0  0  0  0  0  0  0  0  0  0  0
   37.3580   30.5060   38.8610 C   0  0  0  0  0  0  0  0  0  0  0  0
   36.8190   30.4080   37.5740 C   0  0  0  0  0  0  0  0  0  0  0  0
   36.0170   29.3440   37.2700 C   0  0  0  0  0  0  0  0  0  0  0  0
   35.7440   28.3810   38.2210 C   0  0  0  0  0  0  0  0  0  0  0  0
   36.3150   28.5260   39.4950 C   0  0  0  0  0  0  0  0  0  0  0  0
   37.1210   29.5800   39.8160 C   0  0  0  0  0  0  0  0  0  0  0  0
   36.9070   31.0420   36.7340 H   0  0  0  0  0  0  0  0  0  0  0  0
   35.5460   29.1790   36.2890 H   0  0  0  0  0  0  0  0  0  0  0  0
   35.0850   27.5310   37.9450 H   0  0  0  0  0  0  0  0  0  0  0  0
   36.0080   27.6940   40.1340 H   0  0  0  0  0  0  0  0  0  0  0  0
   37.6030   29.3530   41.1410 C   0  0  0  0  0  0  0  0  0  0  0  0
   38.8830   29.0930   41.6890 C   0  0  0  0  0  0  0  0  0  0  0  0
   39.7380   28.9840   41.0370 H   0  0  0  0  0  0  0  0  0  0  0  0
   38.6440   29.0490   43.0690 C   0  0  0  0  0  0  0  0  0  0  0  0
   39.4670   28.8620   43.7320 H   0  0  0  0  0  0  0  0  0  0  0  0
   37.3470   29.2620   43.3140 N   0  0  0  0  0  0  0  0  0  0  0  0
   36.9030   29.2810   44.2620 H   0  0  0  0  0  0  0  0  0  0  0  0
   36.7000   29.4470   42.1770 N   0  0  0  0  0  0  0  0  0  0  0  0
   43.3190   33.9370   37.6820 C   0  0  0  0  0  0  0  0  0  0  0  0
   41.9480   33.8190   37.8880 C   0  0  0  0  0  0  0  0  0  0  0  0
   41.4250   33.2560   39.0720 C   0  0  0  0  0  0  0  0  0  0  0  0
   42.3270   32.8470   39.9740 N   0  0  0  0  0  0  0  0  0  0  0  0
   43.6490   32.9700   39.7560 C   0  0  0  0  0  0  0  0  0  0  0  0
   44.1400   33.5070   38.6250 N   0  0  0  0  0  0  0  0  0  0  0  0
   43.5020   34.3940   36.7110 H   0  0  0  0  0  0  0  0  0  0  0  0
   41.1620   34.1350   37.1870 H   0  0  0  0  0  0  0  0  0  0  0  0
   44.3300   32.6210   40.5220 H   0  0  0  0  0  0  0  0  0  0  0  0
  1  2  1  0  0  0  0
  2  7  2  0  0  0  0
  2  3  1  0  0  0  0
  3  4  2  0  0  0  0
  4  8  1  0  0  0  0
  4  5  1  0  0  0  0
  5  9  1  0  0  0  0
  6 10  1  0  0  0  0
  6  5  2  0  0  0  0
  7  6  1  0  0  0  0
 11  7  1  0  0  0  0
 11 16  1  0  0  0  0
 12 11  2  0  0  0  0
 13 12  1  0  0  0  0
 13 14  2  0  0  0  0
 14 15  1  0  0  0  0
 15 16  2  0  0  0  0
 15 20  1  0  0  0  0
 16 21  1  0  0  0  0
 17 12  1  0  0  0  0
 18 13  1  0  0  0  0
 19 14  1  0  0  0  0
 21 22  1  0  0  0  0
 21 28  2  0  0  0  0
 22 24  2  0  0  0  0
 23 22  1  0  0  0  0
 24 26  1  0  0  0  0
 24 25  1  0  0  0  0
 26 27  1  0  0  0  0
 28 26  1  0  0  0  0
 29 30  2  0  0  0  0
 29 34  1  0  0  0  0
 30 31  1  0  0  0  0
 31  3  1  0  0  0  0
 31 32  2  0  0  0  0
 33 32  1  0  0  0  0
 33 37  1  0  0  0  0
 34 33  2  0  0  0  0
 35 29  1  0  0  0  0
 36 30  1  0  0  0  0
M  END
>  <minimizedAffinity>
-5.93767691

$$$$

 OpenBabel03242522283D

 37 40  0  0  0  0  0  0  0  0999 V2000
   38.1400   27.6440   39.7300 F   0  0  0  0  0  0  0  0  0  0  0  0
   37.7340   27.6630   41.0380 C   0  0  0  0  0  0  0  0  0  0  0  0
   37.6400   26.4930   41.7250 C   0  0  0  0  0  0  0  0  0  0  0  0
   37.3220   26.6070   43.0610 C   0  0  0  0  0  0  0  0  0  0  0  0
   37.1030   27.8190   43.6790 C   0  0  0  0  0  0  0  0  0  0  0  0
   37.2150   28.9280   42.9170 C   0  0  0  0  0  0  0  0  0  0  0  0
   37.5290   28.8840   41.5930 C   0  0  0  0  0  0  0  0  0  0  0  0
   37.2740   25.5950   43.5250 H   0  0  0  0  0  0  0  0  0  0  0  0
   36.8740   27.6220   44.7160 H   0  0  0  0  0  0  0  0  0  0  0  0
   37.0430   29.6580   43.6520 H   0  0  0  0  0  0  0  0  0  0  0  0
   37.7240   30.1540   40.9100 C   0  0  0  0  0  0  0  0  0  0  0  0
   38.7230   31.0190   41.3670 C   0  0  0  0  0  0  0  0  0  0  0  0
   38.8050   32.2770   40.8380 C   0  0  0  0  0  0  0  0  0  0  0  0
   37.9120   32.6860   39.8670 C   0  0  0  0  0  0  0  0  0  0  0  0
   36.9330   31.7760   39.4420 C   0  0  0  0  0  0  0  0  0  0  0  0
   36.8380   30.5140   39.9550 C   0  0  0  0  0  0  0  0  0  0  0  0
   39.4750   30.8880   42.0970 H   0  0  0  0  0  0  0  0  0  0  0  0
   39.5530   33.0290   41.1320 H   0  0  0  0  0  0  0  0  0  0  0  0
   38.0020   33.7150   39.4620 H   0  0  0  0  0  0  0  0  0  0  0  0
   36.3040   32.2400   38.6770 H   0  0  0  0  0  0  0  0  0  0  0  0
   35.8110   29.8390   39.2270 C   0  0  0  0  0  0  0  0  0  0  0  0
   34.5890   29.2260   39.5940 C   0  0  0  0  0  0  0  0  0  0  0  0
   34.3030   29.1700   40.6360 H   0  0  0  0  0  0  0  0  0  0  0  0
   34.0430   28.8260   38.3670 C   0  0  0  0  0  0  0  0  0  0  0  0
   33.0950   28.3240   38.3610 H   0  0  0  0  0  0  0  0  0  0  0  0
   34.8640   29.1690   37.3700 N   0  0  0  0  0  0  0  0  0  0  0  0
   34.6940   28.9870   36.3520 H   0  0  0  0  0  0  0  0  0  0  0  0
   35.9310   29.7770   37.8560 N   0  0  0  0  0  0  0  0  0  0  0  0
   36.9990   23.1450   40.1030 C   0  0  0  0  0  0  0  0  0  0  0  0
   36.7880   24.3470   40.7720 C   0  0  0  0  0  0  0  0  0  0  0  0
   37.8470   25.2430   41.0320 C   0  0  0  0  0  0  0  0  0  0  0  0
   39.0550   24.8620   40.5980 N   0  0  0  0  0  0  0  0  0  0  0  0
   39.2390   23.6950   39.9530 C   0  0  0  0  0  0  0  0  0  0  0  0
   38.2250   22.8470   39.7090 N   0  0  0  0  0  0  0  0  0  0  0  0
   36.0550   22.6120   40.0100 H   0  0  0  0  0  0  0  0  0  0  0  0
   35.8230   24.7130   41.1520 H   0  0  0  0  0  0  0  0  0  0  0  0
   40.2390   23.4420   39.6250 H   0  0  0  0  0  0  0  0  0  0  0  0
  1  2  1  0  0  0  0
  2  7  2  0  0  0  0
  2  3  1  0  0  0  0
  3  4  2  0  0  0  0
  4  8  1  0  0  0  0
  4  5  1  0  0  0  0
  5  9  1  0  0  0  0
  6 10  1  0  0  0  0
  6  5  2  0  0  0  0
  7  6  1  0  0  0  0
 11 12  1  0  0  0  0
 11  7  1  0  0  0  0
 12 17  1  0  0  0  0
 13 18  1  0  0  0  0
 13 12  2  0  0  0  0
 14 13  1  0  0  0  0
 15 14  2  0  0  0  0
 15 16  1  0  0  0  0
 16 11  2  0  0  0  0
 19 14  1  0  0  0  0
 20 15  1  0  0  0  0
 21 22  1  0  0  0  0
 21 16  1  0  0  0  0
 22 23  1  0  0  0  0
 24 22  2  0  0  0  0
 25 24  1  0  0  0  0
 26 28  1  0  0  0  0
 26 24  1  0  0  0  0
 27 26  1  0  0  0  0
 28 21  2  0  0  0  0
 29 30  1  0  0  0  0
 30 31  2  0  0  0  0
 30 36  1  0  0  0  0
 31  3  1  0  0  0  0
 32 31  1  0  0  0  0
 33 32  2  0  0  0  0
 34 33  1  0  0  0  0
 34 29  2  0  0  0  0
 35 29  1  0  0  0  0
 37 33  1  0  0  0  0
M  END
>  <minimizedAffinity>
-5.91686296

$$$$

 OpenBabel03242522283D

 37 40  0  0  0  0  0  0  0  0999 V2000
   40.0400   29.6650   40.3460 F   0  0  0  0  0  0  0  0  0  0  0  0
   39.2060   30.7420   40.2050 C   0  0  0  0  0  0  0  0  0  0  0  0
   39.5510   31.7490   39.3600 C   0  0  0  0  0  0  0  0  0  0  0  0
   38.6130   32.7450   39.1990 C   0  0  0  0  0  0  0  0  0  0  0  0
   37.3980   32.7420   39.8480 C   0  0  0  0  0  0  0  0  0  0  0  0
   37.1410   31.7020   40.6710 C   0  0  0  0  0  0  0  0  0  0  0  0
   38.0250   30.6850   40.8720 C   0  0  0  0  0  0  0  0  0  0  0  0
   38.9950   33.5130   38.4880 H   0  0  0  0  0  0  0  0  0  0  0  0
   36.8610   33.6290   39.5460 H   0  0  0  0  0  0  0  0  0  0  0  0
   36.1660   31.9550   40.9670 H   0  0  0  0  0  0  0  0  0  0  0  0
   37.5860   29.5720   41.6980 C   0  0  0  0  0  0  0  0  0  0  0  0
   38.1520   29.4080   42.9660 C   0  0  0  0  0  0  0  0  0  0  0  0
   37.8680   28.2770   43.6800 C   0  0  0  0  0  0  0  0  0  0  0  0
   37.0340   27.3110   43.1530 C   0  0  0  0  0  0  0  0  0  0  0  0
   36.4900   27.5280   41.8780 C   0  0  0  0  0  0  0  0  0  0  0  0
   36.7590   28.6520   41.1520 C   0  0  0  0  0  0  0  0  0  0  0  0
   38.8080   30.0240   43.5190 H   0  0  0  0  0  0  0  0  0  0  0  0
   38.2640   28.0580   44.6820 H   0  0  0  0  0  0  0  0  0  0  0  0
   36.8270   26.4020   43.7550 H   0  0  0  0  0  0  0  0  0  0  0  0
   35.8570   26.6810   41.5980 H   0  0  0  0  0  0  0  0  0  0  0  0
   35.9640   28.5890   39.9670 C   0  0  0  0  0  0  0  0  0  0  0  0
   34.7070   29.1260   39.5990 C   0  0  0  0  0  0  0  0  0  0  0  0
   34.1260   29.6860   40.3200 H   0  0  0  0  0  0  0  0  0  0  0  0
   34.5630   28.7340   38.2620 C   0  0  0  0  0  0  0  0  0  0  0  0
   33.6740   29.0180   37.7310 H   0  0  0  0  0  0  0  0  0  0  0  0
   35.6330   28.0320   37.8760 N   0  0  0  0  0  0  0  0  0  0  0  0
   35.7790   27.6210   36.9230 H   0  0  0  0  0  0  0  0  0  0  0  0
   36.4880   27.9290   38.8770 N   0  0  0  0  0  0  0  0  0  0  0  0
   43.2390   32.2390   38.7220 C   0  0  0  0  0  0  0  0  0  0  0  0
   41.9960   32.2640   39.3450 C   0  0  0  0  0  0  0  0  0  0  0  0
   40.8470   31.7290   38.7220 C   0  0  0  0  0  0  0  0  0  0  0  0
   41.0330   31.2030   37.5050 N   0  0  0  0  0  0  0  0  0  0  0  0
   42.2450   31.1890   36.9190 C   0  0  0  0  0  0  0  0  0  0  0  0
   43.3340   31.7000   37.5180 N   0  0  0  0  0  0  0  0  0  0  0  0
   43.9800   32.7010   39.3730 H   0  0  0  0  0  0  0  0  0  0  0  0
   41.7810   32.6810   40.3400 H   0  0  0  0  0  0  0  0  0  0  0  0
   42.3330   30.7490   35.9340 H   0  0  0  0  0  0  0  0  0  0  0  0
  2  1  1  0  0  0  0
  2  7  1  0  0  0  0
  3  2  2  0  0  0  0
  4  3  1  0  0  0  0
  4  5  2  0  0  0  0
  5  6  1  0  0  0  0
  6  7  2  0  0  0  0
  6 10  1  0  0  0  0
  7 11  1  0  0  0  0
  8  4  1  0  0  0  0
  9  5  1  0  0  0  0
 11 12  1  0  0  0  0
 12 17  1  0  0  0  0
 12 13  2  0  0  0  0
 13 18  1  0  0  0  0
 14 13  1  0  0  0  0
 14 19  1  0  0  0  0
 15 14  2  0  0  0  0
 16 11  2  0  0  0  0
 16 15  1  0  0  0  0
 20 15  1  0  0  0  0
 21 16  1  0  0  0  0
 22 21  1  0  0  0  0
 22 23  1  0  0  0  0
 24 22  2  0  0  0  0
 25 24  1  0  0  0  0
 26 24  1  0  0  0  0
 26 28  1  0  0  0  0
 27 26  1  0  0  0  0
 28 21  2  0  0  0  0
 29 30  1  0  0  0  0
 29 35  1  0  0  0  0
 30 36  1  0  0  0  0
 31 30  2  0  0  0  0
 31  3  1  0  0  0  0
 32 31  1  0  0  0  0
 33 32  2  0  0  0  0
 33 34  1  0  0  0  0
 34 29  2  0  0  0  0
 37 33  1  0  0  0  0
M  END
>  <minimizedAffinity>
-5.8233757

$$$$

 OpenBabel03242522283D

 37 40  0  0  0  0  0  0  0  0999 V2000
   39.9530   28.7310   40.8630 F   0  0  0  0  0  0  0  0  0  0  0  0
   38.9630   28.5180   41.7860 C   0  0  0  0  0  0  0  0  0  0  0  0
   37.7430   29.0870   41.6000 C   0  0  0  0  0  0  0  0  0  0  0  0
   36.7750   28.7440   42.5190 C   0  0  0  0  0  0  0  0  0  0  0  0
   37.0100   27.8840   43.5690 C   0  0  0  0  0  0  0  0  0  0  0  0
   38.2540   27.3680   43.6760 C   0  0  0  0  0  0  0  0  0  0  0  0
   39.2540   27.6660   42.8010 C   0  0  0  0  0  0  0  0  0  0  0  0
   35.8190   29.2610   42.2720 H   0  0  0  0  0  0  0  0  0  0  0  0
   36.0910   27.7890   44.1280 H   0  0  0  0  0  0  0  0  0  0  0  0
   38.1100   26.7460   44.5100 H   0  0  0  0  0  0  0  0  0  0  0  0
   40.5160   26.9620   42.9640 C   0  0  0  0  0  0  0  0  0  0  0  0
   41.5540   27.5910   43.6600 C   0  0  0  0  0  0  0  0  0  0  0  0
   42.7910   27.0080   43.6760 C   0  0  0  0  0  0  0  0  0  0  0  0
   43.0100   25.8170   43.0130 C   0  0  0  0  0  0  0  0  0  0  0  0
   41.9330   25.2280   42.3340 C   0  0  0  0  0  0  0  0  0  0  0  0
   40.6900   25.7920   42.3100 C   0  0  0  0  0  0  0  0  0  0  0  0
   41.5760   28.4930   44.2070 H   0  0  0  0  0  0  0  0  0  0  0  0
   43.6680   27.4240   44.1930 H   0  0  0  0  0  0  0  0  0  0  0  0
   44.0270   25.3720   43.0400 H   0  0  0  0  0  0  0  0  0  0  0  0
   42.2600   24.2980   41.8600 H   0  0  0  0  0  0  0  0  0  0  0  0
   39.8270   24.8810   41.6290 C   0  0  0  0  0  0  0  0  0  0  0  0
   39.6020   24.5760   40.2640 C   0  0  0  0  0  0  0  0  0  0  0  0
   40.1210   25.1310   39.4940 H   0  0  0  0  0  0  0  0  0  0  0  0
   38.6730   23.5290   40.3120 C   0  0  0  0  0  0  0  0  0  0  0  0
   38.3250   23.1030   39.3910 H   0  0  0  0  0  0  0  0  0  0  0  0
   38.3750   23.2420   41.5830 N   0  0  0  0  0  0  0  0  0  0  0  0
   37.7060   22.5010   41.8980 H   0  0  0  0  0  0  0  0  0  0  0  0
   39.0510   24.0370   42.3930 N   0  0  0  0  0  0  0  0  0  0  0  0
   37.3330   32.2820   39.6310 C   0  0  0  0  0  0  0  0  0  0  0  0
   37.5220   31.4050   40.6940 C   0  0  0  0  0  0  0  0  0  0  0  0
   37.5470   30.0070   40.5040 C   0  0  0  0  0  0  0  0  0  0  0  0
   37.3770   29.5860   39.2440 N   0  0  0  0  0  0  0  0  0  0  0  0
   37.1940   30.4500   38.2280 C   0  0  0  0  0  0  0  0  0  0  0  0
   37.1720   31.7810   38.4180 N   0  0  0  0  0  0  0  0  0  0  0  0
   37.3480   33.3070   39.9990 H   0  0  0  0  0  0  0  0  0  0  0  0
   37.6660   31.6900   41.7470 H   0  0  0  0  0  0  0  0  0  0  0  0
   37.0630   30.0500   37.2310 H   0  0  0  0  0  0  0  0  0  0  0  0
  1  2  1  0  0  0  0
  2  7  1  0  0  0  0
  3  2  2  0  0  0  0
  3  4  1  0  0  0  0
  4  5  2  0  0  0  0
  5  6  1  0  0  0  0
  5  9  1  0  0  0  0
  6 10  1  0  0  0  0
  7 11  1  0  0  0  0
  7  6  2  0  0  0  0
  8  4  1  0  0  0  0
 11 12  1  0  0  0  0
 12 13  2  0  0  0  0
 12 17  1  0  0  0  0
 13 18  1  0  0  0  0
 14 19  1  0  0  0  0
 14 13  1  0  0  0  0
 15 14  2  0  0  0  0
 16 15  1  0  0  0  0
 16 11  2  0  0  0  0
 20 15  1  0  0  0  0
 21 16  1  0  0  0  0
 21 28  2  0  0  0  0
 22 24  2  0  0  0  0
 22 21  1  0  0  0  0
 23 22  1  0  0  0  0
 24 26  1  0  0  0  0
 25 24  1  0  0  0  0
 26 27  1  0  0  0  0
 26 28  1  0  0  0  0
 29 35  1  0  0  0  0
 29 30  1  0  0  0  0
 30 36  1  0  0  0  0
 31 30  2  0  0  0  0
 31  3  1  0  0  0  0
 32 31  1  0  0  0  0
 33 34  1  0  0  0  0
 33 32  2  0  0  0  0
 34 29  2  0  0  0  0
 37 33  1  0  0  0  0
M  END
>  <minimizedAffinity>
-5.77895832

$$$$
