
 OpenBabel03252505483D

 28 30  0  0  1  0  0  0  0  0999 V2000
   36.4110   28.8630   41.0090 C   0  0  0  0  0  0  0  0  0  0  0  0
   36.1150   28.5690   39.6540 C   0  0  0  0  0  0  0  0  0  0  0  0
   36.1880   29.5690   38.6690 C   0  0  0  0  0  0  0  0  0  0  0  0
   36.5520   30.8070   39.1090 N   0  0  0  0  0  0  0  0  0  0  0  0
   36.8250   31.0370   40.4270 C   0  0  0  0  0  0  0  0  0  0  0  0
   36.7610   30.1020   41.3550 N   0  0  0  0  0  0  0  0  0  0  0  0
   35.8240   27.5680   39.3230 H   0  0  0  0  0  0  0  0  0  0  0  0
   35.9650   29.3560   37.6350 H   0  0  0  0  0  0  0  0  0  0  0  0
   36.3040   27.7740   41.9920 C   0  0  1  0  0  0  0  0  0  0  0  0
   37.6190   26.9150   42.0500 C   0  0  1  0  0  0  0  0  0  0  0  0
   37.0180   27.6790   43.2080 C   0  0  0  0  0  0  0  0  0  0  0  0
   35.3880   27.1430   41.8090 H   0  0  0  0  0  0  0  0  0  0  0  0
   38.5070   27.3140   41.5670 H   0  0  0  0  0  0  0  0  0  0  0  0
   36.6350   27.1290   44.0790 H   0  0  0  0  0  0  0  0  0  0  0  0
   37.6460   28.5580   43.5400 H   0  0  0  0  0  0  0  0  0  0  0  0
   37.3670   25.4270   42.1080 C   0  0  0  0  0  0  0  0  0  0  0  0
   36.2910   25.0870   42.8780 F   0  0  0  0  0  0  0  0  0  0  0  0
   37.1190   24.9660   40.8010 F   0  0  0  0  0  0  0  0  0  0  0  0
   38.5060   24.7460   42.5100 F   0  0  0  0  0  0  0  0  0  0  0  0
   37.1810   32.3620   40.7020 O   0  0  0  0  0  0  0  0  0  0  0  0
   38.4740   32.8070   40.7020 C   0  0  0  0  0  0  0  0  0  0  0  0
   38.8670   33.9520   40.0410 C   0  0  0  0  0  0  0  0  0  0  0  0
   38.2790   34.6570   39.4470 H   0  0  0  0  0  0  0  0  0  0  0  0
   40.2390   34.0660   40.2750 C   0  0  0  0  0  0  0  0  0  0  0  0
   40.9320   34.8320   39.9300 H   0  0  0  0  0  0  0  0  0  0  0  0
   40.5890   33.0210   41.0390 N   0  0  0  0  0  0  0  0  0  0  0  0
   41.5420   32.7760   41.4140 H   0  0  0  0  0  0  0  0  0  0  0  0
   39.5520   32.2450   41.3130 N   0  0  0  0  0  0  0  0  0  0  0  0
  1  6  1  0  0  0  0
  1  9  1  0  0  0  0
  2  1  2  0  0  0  0
  3  4  2  0  0  0  0
  3  2  1  0  0  0  0
  4  5  1  0  0  0  0
  5 20  1  0  0  0  0
  5  6  2  0  0  0  0
  7  2  1  0  0  0  0
  8  3  1  0  0  0  0
  9 12  1  6  0  0  0
  9 10  1  0  0  0  0
  9 11  1  0  0  0  0
 10 13  1  6  0  0  0
 10 16  1  0  0  0  0
 10 11  1  0  0  0  0
 11 15  1  0  0  0  0
 11 14  1  0  0  0  0
 16 19  1  0  0  0  0
 16 17  1  0  0  0  0
 18 16  1  0  0  0  0
 21 20  1  0  0  0  0
 21 28  2  0  0  0  0
 22 24  2  0  0  0  0
 22 21  1  0  0  0  0
 23 22  1  0  0  0  0
 24 26  1  0  0  0  0
 25 24  1  0  0  0  0
 26 28  1  0  0  0  0
 26 27  1  0  0  0  0
M  END
>  <minimizedAffinity>
-5.20309496

$$$$

 OpenBabel03252505483D

 28 30  0  0  1  0  0  0  0  0999 V2000
   38.0860   29.2650   42.3160 C   0  0  0  0  0  0  0  0  0  0  0  0
   39.2460   30.0070   42.6500 C   0  0  0  0  0  0  0  0  0  0  0  0
   39.5570   31.1980   41.9720 C   0  0  0  0  0  0  0  0  0  0  0  0
   38.6810   31.5690   40.9950 N   0  0  0  0  0  0  0  0  0  0  0  0
   37.5780   30.8170   40.7120 C   0  0  0  0  0  0  0  0  0  0  0  0
   37.2800   29.6990   41.3470 N   0  0  0  0  0  0  0  0  0  0  0  0
   39.9360   29.6910   43.4380 H   0  0  0  0  0  0  0  0  0  0  0  0
   40.4380   31.7720   42.2190 H   0  0  0  0  0  0  0  0  0  0  0  0
   37.8240   28.0200   43.0550 C   0  0  1  0  0  0  0  0  0  0  0  0
   38.2320   26.7540   42.2200 C   0  0  1  0  0  0  0  0  0  0  0  0
   38.8010   27.1370   43.5680 C   0  0  0  0  0  0  0  0  0  0  0  0
   36.7570   27.9730   43.4130 H   0  0  0  0  0  0  0  0  0  0  0  0
   38.8420   26.9050   41.3340 H   0  0  0  0  0  0  0  0  0  0  0  0
   38.6170   26.4900   44.4370 H   0  0  0  0  0  0  0  0  0  0  0  0
   39.8870   27.4430   43.5250 H   0  0  0  0  0  0  0  0  0  0  0  0
   37.2180   25.6350   42.2850 C   0  0  0  0  0  0  0  0  0  0  0  0
   36.2220   25.8550   43.1940 F   0  0  0  0  0  0  0  0  0  0  0  0
   36.6180   25.5040   41.0180 F   0  0  0  0  0  0  0  0  0  0  0  0
   37.8390   24.4150   42.5080 F   0  0  0  0  0  0  0  0  0  0  0  0
   36.7910   31.3430   39.6820 O   0  0  0  0  0  0  0  0  0  0  0  0
   36.9690   31.0240   38.3640 C   0  0  0  0  0  0  0  0  0  0  0  0
   36.4010   29.9090   37.7840 C   0  0  0  0  0  0  0  0  0  0  0  0
   35.7610   29.1380   38.2230 H   0  0  0  0  0  0  0  0  0  0  0  0
   36.8110   29.9310   36.4500 C   0  0  0  0  0  0  0  0  0  0  0  0
   36.5820   29.2280   35.6510 H   0  0  0  0  0  0  0  0  0  0  0  0
   37.5770   31.0220   36.3000 N   0  0  0  0  0  0  0  0  0  0  0  0
   38.0610   31.3640   35.4290 H   0  0  0  0  0  0  0  0  0  0  0  0
   37.6920   31.6990   37.4300 N   0  0  0  0  0  0  0  0  0  0  0  0
  1  2  1  0  0  0  0
  1  9  1  0  0  0  0
  2  7  1  0  0  0  0
  3  8  1  0  0  0  0
  3  2  2  0  0  0  0
  4  3  1  0  0  0  0
  5  4  2  0  0  0  0
  5  6  1  0  0  0  0
  6  1  2  0  0  0  0
  9 12  1  1  0  0  0
  9 11  1  0  0  0  0
 10 13  1  6  0  0  0
 10 16  1  0  0  0  0
 10  9  1  0  0  0  0
 10 11  1  0  0  0  0
 11 14  1  0  0  0  0
 15 11  1  0  0  0  0
 16 19  1  0  0  0  0
 16 17  1  0  0  0  0
 18 16  1  0  0  0  0
 20  5  1  0  0  0  0
 21 20  1  0  0  0  0
 22 23  1  0  0  0  0
 22 21  1  0  0  0  0
 24 22  2  0  0  0  0
 25 24  1  0  0  0  0
 26 24  1  0  0  0  0
 26 28  1  0  0  0  0
 27 26  1  0  0  0  0
 28 21  2  0  0  0  0
M  END
>  <minimizedAffinity>
-5.13412666

$$$$

 OpenBabel03252505483D

 28 30  0  0  1  0  0  0  0  0999 V2000
   37.3580   29.4310   41.7680 C   0  0  0  0  0  0  0  0  0  0  0  0
   38.6280   29.6400   42.3610 C   0  0  0  0  0  0  0  0  0  0  0  0
   39.2670   28.6110   43.0730 C   0  0  0  0  0  0  0  0  0  0  0  0
   38.5870   27.4310   43.1460 N   0  0  0  0  0  0  0  0  0  0  0  0
   37.3650   27.2820   42.5570 C   0  0  0  0  0  0  0  0  0  0  0  0
   36.7610   28.2450   41.8860 N   0  0  0  0  0  0  0  0  0  0  0  0
   39.1560   30.5960   42.2900 H   0  0  0  0  0  0  0  0  0  0  0  0
   40.2350   28.7590   43.5290 H   0  0  0  0  0  0  0  0  0  0  0  0
   36.7380   30.5530   41.0470 C   0  0  1  0  0  0  0  0  0  0  0  0
   37.1690   30.5800   39.5360 C   0  0  1  0  0  0  0  0  0  0  0  0
   35.7500   30.4510   40.0410 C   0  0  0  0  0  0  0  0  0  0  0  0
   36.9350   31.5340   41.5660 H   0  0  0  0  0  0  0  0  0  0  0  0
   37.6610   29.7000   39.1330 H   0  0  0  0  0  0  0  0  0  0  0  0
   35.0270   31.2540   39.8370 H   0  0  0  0  0  0  0  0  0  0  0  0
   35.2900   29.4410   39.8330 H   0  0  0  0  0  0  0  0  0  0  0  0
   37.5100   31.9620   39.0290 C   0  0  0  0  0  0  0  0  0  0  0  0
   36.8070   32.9570   39.6480 F   0  0  0  0  0  0  0  0  0  0  0  0
   38.8780   32.1970   39.2630 F   0  0  0  0  0  0  0  0  0  0  0  0
   37.3710   32.0330   37.6510 F   0  0  0  0  0  0  0  0  0  0  0  0
   36.8100   26.0100   42.7320 O   0  0  0  0  0  0  0  0  0  0  0  0
   37.2590   24.8990   42.0730 C   0  0  0  0  0  0  0  0  0  0  0  0
   36.6300   24.3920   40.9540 C   0  0  0  0  0  0  0  0  0  0  0  0
   35.7380   24.7450   40.4290 H   0  0  0  0  0  0  0  0  0  0  0  0
   37.3760   23.2730   40.5810 C   0  0  0  0  0  0  0  0  0  0  0  0
   37.2170   22.5890   39.7490 H   0  0  0  0  0  0  0  0  0  0  0  0
   38.3820   23.1670   41.4630 N   0  0  0  0  0  0  0  0  0  0  0  0
   39.1460   22.4430   41.4970 H   0  0  0  0  0  0  0  0  0  0  0  0
   38.3390   24.1280   42.3710 N   0  0  0  0  0  0  0  0  0  0  0  0
  1  6  2  0  0  0  0
  1  2  1  0  0  0  0
  2  3  2  0  0  0  0
  3  4  1  0  0  0  0
  3  8  1  0  0  0  0
  5 20  1  0  0  0  0
  5  4  2  0  0  0  0
  6  5  1  0  0  0  0
  7  2  1  0  0  0  0
  9 12  1  1  0  0  0
  9  1  1  0  0  0  0
 10 13  1  6  0  0  0
 10 11  1  0  0  0  0
 10  9  1  0  0  0  0
 11  9  1  0  0  0  0
 14 11  1  0  0  0  0
 15 11  1  0  0  0  0
 16 18  1  0  0  0  0
 16 10  1  0  0  0  0
 16 17  1  0  0  0  0
 19 16  1  0  0  0  0
 21 28  2  0  0  0  0
 21 20  1  0  0  0  0
 22 21  1  0  0  0  0
 23 22  1  0  0  0  0
 24 22  2  0  0  0  0
 24 26  1  0  0  0  0
 25 24  1  0  0  0  0
 26 27  1  0  0  0  0
 26 28  1  0  0  0  0
M  END
>  <minimizedAffinity>
-5.10585213

$$$$

 OpenBabel03252505483D

 28 30  0  0  1  0  0  0  0  0999 V2000
   37.3680   27.3850   42.1750 C   0  0  0  0  0  0  0  0  0  0  0  0
   38.5850   27.6640   42.8470 C   0  0  0  0  0  0  0  0  0  0  0  0
   39.0520   28.9830   42.9700 C   0  0  0  0  0  0  0  0  0  0  0  0
   38.2660   29.9450   42.4070 N   0  0  0  0  0  0  0  0  0  0  0  0
   37.1030   29.6220   41.7700 C   0  0  0  0  0  0  0  0  0  0  0  0
   36.6580   28.3850   41.6530 N   0  0  0  0  0  0  0  0  0  0  0  0
   39.2010   26.8760   43.2920 H   0  0  0  0  0  0  0  0  0  0  0  0
   39.9770   29.2070   43.4800 H   0  0  0  0  0  0  0  0  0  0  0  0
   36.9410   25.9810   42.0710 C   0  0  1  0  0  0  0  0  0  0  0  0
   37.5280   25.2920   40.7870 C   0  0  1  0  0  0  0  0  0  0  0  0
   37.7730   24.8470   42.2110 C   0  0  0  0  0  0  0  0  0  0  0  0
   35.8200   25.8880   42.1330 H   0  0  0  0  0  0  0  0  0  0  0  0
   38.3260   25.8030   40.2560 H   0  0  0  0  0  0  0  0  0  0  0  0
   37.3930   23.8720   42.5470 H   0  0  0  0  0  0  0  0  0  0  0  0
   38.8400   24.9940   42.5500 H   0  0  0  0  0  0  0  0  0  0  0  0
   36.5250   24.4370   40.0480 C   0  0  0  0  0  0  0  0  0  0  0  0
   35.7630   25.1400   39.1580 F   0  0  0  0  0  0  0  0  0  0  0  0
   37.2260   23.4530   39.3250 F   0  0  0  0  0  0  0  0  0  0  0  0
   35.7320   23.7240   40.9340 F   0  0  0  0  0  0  0  0  0  0  0  0
   36.4240   30.7290   41.2500 O   0  0  0  0  0  0  0  0  0  0  0  0
   36.8660   31.4420   40.1690 C   0  0  0  0  0  0  0  0  0  0  0  0
   36.9200   30.9090   38.8980 C   0  0  0  0  0  0  0  0  0  0  0  0
   36.6460   29.9120   38.5420 H   0  0  0  0  0  0  0  0  0  0  0  0
   37.4190   31.9290   38.0860 C   0  0  0  0  0  0  0  0  0  0  0  0
   37.6140   31.9190   37.0150 H   0  0  0  0  0  0  0  0  0  0  0  0
   37.6310   32.9880   38.8820 N   0  0  0  0  0  0  0  0  0  0  0  0
   38.0040   33.9370   38.6200 H   0  0  0  0  0  0  0  0  0  0  0  0
   37.3110   32.7270   40.1390 N   0  0  0  0  0  0  0  0  0  0  0  0
  1  2  1  0  0  0  0
  2  3  2  0  0  0  0
  2  7  1  0  0  0  0
  3  8  1  0  0  0  0
  4  3  1  0  0  0  0
  5  4  2  0  0  0  0
  6  5  1  0  0  0  0
  6  1  2  0  0  0  0
  9 12  1  1  0  0  0
  9  1  1  0  0  0  0
  9 11  1  0  0  0  0
 10 13  1  6  0  0  0
 10  9  1  0  0  0  0
 10 11  1  0  0  0  0
 11 14  1  0  0  0  0
 11 15  1  0  0  0  0
 16 10  1  0  0  0  0
 16 19  1  0  0  0  0
 17 16  1  0  0  0  0
 18 16  1  0  0  0  0
 20  5  1  0  0  0  0
 21 20  1  0  0  0  0
 22 21  1  0  0  0  0
 23 22  1  0  0  0  0
 24 26  1  0  0  0  0
 24 22  2  0  0  0  0
 25 24  1  0  0  0  0
 26 28  1  0  0  0  0
 27 26  1  0  0  0  0
 28 21  2  0  0  0  0
M  END
>  <minimizedAffinity>
-5.10300922

$$$$

 OpenBabel03252505483D

 28 30  0  0  1  0  0  0  0  0999 V2000
   36.9750   28.6270   41.8450 C   0  0  0  0  0  0  0  0  0  0  0  0
   35.7700   28.5260   41.1060 C   0  0  0  0  0  0  0  0  0  0  0  0
   35.3230   29.5930   40.3080 C   0  0  0  0  0  0  0  0  0  0  0  0
   36.1180   30.7000   40.3030 N   0  0  0  0  0  0  0  0  0  0  0  0
   37.2700   30.7470   41.0340 C   0  0  0  0  0  0  0  0  0  0  0  0
   37.6950   29.7480   41.7830 N   0  0  0  0  0  0  0  0  0  0  0  0
   35.1460   27.6260   41.1250 H   0  0  0  0  0  0  0  0  0  0  0  0
   34.4070   29.5250   39.7410 H   0  0  0  0  0  0  0  0  0  0  0  0
   37.3790   27.4790   42.6700 C   0  0  1  0  0  0  0  0  0  0  0  0
   38.1830   26.4200   41.8340 C   0  0  1  0  0  0  0  0  0  0  0  0
   38.7010   27.1540   43.0500 C   0  0  0  0  0  0  0  0  0  0  0  0
   36.4960   27.0240   43.2020 H   0  0  0  0  0  0  0  0  0  0  0  0
   38.5450   26.7150   40.8530 H   0  0  0  0  0  0  0  0  0  0  0  0
   38.9320   26.5900   43.9660 H   0  0  0  0  0  0  0  0  0  0  0  0
   39.5300   27.8840   42.8150 H   0  0  0  0  0  0  0  0  0  0  0  0
   37.7750   24.9920   42.1140 C   0  0  0  0  0  0  0  0  0  0  0  0
   36.4980   24.8740   42.5850 F   0  0  0  0  0  0  0  0  0  0  0  0
   37.8570   24.2620   40.9130 F   0  0  0  0  0  0  0  0  0  0  0  0
   38.6810   24.3740   42.9630 F   0  0  0  0  0  0  0  0  0  0  0  0
   37.9600   31.9580   40.9140 O   0  0  0  0  0  0  0  0  0  0  0  0
   38.8160   32.2350   39.8830 C   0  0  0  0  0  0  0  0  0  0  0  0
   40.0920   32.7190   40.0840 C   0  0  0  0  0  0  0  0  0  0  0  0
   40.6160   32.9520   41.0160 H   0  0  0  0  0  0  0  0  0  0  0  0
   40.6390   32.8730   38.8100 C   0  0  0  0  0  0  0  0  0  0  0  0
   41.6270   33.2290   38.5260 H   0  0  0  0  0  0  0  0  0  0  0  0
   39.6970   32.4860   37.9360 N   0  0  0  0  0  0  0  0  0  0  0  0
   39.7510   32.4640   36.8850 H   0  0  0  0  0  0  0  0  0  0  0  0
   38.5900   32.0980   38.5490 N   0  0  0  0  0  0  0  0  0  0  0  0
  1  9  1  0  0  0  0
  2  7  1  0  0  0  0
  2  1  2  0  0  0  0
  3  2  1  0  0  0  0
  4  3  2  0  0  0  0
  4  5  1  0  0  0  0
  5  6  2  0  0  0  0
  6  1  1  0  0  0  0
  8  3  1  0  0  0  0
  9 11  1  0  0  0  0
  9 12  1  1  0  0  0
 10 13  1  6  0  0  0
 10 16  1  0  0  0  0
 10  9  1  0  0  0  0
 10 11  1  0  0  0  0
 11 14  1  0  0  0  0
 15 11  1  0  0  0  0
 16 17  1  0  0  0  0
 16 19  1  0  0  0  0
 18 16  1  0  0  0  0
 20  5  1  0  0  0  0
 21 22  1  0  0  0  0
 21 20  1  0  0  0  0
 22 23  1  0  0  0  0
 24 22  2  0  0  0  0
 25 24  1  0  0  0  0
 26 28  1  0  0  0  0
 26 24  1  0  0  0  0
 27 26  1  0  0  0  0
 28 21  2  0  0  0  0
M  END
>  <minimizedAffinity>
-5.02736235

$$$$

 OpenBabel03252505483D

 28 30  0  0  1  0  0  0  0  0999 V2000
   36.8230   27.8810   40.7000 C   0  0  0  0  0  0  0  0  0  0  0  0
   36.9460   27.6450   39.3080 C   0  0  0  0  0  0  0  0  0  0  0  0
   36.9320   28.7120   38.3940 C   0  0  0  0  0  0  0  0  0  0  0  0
   36.7920   29.9550   38.9370 N   0  0  0  0  0  0  0  0  0  0  0  0
   36.6760   30.1270   40.2860 C   0  0  0  0  0  0  0  0  0  0  0  0
   36.6900   29.1290   41.1500 N   0  0  0  0  0  0  0  0  0  0  0  0
   37.0570   26.6380   38.8930 H   0  0  0  0  0  0  0  0  0  0  0  0
   37.0260   28.5440   37.3320 H   0  0  0  0  0  0  0  0  0  0  0  0
   36.8330   26.7190   41.6020 C   0  0  1  0  0  0  0  0  0  0  0  0
   38.2290   26.5390   42.2990 C   0  0  1  0  0  0  0  0  0  0  0  0
   36.9150   26.7630   43.0120 C   0  0  0  0  0  0  0  0  0  0  0  0
   36.4950   25.7840   41.0710 H   0  0  0  0  0  0  0  0  0  0  0  0
   38.9360   27.3620   42.2390 H   0  0  0  0  0  0  0  0  0  0  0  0
   36.5050   25.9700   43.6550 H   0  0  0  0  0  0  0  0  0  0  0  0
   36.8500   27.7640   43.5300 H   0  0  0  0  0  0  0  0  0  0  0  0
   38.7050   25.1060   42.3380 C   0  0  0  0  0  0  0  0  0  0  0  0
   39.4120   24.7370   41.2290 F   0  0  0  0  0  0  0  0  0  0  0  0
   39.5490   24.9470   43.4540 F   0  0  0  0  0  0  0  0  0  0  0  0
   37.6490   24.2380   42.5710 F   0  0  0  0  0  0  0  0  0  0  0  0
   36.5390   31.4660   40.6700 O   0  0  0  0  0  0  0  0  0  0  0  0
   37.4670   32.4280   40.3810 C   0  0  0  0  0  0  0  0  0  0  0  0
   38.7450   32.4090   40.8990 C   0  0  0  0  0  0  0  0  0  0  0  0
   39.2180   31.6910   41.5740 H   0  0  0  0  0  0  0  0  0  0  0  0
   39.3760   33.5400   40.3790 C   0  0  0  0  0  0  0  0  0  0  0  0
   40.3930   33.8930   40.5400 H   0  0  0  0  0  0  0  0  0  0  0  0
   38.4760   34.1610   39.6000 N   0  0  0  0  0  0  0  0  0  0  0  0
   38.5960   35.0470   39.0440 H   0  0  0  0  0  0  0  0  0  0  0  0
   37.3200   33.5190   39.5810 N   0  0  0  0  0  0  0  0  0  0  0  0
  1  6  1  0  0  0  0
  1  9  1  0  0  0  0
  2  1  2  0  0  0  0
  3  4  2  0  0  0  0
  3  2  1  0  0  0  0
  4  5  1  0  0  0  0
  5 20  1  0  0  0  0
  5  6  2  0  0  0  0
  7  2  1  0  0  0  0
  8  3  1  0  0  0  0
  9 12  1  6  0  0  0
  9 10  1  0  0  0  0
  9 11  1  0  0  0  0
 10 13  1  6  0  0  0
 10 16  1  0  0  0  0
 10 11  1  0  0  0  0
 11 15  1  0  0  0  0
 11 14  1  0  0  0  0
 16 19  1  0  0  0  0
 16 18  1  0  0  0  0
 17 16  1  0  0  0  0
 21 20  1  0  0  0  0
 21 22  1  0  0  0  0
 22 23  1  0  0  0  0
 24 25  1  0  0  0  0
 24 22  2  0  0  0  0
 26 24  1  0  0  0  0
 27 26  1  0  0  0  0
 28 26  1  0  0  0  0
 28 21  2  0  0  0  0
M  END
>  <minimizedAffinity>
-4.86120605

$$$$

 OpenBabel03252505483D

 28 30  0  0  1  0  0  0  0  0999 V2000
   37.3330   26.8150   42.3180 C   0  0  0  0  0  0  0  0  0  0  0  0
   38.3230   27.4140   43.1350 C   0  0  0  0  0  0  0  0  0  0  0  0
   38.4520   28.8120   43.2010 C   0  0  0  0  0  0  0  0  0  0  0  0
   37.5750   29.5240   42.4360 N   0  0  0  0  0  0  0  0  0  0  0  0
   36.6400   28.8970   41.6650 C   0  0  0  0  0  0  0  0  0  0  0  0
   36.5130   27.5840   41.6010 N   0  0  0  0  0  0  0  0  0  0  0  0
   39.0180   26.8240   43.7410 H   0  0  0  0  0  0  0  0  0  0  0  0
   39.2030   29.2800   43.8210 H   0  0  0  0  0  0  0  0  0  0  0  0
   37.2590   25.3460   42.2850 C   0  0  1  0  0  0  0  0  0  0  0  0
   37.8510   24.7670   40.9500 C   0  0  1  0  0  0  0  0  0  0  0  0
   38.3560   24.4580   42.3410 C   0  0  0  0  0  0  0  0  0  0  0  0
   36.2100   24.9830   42.4820 H   0  0  0  0  0  0  0  0  0  0  0  0
   38.4320   25.4350   40.3210 H   0  0  0  0  0  0  0  0  0  0  0  0
   38.2710   23.4340   42.7340 H   0  0  0  0  0  0  0  0  0  0  0  0
   39.3850   24.8760   42.5480 H   0  0  0  0  0  0  0  0  0  0  0  0
   37.0150   23.6610   40.3480 C   0  0  0  0  0  0  0  0  0  0  0  0
   35.6810   23.7830   40.6120 F   0  0  0  0  0  0  0  0  0  0  0  0
   37.1790   23.6910   38.9500 F   0  0  0  0  0  0  0  0  0  0  0  0
   37.4900   22.4160   40.7300 F   0  0  0  0  0  0  0  0  0  0  0  0
   35.8250   29.7770   40.9460 O   0  0  0  0  0  0  0  0  0  0  0  0
   35.2880   29.4750   39.7250 C   0  0  0  0  0  0  0  0  0  0  0  0
   36.0150   29.5390   38.5540 C   0  0  0  0  0  0  0  0  0  0  0  0
   37.0600   29.8170   38.3920 H   0  0  0  0  0  0  0  0  0  0  0  0
   35.1300   29.1640   37.5430 C   0  0  0  0  0  0  0  0  0  0  0  0
   35.3070   29.0840   36.4720 H   0  0  0  0  0  0  0  0  0  0  0  0
   33.9550   28.9020   38.1350 N   0  0  0  0  0  0  0  0  0  0  0  0
   33.0540   28.5910   37.6880 H   0  0  0  0  0  0  0  0  0  0  0  0
   34.0160   29.0800   39.4450 N   0  0  0  0  0  0  0  0  0  0  0  0
  1  2  1  0  0  0  0
  2  3  2  0  0  0  0
  2  7  1  0  0  0  0
  3  8  1  0  0  0  0
  4  3  1  0  0  0  0
  5  4  2  0  0  0  0
  6  5  1  0  0  0  0
  6  1  2  0  0  0  0
  9  1  1  0  0  0  0
  9 11  1  0  0  0  0
  9 12  1  1  0  0  0
 10 13  1  6  0  0  0
 10  9  1  0  0  0  0
 10 11  1  0  0  0  0
 11 15  1  0  0  0  0
 11 14  1  0  0  0  0
 16 17  1  0  0  0  0
 16 19  1  0  0  0  0
 16 10  1  0  0  0  0
 18 16  1  0  0  0  0
 20  5  1  0  0  0  0
 21 20  1  0  0  0  0
 22 21  1  0  0  0  0
 23 22  1  0  0  0  0
 24 26  1  0  0  0  0
 24 22  2  0  0  0  0
 25 24  1  0  0  0  0
 26 28  1  0  0  0  0
 27 26  1  0  0  0  0
 28 21  2  0  0  0  0
M  END
>  <minimizedAffinity>
-4.82141447

$$$$

 OpenBabel03252505483D

 28 30  0  0  1  0  0  0  0  0999 V2000
   37.6780   28.9710   41.6860 C   0  0  0  0  0  0  0  0  0  0  0  0
   38.4500   29.6330   42.6720 C   0  0  0  0  0  0  0  0  0  0  0  0
   39.2550   30.7350   42.3340 C   0  0  0  0  0  0  0  0  0  0  0  0
   39.2340   31.1020   41.0210 N   0  0  0  0  0  0  0  0  0  0  0  0
   38.4730   30.4280   40.1100 C   0  0  0  0  0  0  0  0  0  0  0  0
   37.7140   29.3940   40.4230 N   0  0  0  0  0  0  0  0  0  0  0  0
   38.4520   29.3220   43.7210 H   0  0  0  0  0  0  0  0  0  0  0  0
   39.8470   31.2480   43.0770 H   0  0  0  0  0  0  0  0  0  0  0  0
   36.8660   27.8170   42.1040 C   0  0  1  0  0  0  0  0  0  0  0  0
   37.7650   26.6050   42.5430 C   0  0  1  0  0  0  0  0  0  0  0  0
   36.7550   27.3110   43.4190 C   0  0  0  0  0  0  0  0  0  0  0  0
   36.1200   27.5310   41.3090 H   0  0  0  0  0  0  0  0  0  0  0  0
   38.8220   26.7920   42.7110 H   0  0  0  0  0  0  0  0  0  0  0  0
   35.8680   26.7660   43.7710 H   0  0  0  0  0  0  0  0  0  0  0  0
   37.2240   27.8920   44.2660 H   0  0  0  0  0  0  0  0  0  0  0  0
   37.2850   25.2740   42.0150 C   0  0  0  0  0  0  0  0  0  0  0  0
   37.0360   25.2790   40.6710 F   0  0  0  0  0  0  0  0  0  0  0  0
   38.2830   24.3120   42.2600 F   0  0  0  0  0  0  0  0  0  0  0  0
   36.1830   24.8250   42.7270 F   0  0  0  0  0  0  0  0  0  0  0  0
   38.5720   30.9360   38.8110 O   0  0  0  0  0  0  0  0  0  0  0  0
   39.7350   30.9330   38.0910 C   0  0  0  0  0  0  0  0  0  0  0  0
   40.5010   29.7980   37.9190 C   0  0  0  0  0  0  0  0  0  0  0  0
   40.3420   28.7820   38.2890 H   0  0  0  0  0  0  0  0  0  0  0  0
   41.5880   30.1960   37.1390 C   0  0  0  0  0  0  0  0  0  0  0  0
   42.4260   29.6030   36.7780 H   0  0  0  0  0  0  0  0  0  0  0  0
   41.4260   31.5040   36.8890 N   0  0  0  0  0  0  0  0  0  0  0  0
   42.0500   32.1440   36.3320 H   0  0  0  0  0  0  0  0  0  0  0  0
   40.3240   31.9770   37.4470 N   0  0  0  0  0  0  0  0  0  0  0  0
  1  9  1  0  0  0  0
  1  2  1  0  0  0  0
  2  7  1  0  0  0  0
  3  2  2  0  0  0  0
  3  8  1  0  0  0  0
  4  3  1  0  0  0  0
  5  6  1  0  0  0  0
  5  4  2  0  0  0  0
  6  1  2  0  0  0  0
  9 12  1  6  0  0  0
  9 10  1  0  0  0  0
  9 11  1  0  0  0  0
 10 13  1  1  0  0  0
 10 11  1  0  0  0  0
 11 14  1  0  0  0  0
 11 15  1  0  0  0  0
 16 18  1  0  0  0  0
 16 10  1  0  0  0  0
 16 19  1  0  0  0  0
 17 16  1  0  0  0  0
 20  5  1  0  0  0  0
 21 20  1  0  0  0  0
 22 21  1  0  0  0  0
 22 23  1  0  0  0  0
 24 22  2  0  0  0  0
 25 24  1  0  0  0  0
 26 24  1  0  0  0  0
 26 28  1  0  0  0  0
 27 26  1  0  0  0  0
 28 21  2  0  0  0  0
M  END
>  <minimizedAffinity>
-4.8034339

$$$$

 OpenBabel03252505483D

 28 30  0  0  1  0  0  0  0  0999 V2000
   36.5390   28.6840   41.3210 C   0  0  0  0  0  0  0  0  0  0  0  0
   37.0870   29.9090   41.7740 C   0  0  0  0  0  0  0  0  0  0  0  0
   37.0740   31.0500   40.9540 C   0  0  0  0  0  0  0  0  0  0  0  0
   36.5110   30.8880   39.7230 N   0  0  0  0  0  0  0  0  0  0  0  0
   35.9970   29.6840   39.3340 C   0  0  0  0  0  0  0  0  0  0  0  0
   36.0050   28.6100   40.1010 N   0  0  0  0  0  0  0  0  0  0  0  0
   37.5350   30.0180   42.7670 H   0  0  0  0  0  0  0  0  0  0  0  0
   37.4890   31.9890   41.2900 H   0  0  0  0  0  0  0  0  0  0  0  0
   36.5950   27.5240   42.2240 C   0  0  1  0  0  0  0  0  0  0  0  0
   37.7370   26.5270   41.8150 C   0  0  1  0  0  0  0  0  0  0  0  0
   37.6280   27.2380   43.1450 C   0  0  0  0  0  0  0  0  0  0  0  0
   35.5910   27.0180   42.3050 H   0  0  0  0  0  0  0  0  0  0  0  0
   38.4790   26.8700   41.1000 H   0  0  0  0  0  0  0  0  0  0  0  0
   37.4600   26.6520   44.0600 H   0  0  0  0  0  0  0  0  0  0  0  0
   38.4380   28.0070   43.3100 H   0  0  0  0  0  0  0  0  0  0  0  0
   37.3190   25.0750   41.8660 C   0  0  0  0  0  0  0  0  0  0  0  0
   36.3540   24.8200   42.7990 F   0  0  0  0  0  0  0  0  0  0  0  0
   36.8020   24.7170   40.6070 F   0  0  0  0  0  0  0  0  0  0  0  0
   38.4180   24.2480   42.0430 F   0  0  0  0  0  0  0  0  0  0  0  0
   35.4610   29.6950   38.0420 O   0  0  0  0  0  0  0  0  0  0  0  0
   36.1540   29.2800   36.9390 C   0  0  0  0  0  0  0  0  0  0  0  0
   35.5390   28.6950   35.8500 C   0  0  0  0  0  0  0  0  0  0  0  0
   34.4830   28.4720   35.6760 H   0  0  0  0  0  0  0  0  0  0  0  0
   36.5660   28.4160   34.9470 C   0  0  0  0  0  0  0  0  0  0  0  0
   36.5070   27.9540   33.9630 H   0  0  0  0  0  0  0  0  0  0  0  0
   37.7070   28.8330   35.5170 N   0  0  0  0  0  0  0  0  0  0  0  0
   38.6850   28.7860   35.1310 H   0  0  0  0  0  0  0  0  0  0  0  0
   37.4930   29.3560   36.7140 N   0  0  0  0  0  0  0  0  0  0  0  0
  1  2  1  0  0  0  0
  1  9  1  0  0  0  0
  2  7  1  0  0  0  0
  3  8  1  0  0  0  0
  3  2  2  0  0  0  0
  4  3  1  0  0  0  0
  5  4  2  0  0  0  0
  5  6  1  0  0  0  0
  6  1  2  0  0  0  0
  9 12  1  1  0  0  0
  9 11  1  0  0  0  0
 10 13  1  6  0  0  0
 10 16  1  0  0  0  0
 10  9  1  0  0  0  0
 10 11  1  0  0  0  0
 11 15  1  0  0  0  0
 11 14  1  0  0  0  0
 16 19  1  0  0  0  0
 16 17  1  0  0  0  0
 18 16  1  0  0  0  0
 20  5  1  0  0  0  0
 21 20  1  0  0  0  0
 22 21  1  0  0  0  0
 23 22  1  0  0  0  0
 24 26  1  0  0  0  0
 24 22  2  0  0  0  0
 25 24  1  0  0  0  0
 26 28  1  0  0  0  0
 27 26  1  0  0  0  0
 28 21  2  0  0  0  0
M  END
>  <minimizedAffinity>
-4.79276323

$$$$
