
 OpenBabel03242513593D

 40 44  0  0  0  0  0  0  0  0999 V2000
   44.4380   35.6920   44.5940 C   0  0  0  0  0  0  0  0  0  0  0  0
   44.5960   35.2480   43.2950 C   0  0  0  0  0  0  0  0  0  0  0  0
   45.2610   34.0040   43.0990 C   0  0  0  0  0  0  0  0  0  0  0  0
   45.6910   33.3450   44.1870 N   0  0  0  0  0  0  0  0  0  0  0  0
   45.5260   33.7930   45.4330 C   0  0  0  0  0  0  0  0  0  0  0  0
   44.8850   34.9950   45.6340 N   0  0  0  0  0  0  0  0  0  0  0  0
   43.9340   36.6340   44.7280 H   0  0  0  0  0  0  0  0  0  0  0  0
   45.3990   33.6300   42.0920 H   0  0  0  0  0  0  0  0  0  0  0  0
   45.9680   33.1250   46.6400 C   0  0  0  0  0  0  0  0  0  0  0  0
   45.1190   32.9450   47.7380 C   0  0  0  0  0  0  0  0  0  0  0  0
   45.8250   32.2790   48.7320 C   0  0  0  0  0  0  0  0  0  0  0  0
   47.0710   32.0730   48.2180 N   0  0  0  0  0  0  0  0  0  0  0  0
   47.1290   32.5830   46.9790 N   0  0  0  0  0  0  0  0  0  0  0  0
   44.0740   33.2210   47.9330 H   0  0  0  0  0  0  0  0  0  0  0  0
   45.4930   31.9750   49.7100 H   0  0  0  0  0  0  0  0  0  0  0  0
   48.1880   31.4310   48.8230 C   0  0  0  0  0  0  0  0  0  0  0  0
   49.4060   31.7740   49.4200 C   0  0  0  0  0  0  0  0  0  0  0  0
   49.6030   32.8460   49.4560 H   0  0  0  0  0  0  0  0  0  0  0  0
   50.0210   30.6000   49.8030 C   0  0  0  0  0  0  0  0  0  0  0  0
   50.9770   30.6600   50.2840 H   0  0  0  0  0  0  0  0  0  0  0  0
   49.2140   29.5820   49.4540 N   0  0  0  0  0  0  0  0  0  0  0  0
   49.4570   28.5830   49.6370 H   0  0  0  0  0  0  0  0  0  0  0  0
   48.1320   30.0760   48.8760 N   0  0  0  0  0  0  0  0  0  0  0  0
   44.1640   35.9070   42.1550 O   0  0  0  0  0  0  0  0  0  0  0  0
   43.4110   35.3290   41.1440 C   0  0  0  0  0  0  0  0  0  0  0  0
   43.8830   34.5900   40.0790 C   0  0  0  0  0  0  0  0  0  0  0  0
   43.0010   34.0830   39.1580 C   0  0  0  0  0  0  0  0  0  0  0  0
   41.6300   34.2820   39.2470 C   0  0  0  0  0  0  0  0  0  0  0  0
   40.8340   33.7610   38.3170 N   0  0  0  0  0  0  0  0  0  0  0  0
   39.5000   33.9410   38.3800 C   0  0  0  0  0  0  0  0  0  0  0  0
   38.9840   34.6690   39.4200 C   0  0  0  0  0  0  0  0  0  0  0  0
   39.8190   35.2240   40.4120 C   0  0  0  0  0  0  0  0  0  0  0  0
   41.1850   35.0160   40.3080 C   0  0  0  0  0  0  0  0  0  0  0  0
   42.0360   35.5620   41.2850 C   0  0  0  0  0  0  0  0  0  0  0  0
   44.9550   34.4540   40.0410 H   0  0  0  0  0  0  0  0  0  0  0  0
   43.4190   33.5110   38.3430 H   0  0  0  0  0  0  0  0  0  0  0  0
   38.8030   33.5430   37.6550 H   0  0  0  0  0  0  0  0  0  0  0  0
   37.9350   34.8910   39.5960 H   0  0  0  0  0  0  0  0  0  0  0  0
   39.4310   35.8020   41.2400 H   0  0  0  0  0  0  0  0  0  0  0  0
   41.5690   36.1260   42.0810 H   0  0  0  0  0  0  0  0  0  0  0  0
  1  7  1  0  0  0  0
  1  6  1  0  0  0  0
  2  1  2  0  0  0  0
  3  2  1  0  0  0  0
  3  4  2  0  0  0  0
  4  5  1  0  0  0  0
  5  6  2  0  0  0  0
  5  9  1  0  0  0  0
  8  3  1  0  0  0  0
  9 13  2  0  0  0  0
  9 10  1  0  0  0  0
 10 14  1  0  0  0  0
 10 11  2  0  0  0  0
 11 15  1  0  0  0  0
 12 11  1  0  0  0  0
 12 16  1  0  0  0  0
 13 12  1  0  0  0  0
 16 23  2  0  0  0  0
 16 17  1  0  0  0  0
 17 18  1  0  0  0  0
 17 19  2  0  0  0  0
 19 20  1  0  0  0  0
 21 22  1  0  0  0  0
 21 19  1  0  0  0  0
 23 21  1  0  0  0  0
 24  2  1  0  0  0  0
 25 34  1  0  0  0  0
 25 24  1  0  0  0  0
 26 25  2  0  0  0  0
 27 28  2  0  0  0  0
 27 26  1  0  0  0  0
 28 33  1  0  0  0  0
 29 30  2  0  0  0  0
 29 28  1  0  0  0  0
 30 31  1  0  0  0  0
 31 38  1  0  0  0  0
 31 32  2  0  0  0  0
 32 39  1  0  0  0  0
 33 32  1  0  0  0  0
 33 34  2  0  0  0  0
 34 40  1  0  0  0  0
 35 26  1  0  0  0  0
 36 27  1  0  0  0  0
 37 30  1  0  0  0  0
M  END
>  <minimizedAffinity>
-7.91762924

>  <minimizedRMSD>
1.44794428

$$$$
