
 OpenBabel03252507223D

 46 49  0  0  1  0  0  0  0  0999 V2000
   47.3310   33.7170   42.8370 C   0  0  0  0  0  0  0  0  0  0  0  0
   48.4530   33.5380   43.4290 O   0  0  0  0  0  0  0  0  0  0  0  0
   47.0350   33.1930   41.5490 N   0  0  0  0  0  0  0  0  0  0  0  0
   45.8230   32.5250   41.0530 C   0  0  0  0  0  0  0  0  0  0  0  0
   45.3690   33.1940   39.7650 C   0  0  0  0  0  0  0  0  0  0  0  0
   46.4080   33.0680   38.6910 C   0  0  0  0  0  0  0  0  0  0  0  0
   47.7050   32.5730   39.3050 C   0  0  0  0  0  0  0  0  0  0  0  0
   48.0530   33.3140   40.5440 C   0  0  2  0  0  0  0  0  0  0  0  0
   45.9750   31.4470   40.9300 H   0  0  0  0  0  0  0  0  0  0  0  0
   45.0090   32.7360   41.8000 H   0  0  0  0  0  0  0  0  0  0  0  0
   45.1110   34.2410   40.0230 H   0  0  0  0  0  0  0  0  0  0  0  0
   44.4450   32.6430   39.4540 H   0  0  0  0  0  0  0  0  0  0  0  0
   46.1250   32.4370   37.8440 H   0  0  0  0  0  0  0  0  0  0  0  0
   46.5700   34.1030   38.2700 H   0  0  0  0  0  0  0  0  0  0  0  0
   48.5330   32.6350   38.5770 H   0  0  0  0  0  0  0  0  0  0  0  0
   47.5550   31.4770   39.4780 H   0  0  0  0  0  0  0  0  0  0  0  0
   48.0960   34.3960   40.2770 H   0  0  0  0  0  0  0  0  0  0  0  0
   45.9390   35.7250   42.9590 C   0  0  0  0  0  0  0  0  0  0  0  0
   46.3230   34.4920   43.5250 C   0  0  0  0  0  0  0  0  0  0  0  0
   45.7450   34.0500   44.7020 C   0  0  0  0  0  0  0  0  0  0  0  0
   44.8110   34.8430   45.2730 N   0  0  0  0  0  0  0  0  0  0  0  0
   44.4240   36.0390   44.7440 C   0  0  0  0  0  0  0  0  0  0  0  0
   45.0020   36.4580   43.5890 N   0  0  0  0  0  0  0  0  0  0  0  0
   46.3950   36.0600   42.0410 H   0  0  0  0  0  0  0  0  0  0  0  0
   43.6860   36.6580   45.2020 H   0  0  0  0  0  0  0  0  0  0  0  0
   46.1600   32.7870   45.2520 C   0  0  0  0  0  0  0  0  0  0  0  0
   45.8040   31.6220   44.6600 C   0  0  0  0  0  0  0  0  0  0  0  0
   46.2200   30.4280   45.2140 C   0  0  0  0  0  0  0  0  0  0  0  0
   46.9980   30.3650   46.3700 C   0  0  0  0  0  0  0  0  0  0  0  0
   47.3370   31.5960   46.9420 C   0  0  0  0  0  0  0  0  0  0  0  0
   46.9150   32.7240   46.3740 N   0  0  0  0  0  0  0  0  0  0  0  0
   45.2050   31.5450   43.7630 H   0  0  0  0  0  0  0  0  0  0  0  0
   45.9700   29.4530   44.7920 H   0  0  0  0  0  0  0  0  0  0  0  0
   47.3540   29.4900   46.8540 H   0  0  0  0  0  0  0  0  0  0  0  0
   47.9380   31.7330   47.8440 H   0  0  0  0  0  0  0  0  0  0  0  0
   49.4320   32.9540   41.0030 C   0  0  0  0  0  0  0  0  0  0  0  0
   49.7840   33.4410   41.9110 H   0  0  0  0  0  0  0  0  0  0  0  0
   50.0930   33.3930   40.2040 H   0  0  0  0  0  0  0  0  0  0  0  0
   49.7070   31.4930   40.9480 C   0  0  0  0  0  0  0  0  0  0  0  0
   50.7410   31.0470   40.1500 C   0  0  0  0  0  0  0  0  0  0  0  0
   51.4740   31.5290   39.4920 H   0  0  0  0  0  0  0  0  0  0  0  0
   50.7670   29.6570   40.2930 C   0  0  0  0  0  0  0  0  0  0  0  0
   51.4220   28.9140   39.8420 H   0  0  0  0  0  0  0  0  0  0  0  0
   49.7670   29.3130   41.1550 N   0  0  0  0  0  0  0  0  0  0  0  0
   49.5480   28.3320   41.4500 H   0  0  0  0  0  0  0  0  0  0  0  0
   49.1530   30.4360   41.5280 N   0  0  0  0  0  0  0  0  0  0  0  0
  1  2  2  0  0  0  0
  1 19  1  0  0  0  0
  3  1  1  0  0  0  0
  4  3  1  0  0  0  0
  4 10  1  0  0  0  0
  5 11  1  0  0  0  0
  5  4  1  0  0  0  0
  6  7  1  0  0  0  0
  6  5  1  0  0  0  0
  7 16  1  0  0  0  0
  7  8  1  0  0  0  0
  8 17  1  6  0  0  0
  8 36  1  0  0  0  0
  8  3  1  0  0  0  0
  9  4  1  0  0  0  0
 12  5  1  0  0  0  0
 13  6  1  0  0  0  0
 14  6  1  0  0  0  0
 15  7  1  0  0  0  0
 18 19  2  0  0  0  0
 18 23  1  0  0  0  0
 19 20  1  0  0  0  0
 20 26  1  0  0  0  0
 20 21  2  0  0  0  0
 22 25  1  0  0  0  0
 22 21  1  0  0  0  0
 23 22  2  0  0  0  0
 24 18  1  0  0  0  0
 26 31  1  0  0  0  0
 27 28  1  0  0  0  0
 27 26  2  0  0  0  0
 28 29  2  0  0  0  0
 29 34  1  0  0  0  0
 29 30  1  0  0  0  0
 30 35  1  0  0  0  0
 31 30  2  0  0  0  0
 32 27  1  0  0  0  0
 33 28  1  0  0  0  0
 36 37  1  0  0  0  0
 38 36  1  0  0  0  0
 39 36  1  0  0  0  0
 39 46  2  0  0  0  0
 40 42  2  0  0  0  0
 40 39  1  0  0  0  0
 41 40  1  0  0  0  0
 42 44  1  0  0  0  0
 43 42  1  0  0  0  0
 44 45  1  0  0  0  0
 44 46  1  0  0  0  0
M  END
>  <minimizedAffinity>
-4.86662102

>  <minimizedRMSD>
0.762463748

$$$$
