
 OpenBabel03242516213D

 27 29  0  0  0  0  0  0  0  0999 V2000
   37.5740   28.5400   41.6490 C   0  0  0  0  0  0  0  0  0  0  0  0
   38.0010   29.8190   41.3490 C   0  0  0  0  0  0  0  0  0  0  0  0
   37.1610   30.7320   40.7320 C   0  0  0  0  0  0  0  0  0  0  0  0
   35.8740   30.4060   40.3930 C   0  0  0  0  0  0  0  0  0  0  0  0
   35.4350   29.1470   40.6800 C   0  0  0  0  0  0  0  0  0  0  0  0
   36.2670   28.2180   41.3000 C   0  0  0  0  0  0  0  0  0  0  0  0
   39.0170   30.0820   41.6150 H   0  0  0  0  0  0  0  0  0  0  0  0
   35.2830   31.1580   39.9180 H   0  0  0  0  0  0  0  0  0  0  0  0
   34.4280   28.8660   40.4240 H   0  0  0  0  0  0  0  0  0  0  0  0
   35.8890   27.2190   41.5190 H   0  0  0  0  0  0  0  0  0  0  0  0
   38.9930   25.3330   42.6600 C   0  0  0  0  0  0  0  0  0  0  0  0
   40.0850   25.7000   43.4740 C   0  0  0  0  0  0  0  0  0  0  0  0
   40.3340   27.0680   43.6770 C   0  0  0  0  0  0  0  0  0  0  0  0
   39.5060   27.9600   43.0740 N   0  0  0  0  0  0  0  0  0  0  0  0
   38.4670   27.5880   42.2990 C   0  0  0  0  0  0  0  0  0  0  0  0
   38.2120   26.2670   42.0920 N   0  0  0  0  0  0  0  0  0  0  0  0
   38.7880   24.2860   42.4930 H   0  0  0  0  0  0  0  0  0  0  0  0
   40.7110   24.9490   43.9280 H   0  0  0  0  0  0  0  0  0  0  0  0
   41.1640   27.3750   44.2960 H   0  0  0  0  0  0  0  0  0  0  0  0
   37.6760   32.0660   40.4440 C   0  0  0  0  0  0  0  0  0  0  0  0
   38.7720   32.6730   41.0290 C   0  0  0  0  0  0  0  0  0  0  0  0
   39.4350   32.2820   41.7890 H   0  0  0  0  0  0  0  0  0  0  0  0
   38.9240   33.9320   40.4800 C   0  0  0  0  0  0  0  0  0  0  0  0
   39.6370   34.7300   40.6440 H   0  0  0  0  0  0  0  0  0  0  0  0
   37.9180   34.0680   39.5720 N   0  0  0  0  0  0  0  0  0  0  0  0
   37.6220   34.8240   38.9200 H   0  0  0  0  0  0  0  0  0  0  0  0
   37.2060   32.9660   39.5720 N   0  0  0  0  0  0  0  0  0  0  0  0
  1 15  1  0  0  0  0
  2  7  1  0  0  0  0
  2  1  1  0  0  0  0
  3  2  2  0  0  0  0
  4  5  2  0  0  0  0
  4  3  1  0  0  0  0
  5  6  1  0  0  0  0
  6 10  1  0  0  0  0
  6  1  2  0  0  0  0
  8  4  1  0  0  0  0
  9  5  1  0  0  0  0
 11 12  1  0  0  0  0
 12 13  2  0  0  0  0
 12 18  1  0  0  0  0
 13 19  1  0  0  0  0
 14 13  1  0  0  0  0
 15 14  2  0  0  0  0
 16 15  1  0  0  0  0
 16 11  2  0  0  0  0
 17 11  1  0  0  0  0
 20  3  1  0  0  0  0
 20 21  1  0  0  0  0
 21 22  1  0  0  0  0
 23 24  1  0  0  0  0
 23 21  2  0  0  0  0
 25 23  1  0  0  0  0
 26 25  1  0  0  0  0
 27 25  1  0  0  0  0
 27 20  2  0  0  0  0
M  END
>  <minimizedAffinity>
-5.25806808

$$$$

 OpenBabel03242516213D

 27 29  0  0  0  0  0  0  0  0999 V2000
   37.1660   26.9350   41.4470 C   0  0  0  0  0  0  0  0  0  0  0  0
   37.1730   28.2380   40.9880 C   0  0  0  0  0  0  0  0  0  0  0  0
   37.5370   29.2890   41.8140 C   0  0  0  0  0  0  0  0  0  0  0  0
   37.9050   29.0810   43.1170 C   0  0  0  0  0  0  0  0  0  0  0  0
   37.9030   27.8010   43.5880 C   0  0  0  0  0  0  0  0  0  0  0  0
   37.5400   26.7350   42.7700 C   0  0  0  0  0  0  0  0  0  0  0  0
   36.8830   28.4070   39.9590 H   0  0  0  0  0  0  0  0  0  0  0  0
   38.1720   29.9380   43.6970 H   0  0  0  0  0  0  0  0  0  0  0  0
   38.1890   27.6120   44.6080 H   0  0  0  0  0  0  0  0  0  0  0  0
   37.5490   25.7210   43.1730 H   0  0  0  0  0  0  0  0  0  0  0  0
   36.5190   23.5190   40.3340 C   0  0  0  0  0  0  0  0  0  0  0  0
   36.0800   23.6860   39.0040 C   0  0  0  0  0  0  0  0  0  0  0  0
   36.0060   24.9890   38.4850 C   0  0  0  0  0  0  0  0  0  0  0  0
   36.3640   26.0170   39.2980 N   0  0  0  0  0  0  0  0  0  0  0  0
   36.7810   25.8360   40.5680 C   0  0  0  0  0  0  0  0  0  0  0  0
   36.8570   24.5800   41.0860 N   0  0  0  0  0  0  0  0  0  0  0  0
   36.5810   22.5240   40.7490 H   0  0  0  0  0  0  0  0  0  0  0  0
   35.8080   22.8330   38.4030 H   0  0  0  0  0  0  0  0  0  0  0  0
   35.6730   25.1430   37.4700 H   0  0  0  0  0  0  0  0  0  0  0  0
   37.5220   30.6410   41.2660 C   0  0  0  0  0  0  0  0  0  0  0  0
   38.6120   31.4750   41.0970 C   0  0  0  0  0  0  0  0  0  0  0  0
   39.6510   31.2860   41.3330 H   0  0  0  0  0  0  0  0  0  0  0  0
   38.1740   32.6660   40.5490 C   0  0  0  0  0  0  0  0  0  0  0  0
   38.6810   33.5780   40.2590 H   0  0  0  0  0  0  0  0  0  0  0  0
   36.8270   32.5340   40.3950 N   0  0  0  0  0  0  0  0  0  0  0  0
   36.0720   33.1510   40.0290 H   0  0  0  0  0  0  0  0  0  0  0  0
   36.4750   31.3440   40.8210 N   0  0  0  0  0  0  0  0  0  0  0  0
  1  6  1  0  0  0  0
  2  1  2  0  0  0  0
  2  3  1  0  0  0  0
  3  4  2  0  0  0  0
  4  5  1  0  0  0  0
  4  8  1  0  0  0  0
  5  9  1  0  0  0  0
  6 10  1  0  0  0  0
  6  5  2  0  0  0  0
  7  2  1  0  0  0  0
 11 17  1  0  0  0  0
 11 16  1  0  0  0  0
 12 11  2  0  0  0  0
 13 12  1  0  0  0  0
 13 14  2  0  0  0  0
 14 15  1  0  0  0  0
 15 16  2  0  0  0  0
 15  1  1  0  0  0  0
 18 12  1  0  0  0  0
 19 13  1  0  0  0  0
 20  3  1  0  0  0  0
 21 20  1  0  0  0  0
 21 22  1  0  0  0  0
 23 21  2  0  0  0  0
 24 23  1  0  0  0  0
 25 23  1  0  0  0  0
 25 27  1  0  0  0  0
 26 25  1  0  0  0  0
 27 20  2  0  0  0  0
M  END
>  <minimizedAffinity>
-5.24755049

$$$$

 OpenBabel03242516213D

 27 29  0  0  0  0  0  0  0  0999 V2000
   37.3580   29.0020   41.3710 C   0  0  0  0  0  0  0  0  0  0  0  0
   37.3750   27.6690   41.0090 C   0  0  0  0  0  0  0  0  0  0  0  0
   37.4000   26.6650   41.9620 C   0  0  0  0  0  0  0  0  0  0  0  0
   37.4080   26.9490   43.3020 C   0  0  0  0  0  0  0  0  0  0  0  0
   37.3930   28.2600   43.6800 C   0  0  0  0  0  0  0  0  0  0  0  0
   37.3670   29.2800   42.7330 C   0  0  0  0  0  0  0  0  0  0  0  0
   37.3680   27.4390   39.9510 H   0  0  0  0  0  0  0  0  0  0  0  0
   37.4290   26.1250   43.9820 H   0  0  0  0  0  0  0  0  0  0  0  0
   37.3990   28.5090   44.7260 H   0  0  0  0  0  0  0  0  0  0  0  0
   37.3540   30.3200   43.0630 H   0  0  0  0  0  0  0  0  0  0  0  0
   37.2980   32.3550   39.9300 C   0  0  0  0  0  0  0  0  0  0  0  0
   37.2830   32.1130   38.5400 C   0  0  0  0  0  0  0  0  0  0  0  0
   37.2940   30.7800   38.0950 C   0  0  0  0  0  0  0  0  0  0  0  0
   37.3180   29.7980   39.0330 N   0  0  0  0  0  0  0  0  0  0  0  0
   37.3320   30.0510   40.3580 C   0  0  0  0  0  0  0  0  0  0  0  0
   37.3220   31.3360   40.8060 N   0  0  0  0  0  0  0  0  0  0  0  0
   37.2900   33.3730   40.2880 H   0  0  0  0  0  0  0  0  0  0  0  0
   37.2640   32.9320   37.8390 H   0  0  0  0  0  0  0  0  0  0  0  0
   37.2830   30.5700   37.0360 H   0  0  0  0  0  0  0  0  0  0  0  0
   37.4170   25.2770   41.5100 C   0  0  0  0  0  0  0  0  0  0  0  0
   36.7030   24.7440   40.4540 C   0  0  0  0  0  0  0  0  0  0  0  0
   36.0150   25.2420   39.7830 H   0  0  0  0  0  0  0  0  0  0  0  0
   36.9980   23.3970   40.3570 C   0  0  0  0  0  0  0  0  0  0  0  0
   36.6690   22.6130   39.6870 H   0  0  0  0  0  0  0  0  0  0  0  0
   37.8870   23.1370   41.3560 N   0  0  0  0  0  0  0  0  0  0  0  0
   38.3900   22.2840   41.6800 H   0  0  0  0  0  0  0  0  0  0  0  0
   38.1130   24.2510   42.0120 N   0  0  0  0  0  0  0  0  0  0  0  0
  1  6  1  0  0  0  0
  2  1  2  0  0  0  0
  2  3  1  0  0  0  0
  3  4  2  0  0  0  0
  4  5  1  0  0  0  0
  4  8  1  0  0  0  0
  5  9  1  0  0  0  0
  6 10  1  0  0  0  0
  6  5  2  0  0  0  0
  7  2  1  0  0  0  0
 11 17  1  0  0  0  0
 11 16  1  0  0  0  0
 12 11  2  0  0  0  0
 13 12  1  0  0  0  0
 13 14  2  0  0  0  0
 14 15  1  0  0  0  0
 15 16  2  0  0  0  0
 15  1  1  0  0  0  0
 18 12  1  0  0  0  0
 19 13  1  0  0  0  0
 20  3  1  0  0  0  0
 20 27  2  0  0  0  0
 21 20  1  0  0  0  0
 22 21  1  0  0  0  0
 23 21  2  0  0  0  0
 23 25  1  0  0  0  0
 24 23  1  0  0  0  0
 25 26  1  0  0  0  0
 25 27  1  0  0  0  0
M  END
>  <minimizedAffinity>
-5.15579796

$$$$

 OpenBabel03242516213D

 27 29  0  0  0  0  0  0  0  0999 V2000
   36.4050   27.2880   39.3890 C   0  0  0  0  0  0  0  0  0  0  0  0
   36.7110   28.5930   39.7190 C   0  0  0  0  0  0  0  0  0  0  0  0
   36.3550   29.6460   38.8930 C   0  0  0  0  0  0  0  0  0  0  0  0
   35.6860   29.4390   37.7150 C   0  0  0  0  0  0  0  0  0  0  0  0
   35.3760   28.1560   37.3720 C   0  0  0  0  0  0  0  0  0  0  0  0
   35.7260   27.0870   38.1920 C   0  0  0  0  0  0  0  0  0  0  0  0
   37.2390   28.7620   40.6490 H   0  0  0  0  0  0  0  0  0  0  0  0
   35.4440   30.2970   37.1270 H   0  0  0  0  0  0  0  0  0  0  0  0
   34.8500   27.9670   36.4520 H   0  0  0  0  0  0  0  0  0  0  0  0
   35.4640   26.0710   37.8930 H   0  0  0  0  0  0  0  0  0  0  0  0
   37.9100   25.5400   42.2180 C   0  0  0  0  0  0  0  0  0  0  0  0
   37.5580   24.1920   41.9940 C   0  0  0  0  0  0  0  0  0  0  0  0
   36.7940   23.8820   40.8560 C   0  0  0  0  0  0  0  0  0  0  0  0
   36.4370   24.9030   40.0350 N   0  0  0  0  0  0  0  0  0  0  0  0
   36.7840   26.1860   40.2660 C   0  0  0  0  0  0  0  0  0  0  0  0
   37.5230   26.5030   41.3640 N   0  0  0  0  0  0  0  0  0  0  0  0
   38.4960   25.7950   43.0880 H   0  0  0  0  0  0  0  0  0  0  0  0
   37.8680   23.4210   42.6810 H   0  0  0  0  0  0  0  0  0  0  0  0
   36.5120   22.8580   40.6630 H   0  0  0  0  0  0  0  0  0  0  0  0
   36.7090   31.0020   39.3020 C   0  0  0  0  0  0  0  0  0  0  0  0
   37.1580   32.0200   38.4820 C   0  0  0  0  0  0  0  0  0  0  0  0
   37.3250   32.0040   37.4140 H   0  0  0  0  0  0  0  0  0  0  0  0
   37.3810   33.1430   39.2570 C   0  0  0  0  0  0  0  0  0  0  0  0
   37.7270   34.1430   39.0290 H   0  0  0  0  0  0  0  0  0  0  0  0
   37.0640   32.7860   40.5330 N   0  0  0  0  0  0  0  0  0  0  0  0
   37.0680   33.2800   41.4490 H   0  0  0  0  0  0  0  0  0  0  0  0
   36.6760   31.5330   40.5290 N   0  0  0  0  0  0  0  0  0  0  0  0
  1  2  1  0  0  0  0
  1 15  1  0  0  0  0
  2  7  1  0  0  0  0
  3 20  1  0  0  0  0
  3  2  2  0  0  0  0
  4  3  1  0  0  0  0
  5  4  2  0  0  0  0
  5  6  1  0  0  0  0
  6  1  2  0  0  0  0
  8  4  1  0  0  0  0
  9  5  1  0  0  0  0
 10  6  1  0  0  0  0
 11 17  1  0  0  0  0
 12 11  1  0  0  0  0
 12 18  1  0  0  0  0
 13 12  2  0  0  0  0
 14 15  2  0  0  0  0
 14 13  1  0  0  0  0
 15 16  1  0  0  0  0
 16 11  2  0  0  0  0
 19 13  1  0  0  0  0
 20 27  2  0  0  0  0
 21 23  2  0  0  0  0
 21 20  1  0  0  0  0
 22 21  1  0  0  0  0
 23 25  1  0  0  0  0
 24 23  1  0  0  0  0
 25 26  1  0  0  0  0
 27 25  1  0  0  0  0
M  END
>  <minimizedAffinity>
-4.99518156

$$$$

 OpenBabel03242516213D

 27 29  0  0  0  0  0  0  0  0999 V2000
   35.9190   29.6200   38.3190 C   0  0  0  0  0  0  0  0  0  0  0  0
   36.7440   30.6580   38.7050 C   0  0  0  0  0  0  0  0  0  0  0  0
   36.8870   31.0060   40.0380 C   0  0  0  0  0  0  0  0  0  0  0  0
   36.2160   30.3370   41.0290 C   0  0  0  0  0  0  0  0  0  0  0  0
   35.3960   29.3100   40.6670 C   0  0  0  0  0  0  0  0  0  0  0  0
   35.2430   28.9480   39.3310 C   0  0  0  0  0  0  0  0  0  0  0  0
   37.2760   31.1900   37.9270 H   0  0  0  0  0  0  0  0  0  0  0  0
   36.3720   30.6600   42.0360 H   0  0  0  0  0  0  0  0  0  0  0  0
   34.8580   28.7690   41.4260 H   0  0  0  0  0  0  0  0  0  0  0  0
   34.5810   28.1210   39.0700 H   0  0  0  0  0  0  0  0  0  0  0  0
   34.3270   28.5630   35.2090 C   0  0  0  0  0  0  0  0  0  0  0  0
   35.3890   28.5690   34.2800 C   0  0  0  0  0  0  0  0  0  0  0  0
   36.6670   28.9410   34.7300 C   0  0  0  0  0  0  0  0  0  0  0  0
   36.8060   29.2750   36.0400 N   0  0  0  0  0  0  0  0  0  0  0  0
   35.7770   29.2630   36.9120 C   0  0  0  0  0  0  0  0  0  0  0  0
   34.5330   28.9050   36.4920 N   0  0  0  0  0  0  0  0  0  0  0  0
   33.3390   28.2790   34.8790 H   0  0  0  0  0  0  0  0  0  0  0  0
   35.2210   28.2950   33.2510 H   0  0  0  0  0  0  0  0  0  0  0  0
   37.4950   28.9540   34.0380 H   0  0  0  0  0  0  0  0  0  0  0  0
   37.7750   32.1130   40.3780 C   0  0  0  0  0  0  0  0  0  0  0  0
   37.6490   33.4270   39.9690 C   0  0  0  0  0  0  0  0  0  0  0  0
   36.8900   33.8690   39.3380 H   0  0  0  0  0  0  0  0  0  0  0  0
   38.6920   34.1580   40.5070 C   0  0  0  0  0  0  0  0  0  0  0  0
   38.9750   35.2010   40.4450 H   0  0  0  0  0  0  0  0  0  0  0  0
   39.4320   33.2740   41.2330 N   0  0  0  0  0  0  0  0  0  0  0  0
   40.2960   33.3490   41.8090 H   0  0  0  0  0  0  0  0  0  0  0  0
   38.8750   32.0900   41.1400 N   0  0  0  0  0  0  0  0  0  0  0  0
  1  2  2  0  0  0  0
  1  6  1  0  0  0  0
  2  3  1  0  0  0  0
  3 20  1  0  0  0  0
  3  4  2  0  0  0  0
  4  8  1  0  0  0  0
  5  4  1  0  0  0  0
  5  9  1  0  0  0  0
  6  5  2  0  0  0  0
  7  2  1  0  0  0  0
 10  6  1  0  0  0  0
 11 16  1  0  0  0  0
 12 13  1  0  0  0  0
 12 11  2  0  0  0  0
 13 14  2  0  0  0  0
 14 15  1  0  0  0  0
 15  1  1  0  0  0  0
 16 15  2  0  0  0  0
 17 11  1  0  0  0  0
 18 12  1  0  0  0  0
 19 13  1  0  0  0  0
 20 27  2  0  0  0  0
 21 20  1  0  0  0  0
 21 23  2  0  0  0  0
 22 21  1  0  0  0  0
 23 25  1  0  0  0  0
 24 23  1  0  0  0  0
 25 26  1  0  0  0  0
 27 25  1  0  0  0  0
M  END
>  <minimizedAffinity>
-4.96450615

$$$$

 OpenBabel03242516213D

 27 29  0  0  0  0  0  0  0  0999 V2000
   38.5320   31.3710   38.7800 C   0  0  0  0  0  0  0  0  0  0  0  0
   38.3310   30.7200   39.9810 C   0  0  0  0  0  0  0  0  0  0  0  0
   37.2620   29.8580   40.1620 C   0  0  0  0  0  0  0  0  0  0  0  0
   36.3600   29.6150   39.1590 C   0  0  0  0  0  0  0  0  0  0  0  0
   36.5420   30.2500   37.9660 C   0  0  0  0  0  0  0  0  0  0  0  0
   37.6120   31.1190   37.7690 C   0  0  0  0  0  0  0  0  0  0  0  0
   39.0410   30.9090   40.7760 H   0  0  0  0  0  0  0  0  0  0  0  0
   35.5590   28.9400   39.3680 H   0  0  0  0  0  0  0  0  0  0  0  0
   35.8480   30.0760   37.1620 H   0  0  0  0  0  0  0  0  0  0  0  0
   37.7340   31.6120   36.8040 H   0  0  0  0  0  0  0  0  0  0  0  0
   41.5500   32.8200   37.3230 C   0  0  0  0  0  0  0  0  0  0  0  0
   41.8250   33.9170   38.1650 C   0  0  0  0  0  0  0  0  0  0  0  0
   40.9620   34.1610   39.2460 C   0  0  0  0  0  0  0  0  0  0  0  0
   39.9080   33.3210   39.4180 N   0  0  0  0  0  0  0  0  0  0  0  0
   39.6620   32.2770   38.6010 C   0  0  0  0  0  0  0  0  0  0  0  0
   40.4880   32.0270   37.5490 N   0  0  0  0  0  0  0  0  0  0  0  0
   42.2030   32.6190   36.4870 H   0  0  0  0  0  0  0  0  0  0  0  0
   42.6770   34.5520   37.9810 H   0  0  0  0  0  0  0  0  0  0  0  0
   41.1510   34.9950   39.9050 H   0  0  0  0  0  0  0  0  0  0  0  0
   37.1080   29.2030   41.4570 C   0  0  0  0  0  0  0  0  0  0  0  0
   36.5260   27.9720   41.6940 C   0  0  0  0  0  0  0  0  0  0  0  0
   36.0870   27.2830   40.9840 H   0  0  0  0  0  0  0  0  0  0  0  0
   36.5780   27.7140   43.0510 C   0  0  0  0  0  0  0  0  0  0  0  0
   36.2450   26.8830   43.6600 H   0  0  0  0  0  0  0  0  0  0  0  0
   37.1910   28.7930   43.6130 N   0  0  0  0  0  0  0  0  0  0  0  0
   37.4530   29.0570   44.5850 H   0  0  0  0  0  0  0  0  0  0  0  0
   37.4890   29.6450   42.6600 N   0  0  0  0  0  0  0  0  0  0  0  0
  1  2  1  0  0  0  0
  2  3  2  0  0  0  0
  2  7  1  0  0  0  0
  3 20  1  0  0  0  0
  4  8  1  0  0  0  0
  4  3  1  0  0  0  0
  5  4  2  0  0  0  0
  6  5  1  0  0  0  0
  6  1  2  0  0  0  0
  9  5  1  0  0  0  0
 10  6  1  0  0  0  0
 11 16  2  0  0  0  0
 11 12  1  0  0  0  0
 12 13  2  0  0  0  0
 13 14  1  0  0  0  0
 13 19  1  0  0  0  0
 15  1  1  0  0  0  0
 15 14  2  0  0  0  0
 16 15  1  0  0  0  0
 17 11  1  0  0  0  0
 18 12  1  0  0  0  0
 20 21  1  0  0  0  0
 20 27  2  0  0  0  0
 21 23  2  0  0  0  0
 22 21  1  0  0  0  0
 23 25  1  0  0  0  0
 23 24  1  0  0  0  0
 25 26  1  0  0  0  0
 27 25  1  0  0  0  0
M  END
>  <minimizedAffinity>
-4.92471886

$$$$

 OpenBabel03242516213D

 27 29  0  0  0  0  0  0  0  0999 V2000
   39.8570   27.7610   42.9470 C   0  0  0  0  0  0  0  0  0  0  0  0
   39.4510   28.8900   42.2630 C   0  0  0  0  0  0  0  0  0  0  0  0
   38.1270   29.2970   42.2680 C   0  0  0  0  0  0  0  0  0  0  0  0
   37.1650   28.5980   42.9490 C   0  0  0  0  0  0  0  0  0  0  0  0
   37.5470   27.4790   43.6300 C   0  0  0  0  0  0  0  0  0  0  0  0
   38.8740   27.0580   43.6350 C   0  0  0  0  0  0  0  0  0  0  0  0
   40.2070   29.4460   41.7230 H   0  0  0  0  0  0  0  0  0  0  0  0
   36.1640   28.9680   42.9090 H   0  0  0  0  0  0  0  0  0  0  0  0
   36.8110   26.9130   44.1730 H   0  0  0  0  0  0  0  0  0  0  0  0
   39.1520   26.1610   44.1890 H   0  0  0  0  0  0  0  0  0  0  0  0
   42.8020   25.6800   43.5090 C   0  0  0  0  0  0  0  0  0  0  0  0
   43.8540   26.4490   42.9690 C   0  0  0  0  0  0  0  0  0  0  0  0
   43.5450   27.6990   42.4050 C   0  0  0  0  0  0  0  0  0  0  0  0
   42.2450   28.0940   42.4130 N   0  0  0  0  0  0  0  0  0  0  0  0
   41.2540   27.3430   42.9350 C   0  0  0  0  0  0  0  0  0  0  0  0
   41.5360   26.1300   43.4850 N   0  0  0  0  0  0  0  0  0  0  0  0
   43.0230   24.7170   43.9460 H   0  0  0  0  0  0  0  0  0  0  0  0
   44.8690   26.0850   42.9890 H   0  0  0  0  0  0  0  0  0  0  0  0
   44.3330   28.3060   41.9850 H   0  0  0  0  0  0  0  0  0  0  0  0
   37.7650   30.4990   41.5240 C   0  0  0  0  0  0  0  0  0  0  0  0
   38.6350   31.4160   40.9630 C   0  0  0  0  0  0  0  0  0  0  0  0
   39.7170   31.4130   40.9700 H   0  0  0  0  0  0  0  0  0  0  0  0
   37.8940   32.4070   40.3480 C   0  0  0  0  0  0  0  0  0  0  0  0
   38.1640   33.3000   39.7980 H   0  0  0  0  0  0  0  0  0  0  0  0
   36.5880   32.0750   40.5460 N   0  0  0  0  0  0  0  0  0  0  0  0
   35.6790   32.5040   40.2760 H   0  0  0  0  0  0  0  0  0  0  0  0
   36.5430   30.9590   41.2350 N   0  0  0  0  0  0  0  0  0  0  0  0
  1  6  1  0  0  0  0
  2  3  1  0  0  0  0
  2  1  2  0  0  0  0
  3  4  2  0  0  0  0
  4  5  1  0  0  0  0
  5  6  2  0  0  0  0
  5  9  1  0  0  0  0
  6 10  1  0  0  0  0
  7  2  1  0  0  0  0
  8  4  1  0  0  0  0
 11 17  1  0  0  0  0
 12 18  1  0  0  0  0
 12 11  2  0  0  0  0
 13 14  2  0  0  0  0
 13 12  1  0  0  0  0
 14 15  1  0  0  0  0
 15  1  1  0  0  0  0
 15 16  2  0  0  0  0
 16 11  1  0  0  0  0
 19 13  1  0  0  0  0
 20  3  1  0  0  0  0
 21 22  1  0  0  0  0
 21 20  1  0  0  0  0
 23 25  1  0  0  0  0
 23 21  2  0  0  0  0
 24 23  1  0  0  0  0
 25 27  1  0  0  0  0
 26 25  1  0  0  0  0
 27 20  2  0  0  0  0
M  END
>  <minimizedAffinity>
-4.85896969

$$$$

 OpenBabel03242516213D

 27 29  0  0  0  0  0  0  0  0999 V2000
   36.3560   29.5510   39.9030 C   0  0  0  0  0  0  0  0  0  0  0  0
   36.6500   29.4630   38.5570 C   0  0  0  0  0  0  0  0  0  0  0  0
   35.6670   29.1800   37.6230 C   0  0  0  0  0  0  0  0  0  0  0  0
   34.3640   28.9770   37.9940 C   0  0  0  0  0  0  0  0  0  0  0  0
   34.0550   29.0590   39.3200 C   0  0  0  0  0  0  0  0  0  0  0  0
   35.0320   29.3430   40.2710 C   0  0  0  0  0  0  0  0  0  0  0  0
   37.6790   29.6230   38.2580 H   0  0  0  0  0  0  0  0  0  0  0  0
   33.6580   28.7620   37.2220 H   0  0  0  0  0  0  0  0  0  0  0  0
   33.0380   28.9040   39.6370 H   0  0  0  0  0  0  0  0  0  0  0  0
   34.7560   29.4040   41.3240 H   0  0  0  0  0  0  0  0  0  0  0  0
   38.2860   29.3880   42.9980 C   0  0  0  0  0  0  0  0  0  0  0  0
   39.3170   30.3280   42.7910 C   0  0  0  0  0  0  0  0  0  0  0  0
   39.3480   31.0250   41.5710 C   0  0  0  0  0  0  0  0  0  0  0  0
   38.3780   30.7520   40.6590 N   0  0  0  0  0  0  0  0  0  0  0  0
   37.4000   29.8490   40.8780 C   0  0  0  0  0  0  0  0  0  0  0  0
   37.3560   29.1650   42.0530 N   0  0  0  0  0  0  0  0  0  0  0  0
   38.2480   28.8430   43.9300 H   0  0  0  0  0  0  0  0  0  0  0  0
   40.0620   30.5050   43.5500 H   0  0  0  0  0  0  0  0  0  0  0  0
   40.1270   31.7500   41.3880 H   0  0  0  0  0  0  0  0  0  0  0  0
   36.0460   29.1010   36.2160 C   0  0  0  0  0  0  0  0  0  0  0  0
   35.2250   29.3230   35.1270 C   0  0  0  0  0  0  0  0  0  0  0  0
   34.1760   29.5890   35.1140 H   0  0  0  0  0  0  0  0  0  0  0  0
   35.9660   29.1490   33.9730 C   0  0  0  0  0  0  0  0  0  0  0  0
   35.7250   29.2220   32.9200 H   0  0  0  0  0  0  0  0  0  0  0  0
   37.2240   28.8240   34.3830 N   0  0  0  0  0  0  0  0  0  0  0  0
   38.1150   28.6040   33.8920 H   0  0  0  0  0  0  0  0  0  0  0  0
   37.2410   28.8030   35.6950 N   0  0  0  0  0  0  0  0  0  0  0  0
  1  6  1  0  0  0  0
  1 15  1  0  0  0  0
  2  1  2  0  0  0  0
  3  4  2  0  0  0  0
  3  2  1  0  0  0  0
  4  5  1  0  0  0  0
  5  9  1  0  0  0  0
  5  6  2  0  0  0  0
  6 10  1  0  0  0  0
  7  2  1  0  0  0  0
  8  4  1  0  0  0  0
 11 17  1  0  0  0  0
 12 11  1  0  0  0  0
 12 18  1  0  0  0  0
 13 12  2  0  0  0  0
 14 15  2  0  0  0  0
 14 13  1  0  0  0  0
 15 16  1  0  0  0  0
 16 11  2  0  0  0  0
 19 13  1  0  0  0  0
 20  3  1  0  0  0  0
 21 20  1  0  0  0  0
 22 21  1  0  0  0  0
 23 25  1  0  0  0  0
 23 21  2  0  0  0  0
 24 23  1  0  0  0  0
 25 27  1  0  0  0  0
 26 25  1  0  0  0  0
 27 20  2  0  0  0  0
M  END
>  <minimizedAffinity>
-4.81056738

$$$$

 OpenBabel03242516213D

 27 29  0  0  0  0  0  0  0  0999 V2000
   39.3400   28.2810   42.0780 C   0  0  0  0  0  0  0  0  0  0  0  0
   38.6810   29.3550   41.5120 C   0  0  0  0  0  0  0  0  0  0  0  0
   39.2050   30.6350   41.5750 C   0  0  0  0  0  0  0  0  0  0  0  0
   40.3980   30.8910   42.1990 C   0  0  0  0  0  0  0  0  0  0  0  0
   41.0630   29.8430   42.7650 C   0  0  0  0  0  0  0  0  0  0  0  0
   40.5490   28.5510   42.7100 C   0  0  0  0  0  0  0  0  0  0  0  0
   37.7380   29.1580   41.0180 H   0  0  0  0  0  0  0  0  0  0  0  0
   40.7430   31.9020   42.2100 H   0  0  0  0  0  0  0  0  0  0  0  0
   42.0020   30.0180   43.2610 H   0  0  0  0  0  0  0  0  0  0  0  0
   41.1030   27.7310   43.1690 H   0  0  0  0  0  0  0  0  0  0  0  0
   37.0560   25.5800   41.1790 C   0  0  0  0  0  0  0  0  0  0  0  0
   37.6260   24.4490   41.8000 C   0  0  0  0  0  0  0  0  0  0  0  0
   38.8110   24.6190   42.5360 C   0  0  0  0  0  0  0  0  0  0  0  0
   39.3400   25.8680   42.6070 N   0  0  0  0  0  0  0  0  0  0  0  0
   38.7780   26.9370   42.0060 C   0  0  0  0  0  0  0  0  0  0  0  0
   37.6310   26.7890   41.2890 N   0  0  0  0  0  0  0  0  0  0  0  0
   36.1460   25.4660   40.6090 H   0  0  0  0  0  0  0  0  0  0  0  0
   37.1640   23.4790   41.7100 H   0  0  0  0  0  0  0  0  0  0  0  0
   39.2670   23.7690   43.0210 H   0  0  0  0  0  0  0  0  0  0  0  0
   38.4570   31.7250   40.9560 C   0  0  0  0  0  0  0  0  0  0  0  0
   38.9620   32.9450   40.5480 C   0  0  0  0  0  0  0  0  0  0  0  0
   39.9780   33.3110   40.6090 H   0  0  0  0  0  0  0  0  0  0  0  0
   37.9290   33.6920   40.0130 C   0  0  0  0  0  0  0  0  0  0  0  0
   37.8790   34.6850   39.5830 H   0  0  0  0  0  0  0  0  0  0  0  0
   36.8160   32.9130   40.1070 N   0  0  0  0  0  0  0  0  0  0  0  0
   35.8170   33.0360   39.8420 H   0  0  0  0  0  0  0  0  0  0  0  0
   37.1530   31.7720   40.6600 N   0  0  0  0  0  0  0  0  0  0  0  0
  1  6  1  0  0  0  0
  2  3  1  0  0  0  0
  2  1  2  0  0  0  0
  3  4  2  0  0  0  0
  4  8  1  0  0  0  0
  4  5  1  0  0  0  0
  5  9  1  0  0  0  0
  6  5  2  0  0  0  0
  6 10  1  0  0  0  0
  7  2  1  0  0  0  0
 11 16  2  0  0  0  0
 11 12  1  0  0  0  0
 12 13  2  0  0  0  0
 13 14  1  0  0  0  0
 13 19  1  0  0  0  0
 15  1  1  0  0  0  0
 15 14  2  0  0  0  0
 16 15  1  0  0  0  0
 17 11  1  0  0  0  0
 18 12  1  0  0  0  0
 20  3  1  0  0  0  0
 21 22  1  0  0  0  0
 21 20  1  0  0  0  0
 23 25  1  0  0  0  0
 23 21  2  0  0  0  0
 24 23  1  0  0  0  0
 25 27  1  0  0  0  0
 26 25  1  0  0  0  0
 27 20  2  0  0  0  0
M  END
>  <minimizedAffinity>
-4.72418833

$$$$
