
 OpenBabel03252507223D

 46 49  0  0  1  0  0  0  0  0999 V2000
   47.3770   33.7300   42.8080 C   0  0  0  0  0  0  0  0  0  0  0  0
   48.4930   33.5570   43.4130 O   0  0  0  0  0  0  0  0  0  0  0  0
   47.1020   33.2100   41.5140 N   0  0  0  0  0  0  0  0  0  0  0  0
   45.9030   32.5350   40.9980 C   0  0  0  0  0  0  0  0  0  0  0  0
   45.4610   33.2060   39.7080 C   0  0  0  0  0  0  0  0  0  0  0  0
   46.5140   33.0930   38.6470 C   0  0  0  0  0  0  0  0  0  0  0  0
   47.8070   32.6050   39.2760 C   0  0  0  0  0  0  0  0  0  0  0  0
   48.1330   33.3440   40.5230 C   0  0  2  0  0  0  0  0  0  0  0  0
   46.0640   31.4590   40.8730 H   0  0  0  0  0  0  0  0  0  0  0  0
   45.0770   32.7350   41.7360 H   0  0  0  0  0  0  0  0  0  0  0  0
   45.1910   34.2500   39.9670 H   0  0  0  0  0  0  0  0  0  0  0  0
   44.5450   32.6490   39.3820 H   0  0  0  0  0  0  0  0  0  0  0  0
   46.2470   32.4640   37.7940 H   0  0  0  0  0  0  0  0  0  0  0  0
   46.6730   34.1320   38.2330 H   0  0  0  0  0  0  0  0  0  0  0  0
   48.6440   32.6770   38.5590 H   0  0  0  0  0  0  0  0  0  0  0  0
   47.6630   31.5080   39.4420 H   0  0  0  0  0  0  0  0  0  0  0  0
   48.1710   34.4280   40.2610 H   0  0  0  0  0  0  0  0  0  0  0  0
   45.9710   35.7290   42.9220 C   0  0  0  0  0  0  0  0  0  0  0  0
   46.3540   34.4950   43.4860 C   0  0  0  0  0  0  0  0  0  0  0  0
   45.7620   34.0410   44.6510 C   0  0  0  0  0  0  0  0  0  0  0  0
   44.8140   34.8230   45.2140 N   0  0  0  0  0  0  0  0  0  0  0  0
   44.4280   36.0200   44.6870 C   0  0  0  0  0  0  0  0  0  0  0  0
   45.0200   36.4510   43.5440 N   0  0  0  0  0  0  0  0  0  0  0  0
   46.4380   36.0730   42.0140 H   0  0  0  0  0  0  0  0  0  0  0  0
   43.6790   36.6310   45.1380 H   0  0  0  0  0  0  0  0  0  0  0  0
   46.1770   32.7770   45.1990 C   0  0  0  0  0  0  0  0  0  0  0  0
   45.8360   31.6130   44.5950 C   0  0  0  0  0  0  0  0  0  0  0  0
   46.2510   30.4180   45.1470 C   0  0  0  0  0  0  0  0  0  0  0  0
   47.0130   30.3520   46.3120 C   0  0  0  0  0  0  0  0  0  0  0  0
   47.3380   31.5810   46.8960 C   0  0  0  0  0  0  0  0  0  0  0  0
   46.9170   32.7100   46.3300 N   0  0  0  0  0  0  0  0  0  0  0  0
   45.2490   31.5380   43.6890 H   0  0  0  0  0  0  0  0  0  0  0  0
   46.0130   29.4440   44.7150 H   0  0  0  0  0  0  0  0  0  0  0  0
   47.3680   29.4750   46.7960 H   0  0  0  0  0  0  0  0  0  0  0  0
   47.9250   31.7160   47.8080 H   0  0  0  0  0  0  0  0  0  0  0  0
   49.5080   32.9920   40.9990 C   0  0  0  0  0  0  0  0  0  0  0  0
   49.8010   33.3850   41.9710 H   0  0  0  0  0  0  0  0  0  0  0  0
   50.1790   33.5500   40.2850 H   0  0  0  0  0  0  0  0  0  0  0  0
   49.8560   31.5610   40.7880 C   0  0  0  0  0  0  0  0  0  0  0  0
   49.4100   30.6320   41.7080 C   0  0  0  0  0  0  0  0  0  0  0  0
   48.8170   30.6800   42.6290 H   0  0  0  0  0  0  0  0  0  0  0  0
   49.8780   29.3930   41.2630 C   0  0  0  0  0  0  0  0  0  0  0  0
   49.7560   28.4000   41.6900 H   0  0  0  0  0  0  0  0  0  0  0  0
   50.5780   29.6080   40.1120 N   0  0  0  0  0  0  0  0  0  0  0  0
   51.0470   28.8550   39.5530 H   0  0  0  0  0  0  0  0  0  0  0  0
   50.5440   30.9140   39.8570 N   0  0  0  0  0  0  0  0  0  0  0  0
  1  2  2  0  0  0  0
  1 19  1  0  0  0  0
  3  1  1  0  0  0  0
  4  3  1  0  0  0  0
  4 10  1  0  0  0  0
  5 11  1  0  0  0  0
  5  4  1  0  0  0  0
  6  7  1  0  0  0  0
  6  5  1  0  0  0  0
  7 16  1  0  0  0  0
  7  8  1  0  0  0  0
  8 17  1  6  0  0  0
  8 36  1  0  0  0  0
  8  3  1  0  0  0  0
  9  4  1  0  0  0  0
 12  5  1  0  0  0  0
 13  6  1  0  0  0  0
 14  6  1  0  0  0  0
 15  7  1  0  0  0  0
 18 19  2  0  0  0  0
 18 23  1  0  0  0  0
 19 20  1  0  0  0  0
 20 26  1  0  0  0  0
 20 21  2  0  0  0  0
 22 25  1  0  0  0  0
 22 21  1  0  0  0  0
 23 22  2  0  0  0  0
 24 18  1  0  0  0  0
 26 31  1  0  0  0  0
 27 28  1  0  0  0  0
 27 26  2  0  0  0  0
 28 29  2  0  0  0  0
 29 34  1  0  0  0  0
 29 30  1  0  0  0  0
 30 35  1  0  0  0  0
 31 30  2  0  0  0  0
 32 27  1  0  0  0  0
 33 28  1  0  0  0  0
 36 37  1  0  0  0  0
 38 36  1  0  0  0  0
 39 36  1  0  0  0  0
 39 40  1  0  0  0  0
 40 41  1  0  0  0  0
 42 43  1  0  0  0  0
 42 40  2  0  0  0  0
 44 42  1  0  0  0  0
 45 44  1  0  0  0  0
 46 44  1  0  0  0  0
 46 39  2  0  0  0  0
M  END
>  <minimizedAffinity>
-4.8708396

>  <minimizedRMSD>
0.718645096

$$$$
