
 OpenBabel03252507223D

 46 49  0  0  1  0  0  0  0  0999 V2000
   47.3720   33.7150   42.7910 C   0  0  0  0  0  0  0  0  0  0  0  0
   48.4900   33.5390   43.3900 O   0  0  0  0  0  0  0  0  0  0  0  0
   47.0880   33.1980   41.4980 N   0  0  0  0  0  0  0  0  0  0  0  0
   45.8830   32.5260   40.9890 C   0  0  0  0  0  0  0  0  0  0  0  0
   45.4350   33.2000   39.7020 C   0  0  0  0  0  0  0  0  0  0  0  0
   46.4820   33.0870   38.6350 C   0  0  0  0  0  0  0  0  0  0  0  0
   47.7770   32.5950   39.2550 C   0  0  0  0  0  0  0  0  0  0  0  0
   48.1130   33.3310   40.5010 C   0  0  2  0  0  0  0  0  0  0  0  0
   46.0420   31.4500   40.8610 H   0  0  0  0  0  0  0  0  0  0  0  0
   45.0630   32.7280   41.7310 H   0  0  0  0  0  0  0  0  0  0  0  0
   45.1690   34.2450   39.9640 H   0  0  0  0  0  0  0  0  0  0  0  0
   44.5160   32.6460   39.3810 H   0  0  0  0  0  0  0  0  0  0  0  0
   46.2090   32.4600   37.7820 H   0  0  0  0  0  0  0  0  0  0  0  0
   46.6410   34.1260   38.2210 H   0  0  0  0  0  0  0  0  0  0  0  0
   48.6110   32.6660   38.5330 H   0  0  0  0  0  0  0  0  0  0  0  0
   47.6320   31.4980   39.4210 H   0  0  0  0  0  0  0  0  0  0  0  0
   48.1520   34.4150   40.2400 H   0  0  0  0  0  0  0  0  0  0  0  0
   45.9710   35.7180   42.9180 C   0  0  0  0  0  0  0  0  0  0  0  0
   46.3540   34.4810   43.4770 C   0  0  0  0  0  0  0  0  0  0  0  0
   45.7670   34.0260   44.6440 C   0  0  0  0  0  0  0  0  0  0  0  0
   44.8250   34.8110   45.2140 N   0  0  0  0  0  0  0  0  0  0  0  0
   44.4390   36.0100   44.6920 C   0  0  0  0  0  0  0  0  0  0  0  0
   45.0260   36.4410   43.5460 N   0  0  0  0  0  0  0  0  0  0  0  0
   46.4350   36.0620   42.0070 H   0  0  0  0  0  0  0  0  0  0  0  0
   43.6950   36.6220   45.1480 H   0  0  0  0  0  0  0  0  0  0  0  0
   46.1820   32.7600   45.1870 C   0  0  0  0  0  0  0  0  0  0  0  0
   45.8330   31.5990   44.5830 C   0  0  0  0  0  0  0  0  0  0  0  0
   46.2480   30.4020   45.1300 C   0  0  0  0  0  0  0  0  0  0  0  0
   47.0180   30.3310   46.2910 C   0  0  0  0  0  0  0  0  0  0  0  0
   47.3510   31.5580   46.8750 C   0  0  0  0  0  0  0  0  0  0  0  0
   46.9290   32.6900   46.3130 N   0  0  0  0  0  0  0  0  0  0  0  0
   45.2400   31.5280   43.6810 H   0  0  0  0  0  0  0  0  0  0  0  0
   46.0040   29.4290   44.6980 H   0  0  0  0  0  0  0  0  0  0  0  0
   47.3730   29.4520   46.7700 H   0  0  0  0  0  0  0  0  0  0  0  0
   47.9450   31.6890   47.7820 H   0  0  0  0  0  0  0  0  0  0  0  0
   49.4900   32.9750   40.9680 C   0  0  0  0  0  0  0  0  0  0  0  0
   49.7880   33.3630   41.9410 H   0  0  0  0  0  0  0  0  0  0  0  0
   50.1570   33.5350   40.2540 H   0  0  0  0  0  0  0  0  0  0  0  0
   49.8340   31.5450   40.7490 C   0  0  0  0  0  0  0  0  0  0  0  0
   49.4080   30.6140   41.6750 C   0  0  0  0  0  0  0  0  0  0  0  0
   48.8330   30.6600   42.6090 H   0  0  0  0  0  0  0  0  0  0  0  0
   49.8680   29.3760   41.2200 C   0  0  0  0  0  0  0  0  0  0  0  0
   49.7550   28.3810   41.6470 H   0  0  0  0  0  0  0  0  0  0  0  0
   50.5450   29.5930   40.0550 N   0  0  0  0  0  0  0  0  0  0  0  0
   51.0030   28.8420   39.4860 H   0  0  0  0  0  0  0  0  0  0  0  0
   50.5050   30.9000   39.8040 N   0  0  0  0  0  0  0  0  0  0  0  0
  1  2  2  0  0  0  0
  1 19  1  0  0  0  0
  3  1  1  0  0  0  0
  4  3  1  0  0  0  0
  4 10  1  0  0  0  0
  5 11  1  0  0  0  0
  5  4  1  0  0  0  0
  6  7  1  0  0  0  0
  6  5  1  0  0  0  0
  7 16  1  0  0  0  0
  7  8  1  0  0  0  0
  8 17  1  6  0  0  0
  8 36  1  0  0  0  0
  8  3  1  0  0  0  0
  9  4  1  0  0  0  0
 12  5  1  0  0  0  0
 13  6  1  0  0  0  0
 14  6  1  0  0  0  0
 15  7  1  0  0  0  0
 18 19  2  0  0  0  0
 18 23  1  0  0  0  0
 19 20  1  0  0  0  0
 20 26  1  0  0  0  0
 20 21  2  0  0  0  0
 22 25  1  0  0  0  0
 22 21  1  0  0  0  0
 23 22  2  0  0  0  0
 24 18  1  0  0  0  0
 26 31  1  0  0  0  0
 27 28  1  0  0  0  0
 27 26  2  0  0  0  0
 28 29  2  0  0  0  0
 29 34  1  0  0  0  0
 29 30  1  0  0  0  0
 30 35  1  0  0  0  0
 31 30  2  0  0  0  0
 32 27  1  0  0  0  0
 33 28  1  0  0  0  0
 36 37  1  0  0  0  0
 38 36  1  0  0  0  0
 39 36  1  0  0  0  0
 39 40  1  0  0  0  0
 40 41  1  0  0  0  0
 42 43  1  0  0  0  0
 42 40  2  0  0  0  0
 44 42  1  0  0  0  0
 45 44  1  0  0  0  0
 46 44  1  0  0  0  0
 46 39  2  0  0  0  0
M  END
>  <minimizedAffinity>
-4.8570714

>  <minimizedRMSD>
0.692201614

$$$$
