
 OpenBabel03252507223D

 46 49  0  0  1  0  0  0  0  0999 V2000
   47.3320   33.7160   42.8370 C   0  0  0  0  0  0  0  0  0  0  0  0
   48.4530   33.5360   43.4300 O   0  0  0  0  0  0  0  0  0  0  0  0
   47.0360   33.1930   41.5490 N   0  0  0  0  0  0  0  0  0  0  0  0
   45.8250   32.5260   41.0510 C   0  0  0  0  0  0  0  0  0  0  0  0
   45.3720   33.1950   39.7630 C   0  0  0  0  0  0  0  0  0  0  0  0
   46.4120   33.0690   38.6900 C   0  0  0  0  0  0  0  0  0  0  0  0
   47.7070   32.5730   39.3050 C   0  0  0  0  0  0  0  0  0  0  0  0
   48.0560   33.3140   40.5450 C   0  0  2  0  0  0  0  0  0  0  0  0
   45.9760   31.4480   40.9290 H   0  0  0  0  0  0  0  0  0  0  0  0
   45.0100   32.7360   41.7980 H   0  0  0  0  0  0  0  0  0  0  0  0
   45.1140   34.2420   40.0220 H   0  0  0  0  0  0  0  0  0  0  0  0
   44.4480   32.6440   39.4520 H   0  0  0  0  0  0  0  0  0  0  0  0
   46.1290   32.4380   37.8430 H   0  0  0  0  0  0  0  0  0  0  0  0
   46.5740   34.1040   38.2700 H   0  0  0  0  0  0  0  0  0  0  0  0
   48.5370   32.6350   38.5780 H   0  0  0  0  0  0  0  0  0  0  0  0
   47.5570   31.4770   39.4780 H   0  0  0  0  0  0  0  0  0  0  0  0
   48.0990   34.3960   40.2770 H   0  0  0  0  0  0  0  0  0  0  0  0
   45.9400   35.7240   42.9580 C   0  0  0  0  0  0  0  0  0  0  0  0
   46.3230   34.4920   43.5250 C   0  0  0  0  0  0  0  0  0  0  0  0
   45.7450   34.0500   44.7010 C   0  0  0  0  0  0  0  0  0  0  0  0
   44.8110   34.8430   45.2720 N   0  0  0  0  0  0  0  0  0  0  0  0
   44.4250   36.0390   44.7430 C   0  0  0  0  0  0  0  0  0  0  0  0
   45.0030   36.4570   43.5880 N   0  0  0  0  0  0  0  0  0  0  0  0
   46.3960   36.0590   42.0400 H   0  0  0  0  0  0  0  0  0  0  0  0
   43.6870   36.6580   45.2000 H   0  0  0  0  0  0  0  0  0  0  0  0
   46.1600   32.7870   45.2520 C   0  0  0  0  0  0  0  0  0  0  0  0
   45.8040   31.6220   44.6610 C   0  0  0  0  0  0  0  0  0  0  0  0
   46.2190   30.4280   45.2160 C   0  0  0  0  0  0  0  0  0  0  0  0
   46.9970   30.3650   46.3710 C   0  0  0  0  0  0  0  0  0  0  0  0
   47.3370   31.5960   46.9420 C   0  0  0  0  0  0  0  0  0  0  0  0
   46.9150   32.7240   46.3740 N   0  0  0  0  0  0  0  0  0  0  0  0
   45.2050   31.5450   43.7640 H   0  0  0  0  0  0  0  0  0  0  0  0
   45.9700   29.4530   44.7930 H   0  0  0  0  0  0  0  0  0  0  0  0
   47.3530   29.4900   46.8550 H   0  0  0  0  0  0  0  0  0  0  0  0
   47.9380   31.7340   47.8440 H   0  0  0  0  0  0  0  0  0  0  0  0
   49.4340   32.9530   41.0050 C   0  0  0  0  0  0  0  0  0  0  0  0
   49.7850   33.4390   41.9130 H   0  0  0  0  0  0  0  0  0  0  0  0
   50.0960   33.3910   40.2060 H   0  0  0  0  0  0  0  0  0  0  0  0
   49.7080   31.4920   40.9490 C   0  0  0  0  0  0  0  0  0  0  0  0
   50.7430   31.0450   40.1510 C   0  0  0  0  0  0  0  0  0  0  0  0
   51.4760   31.5290   39.4930 H   0  0  0  0  0  0  0  0  0  0  0  0
   50.7690   29.6560   40.2910 C   0  0  0  0  0  0  0  0  0  0  0  0
   51.4230   28.9140   39.8390 H   0  0  0  0  0  0  0  0  0  0  0  0
   49.7680   29.3110   41.1530 N   0  0  0  0  0  0  0  0  0  0  0  0
   49.5480   28.3300   41.4460 H   0  0  0  0  0  0  0  0  0  0  0  0
   49.1550   30.4340   41.5260 N   0  0  0  0  0  0  0  0  0  0  0  0
  1  2  2  0  0  0  0
  1 19  1  0  0  0  0
  3  1  1  0  0  0  0
  4  3  1  0  0  0  0
  4 10  1  0  0  0  0
  5 11  1  0  0  0  0
  5  4  1  0  0  0  0
  6  7  1  0  0  0  0
  6  5  1  0  0  0  0
  7 16  1  0  0  0  0
  7  8  1  0  0  0  0
  8 17  1  6  0  0  0
  8 36  1  0  0  0  0
  8  3  1  0  0  0  0
  9  4  1  0  0  0  0
 12  5  1  0  0  0  0
 13  6  1  0  0  0  0
 14  6  1  0  0  0  0
 15  7  1  0  0  0  0
 18 19  2  0  0  0  0
 18 23  1  0  0  0  0
 19 20  1  0  0  0  0
 20 26  1  0  0  0  0
 20 21  2  0  0  0  0
 22 25  1  0  0  0  0
 22 21  1  0  0  0  0
 23 22  2  0  0  0  0
 24 18  1  0  0  0  0
 26 31  1  0  0  0  0
 27 28  1  0  0  0  0
 27 26  2  0  0  0  0
 28 29  2  0  0  0  0
 29 34  1  0  0  0  0
 29 30  1  0  0  0  0
 30 35  1  0  0  0  0
 31 30  2  0  0  0  0
 32 27  1  0  0  0  0
 33 28  1  0  0  0  0
 36 37  1  0  0  0  0
 38 36  1  0  0  0  0
 39 36  1  0  0  0  0
 39 46  2  0  0  0  0
 40 42  2  0  0  0  0
 40 39  1  0  0  0  0
 41 40  1  0  0  0  0
 42 44  1  0  0  0  0
 43 42  1  0  0  0  0
 44 45  1  0  0  0  0
 44 46  1  0  0  0  0
M  END
>  <minimizedAffinity>
-4.86974764

>  <minimizedRMSD>
0.669468224

$$$$
