
 OpenBabel03252508073D

 43 46  0  0  0  0  0  0  0  0999 V2000
   44.9740   35.4650   43.3800 C   0  0  0  0  0  0  0  0  0  0  0  0
   45.4290   34.1560   43.4050 C   0  0  0  0  0  0  0  0  0  0  0  0
   45.4710   33.4660   44.5920 C   0  0  0  0  0  0  0  0  0  0  0  0
   45.0420   34.1370   45.7210 N   0  0  0  0  0  0  0  0  0  0  0  0
   44.6060   35.3930   45.6910 C   0  0  0  0  0  0  0  0  0  0  0  0
   44.5780   36.0490   44.5100 N   0  0  0  0  0  0  0  0  0  0  0  0
   44.9290   36.0400   42.4660 H   0  0  0  0  0  0  0  0  0  0  0  0
   44.2750   35.9020   46.5860 H   0  0  0  0  0  0  0  0  0  0  0  0
   45.9060   32.1340   44.7830 C   0  0  0  0  0  0  0  0  0  0  0  0
   45.6460   31.0910   43.8910 C   0  0  0  0  0  0  0  0  0  0  0  0
   46.0080   29.7860   44.1050 C   0  0  0  0  0  0  0  0  0  0  0  0
   46.6710   29.4440   45.2610 C   0  0  0  0  0  0  0  0  0  0  0  0
   46.9460   30.4900   46.1830 C   0  0  0  0  0  0  0  0  0  0  0  0
   47.6040   30.1640   47.3400 C   0  0  0  0  0  0  0  0  0  0  0  0
   47.9050   31.1320   48.2780 C   0  0  0  0  0  0  0  0  0  0  0  0
   47.5310   32.4630   48.0330 C   0  0  0  0  0  0  0  0  0  0  0  0
   46.8570   32.7520   46.8320 C   0  0  0  0  0  0  0  0  0  0  0  0
   46.5700   31.7690   45.9260 C   0  0  0  0  0  0  0  0  0  0  0  0
   45.1220   31.3650   42.9780 H   0  0  0  0  0  0  0  0  0  0  0  0
   45.7890   29.0080   43.3910 H   0  0  0  0  0  0  0  0  0  0  0  0
   46.9950   28.4580   45.5250 H   0  0  0  0  0  0  0  0  0  0  0  0
   47.9060   29.1320   47.5500 H   0  0  0  0  0  0  0  0  0  0  0  0
   48.4280   30.8150   49.1800 H   0  0  0  0  0  0  0  0  0  0  0  0
   47.8070   33.1500   48.8160 H   0  0  0  0  0  0  0  0  0  0  0  0
   46.6820   33.8060   46.8220 H   0  0  0  0  0  0  0  0  0  0  0  0
   45.8180   33.6090   42.2170 O   0  0  0  0  0  0  0  0  0  0  0  0
   48.2000   32.6600   41.6770 O   0  0  0  0  0  0  0  0  0  0  0  0
   47.3310   33.8500   41.4950 P   0  0  1  0  0  0  0  0  0  0  0  0
   47.1770   34.0990   39.8270 O   0  0  0  0  0  0  0  0  0  0  0  0
   48.0650   33.6110   38.8800 C   0  0  0  0  0  0  0  0  0  0  0  0
   48.5230   34.5250   37.9650 C   0  0  0  0  0  0  0  0  0  0  0  0
   48.3490   35.5940   37.7950 H   0  0  0  0  0  0  0  0  0  0  0  0
   49.3690   33.8870   37.1230 N   0  0  0  0  0  0  0  0  0  0  0  0
   49.9150   34.2320   36.3030 H   0  0  0  0  0  0  0  0  0  0  0  0
   49.4080   32.6120   37.5390 C   0  0  0  0  0  0  0  0  0  0  0  0
   49.9510   31.7270   37.1720 H   0  0  0  0  0  0  0  0  0  0  0  0
   48.6110   32.4090   38.6250 N   0  0  0  0  0  0  0  0  0  0  0  0
   48.0320   35.2110   42.1780 O   0  0  0  0  0  0  0  0  0  0  0  0
   49.3520   35.6180   42.0560 C   0  0  0  0  0  0  0  0  0  0  0  0
   49.3480   36.4300   41.1180 O   0  0  0  0  0  0  0  0  0  0  0  0
   50.1830   34.9580   43.0380 N   0  0  0  0  0  0  0  0  0  0  0  0
   50.9690   34.2740   42.9380 H   0  0  0  0  0  0  0  0  0  0  0  0
   49.9880   35.1870   44.0580 H   0  0  0  0  0  0  0  0  0  0  0  0
  1  2  2  0  0  0  0
  1  6  1  0  0  0  0
  2  3  1  0  0  0  0
  3  9  1  0  0  0  0
  3  4  2  0  0  0  0
  5  4  1  0  0  0  0
  5  8  1  0  0  0  0
  6  5  2  0  0  0  0
  7  1  1  0  0  0  0
  9 18  1  0  0  0  0
 10 11  1  0  0  0  0
 10  9  2  0  0  0  0
 11 12  2  0  0  0  0
 12 21  1  0  0  0  0
 12 13  1  0  0  0  0
 13 14  1  0  0  0  0
 14 22  1  0  0  0  0
 14 15  2  0  0  0  0
 15 23  1  0  0  0  0
 16 15  1  0  0  0  0
 16 24  1  0  0  0  0
 17 16  2  0  0  0  0
 18 13  2  0  0  0  0
 18 17  1  0  0  0  0
 19 10  1  0  0  0  0
 20 11  1  0  0  0  0
 25 17  1  0  0  0  0
 26  2  1  0  0  0  0
 28 27  2  1  0  0  0
 28 38  1  0  0  0  0
 28 26  1  0  0  0  0
 29 28  1  0  0  0  0
 30 29  1  0  0  0  0
 31 30  2  0  0  0  0
 32 31  1  0  0  0  0
 33 35  1  0  0  0  0
 33 31  1  0  0  0  0
 34 33  1  0  0  0  0
 35 37  2  0  0  0  0
 36 35  1  0  0  0  0
 37 30  1  0  0  0  0
 39 38  1  0  0  0  0
 39 41  1  0  0  0  0
 40 39  2  0  0  0  0
 41 43  1  0  0  0  0
 42 41  1  0  0  0  0
M  END
>  <minimizedAffinity>
-6.63191223

>  <minimizedRMSD>
0.795655847

$$$$
