
 OpenBabel03252509123D

 31 34  0  0  0  0  0  0  0  0999 V2000
   47.7370   32.0740   44.1210 C   0  0  0  0  0  0  0  0  0  0  0  0
   47.0730   33.1930   43.6100 C   0  0  0  0  0  0  0  0  0  0  0  0
   46.1350   33.8760   44.3300 C   0  0  0  0  0  0  0  0  0  0  0  0
   45.8000   33.4700   45.6310 C   0  0  0  0  0  0  0  0  0  0  0  0
   44.9500   33.8910   46.6030 N   0  0  0  0  0  0  0  0  0  0  0  0
   45.0770   33.0700   47.6760 C   0  0  0  0  0  0  0  0  0  0  0  0
   46.0040   32.1570   47.3460 N   0  0  0  0  0  0  0  0  0  0  0  0
   46.4660   32.3720   46.1050 C   0  0  0  0  0  0  0  0  0  0  0  0
   47.4220   31.6510   45.4130 C   0  0  0  0  0  0  0  0  0  0  0  0
   48.4770   31.5280   43.5640 H   0  0  0  0  0  0  0  0  0  0  0  0
   44.3620   34.7270   46.4000 H   0  0  0  0  0  0  0  0  0  0  0  0
   44.4450   33.3130   48.5130 H   0  0  0  0  0  0  0  0  0  0  0  0
   47.9180   30.7840   45.8400 H   0  0  0  0  0  0  0  0  0  0  0  0
   47.1460   33.4200   39.9520 C   0  0  0  0  0  0  0  0  0  0  0  0
   48.0040   34.5080   39.7280 C   0  0  0  0  0  0  0  0  0  0  0  0
   48.5450   35.1480   40.8450 C   0  0  0  0  0  0  0  0  0  0  0  0
   48.2210   34.6930   42.0970 N   0  0  0  0  0  0  0  0  0  0  0  0
   47.3930   33.6450   42.2610 C   0  0  0  0  0  0  0  0  0  0  0  0
   46.8450   32.9930   41.2040 N   0  0  0  0  0  0  0  0  0  0  0  0
   46.6970   32.8850   39.1260 H   0  0  0  0  0  0  0  0  0  0  0  0
   48.2110   34.8040   38.7100 H   0  0  0  0  0  0  0  0  0  0  0  0
   49.2030   35.9820   40.6760 H   0  0  0  0  0  0  0  0  0  0  0  0
   45.2860   35.3040   43.6880 S   0  0  0  0  0  0  0  0  0  0  0  0
   44.1340   34.8930   42.4080 C   0  0  0  0  0  0  0  0  0  0  0  0
   43.6850   35.8590   41.5130 C   0  0  0  0  0  0  0  0  0  0  0  0
   43.9130   36.9230   41.4200 H   0  0  0  0  0  0  0  0  0  0  0  0
   42.8290   35.2060   40.6830 N   0  0  0  0  0  0  0  0  0  0  0  0
   42.2850   35.5930   39.8750 H   0  0  0  0  0  0  0  0  0  0  0  0
   42.7440   33.9120   41.0340 C   0  0  0  0  0  0  0  0  0  0  0  0
   42.1890   33.0690   40.6460 H   0  0  0  0  0  0  0  0  0  0  0  0
   43.5470   33.7250   42.0930 N   0  0  0  0  0  0  0  0  0  0  0  0
  1  9  1  0  0  0  0
  2  1  2  0  0  0  0
  2  3  1  0  0  0  0
  3  4  2  0  0  0  0
  4  8  1  0  0  0  0
  4  5  1  0  0  0  0
  5  6  1  0  0  0  0
  6 12  1  0  0  0  0
  7  6  2  0  0  0  0
  8  7  1  0  0  0  0
  9 13  1  0  0  0  0
  9  8  2  0  0  0  0
 10  1  1  0  0  0  0
 11  5  1  0  0  0  0
 14 19  1  0  0  0  0
 15 14  2  0  0  0  0
 15 16  1  0  0  0  0
 16 17  2  0  0  0  0
 17 18  1  0  0  0  0
 18  2  1  0  0  0  0
 19 18  2  0  0  0  0
 20 14  1  0  0  0  0
 21 15  1  0  0  0  0
 22 16  1  0  0  0  0
 23  3  1  0  0  0  0
 24 23  1  0  0  0  0
 25 24  2  0  0  0  0
 26 25  1  0  0  0  0
 27 29  1  0  0  0  0
 27 25  1  0  0  0  0
 28 27  1  0  0  0  0
 29 31  2  0  0  0  0
 30 29  1  0  0  0  0
 31 24  1  0  0  0  0
M  END
>  <minimizedAffinity>
-5.2154808

>  <minimizedRMSD>
1.59438252

$$$$
