
 OpenBabel03242517123D

 46 49  0  0  1  0  0  0  0  0999 V2000
   38.8530   27.5070   42.0420 C   0  0  2  0  0  0  0  0  0  0  0  0
   38.0380   28.6850   42.4500 C   0  0  2  0  0  0  0  0  0  0  0  0
   37.2300   28.4370   43.6700 C   0  0  0  0  0  0  0  0  0  0  0  0
   36.3860   27.1920   43.6180 C   0  0  0  0  0  0  0  0  0  0  0  0
   37.0200   26.0550   42.8720 C   0  0  0  0  0  0  0  0  0  0  0  0
   38.5230   26.2270   42.7550 C   0  0  0  0  0  0  0  0  0  0  0  0
   38.6830   27.3310   40.9360 H   0  0  0  0  0  0  0  0  0  0  0  0
   38.7260   29.5290   42.6790 H   0  0  0  0  0  0  0  0  0  0  0  0
   37.8780   28.4270   44.5690 H   0  0  0  0  0  0  0  0  0  0  0  0
   36.5190   29.2920   43.7860 H   0  0  0  0  0  0  0  0  0  0  0  0
   36.2330   26.8540   44.6650 H   0  0  0  0  0  0  0  0  0  0  0  0
   35.3660   27.4120   43.2050 H   0  0  0  0  0  0  0  0  0  0  0  0
   36.7950   25.0680   43.2880 H   0  0  0  0  0  0  0  0  0  0  0  0
   36.6280   26.0780   41.8290 H   0  0  0  0  0  0  0  0  0  0  0  0
   38.8620   25.3990   42.0610 H   0  0  0  0  0  0  0  0  0  0  0  0
   39.0180   26.0450   43.6980 H   0  0  0  0  0  0  0  0  0  0  0  0
   36.9770   30.6090   41.2030 C   0  0  1  0  0  0  0  0  0  0  0  0
   37.1650   29.1400   41.3020 C   0  0  1  0  0  0  0  0  0  0  0  0
   37.7380   28.6850   40.1210 O   0  0  0  0  0  0  0  0  0  0  0  0
   38.3150   29.7600   39.4750 C   0  0  0  0  0  0  0  0  0  0  0  0
   37.2790   30.8440   39.7190 C   0  0  2  0  0  0  0  0  0  0  0  0
   37.7530   31.2070   41.7640 H   0  0  0  0  0  0  0  0  0  0  0  0
   36.1610   28.6740   41.3890 H   0  0  0  0  0  0  0  0  0  0  0  0
   38.3370   29.5100   38.3870 H   0  0  0  0  0  0  0  0  0  0  0  0
   39.3040   30.0520   39.8630 H   0  0  0  0  0  0  0  0  0  0  0  0
   36.3870   30.6340   39.1170 H   0  0  0  0  0  0  0  0  0  0  0  0
   35.6900   31.0320   41.4590 O   0  0  0  0  0  0  0  0  0  0  0  0
   35.1950   31.2990   40.6470 H   0  0  0  0  0  0  0  0  0  0  0  0
   37.7990   32.1140   39.5350 O   0  0  0  0  0  0  0  0  0  0  0  0
   38.8790   32.2820   38.6770 C   0  0  0  0  0  0  0  0  0  0  0  0
   39.0130   32.0030   37.3340 C   0  0  0  0  0  0  0  0  0  0  0  0
   38.2480   31.5880   36.7170 H   0  0  0  0  0  0  0  0  0  0  0  0
   40.2460   32.3250   36.9010 N   0  0  0  0  0  0  0  0  0  0  0  0
   40.5890   32.2040   35.9130 H   0  0  0  0  0  0  0  0  0  0  0  0
   40.9150   32.8130   37.9580 C   0  0  0  0  0  0  0  0  0  0  0  0
   41.9410   33.1520   37.8910 H   0  0  0  0  0  0  0  0  0  0  0  0
   40.0830   32.7850   39.0330 N   0  0  0  0  0  0  0  0  0  0  0  0
   40.3030   27.7540   42.1650 C   0  0  0  0  0  0  0  0  0  0  0  0
   40.8330   27.5090   43.4320 C   0  0  0  0  0  0  0  0  0  0  0  0
   42.2020   27.7010   43.6770 C   0  0  0  0  0  0  0  0  0  0  0  0
   42.9480   28.1400   42.5890 N   0  0  0  0  0  0  0  0  0  0  0  0
   42.3930   28.3670   41.3750 C   0  0  0  0  0  0  0  0  0  0  0  0
   41.0680   28.1750   41.1540 N   0  0  0  0  0  0  0  0  0  0  0  0
   40.3910   27.1830   44.3600 H   0  0  0  0  0  0  0  0  0  0  0  0
   42.7380   27.5560   44.5790 H   0  0  0  0  0  0  0  0  0  0  0  0
   43.0610   28.7050   40.5990 H   0  0  0  0  0  0  0  0  0  0  0  0
  1  7  1  6  0  0  0
  1 38  1  0  0  0  0
  1  2  1  0  0  0  0
  1  6  1  0  0  0  0
  2  8  1  1  0  0  0
  2  3  1  0  0  0  0
  3 10  1  0  0  0  0
  3  9  1  0  0  0  0
  4  3  1  0  0  0  0
  4 11  1  0  0  0  0
  5 13  1  0  0  0  0
  5  4  1  0  0  0  0
  6  5  1  0  0  0  0
  6 16  1  0  0  0  0
 12  4  1  0  0  0  0
 14  5  1  0  0  0  0
 15  6  1  0  0  0  0
 17 18  1  0  0  0  0
 17 27  1  0  0  0  0
 17 22  1  1  0  0  0
 18 23  1  1  0  0  0
 18  2  1  0  0  0  0
 19 18  1  0  0  0  0
 20 21  1  0  0  0  0
 20 25  1  0  0  0  0
 20 19  1  0  0  0  0
 21 26  1  6  0  0  0
 21 17  1  0  0  0  0
 24 20  1  0  0  0  0
 28 27  1  0  0  0  0
 29 21  1  0  0  0  0
 30 37  1  0  0  0  0
 30 29  1  0  0  0  0
 31 30  2  0  0  0  0
 32 31  1  0  0  0  0
 33 31  1  0  0  0  0
 33 35  1  0  0  0  0
 34 33  1  0  0  0  0
 35 37  2  0  0  0  0
 36 35  1  0  0  0  0
 38 39  1  0  0  0  0
 39 40  2  0  0  0  0
 39 44  1  0  0  0  0
 40 45  1  0  0  0  0
 41 40  1  0  0  0  0
 42 41  2  0  0  0  0
 43 42  1  0  0  0  0
 43 38  2  0  0  0  0
 46 42  1  0  0  0  0
M  END
>  <minimizedAffinity>
-6.22688675

$$$$

 OpenBabel03242517123D

 46 49  0  0  1  0  0  0  0  0999 V2000
   39.4620   28.5990   42.2630 C   0  0  2  0  0  0  0  0  0  0  0  0
   38.2110   29.3460   42.5760 C   0  0  2  0  0  0  0  0  0  0  0  0
   37.4300   28.7350   43.6800 C   0  0  0  0  0  0  0  0  0  0  0  0
   37.1510   27.2660   43.5080 C   0  0  0  0  0  0  0  0  0  0  0  0
   38.2590   26.5080   42.8380 C   0  0  0  0  0  0  0  0  0  0  0  0
   39.5790   27.2520   42.9160 C   0  0  0  0  0  0  0  0  0  0  0  0
   39.5010   28.4370   41.1430 H   0  0  0  0  0  0  0  0  0  0  0  0
   38.4850   30.3760   42.8980 H   0  0  0  0  0  0  0  0  0  0  0  0
   37.9250   28.9220   44.6540 H   0  0  0  0  0  0  0  0  0  0  0  0
   36.4340   29.2410   43.7120 H   0  0  0  0  0  0  0  0  0  0  0  0
   37.0230   26.8340   44.5240 H   0  0  0  0  0  0  0  0  0  0  0  0
   36.1810   27.0990   42.9700 H   0  0  0  0  0  0  0  0  0  0  0  0
   38.3910   25.4880   43.2130 H   0  0  0  0  0  0  0  0  0  0  0  0
   38.0110   26.4380   41.7540 H   0  0  0  0  0  0  0  0  0  0  0  0
   40.2900   26.6610   42.2630 H   0  0  0  0  0  0  0  0  0  0  0  0
   39.9940   27.2200   43.9130 H   0  0  0  0  0  0  0  0  0  0  0  0
   36.8670   30.8700   41.0740 C   0  0  1  0  0  0  0  0  0  0  0  0
   37.3670   29.4950   41.3300 C   0  0  1  0  0  0  0  0  0  0  0  0
   38.1320   29.0920   40.2420 O   0  0  0  0  0  0  0  0  0  0  0  0
   38.5120   30.2160   39.5360 C   0  0  0  0  0  0  0  0  0  0  0  0
   37.2420   31.0490   39.5990 C   0  0  2  0  0  0  0  0  0  0  0  0
   37.4360   31.6720   41.6270 H   0  0  0  0  0  0  0  0  0  0  0  0
   36.4880   28.8200   41.3910 H   0  0  0  0  0  0  0  0  0  0  0  0
   38.6880   29.8920   38.4820 H   0  0  0  0  0  0  0  0  0  0  0  0
   39.3710   30.7570   39.9630 H   0  0  0  0  0  0  0  0  0  0  0  0
   36.4790   30.5930   38.9590 H   0  0  0  0  0  0  0  0  0  0  0  0
   35.5010   31.0050   41.1950 O   0  0  0  0  0  0  0  0  0  0  0  0
   35.0340   31.0850   40.3280 H   0  0  0  0  0  0  0  0  0  0  0  0
   37.4820   32.3860   39.3290 O   0  0  0  0  0  0  0  0  0  0  0  0
   38.6730   32.9580   39.7600 C   0  0  0  0  0  0  0  0  0  0  0  0
   38.9730   33.6520   40.9130 C   0  0  0  0  0  0  0  0  0  0  0  0
   38.2810   33.8630   41.6960 H   0  0  0  0  0  0  0  0  0  0  0  0
   40.2650   34.0300   40.9180 N   0  0  0  0  0  0  0  0  0  0  0  0
   40.7310   34.5720   41.6910 H   0  0  0  0  0  0  0  0  0  0  0  0
   40.8070   33.5840   39.7730 C   0  0  0  0  0  0  0  0  0  0  0  0
   41.8450   33.7520   39.5170 H   0  0  0  0  0  0  0  0  0  0  0  0
   39.8380   32.9350   39.0730 N   0  0  0  0  0  0  0  0  0  0  0  0
   40.6770   29.3790   42.5740 C   0  0  0  0  0  0  0  0  0  0  0  0
   41.7560   28.6240   43.0330 C   0  0  0  0  0  0  0  0  0  0  0  0
   42.9710   29.2480   43.3570 C   0  0  0  0  0  0  0  0  0  0  0  0
   42.9980   30.6270   43.1870 N   0  0  0  0  0  0  0  0  0  0  0  0
   41.9270   31.3220   42.7390 C   0  0  0  0  0  0  0  0  0  0  0  0
   40.7590   30.7040   42.4290 N   0  0  0  0  0  0  0  0  0  0  0  0
   41.8840   27.5700   43.2240 H   0  0  0  0  0  0  0  0  0  0  0  0
   43.8650   28.8060   43.7130 H   0  0  0  0  0  0  0  0  0  0  0  0
   42.0540   32.3890   42.6420 H   0  0  0  0  0  0  0  0  0  0  0  0
  1  7  1  6  0  0  0
  1 38  1  0  0  0  0
  1  2  1  0  0  0  0
  1  6  1  0  0  0  0
  2  8  1  1  0  0  0
  2  3  1  0  0  0  0
  3 10  1  0  0  0  0
  3  9  1  0  0  0  0
  4  3  1  0  0  0  0
  4 11  1  0  0  0  0
  5  6  1  0  0  0  0
  5 13  1  0  0  0  0
  5  4  1  0  0  0  0
  6 16  1  0  0  0  0
 12  4  1  0  0  0  0
 14  5  1  0  0  0  0
 15  6  1  0  0  0  0
 17 27  1  0  0  0  0
 17 18  1  0  0  0  0
 17 22  1  1  0  0  0
 18 23  1  1  0  0  0
 18  2  1  0  0  0  0
 19 18  1  0  0  0  0
 20 21  1  0  0  0  0
 20 25  1  0  0  0  0
 20 19  1  0  0  0  0
 21 26  1  6  0  0  0
 21 17  1  0  0  0  0
 24 20  1  0  0  0  0
 28 27  1  0  0  0  0
 29 21  1  0  0  0  0
 29 30  1  0  0  0  0
 30 31  2  0  0  0  0
 31 33  1  0  0  0  0
 31 32  1  0  0  0  0
 33 34  1  0  0  0  0
 35 33  1  0  0  0  0
 36 35  1  0  0  0  0
 37 30  1  0  0  0  0
 37 35  2  0  0  0  0
 38 39  1  0  0  0  0
 39 44  1  0  0  0  0
 39 40  2  0  0  0  0
 40 45  1  0  0  0  0
 41 40  1  0  0  0  0
 42 41  2  0  0  0  0
 43 38  2  0  0  0  0
 43 42  1  0  0  0  0
 46 42  1  0  0  0  0
M  END
>  <minimizedAffinity>
-6.21653318

$$$$

 OpenBabel03242517123D

 46 49  0  0  1  0  0  0  0  0999 V2000
   37.1310   26.6880   41.3170 C   0  0  2  0  0  0  0  0  0  0  0  0
   37.6170   28.0770   41.0840 C   0  0  2  0  0  0  0  0  0  0  0  0
   38.1660   28.7130   42.3080 C   0  0  0  0  0  0  0  0  0  0  0  0
   37.2550   28.6550   43.5040 C   0  0  0  0  0  0  0  0  0  0  0  0
   36.4390   27.3990   43.5900 C   0  0  0  0  0  0  0  0  0  0  0  0
   37.0370   26.2800   42.7590 C   0  0  0  0  0  0  0  0  0  0  0  0
   36.0930   26.6020   40.8730 H   0  0  0  0  0  0  0  0  0  0  0  0
   38.4390   28.0440   40.3340 H   0  0  0  0  0  0  0  0  0  0  0  0
   39.1570   28.2830   42.5560 H   0  0  0  0  0  0  0  0  0  0  0  0
   38.3240   29.7970   42.0860 H   0  0  0  0  0  0  0  0  0  0  0  0
   37.8980   28.6930   44.4090 H   0  0  0  0  0  0  0  0  0  0  0  0
   36.5910   29.5580   43.5500 H   0  0  0  0  0  0  0  0  0  0  0  0
   36.2710   27.0460   44.6120 H   0  0  0  0  0  0  0  0  0  0  0  0
   35.4430   27.6140   43.1410 H   0  0  0  0  0  0  0  0  0  0  0  0
   36.2710   25.4480   42.7880 H   0  0  0  0  0  0  0  0  0  0  0  0
   37.9290   25.8770   43.2180 H   0  0  0  0  0  0  0  0  0  0  0  0
   36.6850   30.3860   40.6540 C   0  0  1  0  0  0  0  0  0  0  0  0
   36.5170   28.9210   40.4790 C   0  0  1  0  0  0  0  0  0  0  0  0
   36.4590   28.6390   39.1200 O   0  0  0  0  0  0  0  0  0  0  0  0
   36.9960   29.7080   38.4310 C   0  0  0  0  0  0  0  0  0  0  0  0
   36.4440   30.8810   39.2240 C   0  0  2  0  0  0  0  0  0  0  0  0
   37.7410   30.6970   40.9040 H   0  0  0  0  0  0  0  0  0  0  0  0
   35.5410   28.6350   40.9240 H   0  0  0  0  0  0  0  0  0  0  0  0
   36.5350   29.7020   37.4130 H   0  0  0  0  0  0  0  0  0  0  0  0
   38.0970   29.7260   38.3970 H   0  0  0  0  0  0  0  0  0  0  0  0
   35.3680   30.9710   39.0330 H   0  0  0  0  0  0  0  0  0  0  0  0
   35.7470   30.9670   41.4800 O   0  0  0  0  0  0  0  0  0  0  0  0
   35.0640   31.4890   40.9940 H   0  0  0  0  0  0  0  0  0  0  0  0
   37.1580   32.0460   38.9970 O   0  0  0  0  0  0  0  0  0  0  0  0
   38.3360   32.2610   39.7010 C   0  0  0  0  0  0  0  0  0  0  0  0
   38.6120   33.0970   40.7620 C   0  0  0  0  0  0  0  0  0  0  0  0
   37.9050   33.7460   41.2270 H   0  0  0  0  0  0  0  0  0  0  0  0
   39.9010   32.9860   41.1340 N   0  0  0  0  0  0  0  0  0  0  0  0
   40.3500   33.5230   41.9190 H   0  0  0  0  0  0  0  0  0  0  0  0
   40.4650   32.0800   40.3180 C   0  0  0  0  0  0  0  0  0  0  0  0
   41.5070   31.7960   40.3970 H   0  0  0  0  0  0  0  0  0  0  0  0
   39.5140   31.6430   39.4510 N   0  0  0  0  0  0  0  0  0  0  0  0
   37.9340   25.6820   40.5950 C   0  0  0  0  0  0  0  0  0  0  0  0
   37.7450   24.3660   41.0200 C   0  0  0  0  0  0  0  0  0  0  0  0
   38.4460   23.3160   40.4080 C   0  0  0  0  0  0  0  0  0  0  0  0
   39.3100   23.6900   39.3850 N   0  0  0  0  0  0  0  0  0  0  0  0
   39.4650   24.9790   39.0040 C   0  0  0  0  0  0  0  0  0  0  0  0
   38.7790   25.9840   39.6050 N   0  0  0  0  0  0  0  0  0  0  0  0
   37.1310   23.9270   41.7900 H   0  0  0  0  0  0  0  0  0  0  0  0
   38.4030   22.2800   40.6230 H   0  0  0  0  0  0  0  0  0  0  0  0
   40.1610   25.1610   38.2000 H   0  0  0  0  0  0  0  0  0  0  0  0
  1  7  1  6  0  0  0
  1  6  1  0  0  0  0
  2  8  1  6  0  0  0
  2  1  1  0  0  0  0
  2  3  1  0  0  0  0
  3  9  1  0  0  0  0
  3  4  1  0  0  0  0
  4 12  1  0  0  0  0
  4  5  1  0  0  0  0
  4 11  1  0  0  0  0
  5 13  1  0  0  0  0
  6 15  1  0  0  0  0
  6 16  1  0  0  0  0
  6  5  1  0  0  0  0
 10  3  1  0  0  0  0
 14  5  1  0  0  0  0
 17 22  1  1  0  0  0
 17 27  1  0  0  0  0
 18 17  1  0  0  0  0
 18 23  1  1  0  0  0
 18  2  1  0  0  0  0
 19 18  1  0  0  0  0
 20 19  1  0  0  0  0
 20 21  1  0  0  0  0
 21 26  1  6  0  0  0
 21 17  1  0  0  0  0
 24 20  1  0  0  0  0
 25 20  1  0  0  0  0
 28 27  1  0  0  0  0
 29 21  1  0  0  0  0
 29 30  1  0  0  0  0
 30 31  2  0  0  0  0
 31 33  1  0  0  0  0
 31 32  1  0  0  0  0
 33 34  1  0  0  0  0
 35 36  1  0  0  0  0
 35 33  1  0  0  0  0
 37 30  1  0  0  0  0
 37 35  2  0  0  0  0
 38 39  1  0  0  0  0
 38  1  1  0  0  0  0
 39 44  1  0  0  0  0
 40 45  1  0  0  0  0
 40 39  2  0  0  0  0
 41 40  1  0  0  0  0
 42 41  2  0  0  0  0
 42 43  1  0  0  0  0
 43 38  2  0  0  0  0
 46 42  1  0  0  0  0
M  END
>  <minimizedAffinity>
-6.11882305

$$$$

 OpenBabel03242517123D

 46 49  0  0  1  0  0  0  0  0999 V2000
   37.1510   30.2650   38.6910 C   0  0  2  0  0  0  0  0  0  0  0  0
   36.7220   30.4300   40.1080 C   0  0  2  0  0  0  0  0  0  0  0  0
   36.5860   31.8510   40.5110 C   0  0  0  0  0  0  0  0  0  0  0  0
   37.7900   32.7030   40.2110 C   0  0  0  0  0  0  0  0  0  0  0  0
   38.5040   32.3280   38.9470 C   0  0  0  0  0  0  0  0  0  0  0  0
   37.6170   31.5230   38.0160 C   0  0  0  0  0  0  0  0  0  0  0  0
   38.0140   29.5320   38.6710 H   0  0  0  0  0  0  0  0  0  0  0  0
   35.7220   29.9560   40.2320 H   0  0  0  0  0  0  0  0  0  0  0  0
   35.6760   32.2960   40.0610 H   0  0  0  0  0  0  0  0  0  0  0  0
   36.4520   31.8780   41.6210 H   0  0  0  0  0  0  0  0  0  0  0  0
   37.4310   33.7480   40.0910 H   0  0  0  0  0  0  0  0  0  0  0  0
   38.5040   32.7130   41.0770 H   0  0  0  0  0  0  0  0  0  0  0  0
   38.9260   33.1800   38.4040 H   0  0  0  0  0  0  0  0  0  0  0  0
   39.3470   31.6540   39.2240 H   0  0  0  0  0  0  0  0  0  0  0  0
   38.2980   31.1820   37.1790 H   0  0  0  0  0  0  0  0  0  0  0  0
   36.8630   32.1420   37.5510 H   0  0  0  0  0  0  0  0  0  0  0  0
   37.0050   28.8400   42.0510 C   0  0  1  0  0  0  0  0  0  0  0  0
   37.6660   29.6900   41.0290 C   0  0  1  0  0  0  0  0  0  0  0  0
   38.4870   28.8870   40.2470 O   0  0  0  0  0  0  0  0  0  0  0  0
   38.0840   27.5750   40.3970 C   0  0  0  0  0  0  0  0  0  0  0  0
   37.7780   27.5270   41.8850 C   0  0  2  0  0  0  0  0  0  0  0  0
   35.9320   28.5880   41.8090 H   0  0  0  0  0  0  0  0  0  0  0  0
   38.3150   30.4180   41.5610 H   0  0  0  0  0  0  0  0  0  0  0  0
   38.9750   26.9360   40.1840 H   0  0  0  0  0  0  0  0  0  0  0  0
   37.2050   27.2940   39.7950 H   0  0  0  0  0  0  0  0  0  0  0  0
   38.7170   27.5700   42.4480 H   0  0  0  0  0  0  0  0  0  0  0  0
   37.1700   29.2820   43.3460 O   0  0  0  0  0  0  0  0  0  0  0  0
   37.8130   28.7430   43.8670 H   0  0  0  0  0  0  0  0  0  0  0  0
   36.9670   26.4540   42.2160 O   0  0  0  0  0  0  0  0  0  0  0  0
   37.3560   25.1750   41.8370 C   0  0  0  0  0  0  0  0  0  0  0  0
   38.4160   24.3970   42.2500 C   0  0  0  0  0  0  0  0  0  0  0  0
   39.1430   24.6890   42.9730 H   0  0  0  0  0  0  0  0  0  0  0  0
   38.4130   23.2110   41.6130 N   0  0  0  0  0  0  0  0  0  0  0  0
   39.1230   22.4470   41.7580 H   0  0  0  0  0  0  0  0  0  0  0  0
   37.3530   23.2140   40.7870 C   0  0  0  0  0  0  0  0  0  0  0  0
   37.1110   22.3750   40.1490 H   0  0  0  0  0  0  0  0  0  0  0  0
   36.7150   24.4070   40.9260 N   0  0  0  0  0  0  0  0  0  0  0  0
   36.1070   29.6410   37.8540 C   0  0  0  0  0  0  0  0  0  0  0  0
   35.0220   29.1230   38.5610 C   0  0  0  0  0  0  0  0  0  0  0  0
   33.9600   28.5080   37.8790 C   0  0  0  0  0  0  0  0  0  0  0  0
   34.0840   28.4640   36.4950 N   0  0  0  0  0  0  0  0  0  0  0  0
   35.1560   28.9780   35.8480 C   0  0  0  0  0  0  0  0  0  0  0  0
   36.1740   29.5700   36.5220 N   0  0  0  0  0  0  0  0  0  0  0  0
   34.7910   29.0720   39.6130 H   0  0  0  0  0  0  0  0  0  0  0  0
   33.0810   28.0760   38.2800 H   0  0  0  0  0  0  0  0  0  0  0  0
   35.1530   28.8920   34.7730 H   0  0  0  0  0  0  0  0  0  0  0  0
  1  7  1  1  0  0  0
  1  2  1  0  0  0  0
  2  8  1  1  0  0  0
  2  3  1  0  0  0  0
  2 18  1  0  0  0  0
  3 10  1  0  0  0  0
  4  3  1  0  0  0  0
  4 12  1  0  0  0  0
  5 14  1  0  0  0  0
  5  4  1  0  0  0  0
  6  1  1  0  0  0  0
  6  5  1  0  0  0  0
  9  3  1  0  0  0  0
 11  4  1  0  0  0  0
 13  5  1  0  0  0  0
 15  6  1  0  0  0  0
 16  6  1  0  0  0  0
 17 22  1  6  0  0  0
 17 27  1  0  0  0  0
 18 23  1  1  0  0  0
 18 17  1  0  0  0  0
 19 20  1  0  0  0  0
 19 18  1  0  0  0  0
 20 21  1  0  0  0  0
 21 17  1  0  0  0  0
 21 29  1  0  0  0  0
 21 26  1  1  0  0  0
 24 20  1  0  0  0  0
 25 20  1  0  0  0  0
 27 28  1  0  0  0  0
 30 29  1  0  0  0  0
 30 31  2  0  0  0  0
 31 32  1  0  0  0  0
 33 34  1  0  0  0  0
 33 31  1  0  0  0  0
 35 37  2  0  0  0  0
 35 33  1  0  0  0  0
 36 35  1  0  0  0  0
 37 30  1  0  0  0  0
 38 39  1  0  0  0  0
 38  1  1  0  0  0  0
 39 44  1  0  0  0  0
 40 45  1  0  0  0  0
 40 39  2  0  0  0  0
 41 40  1  0  0  0  0
 42 41  2  0  0  0  0
 42 43  1  0  0  0  0
 43 38  2  0  0  0  0
 46 42  1  0  0  0  0
M  END
>  <minimizedAffinity>
-5.90248299

$$$$

 OpenBabel03242517123D

 46 49  0  0  1  0  0  0  0  0999 V2000
   36.6310   28.6140   41.3000 C   0  0  2  0  0  0  0  0  0  0  0  0
   37.9590   29.2600   41.1030 C   0  0  2  0  0  0  0  0  0  0  0  0
   39.0630   28.5380   41.7820 C   0  0  0  0  0  0  0  0  0  0  0  0
   38.8170   28.2480   43.2390 C   0  0  0  0  0  0  0  0  0  0  0  0
   37.3840   27.9490   43.5680 C   0  0  0  0  0  0  0  0  0  0  0  0
   36.5990   27.5300   42.3390 C   0  0  0  0  0  0  0  0  0  0  0  0
   35.8980   29.4140   41.6230 H   0  0  0  0  0  0  0  0  0  0  0  0
   38.1920   29.2660   40.0140 H   0  0  0  0  0  0  0  0  0  0  0  0
   39.3060   27.6030   41.2390 H   0  0  0  0  0  0  0  0  0  0  0  0
   39.9710   29.1890   41.7420 H   0  0  0  0  0  0  0  0  0  0  0  0
   39.4110   27.3470   43.5000 H   0  0  0  0  0  0  0  0  0  0  0  0
   39.2020   29.0790   43.8860 H   0  0  0  0  0  0  0  0  0  0  0  0
   37.2550   27.2010   44.3570 H   0  0  0  0  0  0  0  0  0  0  0  0
   36.9150   28.8950   43.9220 H   0  0  0  0  0  0  0  0  0  0  0  0
   35.5210   27.4730   42.6810 H   0  0  0  0  0  0  0  0  0  0  0  0
   36.8620   26.5320   42.0200 H   0  0  0  0  0  0  0  0  0  0  0  0
   39.0720   31.5280   41.1270 C   0  0  1  0  0  0  0  0  0  0  0  0
   37.9050   30.7070   41.5390 C   0  0  1  0  0  0  0  0  0  0  0  0
   36.7540   31.2730   41.0080 O   0  0  0  0  0  0  0  0  0  0  0  0
   37.1170   32.1040   39.9660 C   0  0  0  0  0  0  0  0  0  0  0  0
   38.3710   32.7530   40.5280 C   0  0  2  0  0  0  0  0  0  0  0  0
   39.6680   31.0810   40.2800 H   0  0  0  0  0  0  0  0  0  0  0  0
   37.8260   30.7610   42.6460 H   0  0  0  0  0  0  0  0  0  0  0  0
   36.3150   32.8750   39.8710 H   0  0  0  0  0  0  0  0  0  0  0  0
   37.3230   31.5850   39.0160 H   0  0  0  0  0  0  0  0  0  0  0  0
   38.0900   33.4520   41.3240 H   0  0  0  0  0  0  0  0  0  0  0  0
   39.8640   31.9490   42.1740 O   0  0  0  0  0  0  0  0  0  0  0  0
   39.7530   32.9060   42.3930 H   0  0  0  0  0  0  0  0  0  0  0  0
   39.1590   33.3120   39.5360 O   0  0  0  0  0  0  0  0  0  0  0  0
   39.9750   32.4840   38.7760 C   0  0  0  0  0  0  0  0  0  0  0  0
   39.7400   31.8390   37.5800 C   0  0  0  0  0  0  0  0  0  0  0  0
   38.8300   31.8910   37.0280 H   0  0  0  0  0  0  0  0  0  0  0  0
   40.8210   31.1310   37.2010 N   0  0  0  0  0  0  0  0  0  0  0  0
   40.8850   30.5540   36.3230 H   0  0  0  0  0  0  0  0  0  0  0  0
   41.7580   31.3120   38.1460 C   0  0  0  0  0  0  0  0  0  0  0  0
   42.7350   30.8510   38.0910 H   0  0  0  0  0  0  0  0  0  0  0  0
   41.2410   32.1330   39.0990 N   0  0  0  0  0  0  0  0  0  0  0  0
   36.0730   28.0770   40.0430 C   0  0  0  0  0  0  0  0  0  0  0  0
   36.5300   26.8060   39.6950 C   0  0  0  0  0  0  0  0  0  0  0  0
   36.0690   26.1840   38.5240 C   0  0  0  0  0  0  0  0  0  0  0  0
   35.1570   26.9180   37.7750 N   0  0  0  0  0  0  0  0  0  0  0  0
   34.7410   28.1510   38.1490 C   0  0  0  0  0  0  0  0  0  0  0  0
   35.1940   28.7390   39.2850 N   0  0  0  0  0  0  0  0  0  0  0  0
   37.2290   26.1280   40.1570 H   0  0  0  0  0  0  0  0  0  0  0  0
   36.3250   25.2310   38.1390 H   0  0  0  0  0  0  0  0  0  0  0  0
   34.0310   28.6350   37.4970 H   0  0  0  0  0  0  0  0  0  0  0  0
  1  7  1  1  0  0  0
  1  6  1  0  0  0  0
  2  8  1  6  0  0  0
  2  1  1  0  0  0  0
  2 18  1  0  0  0  0
  2  3  1  0  0  0  0
  3  4  1  0  0  0  0
  4 11  1  0  0  0  0
  4  5  1  0  0  0  0
  4 12  1  0  0  0  0
  5 14  1  0  0  0  0
  5 13  1  0  0  0  0
  6 15  1  0  0  0  0
  6  5  1  0  0  0  0
  9  3  1  0  0  0  0
 10  3  1  0  0  0  0
 16  6  1  0  0  0  0
 17 22  1  6  0  0  0
 17 18  1  0  0  0  0
 17 27  1  0  0  0  0
 18 23  1  1  0  0  0
 19 18  1  0  0  0  0
 20 21  1  0  0  0  0
 20 19  1  0  0  0  0
 21 17  1  0  0  0  0
 21 26  1  1  0  0  0
 24 20  1  0  0  0  0
 25 20  1  0  0  0  0
 27 28  1  0  0  0  0
 29 21  1  0  0  0  0
 30 37  1  0  0  0  0
 30 29  1  0  0  0  0
 31 30  2  0  0  0  0
 32 31  1  0  0  0  0
 33 31  1  0  0  0  0
 33 35  1  0  0  0  0
 34 33  1  0  0  0  0
 35 37  2  0  0  0  0
 36 35  1  0  0  0  0
 38  1  1  0  0  0  0
 39 38  1  0  0  0  0
 39 44  1  0  0  0  0
 40 39  2  0  0  0  0
 41 42  2  0  0  0  0
 41 40  1  0  0  0  0
 42 43  1  0  0  0  0
 43 38  2  0  0  0  0
 45 40  1  0  0  0  0
 46 42  1  0  0  0  0
M  END
>  <minimizedAffinity>
-5.77216148

$$$$

 OpenBabel03242517123D

 46 49  0  0  1  0  0  0  0  0999 V2000
   37.4930   28.4240   39.5100 C   0  0  2  0  0  0  0  0  0  0  0  0
   37.5050   29.8160   38.9770 C   0  0  2  0  0  0  0  0  0  0  0  0
   36.2460   30.1810   38.2810 C   0  0  0  0  0  0  0  0  0  0  0  0
   35.8120   29.2030   37.2220 C   0  0  0  0  0  0  0  0  0  0  0  0
   36.1220   27.7720   37.5480 C   0  0  0  0  0  0  0  0  0  0  0  0
   36.3540   27.5700   39.0340 C   0  0  0  0  0  0  0  0  0  0  0  0
   38.4530   27.9180   39.1870 H   0  0  0  0  0  0  0  0  0  0  0  0
   37.6250   30.5200   39.8300 H   0  0  0  0  0  0  0  0  0  0  0  0
   35.4320   30.3440   39.0140 H   0  0  0  0  0  0  0  0  0  0  0  0
   36.4180   31.1540   37.7570 H   0  0  0  0  0  0  0  0  0  0  0  0
   34.7080   29.2880   37.1290 H   0  0  0  0  0  0  0  0  0  0  0  0
   36.2350   29.4780   36.2200 H   0  0  0  0  0  0  0  0  0  0  0  0
   35.3690   27.0610   37.1950 H   0  0  0  0  0  0  0  0  0  0  0  0
   37.0860   27.5160   37.0520 H   0  0  0  0  0  0  0  0  0  0  0  0
   36.7150   26.5020   39.1350 H   0  0  0  0  0  0  0  0  0  0  0  0
   35.4290   27.6240   39.5910 H   0  0  0  0  0  0  0  0  0  0  0  0
   39.2550   31.3990   38.0760 C   0  0  1  0  0  0  0  0  0  0  0  0
   38.7040   30.0200   38.0780 C   0  0  1  0  0  0  0  0  0  0  0  0
   39.7010   29.1430   38.4860 O   0  0  0  0  0  0  0  0  0  0  0  0
   40.6760   29.8680   39.1430 C   0  0  0  0  0  0  0  0  0  0  0  0
   40.7480   31.1170   38.2800 C   0  0  2  0  0  0  0  0  0  0  0  0
   38.9430   32.0160   38.9670 H   0  0  0  0  0  0  0  0  0  0  0  0
   38.4350   29.7600   37.0330 H   0  0  0  0  0  0  0  0  0  0  0  0
   41.6290   29.2950   39.0410 H   0  0  0  0  0  0  0  0  0  0  0  0
   40.4380   30.1130   40.1900 H   0  0  0  0  0  0  0  0  0  0  0  0
   41.2180   30.8680   37.3220 H   0  0  0  0  0  0  0  0  0  0  0  0
   39.0980   32.0670   36.8810 O   0  0  0  0  0  0  0  0  0  0  0  0
   39.9330   32.1430   36.3580 H   0  0  0  0  0  0  0  0  0  0  0  0
   41.3440   32.1760   38.9450 O   0  0  0  0  0  0  0  0  0  0  0  0
   42.3270   32.9120   38.2950 C   0  0  0  0  0  0  0  0  0  0  0  0
   42.2260   33.9100   37.3490 C   0  0  0  0  0  0  0  0  0  0  0  0
   41.3100   34.2850   36.9530 H   0  0  0  0  0  0  0  0  0  0  0  0
   43.4460   34.3490   36.9880 N   0  0  0  0  0  0  0  0  0  0  0  0
   43.6290   35.1060   36.2800 H   0  0  0  0  0  0  0  0  0  0  0  0
   44.3410   33.6400   37.6960 C   0  0  0  0  0  0  0  0  0  0  0  0
   45.4090   33.7910   37.6000 H   0  0  0  0  0  0  0  0  0  0  0  0
   43.6580   32.7700   38.4870 N   0  0  0  0  0  0  0  0  0  0  0  0
   37.5260   28.3860   40.9860 C   0  0  0  0  0  0  0  0  0  0  0  0
   36.8650   27.2980   41.5580 C   0  0  0  0  0  0  0  0  0  0  0  0
   36.8290   27.1440   42.9520 C   0  0  0  0  0  0  0  0  0  0  0  0
   37.4820   28.1330   43.6800 N   0  0  0  0  0  0  0  0  0  0  0  0
   38.1110   29.1730   43.0840 C   0  0  0  0  0  0  0  0  0  0  0  0
   38.1380   29.3070   41.7340 N   0  0  0  0  0  0  0  0  0  0  0  0
   36.3150   26.4720   41.1370 H   0  0  0  0  0  0  0  0  0  0  0  0
   36.3710   26.3770   43.5200 H   0  0  0  0  0  0  0  0  0  0  0  0
   38.5870   29.8840   43.7410 H   0  0  0  0  0  0  0  0  0  0  0  0
  1  7  1  6  0  0  0
  1 38  1  0  0  0  0
  2  1  1  0  0  0  0
  2  8  1  1  0  0  0
  3  2  1  0  0  0  0
  3  9  1  0  0  0  0
  4  5  1  0  0  0  0
  4  3  1  0  0  0  0
  5  6  1  0  0  0  0
  6 15  1  0  0  0  0
  6  1  1  0  0  0  0
  6 16  1  0  0  0  0
 10  3  1  0  0  0  0
 11  4  1  0  0  0  0
 12  4  1  0  0  0  0
 13  5  1  0  0  0  0
 14  5  1  0  0  0  0
 17 18  1  0  0  0  0
 17 21  1  0  0  0  0
 17 22  1  1  0  0  0
 18 23  1  6  0  0  0
 18 19  1  0  0  0  0
 18  2  1  0  0  0  0
 19 20  1  0  0  0  0
 20 25  1  0  0  0  0
 21 26  1  6  0  0  0
 21 29  1  0  0  0  0
 21 20  1  0  0  0  0
 24 20  1  0  0  0  0
 27 17  1  0  0  0  0
 28 27  1  0  0  0  0
 30 37  1  0  0  0  0
 30 29  1  0  0  0  0
 31 30  2  0  0  0  0
 32 31  1  0  0  0  0
 33 31  1  0  0  0  0
 33 35  1  0  0  0  0
 34 33  1  0  0  0  0
 35 37  2  0  0  0  0
 36 35  1  0  0  0  0
 38 39  2  0  0  0  0
 38 43  1  0  0  0  0
 39 40  1  0  0  0  0
 40 45  1  0  0  0  0
 40 41  2  0  0  0  0
 42 41  1  0  0  0  0
 42 46  1  0  0  0  0
 43 42  2  0  0  0  0
 44 39  1  0  0  0  0
M  END
>  <minimizedAffinity>
-5.72197151

$$$$

 OpenBabel03242517123D

 46 49  0  0  1  0  0  0  0  0999 V2000
   39.8790   32.2030   40.0050 C   0  0  2  0  0  0  0  0  0  0  0  0
   38.5690   31.5400   39.7530 C   0  0  2  0  0  0  0  0  0  0  0  0
   37.6130   32.4050   39.0180 C   0  0  0  0  0  0  0  0  0  0  0  0
   37.4180   33.7710   39.6180 C   0  0  0  0  0  0  0  0  0  0  0  0
   38.6560   34.3480   40.2390 C   0  0  0  0  0  0  0  0  0  0  0  0
   39.9130   33.6770   39.7190 C   0  0  0  0  0  0  0  0  0  0  0  0
   40.1350   32.0660   41.1000 H   0  0  0  0  0  0  0  0  0  0  0  0
   38.7440   30.6380   39.1260 H   0  0  0  0  0  0  0  0  0  0  0  0
   37.9070   32.4900   37.9530 H   0  0  0  0  0  0  0  0  0  0  0  0
   36.6130   31.9050   39.0450 H   0  0  0  0  0  0  0  0  0  0  0  0
   37.1130   34.4520   38.7950 H   0  0  0  0  0  0  0  0  0  0  0  0
   36.5720   33.7710   40.3560 H   0  0  0  0  0  0  0  0  0  0  0  0
   38.7460   35.4330   40.1270 H   0  0  0  0  0  0  0  0  0  0  0  0
   38.6200   34.1250   41.3300 H   0  0  0  0  0  0  0  0  0  0  0  0
   40.7530   34.0890   40.3540 H   0  0  0  0  0  0  0  0  0  0  0  0
   40.1330   33.9780   38.7040 H   0  0  0  0  0  0  0  0  0  0  0  0
   36.7040   30.2930   40.9140 C   0  0  1  0  0  0  0  0  0  0  0  0
   37.9720   31.0520   41.0540 C   0  0  1  0  0  0  0  0  0  0  0  0
   38.9100   30.2380   41.6780 O   0  0  0  0  0  0  0  0  0  0  0  0
   38.4980   28.9260   41.5550 C   0  0  0  0  0  0  0  0  0  0  0  0
   37.0010   29.0630   41.7780 C   0  0  2  0  0  0  0  0  0  0  0  0
   36.5250   29.8920   39.8740 H   0  0  0  0  0  0  0  0  0  0  0  0
   37.7790   31.9160   41.7240 H   0  0  0  0  0  0  0  0  0  0  0  0
   38.9480   28.3640   42.4090 H   0  0  0  0  0  0  0  0  0  0  0  0
   38.7200   28.4650   40.5800 H   0  0  0  0  0  0  0  0  0  0  0  0
   36.8130   29.2900   42.8340 H   0  0  0  0  0  0  0  0  0  0  0  0
   35.6010   30.9350   41.4350 O   0  0  0  0  0  0  0  0  0  0  0  0
   35.2900   30.5520   42.2910 H   0  0  0  0  0  0  0  0  0  0  0  0
   36.3000   27.9670   41.3020 O   0  0  0  0  0  0  0  0  0  0  0  0
   36.9070   26.7180   41.3250 C   0  0  0  0  0  0  0  0  0  0  0  0
   37.4520   25.9620   40.3080 C   0  0  0  0  0  0  0  0  0  0  0  0
   37.4870   26.2530   39.2830 H   0  0  0  0  0  0  0  0  0  0  0  0
   37.9360   24.8000   40.7850 N   0  0  0  0  0  0  0  0  0  0  0  0
   38.3990   24.0560   40.2030 H   0  0  0  0  0  0  0  0  0  0  0  0
   37.7080   24.7970   42.1090 C   0  0  0  0  0  0  0  0  0  0  0  0
   38.0000   23.9720   42.7470 H   0  0  0  0  0  0  0  0  0  0  0  0
   37.0840   25.9610   42.4320 N   0  0  0  0  0  0  0  0  0  0  0  0
   40.9880   31.5570   39.2760 C   0  0  0  0  0  0  0  0  0  0  0  0
   42.1510   32.3210   39.1820 C   0  0  0  0  0  0  0  0  0  0  0  0
   43.2790   31.8150   38.5170 C   0  0  0  0  0  0  0  0  0  0  0  0
   43.1370   30.5400   37.9830 N   0  0  0  0  0  0  0  0  0  0  0  0
   41.9880   29.8330   38.0950 C   0  0  0  0  0  0  0  0  0  0  0  0
   40.9070   30.3350   38.7420 N   0  0  0  0  0  0  0  0  0  0  0  0
   42.4080   33.3090   39.5280 H   0  0  0  0  0  0  0  0  0  0  0  0
   44.2210   32.2770   38.3700 H   0  0  0  0  0  0  0  0  0  0  0  0
   41.9830   28.8530   37.6450 H   0  0  0  0  0  0  0  0  0  0  0  0
  1  7  1  1  0  0  0
  2  8  1  6  0  0  0
  2  1  1  0  0  0  0
  2 18  1  0  0  0  0
  3 10  1  0  0  0  0
  3  4  1  0  0  0  0
  3  2  1  0  0  0  0
  4  5  1  0  0  0  0
  4 12  1  0  0  0  0
  5 14  1  0  0  0  0
  6  1  1  0  0  0  0
  6  5  1  0  0  0  0
  6 15  1  0  0  0  0
  9  3  1  0  0  0  0
 11  4  1  0  0  0  0
 13  5  1  0  0  0  0
 16  6  1  0  0  0  0
 17 22  1  6  0  0  0
 17 18  1  0  0  0  0
 17 27  1  0  0  0  0
 17 21  1  0  0  0  0
 18 19  1  0  0  0  0
 18 23  1  1  0  0  0
 20 19  1  0  0  0  0
 20 21  1  0  0  0  0
 20 24  1  0  0  0  0
 21 26  1  1  0  0  0
 25 20  1  0  0  0  0
 27 28  1  0  0  0  0
 29 30  1  0  0  0  0
 29 21  1  0  0  0  0
 30 37  1  0  0  0  0
 31 33  1  0  0  0  0
 31 30  2  0  0  0  0
 32 31  1  0  0  0  0
 33 35  1  0  0  0  0
 34 33  1  0  0  0  0
 35 37  2  0  0  0  0
 35 36  1  0  0  0  0
 38  1  1  0  0  0  0
 39 38  1  0  0  0  0
 39 44  1  0  0  0  0
 40 39  2  0  0  0  0
 41 42  2  0  0  0  0
 41 40  1  0  0  0  0
 42 43  1  0  0  0  0
 43 38  2  0  0  0  0
 45 40  1  0  0  0  0
 46 42  1  0  0  0  0
M  END
>  <minimizedAffinity>
-5.71678925

$$$$

 OpenBabel03242517123D

 46 49  0  0  1  0  0  0  0  0999 V2000
   37.6590   28.5830   40.2280 C   0  0  2  0  0  0  0  0  0  0  0  0
   37.0190   29.8650   40.6360 C   0  0  2  0  0  0  0  0  0  0  0  0
   35.5420   29.7680   40.7420 C   0  0  0  0  0  0  0  0  0  0  0  0
   34.8650   29.1920   39.5280 C   0  0  0  0  0  0  0  0  0  0  0  0
   35.6580   28.1230   38.8360 C   0  0  0  0  0  0  0  0  0  0  0  0
   36.7110   27.5220   39.7490 C   0  0  0  0  0  0  0  0  0  0  0  0
   38.3750   28.8060   39.3780 H   0  0  0  0  0  0  0  0  0  0  0  0
   37.4030   30.1470   41.6430 H   0  0  0  0  0  0  0  0  0  0  0  0
   35.2560   29.2000   41.6500 H   0  0  0  0  0  0  0  0  0  0  0  0
   35.1410   30.8050   40.8620 H   0  0  0  0  0  0  0  0  0  0  0  0
   33.9150   28.7300   39.8690 H   0  0  0  0  0  0  0  0  0  0  0  0
   34.5810   30.0000   38.8030 H   0  0  0  0  0  0  0  0  0  0  0  0
   35.0480   27.3240   38.4050 H   0  0  0  0  0  0  0  0  0  0  0  0
   36.2170   28.6050   38.0020 H   0  0  0  0  0  0  0  0  0  0  0  0
   37.3270   26.8440   39.0840 H   0  0  0  0  0  0  0  0  0  0  0  0
   36.2680   26.8810   40.4970 H   0  0  0  0  0  0  0  0  0  0  0  0
   37.7260   32.2740   40.3500 C   0  0  1  0  0  0  0  0  0  0  0  0
   37.4260   30.9760   39.6940 C   0  0  1  0  0  0  0  0  0  0  0  0
   38.5540   30.5580   38.9990 O   0  0  0  0  0  0  0  0  0  0  0  0
   39.6490   31.2350   39.4980 C   0  0  0  0  0  0  0  0  0  0  0  0
   39.0690   32.6260   39.7020 C   0  0  2  0  0  0  0  0  0  0  0  0
   37.9400   32.1870   41.4540 H   0  0  0  0  0  0  0  0  0  0  0  0
   36.6190   31.1490   38.9510 H   0  0  0  0  0  0  0  0  0  0  0  0
   40.4090   31.2690   38.6810 H   0  0  0  0  0  0  0  0  0  0  0  0
   40.0530   30.8250   40.4380 H   0  0  0  0  0  0  0  0  0  0  0  0
   38.9040   33.0940   38.7250 H   0  0  0  0  0  0  0  0  0  0  0  0
   36.8260   33.2750   40.0570 O   0  0  0  0  0  0  0  0  0  0  0  0
   37.1770   33.9490   39.4250 H   0  0  0  0  0  0  0  0  0  0  0  0
   39.8320   33.3860   40.5730 O   0  0  0  0  0  0  0  0  0  0  0  0
   41.1590   33.6470   40.2540 C   0  0  0  0  0  0  0  0  0  0  0  0
   41.7150   34.2730   39.1590 C   0  0  0  0  0  0  0  0  0  0  0  0
   41.1630   34.6770   38.3410 H   0  0  0  0  0  0  0  0  0  0  0  0
   43.0570   34.3080   39.2610 N   0  0  0  0  0  0  0  0  0  0  0  0
   43.7050   34.7330   38.5490 H   0  0  0  0  0  0  0  0  0  0  0  0
   43.3760   33.7050   40.4190 C   0  0  0  0  0  0  0  0  0  0  0  0
   44.3990   33.5930   40.7530 H   0  0  0  0  0  0  0  0  0  0  0  0
   42.2220   33.3060   41.0180 N   0  0  0  0  0  0  0  0  0  0  0  0
   38.5060   28.0110   41.2930 C   0  0  0  0  0  0  0  0  0  0  0  0
   37.8060   27.3860   42.3250 C   0  0  0  0  0  0  0  0  0  0  0  0
   38.4980   26.7970   43.3950 C   0  0  0  0  0  0  0  0  0  0  0  0
   39.8840   26.8910   43.3360 N   0  0  0  0  0  0  0  0  0  0  0  0
   40.5240   27.5090   42.3150 C   0  0  0  0  0  0  0  0  0  0  0  0
   39.8410   28.0720   41.2870 N   0  0  0  0  0  0  0  0  0  0  0  0
   36.7550   27.2420   42.5150 H   0  0  0  0  0  0  0  0  0  0  0  0
   38.1040   26.2930   44.2380 H   0  0  0  0  0  0  0  0  0  0  0  0
   41.6010   27.5260   42.3650 H   0  0  0  0  0  0  0  0  0  0  0  0
  1  7  1  6  0  0  0
  1  2  1  0  0  0  0
  1 38  1  0  0  0  0
  2  3  1  0  0  0  0
  2  8  1  1  0  0  0
  3 10  1  0  0  0  0
  3  9  1  0  0  0  0
  4 11  1  0  0  0  0
  4  3  1  0  0  0  0
  5  4  1  0  0  0  0
  5  6  1  0  0  0  0
  6  1  1  0  0  0  0
  6 16  1  0  0  0  0
 12  4  1  0  0  0  0
 13  5  1  0  0  0  0
 14  5  1  0  0  0  0
 15  6  1  0  0  0  0
 17 22  1  1  0  0  0
 18 23  1  6  0  0  0
 18 17  1  0  0  0  0
 18  2  1  0  0  0  0
 19 20  1  0  0  0  0
 19 18  1  0  0  0  0
 20 21  1  0  0  0  0
 20 25  1  0  0  0  0
 21 26  1  6  0  0  0
 21 17  1  0  0  0  0
 21 29  1  0  0  0  0
 24 20  1  0  0  0  0
 27 17  1  0  0  0  0
 28 27  1  0  0  0  0
 30 29  1  0  0  0  0
 30 37  1  0  0  0  0
 31 33  1  0  0  0  0
 31 30  2  0  0  0  0
 32 31  1  0  0  0  0
 33 35  1  0  0  0  0
 34 33  1  0  0  0  0
 35 36  1  0  0  0  0
 35 37  2  0  0  0  0
 38 39  1  0  0  0  0
 39 44  1  0  0  0  0
 39 40  2  0  0  0  0
 40 45  1  0  0  0  0
 41 40  1  0  0  0  0
 42 46  1  0  0  0  0
 42 41  2  0  0  0  0
 43 38  2  0  0  0  0
 43 42  1  0  0  0  0
M  END
>  <minimizedAffinity>
-5.59348774

$$$$

 OpenBabel03242517123D

 46 49  0  0  1  0  0  0  0  0999 V2000
   37.2590   28.2220   39.3140 C   0  0  2  0  0  0  0  0  0  0  0  0
   37.1400   29.5920   38.7420 C   0  0  2  0  0  0  0  0  0  0  0  0
   35.8470   29.8230   38.0510 C   0  0  0  0  0  0  0  0  0  0  0  0
   35.4920   28.7800   37.0260 C   0  0  0  0  0  0  0  0  0  0  0  0
   35.9330   27.3930   37.3880 C   0  0  0  0  0  0  0  0  0  0  0  0
   36.1960   27.2550   38.8760 C   0  0  0  0  0  0  0  0  0  0  0  0
   38.2570   27.7940   38.9930 H   0  0  0  0  0  0  0  0  0  0  0  0
   37.2050   30.3290   39.5730 H   0  0  0  0  0  0  0  0  0  0  0  0
   35.0280   29.9340   38.7900 H   0  0  0  0  0  0  0  0  0  0  0  0
   35.9260   30.7920   37.4980 H   0  0  0  0  0  0  0  0  0  0  0  0
   34.3840   28.7630   36.9440 H   0  0  0  0  0  0  0  0  0  0  0  0
   35.8790   29.0620   36.0120 H   0  0  0  0  0  0  0  0  0  0  0  0
   35.2430   26.6070   37.0640 H   0  0  0  0  0  0  0  0  0  0  0  0
   36.9110   27.2090   36.8870 H   0  0  0  0  0  0  0  0  0  0  0  0
   36.6530   26.2270   39.0020 H   0  0  0  0  0  0  0  0  0  0  0  0
   35.2760   27.2420   39.4430 H   0  0  0  0  0  0  0  0  0  0  0  0
   38.8320   31.2640   37.8910 C   0  0  1  0  0  0  0  0  0  0  0  0
   38.3070   29.8770   37.8230 C   0  0  1  0  0  0  0  0  0  0  0  0
   39.3330   28.9970   38.1460 O   0  0  0  0  0  0  0  0  0  0  0  0
   40.3140   29.7000   38.8170 C   0  0  0  0  0  0  0  0  0  0  0  0
   40.3350   31.0020   38.0330 C   0  0  2  0  0  0  0  0  0  0  0  0
   38.5350   31.8190   38.8280 H   0  0  0  0  0  0  0  0  0  0  0  0
   38.0120   29.6770   36.7710 H   0  0  0  0  0  0  0  0  0  0  0  0
   41.2740   29.1540   38.6520 H   0  0  0  0  0  0  0  0  0  0  0  0
   40.1030   29.8750   39.8850 H   0  0  0  0  0  0  0  0  0  0  0  0
   40.7810   30.8220   37.0480 H   0  0  0  0  0  0  0  0  0  0  0  0
   38.6260   32.0020   36.7450 O   0  0  0  0  0  0  0  0  0  0  0  0
   39.4430   32.1270   36.2040 H   0  0  0  0  0  0  0  0  0  0  0  0
   40.9320   32.0290   38.7450 O   0  0  0  0  0  0  0  0  0  0  0  0
   40.1860   32.7070   39.7020 C   0  0  0  0  0  0  0  0  0  0  0  0
   39.6900   32.2900   40.9190 C   0  0  0  0  0  0  0  0  0  0  0  0
   39.8200   31.3140   41.3280 H   0  0  0  0  0  0  0  0  0  0  0  0
   39.0160   33.2850   41.5250 N   0  0  0  0  0  0  0  0  0  0  0  0
   38.5450   33.2090   42.4630 H   0  0  0  0  0  0  0  0  0  0  0  0
   39.0720   34.3490   40.7060 C   0  0  0  0  0  0  0  0  0  0  0  0
   38.6060   35.2950   40.9510 H   0  0  0  0  0  0  0  0  0  0  0  0
   39.7820   33.9940   39.6020 N   0  0  0  0  0  0  0  0  0  0  0  0
   37.3090   28.2290   40.7890 C   0  0  0  0  0  0  0  0  0  0  0  0
   36.9550   27.0220   41.3930 C   0  0  0  0  0  0  0  0  0  0  0  0
   36.9690   26.8990   42.7910 C   0  0  0  0  0  0  0  0  0  0  0  0
   37.3490   28.0400   43.4890 N   0  0  0  0  0  0  0  0  0  0  0  0
   37.6840   29.1920   42.8630 C   0  0  0  0  0  0  0  0  0  0  0  0
   37.6670   29.2950   41.5100 N   0  0  0  0  0  0  0  0  0  0  0  0
   36.6350   26.0720   40.9980 H   0  0  0  0  0  0  0  0  0  0  0  0
   36.7280   26.0530   43.3820 H   0  0  0  0  0  0  0  0  0  0  0  0
   37.9640   30.0180   43.4970 H   0  0  0  0  0  0  0  0  0  0  0  0
  1  7  1  6  0  0  0
  1 38  1  0  0  0  0
  2  1  1  0  0  0  0
  2  8  1  1  0  0  0
  3  2  1  0  0  0  0
  3  9  1  0  0  0  0
  4  5  1  0  0  0  0
  4  3  1  0  0  0  0
  5  6  1  0  0  0  0
  6 15  1  0  0  0  0
  6  1  1  0  0  0  0
  6 16  1  0  0  0  0
 10  3  1  0  0  0  0
 11  4  1  0  0  0  0
 12  4  1  0  0  0  0
 13  5  1  0  0  0  0
 14  5  1  0  0  0  0
 17 21  1  0  0  0  0
 17 22  1  1  0  0  0
 18 23  1  6  0  0  0
 18 17  1  0  0  0  0
 18 19  1  0  0  0  0
 18  2  1  0  0  0  0
 19 20  1  0  0  0  0
 20 25  1  0  0  0  0
 21 26  1  6  0  0  0
 21 29  1  0  0  0  0
 21 20  1  0  0  0  0
 24 20  1  0  0  0  0
 27 17  1  0  0  0  0
 28 27  1  0  0  0  0
 29 30  1  0  0  0  0
 30 31  2  0  0  0  0
 31 32  1  0  0  0  0
 31 33  1  0  0  0  0
 33 34  1  0  0  0  0
 35 36  1  0  0  0  0
 35 33  1  0  0  0  0
 37 30  1  0  0  0  0
 37 35  2  0  0  0  0
 38 39  2  0  0  0  0
 38 43  1  0  0  0  0
 39 40  1  0  0  0  0
 40 45  1  0  0  0  0
 40 41  2  0  0  0  0
 42 41  1  0  0  0  0
 42 46  1  0  0  0  0
 43 42  2  0  0  0  0
 44 39  1  0  0  0  0
M  END
>  <minimizedAffinity>
-5.5697279

$$$$
