
 OpenBabel03252505143D

 24 26  0  0  0  0  0  0  0  0999 V2000
   44.7120   35.8010   44.3540 C   0  0  0  0  0  0  0  0  0  0  0  0
   45.4140   35.9040   43.1400 C   0  0  0  0  0  0  0  0  0  0  0  0
   46.3310   34.8960   42.8880 C   0  0  0  0  0  0  0  0  0  0  0  0
   46.5180   33.8750   43.7870 N   0  0  0  0  0  0  0  0  0  0  0  0
   45.8090   33.8180   44.9520 C   0  0  0  0  0  0  0  0  0  0  0  0
   44.9130   34.7840   45.2240 N   0  0  0  0  0  0  0  0  0  0  0  0
   43.9800   36.5430   44.6290 H   0  0  0  0  0  0  0  0  0  0  0  0
   45.2550   36.7020   42.4600 H   0  0  0  0  0  0  0  0  0  0  0  0
   47.1250   34.8780   41.6140 C   0  0  0  0  0  0  0  0  0  0  0  0
   48.4910   35.5130   41.7540 C   0  0  0  0  0  0  0  0  0  0  0  0
   48.2770   33.9940   41.5120 C   0  0  0  0  0  0  0  0  0  0  0  0
   46.5310   35.1730   40.7350 H   0  0  0  0  0  0  0  0  0  0  0  0
   48.8550   35.8460   42.7220 H   0  0  0  0  0  0  0  0  0  0  0  0
   48.7970   36.1280   40.8940 H   0  0  0  0  0  0  0  0  0  0  0  0
   48.6880   33.3940   42.3210 H   0  0  0  0  0  0  0  0  0  0  0  0
   48.6140   33.6830   40.4860 H   0  0  0  0  0  0  0  0  0  0  0  0
   46.1360   32.6650   45.7840 C   0  0  0  0  0  0  0  0  0  0  0  0
   46.8100   32.8530   46.9940 C   0  0  0  0  0  0  0  0  0  0  0  0
   47.1530   33.7970   47.4410 H   0  0  0  0  0  0  0  0  0  0  0  0
   46.9920   31.6480   47.5680 N   0  0  0  0  0  0  0  0  0  0  0  0
   47.4730   31.5100   48.4850 H   0  0  0  0  0  0  0  0  0  0  0  0
   46.4430   30.7180   46.7350 C   0  0  0  0  0  0  0  0  0  0  0  0
   46.4890   29.6880   47.0240 H   0  0  0  0  0  0  0  0  0  0  0  0
   45.9190   31.3450   45.6420 N   0  0  0  0  0  0  0  0  0  0  0  0
  1  7  1  0  0  0  0
  1  6  1  0  0  0  0
  2  1  2  0  0  0  0
  3  2  1  0  0  0  0
  3  4  2  0  0  0  0
  4  5  1  0  0  0  0
  5  6  2  0  0  0  0
  5 17  1  0  0  0  0
  8  2  1  0  0  0  0
  9 10  1  0  0  0  0
  9  3  1  0  0  0  0
 10 13  1  0  0  0  0
 11  9  1  0  0  0  0
 11 10  1  0  0  0  0
 11 15  1  0  0  0  0
 12  9  1  0  0  0  0
 14 10  1  0  0  0  0
 16 11  1  0  0  0  0
 17 18  2  0  0  0  0
 18 19  1  0  0  0  0
 18 20  1  0  0  0  0
 20 21  1  0  0  0  0
 22 23  1  0  0  0  0
 22 20  1  0  0  0  0
 24 17  1  0  0  0  0
 24 22  2  0  0  0  0
M  END
>  <minimizedAffinity>
-4.5599103

>  <minimizedRMSD>
0.431690007

$$$$
