
 OpenBabel03242523403D

 36 40  0  0  1  0  0  0  0  0999 V2000
   46.7360   32.6620   45.0210 C   0  0  2  0  0  0  0  0  0  0  0  0
   47.3120   31.5270   44.9220 N   0  0  2  0  0  0  0  0  0  0  0  0
   47.2810   30.2930   44.6930 C   0  0  0  0  0  0  0  0  0  0  0  0
   47.6940   30.1580   45.9930 N   0  0  0  0  0  0  0  0  0  0  0  0
   46.9530   30.9460   46.8430 C   0  0  2  0  0  0  0  0  0  0  0  0
   46.7560   30.4150   48.1510 C   0  0  0  0  0  0  0  0  0  0  0  0
   45.9880   31.1350   48.9820 C   0  0  0  0  0  0  0  0  0  0  0  0
   45.3990   32.3130   48.6600 C   0  0  0  0  0  0  0  0  0  0  0  0
   45.6790   32.7090   47.3550 C   0  0  0  0  0  0  0  0  0  0  0  0
   46.4320   32.1510   46.3230 C   0  0  1  0  0  0  0  0  0  0  0  0
   47.6450   33.3800   45.3630 H   0  0  0  0  0  0  0  0  0  0  0  0
   48.1510   31.7610   44.2330 H   0  0  0  0  0  0  0  0  0  0  0  0
   47.9650   29.6870   44.0170 H   0  0  0  0  0  0  0  0  0  0  0  0
   46.3030   29.8010   44.5030 H   0  0  0  0  0  0  0  0  0  0  0  0
   48.4930   29.5110   46.2960 H   0  0  0  0  0  0  0  0  0  0  0  0
   47.1930   29.4930   48.4780 H   0  0  0  0  0  0  0  0  0  0  0  0
   45.8440   30.7110   49.9940 H   0  0  0  0  0  0  0  0  0  0  0  0
   44.8130   32.8100   49.3670 H   0  0  0  0  0  0  0  0  0  0  0  0
   45.1470   33.6540   47.2500 H   0  0  0  0  0  0  0  0  0  0  0  0
   44.5050   35.6150   45.0870 C   0  0  0  0  0  0  0  0  0  0  0  0
   44.2350   35.6360   43.7050 C   0  0  0  0  0  0  0  0  0  0  0  0
   44.8160   34.6480   42.9320 C   0  0  0  0  0  0  0  0  0  0  0  0
   45.5960   33.7480   43.5730 N   0  0  0  0  0  0  0  0  0  0  0  0
   45.8490   33.7430   44.9130 C   0  0  0  0  0  0  0  0  0  0  0  0
   45.2790   34.6760   45.5390 N   0  0  0  0  0  0  0  0  0  0  0  0
   44.0960   36.3430   45.7710 H   0  0  0  0  0  0  0  0  0  0  0  0
   43.5950   36.4130   43.3300 H   0  0  0  0  0  0  0  0  0  0  0  0
   44.4800   34.6650   41.2040 S   0  0  0  0  0  0  0  0  0  0  0  0
   42.7540   35.0600   40.9710 C   0  0  0  0  0  0  0  0  0  0  0  0
   41.5950   35.3020   41.7160 C   0  0  0  0  0  0  0  0  0  0  0  0
   41.7810   35.2350   42.7790 H   0  0  0  0  0  0  0  0  0  0  0  0
   40.6170   35.5450   40.8450 N   0  0  0  0  0  0  0  0  0  0  0  0
   39.6780   35.7470   41.2550 H   0  0  0  0  0  0  0  0  0  0  0  0
   41.0790   35.4710   39.5820 C   0  0  0  0  0  0  0  0  0  0  0  0
   40.4450   35.6340   38.7170 H   0  0  0  0  0  0  0  0  0  0  0  0
   42.4070   35.1700   39.6550 N   0  0  0  0  0  0  0  0  0  0  0  0
  1 11  1  1  0  0  0
  1 10  1  0  0  0  0
  2 12  1  1  0  0  0
  2  1  1  0  0  0  0
  2 10  1  0  0  0  0
  3  2  1  0  0  0  0
  3  4  1  0  0  0  0
  4 15  1  0  0  0  0
  4  5  1  0  0  0  0
  5  6  1  6  0  0  0
  6 16  1  0  0  0  0
  6  7  2  0  0  0  0
  7 17  1  0  0  0  0
  8  7  1  0  0  0  0
  8 18  1  0  0  0  0
  9  8  2  0  0  0  0
 10  5  1  0  0  0  0
 10  9  1  6  0  0  0
 13  3  1  0  0  0  0
 14  3  1  0  0  0  0
 19  9  1  0  0  0  0
 20 25  1  0  0  0  0
 20 26  1  0  0  0  0
 21 20  2  0  0  0  0
 22 23  2  0  0  0  0
 22 21  1  0  0  0  0
 23 24  1  0  0  0  0
 24  1  1  0  0  0  0
 24 25  2  0  0  0  0
 27 21  1  0  0  0  0
 28 22  1  0  0  0  0
 29 28  1  0  0  0  0
 29 30  2  0  0  0  0
 30 31  1  0  0  0  0
 32 33  1  0  0  0  0
 32 30  1  0  0  0  0
 34 36  2  0  0  0  0
 34 32  1  0  0  0  0
 35 34  1  0  0  0  0
 36 29  1  0  0  0  0
M  END
>  <minimizedAffinity>
-5.85616875

>  <minimizedRMSD>
0.973873436

$$$$
