
 OpenBabel03252506123D

 35 37  0  0  0  0  0  0  0  0999 V2000
   45.2360   33.5480   41.1340 F   0  0  0  0  0  0  0  0  0  0  0  0
   46.4170   34.1660   41.0530 C   0  0  0  0  0  0  0  0  0  0  0  0
   46.8890   34.8680   42.1420 C   0  0  0  0  0  0  0  0  0  0  0  0
   48.1140   35.5400   42.1430 C   0  0  0  0  0  0  0  0  0  0  0  0
   48.9040   35.5060   40.9930 C   0  0  0  0  0  0  0  0  0  0  0  0
   48.3950   34.7910   39.9230 C   0  0  0  0  0  0  0  0  0  0  0  0
   47.2070   34.1340   39.9090 C   0  0  0  0  0  0  0  0  0  0  0  0
   48.4150   36.0690   43.0360 H   0  0  0  0  0  0  0  0  0  0  0  0
   49.8360   36.0380   41.0400 H   0  0  0  0  0  0  0  0  0  0  0  0
   49.1090   34.8410   39.1060 H   0  0  0  0  0  0  0  0  0  0  0  0
   45.4970   33.9730   45.4170 C   0  0  0  0  0  0  0  0  0  0  0  0
   44.6170   35.0550   45.6640 C   0  0  0  0  0  0  0  0  0  0  0  0
   44.5100   36.0860   44.6990 C   0  0  0  0  0  0  0  0  0  0  0  0
   45.2780   35.9620   43.5760 N   0  0  0  0  0  0  0  0  0  0  0  0
   46.0970   34.9280   43.3750 C   0  0  0  0  0  0  0  0  0  0  0  0
   46.2020   33.9470   44.2880 N   0  0  0  0  0  0  0  0  0  0  0  0
   44.0300   35.1190   46.5550 H   0  0  0  0  0  0  0  0  0  0  0  0
   43.8470   36.9260   44.8570 H   0  0  0  0  0  0  0  0  0  0  0  0
   45.5930   32.9510   46.3910 N   0  0  0  0  0  0  0  0  0  0  0  0
   45.5830   31.9000   46.2210 H   0  0  0  0  0  0  0  0  0  0  0  0
   45.6870   33.2300   47.4130 H   0  0  0  0  0  0  0  0  0  0  0  0
   46.8010   33.4570   38.7940 O   0  0  0  0  0  0  0  0  0  0  0  0
   48.3770   34.6270   37.0160 O   0  0  0  0  0  0  0  0  0  0  0  0
   47.6220   33.3610   37.3310 P   0  0  2  0  0  0  0  0  0  0  0  0
   46.4660   33.0410   36.1030 O   0  0  0  0  0  0  0  0  0  0  0  0
   46.2800   32.0570   36.0760 H   0  0  0  0  0  0  0  0  0  0  0  0
   48.6960   32.0600   37.2430 O   0  0  0  0  0  0  0  0  0  0  0  0
   49.7490   31.8470   38.1230 C   0  0  0  0  0  0  0  0  0  0  0  0
   51.0470   31.8860   37.6520 C   0  0  0  0  0  0  0  0  0  0  0  0
   51.5010   32.0560   36.6790 H   0  0  0  0  0  0  0  0  0  0  0  0
   51.8630   31.6460   38.7130 N   0  0  0  0  0  0  0  0  0  0  0  0
   52.9160   31.5800   38.8340 H   0  0  0  0  0  0  0  0  0  0  0  0
   51.1170   31.4630   39.8140 C   0  0  0  0  0  0  0  0  0  0  0  0
   51.2400   31.2530   40.8660 H   0  0  0  0  0  0  0  0  0  0  0  0
   49.8060   31.5840   39.4610 N   0  0  0  0  0  0  0  0  0  0  0  0
  2  1  1  0  0  0  0
  2  3  1  0  0  0  0
  3  4  2  0  0  0  0
  3 15  1  0  0  0  0
  4  8  1  0  0  0  0
  5  9  1  0  0  0  0
  5  4  1  0  0  0  0
  6  5  2  0  0  0  0
  7  6  1  0  0  0  0
  7  2  2  0  0  0  0
 10  6  1  0  0  0  0
 11 12  1  0  0  0  0
 11 19  1  0  0  0  0
 12 17  1  0  0  0  0
 13 18  1  0  0  0  0
 13 12  2  0  0  0  0
 14 13  1  0  0  0  0
 15 14  2  0  0  0  0
 15 16  1  0  0  0  0
 16 11  2  0  0  0  0
 19 21  1  0  0  0  0
 20 19  1  0  0  0  0
 22  7  1  0  0  0  0
 24 23  2  6  0  0  0
 24 22  1  0  0  0  0
 25 24  1  0  0  0  0
 26 25  1  0  0  0  0
 27 24  1  0  0  0  0
 27 28  1  0  0  0  0
 28 35  1  0  0  0  0
 29 28  2  0  0  0  0
 29 31  1  0  0  0  0
 30 29  1  0  0  0  0
 31 32  1  0  0  0  0
 31 33  1  0  0  0  0
 33 34  1  0  0  0  0
 35 33  2  0  0  0  0
M  END
>  <minimizedAffinity>
-6.29478979

>  <minimizedRMSD>
0.844223022

$$$$
