
 OpenBabel03252505143D

 24 26  0  0  0  0  0  0  0  0999 V2000
   44.6640   35.7670   44.3130 C   0  0  0  0  0  0  0  0  0  0  0  0
   45.3560   35.8530   43.0920 C   0  0  0  0  0  0  0  0  0  0  0  0
   46.3490   34.9060   42.8950 C   0  0  0  0  0  0  0  0  0  0  0  0
   46.6130   33.9570   43.8530 N   0  0  0  0  0  0  0  0  0  0  0  0
   45.9110   33.9140   45.0220 C   0  0  0  0  0  0  0  0  0  0  0  0
   44.9420   34.8230   45.2400 N   0  0  0  0  0  0  0  0  0  0  0  0
   43.8770   36.4660   44.5470 H   0  0  0  0  0  0  0  0  0  0  0  0
   45.1360   36.5940   42.3670 H   0  0  0  0  0  0  0  0  0  0  0  0
   47.1420   34.8740   41.6220 C   0  0  0  0  0  0  0  0  0  0  0  0
   48.5050   35.5180   41.7520 C   0  0  0  0  0  0  0  0  0  0  0  0
   48.2990   33.9950   41.5320 C   0  0  0  0  0  0  0  0  0  0  0  0
   46.5460   35.1520   40.7390 H   0  0  0  0  0  0  0  0  0  0  0  0
   48.8680   35.8670   42.7150 H   0  0  0  0  0  0  0  0  0  0  0  0
   48.8070   36.1230   40.8830 H   0  0  0  0  0  0  0  0  0  0  0  0
   48.7140   33.4090   42.3490 H   0  0  0  0  0  0  0  0  0  0  0  0
   48.6380   33.6710   40.5110 H   0  0  0  0  0  0  0  0  0  0  0  0
   46.3260   32.8410   45.9190 C   0  0  0  0  0  0  0  0  0  0  0  0
   46.1300   31.5090   45.5430 C   0  0  0  0  0  0  0  0  0  0  0  0
   45.6820   31.1250   44.6160 H   0  0  0  0  0  0  0  0  0  0  0  0
   46.5900   30.7190   46.5310 N   0  0  0  0  0  0  0  0  0  0  0  0
   46.5620   29.6760   46.4990 H   0  0  0  0  0  0  0  0  0  0  0  0
   47.0700   31.5370   47.5120 C   0  0  0  0  0  0  0  0  0  0  0  0
   47.4840   31.0880   48.3920 H   0  0  0  0  0  0  0  0  0  0  0  0
   46.9060   32.8380   47.1340 N   0  0  0  0  0  0  0  0  0  0  0  0
  1  7  1  0  0  0  0
  1  6  1  0  0  0  0
  2  1  2  0  0  0  0
  3  2  1  0  0  0  0
  3  4  2  0  0  0  0
  4  5  1  0  0  0  0
  5  6  2  0  0  0  0
  5 17  1  0  0  0  0
  8  2  1  0  0  0  0
  9 10  1  0  0  0  0
  9  3  1  0  0  0  0
 10 13  1  0  0  0  0
 11  9  1  0  0  0  0
 11 10  1  0  0  0  0
 11 15  1  0  0  0  0
 12  9  1  0  0  0  0
 14 10  1  0  0  0  0
 16 11  1  0  0  0  0
 17 24  1  0  0  0  0
 18 17  2  0  0  0  0
 18 20  1  0  0  0  0
 19 18  1  0  0  0  0
 20 22  1  0  0  0  0
 21 20  1  0  0  0  0
 22 23  1  0  0  0  0
 24 22  2  0  0  0  0
M  END
>  <minimizedAffinity>
-4.66511726

>  <minimizedRMSD>
0.336803764

$$$$
