
 OpenBabel03242516193D

 27 29  0  0  0  0  0  0  0  0999 V2000
   45.9920   32.8070   47.0490 C   0  0  0  0  0  0  0  0  0  0  0  0
   47.2480   32.4000   47.4320 C   0  0  0  0  0  0  0  0  0  0  0  0
   47.4700   31.5840   48.5240 C   0  0  0  0  0  0  0  0  0  0  0  0
   46.3970   31.1430   49.2830 C   0  0  0  0  0  0  0  0  0  0  0  0
   45.1170   31.5310   48.9290 C   0  0  0  0  0  0  0  0  0  0  0  0
   44.9400   32.3480   47.8290 C   0  0  0  0  0  0  0  0  0  0  0  0
   48.1030   32.7210   46.8680 H   0  0  0  0  0  0  0  0  0  0  0  0
   46.5150   30.4980   50.1550 H   0  0  0  0  0  0  0  0  0  0  0  0
   44.2790   31.1870   49.5200 H   0  0  0  0  0  0  0  0  0  0  0  0
   43.9300   32.6150   47.6030 H   0  0  0  0  0  0  0  0  0  0  0  0
   44.5940   35.4660   44.9720 C   0  0  0  0  0  0  0  0  0  0  0  0
   45.2950   35.3390   43.7670 C   0  0  0  0  0  0  0  0  0  0  0  0
   46.2700   34.3170   43.6630 C   0  0  0  0  0  0  0  0  0  0  0  0
   46.4770   33.5060   44.7470 N   0  0  0  0  0  0  0  0  0  0  0  0
   45.7750   33.6640   45.8980 C   0  0  0  0  0  0  0  0  0  0  0  0
   44.8420   34.6440   45.9940 N   0  0  0  0  0  0  0  0  0  0  0  0
   43.8590   36.2570   45.0130 H   0  0  0  0  0  0  0  0  0  0  0  0
   45.1310   35.9750   42.9180 H   0  0  0  0  0  0  0  0  0  0  0  0
   46.8480   34.1630   42.7600 H   0  0  0  0  0  0  0  0  0  0  0  0
   48.8250   31.1800   48.8880 C   0  0  0  0  0  0  0  0  0  0  0  0
   49.3870   29.9430   48.6580 C   0  0  0  0  0  0  0  0  0  0  0  0
   48.8950   29.1090   48.1790 H   0  0  0  0  0  0  0  0  0  0  0  0
   50.6590   29.9530   49.1380 N   0  0  0  0  0  0  0  0  0  0  0  0
   51.2810   29.1070   49.0690 H   0  0  0  0  0  0  0  0  0  0  0  0
   50.8570   31.2010   49.6550 C   0  0  0  0  0  0  0  0  0  0  0  0
   51.8320   31.3660   50.0780 H   0  0  0  0  0  0  0  0  0  0  0  0
   49.7510   31.9250   49.4990 N   0  0  0  0  0  0  0  0  0  0  0  0
  1  2  2  0  0  0  0
  1  6  1  0  0  0  0
  2  3  1  0  0  0  0
  3 20  1  0  0  0  0
  3  4  2  0  0  0  0
  4  8  1  0  0  0  0
  5  4  1  0  0  0  0
  5  9  1  0  0  0  0
  6  5  2  0  0  0  0
  7  2  1  0  0  0  0
 10  6  1  0  0  0  0
 11 17  1  0  0  0  0
 11 16  1  0  0  0  0
 12 11  2  0  0  0  0
 13 12  1  0  0  0  0
 13 14  2  0  0  0  0
 14 15  1  0  0  0  0
 15 16  2  0  0  0  0
 15  1  1  0  0  0  0
 18 12  1  0  0  0  0
 19 13  1  0  0  0  0
 20 27  1  0  0  0  0
 21 20  2  0  0  0  0
 21 23  1  0  0  0  0
 22 21  1  0  0  0  0
 23 25  1  0  0  0  0
 24 23  1  0  0  0  0
 25 26  1  0  0  0  0
 27 25  2  0  0  0  0
M  END
>  <minimizedAffinity>
-5.51095915

>  <minimizedRMSD>
0.759517074

$$$$
