
 OpenBabel03252501033D

 30 32  0  0  1  0  0  0  0  0999 V2000
   48.0130   35.6080   41.9290 C   0  0  1  0  0  0  0  0  0  0  0  0
   49.3720   35.0170   41.9670 C   0  0  0  0  0  0  0  0  0  0  0  0
   48.5840   35.1150   40.6660 C   0  0  1  0  0  0  0  0  0  0  0  0
   47.8890   36.7220   42.0350 H   0  0  0  0  0  0  0  0  0  0  0  0
   50.2130   35.7250   42.1380 H   0  0  0  0  0  0  0  0  0  0  0  0
   49.5750   33.9940   42.2720 H   0  0  0  0  0  0  0  0  0  0  0  0
   49.0370   35.8570   39.9790 H   0  0  0  0  0  0  0  0  0  0  0  0
   46.2060   33.0980   44.0960 C   0  0  0  0  0  0  0  0  0  0  0  0
   47.2500   33.8590   43.5540 C   0  0  0  0  0  0  0  0  0  0  0  0
   46.9370   34.7770   42.5440 C   0  0  0  0  0  0  0  0  0  0  0  0
   45.6440   34.8960   42.1330 N   0  0  0  0  0  0  0  0  0  0  0  0
   44.6500   34.1490   42.6720 C   0  0  0  0  0  0  0  0  0  0  0  0
   44.9410   33.2530   43.6530 N   0  0  0  0  0  0  0  0  0  0  0  0
   46.3260   32.3630   44.8730 H   0  0  0  0  0  0  0  0  0  0  0  0
   48.2390   33.6970   43.9470 H   0  0  0  0  0  0  0  0  0  0  0  0
   43.6270   34.2780   42.3100 H   0  0  0  0  0  0  0  0  0  0  0  0
   48.0080   34.0580   40.0790 O   0  0  0  0  0  0  0  0  0  0  0  0
   49.0020   32.4690   38.2000 O   0  0  0  0  0  0  0  0  0  0  0  0
   48.2890   33.7720   38.4870 P   0  0  2  0  0  0  0  0  0  0  0  0
   49.1830   34.9830   37.7170 O   0  0  0  0  0  0  0  0  0  0  0  0
   49.1910   34.8250   36.7560 H   0  0  0  0  0  0  0  0  0  0  0  0
   46.8160   33.6550   37.6700 O   0  0  0  0  0  0  0  0  0  0  0  0
   45.7100   32.9660   38.1520 C   0  0  0  0  0  0  0  0  0  0  0  0
   44.8730   32.4440   37.1700 C   0  0  0  0  0  0  0  0  0  0  0  0
   44.8060   32.4010   36.0910 H   0  0  0  0  0  0  0  0  0  0  0  0
   43.8570   31.8110   37.8070 N   0  0  0  0  0  0  0  0  0  0  0  0
   42.9930   31.2730   37.5480 H   0  0  0  0  0  0  0  0  0  0  0  0
   44.0420   31.9280   39.1370 C   0  0  0  0  0  0  0  0  0  0  0  0
   43.5280   31.6080   40.0350 H   0  0  0  0  0  0  0  0  0  0  0  0
   45.1760   32.6350   39.3410 N   0  0  0  0  0  0  0  0  0  0  0  0
  1  2  1  0  0  0  0
  1  4  1  1  0  0  0
  1 10  1  0  0  0  0
  2  5  1  0  0  0  0
  2  6  1  0  0  0  0
  3  7  1  6  0  0  0
  3  1  1  0  0  0  0
  3  2  1  0  0  0  0
  8 14  1  0  0  0  0
  9 15  1  0  0  0  0
  9  8  2  0  0  0  0
 10  9  1  0  0  0  0
 11 10  2  0  0  0  0
 11 12  1  0  0  0  0
 12 13  2  0  0  0  0
 13  8  1  0  0  0  0
 16 12  1  0  0  0  0
 17  3  1  0  0  0  0
 19 18  2  6  0  0  0
 19 17  1  0  0  0  0
 20 19  1  0  0  0  0
 21 20  1  0  0  0  0
 22 23  1  0  0  0  0
 22 19  1  0  0  0  0
 23 30  1  0  0  0  0
 24 26  1  0  0  0  0
 24 23  2  0  0  0  0
 25 24  1  0  0  0  0
 26 28  1  0  0  0  0
 27 26  1  0  0  0  0
 28 30  2  0  0  0  0
 28 29  1  0  0  0  0
M  END
>  <minimizedAffinity>
-4.16985798

>  <minimizedRMSD>
0.707862318

$$$$
