
 OpenBabel03252501343D

 24 25  0  0  0  0  0  0  0  0999 V2000
   44.2740   35.1090   42.5250 C   0  0  0  0  0  0  0  0  0  0  0  0
   44.2090   33.8380   42.6150 O   0  0  0  0  0  0  0  0  0  0  0  0
   45.1440   35.6920   43.4970 N   0  0  0  0  0  0  0  0  0  0  0  0
   45.3000   36.7060   43.5260 H   0  0  0  0  0  0  0  0  0  0  0  0
   45.6860   34.6270   44.3310 C   0  0  0  0  0  0  0  0  0  0  0  0
   45.2880   34.3630   45.6170 C   0  0  0  0  0  0  0  0  0  0  0  0
   45.9270   33.2970   46.2430 C   0  0  0  0  0  0  0  0  0  0  0  0
   46.8600   32.6280   45.5550 N   0  0  0  0  0  0  0  0  0  0  0  0
   47.2240   32.9160   44.2950 C   0  0  0  0  0  0  0  0  0  0  0  0
   46.6230   33.9470   43.6540 N   0  0  0  0  0  0  0  0  0  0  0  0
   45.6160   33.0860   47.2550 H   0  0  0  0  0  0  0  0  0  0  0  0
   47.9910   32.3100   43.8290 H   0  0  0  0  0  0  0  0  0  0  0  0
   44.2850   35.1820   46.1700 N   0  0  0  0  0  0  0  0  0  0  0  0
   43.3110   34.9490   45.8330 H   0  0  0  0  0  0  0  0  0  0  0  0
   44.8680   35.8110   46.7870 H   0  0  0  0  0  0  0  0  0  0  0  0
   43.5890   35.9110   41.5900 O   0  0  0  0  0  0  0  0  0  0  0  0
   42.4730   35.3680   40.9600 C   0  0  0  0  0  0  0  0  0  0  0  0
   42.1050   34.7400   39.7920 C   0  0  0  0  0  0  0  0  0  0  0  0
   42.9190   34.5940   39.0930 H   0  0  0  0  0  0  0  0  0  0  0  0
   40.7850   34.4890   39.8820 N   0  0  0  0  0  0  0  0  0  0  0  0
   40.3330   34.0010   39.0530 H   0  0  0  0  0  0  0  0  0  0  0  0
   40.3100   34.9320   41.0560 C   0  0  0  0  0  0  0  0  0  0  0  0
   39.2680   34.8300   41.3350 H   0  0  0  0  0  0  0  0  0  0  0  0
   41.3450   35.4740   41.7230 N   0  0  0  0  0  0  0  0  0  0  0  0
  1  2  2  0  0  0  0
  1  3  1  0  0  0  0
  3  4  1  0  0  0  0
  3  5  1  0  0  0  0
  5  6  1  0  0  0  0
  6 13  1  0  0  0  0
  6  7  2  0  0  0  0
  7 11  1  0  0  0  0
  8  7  1  0  0  0  0
  9  8  2  0  0  0  0
 10  9  1  0  0  0  0
 10  5  2  0  0  0  0
 12  9  1  0  0  0  0
 13 15  1  0  0  0  0
 14 13  1  0  0  0  0
 16  1  1  0  0  0  0
 17 16  1  0  0  0  0
 17 24  1  0  0  0  0
 18 20  1  0  0  0  0
 18 17  2  0  0  0  0
 19 18  1  0  0  0  0
 20 22  1  0  0  0  0
 21 20  1  0  0  0  0
 22 23  1  0  0  0  0
 22 24  2  0  0  0  0
M  END
>  <minimizedAffinity>
-4.87832975

>  <minimizedRMSD>
0.394115031

$$$$
