
 OpenBabel03252500453D

 33 35  0  0  1  0  0  0  0  0999 V2000
   37.2800   26.9450   42.9360 C   0  0  1  0  0  0  0  0  0  0  0  0
   37.1510   28.2960   43.6300 C   0  0  0  0  0  0  0  0  0  0  0  0
   36.5370   28.0620   42.2670 C   0  0  1  0  0  0  0  0  0  0  0  0
   36.6010   26.1960   43.4070 H   0  0  0  0  0  0  0  0  0  0  0  0
   38.0530   28.9530   43.6650 H   0  0  0  0  0  0  0  0  0  0  0  0
   36.4080   28.4420   44.4300 H   0  0  0  0  0  0  0  0  0  0  0  0
   35.4300   28.0350   42.1810 H   0  0  0  0  0  0  0  0  0  0  0  0
   38.5910   26.6160   42.3510 C   0  0  0  0  0  0  0  0  0  0  0  0
   39.0580   27.5170   41.8750 H   0  0  0  0  0  0  0  0  0  0  0  0
   39.3220   26.3440   43.1670 H   0  0  0  0  0  0  0  0  0  0  0  0
   38.5920   25.4860   41.4180 C   0  0  0  0  0  0  0  0  0  0  0  0
   37.7550   24.4710   41.7960 C   0  0  0  0  0  0  0  0  0  0  0  0
   37.6510   23.3040   41.0060 C   0  0  0  0  0  0  0  0  0  0  0  0
   38.4360   23.2910   39.8740 N   0  0  0  0  0  0  0  0  0  0  0  0
   39.2520   24.3070   39.5260 C   0  0  0  0  0  0  0  0  0  0  0  0
   39.3170   25.3810   40.2990 N   0  0  0  0  0  0  0  0  0  0  0  0
   37.0700   24.2900   42.6130 H   0  0  0  0  0  0  0  0  0  0  0  0
   37.0640   22.4270   41.1390 H   0  0  0  0  0  0  0  0  0  0  0  0
   39.8340   24.2190   38.6220 H   0  0  0  0  0  0  0  0  0  0  0  0
   37.1430   28.6680   41.1970 O   0  0  0  0  0  0  0  0  0  0  0  0
   34.8700   29.1370   39.8720 O   0  0  0  0  0  0  0  0  0  0  0  0
   36.1140   29.7770   40.4260 P   0  0  1  0  0  0  0  0  0  0  0  0
   35.5980   30.8870   41.6310 O   0  0  0  0  0  0  0  0  0  0  0  0
   34.8330   30.4690   42.0840 H   0  0  0  0  0  0  0  0  0  0  0  0
   36.9680   30.6240   39.2480 O   0  0  0  0  0  0  0  0  0  0  0  0
   37.5070   31.8620   39.6190 C   0  0  0  0  0  0  0  0  0  0  0  0
   37.1950   33.0570   39.0090 C   0  0  0  0  0  0  0  0  0  0  0  0
   36.5290   33.2770   38.1860 H   0  0  0  0  0  0  0  0  0  0  0  0
   37.8910   34.0450   39.6160 N   0  0  0  0  0  0  0  0  0  0  0  0
   37.9590   35.0800   39.4800 H   0  0  0  0  0  0  0  0  0  0  0  0
   38.6320   33.4950   40.5940 C   0  0  0  0  0  0  0  0  0  0  0  0
   39.3340   33.8360   41.3410 H   0  0  0  0  0  0  0  0  0  0  0  0
   38.3780   32.1720   40.5720 N   0  0  0  0  0  0  0  0  0  0  0  0
  1  4  1  1  0  0  0
  1  2  1  0  0  0  0
  2  5  1  0  0  0  0
  2  6  1  0  0  0  0
  3  7  1  6  0  0  0
  3  1  1  0  0  0  0
  3  2  1  0  0  0  0
  8  1  1  0  0  0  0
  8 10  1  0  0  0  0
  9  8  1  0  0  0  0
 11 12  1  0  0  0  0
 11  8  1  0  0  0  0
 12 17  1  0  0  0  0
 13 18  1  0  0  0  0
 13 12  2  0  0  0  0
 14 13  1  0  0  0  0
 15 14  2  0  0  0  0
 15 16  1  0  0  0  0
 16 11  2  0  0  0  0
 19 15  1  0  0  0  0
 20  3  1  0  0  0  0
 22 21  2  6  0  0  0
 22 20  1  0  0  0  0
 22 23  1  0  0  0  0
 23 24  1  0  0  0  0
 25 26  1  0  0  0  0
 25 22  1  0  0  0  0
 26 33  1  0  0  0  0
 27 29  1  0  0  0  0
 27 26  2  0  0  0  0
 28 27  1  0  0  0  0
 29 31  1  0  0  0  0
 30 29  1  0  0  0  0
 31 32  1  0  0  0  0
 33 31  2  0  0  0  0
M  END
>  <minimizedAffinity>
-5.14074135

$$$$

 OpenBabel03252500453D

 33 35  0  0  1  0  0  0  0  0999 V2000
   35.9520   30.5210   39.9890 C   0  0  1  0  0  0  0  0  0  0  0  0
   35.2390   29.1750   40.0260 C   0  0  0  0  0  0  0  0  0  0  0  0
   36.2490   29.5470   41.0880 C   0  0  1  0  0  0  0  0  0  0  0  0
   35.2640   31.3380   40.3100 H   0  0  0  0  0  0  0  0  0  0  0  0
   35.5520   28.3970   39.2890 H   0  0  0  0  0  0  0  0  0  0  0  0
   34.2060   29.1020   40.4040 H   0  0  0  0  0  0  0  0  0  0  0  0
   35.8880   29.7320   42.1230 H   0  0  0  0  0  0  0  0  0  0  0  0
   37.0150   30.6870   38.9840 C   0  0  0  0  0  0  0  0  0  0  0  0
   37.5510   29.7200   38.8000 H   0  0  0  0  0  0  0  0  0  0  0  0
   36.5650   30.9290   37.9780 H   0  0  0  0  0  0  0  0  0  0  0  0
   37.9750   31.7590   39.2620 C   0  0  0  0  0  0  0  0  0  0  0  0
   37.3890   32.9030   39.7320 C   0  0  0  0  0  0  0  0  0  0  0  0
   38.1790   34.0330   40.0390 C   0  0  0  0  0  0  0  0  0  0  0  0
   39.5320   33.8770   39.8280 N   0  0  0  0  0  0  0  0  0  0  0  0
   40.0830   32.7360   39.3640 C   0  0  0  0  0  0  0  0  0  0  0  0
   39.3010   31.7030   39.0900 N   0  0  0  0  0  0  0  0  0  0  0  0
   36.3820   33.2210   39.9690 H   0  0  0  0  0  0  0  0  0  0  0  0
   37.9040   34.9930   40.4070 H   0  0  0  0  0  0  0  0  0  0  0  0
   41.1520   32.6940   39.2280 H   0  0  0  0  0  0  0  0  0  0  0  0
   37.4600   28.9050   41.0510 O   0  0  0  0  0  0  0  0  0  0  0  0
   38.8500   29.8970   43.1060 O   0  0  0  0  0  0  0  0  0  0  0  0
   38.1140   28.6860   42.6010 P   0  0  1  0  0  0  0  0  0  0  0  0
   36.7860   28.4430   43.6640 O   0  0  0  0  0  0  0  0  0  0  0  0
   36.4620   29.3360   43.9110 H   0  0  0  0  0  0  0  0  0  0  0  0
   39.0780   27.3050   42.6240 O   0  0  0  0  0  0  0  0  0  0  0  0
   38.4320   26.0760   42.4480 C   0  0  0  0  0  0  0  0  0  0  0  0
   39.0560   24.8510   42.5490 C   0  0  0  0  0  0  0  0  0  0  0  0
   40.0840   24.5990   42.7650 H   0  0  0  0  0  0  0  0  0  0  0  0
   38.1400   23.8820   42.3230 N   0  0  0  0  0  0  0  0  0  0  0  0
   38.1740   22.8370   42.3000 H   0  0  0  0  0  0  0  0  0  0  0  0
   36.9560   24.4710   42.0820 C   0  0  0  0  0  0  0  0  0  0  0  0
   35.9480   24.1580   41.8540 H   0  0  0  0  0  0  0  0  0  0  0  0
   37.1640   25.8010   42.1660 N   0  0  0  0  0  0  0  0  0  0  0  0
  1  2  1  0  0  0  0
  1  4  1  1  0  0  0
  1  3  1  0  0  0  0
  2  6  1  0  0  0  0
  2  3  1  0  0  0  0
  3  7  1  1  0  0  0
  5  2  1  0  0  0  0
  8 11  1  0  0  0  0
  8  1  1  0  0  0  0
  9  8  1  0  0  0  0
 10  8  1  0  0  0  0
 11 12  1  0  0  0  0
 12 17  1  0  0  0  0
 12 13  2  0  0  0  0
 13 18  1  0  0  0  0
 14 13  1  0  0  0  0
 15 14  2  0  0  0  0
 16 11  2  0  0  0  0
 16 15  1  0  0  0  0
 19 15  1  0  0  0  0
 20  3  1  0  0  0  0
 20 22  1  0  0  0  0
 22 25  1  0  0  0  0
 22 21  2  1  0  0  0
 22 23  1  0  0  0  0
 23 24  1  0  0  0  0
 26 27  2  0  0  0  0
 26 25  1  0  0  0  0
 27 28  1  0  0  0  0
 29 27  1  0  0  0  0
 30 29  1  0  0  0  0
 31 33  2  0  0  0  0
 31 29  1  0  0  0  0
 32 31  1  0  0  0  0
 33 26  1  0  0  0  0
M  END
>  <minimizedAffinity>
-5.03945112

$$$$

 OpenBabel03252500453D

 33 35  0  0  1  0  0  0  0  0999 V2000
   37.6070   27.8800   43.2170 C   0  0  1  0  0  0  0  0  0  0  0  0
   38.5540   29.0250   42.8770 C   0  0  0  0  0  0  0  0  0  0  0  0
   37.1370   29.0070   42.3480 C   0  0  1  0  0  0  0  0  0  0  0  0
   37.2480   27.9670   44.2690 H   0  0  0  0  0  0  0  0  0  0  0  0
   39.3660   28.8290   42.1360 H   0  0  0  0  0  0  0  0  0  0  0  0
   38.7420   29.8280   43.6090 H   0  0  0  0  0  0  0  0  0  0  0  0
   36.4160   29.7590   42.7350 H   0  0  0  0  0  0  0  0  0  0  0  0
   37.8330   26.5990   42.5270 C   0  0  0  0  0  0  0  0  0  0  0  0
   37.1280   25.8110   42.8990 H   0  0  0  0  0  0  0  0  0  0  0  0
   37.5640   26.6930   41.4340 H   0  0  0  0  0  0  0  0  0  0  0  0
   39.2130   26.1070   42.5600 C   0  0  0  0  0  0  0  0  0  0  0  0
   39.7290   25.8580   41.3160 C   0  0  0  0  0  0  0  0  0  0  0  0
   41.0480   25.3690   41.1790 C   0  0  0  0  0  0  0  0  0  0  0  0
   41.7280   25.1780   42.3620 N   0  0  0  0  0  0  0  0  0  0  0  0
   41.1940   25.4330   43.5740 C   0  0  0  0  0  0  0  0  0  0  0  0
   39.9530   25.8900   43.6530 N   0  0  0  0  0  0  0  0  0  0  0  0
   39.3800   25.9440   40.2960 H   0  0  0  0  0  0  0  0  0  0  0  0
   41.6080   25.1210   40.3090 H   0  0  0  0  0  0  0  0  0  0  0  0
   41.7940   25.2580   44.4530 H   0  0  0  0  0  0  0  0  0  0  0  0
   36.9720   28.7460   41.0120 O   0  0  0  0  0  0  0  0  0  0  0  0
   34.4500   29.0850   40.1970 O   0  0  0  0  0  0  0  0  0  0  0  0
   35.7970   29.7470   40.3060 P   0  0  1  0  0  0  0  0  0  0  0  0
   35.5990   31.0890   41.3600 O   0  0  0  0  0  0  0  0  0  0  0  0
   34.9630   30.8060   42.0530 H   0  0  0  0  0  0  0  0  0  0  0  0
   36.3470   30.3100   38.8180 O   0  0  0  0  0  0  0  0  0  0  0  0
   37.4110   31.2200   38.8360 C   0  0  0  0  0  0  0  0  0  0  0  0
   38.1710   31.5450   37.7340 C   0  0  0  0  0  0  0  0  0  0  0  0
   38.1160   31.1990   36.7120 H   0  0  0  0  0  0  0  0  0  0  0  0
   39.1050   32.4500   38.1070 N   0  0  0  0  0  0  0  0  0  0  0  0
   39.8720   32.9560   37.6070 H   0  0  0  0  0  0  0  0  0  0  0  0
   38.9470   32.6990   39.4190 C   0  0  0  0  0  0  0  0  0  0  0  0
   39.4170   33.3180   40.1680 H   0  0  0  0  0  0  0  0  0  0  0  0
   37.9120   31.9400   39.8320 N   0  0  0  0  0  0  0  0  0  0  0  0
  1  4  1  1  0  0  0
  2  1  1  0  0  0  0
  2  6  1  0  0  0  0
  3  7  1  1  0  0  0
  3  2  1  0  0  0  0
  3  1  1  0  0  0  0
  5  2  1  0  0  0  0
  8 11  1  0  0  0  0
  8  9  1  0  0  0  0
  8  1  1  0  0  0  0
 10  8  1  0  0  0  0
 11 16  1  0  0  0  0
 12 11  2  0  0  0  0
 13 12  1  0  0  0  0
 13 14  2  0  0  0  0
 14 15  1  0  0  0  0
 15 16  2  0  0  0  0
 15 19  1  0  0  0  0
 17 12  1  0  0  0  0
 18 13  1  0  0  0  0
 20  3  1  0  0  0  0
 22 21  2  6  0  0  0
 22 20  1  0  0  0  0
 22 23  1  0  0  0  0
 23 24  1  0  0  0  0
 25 26  1  0  0  0  0
 25 22  1  0  0  0  0
 26 33  1  0  0  0  0
 27 29  1  0  0  0  0
 27 26  2  0  0  0  0
 28 27  1  0  0  0  0
 29 31  1  0  0  0  0
 30 29  1  0  0  0  0
 31 33  2  0  0  0  0
 31 32  1  0  0  0  0
M  END
>  <minimizedAffinity>
-4.99387789

$$$$

 OpenBabel03252500453D

 33 35  0  0  1  0  0  0  0  0999 V2000
   37.1780   29.6060   41.2270 C   0  0  1  0  0  0  0  0  0  0  0  0
   36.4000   30.9010   41.0230 C   0  0  0  0  0  0  0  0  0  0  0  0
   37.8240   30.7640   40.5300 C   0  0  1  0  0  0  0  0  0  0  0  0
   36.8220   28.8200   40.5200 H   0  0  0  0  0  0  0  0  0  0  0  0
   36.2400   31.5590   41.9110 H   0  0  0  0  0  0  0  0  0  0  0  0
   35.6580   30.9830   40.2130 H   0  0  0  0  0  0  0  0  0  0  0  0
   38.0060   30.7370   39.4350 H   0  0  0  0  0  0  0  0  0  0  0  0
   37.6700   29.3280   42.5870 C   0  0  0  0  0  0  0  0  0  0  0  0
   38.3820   30.1230   42.9280 H   0  0  0  0  0  0  0  0  0  0  0  0
   36.8220   29.4020   43.3290 H   0  0  0  0  0  0  0  0  0  0  0  0
   38.2560   27.9990   42.7790 C   0  0  0  0  0  0  0  0  0  0  0  0
   37.5470   27.0000   42.1660 C   0  0  0  0  0  0  0  0  0  0  0  0
   37.9780   25.6580   42.2670 C   0  0  0  0  0  0  0  0  0  0  0  0
   39.1250   25.4650   43.0050 N   0  0  0  0  0  0  0  0  0  0  0  0
   39.8030   26.4680   43.5970 C   0  0  0  0  0  0  0  0  0  0  0  0
   39.3610   27.7110   43.4760 N   0  0  0  0  0  0  0  0  0  0  0  0
   36.6570   26.9400   41.5540 H   0  0  0  0  0  0  0  0  0  0  0  0
   37.5620   24.7650   41.8650 H   0  0  0  0  0  0  0  0  0  0  0  0
   40.6950   26.2330   44.1570 H   0  0  0  0  0  0  0  0  0  0  0  0
   38.7910   31.4510   41.2170 O   0  0  0  0  0  0  0  0  0  0  0  0
   38.3760   33.1820   39.2230 O   0  0  0  0  0  0  0  0  0  0  0  0
   39.1540   32.9410   40.4890 P   0  0  1  0  0  0  0  0  0  0  0  0
   38.6700   34.1590   41.6000 O   0  0  0  0  0  0  0  0  0  0  0  0
   37.7100   34.3040   41.4520 H   0  0  0  0  0  0  0  0  0  0  0  0
   40.8150   33.0670   40.2440 O   0  0  0  0  0  0  0  0  0  0  0  0
   41.2790   32.9040   38.9340 C   0  0  0  0  0  0  0  0  0  0  0  0
   41.7980   33.9210   38.1630 C   0  0  0  0  0  0  0  0  0  0  0  0
   41.9450   34.9680   38.3820 H   0  0  0  0  0  0  0  0  0  0  0  0
   42.1460   33.4130   36.9580 N   0  0  0  0  0  0  0  0  0  0  0  0
   42.5670   33.8170   36.0900 H   0  0  0  0  0  0  0  0  0  0  0  0
   41.8570   32.1000   36.9570 C   0  0  0  0  0  0  0  0  0  0  0  0
   41.9380   31.2730   36.2680 H   0  0  0  0  0  0  0  0  0  0  0  0
   41.3330   31.8210   38.1680 N   0  0  0  0  0  0  0  0  0  0  0  0
  1  4  1  6  0  0  0
  1  8  1  0  0  0  0
  2  1  1  0  0  0  0
  2  5  1  0  0  0  0
  3  7  1  6  0  0  0
  3  2  1  0  0  0  0
  3 20  1  0  0  0  0
  3  1  1  0  0  0  0
  6  2  1  0  0  0  0
  8 11  1  0  0  0  0
  8  9  1  0  0  0  0
  8 10  1  0  0  0  0
 11 16  1  0  0  0  0
 12 13  1  0  0  0  0
 12 11  2  0  0  0  0
 13 14  2  0  0  0  0
 14 15  1  0  0  0  0
 15 19  1  0  0  0  0
 16 15  2  0  0  0  0
 17 12  1  0  0  0  0
 18 13  1  0  0  0  0
 22 21  2  6  0  0  0
 22 20  1  0  0  0  0
 22 23  1  0  0  0  0
 24 23  1  0  0  0  0
 25 22  1  0  0  0  0
 26 25  1  0  0  0  0
 27 28  1  0  0  0  0
 27 26  2  0  0  0  0
 29 27  1  0  0  0  0
 30 29  1  0  0  0  0
 31 29  1  0  0  0  0
 31 33  2  0  0  0  0
 32 31  1  0  0  0  0
 33 26  1  0  0  0  0
M  END
>  <minimizedAffinity>
-4.98753452

$$$$

 OpenBabel03252500453D

 33 35  0  0  1  0  0  0  0  0999 V2000
   35.9550   28.4300   40.0290 C   0  0  1  0  0  0  0  0  0  0  0  0
   34.6490   29.0210   39.5090 C   0  0  0  0  0  0  0  0  0  0  0  0
   35.9520   29.7780   39.3740 C   0  0  1  0  0  0  0  0  0  0  0  0
   36.3160   27.6220   39.3520 H   0  0  0  0  0  0  0  0  0  0  0  0
   33.9190   29.4130   40.2570 H   0  0  0  0  0  0  0  0  0  0  0  0
   34.2310   28.6860   38.5460 H   0  0  0  0  0  0  0  0  0  0  0  0
   36.3830   29.9160   38.3590 H   0  0  0  0  0  0  0  0  0  0  0  0
   36.1560   28.4340   41.4880 C   0  0  0  0  0  0  0  0  0  0  0  0
   36.3830   29.4670   41.8610 H   0  0  0  0  0  0  0  0  0  0  0  0
   35.1910   28.1750   42.0140 H   0  0  0  0  0  0  0  0  0  0  0  0
   37.1520   27.4800   41.9830 C   0  0  0  0  0  0  0  0  0  0  0  0
   37.9350   27.9870   42.9860 C   0  0  0  0  0  0  0  0  0  0  0  0
   38.9520   27.1930   43.5630 C   0  0  0  0  0  0  0  0  0  0  0  0
   39.0690   25.9220   43.0430 N   0  0  0  0  0  0  0  0  0  0  0  0
   38.2820   25.4500   42.0550 C   0  0  0  0  0  0  0  0  0  0  0  0
   37.3430   26.2310   41.5440 N   0  0  0  0  0  0  0  0  0  0  0  0
   38.0010   28.9210   43.5260 H   0  0  0  0  0  0  0  0  0  0  0  0
   39.6470   27.4130   44.3370 H   0  0  0  0  0  0  0  0  0  0  0  0
   38.4380   24.4410   41.7040 H   0  0  0  0  0  0  0  0  0  0  0  0
   36.1250   30.8710   40.1830 O   0  0  0  0  0  0  0  0  0  0  0  0
   37.4190   32.0100   38.1400 O   0  0  0  0  0  0  0  0  0  0  0  0
   37.3820   31.8740   39.6380 P   0  0  1  0  0  0  0  0  0  0  0  0
   37.0620   33.4430   40.2630 O   0  0  0  0  0  0  0  0  0  0  0  0
   36.4330   33.8670   39.6390 H   0  0  0  0  0  0  0  0  0  0  0  0
   38.8510   31.3380   40.2620 O   0  0  0  0  0  0  0  0  0  0  0  0
   39.8400   32.3050   40.4810 C   0  0  0  0  0  0  0  0  0  0  0  0
   40.9620   32.1040   41.2550 C   0  0  0  0  0  0  0  0  0  0  0  0
   41.2910   31.2370   41.8100 H   0  0  0  0  0  0  0  0  0  0  0  0
   41.6970   33.2390   41.2490 N   0  0  0  0  0  0  0  0  0  0  0  0
   42.6010   33.5250   41.6920 H   0  0  0  0  0  0  0  0  0  0  0  0
   41.0610   34.1470   40.4890 C   0  0  0  0  0  0  0  0  0  0  0  0
   41.2220   35.1680   40.1750 H   0  0  0  0  0  0  0  0  0  0  0  0
   39.9390   33.5520   40.0370 N   0  0  0  0  0  0  0  0  0  0  0  0
  1  4  1  6  0  0  0
  1  8  1  0  0  0  0
  2  1  1  0  0  0  0
  2  5  1  0  0  0  0
  3  7  1  6  0  0  0
  3  2  1  0  0  0  0
  3  1  1  0  0  0  0
  3 20  1  0  0  0  0
  6  2  1  0  0  0  0
  8  9  1  0  0  0  0
  8 11  1  0  0  0  0
  8 10  1  0  0  0  0
 11 12  1  0  0  0  0
 12 17  1  0  0  0  0
 12 13  2  0  0  0  0
 13 18  1  0  0  0  0
 14 13  1  0  0  0  0
 15 14  2  0  0  0  0
 16 11  2  0  0  0  0
 16 15  1  0  0  0  0
 19 15  1  0  0  0  0
 22 21  2  6  0  0  0
 22 20  1  0  0  0  0
 22 25  1  0  0  0  0
 22 23  1  0  0  0  0
 24 23  1  0  0  0  0
 25 26  1  0  0  0  0
 26 27  2  0  0  0  0
 27 28  1  0  0  0  0
 29 27  1  0  0  0  0
 29 30  1  0  0  0  0
 31 29  1  0  0  0  0
 32 31  1  0  0  0  0
 33 26  1  0  0  0  0
 33 31  2  0  0  0  0
M  END
>  <minimizedAffinity>
-4.95867348

$$$$

 OpenBabel03252500453D

 33 35  0  0  1  0  0  0  0  0999 V2000
   36.4220   28.0670   40.9490 C   0  0  1  0  0  0  0  0  0  0  0  0
   35.4370   29.1930   40.6580 C   0  0  0  0  0  0  0  0  0  0  0  0
   36.9300   29.4380   40.6240 C   0  0  1  0  0  0  0  0  0  0  0  0
   36.4830   27.3670   40.0830 H   0  0  0  0  0  0  0  0  0  0  0  0
   34.8790   29.6340   41.5180 H   0  0  0  0  0  0  0  0  0  0  0  0
   34.9540   29.2700   39.6700 H   0  0  0  0  0  0  0  0  0  0  0  0
   37.4110   29.6470   39.6440 H   0  0  0  0  0  0  0  0  0  0  0  0
   36.5670   27.6530   42.3540 C   0  0  0  0  0  0  0  0  0  0  0  0
   36.6020   28.5420   43.0350 H   0  0  0  0  0  0  0  0  0  0  0  0
   35.6430   27.1010   42.6950 H   0  0  0  0  0  0  0  0  0  0  0  0
   37.6940   26.7550   42.6270 C   0  0  0  0  0  0  0  0  0  0  0  0
   38.6980   27.3490   43.3440 C   0  0  0  0  0  0  0  0  0  0  0  0
   39.8600   26.6180   43.6790 C   0  0  0  0  0  0  0  0  0  0  0  0
   39.8800   25.3140   43.2350 N   0  0  0  0  0  0  0  0  0  0  0  0
   38.8750   24.7550   42.5310 C   0  0  0  0  0  0  0  0  0  0  0  0
   37.8050   25.4800   42.2390 N   0  0  0  0  0  0  0  0  0  0  0  0
   38.8720   28.3230   43.7810 H   0  0  0  0  0  0  0  0  0  0  0  0
   40.7290   26.9080   44.2200 H   0  0  0  0  0  0  0  0  0  0  0  0
   38.9680   23.7250   42.2210 H   0  0  0  0  0  0  0  0  0  0  0  0
   37.4660   30.1700   41.6510 O   0  0  0  0  0  0  0  0  0  0  0  0
   39.7950   31.2360   42.4160 O   0  0  0  0  0  0  0  0  0  0  0  0
   38.9490   30.8770   41.2240 P   0  0  1  0  0  0  0  0  0  0  0  0
   39.8240   29.6880   40.3450 O   0  0  0  0  0  0  0  0  0  0  0  0
   40.2690   29.1210   41.0130 H   0  0  0  0  0  0  0  0  0  0  0  0
   38.6830   32.2000   40.2170 O   0  0  0  0  0  0  0  0  0  0  0  0
   39.4440   32.2700   39.0440 C   0  0  0  0  0  0  0  0  0  0  0  0
   38.9430   32.0490   37.7800 C   0  0  0  0  0  0  0  0  0  0  0  0
   37.9450   31.7960   37.4510 H   0  0  0  0  0  0  0  0  0  0  0  0
   39.9470   32.1980   36.8860 N   0  0  0  0  0  0  0  0  0  0  0  0
   40.0150   32.1230   35.8450 H   0  0  0  0  0  0  0  0  0  0  0  0
   41.0670   32.5070   37.5620 C   0  0  0  0  0  0  0  0  0  0  0  0
   42.1000   32.7190   37.3270 H   0  0  0  0  0  0  0  0  0  0  0  0
   40.7310   32.5440   38.8670 N   0  0  0  0  0  0  0  0  0  0  0  0
  1  4  1  6  0  0  0
  1  8  1  0  0  0  0
  2  1  1  0  0  0  0
  2  5  1  0  0  0  0
  3  7  1  6  0  0  0
  3  2  1  0  0  0  0
  3  1  1  0  0  0  0
  3 20  1  0  0  0  0
  6  2  1  0  0  0  0
  8 11  1  0  0  0  0
  8 10  1  0  0  0  0
  8  9  1  0  0  0  0
 11 12  1  0  0  0  0
 12 13  2  0  0  0  0
 12 17  1  0  0  0  0
 13 18  1  0  0  0  0
 14 13  1  0  0  0  0
 15 14  2  0  0  0  0
 16 15  1  0  0  0  0
 16 11  2  0  0  0  0
 19 15  1  0  0  0  0
 22 20  1  0  0  0  0
 22 21  2  1  0  0  0
 23 24  1  0  0  0  0
 23 22  1  0  0  0  0
 25 22  1  0  0  0  0
 26 25  1  0  0  0  0
 27 26  2  0  0  0  0
 28 27  1  0  0  0  0
 29 31  1  0  0  0  0
 29 27  1  0  0  0  0
 30 29  1  0  0  0  0
 31 33  2  0  0  0  0
 32 31  1  0  0  0  0
 33 26  1  0  0  0  0
M  END
>  <minimizedAffinity>
-4.91644907

$$$$

 OpenBabel03252500453D

 33 35  0  0  1  0  0  0  0  0999 V2000
   37.8700   26.8190   42.9270 C   0  0  1  0  0  0  0  0  0  0  0  0
   36.4300   27.1100   43.3360 C   0  0  0  0  0  0  0  0  0  0  0  0
   37.0100   27.6940   42.0660 C   0  0  1  0  0  0  0  0  0  0  0  0
   37.9620   25.7810   42.5310 H   0  0  0  0  0  0  0  0  0  0  0  0
   36.2610   27.8210   44.1800 H   0  0  0  0  0  0  0  0  0  0  0  0
   35.6390   26.3640   43.1580 H   0  0  0  0  0  0  0  0  0  0  0  0
   36.6260   27.3280   41.0900 H   0  0  0  0  0  0  0  0  0  0  0  0
   38.9310   27.5120   43.6770 C   0  0  0  0  0  0  0  0  0  0  0  0
   38.7840   28.6230   43.6490 H   0  0  0  0  0  0  0  0  0  0  0  0
   38.8540   27.2670   44.7760 H   0  0  0  0  0  0  0  0  0  0  0  0
   40.3000   27.1670   43.2840 C   0  0  0  0  0  0  0  0  0  0  0  0
   40.6390   25.8740   43.5810 C   0  0  0  0  0  0  0  0  0  0  0  0
   41.9300   25.3900   43.2730 C   0  0  0  0  0  0  0  0  0  0  0  0
   42.7710   26.3020   42.6750 N   0  0  0  0  0  0  0  0  0  0  0  0
   42.4090   27.5710   42.3930 C   0  0  0  0  0  0  0  0  0  0  0  0
   41.1880   27.9810   42.7000 N   0  0  0  0  0  0  0  0  0  0  0  0
   40.1440   25.0220   44.0260 H   0  0  0  0  0  0  0  0  0  0  0  0
   42.3660   24.4320   43.4280 H   0  0  0  0  0  0  0  0  0  0  0  0
   43.1280   28.2230   41.9210 H   0  0  0  0  0  0  0  0  0  0  0  0
   37.2820   29.0370   42.0640 O   0  0  0  0  0  0  0  0  0  0  0  0
   35.6080   28.9500   39.9830 O   0  0  0  0  0  0  0  0  0  0  0  0
   36.5390   29.8370   40.7650 P   0  0  1  0  0  0  0  0  0  0  0  0
   35.5700   31.0830   41.4450 O   0  0  0  0  0  0  0  0  0  0  0  0
   34.7170   30.6660   41.6960 H   0  0  0  0  0  0  0  0  0  0  0  0
   37.7110   30.5440   39.7840 O   0  0  0  0  0  0  0  0  0  0  0  0
   38.8180   31.1130   40.4250 C   0  0  0  0  0  0  0  0  0  0  0  0
   38.8470   32.3950   40.9290 C   0  0  0  0  0  0  0  0  0  0  0  0
   38.0920   33.1680   40.9360 H   0  0  0  0  0  0  0  0  0  0  0  0
   40.0640   32.6140   41.4780 N   0  0  0  0  0  0  0  0  0  0  0  0
   40.5110   33.4270   41.9600 H   0  0  0  0  0  0  0  0  0  0  0  0
   40.7980   31.4980   41.3300 C   0  0  0  0  0  0  0  0  0  0  0  0
   41.7940   31.1660   41.5830 H   0  0  0  0  0  0  0  0  0  0  0  0
   40.0160   30.6060   40.6890 N   0  0  0  0  0  0  0  0  0  0  0  0
  1  4  1  6  0  0  0
  1  2  1  0  0  0  0
  1  8  1  0  0  0  0
  2  5  1  0  0  0  0
  3  7  1  6  0  0  0
  3  1  1  0  0  0  0
  3  2  1  0  0  0  0
  6  2  1  0  0  0  0
  8 10  1  0  0  0  0
  9  8  1  0  0  0  0
 11 12  1  0  0  0  0
 11  8  1  0  0  0  0
 12 17  1  0  0  0  0
 13 18  1  0  0  0  0
 13 12  2  0  0  0  0
 14 13  1  0  0  0  0
 15 14  2  0  0  0  0
 15 16  1  0  0  0  0
 16 11  2  0  0  0  0
 19 15  1  0  0  0  0
 20  3  1  0  0  0  0
 22 21  2  6  0  0  0
 22 23  1  0  0  0  0
 22 20  1  0  0  0  0
 23 24  1  0  0  0  0
 25 26  1  0  0  0  0
 25 22  1  0  0  0  0
 26 33  1  0  0  0  0
 26 27  2  0  0  0  0
 27 28  1  0  0  0  0
 27 29  1  0  0  0  0
 29 30  1  0  0  0  0
 31 29  1  0  0  0  0
 31 32  1  0  0  0  0
 33 31  2  0  0  0  0
M  END
>  <minimizedAffinity>
-4.88223505

$$$$

 OpenBabel03252500453D

 33 35  0  0  1  0  0  0  0  0999 V2000
   36.2050   28.8920   38.7610 C   0  0  1  0  0  0  0  0  0  0  0  0
   35.3920   29.2130   37.5120 C   0  0  0  0  0  0  0  0  0  0  0  0
   36.7820   29.7810   37.7010 C   0  0  1  0  0  0  0  0  0  0  0  0
   36.6000   27.8510   38.7150 H   0  0  0  0  0  0  0  0  0  0  0  0
   34.5420   29.9290   37.6120 H   0  0  0  0  0  0  0  0  0  0  0  0
   35.3220   28.4810   36.6910 H   0  0  0  0  0  0  0  0  0  0  0  0
   37.5970   29.4180   37.0400 H   0  0  0  0  0  0  0  0  0  0  0  0
   35.8080   29.5680   40.0080 C   0  0  0  0  0  0  0  0  0  0  0  0
   35.6690   30.6680   39.8440 H   0  0  0  0  0  0  0  0  0  0  0  0
   34.7820   29.2210   40.3280 H   0  0  0  0  0  0  0  0  0  0  0  0
   36.6880   29.3280   41.1550 C   0  0  0  0  0  0  0  0  0  0  0  0
   36.3630   28.2020   41.8620 C   0  0  0  0  0  0  0  0  0  0  0  0
   37.1110   27.8390   43.0040 C   0  0  0  0  0  0  0  0  0  0  0  0
   38.1500   28.6880   43.3180 N   0  0  0  0  0  0  0  0  0  0  0  0
   38.4480   29.7910   42.6020 C   0  0  0  0  0  0  0  0  0  0  0  0
   37.7180   30.0920   41.5390 N   0  0  0  0  0  0  0  0  0  0  0  0
   35.6180   27.4220   41.7840 H   0  0  0  0  0  0  0  0  0  0  0  0
   37.0070   27.0140   43.6680 H   0  0  0  0  0  0  0  0  0  0  0  0
   39.2800   30.4030   42.9140 H   0  0  0  0  0  0  0  0  0  0  0  0
   36.8760   31.1180   37.9840 O   0  0  0  0  0  0  0  0  0  0  0  0
   39.4400   30.4970   38.4160 O   0  0  0  0  0  0  0  0  0  0  0  0
   38.4890   31.6270   38.1270 P   0  0  1  0  0  0  0  0  0  0  0  0
   38.9390   32.2660   36.5970 O   0  0  0  0  0  0  0  0  0  0  0  0
   39.2140   31.5000   36.0470 H   0  0  0  0  0  0  0  0  0  0  0  0
   38.6010   32.8550   39.2740 O   0  0  0  0  0  0  0  0  0  0  0  0
   39.8740   33.1350   39.7840 C   0  0  0  0  0  0  0  0  0  0  0  0
   40.3330   32.6940   41.0060 C   0  0  0  0  0  0  0  0  0  0  0  0
   39.8550   32.0920   41.7650 H   0  0  0  0  0  0  0  0  0  0  0  0
   41.5970   33.1450   41.1790 N   0  0  0  0  0  0  0  0  0  0  0  0
   42.3070   33.0520   41.9410 H   0  0  0  0  0  0  0  0  0  0  0  0
   41.9390   33.8600   40.0920 C   0  0  0  0  0  0  0  0  0  0  0  0
   42.8020   34.4100   39.7470 H   0  0  0  0  0  0  0  0  0  0  0  0
   40.8750   33.8350   39.2650 N   0  0  0  0  0  0  0  0  0  0  0  0
  1  4  1  1  0  0  0
  1  8  1  0  0  0  0
  2  5  1  0  0  0  0
  2  3  1  0  0  0  0
  2  1  1  0  0  0  0
  3  7  1  6  0  0  0
  3 20  1  0  0  0  0
  3  1  1  0  0  0  0
  6  2  1  0  0  0  0
  8 10  1  0  0  0  0
  8 11  1  0  0  0  0
  9  8  1  0  0  0  0
 11 16  2  0  0  0  0
 11 12  1  0  0  0  0
 12 13  2  0  0  0  0
 13 14  1  0  0  0  0
 13 18  1  0  0  0  0
 15 19  1  0  0  0  0
 15 14  2  0  0  0  0
 16 15  1  0  0  0  0
 17 12  1  0  0  0  0
 20 22  1  0  0  0  0
 22 21  2  1  0  0  0
 22 25  1  0  0  0  0
 23 22  1  0  0  0  0
 24 23  1  0  0  0  0
 25 26  1  0  0  0  0
 26 27  2  0  0  0  0
 27 29  1  0  0  0  0
 27 28  1  0  0  0  0
 29 30  1  0  0  0  0
 31 29  1  0  0  0  0
 32 31  1  0  0  0  0
 33 26  1  0  0  0  0
 33 31  2  0  0  0  0
M  END
>  <minimizedAffinity>
-4.80425549

$$$$

 OpenBabel03252500453D

 33 35  0  0  1  0  0  0  0  0999 V2000
   40.3450   28.4080   39.6740 C   0  0  1  0  0  0  0  0  0  0  0  0
   41.0000   28.1190   38.3280 C   0  0  0  0  0  0  0  0  0  0  0  0
   40.4990   29.5070   38.6650 C   0  0  1  0  0  0  0  0  0  0  0  0
   41.1120   28.4530   40.4810 H   0  0  0  0  0  0  0  0  0  0  0  0
   40.4110   27.5460   37.5730 H   0  0  0  0  0  0  0  0  0  0  0  0
   42.0970   28.0540   38.2460 H   0  0  0  0  0  0  0  0  0  0  0  0
   41.2440   30.3170   38.8190 H   0  0  0  0  0  0  0  0  0  0  0  0
   38.9710   27.9140   39.8680 C   0  0  0  0  0  0  0  0  0  0  0  0
   38.2720   28.3600   39.1140 H   0  0  0  0  0  0  0  0  0  0  0  0
   38.9210   26.8090   39.6470 H   0  0  0  0  0  0  0  0  0  0  0  0
   38.4350   28.0780   41.2220 C   0  0  0  0  0  0  0  0  0  0  0  0
   37.5920   27.0660   41.5970 C   0  0  0  0  0  0  0  0  0  0  0  0
   36.9840   27.0830   42.8720 C   0  0  0  0  0  0  0  0  0  0  0  0
   37.3090   28.1640   43.6620 N   0  0  0  0  0  0  0  0  0  0  0  0
   38.1440   29.1470   43.2660 C   0  0  0  0  0  0  0  0  0  0  0  0
   38.6900   29.0890   42.0610 N   0  0  0  0  0  0  0  0  0  0  0  0
   37.2240   26.1530   41.1480 H   0  0  0  0  0  0  0  0  0  0  0  0
   36.3120   26.3960   43.3290 H   0  0  0  0  0  0  0  0  0  0  0  0
   38.3480   29.9600   43.9460 H   0  0  0  0  0  0  0  0  0  0  0  0
   39.3670   29.9350   38.0230 O   0  0  0  0  0  0  0  0  0  0  0  0
   39.9450   32.2190   39.2860 O   0  0  0  0  0  0  0  0  0  0  0  0
   39.1540   31.6140   38.1580 P   0  0  1  0  0  0  0  0  0  0  0  0
   39.7640   32.3030   36.7080 O   0  0  0  0  0  0  0  0  0  0  0  0
   40.7330   32.4010   36.8330 H   0  0  0  0  0  0  0  0  0  0  0  0
   37.5130   31.9730   38.2730 O   0  0  0  0  0  0  0  0  0  0  0  0
   36.7790   31.2870   39.2480 C   0  0  0  0  0  0  0  0  0  0  0  0
   36.6480   31.7030   40.5550 C   0  0  0  0  0  0  0  0  0  0  0  0
   37.0470   32.5690   41.0640 H   0  0  0  0  0  0  0  0  0  0  0  0
   35.8760   30.8100   41.2160 N   0  0  0  0  0  0  0  0  0  0  0  0
   35.5280   30.7330   42.1990 H   0  0  0  0  0  0  0  0  0  0  0  0
   35.5200   29.8440   40.3520 C   0  0  0  0  0  0  0  0  0  0  0  0
   34.9330   28.9370   40.3770 H   0  0  0  0  0  0  0  0  0  0  0  0
   36.0810   30.1600   39.1680 N   0  0  0  0  0  0  0  0  0  0  0  0
  1  8  1  0  0  0  0
  1  4  1  1  0  0  0
  2  3  1  0  0  0  0
  2  1  1  0  0  0  0
  3  7  1  1  0  0  0
  3  1  1  0  0  0  0
  5  2  1  0  0  0  0
  6  2  1  0  0  0  0
  8 11  1  0  0  0  0
  9  8  1  0  0  0  0
 10  8  1  0  0  0  0
 11 12  2  0  0  0  0
 11 16  1  0  0  0  0
 12 13  1  0  0  0  0
 13 18  1  0  0  0  0
 13 14  2  0  0  0  0
 15 14  1  0  0  0  0
 15 19  1  0  0  0  0
 16 15  2  0  0  0  0
 17 12  1  0  0  0  0
 20 22  1  0  0  0  0
 20  3  1  0  0  0  0
 22 25  1  0  0  0  0
 22 21  2  1  0  0  0
 23 24  1  0  0  0  0
 23 22  1  0  0  0  0
 25 26  1  0  0  0  0
 26 27  2  0  0  0  0
 27 28  1  0  0  0  0
 27 29  1  0  0  0  0
 29 30  1  0  0  0  0
 31 32  1  0  0  0  0
 31 29  1  0  0  0  0
 33 26  1  0  0  0  0
 33 31  2  0  0  0  0
M  END
>  <minimizedAffinity>
-4.77934456

$$$$
