
 OpenBabel03252508073D

 43 46  0  0  0  0  0  0  0  0999 V2000
   45.2910   35.8390   42.8190 C   0  0  0  0  0  0  0  0  0  0  0  0
   45.5410   34.4770   42.8710 C   0  0  0  0  0  0  0  0  0  0  0  0
   45.3210   33.7820   44.0350 C   0  0  0  0  0  0  0  0  0  0  0  0
   44.8480   34.5030   45.1150 N   0  0  0  0  0  0  0  0  0  0  0  0
   44.6100   35.8100   45.0590 C   0  0  0  0  0  0  0  0  0  0  0  0
   44.8370   36.4700   43.9010 N   0  0  0  0  0  0  0  0  0  0  0  0
   45.4540   36.4190   41.9220 H   0  0  0  0  0  0  0  0  0  0  0  0
   44.2400   36.3590   45.9150 H   0  0  0  0  0  0  0  0  0  0  0  0
   45.5260   32.3990   44.2490 C   0  0  0  0  0  0  0  0  0  0  0  0
   45.0700   31.3990   43.3860 C   0  0  0  0  0  0  0  0  0  0  0  0
   45.2070   30.0560   43.6240 C   0  0  0  0  0  0  0  0  0  0  0  0
   45.8290   29.6280   44.7740 C   0  0  0  0  0  0  0  0  0  0  0  0
   46.3010   30.6290   45.6660 C   0  0  0  0  0  0  0  0  0  0  0  0
   46.9200   30.2160   46.8160 C   0  0  0  0  0  0  0  0  0  0  0  0
   47.4050   31.1370   47.7250 C   0  0  0  0  0  0  0  0  0  0  0  0
   47.2590   32.5060   47.4570 C   0  0  0  0  0  0  0  0  0  0  0  0
   46.6170   32.8840   46.2640 C   0  0  0  0  0  0  0  0  0  0  0  0
   46.1440   31.9480   45.3870 C   0  0  0  0  0  0  0  0  0  0  0  0
   44.5790   31.7410   42.4780 H   0  0  0  0  0  0  0  0  0  0  0  0
   44.8410   29.3130   42.9330 H   0  0  0  0  0  0  0  0  0  0  0  0
   45.9850   28.6060   45.0550 H   0  0  0  0  0  0  0  0  0  0  0  0
   47.0450   29.1520   47.0450 H   0  0  0  0  0  0  0  0  0  0  0  0
   47.8870   30.7520   48.6240 H   0  0  0  0  0  0  0  0  0  0  0  0
   47.6680   33.1510   48.2190 H   0  0  0  0  0  0  0  0  0  0  0  0
   46.6250   33.9530   46.2320 H   0  0  0  0  0  0  0  0  0  0  0  0
   46.0010   33.8840   41.7310 O   0  0  0  0  0  0  0  0  0  0  0  0
   48.0530   32.3770   41.1110 O   0  0  0  0  0  0  0  0  0  0  0  0
   47.6310   33.7900   41.2850 P   0  0  1  0  0  0  0  0  0  0  0  0
   47.9050   34.5720   39.8080 O   0  0  0  0  0  0  0  0  0  0  0  0
   47.8610   33.9440   38.5720 C   0  0  0  0  0  0  0  0  0  0  0  0
   46.6840   33.3080   38.2680 C   0  0  0  0  0  0  0  0  0  0  0  0
   45.7300   33.1690   38.7900 H   0  0  0  0  0  0  0  0  0  0  0  0
   46.8120   32.7550   37.0390 N   0  0  0  0  0  0  0  0  0  0  0  0
   46.1450   32.1940   36.4630 H   0  0  0  0  0  0  0  0  0  0  0  0
   48.0500   33.0640   36.6260 C   0  0  0  0  0  0  0  0  0  0  0  0
   48.6020   32.8370   35.7010 H   0  0  0  0  0  0  0  0  0  0  0  0
   48.7250   33.7990   37.5530 N   0  0  0  0  0  0  0  0  0  0  0  0
   48.5480   34.5450   42.4690 O   0  0  0  0  0  0  0  0  0  0  0  0
   49.7430   35.2250   42.2890 C   0  0  0  0  0  0  0  0  0  0  0  0
   49.4140   36.3270   41.8210 O   0  0  0  0  0  0  0  0  0  0  0  0
   50.8620   34.4090   42.7040 N   0  0  0  0  0  0  0  0  0  0  0  0
   51.6610   33.9980   42.1660 H   0  0  0  0  0  0  0  0  0  0  0  0
   50.9150   34.1650   43.7370 H   0  0  0  0  0  0  0  0  0  0  0  0
  1  2  2  0  0  0  0
  1  6  1  0  0  0  0
  2  3  1  0  0  0  0
  3  9  1  0  0  0  0
  3  4  2  0  0  0  0
  5  4  1  0  0  0  0
  5  8  1  0  0  0  0
  6  5  2  0  0  0  0
  7  1  1  0  0  0  0
  9 18  1  0  0  0  0
 10 11  1  0  0  0  0
 10  9  2  0  0  0  0
 11 12  2  0  0  0  0
 12 21  1  0  0  0  0
 12 13  1  0  0  0  0
 13 14  1  0  0  0  0
 14 22  1  0  0  0  0
 14 15  2  0  0  0  0
 15 23  1  0  0  0  0
 16 15  1  0  0  0  0
 16 24  1  0  0  0  0
 17 16  2  0  0  0  0
 18 13  2  0  0  0  0
 18 17  1  0  0  0  0
 19 10  1  0  0  0  0
 20 11  1  0  0  0  0
 25 17  1  0  0  0  0
 26  2  1  0  0  0  0
 28 27  2  6  0  0  0
 28 26  1  0  0  0  0
 28 38  1  0  0  0  0
 29 28  1  0  0  0  0
 30 29  1  0  0  0  0
 31 30  2  0  0  0  0
 31 32  1  0  0  0  0
 33 31  1  0  0  0  0
 34 33  1  0  0  0  0
 35 33  1  0  0  0  0
 35 37  2  0  0  0  0
 36 35  1  0  0  0  0
 37 30  1  0  0  0  0
 39 38  1  0  0  0  0
 39 41  1  0  0  0  0
 40 39  2  0  0  0  0
 41 43  1  0  0  0  0
 42 41  1  0  0  0  0
M  END
>  <minimizedAffinity>
-6.04220915

>  <minimizedRMSD>
0.438242376

$$$$
