
 OpenBabel03252508073D

 43 46  0  0  0  0  0  0  0  0999 V2000
   45.1270   35.5980   43.2040 C   0  0  0  0  0  0  0  0  0  0  0  0
   45.5010   34.2640   43.2500 C   0  0  0  0  0  0  0  0  0  0  0  0
   45.4310   33.5720   44.4350 C   0  0  0  0  0  0  0  0  0  0  0  0
   44.9760   34.2670   45.5400 N   0  0  0  0  0  0  0  0  0  0  0  0
   44.6190   35.5470   45.4880 C   0  0  0  0  0  0  0  0  0  0  0  0
   44.7000   36.2040   44.3100 N   0  0  0  0  0  0  0  0  0  0  0  0
   45.1710   36.1750   42.2910 H   0  0  0  0  0  0  0  0  0  0  0  0
   44.2650   36.0750   46.3640 H   0  0  0  0  0  0  0  0  0  0  0  0
   45.7740   32.2170   44.6470 C   0  0  0  0  0  0  0  0  0  0  0  0
   45.4330   31.1790   43.7760 C   0  0  0  0  0  0  0  0  0  0  0  0
   45.7050   29.8560   44.0110 C   0  0  0  0  0  0  0  0  0  0  0  0
   46.3540   29.4890   45.1670 C   0  0  0  0  0  0  0  0  0  0  0  0
   46.7110   30.5290   46.0680 C   0  0  0  0  0  0  0  0  0  0  0  0
   47.3560   30.1780   47.2240 C   0  0  0  0  0  0  0  0  0  0  0  0
   47.7330   31.1390   48.1410 C   0  0  0  0  0  0  0  0  0  0  0  0
   47.4500   32.4880   47.8760 C   0  0  0  0  0  0  0  0  0  0  0  0
   46.7860   32.8020   46.6760 C   0  0  0  0  0  0  0  0  0  0  0  0
   46.4220   31.8260   45.7900 C   0  0  0  0  0  0  0  0  0  0  0  0
   44.9200   31.4730   42.8630 H   0  0  0  0  0  0  0  0  0  0  0  0
   45.4250   29.0820   43.3130 H   0  0  0  0  0  0  0  0  0  0  0  0
   46.6110   28.4870   45.4460 H   0  0  0  0  0  0  0  0  0  0  0  0
   47.5870   29.1310   47.4500 H   0  0  0  0  0  0  0  0  0  0  0  0
   48.2420   30.8020   49.0450 H   0  0  0  0  0  0  0  0  0  0  0  0
   47.7820   33.1670   48.6440 H   0  0  0  0  0  0  0  0  0  0  0  0
   46.6850   33.8660   46.6480 H   0  0  0  0  0  0  0  0  0  0  0  0
   45.9270   33.6950   42.0850 O   0  0  0  0  0  0  0  0  0  0  0  0
   48.1290   32.4040   41.4940 O   0  0  0  0  0  0  0  0  0  0  0  0
   47.5180   33.7570   41.5090 P   0  0  1  0  0  0  0  0  0  0  0  0
   47.5680   34.3380   39.9190 O   0  0  0  0  0  0  0  0  0  0  0  0
   48.2690   33.7310   38.8870 C   0  0  0  0  0  0  0  0  0  0  0  0
   48.3570   34.4500   37.7230 C   0  0  0  0  0  0  0  0  0  0  0  0
   47.9920   35.4320   37.3970 H   0  0  0  0  0  0  0  0  0  0  0  0
   49.0660   33.7170   36.8320 N   0  0  0  0  0  0  0  0  0  0  0  0
   49.3460   33.9150   35.8450 H   0  0  0  0  0  0  0  0  0  0  0  0
   49.3900   32.5810   37.4660 C   0  0  0  0  0  0  0  0  0  0  0  0
   49.9560   31.6910   37.1520 H   0  0  0  0  0  0  0  0  0  0  0  0
   48.9110   32.5590   38.7410 N   0  0  0  0  0  0  0  0  0  0  0  0
   48.3950   34.7970   42.4880 O   0  0  0  0  0  0  0  0  0  0  0  0
   49.6230   35.3740   42.2010 C   0  0  0  0  0  0  0  0  0  0  0  0
   49.3490   36.4110   41.5760 O   0  0  0  0  0  0  0  0  0  0  0  0
   50.7020   34.5660   42.7240 N   0  0  0  0  0  0  0  0  0  0  0  0
   51.4680   34.0340   42.2470 H   0  0  0  0  0  0  0  0  0  0  0  0
   50.7570   34.4740   43.7810 H   0  0  0  0  0  0  0  0  0  0  0  0
  1  2  2  0  0  0  0
  1  6  1  0  0  0  0
  2  3  1  0  0  0  0
  3  9  1  0  0  0  0
  3  4  2  0  0  0  0
  5  4  1  0  0  0  0
  5  8  1  0  0  0  0
  6  5  2  0  0  0  0
  7  1  1  0  0  0  0
  9 18  1  0  0  0  0
 10 11  1  0  0  0  0
 10  9  2  0  0  0  0
 11 12  2  0  0  0  0
 12 21  1  0  0  0  0
 12 13  1  0  0  0  0
 13 14  1  0  0  0  0
 14 22  1  0  0  0  0
 14 15  2  0  0  0  0
 15 23  1  0  0  0  0
 16 15  1  0  0  0  0
 16 24  1  0  0  0  0
 17 16  2  0  0  0  0
 18 13  2  0  0  0  0
 18 17  1  0  0  0  0
 19 10  1  0  0  0  0
 20 11  1  0  0  0  0
 25 17  1  0  0  0  0
 26  2  1  0  0  0  0
 28 27  2  1  0  0  0
 28 26  1  0  0  0  0
 28 38  1  0  0  0  0
 29 28  1  0  0  0  0
 30 29  1  0  0  0  0
 31 30  2  0  0  0  0
 32 31  1  0  0  0  0
 33 35  1  0  0  0  0
 33 31  1  0  0  0  0
 34 33  1  0  0  0  0
 35 37  2  0  0  0  0
 36 35  1  0  0  0  0
 37 30  1  0  0  0  0
 39 38  1  0  0  0  0
 39 41  1  0  0  0  0
 40 39  2  0  0  0  0
 41 43  1  0  0  0  0
 42 41  1  0  0  0  0
M  END
>  <minimizedAffinity>
-6.48898983

>  <minimizedRMSD>
0.579517245

$$$$
