
 OpenBabel03252508073D

 43 46  0  0  0  0  0  0  0  0999 V2000
   45.2290   35.9590   42.9350 C   0  0  0  0  0  0  0  0  0  0  0  0
   45.4800   34.5960   42.9380 C   0  0  0  0  0  0  0  0  0  0  0  0
   45.2750   33.8620   44.0810 C   0  0  0  0  0  0  0  0  0  0  0  0
   44.8150   34.5470   45.1900 N   0  0  0  0  0  0  0  0  0  0  0  0
   44.5760   35.8550   45.1800 C   0  0  0  0  0  0  0  0  0  0  0  0
   44.7880   36.5530   44.0420 N   0  0  0  0  0  0  0  0  0  0  0  0
   45.3810   36.5690   42.0550 H   0  0  0  0  0  0  0  0  0  0  0  0
   44.2160   36.3750   46.0580 H   0  0  0  0  0  0  0  0  0  0  0  0
   45.4830   32.4740   44.2460 C   0  0  0  0  0  0  0  0  0  0  0  0
   45.0160   31.5020   43.3570 C   0  0  0  0  0  0  0  0  0  0  0  0
   45.1570   30.1520   43.5490 C   0  0  0  0  0  0  0  0  0  0  0  0
   45.7940   29.6860   44.6750 C   0  0  0  0  0  0  0  0  0  0  0  0
   46.2780   30.6570   45.5930 C   0  0  0  0  0  0  0  0  0  0  0  0
   46.9130   30.2080   46.7210 C   0  0  0  0  0  0  0  0  0  0  0  0
   47.4090   31.0980   47.6530 C   0  0  0  0  0  0  0  0  0  0  0  0
   47.2600   32.4760   47.4330 C   0  0  0  0  0  0  0  0  0  0  0  0
   46.6010   32.8920   46.2610 C   0  0  0  0  0  0  0  0  0  0  0  0
   46.1170   31.9850   45.3600 C   0  0  0  0  0  0  0  0  0  0  0  0
   44.5130   31.8740   42.4670 H   0  0  0  0  0  0  0  0  0  0  0  0
   44.7820   29.4320   42.8380 H   0  0  0  0  0  0  0  0  0  0  0  0
   45.9540   28.6560   44.9200 H   0  0  0  0  0  0  0  0  0  0  0  0
   47.0410   29.1370   46.9120 H   0  0  0  0  0  0  0  0  0  0  0  0
   47.9040   30.6840   48.5320 H   0  0  0  0  0  0  0  0  0  0  0  0
   47.6780   33.0950   48.2090 H   0  0  0  0  0  0  0  0  0  0  0  0
   46.6080   33.9610   46.2650 H   0  0  0  0  0  0  0  0  0  0  0  0
   45.9270   34.0410   41.7730 O   0  0  0  0  0  0  0  0  0  0  0  0
   47.8930   32.3520   41.3900 O   0  0  0  0  0  0  0  0  0  0  0  0
   47.5560   33.7980   41.3850 P   0  0  1  0  0  0  0  0  0  0  0  0
   47.9070   34.3820   39.8350 O   0  0  0  0  0  0  0  0  0  0  0  0
   48.0960   33.5760   38.7210 C   0  0  0  0  0  0  0  0  0  0  0  0
   47.0380   33.5040   37.8520 C   0  0  0  0  0  0  0  0  0  0  0  0
   46.0350   33.9480   37.8250 H   0  0  0  0  0  0  0  0  0  0  0  0
   47.3880   32.6830   36.8330 N   0  0  0  0  0  0  0  0  0  0  0  0
   46.8630   32.3780   35.9840 H   0  0  0  0  0  0  0  0  0  0  0  0
   48.6380   32.2800   37.1020 C   0  0  0  0  0  0  0  0  0  0  0  0
   49.3330   31.6140   36.5680 H   0  0  0  0  0  0  0  0  0  0  0  0
   49.1040   32.8150   38.2640 N   0  0  0  0  0  0  0  0  0  0  0  0
   48.4950   34.6330   42.4970 O   0  0  0  0  0  0  0  0  0  0  0  0
   49.7010   35.2720   42.2550 C   0  0  0  0  0  0  0  0  0  0  0  0
   49.3880   36.3480   41.7200 O   0  0  0  0  0  0  0  0  0  0  0  0
   50.8090   34.4610   42.7050 N   0  0  0  0  0  0  0  0  0  0  0  0
   51.5910   33.9970   42.1840 H   0  0  0  0  0  0  0  0  0  0  0  0
   50.8740   34.2840   43.7510 H   0  0  0  0  0  0  0  0  0  0  0  0
  1  2  2  0  0  0  0
  1  6  1  0  0  0  0
  2  3  1  0  0  0  0
  3  9  1  0  0  0  0
  3  4  2  0  0  0  0
  5  4  1  0  0  0  0
  5  8  1  0  0  0  0
  6  5  2  0  0  0  0
  7  1  1  0  0  0  0
  9 18  1  0  0  0  0
 10 11  1  0  0  0  0
 10  9  2  0  0  0  0
 11 12  2  0  0  0  0
 12 21  1  0  0  0  0
 12 13  1  0  0  0  0
 13 14  1  0  0  0  0
 14 22  1  0  0  0  0
 14 15  2  0  0  0  0
 15 23  1  0  0  0  0
 16 15  1  0  0  0  0
 16 24  1  0  0  0  0
 17 25  1  0  0  0  0
 17 16  2  0  0  0  0
 18 13  2  0  0  0  0
 18 17  1  0  0  0  0
 19 10  1  0  0  0  0
 20 11  1  0  0  0  0
 26  2  1  0  0  0  0
 28 27  2  1  0  0  0
 28 26  1  0  0  0  0
 28 38  1  0  0  0  0
 29 28  1  0  0  0  0
 30 29  1  0  0  0  0
 31 30  2  0  0  0  0
 32 31  1  0  0  0  0
 33 35  1  0  0  0  0
 33 31  1  0  0  0  0
 34 33  1  0  0  0  0
 35 37  2  0  0  0  0
 36 35  1  0  0  0  0
 37 30  1  0  0  0  0
 39 38  1  0  0  0  0
 39 41  1  0  0  0  0
 40 39  2  0  0  0  0
 41 43  1  0  0  0  0
 42 41  1  0  0  0  0
M  END
>  <minimizedAffinity>
-5.91915083

>  <minimizedRMSD>
0.262109876

$$$$
