
 OpenBabel03252506463D

 41 44  0  0  1  0  0  0  0  0999 V2000
   49.7110   33.6020   41.4070 N   0  0  1  0  0  0  0  0  0  0  0  0
   50.7140   32.9810   42.2340 C   0  0  0  0  0  0  0  0  0  0  0  0
   51.2200   31.6860   41.6620 C   0  0  0  0  0  0  0  0  0  0  0  0
   50.1000   30.6670   41.7340 C   0  0  0  0  0  0  0  0  0  0  0  0
   48.7770   31.3140   41.4220 C   0  0  0  0  0  0  0  0  0  0  0  0
   49.0200   32.5990   40.6720 C   0  0  2  0  0  0  0  0  0  0  0  0
   51.5440   33.6810   42.4050 H   0  0  0  0  0  0  0  0  0  0  0  0
   50.2770   32.7470   43.2470 H   0  0  0  0  0  0  0  0  0  0  0  0
   51.6770   31.7790   40.6810 H   0  0  0  0  0  0  0  0  0  0  0  0
   52.0010   31.3270   42.3610 H   0  0  0  0  0  0  0  0  0  0  0  0
   50.3550   29.8600   41.0120 H   0  0  0  0  0  0  0  0  0  0  0  0
   50.0830   30.2230   42.7510 H   0  0  0  0  0  0  0  0  0  0  0  0
   48.1220   30.6950   40.8020 H   0  0  0  0  0  0  0  0  0  0  0  0
   48.3100   31.5970   42.3940 H   0  0  0  0  0  0  0  0  0  0  0  0
   48.0020   33.0230   40.4460 H   0  0  0  0  0  0  0  0  0  0  0  0
   47.4590   34.7390   41.9520 C   0  0  1  0  0  0  0  0  0  0  0  0
   48.5290   35.7530   41.7740 C   0  0  0  0  0  0  0  0  0  0  0  0
   48.8700   34.3870   42.2500 C   0  0  2  0  0  0  0  0  0  0  0  0
   46.9900   34.3870   40.9960 H   0  0  0  0  0  0  0  0  0  0  0  0
   48.8320   36.0360   40.7290 H   0  0  0  0  0  0  0  0  0  0  0  0
   48.5600   36.6200   42.4620 H   0  0  0  0  0  0  0  0  0  0  0  0
   49.1080   34.3000   43.3400 H   0  0  0  0  0  0  0  0  0  0  0  0
   45.5700   35.9570   43.0800 C   0  0  0  0  0  0  0  0  0  0  0  0
   46.4940   34.9070   43.0440 C   0  0  0  0  0  0  0  0  0  0  0  0
   46.4530   33.9880   44.1090 C   0  0  0  0  0  0  0  0  0  0  0  0
   45.5410   34.1540   45.1010 N   0  0  0  0  0  0  0  0  0  0  0  0
   44.6640   35.1920   45.0890 C   0  0  0  0  0  0  0  0  0  0  0  0
   44.6710   36.0990   44.0790 N   0  0  0  0  0  0  0  0  0  0  0  0
   45.6280   36.6520   42.2390 H   0  0  0  0  0  0  0  0  0  0  0  0
   47.1510   33.1570   44.1300 H   0  0  0  0  0  0  0  0  0  0  0  0
   43.9640   35.2760   45.9070 H   0  0  0  0  0  0  0  0  0  0  0  0
   49.5910   32.2950   39.3720 N   0  0  0  0  0  0  0  0  0  0  0  0
   50.3600   31.6730   38.9660 H   0  0  0  0  0  0  0  0  0  0  0  0
   48.8760   33.0800   38.3890 C   0  0  0  0  0  0  0  0  0  0  0  0
   48.0940   34.2080   38.2650 C   0  0  0  0  0  0  0  0  0  0  0  0
   47.9170   34.7140   39.1820 H   0  0  0  0  0  0  0  0  0  0  0  0
   47.7570   34.3650   36.9760 N   0  0  0  0  0  0  0  0  0  0  0  0
   47.1580   35.1760   36.6880 H   0  0  0  0  0  0  0  0  0  0  0  0
   48.2960   33.3720   36.2490 C   0  0  0  0  0  0  0  0  0  0  0  0
   48.1370   33.3260   35.1830 H   0  0  0  0  0  0  0  0  0  0  0  0
   48.9860   32.5810   37.1230 N   0  0  0  0  0  0  0  0  0  0  0  0
  1  2  1  1  0  0  0
  1 18  1  0  0  0  0
  2  7  1  0  0  0  0
  2  8  1  0  0  0  0
  3  4  1  0  0  0  0
  3  2  1  0  0  0  0
  3 10  1  0  0  0  0
  4 12  1  0  0  0  0
  5  4  1  0  0  0  0
  5 14  1  0  0  0  0
  6 15  1  6  0  0  0
  6  1  1  0  0  0  0
  6  5  1  0  0  0  0
  9  3  1  0  0  0  0
 11  4  1  0  0  0  0
 13  5  1  0  0  0  0
 16 19  1  6  0  0  0
 16 18  1  0  0  0  0
 16 24  1  0  0  0  0
 17 16  1  0  0  0  0
 17 18  1  0  0  0  0
 17 21  1  0  0  0  0
 18 22  1  1  0  0  0
 20 17  1  0  0  0  0
 23 28  1  0  0  0  0
 24 23  2  0  0  0  0
 24 25  1  0  0  0  0
 25 30  1  0  0  0  0
 25 26  2  0  0  0  0
 27 26  1  0  0  0  0
 27 31  1  0  0  0  0
 28 27  2  0  0  0  0
 29 23  1  0  0  0  0
 32  6  1  0  0  0  0
 33 32  1  0  0  0  0
 34 32  1  0  0  0  0
 35 34  2  0  0  0  0
 35 36  1  0  0  0  0
 37 35  1  0  0  0  0
 38 37  1  0  0  0  0
 39 37  1  0  0  0  0
 39 41  2  0  0  0  0
 40 39  1  0  0  0  0
 41 34  1  0  0  0  0
M  END
>  <minimizedAffinity>
-5.57367373

>  <minimizedRMSD>
2.73320174

$$$$
