
 OpenBabel03252506123D

 35 37  0  0  0  0  0  0  0  0999 V2000
   45.1900   33.2830   41.1850 F   0  0  0  0  0  0  0  0  0  0  0  0
   46.3450   33.9300   41.0180 C   0  0  0  0  0  0  0  0  0  0  0  0
   46.8180   34.7410   42.0280 C   0  0  0  0  0  0  0  0  0  0  0  0
   48.0180   35.4510   41.9370 C   0  0  0  0  0  0  0  0  0  0  0  0
   48.7800   35.3430   40.7740 C   0  0  0  0  0  0  0  0  0  0  0  0
   48.2720   34.5200   39.7840 C   0  0  0  0  0  0  0  0  0  0  0  0
   47.1070   33.8250   39.8600 C   0  0  0  0  0  0  0  0  0  0  0  0
   48.3220   36.0660   42.7720 H   0  0  0  0  0  0  0  0  0  0  0  0
   49.6930   35.9070   40.7480 H   0  0  0  0  0  0  0  0  0  0  0  0
   48.9620   34.5220   38.9460 H   0  0  0  0  0  0  0  0  0  0  0  0
   45.4550   34.0310   45.3610 C   0  0  0  0  0  0  0  0  0  0  0  0
   44.6290   35.1600   45.5830 C   0  0  0  0  0  0  0  0  0  0  0  0
   44.5480   36.1580   44.5810 C   0  0  0  0  0  0  0  0  0  0  0  0
   45.2870   35.9580   43.4490 N   0  0  0  0  0  0  0  0  0  0  0  0
   46.0540   34.8820   43.2730 C   0  0  0  0  0  0  0  0  0  0  0  0
   46.1350   33.9320   44.2200 N   0  0  0  0  0  0  0  0  0  0  0  0
   44.0640   35.2840   46.4820 H   0  0  0  0  0  0  0  0  0  0  0  0
   43.9260   37.0330   44.7200 H   0  0  0  0  0  0  0  0  0  0  0  0
   45.5250   33.0430   46.3710 N   0  0  0  0  0  0  0  0  0  0  0  0
   45.4660   31.9880   46.2410 H   0  0  0  0  0  0  0  0  0  0  0  0
   45.6520   33.3560   47.3800 H   0  0  0  0  0  0  0  0  0  0  0  0
   46.6980   33.0400   38.8190 O   0  0  0  0  0  0  0  0  0  0  0  0
   47.8630   34.4800   36.9260 O   0  0  0  0  0  0  0  0  0  0  0  0
   46.8510   33.3940   37.1840 P   0  0  2  0  0  0  0  0  0  0  0  0
   45.3070   33.8770   36.6080 O   0  0  0  0  0  0  0  0  0  0  0  0
   44.7670   33.0610   36.3930 H   0  0  0  0  0  0  0  0  0  0  0  0
   47.2480   32.0530   36.2360 O   0  0  0  0  0  0  0  0  0  0  0  0
   48.5400   31.7110   35.8580 C   0  0  0  0  0  0  0  0  0  0  0  0
   49.5400   31.6760   36.8100 C   0  0  0  0  0  0  0  0  0  0  0  0
   49.5830   31.8620   37.8790 H   0  0  0  0  0  0  0  0  0  0  0  0
   50.6850   31.3170   36.1710 N   0  0  0  0  0  0  0  0  0  0  0  0
   51.6880   31.1640   36.4830 H   0  0  0  0  0  0  0  0  0  0  0  0
   50.4270   31.1330   34.8670 C   0  0  0  0  0  0  0  0  0  0  0  0
   50.9400   30.8580   33.9560 H   0  0  0  0  0  0  0  0  0  0  0  0
   49.1010   31.3750   34.6600 N   0  0  0  0  0  0  0  0  0  0  0  0
  2  1  1  0  0  0  0
  2  3  1  0  0  0  0
  3 15  1  0  0  0  0
  4  3  2  0  0  0  0
  4  8  1  0  0  0  0
  5  4  1  0  0  0  0
  6  7  1  0  0  0  0
  6  5  2  0  0  0  0
  7  2  2  0  0  0  0
  9  5  1  0  0  0  0
 10  6  1  0  0  0  0
 11 12  1  0  0  0  0
 11 19  1  0  0  0  0
 12 17  1  0  0  0  0
 13 18  1  0  0  0  0
 13 12  2  0  0  0  0
 14 13  1  0  0  0  0
 15 14  2  0  0  0  0
 15 16  1  0  0  0  0
 16 11  2  0  0  0  0
 19 21  1  0  0  0  0
 20 19  1  0  0  0  0
 22  7  1  0  0  0  0
 24 23  2  6  0  0  0
 24 22  1  0  0  0  0
 25 24  1  0  0  0  0
 26 25  1  0  0  0  0
 27 24  1  0  0  0  0
 28 27  1  0  0  0  0
 28 29  2  0  0  0  0
 29 30  1  0  0  0  0
 31 32  1  0  0  0  0
 31 29  1  0  0  0  0
 33 31  1  0  0  0  0
 34 33  1  0  0  0  0
 35 33  2  0  0  0  0
 35 28  1  0  0  0  0
M  END
>  <minimizedAffinity>
-6.37878895

>  <minimizedRMSD>
1.59870172

$$$$
