
 OpenBabel03252506143D

 35 37  0  0  0  0  0  0  0  0999 V2000
   40.2710   30.3300   40.6560 F   0  0  0  0  0  0  0  0  0  0  0  0
   39.2430   31.1350   40.3760 C   0  0  0  0  0  0  0  0  0  0  0  0
   37.9720   30.7690   40.7650 C   0  0  0  0  0  0  0  0  0  0  0  0
   36.8420   31.5540   40.5140 C   0  0  0  0  0  0  0  0  0  0  0  0
   36.9980   32.7640   39.8390 C   0  0  0  0  0  0  0  0  0  0  0  0
   38.2890   33.0950   39.4660 C   0  0  0  0  0  0  0  0  0  0  0  0
   39.3940   32.3420   39.7030 C   0  0  0  0  0  0  0  0  0  0  0  0
   35.8790   31.1990   40.8510 H   0  0  0  0  0  0  0  0  0  0  0  0
   36.1030   33.3320   39.6680 H   0  0  0  0  0  0  0  0  0  0  0  0
   38.2650   34.0560   38.9600 H   0  0  0  0  0  0  0  0  0  0  0  0
   37.2500   27.2320   41.4220 C   0  0  0  0  0  0  0  0  0  0  0  0
   37.3680   27.1690   42.8330 C   0  0  0  0  0  0  0  0  0  0  0  0
   37.6960   28.3470   43.5470 C   0  0  0  0  0  0  0  0  0  0  0  0
   37.8800   29.4840   42.8110 N   0  0  0  0  0  0  0  0  0  0  0  0
   37.7590   29.5080   41.4830 C   0  0  0  0  0  0  0  0  0  0  0  0
   37.4480   28.3930   40.8000 N   0  0  0  0  0  0  0  0  0  0  0  0
   37.2180   26.2610   43.3760 H   0  0  0  0  0  0  0  0  0  0  0  0
   37.7940   28.3320   44.6240 H   0  0  0  0  0  0  0  0  0  0  0  0
   36.9210   26.0470   40.7230 N   0  0  0  0  0  0  0  0  0  0  0  0
   36.1990   25.9380   39.9490 H   0  0  0  0  0  0  0  0  0  0  0  0
   37.4350   25.1500   40.9740 H   0  0  0  0  0  0  0  0  0  0  0  0
   40.6250   32.7660   39.2880 O   0  0  0  0  0  0  0  0  0  0  0  0
   42.1790   33.6640   37.3410 O   0  0  0  0  0  0  0  0  0  0  0  0
   41.3090   32.5130   37.7740 P   0  0  2  0  0  0  0  0  0  0  0  0
   40.0280   32.2870   36.6540 O   0  0  0  0  0  0  0  0  0  0  0  0
   39.7250   31.3320   36.6900 H   0  0  0  0  0  0  0  0  0  0  0  0
   42.2110   31.0880   37.6700 O   0  0  0  0  0  0  0  0  0  0  0  0
   43.2020   30.8510   36.7270 C   0  0  0  0  0  0  0  0  0  0  0  0
   42.9630   29.9590   35.7000 C   0  0  0  0  0  0  0  0  0  0  0  0
   42.1230   29.3350   35.4110 H   0  0  0  0  0  0  0  0  0  0  0  0
   44.0880   29.9230   34.9360 N   0  0  0  0  0  0  0  0  0  0  0  0
   44.3670   29.3930   34.0590 H   0  0  0  0  0  0  0  0  0  0  0  0
   45.0040   30.7560   35.4540 C   0  0  0  0  0  0  0  0  0  0  0  0
   46.0110   31.0950   35.2600 H   0  0  0  0  0  0  0  0  0  0  0  0
   44.4670   31.3380   36.5630 N   0  0  0  0  0  0  0  0  0  0  0  0
  2  1  1  0  0  0  0
  2  3  1  0  0  0  0
  3 15  1  0  0  0  0
  4  3  2  0  0  0  0
  4  8  1  0  0  0  0
  5  4  1  0  0  0  0
  6  7  1  0  0  0  0
  6  5  2  0  0  0  0
  7  2  2  0  0  0  0
  9  5  1  0  0  0  0
 10  6  1  0  0  0  0
 11 12  1  0  0  0  0
 12 17  1  0  0  0  0
 12 13  2  0  0  0  0
 13 18  1  0  0  0  0
 14 13  1  0  0  0  0
 15 14  2  0  0  0  0
 16 11  2  0  0  0  0
 16 15  1  0  0  0  0
 19 21  1  0  0  0  0
 19 11  1  0  0  0  0
 20 19  1  0  0  0  0
 22  7  1  0  0  0  0
 24 23  2  6  0  0  0
 24 22  1  0  0  0  0
 25 26  1  0  0  0  0
 25 24  1  0  0  0  0
 27 24  1  0  0  0  0
 28 27  1  0  0  0  0
 29 28  2  0  0  0  0
 30 29  1  0  0  0  0
 31 33  1  0  0  0  0
 31 29  1  0  0  0  0
 32 31  1  0  0  0  0
 33 35  2  0  0  0  0
 34 33  1  0  0  0  0
 35 28  1  0  0  0  0
M  END
>  <minimizedAffinity>
-6.04518986

$$$$

 OpenBabel03252506143D

 35 37  0  0  0  0  0  0  0  0999 V2000
   37.8590   27.6800   39.5860 F   0  0  0  0  0  0  0  0  0  0  0  0
   37.5940   27.6920   40.8950 C   0  0  0  0  0  0  0  0  0  0  0  0
   37.1790   26.5310   41.5120 C   0  0  0  0  0  0  0  0  0  0  0  0
   36.8840   26.4560   42.8760 C   0  0  0  0  0  0  0  0  0  0  0  0
   37.0110   27.6040   43.6580 C   0  0  0  0  0  0  0  0  0  0  0  0
   37.4300   28.7480   43.0020 C   0  0  0  0  0  0  0  0  0  0  0  0
   37.7190   28.8350   41.6770 C   0  0  0  0  0  0  0  0  0  0  0  0
   36.5650   25.5090   43.2860 H   0  0  0  0  0  0  0  0  0  0  0  0
   36.7730   27.4990   44.7000 H   0  0  0  0  0  0  0  0  0  0  0  0
   37.4920   29.5560   43.7250 H   0  0  0  0  0  0  0  0  0  0  0  0
   37.5770   23.0490   40.4260 C   0  0  0  0  0  0  0  0  0  0  0  0
   36.7590   23.0090   39.2700 C   0  0  0  0  0  0  0  0  0  0  0  0
   36.0760   24.1850   38.8740 C   0  0  0  0  0  0  0  0  0  0  0  0
   36.2570   25.2950   39.6490 N   0  0  0  0  0  0  0  0  0  0  0  0
   37.0360   25.2970   40.7310 C   0  0  0  0  0  0  0  0  0  0  0  0
   37.6870   24.1840   41.1130 N   0  0  0  0  0  0  0  0  0  0  0  0
   36.6400   22.1220   38.6870 H   0  0  0  0  0  0  0  0  0  0  0  0
   35.4440   24.1880   37.9960 H   0  0  0  0  0  0  0  0  0  0  0  0
   38.2530   21.8660   40.8090 N   0  0  0  0  0  0  0  0  0  0  0  0
   39.2720   21.7760   41.1030 H   0  0  0  0  0  0  0  0  0  0  0  0
   37.7120   20.9500   40.8150 H   0  0  0  0  0  0  0  0  0  0  0  0
   38.1250   30.0200   41.1310 O   0  0  0  0  0  0  0  0  0  0  0  0
   37.7260   32.5890   40.6290 O   0  0  0  0  0  0  0  0  0  0  0  0
   37.1320   31.2110   40.4860 P   0  0  2  0  0  0  0  0  0  0  0  0
   35.6230   31.1310   41.2990 O   0  0  0  0  0  0  0  0  0  0  0  0
   35.0600   30.4170   40.8770 H   0  0  0  0  0  0  0  0  0  0  0  0
   36.7440   30.9600   38.8610 O   0  0  0  0  0  0  0  0  0  0  0  0
   35.9620   29.9130   38.3900 C   0  0  0  0  0  0  0  0  0  0  0  0
   36.1640   29.4370   37.1100 C   0  0  0  0  0  0  0  0  0  0  0  0
   36.8380   29.6920   36.2980 H   0  0  0  0  0  0  0  0  0  0  0  0
   35.2740   28.4260   36.9170 N   0  0  0  0  0  0  0  0  0  0  0  0
   35.0600   27.7770   36.1050 H   0  0  0  0  0  0  0  0  0  0  0  0
   34.5380   28.2660   38.0280 C   0  0  0  0  0  0  0  0  0  0  0  0
   33.7360   27.6450   38.4010 H   0  0  0  0  0  0  0  0  0  0  0  0
   34.9540   29.1810   38.9480 N   0  0  0  0  0  0  0  0  0  0  0  0
  1  2  1  0  0  0  0
  2  3  2  0  0  0  0
  2  7  1  0  0  0  0
  3  4  1  0  0  0  0
  4  8  1  0  0  0  0
  4  5  2  0  0  0  0
  5  9  1  0  0  0  0
  6  5  1  0  0  0  0
  6 10  1  0  0  0  0
  7  6  2  0  0  0  0
 11 19  1  0  0  0  0
 11 16  1  0  0  0  0
 12 11  2  0  0  0  0
 13 12  1  0  0  0  0
 13 14  2  0  0  0  0
 14 15  1  0  0  0  0
 15 16  2  0  0  0  0
 15  3  1  0  0  0  0
 17 12  1  0  0  0  0
 18 13  1  0  0  0  0
 19 21  1  0  0  0  0
 19 20  1  0  0  0  0
 22  7  1  0  0  0  0
 24 23  2  1  0  0  0
 24 22  1  0  0  0  0
 24 25  1  0  0  0  0
 26 25  1  0  0  0  0
 27 24  1  0  0  0  0
 28 27  1  0  0  0  0
 28 35  1  0  0  0  0
 29 28  2  0  0  0  0
 30 29  1  0  0  0  0
 31 29  1  0  0  0  0
 31 33  1  0  0  0  0
 32 31  1  0  0  0  0
 33 34  1  0  0  0  0
 33 35  2  0  0  0  0
M  END
>  <minimizedAffinity>
-5.89454079

$$$$

 OpenBabel03252506143D

 35 37  0  0  0  0  0  0  0  0999 V2000
   39.3610   28.3970   39.6010 F   0  0  0  0  0  0  0  0  0  0  0  0
   38.0980   28.6990   39.9140 C   0  0  0  0  0  0  0  0  0  0  0  0
   37.5140   28.1070   41.0130 C   0  0  0  0  0  0  0  0  0  0  0  0
   36.2000   28.3690   41.4120 C   0  0  0  0  0  0  0  0  0  0  0  0
   35.4360   29.2700   40.6700 C   0  0  0  0  0  0  0  0  0  0  0  0
   36.0590   29.8430   39.5750 C   0  0  0  0  0  0  0  0  0  0  0  0
   37.3340   29.5970   39.1760 C   0  0  0  0  0  0  0  0  0  0  0  0
   35.8130   27.8650   42.2860 H   0  0  0  0  0  0  0  0  0  0  0  0
   34.4330   29.4390   41.0130 H   0  0  0  0  0  0  0  0  0  0  0  0
   35.3590   30.5220   39.0970 H   0  0  0  0  0  0  0  0  0  0  0  0
   38.9040   24.9560   42.2780 C   0  0  0  0  0  0  0  0  0  0  0  0
   39.7100   25.4040   43.3530 C   0  0  0  0  0  0  0  0  0  0  0  0
   39.7690   26.7910   43.6330 C   0  0  0  0  0  0  0  0  0  0  0  0
   39.0290   27.6150   42.8320 N   0  0  0  0  0  0  0  0  0  0  0  0
   38.2790   27.1580   41.8280 C   0  0  0  0  0  0  0  0  0  0  0  0
   38.2200   25.8430   41.5580 N   0  0  0  0  0  0  0  0  0  0  0  0
   40.2760   24.7310   43.9600 H   0  0  0  0  0  0  0  0  0  0  0  0
   40.3750   27.1660   44.4470 H   0  0  0  0  0  0  0  0  0  0  0  0
   38.8550   23.5670   42.0110 N   0  0  0  0  0  0  0  0  0  0  0  0
   37.9890   22.9810   41.8170 H   0  0  0  0  0  0  0  0  0  0  0  0
   39.7680   23.0210   41.9930 H   0  0  0  0  0  0  0  0  0  0  0  0
   37.8500   30.2190   38.0750 O   0  0  0  0  0  0  0  0  0  0  0  0
   37.9070   32.7360   38.8980 O   0  0  0  0  0  0  0  0  0  0  0  0
   38.6130   31.7160   38.0420 P   0  0  2  0  0  0  0  0  0  0  0  0
   38.6560   32.2440   36.4090 O   0  0  0  0  0  0  0  0  0  0  0  0
   39.4390   31.8210   35.9480 H   0  0  0  0  0  0  0  0  0  0  0  0
   40.2360   31.6570   38.5040 O   0  0  0  0  0  0  0  0  0  0  0  0
   41.2230   32.5110   38.0280 C   0  0  0  0  0  0  0  0  0  0  0  0
   42.1690   32.0300   37.1450 C   0  0  0  0  0  0  0  0  0  0  0  0
   42.3620   31.0670   36.6830 H   0  0  0  0  0  0  0  0  0  0  0  0
   42.9980   33.0670   36.8480 N   0  0  0  0  0  0  0  0  0  0  0  0
   43.8530   33.1730   36.2280 H   0  0  0  0  0  0  0  0  0  0  0  0
   42.5960   34.1610   37.5130 C   0  0  0  0  0  0  0  0  0  0  0  0
   42.8750   35.1980   37.6370 H   0  0  0  0  0  0  0  0  0  0  0  0
   41.4970   33.8300   38.2480 N   0  0  0  0  0  0  0  0  0  0  0  0
  1  2  1  0  0  0  0
  2  3  1  0  0  0  0
  3  4  2  0  0  0  0
  3 15  1  0  0  0  0
  4  8  1  0  0  0  0
  5  9  1  0  0  0  0
  5  4  1  0  0  0  0
  6  5  2  0  0  0  0
  7  6  1  0  0  0  0
  7  2  2  0  0  0  0
 10  6  1  0  0  0  0
 11 12  1  0  0  0  0
 12 13  2  0  0  0  0
 12 17  1  0  0  0  0
 13 18  1  0  0  0  0
 14 13  1  0  0  0  0
 15 14  2  0  0  0  0
 16 15  1  0  0  0  0
 16 11  2  0  0  0  0
 19 11  1  0  0  0  0
 20 19  1  0  0  0  0
 21 19  1  0  0  0  0
 22  7  1  0  0  0  0
 24 22  1  0  0  0  0
 24 27  1  0  0  0  0
 24 23  2  1  0  0  0
 25 24  1  0  0  0  0
 26 25  1  0  0  0  0
 28 35  1  0  0  0  0
 28 27  1  0  0  0  0
 29 28  2  0  0  0  0
 30 29  1  0  0  0  0
 31 29  1  0  0  0  0
 31 33  1  0  0  0  0
 32 31  1  0  0  0  0
 33 34  1  0  0  0  0
 33 35  2  0  0  0  0
M  END
>  <minimizedAffinity>
-5.88441801

$$$$

 OpenBabel03252506143D

 35 37  0  0  0  0  0  0  0  0999 V2000
   36.7670   31.6150   38.3930 F   0  0  0  0  0  0  0  0  0  0  0  0
   36.5980   30.6650   39.3170 C   0  0  0  0  0  0  0  0  0  0  0  0
   35.9900   29.4790   38.9640 C   0  0  0  0  0  0  0  0  0  0  0  0
   35.7770   28.4340   39.8660 C   0  0  0  0  0  0  0  0  0  0  0  0
   36.1960   28.5870   41.1880 C   0  0  0  0  0  0  0  0  0  0  0  0
   36.8020   29.7910   41.5020 C   0  0  0  0  0  0  0  0  0  0  0  0
   37.0140   30.8150   40.6350 C   0  0  0  0  0  0  0  0  0  0  0  0
   35.2930   27.5340   39.5130 H   0  0  0  0  0  0  0  0  0  0  0  0
   36.0110   27.7580   41.8450 H   0  0  0  0  0  0  0  0  0  0  0  0
   37.0820   29.7720   42.5510 H   0  0  0  0  0  0  0  0  0  0  0  0
   36.0580   29.0160   35.3240 C   0  0  0  0  0  0  0  0  0  0  0  0
   34.6810   28.8770   35.0230 C   0  0  0  0  0  0  0  0  0  0  0  0
   33.7390   28.9440   36.0780 C   0  0  0  0  0  0  0  0  0  0  0  0
   34.2340   29.1420   37.3360 N   0  0  0  0  0  0  0  0  0  0  0  0
   35.5380   29.2700   37.5840 C   0  0  0  0  0  0  0  0  0  0  0  0
   36.4370   29.2060   36.5870 N   0  0  0  0  0  0  0  0  0  0  0  0
   34.3290   28.7240   34.0260 H   0  0  0  0  0  0  0  0  0  0  0  0
   32.6800   28.8430   35.8820 H   0  0  0  0  0  0  0  0  0  0  0  0
   36.9880   28.9470   34.2590 N   0  0  0  0  0  0  0  0  0  0  0  0
   37.8100   29.5980   34.0820 H   0  0  0  0  0  0  0  0  0  0  0  0
   36.8800   28.1690   33.5410 H   0  0  0  0  0  0  0  0  0  0  0  0
   37.6230   31.9640   41.0540 O   0  0  0  0  0  0  0  0  0  0  0  0
   40.1650   31.6480   41.7290 O   0  0  0  0  0  0  0  0  0  0  0  0
   39.2300   32.3880   40.8060 P   0  0  2  0  0  0  0  0  0  0  0  0
   39.3680   34.0800   41.0570 O   0  0  0  0  0  0  0  0  0  0  0  0
   39.1010   34.5590   40.2190 H   0  0  0  0  0  0  0  0  0  0  0  0
   39.7520   32.1580   39.2160 O   0  0  0  0  0  0  0  0  0  0  0  0
   40.7970   32.8540   38.6210 C   0  0  0  0  0  0  0  0  0  0  0  0
   41.1390   32.5780   37.3120 C   0  0  0  0  0  0  0  0  0  0  0  0
   40.7700   31.8930   36.5550 H   0  0  0  0  0  0  0  0  0  0  0  0
   42.1780   33.3950   36.9920 N   0  0  0  0  0  0  0  0  0  0  0  0
   42.7620   33.5380   36.1180 H   0  0  0  0  0  0  0  0  0  0  0  0
   42.4850   34.1590   38.0530 C   0  0  0  0  0  0  0  0  0  0  0  0
   43.1830   34.9340   38.3350 H   0  0  0  0  0  0  0  0  0  0  0  0
   41.6360   33.8340   39.0690 N   0  0  0  0  0  0  0  0  0  0  0  0
  1  2  1  0  0  0  0
  2  7  1  0  0  0  0
  3  2  2  0  0  0  0
  3  4  1  0  0  0  0
  4  5  2  0  0  0  0
  5  6  1  0  0  0  0
  5  9  1  0  0  0  0
  6 10  1  0  0  0  0
  7 22  1  0  0  0  0
  7  6  2  0  0  0  0
  8  4  1  0  0  0  0
 11 16  1  0  0  0  0
 12 11  2  0  0  0  0
 12 13  1  0  0  0  0
 13 14  2  0  0  0  0
 14 15  1  0  0  0  0
 15  3  1  0  0  0  0
 16 15  2  0  0  0  0
 17 12  1  0  0  0  0
 18 13  1  0  0  0  0
 19 11  1  0  0  0  0
 20 19  1  0  0  0  0
 21 19  1  0  0  0  0
 24 22  1  0  0  0  0
 24 25  1  0  0  0  0
 24 23  2  1  0  0  0
 26 25  1  0  0  0  0
 27 24  1  0  0  0  0
 28 35  1  0  0  0  0
 28 27  1  0  0  0  0
 29 28  2  0  0  0  0
 30 29  1  0  0  0  0
 31 29  1  0  0  0  0
 31 33  1  0  0  0  0
 32 31  1  0  0  0  0
 33 34  1  0  0  0  0
 33 35  2  0  0  0  0
M  END
>  <minimizedAffinity>
-5.86428165

$$$$

 OpenBabel03252506143D

 35 37  0  0  0  0  0  0  0  0999 V2000
   37.0850   27.1070   40.4840 F   0  0  0  0  0  0  0  0  0  0  0  0
   36.7370   25.8990   40.0330 C   0  0  0  0  0  0  0  0  0  0  0  0
   36.1940   25.7790   38.7720 C   0  0  0  0  0  0  0  0  0  0  0  0
   35.8050   24.5540   38.2220 C   0  0  0  0  0  0  0  0  0  0  0  0
   35.9700   23.3930   38.9780 C   0  0  0  0  0  0  0  0  0  0  0  0
   36.5180   23.5560   40.2380 C   0  0  0  0  0  0  0  0  0  0  0  0
   36.9000   24.7400   40.7840 C   0  0  0  0  0  0  0  0  0  0  0  0
   35.3870   24.5420   37.2260 H   0  0  0  0  0  0  0  0  0  0  0  0
   35.6570   22.4760   38.5150 H   0  0  0  0  0  0  0  0  0  0  0  0
   36.5960   22.5800   40.7080 H   0  0  0  0  0  0  0  0  0  0  0  0
   36.7120   28.2960   36.1530 C   0  0  0  0  0  0  0  0  0  0  0  0
   35.6430   29.1930   36.3950 C   0  0  0  0  0  0  0  0  0  0  0  0
   34.7500   28.9220   37.4610 C   0  0  0  0  0  0  0  0  0  0  0  0
   34.9880   27.7940   38.1940 N   0  0  0  0  0  0  0  0  0  0  0  0
   36.0060   26.9710   37.9380 C   0  0  0  0  0  0  0  0  0  0  0  0
   36.8560   27.2230   36.9280 N   0  0  0  0  0  0  0  0  0  0  0  0
   35.4870   30.0670   35.8010 H   0  0  0  0  0  0  0  0  0  0  0  0
   33.9230   29.5870   37.6730 H   0  0  0  0  0  0  0  0  0  0  0  0
   37.5960   28.5800   35.0840 N   0  0  0  0  0  0  0  0  0  0  0  0
   38.6590   28.5390   35.1030 H   0  0  0  0  0  0  0  0  0  0  0  0
   37.1840   28.8680   34.1470 H   0  0  0  0  0  0  0  0  0  0  0  0
   37.4310   24.7850   42.0410 O   0  0  0  0  0  0  0  0  0  0  0  0
   39.9050   25.2410   41.2130 O   0  0  0  0  0  0  0  0  0  0  0  0
   39.0500   25.0090   42.4320 P   0  0  2  0  0  0  0  0  0  0  0  0
   39.5830   23.6090   43.2700 O   0  0  0  0  0  0  0  0  0  0  0  0
   39.3270   23.6880   44.2360 H   0  0  0  0  0  0  0  0  0  0  0  0
   39.3130   26.2740   43.5210 O   0  0  0  0  0  0  0  0  0  0  0  0
   38.8760   27.5790   43.3340 C   0  0  0  0  0  0  0  0  0  0  0  0
   37.5830   27.9180   43.6790 C   0  0  0  0  0  0  0  0  0  0  0  0
   36.7390   27.3800   44.0990 H   0  0  0  0  0  0  0  0  0  0  0  0
   37.4300   29.2400   43.3940 N   0  0  0  0  0  0  0  0  0  0  0  0
   36.6250   29.9260   43.4870 H   0  0  0  0  0  0  0  0  0  0  0  0
   38.5770   29.7200   42.8880 C   0  0  0  0  0  0  0  0  0  0  0  0
   38.9870   30.6480   42.5150 H   0  0  0  0  0  0  0  0  0  0  0  0
   39.4810   28.7020   42.8460 N   0  0  0  0  0  0  0  0  0  0  0  0
  2  1  1  0  0  0  0
  2  7  1  0  0  0  0
  3  2  2  0  0  0  0
  4  3  1  0  0  0  0
  4  5  2  0  0  0  0
  5  6  1  0  0  0  0
  6 10  1  0  0  0  0
  6  7  2  0  0  0  0
  7 22  1  0  0  0  0
  8  4  1  0  0  0  0
  9  5  1  0  0  0  0
 11 12  2  0  0  0  0
 11 16  1  0  0  0  0
 12 13  1  0  0  0  0
 13 18  1  0  0  0  0
 13 14  2  0  0  0  0
 15 14  1  0  0  0  0
 15  3  1  0  0  0  0
 16 15  2  0  0  0  0
 17 12  1  0  0  0  0
 19 20  1  0  0  0  0
 19 11  1  0  0  0  0
 21 19  1  0  0  0  0
 22 24  1  0  0  0  0
 24 23  2  6  0  0  0
 24 25  1  0  0  0  0
 24 27  1  0  0  0  0
 25 26  1  0  0  0  0
 28 27  1  0  0  0  0
 28 29  2  0  0  0  0
 29 30  1  0  0  0  0
 31 32  1  0  0  0  0
 31 29  1  0  0  0  0
 33 31  1  0  0  0  0
 34 33  1  0  0  0  0
 35 33  2  0  0  0  0
 35 28  1  0  0  0  0
M  END
>  <minimizedAffinity>
-5.72425079

$$$$

 OpenBabel03252506143D

 35 37  0  0  0  0  0  0  0  0999 V2000
   40.3880   30.2490   40.2320 F   0  0  0  0  0  0  0  0  0  0  0  0
   39.2490   30.9430   40.1670 C   0  0  0  0  0  0  0  0  0  0  0  0
   39.2920   32.2880   39.8660 C   0  0  0  0  0  0  0  0  0  0  0  0
   38.1490   33.0860   39.7760 C   0  0  0  0  0  0  0  0  0  0  0  0
   36.9000   32.5060   40.0010 C   0  0  0  0  0  0  0  0  0  0  0  0
   36.9000   31.1540   40.3000 C   0  0  0  0  0  0  0  0  0  0  0  0
   38.0030   30.3670   40.3910 C   0  0  0  0  0  0  0  0  0  0  0  0
   38.2650   34.1330   39.5360 H   0  0  0  0  0  0  0  0  0  0  0  0
   36.0510   33.1570   39.9220 H   0  0  0  0  0  0  0  0  0  0  0  0
   35.8720   30.8340   40.4420 H   0  0  0  0  0  0  0  0  0  0  0  0
   42.1130   33.8340   38.1000 C   0  0  0  0  0  0  0  0  0  0  0  0
   42.9820   34.1600   39.1700 C   0  0  0  0  0  0  0  0  0  0  0  0
   42.5890   33.8440   40.4930 C   0  0  0  0  0  0  0  0  0  0  0  0
   41.3750   33.2350   40.6480 N   0  0  0  0  0  0  0  0  0  0  0  0
   40.5810   32.9420   39.6170 C   0  0  0  0  0  0  0  0  0  0  0  0
   40.9500   33.2400   38.3590 N   0  0  0  0  0  0  0  0  0  0  0  0
   43.9260   34.6360   39.0110 H   0  0  0  0  0  0  0  0  0  0  0  0
   43.2300   34.0790   41.3320 H   0  0  0  0  0  0  0  0  0  0  0  0
   42.5200   34.1560   36.7830 N   0  0  0  0  0  0  0  0  0  0  0  0
   42.4660   33.5300   35.9240 H   0  0  0  0  0  0  0  0  0  0  0  0
   42.9280   35.1210   36.5990 H   0  0  0  0  0  0  0  0  0  0  0  0
   37.8860   29.0400   40.6940 O   0  0  0  0  0  0  0  0  0  0  0  0
   37.3050   27.0220   42.3070 O   0  0  0  0  0  0  0  0  0  0  0  0
   38.0090   28.3520   42.2220 P   0  0  2  0  0  0  0  0  0  0  0  0
   37.3260   29.4550   43.3470 O   0  0  0  0  0  0  0  0  0  0  0  0
   38.0120   30.1430   43.5890 H   0  0  0  0  0  0  0  0  0  0  0  0
   39.6010   28.1530   42.7480 O   0  0  0  0  0  0  0  0  0  0  0  0
   40.3400   26.9860   42.5980 C   0  0  0  0  0  0  0  0  0  0  0  0
   40.4930   26.1360   43.6760 C   0  0  0  0  0  0  0  0  0  0  0  0
   40.1540   26.1430   44.7080 H   0  0  0  0  0  0  0  0  0  0  0  0
   41.2480   25.0880   43.2520 N   0  0  0  0  0  0  0  0  0  0  0  0
   41.6180   24.2080   43.7180 H   0  0  0  0  0  0  0  0  0  0  0  0
   41.5630   25.2630   41.9590 C   0  0  0  0  0  0  0  0  0  0  0  0
   42.1110   24.7660   41.1700 H   0  0  0  0  0  0  0  0  0  0  0  0
   41.0070   26.4350   41.5420 N   0  0  0  0  0  0  0  0  0  0  0  0
  2  1  1  0  0  0  0
  2  7  1  0  0  0  0
  3  2  2  0  0  0  0
  4  3  1  0  0  0  0
  4  5  2  0  0  0  0
  5  6  1  0  0  0  0
  6  7  2  0  0  0  0
  6 10  1  0  0  0  0
  7 22  1  0  0  0  0
  8  4  1  0  0  0  0
  9  5  1  0  0  0  0
 11 16  2  0  0  0  0
 11 12  1  0  0  0  0
 12 13  2  0  0  0  0
 13 14  1  0  0  0  0
 13 18  1  0  0  0  0
 15  3  1  0  0  0  0
 15 14  2  0  0  0  0
 16 15  1  0  0  0  0
 17 12  1  0  0  0  0
 19 11  1  0  0  0  0
 20 19  1  0  0  0  0
 21 19  1  0  0  0  0
 22 24  1  0  0  0  0
 24 23  2  1  0  0  0
 24 27  1  0  0  0  0
 24 25  1  0  0  0  0
 25 26  1  0  0  0  0
 28 27  1  0  0  0  0
 28 29  2  0  0  0  0
 29 30  1  0  0  0  0
 31 29  1  0  0  0  0
 31 32  1  0  0  0  0
 33 31  1  0  0  0  0
 34 33  1  0  0  0  0
 35 33  2  0  0  0  0
 35 28  1  0  0  0  0
M  END
>  <minimizedAffinity>
-5.70354033

$$$$

 OpenBabel03252506143D

 35 37  0  0  0  0  0  0  0  0999 V2000
   36.5980   27.8370   40.1600 F   0  0  0  0  0  0  0  0  0  0  0  0
   37.2930   27.6770   41.2890 C   0  0  0  0  0  0  0  0  0  0  0  0
   37.7900   26.4320   41.6060 C   0  0  0  0  0  0  0  0  0  0  0  0
   38.5290   26.1780   42.7660 C   0  0  0  0  0  0  0  0  0  0  0  0
   38.7790   27.2280   43.6500 C   0  0  0  0  0  0  0  0  0  0  0  0
   38.2630   28.4620   43.2950 C   0  0  0  0  0  0  0  0  0  0  0  0
   37.5430   28.7220   42.1730 C   0  0  0  0  0  0  0  0  0  0  0  0
   38.8850   25.1740   42.9450 H   0  0  0  0  0  0  0  0  0  0  0  0
   39.3500   26.9860   44.5270 H   0  0  0  0  0  0  0  0  0  0  0  0
   38.5360   29.1820   44.0610 H   0  0  0  0  0  0  0  0  0  0  0  0
   38.2470   24.0170   38.8810 C   0  0  0  0  0  0  0  0  0  0  0  0
   37.1120   23.1850   39.0370 C   0  0  0  0  0  0  0  0  0  0  0  0
   36.1970   23.4620   40.0820 C   0  0  0  0  0  0  0  0  0  0  0  0
   36.4790   24.5340   40.8810 N   0  0  0  0  0  0  0  0  0  0  0  0
   37.5580   25.2980   40.7050 C   0  0  0  0  0  0  0  0  0  0  0  0
   38.4300   25.0390   39.7150 N   0  0  0  0  0  0  0  0  0  0  0  0
   36.9230   22.3540   38.3920 H   0  0  0  0  0  0  0  0  0  0  0  0
   35.3200   22.8460   40.2280 H   0  0  0  0  0  0  0  0  0  0  0  0
   39.1520   23.7270   37.8320 N   0  0  0  0  0  0  0  0  0  0  0  0
   39.5810   24.4180   37.1470 H   0  0  0  0  0  0  0  0  0  0  0  0
   39.4570   22.7180   37.6890 H   0  0  0  0  0  0  0  0  0  0  0  0
   37.0800   29.9820   41.9210 O   0  0  0  0  0  0  0  0  0  0  0  0
   39.0070   31.7580   41.5450 O   0  0  0  0  0  0  0  0  0  0  0  0
   37.7930   31.1250   40.9170 P   0  0  2  0  0  0  0  0  0  0  0  0
   36.6130   32.3230   40.5710 O   0  0  0  0  0  0  0  0  0  0  0  0
   36.0340   32.0060   39.8180 H   0  0  0  0  0  0  0  0  0  0  0  0
   38.2260   30.5160   39.4020 O   0  0  0  0  0  0  0  0  0  0  0  0
   39.0750   31.1580   38.5090 C   0  0  0  0  0  0  0  0  0  0  0  0
   38.5460   31.7730   37.3920 C   0  0  0  0  0  0  0  0  0  0  0  0
   37.5450   31.8970   36.9910 H   0  0  0  0  0  0  0  0  0  0  0  0
   39.5880   32.3140   36.7050 N   0  0  0  0  0  0  0  0  0  0  0  0
   39.6690   32.8690   35.8040 H   0  0  0  0  0  0  0  0  0  0  0  0
   40.7320   32.0540   37.3580 C   0  0  0  0  0  0  0  0  0  0  0  0
   41.7930   32.2370   37.2640 H   0  0  0  0  0  0  0  0  0  0  0  0
   40.4280   31.3390   38.4770 N   0  0  0  0  0  0  0  0  0  0  0  0
  1  2  1  0  0  0  0
  2  3  2  0  0  0  0
  2  7  1  0  0  0  0
  3  4  1  0  0  0  0
  4  8  1  0  0  0  0
  4  5  2  0  0  0  0
  5  9  1  0  0  0  0
  6  5  1  0  0  0  0
  6 10  1  0  0  0  0
  7  6  2  0  0  0  0
 11 12  2  0  0  0  0
 11 16  1  0  0  0  0
 12 13  1  0  0  0  0
 13 18  1  0  0  0  0
 13 14  2  0  0  0  0
 15 14  1  0  0  0  0
 15  3  1  0  0  0  0
 16 15  2  0  0  0  0
 17 12  1  0  0  0  0
 19 11  1  0  0  0  0
 20 19  1  0  0  0  0
 21 19  1  0  0  0  0
 22  7  1  0  0  0  0
 24 23  2  1  0  0  0
 24 22  1  0  0  0  0
 25 24  1  0  0  0  0
 26 25  1  0  0  0  0
 27 24  1  0  0  0  0
 28 27  1  0  0  0  0
 29 28  2  0  0  0  0
 30 29  1  0  0  0  0
 31 33  1  0  0  0  0
 31 29  1  0  0  0  0
 32 31  1  0  0  0  0
 33 35  2  0  0  0  0
 34 33  1  0  0  0  0
 35 28  1  0  0  0  0
M  END
>  <minimizedAffinity>
-5.69572544

$$$$

 OpenBabel03252506143D

 35 37  0  0  0  0  0  0  0  0999 V2000
   39.1240   28.2050   40.0370 F   0  0  0  0  0  0  0  0  0  0  0  0
   38.0900   27.5690   39.4810 C   0  0  0  0  0  0  0  0  0  0  0  0
   37.1210   28.2970   38.8260 C   0  0  0  0  0  0  0  0  0  0  0  0
   36.0090   27.7110   38.2140 C   0  0  0  0  0  0  0  0  0  0  0  0
   35.8640   26.3240   38.2650 C   0  0  0  0  0  0  0  0  0  0  0  0
   36.8580   25.6290   38.9310 C   0  0  0  0  0  0  0  0  0  0  0  0
   37.9420   26.1870   39.5290 C   0  0  0  0  0  0  0  0  0  0  0  0
   35.2910   28.3500   37.7200 H   0  0  0  0  0  0  0  0  0  0  0  0
   34.9940   25.9190   37.7830 H   0  0  0  0  0  0  0  0  0  0  0  0
   36.6250   24.5690   38.8870 H   0  0  0  0  0  0  0  0  0  0  0  0
   37.7970   31.6530   37.5060 C   0  0  0  0  0  0  0  0  0  0  0  0
   37.4330   32.4750   38.6010 C   0  0  0  0  0  0  0  0  0  0  0  0
   36.9570   31.8650   39.7870 C   0  0  0  0  0  0  0  0  0  0  0  0
   36.8800   30.5010   39.7910 N   0  0  0  0  0  0  0  0  0  0  0  0
   37.2320   29.7570   38.7420 C   0  0  0  0  0  0  0  0  0  0  0  0
   37.6850   30.3310   37.6130 N   0  0  0  0  0  0  0  0  0  0  0  0
   37.5070   33.5410   38.5620 H   0  0  0  0  0  0  0  0  0  0  0  0
   36.6710   32.4640   40.6410 H   0  0  0  0  0  0  0  0  0  0  0  0
   38.2720   32.2780   36.3270 N   0  0  0  0  0  0  0  0  0  0  0  0
   39.1210   31.9990   35.7510 H   0  0  0  0  0  0  0  0  0  0  0  0
   37.7420   33.1200   35.9510 H   0  0  0  0  0  0  0  0  0  0  0  0
   38.8650   25.4030   40.1630 O   0  0  0  0  0  0  0  0  0  0  0  0
   40.1590   24.8650   42.4100 O   0  0  0  0  0  0  0  0  0  0  0  0
   38.8000   24.8760   41.7570 P   0  0  2  0  0  0  0  0  0  0  0  0
   38.1310   23.2950   41.7570 O   0  0  0  0  0  0  0  0  0  0  0  0
   37.1320   23.3630   41.7270 H   0  0  0  0  0  0  0  0  0  0  0  0
   37.7470   25.7760   42.7230 O   0  0  0  0  0  0  0  0  0  0  0  0
   37.8010   27.1560   42.8740 C   0  0  0  0  0  0  0  0  0  0  0  0
   36.6620   27.9070   42.6580 C   0  0  0  0  0  0  0  0  0  0  0  0
   35.6400   27.6790   42.3750 H   0  0  0  0  0  0  0  0  0  0  0  0
   36.9980   29.2080   42.8750 N   0  0  0  0  0  0  0  0  0  0  0  0
   36.4650   30.1250   42.8290 H   0  0  0  0  0  0  0  0  0  0  0  0
   38.2950   29.2810   43.2130 C   0  0  0  0  0  0  0  0  0  0  0  0
   39.0360   30.0210   43.4770 H   0  0  0  0  0  0  0  0  0  0  0  0
   38.8040   28.0160   43.2170 N   0  0  0  0  0  0  0  0  0  0  0  0
  2  7  1  0  0  0  0
  2  1  1  0  0  0  0
  3  2  2  0  0  0  0
  4  5  2  0  0  0  0
  4  3  1  0  0  0  0
  5  6  1  0  0  0  0
  6  7  2  0  0  0  0
  7 22  1  0  0  0  0
  8  4  1  0  0  0  0
  9  5  1  0  0  0  0
 10  6  1  0  0  0  0
 11 16  2  0  0  0  0
 11 12  1  0  0  0  0
 12 13  2  0  0  0  0
 13 14  1  0  0  0  0
 13 18  1  0  0  0  0
 15  3  1  0  0  0  0
 15 14  2  0  0  0  0
 16 15  1  0  0  0  0
 17 12  1  0  0  0  0
 19 11  1  0  0  0  0
 20 19  1  0  0  0  0
 21 19  1  0  0  0  0
 22 24  1  0  0  0  0
 24 25  1  0  0  0  0
 24 23  2  1  0  0  0
 24 27  1  0  0  0  0
 26 25  1  0  0  0  0
 27 28  1  0  0  0  0
 28 35  1  0  0  0  0
 29 28  2  0  0  0  0
 29 31  1  0  0  0  0
 30 29  1  0  0  0  0
 31 33  1  0  0  0  0
 32 31  1  0  0  0  0
 33 35  2  0  0  0  0
 33 34  1  0  0  0  0
M  END
>  <minimizedAffinity>
-5.69260979

$$$$

 OpenBabel03252506143D

 35 37  0  0  0  0  0  0  0  0999 V2000
   39.4790   28.5340   39.7380 F   0  0  0  0  0  0  0  0  0  0  0  0
   38.1920   28.7790   39.9930 C   0  0  0  0  0  0  0  0  0  0  0  0
   37.5880   28.1690   41.0710 C   0  0  0  0  0  0  0  0  0  0  0  0
   36.2470   28.3720   41.4100 C   0  0  0  0  0  0  0  0  0  0  0  0
   35.4750   29.2290   40.6250 C   0  0  0  0  0  0  0  0  0  0  0  0
   36.1180   29.8210   39.5520 C   0  0  0  0  0  0  0  0  0  0  0  0
   37.4190   29.6320   39.2120 C   0  0  0  0  0  0  0  0  0  0  0  0
   35.8450   27.8570   42.2710 H   0  0  0  0  0  0  0  0  0  0  0  0
   34.4510   29.3530   40.9220 H   0  0  0  0  0  0  0  0  0  0  0  0
   35.4090   30.4620   39.0370 H   0  0  0  0  0  0  0  0  0  0  0  0
   38.9210   25.0860   42.5480 C   0  0  0  0  0  0  0  0  0  0  0  0
   39.8050   25.5940   43.5320 C   0  0  0  0  0  0  0  0  0  0  0  0
   39.9350   26.9960   43.6790 C   0  0  0  0  0  0  0  0  0  0  0  0
   39.1840   27.7760   42.8450 N   0  0  0  0  0  0  0  0  0  0  0  0
   38.3600   27.2640   41.9290 C   0  0  0  0  0  0  0  0  0  0  0  0
   38.2340   25.9340   41.7850 N   0  0  0  0  0  0  0  0  0  0  0  0
   40.3770   24.9530   44.1670 H   0  0  0  0  0  0  0  0  0  0  0  0
   40.6010   27.4160   44.4210 H   0  0  0  0  0  0  0  0  0  0  0  0
   38.8030   23.6820   42.4130 N   0  0  0  0  0  0  0  0  0  0  0  0
   37.9040   23.1200   42.3220 H   0  0  0  0  0  0  0  0  0  0  0  0
   39.6910   23.0970   42.3980 H   0  0  0  0  0  0  0  0  0  0  0  0
   37.9530   30.2690   38.1280 O   0  0  0  0  0  0  0  0  0  0  0  0
   38.2140   32.7440   39.0350 O   0  0  0  0  0  0  0  0  0  0  0  0
   38.8380   31.6980   38.1470 P   0  0  2  0  0  0  0  0  0  0  0  0
   38.9330   32.2740   36.5320 O   0  0  0  0  0  0  0  0  0  0  0  0
   39.6800   31.8030   36.0600 H   0  0  0  0  0  0  0  0  0  0  0  0
   40.4490   31.4890   38.6110 O   0  0  0  0  0  0  0  0  0  0  0  0
   41.0720   32.1970   39.6310 C   0  0  0  0  0  0  0  0  0  0  0  0
   41.0360   31.7020   40.9200 C   0  0  0  0  0  0  0  0  0  0  0  0
   40.6070   30.8220   41.3880 H   0  0  0  0  0  0  0  0  0  0  0  0
   41.7170   32.5830   41.7020 N   0  0  0  0  0  0  0  0  0  0  0  0
   41.9470   32.6250   42.7370 H   0  0  0  0  0  0  0  0  0  0  0  0
   42.1660   33.5950   40.9430 C   0  0  0  0  0  0  0  0  0  0  0  0
   42.7300   34.5110   41.0430 H   0  0  0  0  0  0  0  0  0  0  0  0
   41.7730   33.3680   39.6580 N   0  0  0  0  0  0  0  0  0  0  0  0
  1  2  1  0  0  0  0
  2  3  1  0  0  0  0
  3  4  2  0  0  0  0
  3 15  1  0  0  0  0
  4  8  1  0  0  0  0
  5  9  1  0  0  0  0
  5  4  1  0  0  0  0
  6  5  2  0  0  0  0
  7  6  1  0  0  0  0
  7  2  2  0  0  0  0
 10  6  1  0  0  0  0
 11 12  1  0  0  0  0
 12 13  2  0  0  0  0
 12 17  1  0  0  0  0
 13 18  1  0  0  0  0
 14 13  1  0  0  0  0
 15 14  2  0  0  0  0
 16 15  1  0  0  0  0
 16 11  2  0  0  0  0
 19 11  1  0  0  0  0
 20 19  1  0  0  0  0
 21 19  1  0  0  0  0
 22 24  1  0  0  0  0
 22  7  1  0  0  0  0
 24 27  1  0  0  0  0
 24 23  2  1  0  0  0
 25 24  1  0  0  0  0
 26 25  1  0  0  0  0
 27 28  1  0  0  0  0
 28 35  1  0  0  0  0
 28 29  2  0  0  0  0
 29 30  1  0  0  0  0
 29 31  1  0  0  0  0
 31 32  1  0  0  0  0
 33 34  1  0  0  0  0
 33 31  1  0  0  0  0
 35 33  2  0  0  0  0
M  END
>  <minimizedAffinity>
-5.66455269

$$$$
