
 OpenBabel03242520023D

 24 26  0  0  0  0  0  0  0  0999 V2000
   46.1720   32.6390   45.0500 C   0  0  0  0  0  0  0  0  0  0  0  0
   47.3440   31.9480   44.7310 C   0  0  0  0  0  0  0  0  0  0  0  0
   47.3600   30.7790   45.4220 C   0  0  0  0  0  0  0  0  0  0  0  0
   46.2290   30.7500   46.1440 N   0  0  0  0  0  0  0  0  0  0  0  0
   45.5130   31.8710   45.9210 N   0  0  0  0  0  0  0  0  0  0  0  0
   48.0820   32.3440   44.0350 H   0  0  0  0  0  0  0  0  0  0  0  0
   48.1500   30.0300   45.3750 H   0  0  0  0  0  0  0  0  0  0  0  0
   44.5720   35.9310   44.7450 C   0  0  0  0  0  0  0  0  0  0  0  0
   45.0550   36.3820   43.5070 C   0  0  0  0  0  0  0  0  0  0  0  0
   45.9290   35.5520   42.7840 C   0  0  0  0  0  0  0  0  0  0  0  0
   46.2610   34.3450   43.3280 N   0  0  0  0  0  0  0  0  0  0  0  0
   45.7840   33.9370   44.5150 C   0  0  0  0  0  0  0  0  0  0  0  0
   44.9460   34.7280   45.2150 N   0  0  0  0  0  0  0  0  0  0  0  0
   43.8970   36.4870   45.3820 H   0  0  0  0  0  0  0  0  0  0  0  0
   44.7310   37.3430   43.1730 H   0  0  0  0  0  0  0  0  0  0  0  0
   46.3000   35.8970   41.8350 H   0  0  0  0  0  0  0  0  0  0  0  0
   45.8130   29.7110   47.0250 C   0  0  0  0  0  0  0  0  0  0  0  0
   45.2990   29.8730   48.2880 C   0  0  0  0  0  0  0  0  0  0  0  0
   45.1210   30.7940   48.8280 H   0  0  0  0  0  0  0  0  0  0  0  0
   45.0200   28.6560   48.8180 N   0  0  0  0  0  0  0  0  0  0  0  0
   44.6280   28.3640   49.7330 H   0  0  0  0  0  0  0  0  0  0  0  0
   45.3570   27.7410   47.8950 C   0  0  0  0  0  0  0  0  0  0  0  0
   45.3040   26.6660   47.8970 H   0  0  0  0  0  0  0  0  0  0  0  0
   45.8390   28.3950   46.8080 N   0  0  0  0  0  0  0  0  0  0  0  0
  1  5  2  0  0  0  0
  2  1  1  0  0  0  0
  2  3  2  0  0  0  0
  3  4  1  0  0  0  0
  4 17  1  0  0  0  0
  5  4  1  0  0  0  0
  6  2  1  0  0  0  0
  7  3  1  0  0  0  0
  8 13  1  0  0  0  0
  8 14  1  0  0  0  0
  9  8  2  0  0  0  0
 10 11  2  0  0  0  0
 10  9  1  0  0  0  0
 11 12  1  0  0  0  0
 12  1  1  0  0  0  0
 12 13  2  0  0  0  0
 15  9  1  0  0  0  0
 16 10  1  0  0  0  0
 17 18  2  0  0  0  0
 18 20  1  0  0  0  0
 18 19  1  0  0  0  0
 20 21  1  0  0  0  0
 22 23  1  0  0  0  0
 22 20  1  0  0  0  0
 24 17  1  0  0  0  0
 24 22  2  0  0  0  0
M  END
>  <minimizedAffinity>
-4.10915756

>  <minimizedRMSD>
2.91523314

$$$$
