
 OpenBabel03252501593D

 35 37  0  0  0  0  0  0  0  0999 V2000
   44.4780   35.8440   45.1950 C   0  0  0  0  0  0  0  0  0  0  0  0
   45.2450   35.8930   44.0260 C   0  0  0  0  0  0  0  0  0  0  0  0
   46.1420   34.8980   43.7720 C   0  0  0  0  0  0  0  0  0  0  0  0
   46.2630   33.8750   44.6790 N   0  0  0  0  0  0  0  0  0  0  0  0
   45.5130   33.8380   45.8110 C   0  0  0  0  0  0  0  0  0  0  0  0
   44.6230   34.8160   46.0730 N   0  0  0  0  0  0  0  0  0  0  0  0
   43.7140   36.4290   45.6130 H   0  0  0  0  0  0  0  0  0  0  0  0
   45.7700   32.9500   46.3760 H   0  0  0  0  0  0  0  0  0  0  0  0
   46.9100   34.9430   42.5650 C   0  0  0  0  0  0  0  0  0  0  0  0
   48.0800   35.5950   42.3180 C   0  0  0  0  0  0  0  0  0  0  0  0
   48.6720   35.5110   41.0700 C   0  0  0  0  0  0  0  0  0  0  0  0
   48.0930   34.7750   40.0670 C   0  0  0  0  0  0  0  0  0  0  0  0
   46.9230   34.1110   40.2840 C   0  0  0  0  0  0  0  0  0  0  0  0
   46.3500   34.2090   41.5370 C   0  0  0  0  0  0  0  0  0  0  0  0
   48.4780   36.1570   43.1570 H   0  0  0  0  0  0  0  0  0  0  0  0
   49.6000   36.0610   40.9610 H   0  0  0  0  0  0  0  0  0  0  0  0
   48.6600   34.7980   39.1490 H   0  0  0  0  0  0  0  0  0  0  0  0
   46.4960   33.5420   39.4720 H   0  0  0  0  0  0  0  0  0  0  0  0
   45.4110   33.6410   41.6140 H   0  0  0  0  0  0  0  0  0  0  0  0
   44.9790   37.0310   43.1220 C   0  0  0  0  0  0  0  0  0  0  0  0
   44.0070   36.9760   42.6000 H   0  0  0  0  0  0  0  0  0  0  0  0
   45.7690   36.9730   42.3370 H   0  0  0  0  0  0  0  0  0  0  0  0
   45.1230   38.2330   43.9160 N   0  0  0  0  0  0  0  0  0  0  0  0
   44.9250   38.8010   45.2010 C   0  0  0  0  0  0  0  0  0  0  0  0
   44.3570   38.2150   46.3430 C   0  0  0  0  0  0  0  0  0  0  0  0
   43.9580   37.2120   46.4010 H   0  0  0  0  0  0  0  0  0  0  0  0
   44.4460   39.1870   47.2700 N   0  0  0  0  0  0  0  0  0  0  0  0
   44.0860   39.0290   48.2560 H   0  0  0  0  0  0  0  0  0  0  0  0
   45.0160   40.3090   46.8010 C   0  0  0  0  0  0  0  0  0  0  0  0
   45.1670   41.1970   47.4170 H   0  0  0  0  0  0  0  0  0  0  0  0
   45.3200   40.0810   45.5120 N   0  0  0  0  0  0  0  0  0  0  0  0
   45.6780   39.3300   43.1190 C   0  0  0  0  0  0  0  0  0  0  0  0
   47.0160   39.2860   42.9970 F   0  0  0  0  0  0  0  0  0  0  0  0
   45.3660   40.5620   43.6910 F   0  0  0  0  0  0  0  0  0  0  0  0
   45.0940   39.2970   41.8830 F   0  0  0  0  0  0  0  0  0  0  0  0
  1  7  1  0  0  0  0
  1  6  1  0  0  0  0
  2  1  2  0  0  0  0
  3  2  1  0  0  0  0
  3  4  2  0  0  0  0
  4  5  1  0  0  0  0
  5  6  2  0  0  0  0
  5  8  1  0  0  0  0
  9  3  1  0  0  0  0
 10  9  1  0  0  0  0
 10 15  1  0  0  0  0
 11 10  2  0  0  0  0
 12 13  2  0  0  0  0
 12 11  1  0  0  0  0
 13 14  1  0  0  0  0
 14 19  1  0  0  0  0
 14  9  2  0  0  0  0
 16 11  1  0  0  0  0
 17 12  1  0  0  0  0
 18 13  1  0  0  0  0
 20 23  1  0  0  0  0
 20  2  1  0  0  0  0
 21 20  1  0  0  0  0
 22 20  1  0  0  0  0
 23 24  1  0  0  0  0
 24 31  1  0  0  0  0
 24 25  2  0  0  0  0
 25 26  1  0  0  0  0
 25 27  1  0  0  0  0
 27 28  1  0  0  0  0
 29 27  1  0  0  0  0
 29 30  1  0  0  0  0
 31 29  2  0  0  0  0
 32 34  1  0  0  0  0
 32 23  1  0  0  0  0
 33 32  1  0  0  0  0
 35 32  1  0  0  0  0
M  END
>  <minimizedAffinity>
-0.476505548

>  <minimizedRMSD>
0.711791873

$$$$
