
 OpenBabel03252504223D

 31 34  0  0  0  0  0  0  0  0999 V2000
   47.1400   33.3670   39.1960 C   0  0  0  0  0  0  0  0  0  0  0  0
   48.4810   33.0860   39.3920 C   0  0  0  0  0  0  0  0  0  0  0  0
   49.0310   33.2990   40.6800 C   0  0  0  0  0  0  0  0  0  0  0  0
   48.1820   33.7710   41.6380 N   0  0  0  0  0  0  0  0  0  0  0  0
   46.8750   34.0320   41.3980 C   0  0  0  0  0  0  0  0  0  0  0  0
   46.3580   33.8320   40.1850 N   0  0  0  0  0  0  0  0  0  0  0  0
   46.0810   34.5230   42.4700 N   0  0  0  0  0  0  0  0  0  0  0  0
   45.1880   35.5410   42.3990 C   0  0  0  0  0  0  0  0  0  0  0  0
   44.6360   35.7060   43.6370 N   0  0  0  0  0  0  0  0  0  0  0  0
   45.2010   34.7840   44.4390 C   0  0  0  0  0  0  0  0  0  0  0  0
   45.0490   34.4710   45.7620 C   0  0  0  0  0  0  0  0  0  0  0  0
   45.7390   33.4910   46.3380 N   0  0  0  0  0  0  0  0  0  0  0  0
   46.6270   32.7540   45.6490 C   0  0  0  0  0  0  0  0  0  0  0  0
   46.7760   33.0630   44.3520 N   0  0  0  0  0  0  0  0  0  0  0  0
   46.1090   34.0330   43.7260 C   0  0  0  0  0  0  0  0  0  0  0  0
   49.1560   32.7150   38.6450 H   0  0  0  0  0  0  0  0  0  0  0  0
   50.0660   33.0900   40.8600 H   0  0  0  0  0  0  0  0  0  0  0  0
   44.9590   36.1210   41.5060 H   0  0  0  0  0  0  0  0  0  0  0  0
   47.1760   31.9640   46.1380 H   0  0  0  0  0  0  0  0  0  0  0  0
   44.1450   35.1710   46.5960 N   0  0  0  0  0  0  0  0  0  0  0  0
   43.6910   34.7260   47.4420 H   0  0  0  0  0  0  0  0  0  0  0  0
   43.9060   36.1810   46.3780 H   0  0  0  0  0  0  0  0  0  0  0  0
   46.5180   33.0710   37.5220 S   0  0  0  0  0  0  0  0  0  0  0  0
   47.7770   32.2310   36.6020 C   0  0  0  0  0  0  0  0  0  0  0  0
   48.5020   33.0420   35.7230 C   0  0  0  0  0  0  0  0  0  0  0  0
   48.5180   34.0820   35.4270 H   0  0  0  0  0  0  0  0  0  0  0  0
   49.4280   32.2700   35.0860 N   0  0  0  0  0  0  0  0  0  0  0  0
   50.1630   32.4440   34.3710 H   0  0  0  0  0  0  0  0  0  0  0  0
   49.2890   31.0150   35.5520 C   0  0  0  0  0  0  0  0  0  0  0  0
   49.7950   30.0630   35.3490 H   0  0  0  0  0  0  0  0  0  0  0  0
   48.2900   30.9930   36.4680 N   0  0  0  0  0  0  0  0  0  0  0  0
  1  2  2  0  0  0  0
  1  6  1  0  0  0  0
  2  3  1  0  0  0  0
  3 17  1  0  0  0  0
  3  4  2  0  0  0  0
  5  4  1  0  0  0  0
  5  7  1  0  0  0  0
  6  5  2  0  0  0  0
  7 15  1  0  0  0  0
  8  7  1  0  0  0  0
  8  9  2  0  0  0  0
  9 10  1  0  0  0  0
 10 11  1  0  0  0  0
 11 12  2  0  0  0  0
 11 20  1  0  0  0  0
 13 19  1  0  0  0  0
 13 12  1  0  0  0  0
 14 13  2  0  0  0  0
 15 14  1  0  0  0  0
 15 10  2  0  0  0  0
 16  2  1  0  0  0  0
 18  8  1  0  0  0  0
 20 21  1  0  0  0  0
 22 20  1  0  0  0  0
 23  1  1  0  0  0  0
 24 23  1  0  0  0  0
 25 24  2  0  0  0  0
 26 25  1  0  0  0  0
 27 29  1  0  0  0  0
 27 25  1  0  0  0  0
 28 27  1  0  0  0  0
 29 31  2  0  0  0  0
 30 29  1  0  0  0  0
 31 24  1  0  0  0  0
M  END
>  <minimizedAffinity>
-5.89930582

>  <minimizedRMSD>
1.38577831

$$$$
