
 OpenBabel03252509133D

 31 34  0  0  0  0  0  0  0  0999 V2000
   40.2830   29.9650   42.1990 C   0  0  0  0  0  0  0  0  0  0  0  0
   39.3660   30.6700   41.4160 C   0  0  0  0  0  0  0  0  0  0  0  0
   38.0500   30.3120   41.3350 C   0  0  0  0  0  0  0  0  0  0  0  0
   37.5670   29.2040   42.0470 C   0  0  0  0  0  0  0  0  0  0  0  0
   36.3710   28.5800   42.2000 N   0  0  0  0  0  0  0  0  0  0  0  0
   36.5330   27.5290   43.0440 C   0  0  0  0  0  0  0  0  0  0  0  0
   37.8290   27.5240   43.3960 N   0  0  0  0  0  0  0  0  0  0  0  0
   38.4890   28.5330   42.8060 C   0  0  0  0  0  0  0  0  0  0  0  0
   39.8280   28.8590   42.9180 C   0  0  0  0  0  0  0  0  0  0  0  0
   41.3210   30.2360   42.2710 H   0  0  0  0  0  0  0  0  0  0  0  0
   35.5540   28.9710   41.6840 H   0  0  0  0  0  0  0  0  0  0  0  0
   35.6410   26.9590   43.2390 H   0  0  0  0  0  0  0  0  0  0  0  0
   40.5140   28.2880   43.5360 H   0  0  0  0  0  0  0  0  0  0  0  0
   39.8800   34.1390   40.3490 C   0  0  0  0  0  0  0  0  0  0  0  0
   40.7110   33.9960   39.2280 C   0  0  0  0  0  0  0  0  0  0  0  0
   41.0820   32.7020   38.8560 C   0  0  0  0  0  0  0  0  0  0  0  0
   40.6250   31.6390   39.5920 N   0  0  0  0  0  0  0  0  0  0  0  0
   39.8300   31.8270   40.6600 C   0  0  0  0  0  0  0  0  0  0  0  0
   39.4440   33.0670   41.0570 N   0  0  0  0  0  0  0  0  0  0  0  0
   39.5590   35.1160   40.6840 H   0  0  0  0  0  0  0  0  0  0  0  0
   41.0280   34.8840   38.7000 H   0  0  0  0  0  0  0  0  0  0  0  0
   41.7200   32.5900   37.9960 H   0  0  0  0  0  0  0  0  0  0  0  0
   36.8730   31.2060   40.3420 S   0  0  0  0  0  0  0  0  0  0  0  0
   36.9230   30.7340   38.6360 C   0  0  0  0  0  0  0  0  0  0  0  0
   37.6070   31.5050   37.7000 C   0  0  0  0  0  0  0  0  0  0  0  0
   38.1760   32.4320   37.8010 H   0  0  0  0  0  0  0  0  0  0  0  0
   37.4400   30.8600   36.5150 N   0  0  0  0  0  0  0  0  0  0  0  0
   37.8050   31.1300   35.5710 H   0  0  0  0  0  0  0  0  0  0  0  0
   36.6990   29.7530   36.6940 C   0  0  0  0  0  0  0  0  0  0  0  0
   36.3420   28.9800   36.0280 H   0  0  0  0  0  0  0  0  0  0  0  0
   36.3850   29.6810   37.9970 N   0  0  0  0  0  0  0  0  0  0  0  0
  1 10  1  0  0  0  0
  1  9  1  0  0  0  0
  2  1  2  0  0  0  0
  3  2  1  0  0  0  0
  3  4  2  0  0  0  0
  4  5  1  0  0  0  0
  4  8  1  0  0  0  0
  5  6  1  0  0  0  0
  6 12  1  0  0  0  0
  6  7  2  0  0  0  0
  8  9  2  0  0  0  0
  8  7  1  0  0  0  0
  9 13  1  0  0  0  0
 11  5  1  0  0  0  0
 14 20  1  0  0  0  0
 14 19  1  0  0  0  0
 15 14  2  0  0  0  0
 16 15  1  0  0  0  0
 16 17  2  0  0  0  0
 17 18  1  0  0  0  0
 18 19  2  0  0  0  0
 18  2  1  0  0  0  0
 21 15  1  0  0  0  0
 22 16  1  0  0  0  0
 23  3  1  0  0  0  0
 24 23  1  0  0  0  0
 25 26  1  0  0  0  0
 25 24  2  0  0  0  0
 27 29  1  0  0  0  0
 27 25  1  0  0  0  0
 28 27  1  0  0  0  0
 29 31  2  0  0  0  0
 30 29  1  0  0  0  0
 31 24  1  0  0  0  0
M  END
>  <minimizedAffinity>
-5.39278746

$$$$

 OpenBabel03252509133D

 31 34  0  0  0  0  0  0  0  0999 V2000
   39.4740   30.4100   42.1090 C   0  0  0  0  0  0  0  0  0  0  0  0
   38.2400   29.9420   41.6470 C   0  0  0  0  0  0  0  0  0  0  0  0
   37.3840   30.7300   40.9320 C   0  0  0  0  0  0  0  0  0  0  0  0
   37.7190   32.0590   40.6310 C   0  0  0  0  0  0  0  0  0  0  0  0
   37.1400   33.0920   39.9680 N   0  0  0  0  0  0  0  0  0  0  0  0
   37.9760   34.1610   40.0130 C   0  0  0  0  0  0  0  0  0  0  0  0
   39.0570   33.7660   40.7040 N   0  0  0  0  0  0  0  0  0  0  0  0
   38.9340   32.4890   41.0960 C   0  0  0  0  0  0  0  0  0  0  0  0
   39.8310   31.7280   41.8220 C   0  0  0  0  0  0  0  0  0  0  0  0
   40.1560   29.8000   42.6730 H   0  0  0  0  0  0  0  0  0  0  0  0
   36.2000   32.9290   39.5470 H   0  0  0  0  0  0  0  0  0  0  0  0
   37.6140   35.0440   39.5140 H   0  0  0  0  0  0  0  0  0  0  0  0
   40.7820   32.1240   42.1670 H   0  0  0  0  0  0  0  0  0  0  0  0
   37.9190   26.3000   41.3940 C   0  0  0  0  0  0  0  0  0  0  0  0
   37.1230   25.9830   42.5050 C   0  0  0  0  0  0  0  0  0  0  0  0
   36.7080   27.0330   43.3270 C   0  0  0  0  0  0  0  0  0  0  0  0
   37.0910   28.3130   43.0180 N   0  0  0  0  0  0  0  0  0  0  0  0
   37.8550   28.5670   41.9410 C   0  0  0  0  0  0  0  0  0  0  0  0
   38.2800   27.5770   41.1140 N   0  0  0  0  0  0  0  0  0  0  0  0
   38.2700   25.5290   40.7210 H   0  0  0  0  0  0  0  0  0  0  0  0
   36.8640   24.9480   42.6790 H   0  0  0  0  0  0  0  0  0  0  0  0
   36.0970   26.7930   44.1790 H   0  0  0  0  0  0  0  0  0  0  0  0
   35.8120   30.1420   40.3370 S   0  0  0  0  0  0  0  0  0  0  0  0
   35.8700   29.6390   38.6400 C   0  0  0  0  0  0  0  0  0  0  0  0
   37.0740   29.6160   37.9420 C   0  0  0  0  0  0  0  0  0  0  0  0
   38.0930   29.8660   38.2450 H   0  0  0  0  0  0  0  0  0  0  0  0
   36.7540   29.1880   36.6920 N   0  0  0  0  0  0  0  0  0  0  0  0
   37.3900   29.0410   35.8730 H   0  0  0  0  0  0  0  0  0  0  0  0
   35.4320   28.9580   36.6090 C   0  0  0  0  0  0  0  0  0  0  0  0
   34.7840   28.6180   35.8130 H   0  0  0  0  0  0  0  0  0  0  0  0
   34.8960   29.2360   37.8060 N   0  0  0  0  0  0  0  0  0  0  0  0
  1 10  1  0  0  0  0
  2 18  1  0  0  0  0
  2  1  2  0  0  0  0
  3  2  1  0  0  0  0
  4  3  2  0  0  0  0
  4  8  1  0  0  0  0
  5  6  1  0  0  0  0
  5  4  1  0  0  0  0
  6  7  2  0  0  0  0
  7  8  1  0  0  0  0
  8  9  2  0  0  0  0
  9  1  1  0  0  0  0
  9 13  1  0  0  0  0
 11  5  1  0  0  0  0
 12  6  1  0  0  0  0
 14 15  1  0  0  0  0
 15 21  1  0  0  0  0
 15 16  2  0  0  0  0
 16 22  1  0  0  0  0
 17 16  1  0  0  0  0
 18 17  2  0  0  0  0
 19 14  2  0  0  0  0
 19 18  1  0  0  0  0
 20 14  1  0  0  0  0
 23  3  1  0  0  0  0
 24 23  1  0  0  0  0
 25 26  1  0  0  0  0
 25 24  2  0  0  0  0
 27 25  1  0  0  0  0
 28 27  1  0  0  0  0
 29 27  1  0  0  0  0
 29 31  2  0  0  0  0
 30 29  1  0  0  0  0
 31 24  1  0  0  0  0
M  END
>  <minimizedAffinity>
-5.35122538

$$$$

 OpenBabel03252509133D

 31 34  0  0  0  0  0  0  0  0999 V2000
   35.8190   27.8330   39.0480 C   0  0  0  0  0  0  0  0  0  0  0  0
   36.9440   28.6210   39.3080 C   0  0  0  0  0  0  0  0  0  0  0  0
   37.4730   29.4670   38.3750 C   0  0  0  0  0  0  0  0  0  0  0  0
   36.8940   29.5750   37.1010 C   0  0  0  0  0  0  0  0  0  0  0  0
   37.1390   30.2820   35.9680 N   0  0  0  0  0  0  0  0  0  0  0  0
   36.2060   29.9520   35.0390 C   0  0  0  0  0  0  0  0  0  0  0  0
   35.4030   29.0440   35.6170 N   0  0  0  0  0  0  0  0  0  0  0  0
   35.7940   28.7920   36.8750 C   0  0  0  0  0  0  0  0  0  0  0  0
   35.2240   27.9230   37.7880 C   0  0  0  0  0  0  0  0  0  0  0  0
   35.3930   27.1640   39.7740 H   0  0  0  0  0  0  0  0  0  0  0  0
   37.9520   30.9350   35.9740 H   0  0  0  0  0  0  0  0  0  0  0  0
   36.3050   30.4580   34.0940 H   0  0  0  0  0  0  0  0  0  0  0  0
   34.3500   27.3240   37.5530 H   0  0  0  0  0  0  0  0  0  0  0  0
   39.0910   27.5020   42.0600 C   0  0  0  0  0  0  0  0  0  0  0  0
   38.7520   28.3870   43.0940 C   0  0  0  0  0  0  0  0  0  0  0  0
   37.7860   29.3590   42.8260 C   0  0  0  0  0  0  0  0  0  0  0  0
   37.2160   29.4070   41.5800 N   0  0  0  0  0  0  0  0  0  0  0  0
   37.5740   28.5350   40.6200 C   0  0  0  0  0  0  0  0  0  0  0  0
   38.5080   27.5740   40.8370 N   0  0  0  0  0  0  0  0  0  0  0  0
   39.8320   26.7280   42.2090 H   0  0  0  0  0  0  0  0  0  0  0  0
   39.2470   28.2830   44.0490 H   0  0  0  0  0  0  0  0  0  0  0  0
   37.5250   30.0390   43.6180 H   0  0  0  0  0  0  0  0  0  0  0  0
   38.9040   30.4760   38.6980 S   0  0  0  0  0  0  0  0  0  0  0  0
   38.4800   32.0760   39.3260 C   0  0  0  0  0  0  0  0  0  0  0  0
   37.1580   32.5090   39.3480 C   0  0  0  0  0  0  0  0  0  0  0  0
   36.2320   32.0270   39.0300 H   0  0  0  0  0  0  0  0  0  0  0  0
   37.2000   33.7580   39.8840 N   0  0  0  0  0  0  0  0  0  0  0  0
   36.4040   34.4150   40.0650 H   0  0  0  0  0  0  0  0  0  0  0  0
   38.4680   34.0900   40.1800 C   0  0  0  0  0  0  0  0  0  0  0  0
   38.9270   34.9690   40.6090 H   0  0  0  0  0  0  0  0  0  0  0  0
   39.2490   33.0540   39.8360 N   0  0  0  0  0  0  0  0  0  0  0  0
  1  2  1  0  0  0  0
  1 10  1  0  0  0  0
  2 18  1  0  0  0  0
  3 23  1  0  0  0  0
  3  2  2  0  0  0  0
  4  3  1  0  0  0  0
  5 11  1  0  0  0  0
  5  4  1  0  0  0  0
  6  7  2  0  0  0  0
  6  5  1  0  0  0  0
  7  8  1  0  0  0  0
  8  4  2  0  0  0  0
  8  9  1  0  0  0  0
  9  1  2  0  0  0  0
 12  6  1  0  0  0  0
 13  9  1  0  0  0  0
 14 20  1  0  0  0  0
 14 15  1  0  0  0  0
 15 21  1  0  0  0  0
 16 15  2  0  0  0  0
 16 22  1  0  0  0  0
 17 16  1  0  0  0  0
 18 19  1  0  0  0  0
 18 17  2  0  0  0  0
 19 14  2  0  0  0  0
 23 24  1  0  0  0  0
 24 25  2  0  0  0  0
 24 31  1  0  0  0  0
 25 27  1  0  0  0  0
 26 25  1  0  0  0  0
 27 28  1  0  0  0  0
 27 29  1  0  0  0  0
 29 30  1  0  0  0  0
 31 29  2  0  0  0  0
M  END
>  <minimizedAffinity>
-5.22946501

$$$$

 OpenBabel03252509133D

 31 34  0  0  0  0  0  0  0  0999 V2000
   36.9090   27.1040   41.9900 C   0  0  0  0  0  0  0  0  0  0  0  0
   37.1280   27.9630   40.9100 C   0  0  0  0  0  0  0  0  0  0  0  0
   38.3060   28.6330   40.7400 C   0  0  0  0  0  0  0  0  0  0  0  0
   39.3540   28.4790   41.6600 C   0  0  0  0  0  0  0  0  0  0  0  0
   40.6130   28.9660   41.8060 N   0  0  0  0  0  0  0  0  0  0  0  0
   41.1580   28.4340   42.9300 C   0  0  0  0  0  0  0  0  0  0  0  0
   40.2230   27.6280   43.4570 N   0  0  0  0  0  0  0  0  0  0  0  0
   39.1100   27.6310   42.7080 C   0  0  0  0  0  0  0  0  0  0  0  0
   37.9360   26.9330   42.9200 C   0  0  0  0  0  0  0  0  0  0  0  0
   35.9860   26.5710   42.1350 H   0  0  0  0  0  0  0  0  0  0  0  0
   40.9590   29.6330   41.0830 H   0  0  0  0  0  0  0  0  0  0  0  0
   42.1640   28.7540   43.1440 H   0  0  0  0  0  0  0  0  0  0  0  0
   37.7980   26.2730   43.7720 H   0  0  0  0  0  0  0  0  0  0  0  0
   34.0720   29.1880   39.3010 C   0  0  0  0  0  0  0  0  0  0  0  0
   34.0660   28.4930   38.0820 C   0  0  0  0  0  0  0  0  0  0  0  0
   35.1190   27.6100   37.8330 C   0  0  0  0  0  0  0  0  0  0  0  0
   36.1010   27.4610   38.7780 N   0  0  0  0  0  0  0  0  0  0  0  0
   36.0640   28.1500   39.9320 C   0  0  0  0  0  0  0  0  0  0  0  0
   35.0580   29.0180   40.2160 N   0  0  0  0  0  0  0  0  0  0  0  0
   33.2820   29.8840   39.5490 H   0  0  0  0  0  0  0  0  0  0  0  0
   33.2530   28.6650   37.3900 H   0  0  0  0  0  0  0  0  0  0  0  0
   35.1160   27.0750   36.9000 H   0  0  0  0  0  0  0  0  0  0  0  0
   38.5970   29.7280   39.3660 S   0  0  0  0  0  0  0  0  0  0  0  0
   38.3060   31.4260   39.7740 C   0  0  0  0  0  0  0  0  0  0  0  0
   37.0290   31.8760   40.0960 C   0  0  0  0  0  0  0  0  0  0  0  0
   36.0710   31.3560   40.1570 H   0  0  0  0  0  0  0  0  0  0  0  0
   37.1720   33.2040   40.3500 N   0  0  0  0  0  0  0  0  0  0  0  0
   36.4350   33.8960   40.6260 H   0  0  0  0  0  0  0  0  0  0  0  0
   38.4580   33.5660   40.1980 C   0  0  0  0  0  0  0  0  0  0  0  0
   38.9840   34.5040   40.3010 H   0  0  0  0  0  0  0  0  0  0  0  0
   39.1480   32.4710   39.8450 N   0  0  0  0  0  0  0  0  0  0  0  0
  1 10  1  0  0  0  0
  1  9  1  0  0  0  0
  2  1  2  0  0  0  0
  3  2  1  0  0  0  0
  3  4  2  0  0  0  0
  4  5  1  0  0  0  0
  4  8  1  0  0  0  0
  5  6  1  0  0  0  0
  6 12  1  0  0  0  0
  6  7  2  0  0  0  0
  8  9  2  0  0  0  0
  8  7  1  0  0  0  0
  9 13  1  0  0  0  0
 11  5  1  0  0  0  0
 14 20  1  0  0  0  0
 14 19  1  0  0  0  0
 15 14  2  0  0  0  0
 16 15  1  0  0  0  0
 16 17  2  0  0  0  0
 17 18  1  0  0  0  0
 18 19  2  0  0  0  0
 18  2  1  0  0  0  0
 21 15  1  0  0  0  0
 22 16  1  0  0  0  0
 23 24  1  0  0  0  0
 23  3  1  0  0  0  0
 24 31  1  0  0  0  0
 24 25  2  0  0  0  0
 25 26  1  0  0  0  0
 25 27  1  0  0  0  0
 27 28  1  0  0  0  0
 29 30  1  0  0  0  0
 29 27  1  0  0  0  0
 31 29  2  0  0  0  0
M  END
>  <minimizedAffinity>
-5.22200489

$$$$

 OpenBabel03252509133D

 31 34  0  0  0  0  0  0  0  0999 V2000
   37.3430   32.9370   39.5600 C   0  0  0  0  0  0  0  0  0  0  0  0
   37.6180   31.5690   39.6450 C   0  0  0  0  0  0  0  0  0  0  0  0
   38.8440   31.0950   40.0180 C   0  0  0  0  0  0  0  0  0  0  0  0
   39.8860   31.9800   40.3320 C   0  0  0  0  0  0  0  0  0  0  0  0
   41.1810   31.8730   40.7250 N   0  0  0  0  0  0  0  0  0  0  0  0
   41.6940   33.1200   40.8780 C   0  0  0  0  0  0  0  0  0  0  0  0
   40.7050   33.9750   40.5760 N   0  0  0  0  0  0  0  0  0  0  0  0
   39.5870   33.3130   40.2390 C   0  0  0  0  0  0  0  0  0  0  0  0
   38.3630   33.8380   39.8670 C   0  0  0  0  0  0  0  0  0  0  0  0
   36.3830   33.3230   39.2680 H   0  0  0  0  0  0  0  0  0  0  0  0
   41.5710   30.9130   40.8450 H   0  0  0  0  0  0  0  0  0  0  0  0
   42.7240   33.1540   41.1920 H   0  0  0  0  0  0  0  0  0  0  0  0
   38.1830   34.9080   39.8100 H   0  0  0  0  0  0  0  0  0  0  0  0
   35.4350   29.3160   37.7510 C   0  0  0  0  0  0  0  0  0  0  0  0
   34.5680   28.8250   38.7390 C   0  0  0  0  0  0  0  0  0  0  0  0
   34.7500   29.2800   40.0470 C   0  0  0  0  0  0  0  0  0  0  0  0
   35.7550   30.1760   40.3070 N   0  0  0  0  0  0  0  0  0  0  0  0
   36.5610   30.6180   39.3260 C   0  0  0  0  0  0  0  0  0  0  0  0
   36.4200   30.2020   38.0410 N   0  0  0  0  0  0  0  0  0  0  0  0
   35.3420   29.0000   36.7210 H   0  0  0  0  0  0  0  0  0  0  0  0
   33.7990   28.1210   38.4520 H   0  0  0  0  0  0  0  0  0  0  0  0
   34.0860   28.9060   40.8060 H   0  0  0  0  0  0  0  0  0  0  0  0
   39.2040   29.3550   40.1330 S   0  0  0  0  0  0  0  0  0  0  0  0
   38.7530   28.6690   41.7020 C   0  0  0  0  0  0  0  0  0  0  0  0
   39.2810   27.4540   42.1290 C   0  0  0  0  0  0  0  0  0  0  0  0
   39.9830   26.7620   41.6580 H   0  0  0  0  0  0  0  0  0  0  0  0
   38.7300   27.2360   43.3520 N   0  0  0  0  0  0  0  0  0  0  0  0
   38.8790   26.4230   43.9970 H   0  0  0  0  0  0  0  0  0  0  0  0
   37.9080   28.2490   43.6750 C   0  0  0  0  0  0  0  0  0  0  0  0
   37.2880   28.4610   44.5350 H   0  0  0  0  0  0  0  0  0  0  0  0
   37.9260   29.1250   42.6590 N   0  0  0  0  0  0  0  0  0  0  0  0
  1  2  2  0  0  0  0
  1  9  1  0  0  0  0
  2  3  1  0  0  0  0
  3 23  1  0  0  0  0
  3  4  2  0  0  0  0
  4  5  1  0  0  0  0
  5 11  1  0  0  0  0
  5  6  1  0  0  0  0
  6 12  1  0  0  0  0
  7  6  2  0  0  0  0
  8  4  1  0  0  0  0
  8  7  1  0  0  0  0
  9  8  2  0  0  0  0
 10  1  1  0  0  0  0
 13  9  1  0  0  0  0
 14 19  2  0  0  0  0
 14 15  1  0  0  0  0
 15 16  2  0  0  0  0
 16 17  1  0  0  0  0
 16 22  1  0  0  0  0
 18  2  1  0  0  0  0
 18 17  2  0  0  0  0
 19 18  1  0  0  0  0
 20 14  1  0  0  0  0
 21 15  1  0  0  0  0
 23 24  1  0  0  0  0
 24 25  2  0  0  0  0
 24 31  1  0  0  0  0
 25 27  1  0  0  0  0
 26 25  1  0  0  0  0
 27 29  1  0  0  0  0
 27 28  1  0  0  0  0
 29 30  1  0  0  0  0
 31 29  2  0  0  0  0
M  END
>  <minimizedAffinity>
-5.22099352

$$$$

 OpenBabel03252509133D

 31 34  0  0  0  0  0  0  0  0999 V2000
   37.6670   31.0130   37.1290 C   0  0  0  0  0  0  0  0  0  0  0  0
   37.4970   31.1360   38.5110 C   0  0  0  0  0  0  0  0  0  0  0  0
   36.5670   30.4080   39.1980 C   0  0  0  0  0  0  0  0  0  0  0  0
   35.7360   29.4980   38.5280 C   0  0  0  0  0  0  0  0  0  0  0  0
   34.7410   28.6400   38.8700 N   0  0  0  0  0  0  0  0  0  0  0  0
   34.3060   28.0080   37.7500 C   0  0  0  0  0  0  0  0  0  0  0  0
   35.0420   28.4890   36.7360 N   0  0  0  0  0  0  0  0  0  0  0  0
   35.9250   29.4000   37.1750 C   0  0  0  0  0  0  0  0  0  0  0  0
   36.8520   30.1140   36.4390 C   0  0  0  0  0  0  0  0  0  0  0  0
   38.3940   31.5800   36.5770 H   0  0  0  0  0  0  0  0  0  0  0  0
   34.4710   28.5920   39.8760 H   0  0  0  0  0  0  0  0  0  0  0  0
   33.5120   27.2980   37.9070 H   0  0  0  0  0  0  0  0  0  0  0  0
   36.9570   29.9960   35.3640 H   0  0  0  0  0  0  0  0  0  0  0  0
   38.6300   34.1550   40.2520 C   0  0  0  0  0  0  0  0  0  0  0  0
   39.9420   33.8240   40.6220 C   0  0  0  0  0  0  0  0  0  0  0  0
   40.4170   32.5600   40.2640 C   0  0  0  0  0  0  0  0  0  0  0  0
   39.5930   31.7080   39.5750 N   0  0  0  0  0  0  0  0  0  0  0  0
   38.3410   32.0720   39.2430 C   0  0  0  0  0  0  0  0  0  0  0  0
   37.8390   33.2900   39.5700 N   0  0  0  0  0  0  0  0  0  0  0  0
   38.2080   35.1200   40.5010 H   0  0  0  0  0  0  0  0  0  0  0  0
   40.5290   34.5520   41.1630 H   0  0  0  0  0  0  0  0  0  0  0  0
   41.4230   32.3030   40.5460 H   0  0  0  0  0  0  0  0  0  0  0  0
   36.3460   30.5550   40.9590 S   0  0  0  0  0  0  0  0  0  0  0  0
   36.8240   29.0890   41.8290 C   0  0  0  0  0  0  0  0  0  0  0  0
   37.6910   29.1540   42.9160 C   0  0  0  0  0  0  0  0  0  0  0  0
   38.1900   29.9980   43.3970 H   0  0  0  0  0  0  0  0  0  0  0  0
   37.8370   27.8680   43.3340 N   0  0  0  0  0  0  0  0  0  0  0  0
   38.4140   27.5050   44.1290 H   0  0  0  0  0  0  0  0  0  0  0  0
   37.1090   27.0470   42.5580 C   0  0  0  0  0  0  0  0  0  0  0  0
   36.9500   25.9780   42.5480 H   0  0  0  0  0  0  0  0  0  0  0  0
   36.4900   27.8010   41.6380 N   0  0  0  0  0  0  0  0  0  0  0  0
  1  2  1  0  0  0  0
  2  3  2  0  0  0  0
  2 18  1  0  0  0  0
  3 23  1  0  0  0  0
  4  5  1  0  0  0  0
  4  3  1  0  0  0  0
  5 11  1  0  0  0  0
  6 12  1  0  0  0  0
  6  5  1  0  0  0  0
  7  8  1  0  0  0  0
  7  6  2  0  0  0  0
  8  4  2  0  0  0  0
  9  1  2  0  0  0  0
  9  8  1  0  0  0  0
 10  1  1  0  0  0  0
 13  9  1  0  0  0  0
 14 20  1  0  0  0  0
 14 15  1  0  0  0  0
 15 21  1  0  0  0  0
 16 22  1  0  0  0  0
 16 15  2  0  0  0  0
 17 16  1  0  0  0  0
 18 19  1  0  0  0  0
 18 17  2  0  0  0  0
 19 14  2  0  0  0  0
 23 24  1  0  0  0  0
 24 25  2  0  0  0  0
 25 27  1  0  0  0  0
 25 26  1  0  0  0  0
 27 28  1  0  0  0  0
 29 27  1  0  0  0  0
 30 29  1  0  0  0  0
 31 24  1  0  0  0  0
 31 29  2  0  0  0  0
M  END
>  <minimizedAffinity>
-5.1754899

$$$$

 OpenBabel03252509133D

 31 34  0  0  0  0  0  0  0  0999 V2000
   36.7520   26.7110   39.5440 C   0  0  0  0  0  0  0  0  0  0  0  0
   36.6490   28.0480   39.1500 C   0  0  0  0  0  0  0  0  0  0  0  0
   36.7790   29.0810   40.0340 C   0  0  0  0  0  0  0  0  0  0  0  0
   37.0240   28.8300   41.3930 C   0  0  0  0  0  0  0  0  0  0  0  0
   37.2030   29.5760   42.5130 N   0  0  0  0  0  0  0  0  0  0  0  0
   37.4090   28.7420   43.5640 C   0  0  0  0  0  0  0  0  0  0  0  0
   37.3530   27.4940   43.0710 N   0  0  0  0  0  0  0  0  0  0  0  0
   37.1200   27.5110   41.7500 C   0  0  0  0  0  0  0  0  0  0  0  0
   36.9950   26.4350   40.8910 C   0  0  0  0  0  0  0  0  0  0  0  0
   36.6510   25.8900   38.8580 H   0  0  0  0  0  0  0  0  0  0  0  0
   37.1600   30.6130   42.4130 H   0  0  0  0  0  0  0  0  0  0  0  0
   37.5640   29.2300   44.5100 H   0  0  0  0  0  0  0  0  0  0  0  0
   37.0800   25.4070   41.2310 H   0  0  0  0  0  0  0  0  0  0  0  0
   37.1740   28.5410   35.5560 C   0  0  0  0  0  0  0  0  0  0  0  0
   35.9000   28.9190   35.1080 C   0  0  0  0  0  0  0  0  0  0  0  0
   34.8760   28.9980   36.0540 C   0  0  0  0  0  0  0  0  0  0  0  0
   35.1550   28.7070   37.3640 N   0  0  0  0  0  0  0  0  0  0  0  0
   36.3940   28.3500   37.7470 C   0  0  0  0  0  0  0  0  0  0  0  0
   37.4190   28.2610   36.8600 N   0  0  0  0  0  0  0  0  0  0  0  0
   38.0070   28.4640   34.8690 H   0  0  0  0  0  0  0  0  0  0  0  0
   35.7610   29.1330   34.0570 H   0  0  0  0  0  0  0  0  0  0  0  0
   33.8970   29.2870   35.7130 H   0  0  0  0  0  0  0  0  0  0  0  0
   36.6530   30.7870   39.5410 S   0  0  0  0  0  0  0  0  0  0  0  0
   38.0280   31.3150   38.5570 C   0  0  0  0  0  0  0  0  0  0  0  0
   37.8370   31.8210   37.2750 C   0  0  0  0  0  0  0  0  0  0  0  0
   36.9320   31.9790   36.6850 H   0  0  0  0  0  0  0  0  0  0  0  0
   39.0830   32.1210   36.8210 N   0  0  0  0  0  0  0  0  0  0  0  0
   39.3570   32.5250   35.8940 H   0  0  0  0  0  0  0  0  0  0  0  0
   39.9990   31.8230   37.7580 C   0  0  0  0  0  0  0  0  0  0  0  0
   41.0760   31.9030   37.7990 H   0  0  0  0  0  0  0  0  0  0  0  0
   39.3460   31.3290   38.8210 N   0  0  0  0  0  0  0  0  0  0  0  0
  1  9  1  0  0  0  0
  2  1  2  0  0  0  0
  2  3  1  0  0  0  0
  3  4  2  0  0  0  0
  4  8  1  0  0  0  0
  4  5  1  0  0  0  0
  5  6  1  0  0  0  0
  6 12  1  0  0  0  0
  7  6  2  0  0  0  0
  8  7  1  0  0  0  0
  9 13  1  0  0  0  0
  9  8  2  0  0  0  0
 10  1  1  0  0  0  0
 11  5  1  0  0  0  0
 14 19  1  0  0  0  0
 15 14  2  0  0  0  0
 15 16  1  0  0  0  0
 16 17  2  0  0  0  0
 17 18  1  0  0  0  0
 18  2  1  0  0  0  0
 19 18  2  0  0  0  0
 20 14  1  0  0  0  0
 21 15  1  0  0  0  0
 22 16  1  0  0  0  0
 23  3  1  0  0  0  0
 24 31  1  0  0  0  0
 24 23  1  0  0  0  0
 25 24  2  0  0  0  0
 26 25  1  0  0  0  0
 27 25  1  0  0  0  0
 27 29  1  0  0  0  0
 28 27  1  0  0  0  0
 29 30  1  0  0  0  0
 29 31  2  0  0  0  0
M  END
>  <minimizedAffinity>
-5.16321182

$$$$

 OpenBabel03252509133D

 31 34  0  0  0  0  0  0  0  0999 V2000
   34.9440   28.9920   38.7100 C   0  0  0  0  0  0  0  0  0  0  0  0
   36.3180   28.9310   38.9570 C   0  0  0  0  0  0  0  0  0  0  0  0
   37.2410   28.9430   37.9500 C   0  0  0  0  0  0  0  0  0  0  0  0
   36.8330   29.0170   36.6090 C   0  0  0  0  0  0  0  0  0  0  0  0
   37.4430   29.0490   35.3970 N   0  0  0  0  0  0  0  0  0  0  0  0
   36.4900   29.1270   34.4330 C   0  0  0  0  0  0  0  0  0  0  0  0
   35.3090   29.1410   35.0690 N   0  0  0  0  0  0  0  0  0  0  0  0
   35.4800   29.0760   36.3980 C   0  0  0  0  0  0  0  0  0  0  0  0
   34.5120   29.0670   37.3850 C   0  0  0  0  0  0  0  0  0  0  0  0
   34.2080   28.9830   39.4940 H   0  0  0  0  0  0  0  0  0  0  0  0
   38.4840   29.0130   35.3800 H   0  0  0  0  0  0  0  0  0  0  0  0
   36.8650   29.1600   33.4240 H   0  0  0  0  0  0  0  0  0  0  0  0
   33.4510   29.1140   37.1580 H   0  0  0  0  0  0  0  0  0  0  0  0
   37.7200   29.8870   42.2060 C   0  0  0  0  0  0  0  0  0  0  0  0
   37.6510   28.6900   42.9350 C   0  0  0  0  0  0  0  0  0  0  0  0
   37.1200   27.5690   42.2930 C   0  0  0  0  0  0  0  0  0  0  0  0
   36.6950   27.6830   40.9950 N   0  0  0  0  0  0  0  0  0  0  0  0
   36.7820   28.8520   40.3370 C   0  0  0  0  0  0  0  0  0  0  0  0
   37.2910   29.9670   40.9220 N   0  0  0  0  0  0  0  0  0  0  0  0
   38.1210   30.7880   42.6510 H   0  0  0  0  0  0  0  0  0  0  0  0
   38.0080   28.6820   43.9550 H   0  0  0  0  0  0  0  0  0  0  0  0
   37.0660   26.6500   42.8500 H   0  0  0  0  0  0  0  0  0  0  0  0
   38.9940   28.8690   38.2540 S   0  0  0  0  0  0  0  0  0  0  0  0
   39.8350   30.3440   37.7530 C   0  0  0  0  0  0  0  0  0  0  0  0
   39.1320   31.5210   37.5100 C   0  0  0  0  0  0  0  0  0  0  0  0
   38.0670   31.7540   37.5670 H   0  0  0  0  0  0  0  0  0  0  0  0
   40.0750   32.4320   37.1510 N   0  0  0  0  0  0  0  0  0  0  0  0
   39.9410   33.4380   36.8900 H   0  0  0  0  0  0  0  0  0  0  0  0
   41.2940   31.8650   37.1680 C   0  0  0  0  0  0  0  0  0  0  0  0
   42.2880   32.2300   36.9530 H   0  0  0  0  0  0  0  0  0  0  0  0
   41.1400   30.5840   37.5370 N   0  0  0  0  0  0  0  0  0  0  0  0
  1  2  1  0  0  0  0
  1 10  1  0  0  0  0
  2 18  1  0  0  0  0
  3 23  1  0  0  0  0
  3  2  2  0  0  0  0
  4  3  1  0  0  0  0
  5  4  1  0  0  0  0
  6  7  2  0  0  0  0
  6  5  1  0  0  0  0
  7  8  1  0  0  0  0
  8  4  2  0  0  0  0
  8  9  1  0  0  0  0
  9  1  2  0  0  0  0
 11  5  1  0  0  0  0
 12  6  1  0  0  0  0
 13  9  1  0  0  0  0
 14 20  1  0  0  0  0
 14 15  1  0  0  0  0
 15 21  1  0  0  0  0
 16 22  1  0  0  0  0
 16 15  2  0  0  0  0
 17 16  1  0  0  0  0
 18 19  1  0  0  0  0
 18 17  2  0  0  0  0
 19 14  2  0  0  0  0
 24 23  1  0  0  0  0
 25 26  1  0  0  0  0
 25 24  2  0  0  0  0
 27 29  1  0  0  0  0
 27 25  1  0  0  0  0
 28 27  1  0  0  0  0
 29 31  2  0  0  0  0
 30 29  1  0  0  0  0
 31 24  1  0  0  0  0
M  END
>  <minimizedAffinity>
-5.11609697

$$$$

 OpenBabel03252509133D

 31 34  0  0  0  0  0  0  0  0999 V2000
   36.9810   30.1550   36.8910 C   0  0  0  0  0  0  0  0  0  0  0  0
   36.3540   29.4850   37.9450 C   0  0  0  0  0  0  0  0  0  0  0  0
   36.2700   30.0180   39.2000 C   0  0  0  0  0  0  0  0  0  0  0  0
   36.8200   31.2790   39.4770 C   0  0  0  0  0  0  0  0  0  0  0  0
   36.9200   32.0900   40.5620 N   0  0  0  0  0  0  0  0  0  0  0  0
   37.5820   33.2190   40.2010 C   0  0  0  0  0  0  0  0  0  0  0  0
   37.8770   33.0830   38.8990 N   0  0  0  0  0  0  0  0  0  0  0  0
   37.4270   31.9120   38.4250 C   0  0  0  0  0  0  0  0  0  0  0  0
   37.5360   31.4110   37.1410 C   0  0  0  0  0  0  0  0  0  0  0  0
   37.0540   29.7450   35.8990 H   0  0  0  0  0  0  0  0  0  0  0  0
   36.5030   31.7530   41.4560 H   0  0  0  0  0  0  0  0  0  0  0  0
   37.7180   33.9390   40.9900 H   0  0  0  0  0  0  0  0  0  0  0  0
   38.0300   31.9580   36.3440 H   0  0  0  0  0  0  0  0  0  0  0  0
   33.9450   26.8710   37.0540 C   0  0  0  0  0  0  0  0  0  0  0  0
   34.6880   25.6940   37.2320 C   0  0  0  0  0  0  0  0  0  0  0  0
   36.0120   25.8200   37.6570 C   0  0  0  0  0  0  0  0  0  0  0  0
   36.5240   27.0720   37.8810 N   0  0  0  0  0  0  0  0  0  0  0  0
   35.7720   28.1720   37.6970 C   0  0  0  0  0  0  0  0  0  0  0  0
   34.4800   28.0950   37.2840 N   0  0  0  0  0  0  0  0  0  0  0  0
   32.9140   26.8350   36.7260 H   0  0  0  0  0  0  0  0  0  0  0  0
   34.2110   24.7440   37.0350 H   0  0  0  0  0  0  0  0  0  0  0  0
   36.5840   24.9190   37.7940 H   0  0  0  0  0  0  0  0  0  0  0  0
   35.4710   29.1740   40.5490 S   0  0  0  0  0  0  0  0  0  0  0  0
   36.5940   28.7610   41.8540 C   0  0  0  0  0  0  0  0  0  0  0  0
   36.6680   27.4630   42.3510 C   0  0  0  0  0  0  0  0  0  0  0  0
   36.1280   26.5520   42.0830 H   0  0  0  0  0  0  0  0  0  0  0  0
   37.6150   27.5070   43.3250 N   0  0  0  0  0  0  0  0  0  0  0  0
   37.9570   26.7260   43.9350 H   0  0  0  0  0  0  0  0  0  0  0  0
   38.1070   28.7530   43.4340 C   0  0  0  0  0  0  0  0  0  0  0  0
   38.8540   29.2060   44.0700 H   0  0  0  0  0  0  0  0  0  0  0  0
   37.4770   29.5180   42.5300 N   0  0  0  0  0  0  0  0  0  0  0  0
  1  9  2  0  0  0  0
  1  2  1  0  0  0  0
  2  3  2  0  0  0  0
  3  4  1  0  0  0  0
  3 23  1  0  0  0  0
  4  5  1  0  0  0  0
  5 11  1  0  0  0  0
  6  5  1  0  0  0  0
  6 12  1  0  0  0  0
  7  6  2  0  0  0  0
  8  7  1  0  0  0  0
  8  4  2  0  0  0  0
  9  8  1  0  0  0  0
 10  1  1  0  0  0  0
 13  9  1  0  0  0  0
 14 15  2  0  0  0  0
 14 19  1  0  0  0  0
 15 16  1  0  0  0  0
 16 22  1  0  0  0  0
 16 17  2  0  0  0  0
 18 17  1  0  0  0  0
 18  2  1  0  0  0  0
 19 18  2  0  0  0  0
 20 14  1  0  0  0  0
 21 15  1  0  0  0  0
 23 24  1  0  0  0  0
 24 25  2  0  0  0  0
 24 31  1  0  0  0  0
 25 27  1  0  0  0  0
 26 25  1  0  0  0  0
 27 29  1  0  0  0  0
 27 28  1  0  0  0  0
 29 30  1  0  0  0  0
 31 29  2  0  0  0  0
M  END
>  <minimizedAffinity>
-5.08987331

$$$$
