
 OpenBabel03242523103D

 45 49  0  0  1  0  0  0  0  0999 V2000
   45.2280   36.0230   43.4560 C   0  0  0  0  0  0  0  0  0  0  0  0
   46.0290   34.9070   43.2110 C   0  0  0  0  0  0  0  0  0  0  0  0
   46.1180   33.9270   44.1520 C   0  0  0  0  0  0  0  0  0  0  0  0
   45.4020   34.1050   45.3090 N   0  0  0  0  0  0  0  0  0  0  0  0
   44.6340   35.1820   45.5390 C   0  0  0  0  0  0  0  0  0  0  0  0
   44.5550   36.1130   44.6270 N   0  0  0  0  0  0  0  0  0  0  0  0
   45.1440   36.8100   42.7190 H   0  0  0  0  0  0  0  0  0  0  0  0
   44.0530   35.3670   46.4320 H   0  0  0  0  0  0  0  0  0  0  0  0
   46.7300   34.8770   42.0060 N   0  0  0  0  0  0  0  0  0  0  0  0
   48.0110   35.4900   41.8600 C   0  0  0  0  0  0  0  0  0  0  0  0
   48.6990   35.2130   40.5540 C   0  0  0  0  0  0  0  0  0  0  0  0
   48.5550   33.9080   40.0700 N   0  0  0  0  0  0  0  0  0  0  0  0
   47.3040   33.3400   40.1820 C   0  0  0  0  0  0  0  0  0  0  0  0
   46.2930   34.2710   40.8120 C   0  0  0  0  0  0  0  0  0  0  0  0
   48.7170   35.2770   42.7090 H   0  0  0  0  0  0  0  0  0  0  0  0
   47.8370   36.5910   41.9090 H   0  0  0  0  0  0  0  0  0  0  0  0
   48.3260   35.9290   39.7860 H   0  0  0  0  0  0  0  0  0  0  0  0
   49.7870   35.4440   40.6990 H   0  0  0  0  0  0  0  0  0  0  0  0
   49.3800   33.2750   40.1230 H   0  0  0  0  0  0  0  0  0  0  0  0
   47.2200   32.3770   40.7230 H   0  0  0  0  0  0  0  0  0  0  0  0
   46.9050   33.1250   39.1500 H   0  0  0  0  0  0  0  0  0  0  0  0
   45.3620   33.6880   41.0510 H   0  0  0  0  0  0  0  0  0  0  0  0
   46.0100   35.0570   40.0620 H   0  0  0  0  0  0  0  0  0  0  0  0
   46.2770   31.8220   45.1820 C   0  0  0  0  0  0  0  0  0  0  0  0
   46.8030   32.7110   44.2230 C   0  0  0  0  0  0  0  0  0  0  0  0
   47.9140   32.1820   43.6160 C   0  0  0  0  0  0  0  0  0  0  0  0
   48.4700   30.9700   43.8760 C   0  0  0  0  0  0  0  0  0  0  0  0
   47.8860   30.1620   44.8450 C   0  0  0  0  0  0  0  0  0  0  0  0
   46.7800   30.5900   45.5020 C   0  0  0  0  0  0  0  0  0  0  0  0
   48.6870   29.0260   44.8740 O   0  0  0  0  0  0  0  0  0  0  0  0
   49.7030   29.1110   43.8870 C   0  0  2  0  0  0  0  0  0  0  0  0
   49.5830   30.3930   43.2850 O   0  0  0  0  0  0  0  0  0  0  0  0
   45.3830   31.9340   45.8370 H   0  0  0  0  0  0  0  0  0  0  0  0
   48.3190   32.8260   42.8990 H   0  0  0  0  0  0  0  0  0  0  0  0
   46.4160   29.8820   46.2230 H   0  0  0  0  0  0  0  0  0  0  0  0
   50.6830   28.9920   44.3790 H   0  0  0  0  0  0  0  0  0  0  0  0
   49.4070   28.1170   42.9380 O   0  0  0  0  0  0  0  0  0  0  0  0
   49.6860   28.1810   41.5900 C   0  0  0  0  0  0  0  0  0  0  0  0
   50.9790   27.9520   41.1120 C   0  0  0  0  0  0  0  0  0  0  0  0
   51.9200   27.7080   41.6080 H   0  0  0  0  0  0  0  0  0  0  0  0
   50.8960   28.0900   39.7830 N   0  0  0  0  0  0  0  0  0  0  0  0
   51.6030   28.0130   38.9970 H   0  0  0  0  0  0  0  0  0  0  0  0
   49.6400   28.3890   39.4050 C   0  0  0  0  0  0  0  0  0  0  0  0
   49.1890   28.5720   38.4420 H   0  0  0  0  0  0  0  0  0  0  0  0
   48.8850   28.4450   40.5410 N   0  0  0  0  0  0  0  0  0  0  0  0
  1  6  1  0  0  0  0
  2  1  2  0  0  0  0
  2  3  1  0  0  0  0
  3 25  1  0  0  0  0
  3  4  2  0  0  0  0
  4  5  1  0  0  0  0
  5  8  1  0  0  0  0
  6  5  2  0  0  0  0
  7  1  1  0  0  0  0
  9  2  1  0  0  0  0
 10 16  1  0  0  0  0
 10  9  1  0  0  0  0
 10 15  1  0  0  0  0
 11 18  1  0  0  0  0
 11 10  1  0  0  0  0
 12 19  1  0  0  0  0
 12 13  1  0  0  0  0
 12 11  1  0  0  0  0
 13 20  1  0  0  0  0
 13 14  1  0  0  0  0
 14 22  1  0  0  0  0
 14  9  1  0  0  0  0
 17 11  1  0  0  0  0
 21 13  1  0  0  0  0
 23 14  1  0  0  0  0
 24 29  1  0  0  0  0
 24 33  1  0  0  0  0
 25 24  2  0  0  0  0
 26 27  2  0  0  0  0
 26 25  1  0  0  0  0
 27 28  1  0  0  0  0
 28 30  1  0  0  0  0
 28 29  2  0  0  0  0
 29 35  1  0  0  0  0
 31 36  1  1  0  0  0
 31 30  1  0  0  0  0
 32 27  1  0  0  0  0
 32 31  1  0  0  0  0
 34 26  1  0  0  0  0
 37 31  1  0  0  0  0
 38 37  1  0  0  0  0
 39 38  2  0  0  0  0
 39 40  1  0  0  0  0
 41 39  1  0  0  0  0
 42 41  1  0  0  0  0
 43 41  1  0  0  0  0
 43 45  2  0  0  0  0
 44 43  1  0  0  0  0
 45 38  1  0  0  0  0
M  END
>  <minimizedAffinity>
-4.71733046

>  <minimizedRMSD>
1.4353261

$$$$
