
 OpenBabel03242516333D

 43 46  0  0  1  0  0  0  0  0999 V2000
   47.7710   33.9930   39.7350 O   0  0  0  0  0  0  0  0  0  0  0  0
   48.0330   34.7160   41.9760 C   0  0  2  0  0  0  0  0  0  0  0  0
   46.7230   33.9240   42.2430 C   0  0  1  0  0  0  0  0  0  0  0  0
   47.2630   32.7080   42.5400 O   0  0  0  0  0  0  0  0  0  0  0  0
   48.1440   32.4590   41.4690 C   0  0  0  0  0  0  0  0  0  0  0  0
   48.5250   33.8260   40.8590 C   0  0  1  0  0  0  0  0  0  0  0  0
   47.8160   35.7500   41.6670 H   0  0  0  0  0  0  0  0  0  0  0  0
   46.2110   33.9090   41.2540 H   0  0  0  0  0  0  0  0  0  0  0  0
   49.0660   32.0480   41.8990 H   0  0  0  0  0  0  0  0  0  0  0  0
   47.7080   31.7920   40.7090 H   0  0  0  0  0  0  0  0  0  0  0  0
   49.6090   33.9360   40.7100 H   0  0  0  0  0  0  0  0  0  0  0  0
   44.5150   36.0630   44.4830 C   0  0  0  0  0  0  0  0  0  0  0  0
   45.1800   35.6980   43.3080 C   0  0  0  0  0  0  0  0  0  0  0  0
   45.9470   34.5520   43.3200 C   0  0  0  0  0  0  0  0  0  0  0  0
   46.0040   33.8400   44.4990 N   0  0  0  0  0  0  0  0  0  0  0  0
   45.3510   34.2180   45.6120 C   0  0  0  0  0  0  0  0  0  0  0  0
   44.6030   35.3370   45.5980 N   0  0  0  0  0  0  0  0  0  0  0  0
   43.9280   36.9870   44.3900 H   0  0  0  0  0  0  0  0  0  0  0  0
   45.1840   36.1970   42.3580 H   0  0  0  0  0  0  0  0  0  0  0  0
   45.4260   33.6230   46.5180 H   0  0  0  0  0  0  0  0  0  0  0  0
   48.9090   34.5700   43.0120 O   0  0  0  0  0  0  0  0  0  0  0  0
   49.8340   34.5300   42.6540 H   0  0  0  0  0  0  0  0  0  0  0  0
   49.1510   32.9140   38.1570 C   0  0  1  0  0  0  0  0  0  0  0  0
   48.4770   34.3180   38.5780 C   0  0  1  0  0  0  0  0  0  0  0  0
   47.6210   34.4320   37.5480 O   0  0  0  0  0  0  0  0  0  0  0  0
   46.8750   33.2320   37.7170 C   0  0  0  0  0  0  0  0  0  0  0  0
   47.9620   32.1870   37.6070 C   0  0  1  0  0  0  0  0  0  0  0  0
   49.6410   32.4900   39.0150 H   0  0  0  0  0  0  0  0  0  0  0  0
   49.3760   34.9090   38.7210 H   0  0  0  0  0  0  0  0  0  0  0  0
   46.3800   33.1780   38.6860 H   0  0  0  0  0  0  0  0  0  0  0  0
   46.0960   33.1270   36.9420 H   0  0  0  0  0  0  0  0  0  0  0  0
   47.7450   31.3300   38.2750 H   0  0  0  0  0  0  0  0  0  0  0  0
   49.9790   33.2440   37.0760 O   0  0  0  0  0  0  0  0  0  0  0  0
   49.4090   33.7510   36.4370 H   0  0  0  0  0  0  0  0  0  0  0  0
   48.1190   31.8500   36.2770 O   0  0  0  0  0  0  0  0  0  0  0  0
   47.1100   31.4860   35.4010 C   0  0  0  0  0  0  0  0  0  0  0  0
   47.0880   32.0680   34.1370 C   0  0  0  0  0  0  0  0  0  0  0  0
   47.7250   32.7810   33.6710 H   0  0  0  0  0  0  0  0  0  0  0  0
   46.0160   31.5570   33.4700 N   0  0  0  0  0  0  0  0  0  0  0  0
   45.7150   31.7930   32.4820 H   0  0  0  0  0  0  0  0  0  0  0  0
   45.3870   30.6860   34.2810 C   0  0  0  0  0  0  0  0  0  0  0  0
   44.5000   30.1140   34.0420 H   0  0  0  0  0  0  0  0  0  0  0  0
   46.0470   30.6310   35.4710 N   0  0  0  0  0  0  0  0  0  0  0  0
  1  6  1  0  0  0  0
  2  7  1  6  0  0  0
  2  3  1  0  0  0  0
  2 21  1  0  0  0  0
  3  8  1  6  0  0  0
  3  4  1  0  0  0  0
  3 14  1  0  0  0  0
  5  9  1  0  0  0  0
  5  4  1  0  0  0  0
  6 11  1  6  0  0  0
  6  5  1  0  0  0  0
  6  2  1  0  0  0  0
 10  5  1  0  0  0  0
 12 17  1  0  0  0  0
 13 14  1  0  0  0  0
 13 12  2  0  0  0  0
 14 15  2  0  0  0  0
 15 16  1  0  0  0  0
 16 20  1  0  0  0  0
 17 16  2  0  0  0  0
 18 12  1  0  0  0  0
 19 13  1  0  0  0  0
 22 21  1  0  0  0  0
 23 24  1  0  0  0  0
 23 28  1  1  0  0  0
 24 29  1  1  0  0  0
 24  1  1  0  0  0  0
 25 26  1  0  0  0  0
 25 24  1  0  0  0  0
 26 30  1  0  0  0  0
 27 26  1  0  0  0  0
 27 23  1  0  0  0  0
 27 32  1  1  0  0  0
 31 26  1  0  0  0  0
 33 23  1  0  0  0  0
 34 33  1  0  0  0  0
 35 27  1  0  0  0  0
 36 43  1  0  0  0  0
 36 35  1  0  0  0  0
 37 36  2  0  0  0  0
 38 37  1  0  0  0  0
 39 37  1  0  0  0  0
 39 41  1  0  0  0  0
 40 39  1  0  0  0  0
 41 43  2  0  0  0  0
 42 41  1  0  0  0  0
M  END
>  <minimizedAffinity>
-5.60313463

>  <minimizedRMSD>
1.18494642

$$$$
