
 OpenBabel03242519403D

 26 27  0  0  0  0  0  0  0  0999 V2000
   38.3690   32.7320   40.9850 O   0  0  0  0  0  0  0  0  0  0  0  0
   38.9330   31.3240   40.9510 P   0  0  2  0  0  0  0  0  0  0  0  0
   39.1120   30.7860   42.5760 O   0  0  0  0  0  0  0  0  0  0  0  0
   37.7990   27.5460   43.6790 C   0  0  0  0  0  0  0  0  0  0  0  0
   37.8510   28.9270   43.3980 C   0  0  0  0  0  0  0  0  0  0  0  0
   39.0440   29.4270   42.8590 C   0  0  0  0  0  0  0  0  0  0  0  0
   40.0700   28.5740   42.6410 N   0  0  0  0  0  0  0  0  0  0  0  0
   39.9730   27.2570   42.9260 C   0  0  0  0  0  0  0  0  0  0  0  0
   38.8500   26.7440   43.4410 N   0  0  0  0  0  0  0  0  0  0  0  0
   36.8660   27.1660   44.0980 H   0  0  0  0  0  0  0  0  0  0  0  0
   37.0230   29.6010   43.5780 H   0  0  0  0  0  0  0  0  0  0  0  0
   40.8790   26.7020   42.6960 H   0  0  0  0  0  0  0  0  0  0  0  0
   40.4050   31.2180   40.1850 O   0  0  0  0  0  0  0  0  0  0  0  0
   40.5930   31.7130   38.9070 C   0  0  0  0  0  0  0  0  0  0  0  0
   39.7600   31.9530   37.8390 C   0  0  0  0  0  0  0  0  0  0  0  0
   38.7000   31.7420   37.9090 H   0  0  0  0  0  0  0  0  0  0  0  0
   40.4750   32.4510   36.8060 N   0  0  0  0  0  0  0  0  0  0  0  0
   39.9980   32.6930   35.9060 H   0  0  0  0  0  0  0  0  0  0  0  0
   41.7670   32.5340   37.2030 C   0  0  0  0  0  0  0  0  0  0  0  0
   42.5560   32.8970   36.5810 H   0  0  0  0  0  0  0  0  0  0  0  0
   41.8390   32.0820   38.4870 N   0  0  0  0  0  0  0  0  0  0  0  0
   37.7910   30.3210   40.2180 O   0  0  0  0  0  0  0  0  0  0  0  0
   36.5430   30.9020   40.1730 C   0  0  0  0  0  0  0  0  0  0  0  0
   36.0380   31.2040   41.4360 F   0  0  0  0  0  0  0  0  0  0  0  0
   36.5380   31.9760   39.3220 F   0  0  0  0  0  0  0  0  0  0  0  0
   35.6760   29.9390   39.6400 F   0  0  0  0  0  0  0  0  0  0  0  0
  2  1  2  6  0  0  0
  2  3  1  0  0  0  0
  3  6  1  0  0  0  0
  4 10  1  0  0  0  0
  5 11  1  0  0  0  0
  5  4  2  0  0  0  0
  6  5  1  0  0  0  0
  7  6  2  0  0  0  0
  7  8  1  0  0  0  0
  8  9  2  0  0  0  0
  9  4  1  0  0  0  0
 12  8  1  0  0  0  0
 13  2  1  0  0  0  0
 14 13  1  0  0  0  0
 15 16  1  0  0  0  0
 15 14  2  0  0  0  0
 17 19  1  0  0  0  0
 17 15  1  0  0  0  0
 18 17  1  0  0  0  0
 19 21  2  0  0  0  0
 20 19  1  0  0  0  0
 21 14  1  0  0  0  0
 22  2  1  0  0  0  0
 23 22  1  0  0  0  0
 23 24  1  0  0  0  0
 25 23  1  0  0  0  0
 26 23  1  0  0  0  0
M  END
>  <minimizedAffinity>
-4.77726889

$$$$

 OpenBabel03242519403D

 26 27  0  0  0  0  0  0  0  0999 V2000
   36.2690   27.2700   43.5100 O   0  0  0  0  0  0  0  0  0  0  0  0
   37.0150   28.0500   42.4430 P   0  0  2  0  0  0  0  0  0  0  0  0
   35.8500   28.7480   41.3840 O   0  0  0  0  0  0  0  0  0  0  0  0
   36.8580   30.4020   38.2720 C   0  0  0  0  0  0  0  0  0  0  0  0
   36.4620   29.3810   39.1600 C   0  0  0  0  0  0  0  0  0  0  0  0
   36.2410   29.7430   40.4960 C   0  0  0  0  0  0  0  0  0  0  0  0
   36.4170   31.0330   40.8610 N   0  0  0  0  0  0  0  0  0  0  0  0
   36.7980   31.9770   39.9740 C   0  0  0  0  0  0  0  0  0  0  0  0
   37.0180   31.6690   38.6910 N   0  0  0  0  0  0  0  0  0  0  0  0
   37.0280   30.1120   37.2340 H   0  0  0  0  0  0  0  0  0  0  0  0
   36.3250   28.3510   38.8570 H   0  0  0  0  0  0  0  0  0  0  0  0
   36.8970   32.9650   40.4170 H   0  0  0  0  0  0  0  0  0  0  0  0
   38.0600   27.1160   41.5490 O   0  0  0  0  0  0  0  0  0  0  0  0
   38.3970   25.8310   41.9380 C   0  0  0  0  0  0  0  0  0  0  0  0
   37.9070   24.5810   41.6410 C   0  0  0  0  0  0  0  0  0  0  0  0
   37.0730   24.4620   40.9620 H   0  0  0  0  0  0  0  0  0  0  0  0
   38.6170   23.6440   42.3100 N   0  0  0  0  0  0  0  0  0  0  0  0
   38.3800   22.6290   42.2010 H   0  0  0  0  0  0  0  0  0  0  0  0
   39.5620   24.2850   43.0360 C   0  0  0  0  0  0  0  0  0  0  0  0
   40.2680   23.7850   43.6640 H   0  0  0  0  0  0  0  0  0  0  0  0
   39.4270   25.6220   42.8100 N   0  0  0  0  0  0  0  0  0  0  0  0
   37.8270   29.3220   43.1970 O   0  0  0  0  0  0  0  0  0  0  0  0
   39.1190   29.4560   42.7400 C   0  0  0  0  0  0  0  0  0  0  0  0
   39.9990   28.5450   43.3220 F   0  0  0  0  0  0  0  0  0  0  0  0
   39.1540   29.4350   41.3700 F   0  0  0  0  0  0  0  0  0  0  0  0
   39.5580   30.7210   43.1530 F   0  0  0  0  0  0  0  0  0  0  0  0
  2 22  1  0  0  0  0
  2  1  2  1  0  0  0
  3  2  1  0  0  0  0
  4  9  2  0  0  0  0
  4  5  1  0  0  0  0
  5  6  2  0  0  0  0
  6  7  1  0  0  0  0
  6  3  1  0  0  0  0
  8 12  1  0  0  0  0
  8  7  2  0  0  0  0
  9  8  1  0  0  0  0
 10  4  1  0  0  0  0
 11  5  1  0  0  0  0
 13 14  1  0  0  0  0
 13  2  1  0  0  0  0
 14 21  1  0  0  0  0
 15 14  2  0  0  0  0
 15 17  1  0  0  0  0
 16 15  1  0  0  0  0
 17 19  1  0  0  0  0
 18 17  1  0  0  0  0
 19 20  1  0  0  0  0
 21 19  2  0  0  0  0
 23 26  1  0  0  0  0
 23 22  1  0  0  0  0
 23 24  1  0  0  0  0
 25 23  1  0  0  0  0
M  END
>  <minimizedAffinity>
-4.76264238

$$$$

 OpenBabel03242519403D

 26 27  0  0  0  0  0  0  0  0999 V2000
   39.3380   27.5650   40.8910 O   0  0  0  0  0  0  0  0  0  0  0  0
   39.1820   27.5020   42.3990 P   0  0  2  0  0  0  0  0  0  0  0  0
   38.1070   28.7610   42.8740 O   0  0  0  0  0  0  0  0  0  0  0  0
   36.4770   31.1180   40.5890 C   0  0  0  0  0  0  0  0  0  0  0  0
   36.6560   30.0070   41.4390 C   0  0  0  0  0  0  0  0  0  0  0  0
   37.9150   29.8510   42.0340 C   0  0  0  0  0  0  0  0  0  0  0  0
   38.8800   30.7590   41.7670 N   0  0  0  0  0  0  0  0  0  0  0  0
   38.6630   31.8080   40.9460 C   0  0  0  0  0  0  0  0  0  0  0  0
   37.4740   31.9890   40.3590 N   0  0  0  0  0  0  0  0  0  0  0  0
   35.4940   31.2320   40.1290 H   0  0  0  0  0  0  0  0  0  0  0  0
   35.8750   29.2850   41.6440 H   0  0  0  0  0  0  0  0  0  0  0  0
   39.5330   32.4490   40.8300 H   0  0  0  0  0  0  0  0  0  0  0  0
   40.6150   27.6830   43.2220 O   0  0  0  0  0  0  0  0  0  0  0  0
   41.5960   26.7060   43.1910 C   0  0  0  0  0  0  0  0  0  0  0  0
   41.6540   25.3930   43.5960 C   0  0  0  0  0  0  0  0  0  0  0  0
   40.7950   24.9190   44.0540 H   0  0  0  0  0  0  0  0  0  0  0  0
   42.8780   24.8880   43.3260 N   0  0  0  0  0  0  0  0  0  0  0  0
   43.1010   23.8930   43.5690 H   0  0  0  0  0  0  0  0  0  0  0  0
   43.6100   25.8690   42.7480 C   0  0  0  0  0  0  0  0  0  0  0  0
   44.6220   25.7440   42.4300 H   0  0  0  0  0  0  0  0  0  0  0  0
   42.8260   26.9810   42.6660 N   0  0  0  0  0  0  0  0  0  0  0  0
   38.4370   26.0390   42.7880 O   0  0  0  0  0  0  0  0  0  0  0  0
   37.0870   26.0570   42.5160 C   0  0  0  0  0  0  0  0  0  0  0  0
   36.5260   24.7820   42.4620 F   0  0  0  0  0  0  0  0  0  0  0  0
   36.4290   26.8960   43.3760 F   0  0  0  0  0  0  0  0  0  0  0  0
   36.9480   26.5840   41.2250 F   0  0  0  0  0  0  0  0  0  0  0  0
  2  1  2  6  0  0  0
  2 22  1  0  0  0  0
  2  3  1  0  0  0  0
  2 13  1  0  0  0  0
  4  5  1  0  0  0  0
  5 11  1  0  0  0  0
  5  6  2  0  0  0  0
  6  3  1  0  0  0  0
  7  6  1  0  0  0  0
  8  7  2  0  0  0  0
  9  4  2  0  0  0  0
  9  8  1  0  0  0  0
 10  4  1  0  0  0  0
 12  8  1  0  0  0  0
 14 13  1  0  0  0  0
 14 15  2  0  0  0  0
 15 16  1  0  0  0  0
 17 18  1  0  0  0  0
 17 15  1  0  0  0  0
 19 17  1  0  0  0  0
 20 19  1  0  0  0  0
 21 19  2  0  0  0  0
 21 14  1  0  0  0  0
 23 22  1  0  0  0  0
 23 25  1  0  0  0  0
 24 23  1  0  0  0  0
 26 23  1  0  0  0  0
M  END
>  <minimizedAffinity>
-4.68514109

$$$$

 OpenBabel03242519403D

 26 27  0  0  0  0  0  0  0  0999 V2000
   36.1360   31.0490   41.2580 O   0  0  0  0  0  0  0  0  0  0  0  0
   37.2480   30.0170   41.2520 P   0  0  2  0  0  0  0  0  0  0  0  0
   37.0630   29.0290   42.6500 O   0  0  0  0  0  0  0  0  0  0  0  0
   38.0830   25.5150   42.4310 C   0  0  0  0  0  0  0  0  0  0  0  0
   37.2940   26.6760   42.2910 C   0  0  0  0  0  0  0  0  0  0  0  0
   37.8270   27.8750   42.7800 C   0  0  0  0  0  0  0  0  0  0  0  0
   39.0510   27.8610   43.3540 N   0  0  0  0  0  0  0  0  0  0  0  0
   39.7710   26.7230   43.4660 C   0  0  0  0  0  0  0  0  0  0  0  0
   39.2940   25.5590   43.0110 N   0  0  0  0  0  0  0  0  0  0  0  0
   37.6600   24.5850   42.0470 H   0  0  0  0  0  0  0  0  0  0  0  0
   36.3150   26.6750   41.8300 H   0  0  0  0  0  0  0  0  0  0  0  0
   40.7330   26.8710   43.9490 H   0  0  0  0  0  0  0  0  0  0  0  0
   38.7710   30.6830   41.2650 O   0  0  0  0  0  0  0  0  0  0  0  0
   39.1210   31.7070   40.4010 C   0  0  0  0  0  0  0  0  0  0  0  0
   39.1290   31.8450   39.0330 C   0  0  0  0  0  0  0  0  0  0  0  0
   38.8100   31.0320   38.3950 H   0  0  0  0  0  0  0  0  0  0  0  0
   39.5730   33.0790   38.7040 N   0  0  0  0  0  0  0  0  0  0  0  0
   39.6450   33.3600   37.6970 H   0  0  0  0  0  0  0  0  0  0  0  0
   39.8500   33.7370   39.8540 C   0  0  0  0  0  0  0  0  0  0  0  0
   40.2210   34.7390   39.8890 H   0  0  0  0  0  0  0  0  0  0  0  0
   39.5750   32.8970   40.8910 N   0  0  0  0  0  0  0  0  0  0  0  0
   37.0300   29.0210   39.9070 O   0  0  0  0  0  0  0  0  0  0  0  0
   35.6980   28.7980   39.6370 C   0  0  0  0  0  0  0  0  0  0  0  0
   34.9140   28.7330   40.7860 F   0  0  0  0  0  0  0  0  0  0  0  0
   35.2310   29.7020   38.7190 F   0  0  0  0  0  0  0  0  0  0  0  0
   35.6180   27.5270   39.0530 F   0  0  0  0  0  0  0  0  0  0  0  0
  2  1  2  1  0  0  0
  2 13  1  0  0  0  0
  2  3  1  0  0  0  0
  3  6  1  0  0  0  0
  4  9  1  0  0  0  0
  5  4  2  0  0  0  0
  5  6  1  0  0  0  0
  6  7  2  0  0  0  0
  7  8  1  0  0  0  0
  8 12  1  0  0  0  0
  9  8  2  0  0  0  0
 10  4  1  0  0  0  0
 11  5  1  0  0  0  0
 14 21  1  0  0  0  0
 14 13  1  0  0  0  0
 15 14  2  0  0  0  0
 16 15  1  0  0  0  0
 17 15  1  0  0  0  0
 17 19  1  0  0  0  0
 18 17  1  0  0  0  0
 19 20  1  0  0  0  0
 19 21  2  0  0  0  0
 22  2  1  0  0  0  0
 23 22  1  0  0  0  0
 23 24  1  0  0  0  0
 25 23  1  0  0  0  0
 26 23  1  0  0  0  0
M  END
>  <minimizedAffinity>
-4.57466078

$$$$

 OpenBabel03242519403D

 26 27  0  0  0  0  0  0  0  0999 V2000
   36.5090   30.9460   41.1980 O   0  0  0  0  0  0  0  0  0  0  0  0
   37.7090   30.0570   41.4590 P   0  0  2  0  0  0  0  0  0  0  0  0
   39.0100   31.0600   41.9760 O   0  0  0  0  0  0  0  0  0  0  0  0
   41.1790   32.8020   39.5890 C   0  0  0  0  0  0  0  0  0  0  0  0
   40.7000   31.7930   40.4500 C   0  0  0  0  0  0  0  0  0  0  0  0
   39.4970   32.0440   41.1230 C   0  0  0  0  0  0  0  0  0  0  0  0
   38.8660   33.2220   40.9170 N   0  0  0  0  0  0  0  0  0  0  0  0
   39.3630   34.1590   40.0820 C   0  0  0  0  0  0  0  0  0  0  0  0
   40.5100   33.9550   39.4230 N   0  0  0  0  0  0  0  0  0  0  0  0
   42.1170   32.5990   39.0690 H   0  0  0  0  0  0  0  0  0  0  0  0
   41.2140   30.8540   40.6080 H   0  0  0  0  0  0  0  0  0  0  0  0
   38.7450   35.0500   40.0210 H   0  0  0  0  0  0  0  0  0  0  0  0
   38.1960   29.1910   40.1260 O   0  0  0  0  0  0  0  0  0  0  0  0
   37.8480   29.5800   38.8440 C   0  0  0  0  0  0  0  0  0  0  0  0
   38.4170   30.4100   37.9070 C   0  0  0  0  0  0  0  0  0  0  0  0
   39.3460   30.9240   38.1170 H   0  0  0  0  0  0  0  0  0  0  0  0
   37.6470   30.4370   36.7960 N   0  0  0  0  0  0  0  0  0  0  0  0
   37.9300   31.0210   35.9740 H   0  0  0  0  0  0  0  0  0  0  0  0
   36.5840   29.6270   37.0130 C   0  0  0  0  0  0  0  0  0  0  0  0
   35.8090   29.4610   36.2960 H   0  0  0  0  0  0  0  0  0  0  0  0
   36.7060   29.1040   38.2660 N   0  0  0  0  0  0  0  0  0  0  0  0
   37.3310   29.0320   42.7460 O   0  0  0  0  0  0  0  0  0  0  0  0
   36.6140   27.9290   42.3370 C   0  0  0  0  0  0  0  0  0  0  0  0
   37.3800   27.0240   41.6060 F   0  0  0  0  0  0  0  0  0  0  0  0
   35.9670   27.3510   43.3980 F   0  0  0  0  0  0  0  0  0  0  0  0
   35.6350   28.3980   41.4520 F   0  0  0  0  0  0  0  0  0  0  0  0
  2  1  2  6  0  0  0
  2  3  1  0  0  0  0
  2 22  1  0  0  0  0
  4  5  1  0  0  0  0
  5 11  1  0  0  0  0
  5  6  2  0  0  0  0
  6  3  1  0  0  0  0
  7  6  1  0  0  0  0
  8  7  2  0  0  0  0
  9  4  2  0  0  0  0
  9  8  1  0  0  0  0
 10  4  1  0  0  0  0
 12  8  1  0  0  0  0
 13  2  1  0  0  0  0
 14 13  1  0  0  0  0
 15 16  1  0  0  0  0
 15 14  2  0  0  0  0
 17 19  1  0  0  0  0
 17 15  1  0  0  0  0
 18 17  1  0  0  0  0
 19 21  2  0  0  0  0
 20 19  1  0  0  0  0
 21 14  1  0  0  0  0
 23 22  1  0  0  0  0
 23 25  1  0  0  0  0
 24 23  1  0  0  0  0
 26 23  1  0  0  0  0
M  END
>  <minimizedAffinity>
-4.53965235

$$$$

 OpenBabel03242519403D

 26 27  0  0  0  0  0  0  0  0999 V2000
   38.6170   28.7740   40.6060 O   0  0  0  0  0  0  0  0  0  0  0  0
   37.9330   29.8520   41.4260 P   0  0  2  0  0  0  0  0  0  0  0  0
   36.5900   30.4340   40.5190 O   0  0  0  0  0  0  0  0  0  0  0  0
   35.4890   29.0650   37.3020 C   0  0  0  0  0  0  0  0  0  0  0  0
   35.5390   29.3050   38.6910 C   0  0  0  0  0  0  0  0  0  0  0  0
   36.5260   30.1860   39.1530 C   0  0  0  0  0  0  0  0  0  0  0  0
   37.3670   30.7520   38.2590 N   0  0  0  0  0  0  0  0  0  0  0  0
   37.2810   30.4910   36.9370 C   0  0  0  0  0  0  0  0  0  0  0  0
   36.3510   29.6550   36.4590 N   0  0  0  0  0  0  0  0  0  0  0  0
   34.7170   28.3770   36.9510 H   0  0  0  0  0  0  0  0  0  0  0  0
   34.8610   28.8450   39.3980 H   0  0  0  0  0  0  0  0  0  0  0  0
   38.0240   31.0200   36.3460 H   0  0  0  0  0  0  0  0  0  0  0  0
   38.9250   31.1330   41.7970 O   0  0  0  0  0  0  0  0  0  0  0  0
   39.2100   32.1200   40.8700 C   0  0  0  0  0  0  0  0  0  0  0  0
   38.6660   33.3500   40.5820 C   0  0  0  0  0  0  0  0  0  0  0  0
   37.8230   33.7250   41.1460 H   0  0  0  0  0  0  0  0  0  0  0  0
   39.3410   33.9160   39.5560 N   0  0  0  0  0  0  0  0  0  0  0  0
   39.0610   34.8620   39.2020 H   0  0  0  0  0  0  0  0  0  0  0  0
   40.3180   33.0570   39.1820 C   0  0  0  0  0  0  0  0  0  0  0  0
   41.0070   33.2520   38.3890 H   0  0  0  0  0  0  0  0  0  0  0  0
   40.2370   31.9590   39.9850 N   0  0  0  0  0  0  0  0  0  0  0  0
   37.3160   29.1340   42.8230 O   0  0  0  0  0  0  0  0  0  0  0  0
   36.9580   27.8200   42.6160 C   0  0  0  0  0  0  0  0  0  0  0  0
   36.1990   27.6380   41.4620 F   0  0  0  0  0  0  0  0  0  0  0  0
   38.0570   27.0030   42.6700 F   0  0  0  0  0  0  0  0  0  0  0  0
   36.1180   27.4650   43.6800 F   0  0  0  0  0  0  0  0  0  0  0  0
  2  1  2  6  0  0  0
  2 13  1  0  0  0  0
  2 22  1  0  0  0  0
  3  2  1  0  0  0  0
  4  5  1  0  0  0  0
  5  6  2  0  0  0  0
  5 11  1  0  0  0  0
  6  3  1  0  0  0  0
  7  6  1  0  0  0  0
  8  7  2  0  0  0  0
  9  8  1  0  0  0  0
  9  4  2  0  0  0  0
 10  4  1  0  0  0  0
 12  8  1  0  0  0  0
 14 13  1  0  0  0  0
 15 14  2  0  0  0  0
 15 16  1  0  0  0  0
 17 15  1  0  0  0  0
 18 17  1  0  0  0  0
 19 17  1  0  0  0  0
 19 21  2  0  0  0  0
 20 19  1  0  0  0  0
 21 14  1  0  0  0  0
 23 25  1  0  0  0  0
 23 22  1  0  0  0  0
 23 26  1  0  0  0  0
 24 23  1  0  0  0  0
M  END
>  <minimizedAffinity>
-4.50398445

$$$$

 OpenBabel03242519403D

 26 27  0  0  0  0  0  0  0  0999 V2000
   38.0500   29.6720   39.2240 O   0  0  0  0  0  0  0  0  0  0  0  0
   36.5860   30.0570   39.3360 P   0  0  2  0  0  0  0  0  0  0  0  0
   35.8770   29.0920   40.5720 O   0  0  0  0  0  0  0  0  0  0  0  0
   38.1140   28.6620   43.4440 C   0  0  0  0  0  0  0  0  0  0  0  0
   37.2900   29.2960   42.4910 C   0  0  0  0  0  0  0  0  0  0  0  0
   36.6930   28.4830   41.5190 C   0  0  0  0  0  0  0  0  0  0  0  0
   36.9340   27.1530   41.5410 N   0  0  0  0  0  0  0  0  0  0  0  0
   37.7320   26.5900   42.4740 C   0  0  0  0  0  0  0  0  0  0  0  0
   38.3190   27.3340   43.4180 N   0  0  0  0  0  0  0  0  0  0  0  0
   38.5750   29.3020   44.1980 H   0  0  0  0  0  0  0  0  0  0  0  0
   37.1050   30.3620   42.4830 H   0  0  0  0  0  0  0  0  0  0  0  0
   37.8280   25.5130   42.3620 H   0  0  0  0  0  0  0  0  0  0  0  0
   35.7340   29.8340   37.9270 O   0  0  0  0  0  0  0  0  0  0  0  0
   36.3080   29.2330   36.8200 C   0  0  0  0  0  0  0  0  0  0  0  0
   36.7710   29.6960   35.6100 C   0  0  0  0  0  0  0  0  0  0  0  0
   36.7220   30.7500   35.3680 H   0  0  0  0  0  0  0  0  0  0  0  0
   37.2440   28.6620   34.8790 N   0  0  0  0  0  0  0  0  0  0  0  0
   37.6390   28.8320   33.9230 H   0  0  0  0  0  0  0  0  0  0  0  0
   37.0880   27.5350   35.6120 C   0  0  0  0  0  0  0  0  0  0  0  0
   37.3790   26.5630   35.2740 H   0  0  0  0  0  0  0  0  0  0  0  0
   36.5150   27.8840   36.7980 N   0  0  0  0  0  0  0  0  0  0  0  0
   36.5050   31.6620   39.8500 O   0  0  0  0  0  0  0  0  0  0  0  0
   37.3660   32.4760   39.1470 C   0  0  0  0  0  0  0  0  0  0  0  0
   38.6670   32.4480   39.6420 F   0  0  0  0  0  0  0  0  0  0  0  0
   37.2960   32.2120   37.8050 F   0  0  0  0  0  0  0  0  0  0  0  0
   36.9170   33.7890   39.3410 F   0  0  0  0  0  0  0  0  0  0  0  0
  2  1  2  6  0  0  0
  2 22  1  0  0  0  0
  2  3  1  0  0  0  0
  3  6  1  0  0  0  0
  4 10  1  0  0  0  0
  5  4  2  0  0  0  0
  6  7  2  0  0  0  0
  6  5  1  0  0  0  0
  7  8  1  0  0  0  0
  8  9  2  0  0  0  0
  9  4  1  0  0  0  0
 11  5  1  0  0  0  0
 12  8  1  0  0  0  0
 13  2  1  0  0  0  0
 14 13  1  0  0  0  0
 15 14  2  0  0  0  0
 16 15  1  0  0  0  0
 17 15  1  0  0  0  0
 17 19  1  0  0  0  0
 18 17  1  0  0  0  0
 19 21  2  0  0  0  0
 20 19  1  0  0  0  0
 21 14  1  0  0  0  0
 23 26  1  0  0  0  0
 23 24  1  0  0  0  0
 23 22  1  0  0  0  0
 25 23  1  0  0  0  0
M  END
>  <minimizedAffinity>
-4.47671509

$$$$

 OpenBabel03242519403D

 26 27  0  0  0  0  0  0  0  0999 V2000
   40.5710   30.9190   40.5650 O   0  0  0  0  0  0  0  0  0  0  0  0
   39.4380   31.0700   39.5670 P   0  0  2  0  0  0  0  0  0  0  0  0
   38.3730   29.7320   39.7680 O   0  0  0  0  0  0  0  0  0  0  0  0
   38.8100   27.0950   42.2760 C   0  0  0  0  0  0  0  0  0  0  0  0
   38.8540   27.7610   41.0340 C   0  0  0  0  0  0  0  0  0  0  0  0
   38.3370   29.0620   40.9860 C   0  0  0  0  0  0  0  0  0  0  0  0
   37.8300   29.6060   42.1140 N   0  0  0  0  0  0  0  0  0  0  0  0
   37.8090   28.9300   43.2830 C   0  0  0  0  0  0  0  0  0  0  0  0
   38.2930   27.6850   43.3670 N   0  0  0  0  0  0  0  0  0  0  0  0
   39.2140   26.0820   42.3050 H   0  0  0  0  0  0  0  0  0  0  0  0
   39.2620   27.3150   40.1360 H   0  0  0  0  0  0  0  0  0  0  0  0
   37.3700   29.4980   44.0990 H   0  0  0  0  0  0  0  0  0  0  0  0
   39.9490   31.1150   37.9860 O   0  0  0  0  0  0  0  0  0  0  0  0
   41.0670   31.8380   37.6060 C   0  0  0  0  0  0  0  0  0  0  0  0
   42.2350   31.5230   36.9540 C   0  0  0  0  0  0  0  0  0  0  0  0
   42.4250   30.5120   36.6200 H   0  0  0  0  0  0  0  0  0  0  0  0
   43.0040   32.6300   36.8390 N   0  0  0  0  0  0  0  0  0  0  0  0
   43.9370   32.5740   36.3650 H   0  0  0  0  0  0  0  0  0  0  0  0
   42.3350   33.6570   37.4130 C   0  0  0  0  0  0  0  0  0  0  0  0
   42.7130   34.6550   37.4650 H   0  0  0  0  0  0  0  0  0  0  0  0
   41.1510   33.1720   37.8840 N   0  0  0  0  0  0  0  0  0  0  0  0
   38.5700   32.4610   39.9670 O   0  0  0  0  0  0  0  0  0  0  0  0
   37.3250   32.4820   39.3790 C   0  0  0  0  0  0  0  0  0  0  0  0
   37.3410   32.0500   38.0550 F   0  0  0  0  0  0  0  0  0  0  0  0
   36.4120   31.8120   40.1520 F   0  0  0  0  0  0  0  0  0  0  0  0
   36.9310   33.8260   39.3330 F   0  0  0  0  0  0  0  0  0  0  0  0
  2  3  1  0  0  0  0
  2 22  1  0  0  0  0
  2  1  2  1  0  0  0
  3  6  1  0  0  0  0
  4 10  1  0  0  0  0
  4  9  1  0  0  0  0
  5  4  2  0  0  0  0
  6  5  1  0  0  0  0
  6  7  2  0  0  0  0
  7  8  1  0  0  0  0
  8  9  2  0  0  0  0
  8 12  1  0  0  0  0
 11  5  1  0  0  0  0
 13  2  1  0  0  0  0
 14 21  1  0  0  0  0
 14 13  1  0  0  0  0
 15 14  2  0  0  0  0
 16 15  1  0  0  0  0
 17 15  1  0  0  0  0
 17 19  1  0  0  0  0
 18 17  1  0  0  0  0
 19 20  1  0  0  0  0
 19 21  2  0  0  0  0
 23 22  1  0  0  0  0
 23 25  1  0  0  0  0
 24 23  1  0  0  0  0
 26 23  1  0  0  0  0
M  END
>  <minimizedAffinity>
-4.46619034

$$$$

 OpenBabel03242519403D

 26 27  0  0  0  0  0  0  0  0999 V2000
   37.8770   29.1650   38.6960 O   0  0  0  0  0  0  0  0  0  0  0  0
   36.7330   30.1210   38.9780 P   0  0  2  0  0  0  0  0  0  0  0  0
   37.1800   31.6730   38.3780 O   0  0  0  0  0  0  0  0  0  0  0  0
   38.7580   34.1430   40.5790 C   0  0  0  0  0  0  0  0  0  0  0  0
   37.7490   33.4090   39.9210 C   0  0  0  0  0  0  0  0  0  0  0  0
   38.1610   32.4050   39.0360 C   0  0  0  0  0  0  0  0  0  0  0  0
   39.4850   32.1920   38.8590 N   0  0  0  0  0  0  0  0  0  0  0  0
   40.4150   32.9210   39.5120 C   0  0  0  0  0  0  0  0  0  0  0  0
   40.0590   33.8880   40.3650 N   0  0  0  0  0  0  0  0  0  0  0  0
   38.4280   34.9230   41.2670 H   0  0  0  0  0  0  0  0  0  0  0  0
   36.6920   33.5890   40.0700 H   0  0  0  0  0  0  0  0  0  0  0  0
   41.4340   32.6330   39.2670 H   0  0  0  0  0  0  0  0  0  0  0  0
   36.3640   30.2570   40.5930 O   0  0  0  0  0  0  0  0  0  0  0  0
   37.1640   29.6870   41.5680 C   0  0  0  0  0  0  0  0  0  0  0  0
   38.3570   30.0390   42.1550 C   0  0  0  0  0  0  0  0  0  0  0  0
   38.8700   30.9460   41.8610 H   0  0  0  0  0  0  0  0  0  0  0  0
   38.7050   29.1090   43.0720 N   0  0  0  0  0  0  0  0  0  0  0  0
   39.5910   29.2170   43.6200 H   0  0  0  0  0  0  0  0  0  0  0  0
   37.7400   28.1590   43.0800 C   0  0  0  0  0  0  0  0  0  0  0  0
   37.7600   27.2990   43.7140 H   0  0  0  0  0  0  0  0  0  0  0  0
   36.7990   28.5120   42.1590 N   0  0  0  0  0  0  0  0  0  0  0  0
   35.3940   29.6110   38.0870 O   0  0  0  0  0  0  0  0  0  0  0  0
   34.6700   28.6430   38.7480 C   0  0  0  0  0  0  0  0  0  0  0  0
   35.4660   27.6160   39.2490 F   0  0  0  0  0  0  0  0  0  0  0  0
   33.8610   29.2070   39.6990 F   0  0  0  0  0  0  0  0  0  0  0  0
   33.8400   28.0450   37.7900 F   0  0  0  0  0  0  0  0  0  0  0  0
  2  1  2  6  0  0  0
  2 13  1  0  0  0  0
  3  2  1  0  0  0  0
  3  6  1  0  0  0  0
  4 10  1  0  0  0  0
  5 11  1  0  0  0  0
  5  4  2  0  0  0  0
  6  5  1  0  0  0  0
  7  6  2  0  0  0  0
  7  8  1  0  0  0  0
  8  9  2  0  0  0  0
  9  4  1  0  0  0  0
 12  8  1  0  0  0  0
 13 14  1  0  0  0  0
 14 15  2  0  0  0  0
 14 21  1  0  0  0  0
 15 17  1  0  0  0  0
 16 15  1  0  0  0  0
 17 19  1  0  0  0  0
 17 18  1  0  0  0  0
 19 20  1  0  0  0  0
 21 19  2  0  0  0  0
 22 23  1  0  0  0  0
 22  2  1  0  0  0  0
 23 24  1  0  0  0  0
 23 25  1  0  0  0  0
 26 23  1  0  0  0  0
M  END
>  <minimizedAffinity>
-4.39227772

$$$$
