
 OpenBabel03252506463D

 41 44  0  0  1  0  0  0  0  0999 V2000
   49.6800   33.6040   41.4540 N   0  0  1  0  0  0  0  0  0  0  0  0
   50.7290   33.0500   42.2710 C   0  0  0  0  0  0  0  0  0  0  0  0
   51.2610   31.7500   41.7350 C   0  0  0  0  0  0  0  0  0  0  0  0
   50.1790   30.6990   41.8850 C   0  0  0  0  0  0  0  0  0  0  0  0
   48.8250   31.2890   41.5910 C   0  0  0  0  0  0  0  0  0  0  0  0
   49.0000   32.5490   40.7830 C   0  0  2  0  0  0  0  0  0  0  0  0
   51.5400   33.7840   42.3860 H   0  0  0  0  0  0  0  0  0  0  0  0
   50.3340   32.8450   43.3060 H   0  0  0  0  0  0  0  0  0  0  0  0
   51.6830   31.8180   40.7360 H   0  0  0  0  0  0  0  0  0  0  0  0
   52.0750   31.4470   42.4210 H   0  0  0  0  0  0  0  0  0  0  0  0
   50.4380   29.8720   41.1890 H   0  0  0  0  0  0  0  0  0  0  0  0
   50.2100   30.2980   42.9200 H   0  0  0  0  0  0  0  0  0  0  0  0
   48.1730   30.6240   41.0190 H   0  0  0  0  0  0  0  0  0  0  0  0
   48.3800   31.5960   42.5670 H   0  0  0  0  0  0  0  0  0  0  0  0
   47.9620   32.9300   40.5740 H   0  0  0  0  0  0  0  0  0  0  0  0
   47.4260   34.7370   41.9970 C   0  0  1  0  0  0  0  0  0  0  0  0
   48.4910   35.7540   41.8020 C   0  0  0  0  0  0  0  0  0  0  0  0
   48.8400   34.3950   42.2920 C   0  0  2  0  0  0  0  0  0  0  0  0
   46.9530   34.3720   41.0480 H   0  0  0  0  0  0  0  0  0  0  0  0
   48.7870   36.0260   40.7530 H   0  0  0  0  0  0  0  0  0  0  0  0
   48.5210   36.6290   42.4800 H   0  0  0  0  0  0  0  0  0  0  0  0
   49.0830   34.3210   43.3820 H   0  0  0  0  0  0  0  0  0  0  0  0
   45.5460   35.9670   43.1270 C   0  0  0  0  0  0  0  0  0  0  0  0
   46.4660   34.9140   43.0930 C   0  0  0  0  0  0  0  0  0  0  0  0
   46.4260   34.0000   44.1620 C   0  0  0  0  0  0  0  0  0  0  0  0
   45.5180   34.1740   45.1570 N   0  0  0  0  0  0  0  0  0  0  0  0
   44.6450   35.2150   45.1430 C   0  0  0  0  0  0  0  0  0  0  0  0
   44.6510   36.1180   44.1290 N   0  0  0  0  0  0  0  0  0  0  0  0
   45.6030   36.6580   42.2830 H   0  0  0  0  0  0  0  0  0  0  0  0
   47.1210   33.1670   44.1840 H   0  0  0  0  0  0  0  0  0  0  0  0
   43.9480   35.3060   45.9640 H   0  0  0  0  0  0  0  0  0  0  0  0
   49.5400   32.2110   39.4780 N   0  0  0  0  0  0  0  0  0  0  0  0
   50.2890   31.5680   39.0690 H   0  0  0  0  0  0  0  0  0  0  0  0
   48.8190   32.9900   38.4950 C   0  0  0  0  0  0  0  0  0  0  0  0
   47.8580   33.9710   38.3840 C   0  0  0  0  0  0  0  0  0  0  0  0
   47.4710   34.3040   39.3150 H   0  0  0  0  0  0  0  0  0  0  0  0
   47.6630   34.2460   37.0840 N   0  0  0  0  0  0  0  0  0  0  0  0
   46.9620   34.9720   36.8040 H   0  0  0  0  0  0  0  0  0  0  0  0
   48.4720   33.4730   36.3390 C   0  0  0  0  0  0  0  0  0  0  0  0
   48.4620   33.5500   35.2630 H   0  0  0  0  0  0  0  0  0  0  0  0
   49.1830   32.7000   37.2100 N   0  0  0  0  0  0  0  0  0  0  0  0
  1  2  1  1  0  0  0
  1 18  1  0  0  0  0
  2  7  1  0  0  0  0
  2  8  1  0  0  0  0
  3  4  1  0  0  0  0
  3  2  1  0  0  0  0
  3 10  1  0  0  0  0
  4 12  1  0  0  0  0
  5  4  1  0  0  0  0
  5 14  1  0  0  0  0
  6 15  1  6  0  0  0
  6  1  1  0  0  0  0
  6  5  1  0  0  0  0
  9  3  1  0  0  0  0
 11  4  1  0  0  0  0
 13  5  1  0  0  0  0
 16 19  1  6  0  0  0
 16 18  1  0  0  0  0
 16 24  1  0  0  0  0
 17 16  1  0  0  0  0
 17 18  1  0  0  0  0
 17 21  1  0  0  0  0
 18 22  1  1  0  0  0
 20 17  1  0  0  0  0
 23 28  1  0  0  0  0
 24 23  2  0  0  0  0
 24 25  1  0  0  0  0
 25 30  1  0  0  0  0
 25 26  2  0  0  0  0
 27 26  1  0  0  0  0
 27 31  1  0  0  0  0
 28 27  2  0  0  0  0
 29 23  1  0  0  0  0
 32  6  1  0  0  0  0
 33 32  1  0  0  0  0
 34 32  1  0  0  0  0
 35 34  2  0  0  0  0
 35 36  1  0  0  0  0
 37 35  1  0  0  0  0
 38 37  1  0  0  0  0
 39 37  1  0  0  0  0
 39 41  2  0  0  0  0
 40 39  1  0  0  0  0
 41 34  1  0  0  0  0
M  END
>  <minimizedAffinity>
-5.5298748

>  <minimizedRMSD>
2.66499138

$$$$
