
 OpenBabel03252507293D

 44 47  0  0  1  0  0  0  0  0999 V2000
   46.8070   31.2190   46.2390 C   0  0  2  0  0  0  0  0  0  0  0  0
   45.6510   30.2510   46.3250 C   0  0  0  0  0  0  0  0  0  0  0  0
   45.1430   30.2470   47.7450 C   0  0  0  0  0  0  0  0  0  0  0  0
   44.8690   31.6090   48.2960 C   0  0  0  0  0  0  0  0  0  0  0  0
   46.0020   32.5620   48.0590 C   0  0  0  0  0  0  0  0  0  0  0  0
   46.3750   32.5840   46.6050 C   0  0  2  0  0  0  0  0  0  0  0  0
   47.5180   30.8440   47.0310 H   0  0  0  0  0  0  0  0  0  0  0  0
   44.9000   30.3310   45.5510 H   0  0  0  0  0  0  0  0  0  0  0  0
   46.1210   29.2340   46.1840 H   0  0  0  0  0  0  0  0  0  0  0  0
   45.9190   29.7410   48.3840 H   0  0  0  0  0  0  0  0  0  0  0  0
   44.2340   29.6250   47.7940 H   0  0  0  0  0  0  0  0  0  0  0  0
   44.7380   31.4960   49.3920 H   0  0  0  0  0  0  0  0  0  0  0  0
   43.8970   31.9940   47.9090 H   0  0  0  0  0  0  0  0  0  0  0  0
   45.8000   33.5200   48.5230 H   0  0  0  0  0  0  0  0  0  0  0  0
   46.8810   32.1320   48.6200 H   0  0  0  0  0  0  0  0  0  0  0  0
   47.2090   33.3000   46.4790 H   0  0  0  0  0  0  0  0  0  0  0  0
   47.5300   31.1580   44.9830 C   0  0  0  0  0  0  0  0  0  0  0  0
   48.0900   29.9110   44.6100 C   0  0  0  0  0  0  0  0  0  0  0  0
   48.8060   29.8660   43.3900 C   0  0  0  0  0  0  0  0  0  0  0  0
   48.9130   31.0290   42.6520 N   0  0  0  0  0  0  0  0  0  0  0  0
   48.3420   32.1840   43.0890 C   0  0  0  0  0  0  0  0  0  0  0  0
   47.6670   32.2420   44.2270 N   0  0  0  0  0  0  0  0  0  0  0  0
   48.0330   28.9830   45.1460 H   0  0  0  0  0  0  0  0  0  0  0  0
   49.2560   28.9590   43.0430 H   0  0  0  0  0  0  0  0  0  0  0  0
   48.5080   33.3800   42.2560 C   0  0  0  0  0  0  0  0  0  0  0  0
   47.9950   33.4700   41.0170 C   0  0  0  0  0  0  0  0  0  0  0  0
   48.1630   34.6090   40.2380 C   0  0  0  0  0  0  0  0  0  0  0  0
   48.8730   35.6510   40.7700 C   0  0  0  0  0  0  0  0  0  0  0  0
   49.3980   35.5680   42.0280 C   0  0  0  0  0  0  0  0  0  0  0  0
   49.2190   34.4390   42.7750 N   0  0  0  0  0  0  0  0  0  0  0  0
   47.4500   32.6060   40.6730 H   0  0  0  0  0  0  0  0  0  0  0  0
   47.7000   34.5450   39.2640 H   0  0  0  0  0  0  0  0  0  0  0  0
   48.9590   36.5010   40.1010 H   0  0  0  0  0  0  0  0  0  0  0  0
   49.9460   36.4180   42.3930 H   0  0  0  0  0  0  0  0  0  0  0  0
   45.2700   32.9920   45.7850 N   0  0  0  0  0  0  0  0  0  0  0  0
   44.4720   32.3090   45.6100 H   0  0  0  0  0  0  0  0  0  0  0  0
   45.1280   34.2640   45.1520 C   0  0  0  0  0  0  0  0  0  0  0  0
   44.5970   35.4410   45.6350 C   0  0  0  0  0  0  0  0  0  0  0  0
   44.1900   35.6180   46.6100 H   0  0  0  0  0  0  0  0  0  0  0  0
   44.6450   36.4180   44.7130 N   0  0  0  0  0  0  0  0  0  0  0  0
   44.3080   37.4120   44.8180 H   0  0  0  0  0  0  0  0  0  0  0  0
   45.2050   35.8730   43.6380 C   0  0  0  0  0  0  0  0  0  0  0  0
   45.4020   36.3820   42.6920 H   0  0  0  0  0  0  0  0  0  0  0  0
   45.4900   34.5990   43.9010 N   0  0  0  0  0  0  0  0  0  0  0  0
  1  2  1  0  0  0  0
  1  6  1  0  0  0  0
  1  7  1  1  0  0  0
  2  3  1  0  0  0  0
  3 11  1  0  0  0  0
  3  4  1  0  0  0  0
  3 10  1  0  0  0  0
  4 12  1  0  0  0  0
  5  4  1  0  0  0  0
  5 14  1  0  0  0  0
  5 15  1  0  0  0  0
  6 16  1  6  0  0  0
  6  5  1  0  0  0  0
  8  2  1  0  0  0  0
  9  2  1  0  0  0  0
 13  4  1  0  0  0  0
 17  1  1  0  0  0  0
 18 17  1  0  0  0  0
 18 23  1  0  0  0  0
 19 18  2  0  0  0  0
 20 21  2  0  0  0  0
 20 19  1  0  0  0  0
 21 22  1  0  0  0  0
 22 17  2  0  0  0  0
 24 19  1  0  0  0  0
 25 30  1  0  0  0  0
 25 21  1  0  0  0  0
 26 25  2  0  0  0  0
 27 28  2  0  0  0  0
 27 26  1  0  0  0  0
 28 29  1  0  0  0  0
 29 34  1  0  0  0  0
 29 30  2  0  0  0  0
 31 26  1  0  0  0  0
 32 27  1  0  0  0  0
 33 28  1  0  0  0  0
 35  6  1  0  0  0  0
 36 35  1  0  0  0  0
 37 38  2  0  0  0  0
 37 35  1  0  0  0  0
 38 39  1  0  0  0  0
 40 41  1  0  0  0  0
 40 38  1  0  0  0  0
 42 44  2  0  0  0  0
 42 40  1  0  0  0  0
 43 42  1  0  0  0  0
 44 37  1  0  0  0  0
M  END
>  <minimizedAffinity>
-6.29565096

>  <minimizedRMSD>
4.15399837

$$$$
