
 OpenBabel03252505163D

 24 26  0  0  0  0  0  0  0  0999 V2000
   40.2440   29.2070   42.5240 C   0  0  0  0  0  0  0  0  0  0  0  0
   39.1780   28.3080   42.7030 C   0  0  0  0  0  0  0  0  0  0  0  0
   37.9360   28.7560   42.2810 C   0  0  0  0  0  0  0  0  0  0  0  0
   37.7910   30.0040   41.7260 N   0  0  0  0  0  0  0  0  0  0  0  0
   38.8580   30.8390   41.5720 C   0  0  0  0  0  0  0  0  0  0  0  0
   40.0760   30.4320   41.9740 N   0  0  0  0  0  0  0  0  0  0  0  0
   41.2440   28.9400   42.8250 H   0  0  0  0  0  0  0  0  0  0  0  0
   39.3120   27.3490   43.1340 H   0  0  0  0  0  0  0  0  0  0  0  0
   36.7230   27.8790   42.3930 C   0  0  0  0  0  0  0  0  0  0  0  0
   37.0580   26.4150   42.5680 C   0  0  0  0  0  0  0  0  0  0  0  0
   36.4030   27.2780   43.6800 C   0  0  0  0  0  0  0  0  0  0  0  0
   35.9480   28.1240   41.6500 H   0  0  0  0  0  0  0  0  0  0  0  0
   38.0880   26.0890   42.6930 H   0  0  0  0  0  0  0  0  0  0  0  0
   36.4080   25.7290   42.0050 H   0  0  0  0  0  0  0  0  0  0  0  0
   37.0220   27.3260   44.5730 H   0  0  0  0  0  0  0  0  0  0  0  0
   35.3370   26.9750   43.8700 H   0  0  0  0  0  0  0  0  0  0  0  0
   38.5180   32.1220   40.9650 C   0  0  0  0  0  0  0  0  0  0  0  0
   37.2720   32.2910   40.3540 C   0  0  0  0  0  0  0  0  0  0  0  0
   36.4600   31.5580   40.2550 H   0  0  0  0  0  0  0  0  0  0  0  0
   37.2040   33.5470   39.8760 N   0  0  0  0  0  0  0  0  0  0  0  0
   36.3740   33.9310   39.3710 H   0  0  0  0  0  0  0  0  0  0  0  0
   38.3830   34.1610   40.1790 C   0  0  0  0  0  0  0  0  0  0  0  0
   38.5210   35.1790   39.8760 H   0  0  0  0  0  0  0  0  0  0  0  0
   39.1880   33.2840   40.8470 N   0  0  0  0  0  0  0  0  0  0  0  0
  1  2  1  0  0  0  0
  1  7  1  0  0  0  0
  2  8  1  0  0  0  0
  3  9  1  0  0  0  0
  3  2  2  0  0  0  0
  4  3  1  0  0  0  0
  5  4  2  0  0  0  0
  5  6  1  0  0  0  0
  6  1  2  0  0  0  0
  9 10  1  0  0  0  0
  9 11  1  0  0  0  0
 10 13  1  0  0  0  0
 10 11  1  0  0  0  0
 11 16  1  0  0  0  0
 11 15  1  0  0  0  0
 12  9  1  0  0  0  0
 14 10  1  0  0  0  0
 17  5  1  0  0  0  0
 18 17  2  0  0  0  0
 19 18  1  0  0  0  0
 20 22  1  0  0  0  0
 20 18  1  0  0  0  0
 21 20  1  0  0  0  0
 22 24  2  0  0  0  0
 23 22  1  0  0  0  0
 24 17  1  0  0  0  0
M  END
>  <minimizedAffinity>
-4.76372004

$$$$

 OpenBabel03252505163D

 24 26  0  0  0  0  0  0  0  0999 V2000
   35.6320   29.1760   40.4740 C   0  0  0  0  0  0  0  0  0  0  0  0
   36.1790   28.4140   41.5210 C   0  0  0  0  0  0  0  0  0  0  0  0
   37.2610   28.9810   42.1760 C   0  0  0  0  0  0  0  0  0  0  0  0
   37.7430   30.2110   41.8010 N   0  0  0  0  0  0  0  0  0  0  0  0
   37.1750   30.9130   40.7780 C   0  0  0  0  0  0  0  0  0  0  0  0
   36.1240   30.3860   40.1230 N   0  0  0  0  0  0  0  0  0  0  0  0
   34.7890   28.8090   39.9110 H   0  0  0  0  0  0  0  0  0  0  0  0
   35.7920   27.4650   41.7940 H   0  0  0  0  0  0  0  0  0  0  0  0
   37.9180   28.2790   43.3290 C   0  0  0  0  0  0  0  0  0  0  0  0
   38.2570   26.8350   43.0330 C   0  0  0  0  0  0  0  0  0  0  0  0
   39.3300   27.9380   43.2360 C   0  0  0  0  0  0  0  0  0  0  0  0
   37.4250   28.4840   44.2920 H   0  0  0  0  0  0  0  0  0  0  0  0
   38.1100   26.4190   42.0390 H   0  0  0  0  0  0  0  0  0  0  0  0
   38.0710   26.1440   43.8700 H   0  0  0  0  0  0  0  0  0  0  0  0
   39.9550   28.0610   42.3540 H   0  0  0  0  0  0  0  0  0  0  0  0
   39.9020   27.7930   44.1930 H   0  0  0  0  0  0  0  0  0  0  0  0
   37.8160   32.1980   40.5190 C   0  0  0  0  0  0  0  0  0  0  0  0
   37.3090   33.0360   39.5210 C   0  0  0  0  0  0  0  0  0  0  0  0
   36.4480   32.8610   38.8610 H   0  0  0  0  0  0  0  0  0  0  0  0
   38.0670   34.1470   39.4790 N   0  0  0  0  0  0  0  0  0  0  0  0
   37.9000   34.9370   38.8170 H   0  0  0  0  0  0  0  0  0  0  0  0
   39.0330   34.0150   40.4320 C   0  0  0  0  0  0  0  0  0  0  0  0
   39.7420   34.8090   40.5520 H   0  0  0  0  0  0  0  0  0  0  0  0
   38.8770   32.8180   41.0680 N   0  0  0  0  0  0  0  0  0  0  0  0
  1  2  1  0  0  0  0
  2  8  1  0  0  0  0
  2  3  2  0  0  0  0
  3  9  1  0  0  0  0
  4  3  1  0  0  0  0
  5  4  2  0  0  0  0
  6  1  2  0  0  0  0
  6  5  1  0  0  0  0
  7  1  1  0  0  0  0
  9 12  1  0  0  0  0
 10 11  1  0  0  0  0
 10  9  1  0  0  0  0
 10 14  1  0  0  0  0
 11  9  1  0  0  0  0
 11 16  1  0  0  0  0
 13 10  1  0  0  0  0
 15 11  1  0  0  0  0
 17  5  1  0  0  0  0
 17 24  1  0  0  0  0
 18 17  2  0  0  0  0
 19 18  1  0  0  0  0
 20 18  1  0  0  0  0
 20 22  1  0  0  0  0
 21 20  1  0  0  0  0
 22 23  1  0  0  0  0
 22 24  2  0  0  0  0
M  END
>  <minimizedAffinity>
-4.69797421

$$$$

 OpenBabel03252505163D

 24 26  0  0  0  0  0  0  0  0999 V2000
   35.4700   29.6590   40.0910 C   0  0  0  0  0  0  0  0  0  0  0  0
   35.8760   28.6260   40.9540 C   0  0  0  0  0  0  0  0  0  0  0  0
   37.0350   28.8660   41.6760 C   0  0  0  0  0  0  0  0  0  0  0  0
   37.7180   30.0490   41.5330 N   0  0  0  0  0  0  0  0  0  0  0  0
   37.2810   31.0220   40.6830 C   0  0  0  0  0  0  0  0  0  0  0  0
   36.1600   30.8150   39.9680 N   0  0  0  0  0  0  0  0  0  0  0  0
   34.5790   29.5540   39.4920 H   0  0  0  0  0  0  0  0  0  0  0  0
   35.3330   27.7200   41.0480 H   0  0  0  0  0  0  0  0  0  0  0  0
   37.5580   27.8520   42.6510 C   0  0  0  0  0  0  0  0  0  0  0  0
   36.5340   27.4290   43.6800 C   0  0  0  0  0  0  0  0  0  0  0  0
   37.0730   26.4820   42.5740 C   0  0  0  0  0  0  0  0  0  0  0  0
   38.5630   28.0990   43.0260 H   0  0  0  0  0  0  0  0  0  0  0  0
   35.5050   27.7770   43.6190 H   0  0  0  0  0  0  0  0  0  0  0  0
   36.9350   27.3060   44.6970 H   0  0  0  0  0  0  0  0  0  0  0  0
   36.2780   26.1270   41.9220 H   0  0  0  0  0  0  0  0  0  0  0  0
   37.7200   25.6680   43.0010 H   0  0  0  0  0  0  0  0  0  0  0  0
   38.1300   32.2090   40.6600 C   0  0  0  0  0  0  0  0  0  0  0  0
   39.3930   32.1680   41.2580 C   0  0  0  0  0  0  0  0  0  0  0  0
   39.8730   31.3250   41.7750 H   0  0  0  0  0  0  0  0  0  0  0  0
   39.9710   33.3740   41.1050 N   0  0  0  0  0  0  0  0  0  0  0  0
   40.9230   33.6100   41.4630 H   0  0  0  0  0  0  0  0  0  0  0  0
   39.0910   34.1610   40.4230 C   0  0  0  0  0  0  0  0  0  0  0  0
   39.3740   35.1700   40.2020 H   0  0  0  0  0  0  0  0  0  0  0  0
   37.9620   33.4440   40.1520 N   0  0  0  0  0  0  0  0  0  0  0  0
  1  2  1  0  0  0  0
  2  8  1  0  0  0  0
  2  3  2  0  0  0  0
  3  9  1  0  0  0  0
  4  3  1  0  0  0  0
  5  4  2  0  0  0  0
  6  1  2  0  0  0  0
  6  5  1  0  0  0  0
  7  1  1  0  0  0  0
  9 12  1  0  0  0  0
  9 10  1  0  0  0  0
 10 14  1  0  0  0  0
 11  9  1  0  0  0  0
 11 16  1  0  0  0  0
 11 10  1  0  0  0  0
 13 10  1  0  0  0  0
 15 11  1  0  0  0  0
 17  5  1  0  0  0  0
 17 18  2  0  0  0  0
 18 19  1  0  0  0  0
 20 18  1  0  0  0  0
 20 21  1  0  0  0  0
 22 20  1  0  0  0  0
 23 22  1  0  0  0  0
 24 22  2  0  0  0  0
 24 17  1  0  0  0  0
M  END
>  <minimizedAffinity>
-4.65361071

$$$$

 OpenBabel03252505163D

 24 26  0  0  0  0  0  0  0  0999 V2000
   39.9280   27.0900   43.4040 C   0  0  0  0  0  0  0  0  0  0  0  0
   39.4860   25.7700   43.2040 C   0  0  0  0  0  0  0  0  0  0  0  0
   38.2930   25.6350   42.5110 C   0  0  0  0  0  0  0  0  0  0  0  0
   37.6110   26.7400   42.0640 N   0  0  0  0  0  0  0  0  0  0  0  0
   38.0840   28.0010   42.2830 C   0  0  0  0  0  0  0  0  0  0  0  0
   39.2400   28.1620   42.9530 N   0  0  0  0  0  0  0  0  0  0  0  0
   40.8470   27.2850   43.9340 H   0  0  0  0  0  0  0  0  0  0  0  0
   40.0270   24.9310   43.5590 H   0  0  0  0  0  0  0  0  0  0  0  0
   37.7270   24.2780   42.2090 C   0  0  0  0  0  0  0  0  0  0  0  0
   36.7650   24.2780   41.0420 C   0  0  0  0  0  0  0  0  0  0  0  0
   38.1550   23.5870   41.0010 C   0  0  0  0  0  0  0  0  0  0  0  0
   37.4070   23.7370   43.1130 H   0  0  0  0  0  0  0  0  0  0  0  0
   36.6060   25.1770   40.4500 H   0  0  0  0  0  0  0  0  0  0  0  0
   35.8810   23.6380   41.1810 H   0  0  0  0  0  0  0  0  0  0  0  0
   38.7920   24.0050   40.2250 H   0  0  0  0  0  0  0  0  0  0  0  0
   38.0640   22.4680   40.9730 H   0  0  0  0  0  0  0  0  0  0  0  0
   37.2320   29.0520   41.7360 C   0  0  0  0  0  0  0  0  0  0  0  0
   35.9500   28.7360   41.2780 C   0  0  0  0  0  0  0  0  0  0  0  0
   35.4560   27.7540   41.2660 H   0  0  0  0  0  0  0  0  0  0  0  0
   35.3730   29.8660   40.8270 N   0  0  0  0  0  0  0  0  0  0  0  0
   34.4090   29.9050   40.4290 H   0  0  0  0  0  0  0  0  0  0  0  0
   36.2730   30.8760   40.9980 C   0  0  0  0  0  0  0  0  0  0  0  0
   35.9930   31.8640   40.6950 H   0  0  0  0  0  0  0  0  0  0  0  0
   37.4120   30.3740   41.5560 N   0  0  0  0  0  0  0  0  0  0  0  0
  1  7  1  0  0  0  0
  2  1  1  0  0  0  0
  2  8  1  0  0  0  0
  3  2  2  0  0  0  0
  4  5  2  0  0  0  0
  4  3  1  0  0  0  0
  5  6  1  0  0  0  0
  6  1  2  0  0  0  0
  9  3  1  0  0  0  0
  9 12  1  0  0  0  0
 10 14  1  0  0  0  0
 10  9  1  0  0  0  0
 11 10  1  0  0  0  0
 11  9  1  0  0  0  0
 13 10  1  0  0  0  0
 15 11  1  0  0  0  0
 16 11  1  0  0  0  0
 17  5  1  0  0  0  0
 18 17  2  0  0  0  0
 19 18  1  0  0  0  0
 20 22  1  0  0  0  0
 20 18  1  0  0  0  0
 21 20  1  0  0  0  0
 22 24  2  0  0  0  0
 23 22  1  0  0  0  0
 24 17  1  0  0  0  0
M  END
>  <minimizedAffinity>
-4.61433935

$$$$

 OpenBabel03252505163D

 24 26  0  0  0  0  0  0  0  0999 V2000
   36.5700   27.0200   38.9590 C   0  0  0  0  0  0  0  0  0  0  0  0
   36.8010   26.4840   40.2380 C   0  0  0  0  0  0  0  0  0  0  0  0
   37.0840   27.4060   41.2340 C   0  0  0  0  0  0  0  0  0  0  0  0
   37.1280   28.7500   40.9550 N   0  0  0  0  0  0  0  0  0  0  0  0
   36.8940   29.2200   39.6960 C   0  0  0  0  0  0  0  0  0  0  0  0
   36.6180   28.3480   38.7090 N   0  0  0  0  0  0  0  0  0  0  0  0
   36.3440   26.3730   38.1270 H   0  0  0  0  0  0  0  0  0  0  0  0
   36.7630   25.4430   40.4320 H   0  0  0  0  0  0  0  0  0  0  0  0
   37.3240   26.9630   42.6480 C   0  0  0  0  0  0  0  0  0  0  0  0
   37.7300   28.0940   43.5670 C   0  0  0  0  0  0  0  0  0  0  0  0
   36.3720   27.3490   43.6800 C   0  0  0  0  0  0  0  0  0  0  0  0
   37.9160   26.0370   42.7120 H   0  0  0  0  0  0  0  0  0  0  0  0
   37.7380   29.1230   43.2160 H   0  0  0  0  0  0  0  0  0  0  0  0
   38.5170   27.8320   44.2900 H   0  0  0  0  0  0  0  0  0  0  0  0
   35.5280   28.0220   43.5440 H   0  0  0  0  0  0  0  0  0  0  0  0
   36.3170   26.7200   44.6090 H   0  0  0  0  0  0  0  0  0  0  0  0
   36.9810   30.6730   39.5850 C   0  0  0  0  0  0  0  0  0  0  0  0
   36.7760   31.4680   40.7160 C   0  0  0  0  0  0  0  0  0  0  0  0
   36.5450   31.1440   41.7400 H   0  0  0  0  0  0  0  0  0  0  0  0
   36.9080   32.7570   40.3550 N   0  0  0  0  0  0  0  0  0  0  0  0
   36.8030   33.5590   41.0160 H   0  0  0  0  0  0  0  0  0  0  0  0
   37.1920   32.7780   39.0210 C   0  0  0  0  0  0  0  0  0  0  0  0
   37.3330   33.7260   38.5440 H   0  0  0  0  0  0  0  0  0  0  0  0
   37.2350   31.4970   38.5510 N   0  0  0  0  0  0  0  0  0  0  0  0
  1  2  1  0  0  0  0
  2  8  1  0  0  0  0
  2  3  2  0  0  0  0
  3  9  1  0  0  0  0
  4  3  1  0  0  0  0
  5  4  2  0  0  0  0
  6  1  2  0  0  0  0
  6  5  1  0  0  0  0
  7  1  1  0  0  0  0
  9 12  1  0  0  0  0
  9 10  1  0  0  0  0
  9 11  1  0  0  0  0
 10 11  1  0  0  0  0
 10 14  1  0  0  0  0
 11 16  1  0  0  0  0
 13 10  1  0  0  0  0
 15 11  1  0  0  0  0
 17  5  1  0  0  0  0
 17 18  2  0  0  0  0
 18 19  1  0  0  0  0
 20 18  1  0  0  0  0
 20 21  1  0  0  0  0
 22 20  1  0  0  0  0
 23 22  1  0  0  0  0
 24 22  2  0  0  0  0
 24 17  1  0  0  0  0
M  END
>  <minimizedAffinity>
-4.60110378

$$$$

 OpenBabel03252505163D

 24 26  0  0  0  0  0  0  0  0999 V2000
   38.1610   28.4960   38.9980 C   0  0  0  0  0  0  0  0  0  0  0  0
   37.5540   27.8360   40.0810 C   0  0  0  0  0  0  0  0  0  0  0  0
   37.2180   28.6370   41.1610 C   0  0  0  0  0  0  0  0  0  0  0  0
   37.4760   29.9860   41.1430 N   0  0  0  0  0  0  0  0  0  0  0  0
   38.0660   30.5800   40.0660 C   0  0  0  0  0  0  0  0  0  0  0  0
   38.4040   29.8260   39.0030 N   0  0  0  0  0  0  0  0  0  0  0  0
   38.4550   27.9480   38.1170 H   0  0  0  0  0  0  0  0  0  0  0  0
   37.3640   26.7930   40.0750 H   0  0  0  0  0  0  0  0  0  0  0  0
   36.5400   28.0570   42.3680 C   0  0  0  0  0  0  0  0  0  0  0  0
   37.1940   26.7880   42.8680 C   0  0  0  0  0  0  0  0  0  0  0  0
   37.2130   28.1250   43.6570 C   0  0  0  0  0  0  0  0  0  0  0  0
   35.4420   28.0450   42.2780 H   0  0  0  0  0  0  0  0  0  0  0  0
   38.1180   26.4250   42.4250 H   0  0  0  0  0  0  0  0  0  0  0  0
   36.4870   26.0110   43.1980 H   0  0  0  0  0  0  0  0  0  0  0  0
   38.2270   28.4820   43.8240 H   0  0  0  0  0  0  0  0  0  0  0  0
   36.5820   28.0710   44.5860 H   0  0  0  0  0  0  0  0  0  0  0  0
   38.2620   32.0170   40.2210 C   0  0  0  0  0  0  0  0  0  0  0  0
   37.3810   32.9070   39.5990 C   0  0  0  0  0  0  0  0  0  0  0  0
   36.5090   32.6720   38.9730 H   0  0  0  0  0  0  0  0  0  0  0  0
   37.7730   34.1610   39.8910 N   0  0  0  0  0  0  0  0  0  0  0  0
   37.2820   35.0160   39.5480 H   0  0  0  0  0  0  0  0  0  0  0  0
   38.8800   34.0660   40.6820 C   0  0  0  0  0  0  0  0  0  0  0  0
   39.3430   34.9700   41.0210 H   0  0  0  0  0  0  0  0  0  0  0  0
   39.1780   32.7500   40.8820 N   0  0  0  0  0  0  0  0  0  0  0  0
  1  6  2  0  0  0  0
  1  2  1  0  0  0  0
  2  3  2  0  0  0  0
  3  9  1  0  0  0  0
  4  3  1  0  0  0  0
  5 17  1  0  0  0  0
  5  4  2  0  0  0  0
  6  5  1  0  0  0  0
  7  1  1  0  0  0  0
  8  2  1  0  0  0  0
  9 10  1  0  0  0  0
  9 11  1  0  0  0  0
 10 14  1  0  0  0  0
 10 11  1  0  0  0  0
 11 15  1  0  0  0  0
 11 16  1  0  0  0  0
 12  9  1  0  0  0  0
 13 10  1  0  0  0  0
 17 24  1  0  0  0  0
 18 20  1  0  0  0  0
 18 17  2  0  0  0  0
 19 18  1  0  0  0  0
 20 22  1  0  0  0  0
 21 20  1  0  0  0  0
 22 24  2  0  0  0  0
 22 23  1  0  0  0  0
M  END
>  <minimizedAffinity>
-4.26041889

$$$$

 OpenBabel03252505163D

 24 26  0  0  0  0  0  0  0  0999 V2000
   35.5910   29.1620   39.9090 C   0  0  0  0  0  0  0  0  0  0  0  0
   35.9100   28.7920   41.2270 C   0  0  0  0  0  0  0  0  0  0  0  0
   37.1350   29.2380   41.6960 C   0  0  0  0  0  0  0  0  0  0  0  0
   37.9620   29.9910   40.8980 N   0  0  0  0  0  0  0  0  0  0  0  0
   37.6040   30.3250   39.6250 C   0  0  0  0  0  0  0  0  0  0  0  0
   36.4210   29.9050   39.1420 N   0  0  0  0  0  0  0  0  0  0  0  0
   34.6560   28.8570   39.4650 H   0  0  0  0  0  0  0  0  0  0  0  0
   35.2580   28.2090   41.8260 H   0  0  0  0  0  0  0  0  0  0  0  0
   37.5810   28.9320   43.0970 C   0  0  0  0  0  0  0  0  0  0  0  0
   36.9180   27.7040   43.6800 C   0  0  0  0  0  0  0  0  0  0  0  0
   38.4290   27.7730   43.3310 C   0  0  0  0  0  0  0  0  0  0  0  0
   37.6180   29.8260   43.7390 H   0  0  0  0  0  0  0  0  0  0  0  0
   36.2650   27.0820   43.0730 H   0  0  0  0  0  0  0  0  0  0  0  0
   36.6340   27.8000   44.7390 H   0  0  0  0  0  0  0  0  0  0  0  0
   38.7060   27.0300   42.5850 H   0  0  0  0  0  0  0  0  0  0  0  0
   39.0710   27.7660   44.2530 H   0  0  0  0  0  0  0  0  0  0  0  0
   38.6020   31.1290   38.9250 C   0  0  0  0  0  0  0  0  0  0  0  0
   38.8330   32.4480   39.3250 C   0  0  0  0  0  0  0  0  0  0  0  0
   38.3470   33.0060   40.1380 H   0  0  0  0  0  0  0  0  0  0  0  0
   39.7880   32.9680   38.5320 N   0  0  0  0  0  0  0  0  0  0  0  0
   40.1470   33.9450   38.6210 H   0  0  0  0  0  0  0  0  0  0  0  0
   40.1530   31.9960   37.6480 C   0  0  0  0  0  0  0  0  0  0  0  0
   40.9110   32.2240   36.9250 H   0  0  0  0  0  0  0  0  0  0  0  0
   39.4240   30.8690   37.8910 N   0  0  0  0  0  0  0  0  0  0  0  0
  1  2  1  0  0  0  0
  2  3  2  0  0  0  0
  2  8  1  0  0  0  0
  3  9  1  0  0  0  0
  4  3  1  0  0  0  0
  5  4  2  0  0  0  0
  6  5  1  0  0  0  0
  6  1  2  0  0  0  0
  7  1  1  0  0  0  0
  9 11  1  0  0  0  0
  9 10  1  0  0  0  0
  9 12  1  0  0  0  0
 10 14  1  0  0  0  0
 11 10  1  0  0  0  0
 11 16  1  0  0  0  0
 13 10  1  0  0  0  0
 15 11  1  0  0  0  0
 17 18  2  0  0  0  0
 17  5  1  0  0  0  0
 18 19  1  0  0  0  0
 20 21  1  0  0  0  0
 20 18  1  0  0  0  0
 22 24  2  0  0  0  0
 22 20  1  0  0  0  0
 23 22  1  0  0  0  0
 24 17  1  0  0  0  0
M  END
>  <minimizedAffinity>
-4.16477299

$$$$

 OpenBabel03252505163D

 24 26  0  0  0  0  0  0  0  0999 V2000
   35.1710   29.1780   40.1420 C   0  0  0  0  0  0  0  0  0  0  0  0
   35.8380   30.2860   40.6920 C   0  0  0  0  0  0  0  0  0  0  0  0
   36.6330   31.0060   39.8140 C   0  0  0  0  0  0  0  0  0  0  0  0
   36.7400   30.6340   38.4960 N   0  0  0  0  0  0  0  0  0  0  0  0
   36.0700   29.5490   38.0100 C   0  0  0  0  0  0  0  0  0  0  0  0
   35.2920   28.8310   38.8400 N   0  0  0  0  0  0  0  0  0  0  0  0
   34.5320   28.5620   40.7550 H   0  0  0  0  0  0  0  0  0  0  0  0
   35.7420   30.5560   41.7120 H   0  0  0  0  0  0  0  0  0  0  0  0
   37.3760   32.2270   40.2730 C   0  0  0  0  0  0  0  0  0  0  0  0
   38.5680   32.5620   39.4030 C   0  0  0  0  0  0  0  0  0  0  0  0
   37.2920   33.4440   39.4790 C   0  0  0  0  0  0  0  0  0  0  0  0
   37.5380   32.2450   41.3610 H   0  0  0  0  0  0  0  0  0  0  0  0
   38.7680   32.0040   38.4910 H   0  0  0  0  0  0  0  0  0  0  0  0
   39.4560   32.9000   39.9580 H   0  0  0  0  0  0  0  0  0  0  0  0
   36.8060   33.5370   38.5100 H   0  0  0  0  0  0  0  0  0  0  0  0
   37.4930   34.4240   39.9920 H   0  0  0  0  0  0  0  0  0  0  0  0
   36.3010   29.3030   36.5900 C   0  0  0  0  0  0  0  0  0  0  0  0
   37.4710   28.6580   36.1800 C   0  0  0  0  0  0  0  0  0  0  0  0
   38.2950   28.2860   36.8050 H   0  0  0  0  0  0  0  0  0  0  0  0
   37.4470   28.5520   34.8390 N   0  0  0  0  0  0  0  0  0  0  0  0
   38.2070   28.1070   34.2780 H   0  0  0  0  0  0  0  0  0  0  0  0
   36.2830   29.1190   34.4090 C   0  0  0  0  0  0  0  0  0  0  0  0
   36.0810   29.1320   33.3570 H   0  0  0  0  0  0  0  0  0  0  0  0
   35.5820   29.5790   35.4850 N   0  0  0  0  0  0  0  0  0  0  0  0
  1  2  1  0  0  0  0
  1  7  1  0  0  0  0
  2  8  1  0  0  0  0
  3  9  1  0  0  0  0
  3  2  2  0  0  0  0
  4  3  1  0  0  0  0
  5  4  2  0  0  0  0
  5  6  1  0  0  0  0
  6  1  2  0  0  0  0
  9 12  1  0  0  0  0
 10 11  1  0  0  0  0
 10 14  1  0  0  0  0
 10  9  1  0  0  0  0
 11 16  1  0  0  0  0
 11  9  1  0  0  0  0
 13 10  1  0  0  0  0
 15 11  1  0  0  0  0
 17  5  1  0  0  0  0
 18 17  2  0  0  0  0
 18 19  1  0  0  0  0
 20 18  1  0  0  0  0
 21 20  1  0  0  0  0
 22 20  1  0  0  0  0
 22 24  2  0  0  0  0
 23 22  1  0  0  0  0
 24 17  1  0  0  0  0
M  END
>  <minimizedAffinity>
-4.11308908

$$$$

 OpenBabel03252505163D

 24 26  0  0  0  0  0  0  0  0999 V2000
   38.9970   28.7600   43.0230 C   0  0  0  0  0  0  0  0  0  0  0  0
   38.1330   29.7000   42.4340 C   0  0  0  0  0  0  0  0  0  0  0  0
   37.1620   29.1800   41.5920 C   0  0  0  0  0  0  0  0  0  0  0  0
   37.0780   27.8280   41.3670 N   0  0  0  0  0  0  0  0  0  0  0  0
   37.9400   26.9550   41.9640 C   0  0  0  0  0  0  0  0  0  0  0  0
   38.8930   27.4320   42.7870 N   0  0  0  0  0  0  0  0  0  0  0  0
   39.7800   29.0780   43.6910 H   0  0  0  0  0  0  0  0  0  0  0  0
   38.2160   30.7400   42.6210 H   0  0  0  0  0  0  0  0  0  0  0  0
   36.1620   30.0780   40.9230 C   0  0  0  0  0  0  0  0  0  0  0  0
   36.7330   31.4240   40.5360 C   0  0  0  0  0  0  0  0  0  0  0  0
   36.3000   30.3520   39.5000 C   0  0  0  0  0  0  0  0  0  0  0  0
   35.1850   30.0820   41.4300 H   0  0  0  0  0  0  0  0  0  0  0  0
   37.7920   31.6380   40.6610 H   0  0  0  0  0  0  0  0  0  0  0  0
   36.0530   32.2720   40.7070 H   0  0  0  0  0  0  0  0  0  0  0  0
   37.1310   30.0370   38.8720 H   0  0  0  0  0  0  0  0  0  0  0  0
   35.3830   30.6670   38.9320 H   0  0  0  0  0  0  0  0  0  0  0  0
   37.7030   25.5590   41.6130 C   0  0  0  0  0  0  0  0  0  0  0  0
   38.5090   24.5590   42.1640 C   0  0  0  0  0  0  0  0  0  0  0  0
   39.3470   24.6730   42.8660 H   0  0  0  0  0  0  0  0  0  0  0  0
   38.0930   23.3720   41.6880 N   0  0  0  0  0  0  0  0  0  0  0  0
   38.5300   22.4590   41.9450 H   0  0  0  0  0  0  0  0  0  0  0  0
   37.0430   23.6150   40.8520 C   0  0  0  0  0  0  0  0  0  0  0  0
   36.5720   22.7830   40.3690 H   0  0  0  0  0  0  0  0  0  0  0  0
   36.8070   24.9590   40.8070 N   0  0  0  0  0  0  0  0  0  0  0  0
  1  7  1  0  0  0  0
  2  8  1  0  0  0  0
  2  1  2  0  0  0  0
  3  2  1  0  0  0  0
  4  3  2  0  0  0  0
  4  5  1  0  0  0  0
  5  6  2  0  0  0  0
  6  1  1  0  0  0  0
  9 12  1  0  0  0  0
  9  3  1  0  0  0  0
 10 13  1  0  0  0  0
 10 14  1  0  0  0  0
 10  9  1  0  0  0  0
 11 10  1  0  0  0  0
 11  9  1  0  0  0  0
 15 11  1  0  0  0  0
 16 11  1  0  0  0  0
 17  5  1  0  0  0  0
 17 18  2  0  0  0  0
 18 19  1  0  0  0  0
 20 21  1  0  0  0  0
 20 18  1  0  0  0  0
 22 20  1  0  0  0  0
 23 22  1  0  0  0  0
 24 22  2  0  0  0  0
 24 17  1  0  0  0  0
M  END
>  <minimizedAffinity>
-4.09958267

$$$$
