
 OpenBabel03252505143D

 24 26  0  0  0  0  0  0  0  0999 V2000
   44.6830   35.8260   44.4040 C   0  0  0  0  0  0  0  0  0  0  0  0
   45.3590   35.9360   43.1760 C   0  0  0  0  0  0  0  0  0  0  0  0
   46.2670   34.9270   42.8960 C   0  0  0  0  0  0  0  0  0  0  0  0
   46.4710   33.9000   43.7850 N   0  0  0  0  0  0  0  0  0  0  0  0
   45.7890   33.8380   44.9650 C   0  0  0  0  0  0  0  0  0  0  0  0
   44.9010   34.8040   45.2630 N   0  0  0  0  0  0  0  0  0  0  0  0
   43.9600   36.5680   44.7000 H   0  0  0  0  0  0  0  0  0  0  0  0
   45.1860   36.7380   42.5040 H   0  0  0  0  0  0  0  0  0  0  0  0
   47.0320   34.9150   41.6050 C   0  0  0  0  0  0  0  0  0  0  0  0
   48.4330   35.4710   41.7370 C   0  0  0  0  0  0  0  0  0  0  0  0
   48.1330   33.9760   41.4450 C   0  0  0  0  0  0  0  0  0  0  0  0
   46.4360   35.2730   40.7520 H   0  0  0  0  0  0  0  0  0  0  0  0
   48.8350   35.7480   42.7090 H   0  0  0  0  0  0  0  0  0  0  0  0
   48.7530   36.1010   40.8930 H   0  0  0  0  0  0  0  0  0  0  0  0
   48.5280   33.3250   42.2220 H   0  0  0  0  0  0  0  0  0  0  0  0
   48.4320   33.6860   40.4010 H   0  0  0  0  0  0  0  0  0  0  0  0
   46.1320   32.6790   45.7830 C   0  0  0  0  0  0  0  0  0  0  0  0
   46.8110   32.8600   46.9910 C   0  0  0  0  0  0  0  0  0  0  0  0
   47.1470   33.8020   47.4450 H   0  0  0  0  0  0  0  0  0  0  0  0
   47.0080   31.6510   47.5490 N   0  0  0  0  0  0  0  0  0  0  0  0
   47.4960   31.5070   48.4620 H   0  0  0  0  0  0  0  0  0  0  0  0
   46.4620   30.7240   46.7110 C   0  0  0  0  0  0  0  0  0  0  0  0
   46.5200   29.6900   46.9880 H   0  0  0  0  0  0  0  0  0  0  0  0
   45.9250   31.3570   45.6280 N   0  0  0  0  0  0  0  0  0  0  0  0
  1  7  1  0  0  0  0
  1  6  1  0  0  0  0
  2  1  2  0  0  0  0
  3  2  1  0  0  0  0
  3  4  2  0  0  0  0
  4  5  1  0  0  0  0
  5  6  2  0  0  0  0
  5 17  1  0  0  0  0
  8  2  1  0  0  0  0
  9 10  1  0  0  0  0
  9  3  1  0  0  0  0
 10 13  1  0  0  0  0
 11  9  1  0  0  0  0
 11 10  1  0  0  0  0
 11 15  1  0  0  0  0
 12  9  1  0  0  0  0
 14 10  1  0  0  0  0
 16 11  1  0  0  0  0
 17 18  2  0  0  0  0
 18 19  1  0  0  0  0
 18 20  1  0  0  0  0
 20 21  1  0  0  0  0
 22 23  1  0  0  0  0
 22 20  1  0  0  0  0
 24 17  1  0  0  0  0
 24 22  2  0  0  0  0
M  END
>  <minimizedAffinity>
-4.55138969

>  <minimizedRMSD>
0.520728827

$$$$
