
 OpenBabel03252505143D

 24 26  0  0  0  0  0  0  0  0999 V2000
   44.6840   35.7530   44.3080 C   0  0  0  0  0  0  0  0  0  0  0  0
   45.3750   35.8530   43.0870 C   0  0  0  0  0  0  0  0  0  0  0  0
   46.3650   34.9060   42.8770 C   0  0  0  0  0  0  0  0  0  0  0  0
   46.6290   33.9450   43.8220 N   0  0  0  0  0  0  0  0  0  0  0  0
   45.9290   33.8890   44.9910 C   0  0  0  0  0  0  0  0  0  0  0  0
   44.9630   34.7960   45.2230 N   0  0  0  0  0  0  0  0  0  0  0  0
   43.8990   36.4500   44.5520 H   0  0  0  0  0  0  0  0  0  0  0  0
   45.1540   36.6030   42.3720 H   0  0  0  0  0  0  0  0  0  0  0  0
   47.1560   34.8890   41.6010 C   0  0  0  0  0  0  0  0  0  0  0  0
   48.5230   35.5220   41.7380 C   0  0  0  0  0  0  0  0  0  0  0  0
   48.3060   34.0040   41.4950 C   0  0  0  0  0  0  0  0  0  0  0  0
   46.5590   35.1850   40.7240 H   0  0  0  0  0  0  0  0  0  0  0  0
   48.8900   35.8530   42.7070 H   0  0  0  0  0  0  0  0  0  0  0  0
   48.8270   36.1380   40.8780 H   0  0  0  0  0  0  0  0  0  0  0  0
   48.7190   33.4020   42.3020 H   0  0  0  0  0  0  0  0  0  0  0  0
   48.6410   33.6930   40.4680 H   0  0  0  0  0  0  0  0  0  0  0  0
   46.3440   32.8040   45.8740 C   0  0  0  0  0  0  0  0  0  0  0  0
   46.1440   31.4770   45.4830 C   0  0  0  0  0  0  0  0  0  0  0  0
   45.6920   31.1060   44.5530 H   0  0  0  0  0  0  0  0  0  0  0  0
   46.6060   30.6740   46.4590 N   0  0  0  0  0  0  0  0  0  0  0  0
   46.5740   29.6310   46.4140 H   0  0  0  0  0  0  0  0  0  0  0  0
   47.0890   31.4780   47.4480 C   0  0  0  0  0  0  0  0  0  0  0  0
   47.5050   31.0170   48.3220 H   0  0  0  0  0  0  0  0  0  0  0  0
   46.9280   32.7850   47.0880 N   0  0  0  0  0  0  0  0  0  0  0  0
  1  7  1  0  0  0  0
  1  6  1  0  0  0  0
  2  1  2  0  0  0  0
  3  2  1  0  0  0  0
  3  4  2  0  0  0  0
  4  5  1  0  0  0  0
  5  6  2  0  0  0  0
  5 17  1  0  0  0  0
  8  2  1  0  0  0  0
  9 10  1  0  0  0  0
  9  3  1  0  0  0  0
 10 13  1  0  0  0  0
 11  9  1  0  0  0  0
 11 10  1  0  0  0  0
 11 15  1  0  0  0  0
 12  9  1  0  0  0  0
 14 10  1  0  0  0  0
 16 11  1  0  0  0  0
 17 24  1  0  0  0  0
 18 17  2  0  0  0  0
 18 20  1  0  0  0  0
 19 18  1  0  0  0  0
 20 22  1  0  0  0  0
 21 20  1  0  0  0  0
 22 23  1  0  0  0  0
 24 22  2  0  0  0  0
M  END
>  <minimizedAffinity>
-4.66238832

>  <minimizedRMSD>
0.392873734

$$$$
