
 OpenBabel03252508073D

 43 46  0  0  0  0  0  0  0  0999 V2000
   45.3050   35.8990   42.8230 C   0  0  0  0  0  0  0  0  0  0  0  0
   45.5430   34.5350   42.8610 C   0  0  0  0  0  0  0  0  0  0  0  0
   45.3100   33.8280   44.0150 C   0  0  0  0  0  0  0  0  0  0  0  0
   44.8360   34.5410   45.1010 N   0  0  0  0  0  0  0  0  0  0  0  0
   44.6100   35.8510   45.0580 C   0  0  0  0  0  0  0  0  0  0  0  0
   44.8500   36.5210   43.9090 N   0  0  0  0  0  0  0  0  0  0  0  0
   45.4790   36.4880   41.9330 H   0  0  0  0  0  0  0  0  0  0  0  0
   44.2390   36.3930   45.9180 H   0  0  0  0  0  0  0  0  0  0  0  0
   45.5020   32.4420   44.2150 C   0  0  0  0  0  0  0  0  0  0  0  0
   45.0350   31.4540   43.3420 C   0  0  0  0  0  0  0  0  0  0  0  0
   45.1600   30.1080   43.5660 C   0  0  0  0  0  0  0  0  0  0  0  0
   45.7780   29.6620   44.7110 C   0  0  0  0  0  0  0  0  0  0  0  0
   46.2610   30.6490   45.6130 C   0  0  0  0  0  0  0  0  0  0  0  0
   46.8770   30.2190   46.7580 C   0  0  0  0  0  0  0  0  0  0  0  0
   47.3710   31.1250   47.6760 C   0  0  0  0  0  0  0  0  0  0  0  0
   47.2380   32.4990   47.4230 C   0  0  0  0  0  0  0  0  0  0  0  0
   46.5990   32.8950   46.2340 C   0  0  0  0  0  0  0  0  0  0  0  0
   46.1160   31.9720   45.3470 C   0  0  0  0  0  0  0  0  0  0  0  0
   44.5470   31.8110   42.4380 H   0  0  0  0  0  0  0  0  0  0  0  0
   44.7860   29.3760   42.8670 H   0  0  0  0  0  0  0  0  0  0  0  0
   45.9250   28.6360   44.9810 H   0  0  0  0  0  0  0  0  0  0  0  0
   46.9920   29.1510   46.9750 H   0  0  0  0  0  0  0  0  0  0  0  0
   47.8500   30.7260   48.5710 H   0  0  0  0  0  0  0  0  0  0  0  0
   47.6530   33.1310   48.1900 H   0  0  0  0  0  0  0  0  0  0  0  0
   46.6170   33.9640   46.2130 H   0  0  0  0  0  0  0  0  0  0  0  0
   46.0050   33.9500   41.7170 O   0  0  0  0  0  0  0  0  0  0  0  0
   48.0050   32.3420   41.1910 O   0  0  0  0  0  0  0  0  0  0  0  0
   47.6410   33.7750   41.3190 P   0  0  1  0  0  0  0  0  0  0  0  0
   47.9870   34.5060   39.8310 O   0  0  0  0  0  0  0  0  0  0  0  0
   47.6440   33.9700   38.5980 C   0  0  0  0  0  0  0  0  0  0  0  0
   48.3600   34.4350   37.5250 C   0  0  0  0  0  0  0  0  0  0  0  0
   49.1730   35.1610   37.4010 H   0  0  0  0  0  0  0  0  0  0  0  0
   47.9000   33.8130   36.4140 N   0  0  0  0  0  0  0  0  0  0  0  0
   48.1830   33.8930   35.4120 H   0  0  0  0  0  0  0  0  0  0  0  0
   46.9260   32.9910   36.8300 C   0  0  0  0  0  0  0  0  0  0  0  0
   46.2680   32.2900   36.2960 H   0  0  0  0  0  0  0  0  0  0  0  0
   46.7430   33.0650   38.1780 N   0  0  0  0  0  0  0  0  0  0  0  0
   48.5580   34.5210   42.5080 O   0  0  0  0  0  0  0  0  0  0  0  0
   49.7470   35.2120   42.3320 C   0  0  0  0  0  0  0  0  0  0  0  0
   49.4080   36.3230   41.8970 O   0  0  0  0  0  0  0  0  0  0  0  0
   50.8760   34.3910   42.7120 N   0  0  0  0  0  0  0  0  0  0  0  0
   51.6700   33.9980   42.1540 H   0  0  0  0  0  0  0  0  0  0  0  0
   50.9420   34.1200   43.7380 H   0  0  0  0  0  0  0  0  0  0  0  0
  1  2  2  0  0  0  0
  1  6  1  0  0  0  0
  2  3  1  0  0  0  0
  3  9  1  0  0  0  0
  3  4  2  0  0  0  0
  5  4  1  0  0  0  0
  5  8  1  0  0  0  0
  6  5  2  0  0  0  0
  7  1  1  0  0  0  0
  9 18  1  0  0  0  0
 10 11  1  0  0  0  0
 10  9  2  0  0  0  0
 11 12  2  0  0  0  0
 12 21  1  0  0  0  0
 12 13  1  0  0  0  0
 13 14  1  0  0  0  0
 14 22  1  0  0  0  0
 14 15  2  0  0  0  0
 15 23  1  0  0  0  0
 16 15  1  0  0  0  0
 16 24  1  0  0  0  0
 17 16  2  0  0  0  0
 18 13  2  0  0  0  0
 18 17  1  0  0  0  0
 19 10  1  0  0  0  0
 20 11  1  0  0  0  0
 25 17  1  0  0  0  0
 26  2  1  0  0  0  0
 28 27  2  6  0  0  0
 28 26  1  0  0  0  0
 28 38  1  0  0  0  0
 29 28  1  0  0  0  0
 30 29  1  0  0  0  0
 31 30  2  0  0  0  0
 32 31  1  0  0  0  0
 33 35  1  0  0  0  0
 33 31  1  0  0  0  0
 34 33  1  0  0  0  0
 35 37  2  0  0  0  0
 36 35  1  0  0  0  0
 37 30  1  0  0  0  0
 39 38  1  0  0  0  0
 39 41  1  0  0  0  0
 40 39  2  0  0  0  0
 41 43  1  0  0  0  0
 42 41  1  0  0  0  0
M  END
>  <minimizedAffinity>
-6.35474825

>  <minimizedRMSD>
0.610533834

$$$$
