
 OpenBabel03252509123D

 31 34  0  0  0  0  0  0  0  0999 V2000
   47.6750   30.8390   44.6850 C   0  0  0  0  0  0  0  0  0  0  0  0
   47.4620   31.9880   43.9190 C   0  0  0  0  0  0  0  0  0  0  0  0
   46.7060   33.0340   44.3680 C   0  0  0  0  0  0  0  0  0  0  0  0
   46.1080   32.9880   45.6370 C   0  0  0  0  0  0  0  0  0  0  0  0
   45.3230   33.8070   46.3830 N   0  0  0  0  0  0  0  0  0  0  0  0
   45.0570   33.1960   47.5650 C   0  0  0  0  0  0  0  0  0  0  0  0
   45.6830   32.0090   47.5270 N   0  0  0  0  0  0  0  0  0  0  0  0
   46.3350   31.8500   46.3640 C   0  0  0  0  0  0  0  0  0  0  0  0
   47.0910   30.7690   45.9500 C   0  0  0  0  0  0  0  0  0  0  0  0
   48.2670   30.0100   44.3420 H   0  0  0  0  0  0  0  0  0  0  0  0
   45.0560   34.7260   45.9700 H   0  0  0  0  0  0  0  0  0  0  0  0
   44.4380   33.7600   48.2410 H   0  0  0  0  0  0  0  0  0  0  0  0
   47.2360   29.8890   46.5710 H   0  0  0  0  0  0  0  0  0  0  0  0
   47.8940   31.8060   40.2840 C   0  0  0  0  0  0  0  0  0  0  0  0
   49.2160   32.2400   40.1090 C   0  0  0  0  0  0  0  0  0  0  0  0
   49.9410   32.5900   41.2500 C   0  0  0  0  0  0  0  0  0  0  0  0
   49.3380   32.4960   42.4780 N   0  0  0  0  0  0  0  0  0  0  0  0
   48.0660   32.0740   42.5950 C   0  0  0  0  0  0  0  0  0  0  0  0
   47.3250   31.7230   41.5120 N   0  0  0  0  0  0  0  0  0  0  0  0
   47.2840   31.5210   39.4370 H   0  0  0  0  0  0  0  0  0  0  0  0
   49.6200   32.2850   39.1070 H   0  0  0  0  0  0  0  0  0  0  0  0
   50.9560   32.9230   41.1190 H   0  0  0  0  0  0  0  0  0  0  0  0
   46.4310   34.5030   43.4010 S   0  0  0  0  0  0  0  0  0  0  0  0
   44.8250   34.5380   42.6570 C   0  0  0  0  0  0  0  0  0  0  0  0
   44.1420   33.3580   42.3730 C   0  0  0  0  0  0  0  0  0  0  0  0
   44.4110   32.3100   42.5260 H   0  0  0  0  0  0  0  0  0  0  0  0
   42.9660   33.7510   41.8180 N   0  0  0  0  0  0  0  0  0  0  0  0
   42.1790   33.1520   41.4690 H   0  0  0  0  0  0  0  0  0  0  0  0
   42.9110   35.0920   41.7560 C   0  0  0  0  0  0  0  0  0  0  0  0
   42.1710   35.7920   41.3930 H   0  0  0  0  0  0  0  0  0  0  0  0
   44.0550   35.5690   42.2710 N   0  0  0  0  0  0  0  0  0  0  0  0
  1  9  1  0  0  0  0
  2  3  1  0  0  0  0
  2  1  2  0  0  0  0
  3  4  2  0  0  0  0
  4  8  1  0  0  0  0
  4  5  1  0  0  0  0
  5  6  1  0  0  0  0
  6 12  1  0  0  0  0
  7  6  2  0  0  0  0
  8  7  1  0  0  0  0
  9  8  2  0  0  0  0
  9 13  1  0  0  0  0
 10  1  1  0  0  0  0
 11  5  1  0  0  0  0
 14 19  1  0  0  0  0
 15 14  2  0  0  0  0
 15 16  1  0  0  0  0
 16 17  2  0  0  0  0
 17 18  1  0  0  0  0
 18  2  1  0  0  0  0
 19 18  2  0  0  0  0
 20 14  1  0  0  0  0
 21 15  1  0  0  0  0
 22 16  1  0  0  0  0
 23  3  1  0  0  0  0
 24 23  1  0  0  0  0
 25 26  1  0  0  0  0
 25 24  2  0  0  0  0
 27 25  1  0  0  0  0
 28 27  1  0  0  0  0
 29 27  1  0  0  0  0
 29 31  2  0  0  0  0
 30 29  1  0  0  0  0
 31 24  1  0  0  0  0
M  END
>  <minimizedAffinity>
-4.76559639

>  <minimizedRMSD>
1.92562199

$$$$
