
 OpenBabel03252501363D

 24 25  0  0  0  0  0  0  0  0999 V2000
   37.1230   27.9910   42.1650 C   0  0  0  0  0  0  0  0  0  0  0  0
   37.4870   28.1090   40.9480 O   0  0  0  0  0  0  0  0  0  0  0  0
   37.1900   29.2210   42.8890 N   0  0  0  0  0  0  0  0  0  0  0  0
   36.9100   29.2700   43.8750 H   0  0  0  0  0  0  0  0  0  0  0  0
   37.6920   30.2570   41.9950 C   0  0  0  0  0  0  0  0  0  0  0  0
   36.9140   30.9920   41.1370 C   0  0  0  0  0  0  0  0  0  0  0  0
   37.5860   31.9380   40.3680 C   0  0  0  0  0  0  0  0  0  0  0  0
   38.9100   32.0520   40.5250 N   0  0  0  0  0  0  0  0  0  0  0  0
   39.6390   31.3140   41.3760 C   0  0  0  0  0  0  0  0  0  0  0  0
   39.0190   30.3840   42.1400 N   0  0  0  0  0  0  0  0  0  0  0  0
   36.9770   32.5180   39.6910 H   0  0  0  0  0  0  0  0  0  0  0  0
   40.7070   31.4880   41.4240 H   0  0  0  0  0  0  0  0  0  0  0  0
   35.5320   30.7240   41.1180 N   0  0  0  0  0  0  0  0  0  0  0  0
   35.0060   31.1420   41.9340 H   0  0  0  0  0  0  0  0  0  0  0  0
   35.4580   30.1510   40.2340 H   0  0  0  0  0  0  0  0  0  0  0  0
   36.6880   26.8040   42.7890 O   0  0  0  0  0  0  0  0  0  0  0  0
   37.3000   25.6110   42.4180 C   0  0  0  0  0  0  0  0  0  0  0  0
   37.0200   24.4110   41.8040 C   0  0  0  0  0  0  0  0  0  0  0  0
   35.9920   24.3090   41.4820 H   0  0  0  0  0  0  0  0  0  0  0  0
   38.1650   23.7010   41.7930 N   0  0  0  0  0  0  0  0  0  0  0  0
   38.1250   22.7370   41.3500 H   0  0  0  0  0  0  0  0  0  0  0  0
   39.1490   24.4030   42.3740 C   0  0  0  0  0  0  0  0  0  0  0  0
   40.1560   24.0180   42.4710 H   0  0  0  0  0  0  0  0  0  0  0  0
   38.6220   25.5800   42.7590 N   0  0  0  0  0  0  0  0  0  0  0  0
  1 16  1  0  0  0  0
  1  3  1  0  0  0  0
  2  1  2  0  0  0  0
  3  4  1  0  0  0  0
  5 10  1  0  0  0  0
  5  3  1  0  0  0  0
  6  5  2  0  0  0  0
  7  8  2  0  0  0  0
  7  6  1  0  0  0  0
  8  9  1  0  0  0  0
  9 12  1  0  0  0  0
  9 10  2  0  0  0  0
 11  7  1  0  0  0  0
 13  6  1  0  0  0  0
 13 14  1  0  0  0  0
 15 13  1  0  0  0  0
 17 24  1  0  0  0  0
 17 16  1  0  0  0  0
 18 17  2  0  0  0  0
 19 18  1  0  0  0  0
 20 18  1  0  0  0  0
 20 22  1  0  0  0  0
 21 20  1  0  0  0  0
 22 23  1  0  0  0  0
 22 24  2  0  0  0  0
M  END
>  <minimizedAffinity>
-4.93939638

$$$$

 OpenBabel03252501363D

 24 25  0  0  0  0  0  0  0  0999 V2000
   39.0000   31.3660   38.0620 C   0  0  0  0  0  0  0  0  0  0  0  0
   39.8320   30.9250   38.9250 O   0  0  0  0  0  0  0  0  0  0  0  0
   39.5940   32.2690   37.1280 N   0  0  0  0  0  0  0  0  0  0  0  0
   39.0400   32.6850   36.3710 H   0  0  0  0  0  0  0  0  0  0  0  0
   41.0000   32.4340   37.4720 C   0  0  0  0  0  0  0  0  0  0  0  0
   41.4780   33.3260   38.3980 C   0  0  0  0  0  0  0  0  0  0  0  0
   42.8570   33.3260   38.5860 C   0  0  0  0  0  0  0  0  0  0  0  0
   43.5920   32.4720   37.8620 N   0  0  0  0  0  0  0  0  0  0  0  0
   43.0880   31.6120   36.9640 C   0  0  0  0  0  0  0  0  0  0  0  0
   41.7500   31.5840   36.7550 N   0  0  0  0  0  0  0  0  0  0  0  0
   43.2360   34.0270   39.3140 H   0  0  0  0  0  0  0  0  0  0  0  0
   43.7730   30.9630   36.4310 H   0  0  0  0  0  0  0  0  0  0  0  0
   40.5410   34.1420   39.0610 N   0  0  0  0  0  0  0  0  0  0  0  0
   40.0120   33.6450   39.8300 H   0  0  0  0  0  0  0  0  0  0  0  0
   40.6760   35.0520   38.5420 H   0  0  0  0  0  0  0  0  0  0  0  0
   37.6330   31.0340   37.9840 O   0  0  0  0  0  0  0  0  0  0  0  0
   36.9130   30.9480   39.1720 C   0  0  0  0  0  0  0  0  0  0  0  0
   36.6750   31.6520   40.3310 C   0  0  0  0  0  0  0  0  0  0  0  0
   37.2010   32.5960   40.3910 H   0  0  0  0  0  0  0  0  0  0  0  0
   35.8230   30.9140   41.0680 N   0  0  0  0  0  0  0  0  0  0  0  0
   35.5310   31.3150   42.0070 H   0  0  0  0  0  0  0  0  0  0  0  0
   35.5160   29.7790   40.4210 C   0  0  0  0  0  0  0  0  0  0  0  0
   34.8440   29.0390   40.8360 H   0  0  0  0  0  0  0  0  0  0  0  0
   36.1840   29.7970   39.2530 N   0  0  0  0  0  0  0  0  0  0  0  0
  1  2  2  0  0  0  0
  3  5  1  0  0  0  0
  3  1  1  0  0  0  0
  4  3  1  0  0  0  0
  5  6  1  0  0  0  0
  6  7  2  0  0  0  0
  6 13  1  0  0  0  0
  7 11  1  0  0  0  0
  8  7  1  0  0  0  0
  9  8  2  0  0  0  0
 10  9  1  0  0  0  0
 10  5  2  0  0  0  0
 12  9  1  0  0  0  0
 13 14  1  0  0  0  0
 15 13  1  0  0  0  0
 16  1  1  0  0  0  0
 16 17  1  0  0  0  0
 17 24  1  0  0  0  0
 17 18  2  0  0  0  0
 18 19  1  0  0  0  0
 18 20  1  0  0  0  0
 20 21  1  0  0  0  0
 22 23  1  0  0  0  0
 22 20  1  0  0  0  0
 24 22  2  0  0  0  0
M  END
>  <minimizedAffinity>
-4.63938951

$$$$

 OpenBabel03252501363D

 24 25  0  0  0  0  0  0  0  0999 V2000
   38.8070   32.0070   39.8850 C   0  0  0  0  0  0  0  0  0  0  0  0
   39.5340   30.9760   39.6920 O   0  0  0  0  0  0  0  0  0  0  0  0
   39.3950   33.2070   39.3780 N   0  0  0  0  0  0  0  0  0  0  0  0
   38.9080   34.1060   39.4540 H   0  0  0  0  0  0  0  0  0  0  0  0
   40.6920   32.8780   38.8020 C   0  0  0  0  0  0  0  0  0  0  0  0
   40.8900   32.4590   37.5110 C   0  0  0  0  0  0  0  0  0  0  0  0
   42.2090   32.1990   37.1520 C   0  0  0  0  0  0  0  0  0  0  0  0
   43.1610   32.3740   38.0770 N   0  0  0  0  0  0  0  0  0  0  0  0
   42.9290   32.7860   39.3330 C   0  0  0  0  0  0  0  0  0  0  0  0
   41.6580   33.0490   39.7180 N   0  0  0  0  0  0  0  0  0  0  0  0
   42.3680   31.8680   36.1370 H   0  0  0  0  0  0  0  0  0  0  0  0
   43.7740   32.8970   40.0030 H   0  0  0  0  0  0  0  0  0  0  0  0
   39.7560   32.3360   36.6850 N   0  0  0  0  0  0  0  0  0  0  0  0
   39.3950   33.2590   36.3170 H   0  0  0  0  0  0  0  0  0  0  0  0
   39.6210   31.2890   36.6980 H   0  0  0  0  0  0  0  0  0  0  0  0
   37.5500   32.0270   40.5210 O   0  0  0  0  0  0  0  0  0  0  0  0
   37.0190   30.8160   40.9550 C   0  0  0  0  0  0  0  0  0  0  0  0
   37.2120   29.8450   41.9120 C   0  0  0  0  0  0  0  0  0  0  0  0
   38.0440   30.0390   42.5760 H   0  0  0  0  0  0  0  0  0  0  0  0
   36.2620   28.9100   41.7170 N   0  0  0  0  0  0  0  0  0  0  0  0
   36.2670   28.0790   42.3780 H   0  0  0  0  0  0  0  0  0  0  0  0
   35.4830   29.2520   40.6800 C   0  0  0  0  0  0  0  0  0  0  0  0
   34.6540   28.6380   40.3510 H   0  0  0  0  0  0  0  0  0  0  0  0
   35.9440   30.4250   40.2080 N   0  0  0  0  0  0  0  0  0  0  0  0
  1 16  1  0  0  0  0
  2  1  2  0  0  0  0
  3  4  1  0  0  0  0
  3  1  1  0  0  0  0
  5  3  1  0  0  0  0
  5 10  1  0  0  0  0
  6  5  2  0  0  0  0
  7  6  1  0  0  0  0
  7  8  2  0  0  0  0
  8  9  1  0  0  0  0
  9 10  2  0  0  0  0
  9 12  1  0  0  0  0
 11  7  1  0  0  0  0
 13 15  1  0  0  0  0
 13  6  1  0  0  0  0
 14 13  1  0  0  0  0
 16 17  1  0  0  0  0
 17 18  2  0  0  0  0
 18 19  1  0  0  0  0
 20 18  1  0  0  0  0
 20 21  1  0  0  0  0
 22 20  1  0  0  0  0
 23 22  1  0  0  0  0
 24 22  2  0  0  0  0
 24 17  1  0  0  0  0
M  END
>  <minimizedAffinity>
-4.55113602

$$$$

 OpenBabel03252501363D

 24 25  0  0  0  0  0  0  0  0999 V2000
   36.9410   30.0710   41.1080 C   0  0  0  0  0  0  0  0  0  0  0  0
   37.4390   29.1940   40.3260 O   0  0  0  0  0  0  0  0  0  0  0  0
   37.0200   29.6990   42.4860 N   0  0  0  0  0  0  0  0  0  0  0  0
   36.6700   30.3220   43.2220 H   0  0  0  0  0  0  0  0  0  0  0  0
   37.6400   28.3840   42.5740 C   0  0  0  0  0  0  0  0  0  0  0  0
   38.9890   28.1630   42.6890 C   0  0  0  0  0  0  0  0  0  0  0  0
   39.3820   26.8290   42.7640 C   0  0  0  0  0  0  0  0  0  0  0  0
   38.4320   25.8890   42.7180 N   0  0  0  0  0  0  0  0  0  0  0  0
   37.1190   26.1430   42.6040 C   0  0  0  0  0  0  0  0  0  0  0  0
   36.7000   27.4280   42.5290 N   0  0  0  0  0  0  0  0  0  0  0  0
   40.4430   26.6520   42.8540 H   0  0  0  0  0  0  0  0  0  0  0  0
   36.4320   25.3050   42.5770 H   0  0  0  0  0  0  0  0  0  0  0  0
   39.8340   29.2890   42.7220 N   0  0  0  0  0  0  0  0  0  0  0  0
   39.8470   29.7840   43.6570 H   0  0  0  0  0  0  0  0  0  0  0  0
   40.2100   29.2780   41.7350 H   0  0  0  0  0  0  0  0  0  0  0  0
   36.3620   31.2960   40.7190 O   0  0  0  0  0  0  0  0  0  0  0  0
   37.2130   32.3170   40.3070 C   0  0  0  0  0  0  0  0  0  0  0  0
   37.2770   33.3580   39.4080 C   0  0  0  0  0  0  0  0  0  0  0  0
   36.3970   33.4610   38.7870 H   0  0  0  0  0  0  0  0  0  0  0  0
   38.4720   33.9540   39.5850 N   0  0  0  0  0  0  0  0  0  0  0  0
   38.6880   34.7870   38.9630 H   0  0  0  0  0  0  0  0  0  0  0  0
   39.1590   33.3330   40.5560 C   0  0  0  0  0  0  0  0  0  0  0  0
   40.1470   33.6510   40.8610 H   0  0  0  0  0  0  0  0  0  0  0  0
   38.3870   32.3250   41.0030 N   0  0  0  0  0  0  0  0  0  0  0  0
  1  3  1  0  0  0  0
  2  1  2  0  0  0  0
  3  5  1  0  0  0  0
  3  4  1  0  0  0  0
  5  6  1  0  0  0  0
  6 13  1  0  0  0  0
  6  7  2  0  0  0  0
  7 11  1  0  0  0  0
  8  7  1  0  0  0  0
  9  8  2  0  0  0  0
 10  5  2  0  0  0  0
 10  9  1  0  0  0  0
 12  9  1  0  0  0  0
 13 14  1  0  0  0  0
 15 13  1  0  0  0  0
 16  1  1  0  0  0  0
 17 16  1  0  0  0  0
 17 24  1  0  0  0  0
 18 20  1  0  0  0  0
 18 17  2  0  0  0  0
 19 18  1  0  0  0  0
 20 22  1  0  0  0  0
 21 20  1  0  0  0  0
 22 23  1  0  0  0  0
 22 24  2  0  0  0  0
M  END
>  <minimizedAffinity>
-4.5498209

$$$$

 OpenBabel03252501363D

 24 25  0  0  0  0  0  0  0  0999 V2000
   37.3520   30.1440   41.3040 C   0  0  0  0  0  0  0  0  0  0  0  0
   37.7250   29.1040   40.6640 O   0  0  0  0  0  0  0  0  0  0  0  0
   37.7540   30.1280   42.6750 N   0  0  0  0  0  0  0  0  0  0  0  0
   37.5330   30.9120   43.2990 H   0  0  0  0  0  0  0  0  0  0  0  0
   38.4660   28.8830   42.9340 C   0  0  0  0  0  0  0  0  0  0  0  0
   37.8670   27.7010   43.2880 C   0  0  0  0  0  0  0  0  0  0  0  0
   38.7240   26.6220   43.4880 C   0  0  0  0  0  0  0  0  0  0  0  0
   40.0370   26.8210   43.3220 N   0  0  0  0  0  0  0  0  0  0  0  0
   40.5870   27.9950   42.9740 C   0  0  0  0  0  0  0  0  0  0  0  0
   39.7850   29.0660   42.7710 N   0  0  0  0  0  0  0  0  0  0  0  0
   38.2560   25.6900   43.7670 H   0  0  0  0  0  0  0  0  0  0  0  0
   41.6640   28.0470   42.8660 H   0  0  0  0  0  0  0  0  0  0  0  0
   36.4640   27.6920   43.4120 N   0  0  0  0  0  0  0  0  0  0  0  0
   35.9550   27.6580   42.4860 H   0  0  0  0  0  0  0  0  0  0  0  0
   36.3630   27.7230   44.4630 H   0  0  0  0  0  0  0  0  0  0  0  0
   36.6220   31.2270   40.7740 O   0  0  0  0  0  0  0  0  0  0  0  0
   37.3330   32.3370   40.3300 C   0  0  0  0  0  0  0  0  0  0  0  0
   37.2380   33.3820   39.4390 C   0  0  0  0  0  0  0  0  0  0  0  0
   36.3210   33.3890   38.8630 H   0  0  0  0  0  0  0  0  0  0  0  0
   38.3660   34.1070   39.5630 N   0  0  0  0  0  0  0  0  0  0  0  0
   38.4580   34.9610   38.9390 H   0  0  0  0  0  0  0  0  0  0  0  0
   39.1650   33.5610   40.4930 C   0  0  0  0  0  0  0  0  0  0  0  0
   40.1260   33.9870   40.7530 H   0  0  0  0  0  0  0  0  0  0  0  0
   38.5320   32.4730   40.9690 N   0  0  0  0  0  0  0  0  0  0  0  0
  1  3  1  0  0  0  0
  2  1  2  0  0  0  0
  3  5  1  0  0  0  0
  3  4  1  0  0  0  0
  5  6  1  0  0  0  0
  6 13  1  0  0  0  0
  6  7  2  0  0  0  0
  7 11  1  0  0  0  0
  8  7  1  0  0  0  0
  9  8  2  0  0  0  0
 10  5  2  0  0  0  0
 10  9  1  0  0  0  0
 12  9  1  0  0  0  0
 13 15  1  0  0  0  0
 14 13  1  0  0  0  0
 16  1  1  0  0  0  0
 17 16  1  0  0  0  0
 17 24  1  0  0  0  0
 18 20  1  0  0  0  0
 18 17  2  0  0  0  0
 19 18  1  0  0  0  0
 20 22  1  0  0  0  0
 21 20  1  0  0  0  0
 22 23  1  0  0  0  0
 22 24  2  0  0  0  0
M  END
>  <minimizedAffinity>
-4.53196192

$$$$

 OpenBabel03252501363D

 24 25  0  0  0  0  0  0  0  0999 V2000
   37.1840   27.8230   41.5640 C   0  0  0  0  0  0  0  0  0  0  0  0
   38.2020   28.5840   41.4440 O   0  0  0  0  0  0  0  0  0  0  0  0
   36.1500   28.1240   40.6260 N   0  0  0  0  0  0  0  0  0  0  0  0
   35.2820   27.5770   40.6030 H   0  0  0  0  0  0  0  0  0  0  0  0
   36.5770   29.2550   39.8140 C   0  0  0  0  0  0  0  0  0  0  0  0
   36.3670   30.5720   40.1370 C   0  0  0  0  0  0  0  0  0  0  0  0
   36.8570   31.5060   39.2280 C   0  0  0  0  0  0  0  0  0  0  0  0
   37.4810   31.0530   38.1340 N   0  0  0  0  0  0  0  0  0  0  0  0
   37.6680   29.7550   37.8510 C   0  0  0  0  0  0  0  0  0  0  0  0
   37.2050   28.8180   38.7120 N   0  0  0  0  0  0  0  0  0  0  0  0
   36.6930   32.5430   39.4790 H   0  0  0  0  0  0  0  0  0  0  0  0
   38.1880   29.4960   36.9360 H   0  0  0  0  0  0  0  0  0  0  0  0
   35.6880   30.8480   41.3390 N   0  0  0  0  0  0  0  0  0  0  0  0
   36.2900   30.7450   42.2020 H   0  0  0  0  0  0  0  0  0  0  0  0
   34.7280   31.0860   40.9680 H   0  0  0  0  0  0  0  0  0  0  0  0
   37.0360   26.7780   42.4990 O   0  0  0  0  0  0  0  0  0  0  0  0
   37.5190   25.5200   42.1530 C   0  0  0  0  0  0  0  0  0  0  0  0
   38.5150   24.6280   42.4850 C   0  0  0  0  0  0  0  0  0  0  0  0
   39.1720   24.9720   43.2730 H   0  0  0  0  0  0  0  0  0  0  0  0
   38.3580   23.5530   41.6880 N   0  0  0  0  0  0  0  0  0  0  0  0
   39.0520   22.7600   41.8130 H   0  0  0  0  0  0  0  0  0  0  0  0
   37.3070   23.7330   40.8730 C   0  0  0  0  0  0  0  0  0  0  0  0
   37.0020   22.9870   40.1490 H   0  0  0  0  0  0  0  0  0  0  0  0
   36.7870   24.9410   41.1570 N   0  0  0  0  0  0  0  0  0  0  0  0
  1 16  1  0  0  0  0
  2  1  2  0  0  0  0
  3  1  1  0  0  0  0
  4  3  1  0  0  0  0
  5  6  1  0  0  0  0
  5  3  1  0  0  0  0
  6 13  1  0  0  0  0
  7 11  1  0  0  0  0
  7  6  2  0  0  0  0
  8  7  1  0  0  0  0
  9  8  2  0  0  0  0
  9 10  1  0  0  0  0
 10  5  2  0  0  0  0
 12  9  1  0  0  0  0
 13 14  1  0  0  0  0
 15 13  1  0  0  0  0
 17 18  2  0  0  0  0
 17 16  1  0  0  0  0
 18 19  1  0  0  0  0
 20 21  1  0  0  0  0
 20 18  1  0  0  0  0
 22 24  2  0  0  0  0
 22 20  1  0  0  0  0
 23 22  1  0  0  0  0
 24 17  1  0  0  0  0
M  END
>  <minimizedAffinity>
-4.45679712

$$$$

 OpenBabel03252501363D

 24 25  0  0  0  0  0  0  0  0999 V2000
   38.9150   28.1610   42.7910 C   0  0  0  0  0  0  0  0  0  0  0  0
   38.4020   29.1260   43.4510 O   0  0  0  0  0  0  0  0  0  0  0  0
   38.7950   28.3270   41.3770 N   0  0  0  0  0  0  0  0  0  0  0  0
   39.1800   27.6320   40.7290 H   0  0  0  0  0  0  0  0  0  0  0  0
   38.0800   29.5700   41.1170 C   0  0  0  0  0  0  0  0  0  0  0  0
   36.7180   29.7180   41.1860 C   0  0  0  0  0  0  0  0  0  0  0  0
   36.2300   30.9900   40.9050 C   0  0  0  0  0  0  0  0  0  0  0  0
   37.1110   31.9490   40.5950 N   0  0  0  0  0  0  0  0  0  0  0  0
   38.4390   31.7680   40.5370 C   0  0  0  0  0  0  0  0  0  0  0  0
   38.9500   30.5430   40.8050 N   0  0  0  0  0  0  0  0  0  0  0  0
   35.1580   31.1090   40.9580 H   0  0  0  0  0  0  0  0  0  0  0  0
   39.0640   32.6140   40.2760 H   0  0  0  0  0  0  0  0  0  0  0  0
   35.9570   28.5850   41.5320 N   0  0  0  0  0  0  0  0  0  0  0  0
   35.9730   28.3600   42.5650 H   0  0  0  0  0  0  0  0  0  0  0  0
   35.5880   28.3030   40.5840 H   0  0  0  0  0  0  0  0  0  0  0  0
   39.5490   27.0280   43.3380 O   0  0  0  0  0  0  0  0  0  0  0  0
   39.0840   25.7730   42.9580 C   0  0  0  0  0  0  0  0  0  0  0  0
   39.4790   24.4550   42.9090 C   0  0  0  0  0  0  0  0  0  0  0  0
   40.4820   24.2800   43.2770 H   0  0  0  0  0  0  0  0  0  0  0  0
   38.4490   23.7560   42.3930 N   0  0  0  0  0  0  0  0  0  0  0  0
   38.5880   22.7100   42.2840 H   0  0  0  0  0  0  0  0  0  0  0  0
   37.4250   24.5800   42.1170 C   0  0  0  0  0  0  0  0  0  0  0  0
   36.4940   24.2240   41.6940 H   0  0  0  0  0  0  0  0  0  0  0  0
   37.8120   25.8210   42.4640 N   0  0  0  0  0  0  0  0  0  0  0  0
  1 16  1  0  0  0  0
  1  2  2  0  0  0  0
  3  1  1  0  0  0  0
  4  3  1  0  0  0  0
  5  6  1  0  0  0  0
  5  3  1  0  0  0  0
  6 13  1  0  0  0  0
  7 11  1  0  0  0  0
  7  6  2  0  0  0  0
  8  7  1  0  0  0  0
  9  8  2  0  0  0  0
  9 10  1  0  0  0  0
 10  5  2  0  0  0  0
 12  9  1  0  0  0  0
 13 14  1  0  0  0  0
 15 13  1  0  0  0  0
 17 16  1  0  0  0  0
 18 17  2  0  0  0  0
 18 19  1  0  0  0  0
 20 18  1  0  0  0  0
 21 20  1  0  0  0  0
 22 20  1  0  0  0  0
 22 24  2  0  0  0  0
 23 22  1  0  0  0  0
 24 17  1  0  0  0  0
M  END
>  <minimizedAffinity>
-4.43979454

$$$$

 OpenBabel03252501363D

 24 25  0  0  0  0  0  0  0  0999 V2000
   39.9650   30.3960   41.6280 C   0  0  0  0  0  0  0  0  0  0  0  0
   39.8120   29.3900   40.8580 O   0  0  0  0  0  0  0  0  0  0  0  0
   39.2690   30.2600   42.8680 N   0  0  0  0  0  0  0  0  0  0  0  0
   39.3220   30.9910   43.5860 H   0  0  0  0  0  0  0  0  0  0  0  0
   38.5570   28.9890   42.8620 C   0  0  0  0  0  0  0  0  0  0  0  0
   37.2340   28.8360   42.5340 C   0  0  0  0  0  0  0  0  0  0  0  0
   36.7420   27.5350   42.5850 C   0  0  0  0  0  0  0  0  0  0  0  0
   37.5820   26.5570   42.9440 N   0  0  0  0  0  0  0  0  0  0  0  0
   38.8730   26.7440   43.2580 C   0  0  0  0  0  0  0  0  0  0  0  0
   39.3870   27.9960   43.2190 N   0  0  0  0  0  0  0  0  0  0  0  0
   35.7010   27.4120   42.3280 H   0  0  0  0  0  0  0  0  0  0  0  0
   39.4660   25.8810   43.5350 H   0  0  0  0  0  0  0  0  0  0  0  0
   36.5130   29.9920   42.1800 N   0  0  0  0  0  0  0  0  0  0  0  0
   36.7050   30.3300   41.1970 H   0  0  0  0  0  0  0  0  0  0  0  0
   35.9730   30.1640   43.0720 H   0  0  0  0  0  0  0  0  0  0  0  0
   40.7290   31.5470   41.3460 O   0  0  0  0  0  0  0  0  0  0  0  0
   40.1340   32.5560   40.5940 C   0  0  0  0  0  0  0  0  0  0  0  0
   40.4100   33.4270   39.5650 C   0  0  0  0  0  0  0  0  0  0  0  0
   41.4150   33.3410   39.1710 H   0  0  0  0  0  0  0  0  0  0  0  0
   39.2940   34.1520   39.3550 N   0  0  0  0  0  0  0  0  0  0  0  0
   39.3350   34.8810   38.5860 H   0  0  0  0  0  0  0  0  0  0  0  0
   38.3310   33.7720   40.2090 C   0  0  0  0  0  0  0  0  0  0  0  0
   37.3480   34.2270   40.2120 H   0  0  0  0  0  0  0  0  0  0  0  0
   38.8430   32.7890   40.9730 N   0  0  0  0  0  0  0  0  0  0  0  0
  1  3  1  0  0  0  0
  2  1  2  0  0  0  0
  3  4  1  0  0  0  0
  5  3  1  0  0  0  0
  5 10  1  0  0  0  0
  6  7  1  0  0  0  0
  6  5  2  0  0  0  0
  7  8  2  0  0  0  0
  8  9  1  0  0  0  0
  9 12  1  0  0  0  0
 10  9  2  0  0  0  0
 11  7  1  0  0  0  0
 13  6  1  0  0  0  0
 13 15  1  0  0  0  0
 14 13  1  0  0  0  0
 16  1  1  0  0  0  0
 17 24  1  0  0  0  0
 17 16  1  0  0  0  0
 18 17  2  0  0  0  0
 19 18  1  0  0  0  0
 20 18  1  0  0  0  0
 20 22  1  0  0  0  0
 21 20  1  0  0  0  0
 22 23  1  0  0  0  0
 22 24  2  0  0  0  0
M  END
>  <minimizedAffinity>
-4.36593914

$$$$

 OpenBabel03252501363D

 24 25  0  0  0  0  0  0  0  0999 V2000
   38.8240   30.4570   40.7240 C   0  0  0  0  0  0  0  0  0  0  0  0
   39.6600   29.6740   41.2880 O   0  0  0  0  0  0  0  0  0  0  0  0
   37.5250   29.8780   40.5840 N   0  0  0  0  0  0  0  0  0  0  0  0
   36.7540   30.4060   40.1610 H   0  0  0  0  0  0  0  0  0  0  0  0
   37.5630   28.5230   41.1190 C   0  0  0  0  0  0  0  0  0  0  0  0
   37.3630   28.1990   42.4370 C   0  0  0  0  0  0  0  0  0  0  0  0
   37.4370   26.8440   42.7470 C   0  0  0  0  0  0  0  0  0  0  0  0
   37.6910   25.9830   41.7540 N   0  0  0  0  0  0  0  0  0  0  0  0
   37.8820   26.3380   40.4740 C   0  0  0  0  0  0  0  0  0  0  0  0
   37.8170   27.6470   40.1360 N   0  0  0  0  0  0  0  0  0  0  0  0
   37.2800   26.5850   43.7830 H   0  0  0  0  0  0  0  0  0  0  0  0
   38.0820   25.5590   39.7480 H   0  0  0  0  0  0  0  0  0  0  0  0
   37.1050   29.2520   43.3360 N   0  0  0  0  0  0  0  0  0  0  0  0
   36.1150   29.6190   43.2890 H   0  0  0  0  0  0  0  0  0  0  0  0
   38.0490   29.3440   43.8020 H   0  0  0  0  0  0  0  0  0  0  0  0
   39.0890   31.7650   40.2690 O   0  0  0  0  0  0  0  0  0  0  0  0
   39.4490   31.9310   38.9350 C   0  0  0  0  0  0  0  0  0  0  0  0
   38.9440   31.7730   37.6640 C   0  0  0  0  0  0  0  0  0  0  0  0
   37.9310   31.3930   37.6350 H   0  0  0  0  0  0  0  0  0  0  0  0
   39.9120   32.1560   36.8090 N   0  0  0  0  0  0  0  0  0  0  0  0
   39.6860   32.0960   35.7740 H   0  0  0  0  0  0  0  0  0  0  0  0
   41.0010   32.5470   37.4900 C   0  0  0  0  0  0  0  0  0  0  0  0
   41.8980   32.8960   36.9950 H   0  0  0  0  0  0  0  0  0  0  0  0
   40.7190   32.4110   38.7990 N   0  0  0  0  0  0  0  0  0  0  0  0
  1  2  2  0  0  0  0
  3  1  1  0  0  0  0
  3  5  1  0  0  0  0
  4  3  1  0  0  0  0
  5  6  1  0  0  0  0
  6  7  2  0  0  0  0
  6 13  1  0  0  0  0
  7 11  1  0  0  0  0
  8  7  1  0  0  0  0
  9  8  2  0  0  0  0
 10  9  1  0  0  0  0
 10  5  2  0  0  0  0
 12  9  1  0  0  0  0
 13 15  1  0  0  0  0
 14 13  1  0  0  0  0
 16  1  1  0  0  0  0
 17 16  1  0  0  0  0
 18 17  2  0  0  0  0
 19 18  1  0  0  0  0
 20 22  1  0  0  0  0
 20 18  1  0  0  0  0
 21 20  1  0  0  0  0
 22 24  2  0  0  0  0
 23 22  1  0  0  0  0
 24 17  1  0  0  0  0
M  END
>  <minimizedAffinity>
-4.30982876

$$$$
