
 OpenBabel03252508073D

 43 46  0  0  0  0  0  0  0  0999 V2000
   45.2190   35.8170   42.9610 C   0  0  0  0  0  0  0  0  0  0  0  0
   45.5060   34.4610   43.0000 C   0  0  0  0  0  0  0  0  0  0  0  0
   45.3320   33.7560   44.1660 C   0  0  0  0  0  0  0  0  0  0  0  0
   44.8660   34.4600   45.2600 N   0  0  0  0  0  0  0  0  0  0  0  0
   44.5920   35.7600   45.2160 C   0  0  0  0  0  0  0  0  0  0  0  0
   44.7740   36.4300   44.0560 N   0  0  0  0  0  0  0  0  0  0  0  0
   45.3450   36.4050   42.0630 H   0  0  0  0  0  0  0  0  0  0  0  0
   44.2280   36.2950   46.0830 H   0  0  0  0  0  0  0  0  0  0  0  0
   45.5790   32.3780   44.3680 C   0  0  0  0  0  0  0  0  0  0  0  0
   45.1570   31.3720   43.4950 C   0  0  0  0  0  0  0  0  0  0  0  0
   45.3350   30.0320   43.7210 C   0  0  0  0  0  0  0  0  0  0  0  0
   45.9660   29.6130   44.8700 C   0  0  0  0  0  0  0  0  0  0  0  0
   46.4040   30.6200   45.7720 C   0  0  0  0  0  0  0  0  0  0  0  0
   47.0330   30.2160   46.9210 C   0  0  0  0  0  0  0  0  0  0  0  0
   47.4850   31.1430   47.8400 C   0  0  0  0  0  0  0  0  0  0  0  0
   47.2980   32.5100   47.5830 C   0  0  0  0  0  0  0  0  0  0  0  0
   46.6480   32.8780   46.3910 C   0  0  0  0  0  0  0  0  0  0  0  0
   46.2070   31.9360   45.5040 C   0  0  0  0  0  0  0  0  0  0  0  0
   44.6590   31.7070   42.5880 H   0  0  0  0  0  0  0  0  0  0  0  0
   44.9940   29.2840   43.0220 H   0  0  0  0  0  0  0  0  0  0  0  0
   46.1520   28.5940   45.1420 H   0  0  0  0  0  0  0  0  0  0  0  0
   47.1890   29.1550   47.1400 H   0  0  0  0  0  0  0  0  0  0  0  0
   47.9760   30.7650   48.7370 H   0  0  0  0  0  0  0  0  0  0  0  0
   47.6840   33.1600   48.3520 H   0  0  0  0  0  0  0  0  0  0  0  0
   46.6230   33.9470   46.3690 H   0  0  0  0  0  0  0  0  0  0  0  0
   45.9550   33.8850   41.8470 O   0  0  0  0  0  0  0  0  0  0  0  0
   48.0360   32.3870   41.3090 O   0  0  0  0  0  0  0  0  0  0  0  0
   47.5810   33.7980   41.3840 P   0  0  1  0  0  0  0  0  0  0  0  0
   47.8150   34.4740   39.8490 O   0  0  0  0  0  0  0  0  0  0  0  0
   47.7800   33.7530   38.6640 C   0  0  0  0  0  0  0  0  0  0  0  0
   46.5570   33.2340   38.3180 C   0  0  0  0  0  0  0  0  0  0  0  0
   45.5590   33.2540   38.7720 H   0  0  0  0  0  0  0  0  0  0  0  0
   46.7010   32.5680   37.1490 N   0  0  0  0  0  0  0  0  0  0  0  0
   46.0110   32.0420   36.5660 H   0  0  0  0  0  0  0  0  0  0  0  0
   47.9920   32.6930   36.8120 C   0  0  0  0  0  0  0  0  0  0  0  0
   48.5750   32.3250   35.9530 H   0  0  0  0  0  0  0  0  0  0  0  0
   48.6870   33.4210   37.7300 N   0  0  0  0  0  0  0  0  0  0  0  0
   48.4940   34.6610   42.4940 O   0  0  0  0  0  0  0  0  0  0  0  0
   49.7090   35.2890   42.2640 C   0  0  0  0  0  0  0  0  0  0  0  0
   49.4120   36.3730   41.7390 O   0  0  0  0  0  0  0  0  0  0  0  0
   50.8050   34.4600   42.7120 N   0  0  0  0  0  0  0  0  0  0  0  0
   51.5840   33.9920   42.1890 H   0  0  0  0  0  0  0  0  0  0  0  0
   50.8630   34.2720   43.7560 H   0  0  0  0  0  0  0  0  0  0  0  0
  1  2  2  0  0  0  0
  1  6  1  0  0  0  0
  2  3  1  0  0  0  0
  3  9  1  0  0  0  0
  3  4  2  0  0  0  0
  5  4  1  0  0  0  0
  5  8  1  0  0  0  0
  6  5  2  0  0  0  0
  7  1  1  0  0  0  0
  9 18  1  0  0  0  0
 10 11  1  0  0  0  0
 10  9  2  0  0  0  0
 11 12  2  0  0  0  0
 12 21  1  0  0  0  0
 12 13  1  0  0  0  0
 13 14  1  0  0  0  0
 14 22  1  0  0  0  0
 14 15  2  0  0  0  0
 15 23  1  0  0  0  0
 16 15  1  0  0  0  0
 16 24  1  0  0  0  0
 17 16  2  0  0  0  0
 18 13  2  0  0  0  0
 18 17  1  0  0  0  0
 19 10  1  0  0  0  0
 20 11  1  0  0  0  0
 25 17  1  0  0  0  0
 26  2  1  0  0  0  0
 28 27  2  6  0  0  0
 28 26  1  0  0  0  0
 28 38  1  0  0  0  0
 29 28  1  0  0  0  0
 30 29  1  0  0  0  0
 31 30  2  0  0  0  0
 31 32  1  0  0  0  0
 33 31  1  0  0  0  0
 34 33  1  0  0  0  0
 35 33  1  0  0  0  0
 35 37  2  0  0  0  0
 36 35  1  0  0  0  0
 37 30  1  0  0  0  0
 39 38  1  0  0  0  0
 39 41  1  0  0  0  0
 40 39  2  0  0  0  0
 41 43  1  0  0  0  0
 42 41  1  0  0  0  0
M  END
>  <minimizedAffinity>
-6.00427246

>  <minimizedRMSD>
0.405985266

$$$$
