
 OpenBabel03252509123D

 31 34  0  0  0  0  0  0  0  0999 V2000
   47.4880   31.3110   44.9460 C   0  0  0  0  0  0  0  0  0  0  0  0
   47.2120   32.3760   44.0850 C   0  0  0  0  0  0  0  0  0  0  0  0
   46.3900   33.4070   44.4430 C   0  0  0  0  0  0  0  0  0  0  0  0
   45.7850   33.4320   45.7090 C   0  0  0  0  0  0  0  0  0  0  0  0
   44.9460   34.2610   46.3800 N   0  0  0  0  0  0  0  0  0  0  0  0
   44.7080   33.7360   47.6100 C   0  0  0  0  0  0  0  0  0  0  0  0
   45.4060   32.5910   47.6730 N   0  0  0  0  0  0  0  0  0  0  0  0
   46.0750   32.3750   46.5300 C   0  0  0  0  0  0  0  0  0  0  0  0
   46.8990   31.3110   46.2120 C   0  0  0  0  0  0  0  0  0  0  0  0
   48.1330   30.4930   44.6770 H   0  0  0  0  0  0  0  0  0  0  0  0
   44.6270   35.1240   45.8910 H   0  0  0  0  0  0  0  0  0  0  0  0
   44.0500   34.3170   48.2340 H   0  0  0  0  0  0  0  0  0  0  0  0
   47.0930   30.4980   46.9050 H   0  0  0  0  0  0  0  0  0  0  0  0
   47.6990   31.8800   40.4870 C   0  0  0  0  0  0  0  0  0  0  0  0
   48.9780   32.4130   40.2730 C   0  0  0  0  0  0  0  0  0  0  0  0
   49.6560   32.9370   41.3760 C   0  0  0  0  0  0  0  0  0  0  0  0
   49.0500   32.9090   42.6060 N   0  0  0  0  0  0  0  0  0  0  0  0
   47.8210   32.3860   42.7610 C   0  0  0  0  0  0  0  0  0  0  0  0
   47.1260   31.8660   41.7160 N   0  0  0  0  0  0  0  0  0  0  0  0
   47.1260   31.4600   39.6700 H   0  0  0  0  0  0  0  0  0  0  0  0
   49.3870   32.3970   39.2720 H   0  0  0  0  0  0  0  0  0  0  0  0
   50.6380   33.3470   41.2150 H   0  0  0  0  0  0  0  0  0  0  0  0
   46.0340   34.7710   43.3540 S   0  0  0  0  0  0  0  0  0  0  0  0
   44.5620   34.5160   42.4030 C   0  0  0  0  0  0  0  0  0  0  0  0
   43.8560   35.5930   41.8770 C   0  0  0  0  0  0  0  0  0  0  0  0
   44.0310   36.6700   41.9280 H   0  0  0  0  0  0  0  0  0  0  0  0
   42.8020   35.0420   41.2180 N   0  0  0  0  0  0  0  0  0  0  0  0
   42.0400   35.5290   40.6900 H   0  0  0  0  0  0  0  0  0  0  0  0
   42.8420   33.7030   41.3240 C   0  0  0  0  0  0  0  0  0  0  0  0
   42.2100   32.9070   40.9560 H   0  0  0  0  0  0  0  0  0  0  0  0
   43.9240   33.3860   42.0520 N   0  0  0  0  0  0  0  0  0  0  0  0
  1  9  1  0  0  0  0
  2  3  1  0  0  0  0
  2  1  2  0  0  0  0
  3  4  2  0  0  0  0
  4  5  1  0  0  0  0
  4  8  1  0  0  0  0
  5  6  1  0  0  0  0
  6  7  2  0  0  0  0
  6 12  1  0  0  0  0
  8  7  1  0  0  0  0
  9  8  2  0  0  0  0
  9 13  1  0  0  0  0
 10  1  1  0  0  0  0
 11  5  1  0  0  0  0
 14 19  1  0  0  0  0
 15 14  2  0  0  0  0
 15 16  1  0  0  0  0
 16 17  2  0  0  0  0
 17 18  1  0  0  0  0
 18  2  1  0  0  0  0
 19 18  2  0  0  0  0
 20 14  1  0  0  0  0
 21 15  1  0  0  0  0
 22 16  1  0  0  0  0
 23  3  1  0  0  0  0
 24 23  1  0  0  0  0
 25 26  1  0  0  0  0
 25 24  2  0  0  0  0
 27 29  1  0  0  0  0
 27 25  1  0  0  0  0
 28 27  1  0  0  0  0
 29 31  2  0  0  0  0
 30 29  1  0  0  0  0
 31 24  1  0  0  0  0
M  END
>  <minimizedAffinity>
-4.58677673

>  <minimizedRMSD>
1.90672672

$$$$
