
 OpenBabel03252502313D

 23 24  0  0  0  0  0  0  0  0999 V2000
   47.9290   34.5340   42.4160 C   0  0  0  0  0  0  0  0  0  0  0  0
   48.0190   33.5230   43.4060 C   0  0  0  0  0  0  0  0  0  0  0  0
   46.9550   33.4180   44.3190 C   0  0  0  0  0  0  0  0  0  0  0  0
   45.9160   34.2800   44.2040 N   0  0  0  0  0  0  0  0  0  0  0  0
   45.8690   35.2280   43.2460 C   0  0  0  0  0  0  0  0  0  0  0  0
   46.8680   35.3490   42.3650 N   0  0  0  0  0  0  0  0  0  0  0  0
   48.8620   32.8660   43.4560 H   0  0  0  0  0  0  0  0  0  0  0  0
   47.0060   32.3910   45.3550 C   0  0  0  0  0  0  0  0  0  0  0  0
   46.7260   32.6360   46.6840 C   0  0  0  0  0  0  0  0  0  0  0  0
   46.4390   33.5420   47.2000 H   0  0  0  0  0  0  0  0  0  0  0  0
   46.8920   31.4320   47.2730 N   0  0  0  0  0  0  0  0  0  0  0  0
   46.7850   31.1410   48.2780 H   0  0  0  0  0  0  0  0  0  0  0  0
   47.2540   30.4990   46.3440 C   0  0  0  0  0  0  0  0  0  0  0  0
   47.4580   29.4400   46.5230 H   0  0  0  0  0  0  0  0  0  0  0  0
   47.3230   31.1210   45.1310 N   0  0  0  0  0  0  0  0  0  0  0  0
   49.0680   34.6250   41.4600 C   0  0  0  0  0  0  0  0  0  0  0  0
   49.1430   33.5140   40.6610 F   0  0  0  0  0  0  0  0  0  0  0  0
   48.9280   35.7830   40.7140 F   0  0  0  0  0  0  0  0  0  0  0  0
   50.2610   34.7910   42.1740 F   0  0  0  0  0  0  0  0  0  0  0  0
   44.7120   36.1560   43.1510 C   0  0  0  0  0  0  0  0  0  0  0  0
   44.0520   36.0190   41.9590 F   0  0  0  0  0  0  0  0  0  0  0  0
   45.1350   37.4810   43.3510 F   0  0  0  0  0  0  0  0  0  0  0  0
   43.7970   35.9330   44.1680 F   0  0  0  0  0  0  0  0  0  0  0  0
  1  2  1  0  0  0  0
  2  7  1  0  0  0  0
  2  3  2  0  0  0  0
  3  8  1  0  0  0  0
  4  3  1  0  0  0  0
  5  4  2  0  0  0  0
  6  1  2  0  0  0  0
  6  5  1  0  0  0  0
  8  9  2  0  0  0  0
  9 10  1  0  0  0  0
  9 11  1  0  0  0  0
 11 12  1  0  0  0  0
 13 14  1  0  0  0  0
 13 11  1  0  0  0  0
 15  8  1  0  0  0  0
 15 13  2  0  0  0  0
 16 19  1  0  0  0  0
 16  1  1  0  0  0  0
 17 16  1  0  0  0  0
 18 16  1  0  0  0  0
 20  5  1  0  0  0  0
 20 22  1  0  0  0  0
 20 23  1  0  0  0  0
 21 20  1  0  0  0  0
M  END
>  <minimizedAffinity>
-5.59206676

>  <minimizedRMSD>
1.07220805

$$$$
