
 OpenBabel03252501593D

 35 37  0  0  0  0  0  0  0  0999 V2000
   44.4000   36.3140   45.2170 C   0  0  0  0  0  0  0  0  0  0  0  0
   45.1530   36.2250   44.0410 C   0  0  0  0  0  0  0  0  0  0  0  0
   45.9070   35.1130   43.8120 C   0  0  0  0  0  0  0  0  0  0  0  0
   45.9020   34.1110   44.7500 N   0  0  0  0  0  0  0  0  0  0  0  0
   45.1670   34.2080   45.8880 C   0  0  0  0  0  0  0  0  0  0  0  0
   44.4170   35.3030   46.1260 N   0  0  0  0  0  0  0  0  0  0  0  0
   43.7250   37.0080   45.6220 H   0  0  0  0  0  0  0  0  0  0  0  0
   45.3110   33.3110   46.4800 H   0  0  0  0  0  0  0  0  0  0  0  0
   46.6600   35.0190   42.5990 C   0  0  0  0  0  0  0  0  0  0  0  0
   47.9080   35.4930   42.3260 C   0  0  0  0  0  0  0  0  0  0  0  0
   48.4680   35.2950   41.0760 C   0  0  0  0  0  0  0  0  0  0  0  0
   47.7800   34.6230   40.0970 C   0  0  0  0  0  0  0  0  0  0  0  0
   46.5300   34.1370   40.3400 C   0  0  0  0  0  0  0  0  0  0  0  0
   45.9910   34.3460   41.5950 C   0  0  0  0  0  0  0  0  0  0  0  0
   48.3900   36.0140   43.1460 H   0  0  0  0  0  0  0  0  0  0  0  0
   49.4630   35.7050   40.9460 H   0  0  0  0  0  0  0  0  0  0  0  0
   48.3340   34.5420   39.1750 H   0  0  0  0  0  0  0  0  0  0  0  0
   46.0180   33.6130   39.5470 H   0  0  0  0  0  0  0  0  0  0  0  0
   44.9820   33.9180   41.6930 H   0  0  0  0  0  0  0  0  0  0  0  0
   45.0290   37.3610   43.1040 C   0  0  0  0  0  0  0  0  0  0  0  0
   44.0340   37.4530   42.6330 H   0  0  0  0  0  0  0  0  0  0  0  0
   45.7530   37.1430   42.2840 H   0  0  0  0  0  0  0  0  0  0  0  0
   45.4160   38.5470   43.8380 N   0  0  0  0  0  0  0  0  0  0  0  0
   45.0670   39.4110   44.9070 C   0  0  0  0  0  0  0  0  0  0  0  0
   45.0850   39.1520   46.2880 C   0  0  0  0  0  0  0  0  0  0  0  0
   45.3620   38.2130   46.7460 H   0  0  0  0  0  0  0  0  0  0  0  0
   44.6890   40.3180   46.8280 N   0  0  0  0  0  0  0  0  0  0  0  0
   44.6040   40.4250   47.8820 H   0  0  0  0  0  0  0  0  0  0  0  0
   44.4320   41.2640   45.9100 C   0  0  0  0  0  0  0  0  0  0  0  0
   44.0990   42.2690   46.1730 H   0  0  0  0  0  0  0  0  0  0  0  0
   44.6640   40.7100   44.7080 N   0  0  0  0  0  0  0  0  0  0  0  0
   46.6420   39.1320   43.2890 C   0  0  0  0  0  0  0  0  0  0  0  0
   47.4660   38.2310   42.7260 F   0  0  0  0  0  0  0  0  0  0  0  0
   47.3720   39.7750   44.2870 F   0  0  0  0  0  0  0  0  0  0  0  0
   46.2880   40.0820   42.3700 F   0  0  0  0  0  0  0  0  0  0  0  0
  1  7  1  0  0  0  0
  1  6  1  0  0  0  0
  2  1  2  0  0  0  0
  3  2  1  0  0  0  0
  3  4  2  0  0  0  0
  4  5  1  0  0  0  0
  5  6  2  0  0  0  0
  5  8  1  0  0  0  0
  9  3  1  0  0  0  0
 10  9  1  0  0  0  0
 10 15  1  0  0  0  0
 11 10  2  0  0  0  0
 12 13  2  0  0  0  0
 12 11  1  0  0  0  0
 13 14  1  0  0  0  0
 14 19  1  0  0  0  0
 14  9  2  0  0  0  0
 16 11  1  0  0  0  0
 17 12  1  0  0  0  0
 18 13  1  0  0  0  0
 20 23  1  0  0  0  0
 20  2  1  0  0  0  0
 21 20  1  0  0  0  0
 22 20  1  0  0  0  0
 23 24  1  0  0  0  0
 24 25  2  0  0  0  0
 25 26  1  0  0  0  0
 25 27  1  0  0  0  0
 27 28  1  0  0  0  0
 29 30  1  0  0  0  0
 29 27  1  0  0  0  0
 31 24  1  0  0  0  0
 31 29  2  0  0  0  0
 32 23  1  0  0  0  0
 32 34  1  0  0  0  0
 33 32  1  0  0  0  0
 35 32  1  0  0  0  0
M  END
>  <minimizedAffinity>
-0.0871783122

>  <minimizedRMSD>
1.31159973

$$$$
