
 OpenBabel03252506463D

 41 44  0  0  1  0  0  0  0  0999 V2000
   49.5600   33.4420   41.3880 N   0  0  1  0  0  0  0  0  0  0  0  0
   50.7050   33.0100   42.1460 C   0  0  0  0  0  0  0  0  0  0  0  0
   51.2510   31.6890   41.6770 C   0  0  0  0  0  0  0  0  0  0  0  0
   50.2410   30.6130   42.0200 C   0  0  0  0  0  0  0  0  0  0  0  0
   48.8380   31.1160   41.8070 C   0  0  0  0  0  0  0  0  0  0  0  0
   48.8750   32.3040   40.8800 C   0  0  2  0  0  0  0  0  0  0  0  0
   51.4860   33.7840   42.1200 H   0  0  0  0  0  0  0  0  0  0  0  0
   50.4170   32.8830   43.2290 H   0  0  0  0  0  0  0  0  0  0  0  0
   51.5750   31.6830   40.6400 H   0  0  0  0  0  0  0  0  0  0  0  0
   52.1390   31.4840   42.3060 H   0  0  0  0  0  0  0  0  0  0  0  0
   50.4760   29.7370   41.3770 H   0  0  0  0  0  0  0  0  0  0  0  0
   50.3860   30.3080   43.0780 H   0  0  0  0  0  0  0  0  0  0  0  0
   48.1700   30.3750   41.3600 H   0  0  0  0  0  0  0  0  0  0  0  0
   48.4690   31.4920   42.7910 H   0  0  0  0  0  0  0  0  0  0  0  0
   47.8040   32.6200   40.7390 H   0  0  0  0  0  0  0  0  0  0  0  0
   47.3540   34.6550   41.9580 C   0  0  1  0  0  0  0  0  0  0  0  0
   48.4470   35.6340   41.7290 C   0  0  0  0  0  0  0  0  0  0  0  0
   48.7620   34.2710   42.2310 C   0  0  2  0  0  0  0  0  0  0  0  0
   46.8520   34.2930   41.0230 H   0  0  0  0  0  0  0  0  0  0  0  0
   48.7320   35.8820   40.6710 H   0  0  0  0  0  0  0  0  0  0  0  0
   48.5180   36.5160   42.3950 H   0  0  0  0  0  0  0  0  0  0  0  0
   49.0230   34.2030   43.3180 H   0  0  0  0  0  0  0  0  0  0  0  0
   45.5260   35.9510   43.0990 C   0  0  0  0  0  0  0  0  0  0  0  0
   46.4210   34.8760   43.0690 C   0  0  0  0  0  0  0  0  0  0  0  0
   46.3830   33.9860   44.1580 C   0  0  0  0  0  0  0  0  0  0  0  0
   45.5000   34.2020   45.1670 N   0  0  0  0  0  0  0  0  0  0  0  0
   44.6510   35.2630   45.1490 C   0  0  0  0  0  0  0  0  0  0  0  0
   44.6560   36.1430   44.1160 N   0  0  0  0  0  0  0  0  0  0  0  0
   45.5810   36.6220   42.2390 H   0  0  0  0  0  0  0  0  0  0  0  0
   47.0590   33.1380   44.1840 H   0  0  0  0  0  0  0  0  0  0  0  0
   43.9730   35.3860   45.9810 H   0  0  0  0  0  0  0  0  0  0  0  0
   49.3090   31.8700   39.5630 N   0  0  0  0  0  0  0  0  0  0  0  0
   50.1100   31.3070   39.1350 H   0  0  0  0  0  0  0  0  0  0  0  0
   48.3460   32.3660   38.6040 C   0  0  0  0  0  0  0  0  0  0  0  0
   47.1390   32.0490   38.0180 C   0  0  0  0  0  0  0  0  0  0  0  0
   46.7300   31.1250   38.3440 H   0  0  0  0  0  0  0  0  0  0  0  0
   46.7990   33.0260   37.1650 N   0  0  0  0  0  0  0  0  0  0  0  0
   45.9030   32.9580   36.6230 H   0  0  0  0  0  0  0  0  0  0  0  0
   47.7470   33.9790   37.1740 C   0  0  0  0  0  0  0  0  0  0  0  0
   47.6500   34.8530   36.5490 H   0  0  0  0  0  0  0  0  0  0  0  0
   48.7000   33.5680   38.0620 N   0  0  0  0  0  0  0  0  0  0  0  0
  1  2  1  1  0  0  0
  1 18  1  0  0  0  0
  2  8  1  0  0  0  0
  3  4  1  0  0  0  0
  3  2  1  0  0  0  0
  3 10  1  0  0  0  0
  4 12  1  0  0  0  0
  5  4  1  0  0  0  0
  5 14  1  0  0  0  0
  6 15  1  6  0  0  0
  6  1  1  0  0  0  0
  6  5  1  0  0  0  0
  7  2  1  0  0  0  0
  9  3  1  0  0  0  0
 11  4  1  0  0  0  0
 13  5  1  0  0  0  0
 16 19  1  6  0  0  0
 16 18  1  0  0  0  0
 16 24  1  0  0  0  0
 17 16  1  0  0  0  0
 17 18  1  0  0  0  0
 17 21  1  0  0  0  0
 18 22  1  1  0  0  0
 20 17  1  0  0  0  0
 23 28  1  0  0  0  0
 24 23  2  0  0  0  0
 24 25  1  0  0  0  0
 25 30  1  0  0  0  0
 25 26  2  0  0  0  0
 27 26  1  0  0  0  0
 27 31  1  0  0  0  0
 28 27  2  0  0  0  0
 29 23  1  0  0  0  0
 32  6  1  0  0  0  0
 33 32  1  0  0  0  0
 34 32  1  0  0  0  0
 35 36  1  0  0  0  0
 35 34  2  0  0  0  0
 37 39  1  0  0  0  0
 37 35  1  0  0  0  0
 38 37  1  0  0  0  0
 39 41  2  0  0  0  0
 40 39  1  0  0  0  0
 41 34  1  0  0  0  0
M  END
>  <minimizedAffinity>
-5.02728844

>  <minimizedRMSD>
2.37450409

$$$$
