
 OpenBabel03252506463D

 41 44  0  0  1  0  0  0  0  0999 V2000
   49.4770   33.5110   41.2420 N   0  0  1  0  0  0  0  0  0  0  0  0
   50.5820   32.9310   41.9620 C   0  0  0  0  0  0  0  0  0  0  0  0
   51.0510   31.6340   41.3630 C   0  0  0  0  0  0  0  0  0  0  0  0
   49.9710   30.5940   41.5830 C   0  0  0  0  0  0  0  0  0  0  0  0
   48.6060   31.2050   41.4110 C   0  0  0  0  0  0  0  0  0  0  0  0
   48.7310   32.4770   40.6120 C   0  0  2  0  0  0  0  0  0  0  0  0
   51.4090   33.6530   42.0230 H   0  0  0  0  0  0  0  0  0  0  0  0
   50.2700   32.7120   43.0220 H   0  0  0  0  0  0  0  0  0  0  0  0
   51.3910   31.7150   40.3340 H   0  0  0  0  0  0  0  0  0  0  0  0
   51.9150   31.3090   41.9750 H   0  0  0  0  0  0  0  0  0  0  0  0
   50.1620   29.7760   40.8540 H   0  0  0  0  0  0  0  0  0  0  0  0
   50.0810   30.1730   42.6050 H   0  0  0  0  0  0  0  0  0  0  0  0
   47.9010   30.5570   40.8830 H   0  0  0  0  0  0  0  0  0  0  0  0
   48.2460   31.4990   42.4240 H   0  0  0  0  0  0  0  0  0  0  0  0
   47.6840   32.8730   40.4940 H   0  0  0  0  0  0  0  0  0  0  0  0
   47.3330   34.7750   41.9250 C   0  0  1  0  0  0  0  0  0  0  0  0
   48.4740   35.7150   41.7860 C   0  0  0  0  0  0  0  0  0  0  0  0
   48.7190   34.2970   42.1590 C   0  0  2  0  0  0  0  0  0  0  0  0
   46.8160   34.5270   40.9610 H   0  0  0  0  0  0  0  0  0  0  0  0
   48.7750   36.0460   40.7550 H   0  0  0  0  0  0  0  0  0  0  0  0
   48.5870   36.5270   42.5300 H   0  0  0  0  0  0  0  0  0  0  0  0
   48.9730   34.1160   43.2340 H   0  0  0  0  0  0  0  0  0  0  0  0
   45.4950   35.9950   43.1310 C   0  0  0  0  0  0  0  0  0  0  0  0
   46.4090   34.9390   43.0520 C   0  0  0  0  0  0  0  0  0  0  0  0
   46.3990   34.0100   44.1090 C   0  0  0  0  0  0  0  0  0  0  0  0
   45.5240   34.1740   45.1350 N   0  0  0  0  0  0  0  0  0  0  0  0
   44.6550   35.2180   45.1630 C   0  0  0  0  0  0  0  0  0  0  0  0
   44.6330   36.1350   44.1630 N   0  0  0  0  0  0  0  0  0  0  0  0
   45.5280   36.6980   42.2950 H   0  0  0  0  0  0  0  0  0  0  0  0
   47.0910   33.1740   44.0980 H   0  0  0  0  0  0  0  0  0  0  0  0
   43.9850   35.2990   46.0070 H   0  0  0  0  0  0  0  0  0  0  0  0
   49.1580   32.1550   39.2610 N   0  0  0  0  0  0  0  0  0  0  0  0
   49.8370   31.4840   38.7800 H   0  0  0  0  0  0  0  0  0  0  0  0
   48.4200   33.0100   38.3580 C   0  0  0  0  0  0  0  0  0  0  0  0
   48.4910   34.2300   37.7200 C   0  0  0  0  0  0  0  0  0  0  0  0
   49.3720   34.7810   37.9390 H   0  0  0  0  0  0  0  0  0  0  0  0
   47.3880   34.3970   36.9740 N   0  0  0  0  0  0  0  0  0  0  0  0
   47.2660   35.2740   36.4130 H   0  0  0  0  0  0  0  0  0  0  0  0
   46.5960   33.3190   37.1010 C   0  0  0  0  0  0  0  0  0  0  0  0
   45.6580   33.2660   36.5710 H   0  0  0  0  0  0  0  0  0  0  0  0
   47.2340   32.4660   37.9540 N   0  0  0  0  0  0  0  0  0  0  0  0
  1  2  1  1  0  0  0
  1 18  1  0  0  0  0
  2  7  1  0  0  0  0
  2  8  1  0  0  0  0
  3  4  1  0  0  0  0
  3  2  1  0  0  0  0
  3 10  1  0  0  0  0
  4 12  1  0  0  0  0
  5  4  1  0  0  0  0
  5 14  1  0  0  0  0
  6 15  1  6  0  0  0
  6  1  1  0  0  0  0
  6  5  1  0  0  0  0
  9  3  1  0  0  0  0
 11  4  1  0  0  0  0
 13  5  1  0  0  0  0
 16 19  1  6  0  0  0
 16 18  1  0  0  0  0
 16 24  1  0  0  0  0
 17 16  1  0  0  0  0
 17 18  1  0  0  0  0
 17 21  1  0  0  0  0
 18 22  1  1  0  0  0
 20 17  1  0  0  0  0
 23 28  1  0  0  0  0
 24 23  2  0  0  0  0
 24 25  1  0  0  0  0
 25 26  2  0  0  0  0
 26 27  1  0  0  0  0
 27 31  1  0  0  0  0
 28 27  2  0  0  0  0
 29 23  1  0  0  0  0
 30 25  1  0  0  0  0
 32  6  1  0  0  0  0
 33 32  1  0  0  0  0
 34 32  1  0  0  0  0
 35 36  1  0  0  0  0
 35 34  2  0  0  0  0
 37 39  1  0  0  0  0
 37 35  1  0  0  0  0
 38 37  1  0  0  0  0
 39 41  2  0  0  0  0
 40 39  1  0  0  0  0
 41 34  1  0  0  0  0
M  END
>  <minimizedAffinity>
-5.5367856

>  <minimizedRMSD>
2.74503207

$$$$
