
 OpenBabel03242516523D

 44 47  0  0  1  0  0  0  0  0999 V2000
   47.8500   32.9030   41.8510 C   0  0  1  0  0  0  0  0  0  0  0  0
   47.5460   32.2840   40.5600 C   0  0  0  0  0  0  0  0  0  0  0  0
   48.5770   32.8310   39.5740 C   0  0  0  0  0  0  0  0  0  0  0  0
   48.2380   34.2810   39.3510 C   0  0  0  0  0  0  0  0  0  0  0  0
   48.1510   35.0880   40.6160 C   0  0  0  0  0  0  0  0  0  0  0  0
   47.6460   34.4210   41.8280 C   0  0  1  0  0  0  0  0  0  0  0  0
   48.9650   32.8180   42.0340 H   0  0  0  0  0  0  0  0  0  0  0  0
   47.6740   31.1900   40.6420 H   0  0  0  0  0  0  0  0  0  0  0  0
   46.5480   32.5330   40.1780 H   0  0  0  0  0  0  0  0  0  0  0  0
   49.6020   32.6470   39.9070 H   0  0  0  0  0  0  0  0  0  0  0  0
   48.3440   32.3180   38.5980 H   0  0  0  0  0  0  0  0  0  0  0  0
   49.0130   34.7100   38.6870 H   0  0  0  0  0  0  0  0  0  0  0  0
   47.2790   34.3340   38.8060 H   0  0  0  0  0  0  0  0  0  0  0  0
   47.4750   35.9440   40.3800 H   0  0  0  0  0  0  0  0  0  0  0  0
   49.1510   35.5520   40.7810 H   0  0  0  0  0  0  0  0  0  0  0  0
   48.2350   34.8000   42.7070 H   0  0  0  0  0  0  0  0  0  0  0  0
   45.4090   30.9340   43.9510 C   0  0  0  0  0  0  0  0  0  0  0  0
   46.0950   31.5000   42.8740 C   0  0  0  0  0  0  0  0  0  0  0  0
   47.1920   32.3480   43.0170 C   0  0  0  0  0  0  0  0  0  0  0  0
   47.5650   32.6010   44.2710 N   0  0  0  0  0  0  0  0  0  0  0  0
   46.9070   32.0580   45.3300 C   0  0  0  0  0  0  0  0  0  0  0  0
   45.8550   31.2440   45.1850 N   0  0  0  0  0  0  0  0  0  0  0  0
   44.5730   30.2900   43.7580 H   0  0  0  0  0  0  0  0  0  0  0  0
   45.7280   31.2440   41.8760 H   0  0  0  0  0  0  0  0  0  0  0  0
   47.3090   32.3400   46.3100 H   0  0  0  0  0  0  0  0  0  0  0  0
   46.2600   34.7850   42.1250 C   0  0  0  0  0  0  0  0  0  0  0  0
   45.7980   35.3300   43.3300 C   0  0  0  0  0  0  0  0  0  0  0  0
   44.4360   35.6150   43.3860 C   0  0  0  0  0  0  0  0  0  0  0  0
   43.6620   35.3390   42.2610 C   0  0  0  0  0  0  0  0  0  0  0  0
   44.1430   34.7990   41.0800 C   0  0  0  0  0  0  0  0  0  0  0  0
   45.4780   34.5280   41.0490 N   0  0  0  0  0  0  0  0  0  0  0  0
   46.5030   35.4820   44.0910 H   0  0  0  0  0  0  0  0  0  0  0  0
   44.0470   36.0310   44.2860 H   0  0  0  0  0  0  0  0  0  0  0  0
   42.6110   35.5730   42.3420 H   0  0  0  0  0  0  0  0  0  0  0  0
   43.2470   34.5510   39.9570 C   0  0  0  0  0  0  0  0  0  0  0  0
   42.2090   35.2760   39.8740 O   0  0  0  0  0  0  0  0  0  0  0  0
   43.4310   33.5450   38.9140 C   0  0  0  0  0  0  0  0  0  0  0  0
   42.3730   32.8720   38.3410 C   0  0  0  0  0  0  0  0  0  0  0  0
   41.3180   32.9040   38.4880 H   0  0  0  0  0  0  0  0  0  0  0  0
   42.8900   32.0190   37.4210 N   0  0  0  0  0  0  0  0  0  0  0  0
   42.3960   31.3380   36.7840 H   0  0  0  0  0  0  0  0  0  0  0  0
   44.2120   32.1250   37.3890 C   0  0  0  0  0  0  0  0  0  0  0  0
   45.0160   31.6680   36.8380 H   0  0  0  0  0  0  0  0  0  0  0  0
   44.5230   33.0600   38.3050 N   0  0  0  0  0  0  0  0  0  0  0  0
  1  7  1  1  0  0  0
  1 19  1  0  0  0  0
  2  8  1  0  0  0  0
  2  1  1  0  0  0  0
  3 10  1  0  0  0  0
  3  2  1  0  0  0  0
  4  3  1  0  0  0  0
  4  5  1  0  0  0  0
  5 15  1  0  0  0  0
  5  6  1  0  0  0  0
  6  1  1  0  0  0  0
  6 26  1  0  0  0  0
  6 16  1  1  0  0  0
  9  2  1  0  0  0  0
 11  3  1  0  0  0  0
 12  4  1  0  0  0  0
 13  4  1  0  0  0  0
 14  5  1  0  0  0  0
 17 22  1  0  0  0  0
 18 19  1  0  0  0  0
 18 17  2  0  0  0  0
 19 20  2  0  0  0  0
 20 21  1  0  0  0  0
 21 25  1  0  0  0  0
 22 21  2  0  0  0  0
 23 17  1  0  0  0  0
 24 18  1  0  0  0  0
 26 27  1  0  0  0  0
 27 28  2  0  0  0  0
 27 32  1  0  0  0  0
 28 33  1  0  0  0  0
 29 34  1  0  0  0  0
 29 28  1  0  0  0  0
 30 29  2  0  0  0  0
 31 30  1  0  0  0  0
 31 26  2  0  0  0  0
 35 30  1  0  0  0  0
 36 35  2  0  0  0  0
 37 35  1  0  0  0  0
 38 39  1  0  0  0  0
 38 37  2  0  0  0  0
 40 38  1  0  0  0  0
 41 40  1  0  0  0  0
 42 40  1  0  0  0  0
 42 44  2  0  0  0  0
 43 42  1  0  0  0  0
 44 37  1  0  0  0  0
M  END
>  <minimizedAffinity>
-5.43127537

>  <minimizedRMSD>
0.528690755

$$$$
