
 OpenBabel03242516523D

 44 47  0  0  1  0  0  0  0  0999 V2000
   47.8650   32.8920   41.7250 C   0  0  1  0  0  0  0  0  0  0  0  0
   47.5320   32.2150   40.4710 C   0  0  0  0  0  0  0  0  0  0  0  0
   48.5550   32.6970   39.4440 C   0  0  0  0  0  0  0  0  0  0  0  0
   48.2340   34.1390   39.1550 C   0  0  0  0  0  0  0  0  0  0  0  0
   48.1790   35.0090   40.3790 C   0  0  0  0  0  0  0  0  0  0  0  0
   47.6820   34.4110   41.6300 C   0  0  1  0  0  0  0  0  0  0  0  0
   48.9810   32.8000   41.8950 H   0  0  0  0  0  0  0  0  0  0  0  0
   47.6460   31.1250   40.6050 H   0  0  0  0  0  0  0  0  0  0  0  0
   46.5320   32.4600   40.0920 H   0  0  0  0  0  0  0  0  0  0  0  0
   49.5830   32.5140   39.7710 H   0  0  0  0  0  0  0  0  0  0  0  0
   48.3010   32.1400   38.4990 H   0  0  0  0  0  0  0  0  0  0  0  0
   49.0050   34.5230   38.4590 H   0  0  0  0  0  0  0  0  0  0  0  0
   47.2680   34.1800   38.6220 H   0  0  0  0  0  0  0  0  0  0  0  0
   47.5120   35.8620   40.1110 H   0  0  0  0  0  0  0  0  0  0  0  0
   49.1870   35.4650   40.5060 H   0  0  0  0  0  0  0  0  0  0  0  0
   48.2900   34.8230   42.4800 H   0  0  0  0  0  0  0  0  0  0  0  0
   45.4550   31.0310   43.9560 C   0  0  0  0  0  0  0  0  0  0  0  0
   46.1310   31.5350   42.8420 C   0  0  0  0  0  0  0  0  0  0  0  0
   47.2170   32.4050   42.9260 C   0  0  0  0  0  0  0  0  0  0  0  0
   47.5890   32.7450   44.1610 N   0  0  0  0  0  0  0  0  0  0  0  0
   46.9410   32.2630   45.2540 C   0  0  0  0  0  0  0  0  0  0  0  0
   45.9000   31.4270   45.1660 N   0  0  0  0  0  0  0  0  0  0  0  0
   44.6280   30.3650   43.8080 H   0  0  0  0  0  0  0  0  0  0  0  0
   45.7660   31.2100   41.8640 H   0  0  0  0  0  0  0  0  0  0  0  0
   47.3400   32.6140   46.2120 H   0  0  0  0  0  0  0  0  0  0  0  0
   46.3070   34.8100   41.9290 C   0  0  0  0  0  0  0  0  0  0  0  0
   45.8850   35.4930   43.0760 C   0  0  0  0  0  0  0  0  0  0  0  0
   44.5240   35.7860   43.1450 C   0  0  0  0  0  0  0  0  0  0  0  0
   43.7140   35.3820   42.0870 C   0  0  0  0  0  0  0  0  0  0  0  0
   44.1560   34.7060   40.9610 C   0  0  0  0  0  0  0  0  0  0  0  0
   45.4890   34.4300   40.9170 N   0  0  0  0  0  0  0  0  0  0  0  0
   46.6150   35.7320   43.7910 H   0  0  0  0  0  0  0  0  0  0  0  0
   44.1660   36.3040   44.0020 H   0  0  0  0  0  0  0  0  0  0  0  0
   42.6660   35.6260   42.1750 H   0  0  0  0  0  0  0  0  0  0  0  0
   43.2230   34.3300   39.9060 C   0  0  0  0  0  0  0  0  0  0  0  0
   42.5760   35.2660   39.3440 O   0  0  0  0  0  0  0  0  0  0  0  0
   42.9610   32.9740   39.4290 C   0  0  0  0  0  0  0  0  0  0  0  0
   42.0510   32.7040   38.4290 C   0  0  0  0  0  0  0  0  0  0  0  0
   41.4080   33.3160   37.8380 H   0  0  0  0  0  0  0  0  0  0  0  0
   42.0530   31.3600   38.2360 N   0  0  0  0  0  0  0  0  0  0  0  0
   41.4910   30.7800   37.5580 H   0  0  0  0  0  0  0  0  0  0  0  0
   42.9130   30.7810   39.0610 C   0  0  0  0  0  0  0  0  0  0  0  0
   43.2410   29.7740   39.2620 H   0  0  0  0  0  0  0  0  0  0  0  0
   43.4570   31.7780   39.7810 N   0  0  0  0  0  0  0  0  0  0  0  0
  1  7  1  1  0  0  0
  1 19  1  0  0  0  0
  2  8  1  0  0  0  0
  2  1  1  0  0  0  0
  3 10  1  0  0  0  0
  3  2  1  0  0  0  0
  4  3  1  0  0  0  0
  4  5  1  0  0  0  0
  5 15  1  0  0  0  0
  5  6  1  0  0  0  0
  6  1  1  0  0  0  0
  6 26  1  0  0  0  0
  6 16  1  1  0  0  0
  9  2  1  0  0  0  0
 11  3  1  0  0  0  0
 12  4  1  0  0  0  0
 13  4  1  0  0  0  0
 14  5  1  0  0  0  0
 17 22  1  0  0  0  0
 18 19  1  0  0  0  0
 18 17  2  0  0  0  0
 19 20  2  0  0  0  0
 20 21  1  0  0  0  0
 21 25  1  0  0  0  0
 22 21  2  0  0  0  0
 23 17  1  0  0  0  0
 24 18  1  0  0  0  0
 26 27  1  0  0  0  0
 27 28  2  0  0  0  0
 27 32  1  0  0  0  0
 28 33  1  0  0  0  0
 29 34  1  0  0  0  0
 29 28  1  0  0  0  0
 30 29  2  0  0  0  0
 31 30  1  0  0  0  0
 31 26  2  0  0  0  0
 35 30  1  0  0  0  0
 36 35  2  0  0  0  0
 37 44  1  0  0  0  0
 37 35  1  0  0  0  0
 38 37  2  0  0  0  0
 39 38  1  0  0  0  0
 40 38  1  0  0  0  0
 40 42  1  0  0  0  0
 41 40  1  0  0  0  0
 42 43  1  0  0  0  0
 42 44  2  0  0  0  0
M  END
>  <minimizedAffinity>
-5.0998702

>  <minimizedRMSD>
0.339463502

$$$$
