
 OpenBabel03242516523D

 44 47  0  0  1  0  0  0  0  0999 V2000
   47.8090   32.8650   41.7980 C   0  0  1  0  0  0  0  0  0  0  0  0
   47.4710   32.2050   40.5370 C   0  0  0  0  0  0  0  0  0  0  0  0
   48.4780   32.7170   39.5080 C   0  0  0  0  0  0  0  0  0  0  0  0
   48.1360   34.1600   39.2460 C   0  0  0  0  0  0  0  0  0  0  0  0
   48.0830   35.0080   40.4850 C   0  0  0  0  0  0  0  0  0  0  0  0
   47.6070   34.3830   41.7310 C   0  0  1  0  0  0  0  0  0  0  0  0
   48.9280   32.7830   41.9560 H   0  0  0  0  0  0  0  0  0  0  0  0
   47.5990   31.1150   40.6510 H   0  0  0  0  0  0  0  0  0  0  0  0
   46.4640   32.4450   40.1720 H   0  0  0  0  0  0  0  0  0  0  0  0
   49.5110   32.5420   39.8200 H   0  0  0  0  0  0  0  0  0  0  0  0
   48.2200   32.1740   38.5550 H   0  0  0  0  0  0  0  0  0  0  0  0
   48.8950   34.5650   38.5490 H   0  0  0  0  0  0  0  0  0  0  0  0
   47.1640   34.1980   38.7240 H   0  0  0  0  0  0  0  0  0  0  0  0
   47.4030   35.8580   40.2390 H   0  0  0  0  0  0  0  0  0  0  0  0
   49.0880   35.4740   40.6100 H   0  0  0  0  0  0  0  0  0  0  0  0
   48.2190   34.7870   42.5820 H   0  0  0  0  0  0  0  0  0  0  0  0
   45.4220   30.9660   44.0220 C   0  0  0  0  0  0  0  0  0  0  0  0
   46.0820   31.4950   42.9100 C   0  0  0  0  0  0  0  0  0  0  0  0
   47.1800   32.3500   42.9980 C   0  0  0  0  0  0  0  0  0  0  0  0
   47.5800   32.6480   44.2340 N   0  0  0  0  0  0  0  0  0  0  0  0
   46.9480   32.1410   45.3250 C   0  0  0  0  0  0  0  0  0  0  0  0
   45.8960   31.3210   45.2340 N   0  0  0  0  0  0  0  0  0  0  0  0
   44.5840   30.3140   43.8710 H   0  0  0  0  0  0  0  0  0  0  0  0
   45.6930   31.2040   41.9300 H   0  0  0  0  0  0  0  0  0  0  0  0
   47.3720   32.4590   46.2850 H   0  0  0  0  0  0  0  0  0  0  0  0
   46.2300   34.7600   42.0510 C   0  0  0  0  0  0  0  0  0  0  0  0
   45.8030   35.3650   43.2400 C   0  0  0  0  0  0  0  0  0  0  0  0
   44.4420   35.6510   43.3230 C   0  0  0  0  0  0  0  0  0  0  0  0
   43.6360   35.3180   42.2370 C   0  0  0  0  0  0  0  0  0  0  0  0
   44.0830   34.7190   41.0710 C   0  0  0  0  0  0  0  0  0  0  0  0
   45.4160   34.4480   41.0130 N   0  0  0  0  0  0  0  0  0  0  0  0
   46.5300   35.5560   43.9710 H   0  0  0  0  0  0  0  0  0  0  0  0
   44.0800   36.1110   44.2120 H   0  0  0  0  0  0  0  0  0  0  0  0
   42.5870   35.5550   42.3370 H   0  0  0  0  0  0  0  0  0  0  0  0
   43.1540   34.4130   39.9890 C   0  0  0  0  0  0  0  0  0  0  0  0
   42.7100   35.3920   39.3130 O   0  0  0  0  0  0  0  0  0  0  0  0
   42.6850   33.0840   39.6060 C   0  0  0  0  0  0  0  0  0  0  0  0
   42.9640   31.9580   40.3490 C   0  0  0  0  0  0  0  0  0  0  0  0
   43.5060   31.7890   41.2500 H   0  0  0  0  0  0  0  0  0  0  0  0
   42.3850   30.9050   39.7150 N   0  0  0  0  0  0  0  0  0  0  0  0
   42.3800   29.8840   39.9800 H   0  0  0  0  0  0  0  0  0  0  0  0
   41.7620   31.3170   38.6190 C   0  0  0  0  0  0  0  0  0  0  0  0
   41.1860   30.8570   37.8330 H   0  0  0  0  0  0  0  0  0  0  0  0
   41.9540   32.6460   38.5690 N   0  0  0  0  0  0  0  0  0  0  0  0
  1  7  1  1  0  0  0
  1 19  1  0  0  0  0
  2  8  1  0  0  0  0
  2  1  1  0  0  0  0
  3 10  1  0  0  0  0
  3  2  1  0  0  0  0
  4  3  1  0  0  0  0
  4  5  1  0  0  0  0
  5 15  1  0  0  0  0
  5  6  1  0  0  0  0
  6  1  1  0  0  0  0
  6 26  1  0  0  0  0
  6 16  1  1  0  0  0
  9  2  1  0  0  0  0
 11  3  1  0  0  0  0
 12  4  1  0  0  0  0
 13  4  1  0  0  0  0
 14  5  1  0  0  0  0
 17 22  1  0  0  0  0
 18 19  1  0  0  0  0
 18 17  2  0  0  0  0
 19 20  2  0  0  0  0
 20 21  1  0  0  0  0
 21 25  1  0  0  0  0
 22 21  2  0  0  0  0
 23 17  1  0  0  0  0
 24 18  1  0  0  0  0
 26 27  1  0  0  0  0
 27 28  2  0  0  0  0
 27 32  1  0  0  0  0
 28 33  1  0  0  0  0
 29 34  1  0  0  0  0
 29 28  1  0  0  0  0
 30 29  2  0  0  0  0
 31 30  1  0  0  0  0
 31 26  2  0  0  0  0
 35 30  1  0  0  0  0
 36 35  2  0  0  0  0
 37 35  1  0  0  0  0
 37 38  2  0  0  0  0
 38 39  1  0  0  0  0
 40 41  1  0  0  0  0
 40 38  1  0  0  0  0
 42 40  1  0  0  0  0
 43 42  1  0  0  0  0
 44 42  2  0  0  0  0
 44 37  1  0  0  0  0
M  END
>  <minimizedAffinity>
-5.04794598

>  <minimizedRMSD>
0.639747858

$$$$
