
 OpenBabel03242516523D

 44 47  0  0  1  0  0  0  0  0999 V2000
   47.8350   32.8870   41.8240 C   0  0  1  0  0  0  0  0  0  0  0  0
   47.5190   32.2390   40.5510 C   0  0  0  0  0  0  0  0  0  0  0  0
   48.5360   32.7690   39.5410 C   0  0  0  0  0  0  0  0  0  0  0  0
   48.1890   34.2130   39.2910 C   0  0  0  0  0  0  0  0  0  0  0  0
   48.1130   35.0470   40.5390 C   0  0  0  0  0  0  0  0  0  0  0  0
   47.6240   34.4040   41.7720 C   0  0  1  0  0  0  0  0  0  0  0  0
   48.9530   32.8100   41.9960 H   0  0  0  0  0  0  0  0  0  0  0  0
   47.6530   31.1480   40.6540 H   0  0  0  0  0  0  0  0  0  0  0  0
   46.5150   32.4770   40.1750 H   0  0  0  0  0  0  0  0  0  0  0  0
   49.5660   32.5970   39.8660 H   0  0  0  0  0  0  0  0  0  0  0  0
   48.2950   32.2350   38.5790 H   0  0  0  0  0  0  0  0  0  0  0  0
   48.9540   34.6310   38.6090 H   0  0  0  0  0  0  0  0  0  0  0  0
   47.2230   34.2510   38.7570 H   0  0  0  0  0  0  0  0  0  0  0  0
   47.4310   35.8940   40.2930 H   0  0  0  0  0  0  0  0  0  0  0  0
   49.1130   35.5170   40.6830 H   0  0  0  0  0  0  0  0  0  0  0  0
   48.2220   34.8030   42.6350 H   0  0  0  0  0  0  0  0  0  0  0  0
   45.4260   30.9540   43.9940 C   0  0  0  0  0  0  0  0  0  0  0  0
   46.0970   31.5000   42.8970 C   0  0  0  0  0  0  0  0  0  0  0  0
   47.1930   32.3540   43.0090 C   0  0  0  0  0  0  0  0  0  0  0  0
   47.5790   32.6350   44.2540 N   0  0  0  0  0  0  0  0  0  0  0  0
   46.9360   32.1120   45.3310 C   0  0  0  0  0  0  0  0  0  0  0  0
   45.8850   31.2920   45.2160 N   0  0  0  0  0  0  0  0  0  0  0  0
   44.5900   30.3040   43.8240 H   0  0  0  0  0  0  0  0  0  0  0  0
   45.7200   31.2220   41.9090 H   0  0  0  0  0  0  0  0  0  0  0  0
   47.3480   32.4170   46.3000 H   0  0  0  0  0  0  0  0  0  0  0  0
   46.2410   34.7690   42.0770 C   0  0  0  0  0  0  0  0  0  0  0  0
   45.7920   35.3450   43.2720 C   0  0  0  0  0  0  0  0  0  0  0  0
   44.4290   35.6250   43.3380 C   0  0  0  0  0  0  0  0  0  0  0  0
   43.6420   35.3130   42.2320 C   0  0  0  0  0  0  0  0  0  0  0  0
   44.1110   34.7420   41.0600 C   0  0  0  0  0  0  0  0  0  0  0  0
   45.4460   34.4770   41.0190 N   0  0  0  0  0  0  0  0  0  0  0  0
   46.5060   35.5230   44.0190 H   0  0  0  0  0  0  0  0  0  0  0  0
   44.0500   36.0630   44.2310 H   0  0  0  0  0  0  0  0  0  0  0  0
   42.5910   35.5430   42.3200 H   0  0  0  0  0  0  0  0  0  0  0  0
   43.2010   34.4570   39.9570 C   0  0  0  0  0  0  0  0  0  0  0  0
   42.4130   35.3860   39.6020 O   0  0  0  0  0  0  0  0  0  0  0  0
   43.1100   33.2010   39.2170 C   0  0  0  0  0  0  0  0  0  0  0  0
   42.0530   32.9100   38.3790 C   0  0  0  0  0  0  0  0  0  0  0  0
   41.1720   33.4410   38.1000 H   0  0  0  0  0  0  0  0  0  0  0  0
   42.2800   31.6770   37.8600 N   0  0  0  0  0  0  0  0  0  0  0  0
   41.6970   31.1180   37.1820 H   0  0  0  0  0  0  0  0  0  0  0  0
   43.4200   31.1860   38.3270 C   0  0  0  0  0  0  0  0  0  0  0  0
   43.9850   30.2770   38.2000 H   0  0  0  0  0  0  0  0  0  0  0  0
   43.9110   32.1270   39.1510 N   0  0  0  0  0  0  0  0  0  0  0  0
  1  7  1  1  0  0  0
  1 19  1  0  0  0  0
  2  8  1  0  0  0  0
  2  1  1  0  0  0  0
  3 10  1  0  0  0  0
  3  2  1  0  0  0  0
  4  3  1  0  0  0  0
  4  5  1  0  0  0  0
  5 15  1  0  0  0  0
  5  6  1  0  0  0  0
  6  1  1  0  0  0  0
  6 26  1  0  0  0  0
  6 16  1  1  0  0  0
  9  2  1  0  0  0  0
 11  3  1  0  0  0  0
 12  4  1  0  0  0  0
 13  4  1  0  0  0  0
 14  5  1  0  0  0  0
 17 22  1  0  0  0  0
 18 19  1  0  0  0  0
 18 17  2  0  0  0  0
 19 20  2  0  0  0  0
 20 21  1  0  0  0  0
 21 25  1  0  0  0  0
 22 21  2  0  0  0  0
 23 17  1  0  0  0  0
 24 18  1  0  0  0  0
 26 27  1  0  0  0  0
 27 28  2  0  0  0  0
 27 32  1  0  0  0  0
 28 33  1  0  0  0  0
 29 34  1  0  0  0  0
 29 28  1  0  0  0  0
 30 29  2  0  0  0  0
 31 30  1  0  0  0  0
 31 26  2  0  0  0  0
 35 30  1  0  0  0  0
 36 35  2  0  0  0  0
 37 35  1  0  0  0  0
 38 37  2  0  0  0  0
 39 38  1  0  0  0  0
 40 42  1  0  0  0  0
 40 38  1  0  0  0  0
 41 40  1  0  0  0  0
 42 44  2  0  0  0  0
 43 42  1  0  0  0  0
 44 37  1  0  0  0  0
M  END
>  <minimizedAffinity>
-5.143507

>  <minimizedRMSD>
0.245246708

$$$$
