
 OpenBabel03242516523D

 44 47  0  0  1  0  0  0  0  0999 V2000
   47.8620   32.8890   41.7340 C   0  0  1  0  0  0  0  0  0  0  0  0
   47.5280   32.2130   40.4810 C   0  0  0  0  0  0  0  0  0  0  0  0
   48.5510   32.6940   39.4530 C   0  0  0  0  0  0  0  0  0  0  0  0
   48.2310   34.1360   39.1640 C   0  0  0  0  0  0  0  0  0  0  0  0
   48.1780   35.0060   40.3880 C   0  0  0  0  0  0  0  0  0  0  0  0
   47.6810   34.4080   41.6400 C   0  0  1  0  0  0  0  0  0  0  0  0
   48.9790   32.7950   41.9040 H   0  0  0  0  0  0  0  0  0  0  0  0
   47.6400   31.1230   40.6150 H   0  0  0  0  0  0  0  0  0  0  0  0
   46.5270   32.4590   40.1020 H   0  0  0  0  0  0  0  0  0  0  0  0
   49.5780   32.5100   39.7790 H   0  0  0  0  0  0  0  0  0  0  0  0
   48.2950   32.1380   38.5080 H   0  0  0  0  0  0  0  0  0  0  0  0
   49.0020   34.5200   38.4680 H   0  0  0  0  0  0  0  0  0  0  0  0
   47.2640   34.1790   38.6320 H   0  0  0  0  0  0  0  0  0  0  0  0
   47.5120   35.8600   40.1210 H   0  0  0  0  0  0  0  0  0  0  0  0
   49.1870   35.4610   40.5150 H   0  0  0  0  0  0  0  0  0  0  0  0
   48.2910   34.8190   42.4900 H   0  0  0  0  0  0  0  0  0  0  0  0
   45.4450   31.0390   43.9670 C   0  0  0  0  0  0  0  0  0  0  0  0
   46.1220   31.5420   42.8530 C   0  0  0  0  0  0  0  0  0  0  0  0
   47.2150   32.4030   42.9360 C   0  0  0  0  0  0  0  0  0  0  0  0
   47.5930   32.7350   44.1700 N   0  0  0  0  0  0  0  0  0  0  0  0
   46.9450   32.2550   45.2640 C   0  0  0  0  0  0  0  0  0  0  0  0
   45.8970   31.4280   45.1770 N   0  0  0  0  0  0  0  0  0  0  0  0
   44.6120   30.3790   43.8190 H   0  0  0  0  0  0  0  0  0  0  0  0
   45.7510   31.2230   41.8740 H   0  0  0  0  0  0  0  0  0  0  0  0
   47.3500   32.6000   46.2230 H   0  0  0  0  0  0  0  0  0  0  0  0
   46.3070   34.8090   41.9400 C   0  0  0  0  0  0  0  0  0  0  0  0
   45.8830   35.4770   43.0960 C   0  0  0  0  0  0  0  0  0  0  0  0
   44.5240   35.7750   43.1630 C   0  0  0  0  0  0  0  0  0  0  0  0
   43.7160   35.3900   42.0970 C   0  0  0  0  0  0  0  0  0  0  0  0
   44.1590   34.7290   40.9630 C   0  0  0  0  0  0  0  0  0  0  0  0
   45.4910   34.4480   40.9190 N   0  0  0  0  0  0  0  0  0  0  0  0
   46.6120   35.7020   43.8160 H   0  0  0  0  0  0  0  0  0  0  0  0
   44.1650   36.2830   44.0270 H   0  0  0  0  0  0  0  0  0  0  0  0
   42.6680   35.6380   42.1850 H   0  0  0  0  0  0  0  0  0  0  0  0
   43.2280   34.3730   39.8990 C   0  0  0  0  0  0  0  0  0  0  0  0
   42.5480   35.3130   39.3860 O   0  0  0  0  0  0  0  0  0  0  0  0
   43.0030   33.0320   39.3630 C   0  0  0  0  0  0  0  0  0  0  0  0
   42.7510   31.9450   40.1720 C   0  0  0  0  0  0  0  0  0  0  0  0
   42.6680   31.8190   41.2270 H   0  0  0  0  0  0  0  0  0  0  0  0
   42.5930   30.8690   39.3610 N   0  0  0  0  0  0  0  0  0  0  0  0
   42.3890   29.8640   39.6100 H   0  0  0  0  0  0  0  0  0  0  0  0
   42.7330   31.2280   38.0920 C   0  0  0  0  0  0  0  0  0  0  0  0
   42.6940   30.7340   37.1350 H   0  0  0  0  0  0  0  0  0  0  0  0
   42.9810   32.5480   38.1120 N   0  0  0  0  0  0  0  0  0  0  0  0
  1  7  1  1  0  0  0
  1 19  1  0  0  0  0
  2  8  1  0  0  0  0
  2  1  1  0  0  0  0
  3 10  1  0  0  0  0
  3  2  1  0  0  0  0
  4  3  1  0  0  0  0
  4  5  1  0  0  0  0
  5 15  1  0  0  0  0
  5  6  1  0  0  0  0
  6  1  1  0  0  0  0
  6 26  1  0  0  0  0
  6 16  1  1  0  0  0
  9  2  1  0  0  0  0
 11  3  1  0  0  0  0
 12  4  1  0  0  0  0
 13  4  1  0  0  0  0
 14  5  1  0  0  0  0
 17 22  1  0  0  0  0
 18 19  1  0  0  0  0
 18 17  2  0  0  0  0
 19 20  2  0  0  0  0
 20 21  1  0  0  0  0
 21 25  1  0  0  0  0
 22 21  2  0  0  0  0
 23 17  1  0  0  0  0
 24 18  1  0  0  0  0
 26 27  1  0  0  0  0
 27 28  2  0  0  0  0
 27 32  1  0  0  0  0
 28 33  1  0  0  0  0
 29 34  1  0  0  0  0
 29 28  1  0  0  0  0
 30 29  2  0  0  0  0
 31 30  1  0  0  0  0
 31 26  2  0  0  0  0
 35 30  1  0  0  0  0
 36 35  2  0  0  0  0
 37 35  1  0  0  0  0
 37 38  2  0  0  0  0
 38 39  1  0  0  0  0
 40 41  1  0  0  0  0
 40 38  1  0  0  0  0
 42 44  2  0  0  0  0
 42 40  1  0  0  0  0
 43 42  1  0  0  0  0
 44 37  1  0  0  0  0
M  END
>  <minimizedAffinity>
-5.07588911

>  <minimizedRMSD>
0.296022683

$$$$
