
 OpenBabel03242516523D

 44 47  0  0  1  0  0  0  0  0999 V2000
   47.8390   32.8960   41.8350 C   0  0  1  0  0  0  0  0  0  0  0  0
   47.5500   32.2960   40.5320 C   0  0  0  0  0  0  0  0  0  0  0  0
   48.5950   32.8540   39.5670 C   0  0  0  0  0  0  0  0  0  0  0  0
   48.2630   34.3080   39.3600 C   0  0  0  0  0  0  0  0  0  0  0  0
   48.1620   35.0980   40.6340 C   0  0  0  0  0  0  0  0  0  0  0  0
   47.6390   34.4150   41.8310 C   0  0  1  0  0  0  0  0  0  0  0  0
   48.9510   32.8060   42.0310 H   0  0  0  0  0  0  0  0  0  0  0  0
   47.6750   31.2010   40.6000 H   0  0  0  0  0  0  0  0  0  0  0  0
   46.5580   32.5530   40.1410 H   0  0  0  0  0  0  0  0  0  0  0  0
   49.6150   32.6630   39.9110 H   0  0  0  0  0  0  0  0  0  0  0  0
   48.3740   32.3560   38.5810 H   0  0  0  0  0  0  0  0  0  0  0  0
   49.0480   34.7440   38.7120 H   0  0  0  0  0  0  0  0  0  0  0  0
   47.3110   34.3720   38.8030 H   0  0  0  0  0  0  0  0  0  0  0  0
   47.4910   35.9580   40.4020 H   0  0  0  0  0  0  0  0  0  0  0  0
   49.1600   35.5560   40.8190 H   0  0  0  0  0  0  0  0  0  0  0  0
   48.2170   34.7800   42.7220 H   0  0  0  0  0  0  0  0  0  0  0  0
   45.3750   30.8920   43.8750 C   0  0  0  0  0  0  0  0  0  0  0  0
   46.0760   31.4720   42.8150 C   0  0  0  0  0  0  0  0  0  0  0  0
   47.1650   32.3270   42.9840 C   0  0  0  0  0  0  0  0  0  0  0  0
   47.5130   32.5720   44.2470 N   0  0  0  0  0  0  0  0  0  0  0  0
   46.8410   32.0150   45.2890 C   0  0  0  0  0  0  0  0  0  0  0  0
   45.7970   31.1950   45.1190 N   0  0  0  0  0  0  0  0  0  0  0  0
   44.5470   30.2440   43.6620 H   0  0  0  0  0  0  0  0  0  0  0  0
   45.7290   31.2220   41.8080 H   0  0  0  0  0  0  0  0  0  0  0  0
   47.2230   32.2920   46.2780 H   0  0  0  0  0  0  0  0  0  0  0  0
   46.2500   34.7790   42.1150 C   0  0  0  0  0  0  0  0  0  0  0  0
   45.7800   35.3390   43.3090 C   0  0  0  0  0  0  0  0  0  0  0  0
   44.4160   35.6210   43.3540 C   0  0  0  0  0  0  0  0  0  0  0  0
   43.6500   35.3260   42.2290 C   0  0  0  0  0  0  0  0  0  0  0  0
   44.1400   34.7710   41.0580 C   0  0  0  0  0  0  0  0  0  0  0  0
   45.4750   34.5040   41.0380 N   0  0  0  0  0  0  0  0  0  0  0  0
   46.4800   35.5050   44.0720 H   0  0  0  0  0  0  0  0  0  0  0  0
   44.0210   36.0480   44.2450 H   0  0  0  0  0  0  0  0  0  0  0  0
   42.5980   35.5580   42.3000 H   0  0  0  0  0  0  0  0  0  0  0  0
   43.2510   34.5040   39.9330 C   0  0  0  0  0  0  0  0  0  0  0  0
   42.2710   35.2940   39.7690 O   0  0  0  0  0  0  0  0  0  0  0  0
   43.3810   33.4110   38.9720 C   0  0  0  0  0  0  0  0  0  0  0  0
   42.3820   32.4830   38.7690 C   0  0  0  0  0  0  0  0  0  0  0  0
   41.4130   32.3440   39.1900 H   0  0  0  0  0  0  0  0  0  0  0  0
   42.8250   31.6180   37.8220 N   0  0  0  0  0  0  0  0  0  0  0  0
   42.3440   30.7760   37.4040 H   0  0  0  0  0  0  0  0  0  0  0  0
   44.0440   31.9570   37.4250 C   0  0  0  0  0  0  0  0  0  0  0  0
   44.7660   31.5800   36.7210 H   0  0  0  0  0  0  0  0  0  0  0  0
   44.3660   33.0510   38.1360 N   0  0  0  0  0  0  0  0  0  0  0  0
  1  7  1  1  0  0  0
  1 19  1  0  0  0  0
  2  8  1  0  0  0  0
  2  1  1  0  0  0  0
  3 10  1  0  0  0  0
  3  2  1  0  0  0  0
  4  3  1  0  0  0  0
  4  5  1  0  0  0  0
  5 15  1  0  0  0  0
  5  6  1  0  0  0  0
  6  1  1  0  0  0  0
  6 26  1  0  0  0  0
  6 16  1  1  0  0  0
  9  2  1  0  0  0  0
 11  3  1  0  0  0  0
 12  4  1  0  0  0  0
 13  4  1  0  0  0  0
 14  5  1  0  0  0  0
 17 22  1  0  0  0  0
 18 19  1  0  0  0  0
 18 17  2  0  0  0  0
 19 20  2  0  0  0  0
 20 21  1  0  0  0  0
 21 25  1  0  0  0  0
 22 21  2  0  0  0  0
 23 17  1  0  0  0  0
 24 18  1  0  0  0  0
 26 27  1  0  0  0  0
 27 28  2  0  0  0  0
 27 32  1  0  0  0  0
 28 33  1  0  0  0  0
 29 34  1  0  0  0  0
 29 28  1  0  0  0  0
 30 29  2  0  0  0  0
 31 30  1  0  0  0  0
 31 26  2  0  0  0  0
 35 30  1  0  0  0  0
 36 35  2  0  0  0  0
 37 35  1  0  0  0  0
 38 37  2  0  0  0  0
 38 39  1  0  0  0  0
 40 38  1  0  0  0  0
 41 40  1  0  0  0  0
 42 40  1  0  0  0  0
 42 44  2  0  0  0  0
 43 42  1  0  0  0  0
 44 37  1  0  0  0  0
M  END
>  <minimizedAffinity>
-5.2353282

>  <minimizedRMSD>
0.441971719

$$$$
