
 OpenBabel03242516523D

 44 47  0  0  1  0  0  0  0  0999 V2000
   47.7970   32.7570   41.6710 C   0  0  1  0  0  0  0  0  0  0  0  0
   47.4310   32.1460   40.3930 C   0  0  0  0  0  0  0  0  0  0  0  0
   48.4460   32.6580   39.3720 C   0  0  0  0  0  0  0  0  0  0  0  0
   48.1470   34.1180   39.1560 C   0  0  0  0  0  0  0  0  0  0  0  0
   48.1280   34.9300   40.4200 C   0  0  0  0  0  0  0  0  0  0  0  0
   47.6410   34.2820   41.6510 C   0  0  1  0  0  0  0  0  0  0  0  0
   48.9140   32.6370   41.8180 H   0  0  0  0  0  0  0  0  0  0  0  0
   47.5260   31.0490   40.4740 H   0  0  0  0  0  0  0  0  0  0  0  0
   46.4290   32.4270   40.0430 H   0  0  0  0  0  0  0  0  0  0  0  0
   49.4750   32.4420   39.6720 H   0  0  0  0  0  0  0  0  0  0  0  0
   48.1660   32.1510   38.4060 H   0  0  0  0  0  0  0  0  0  0  0  0
   48.9140   34.5200   38.4660 H   0  0  0  0  0  0  0  0  0  0  0  0
   47.1730   34.2010   38.6420 H   0  0  0  0  0  0  0  0  0  0  0  0
   47.4730   35.8060   40.2040 H   0  0  0  0  0  0  0  0  0  0  0  0
   49.1470   35.3610   40.5510 H   0  0  0  0  0  0  0  0  0  0  0  0
   48.2700   34.6420   42.5090 H   0  0  0  0  0  0  0  0  0  0  0  0
   45.3470   30.8930   43.8570 C   0  0  0  0  0  0  0  0  0  0  0  0
   46.0170   31.4330   42.7560 C   0  0  0  0  0  0  0  0  0  0  0  0
   47.1600   32.2260   42.8590 C   0  0  0  0  0  0  0  0  0  0  0  0
   47.5940   32.4510   44.0990 N   0  0  0  0  0  0  0  0  0  0  0  0
   46.9530   31.9330   45.1800 C   0  0  0  0  0  0  0  0  0  0  0  0
   45.8570   31.1720   45.0730 N   0  0  0  0  0  0  0  0  0  0  0  0
   44.4740   30.2920   43.6940 H   0  0  0  0  0  0  0  0  0  0  0  0
   45.5990   31.2040   41.7720 H   0  0  0  0  0  0  0  0  0  0  0  0
   47.4070   32.1880   46.1450 H   0  0  0  0  0  0  0  0  0  0  0  0
   46.2780   34.6910   41.9920 C   0  0  0  0  0  0  0  0  0  0  0  0
   45.8750   35.2610   43.2050 C   0  0  0  0  0  0  0  0  0  0  0  0
   44.5250   35.5890   43.3060 C   0  0  0  0  0  0  0  0  0  0  0  0
   43.7050   35.3260   42.2110 C   0  0  0  0  0  0  0  0  0  0  0  0
   44.1280   34.7600   41.0200 C   0  0  0  0  0  0  0  0  0  0  0  0
   45.4510   34.4480   40.9450 N   0  0  0  0  0  0  0  0  0  0  0  0
   46.6100   35.3990   43.9410 H   0  0  0  0  0  0  0  0  0  0  0  0
   44.1810   36.0240   44.2140 H   0  0  0  0  0  0  0  0  0  0  0  0
   42.6650   35.5930   42.3250 H   0  0  0  0  0  0  0  0  0  0  0  0
   43.1860   34.5290   39.9300 C   0  0  0  0  0  0  0  0  0  0  0  0
   42.2500   35.3740   39.7860 O   0  0  0  0  0  0  0  0  0  0  0  0
   43.2180   33.4160   38.9860 C   0  0  0  0  0  0  0  0  0  0  0  0
   44.1320   33.3420   37.9570 C   0  0  0  0  0  0  0  0  0  0  0  0
   44.9280   33.9760   37.6370 H   0  0  0  0  0  0  0  0  0  0  0  0
   43.8830   32.1940   37.2780 N   0  0  0  0  0  0  0  0  0  0  0  0
   44.3720   31.7950   36.4330 H   0  0  0  0  0  0  0  0  0  0  0  0
   42.8620   31.5510   37.8270 C   0  0  0  0  0  0  0  0  0  0  0  0
   42.3280   30.6340   37.6380 H   0  0  0  0  0  0  0  0  0  0  0  0
   42.4700   32.3090   38.8660 N   0  0  0  0  0  0  0  0  0  0  0  0
  1  7  1  1  0  0  0
  1 19  1  0  0  0  0
  2  8  1  0  0  0  0
  2  1  1  0  0  0  0
  3 10  1  0  0  0  0
  3  2  1  0  0  0  0
  4  3  1  0  0  0  0
  4  5  1  0  0  0  0
  5 15  1  0  0  0  0
  5  6  1  0  0  0  0
  6  1  1  0  0  0  0
  6 26  1  0  0  0  0
  6 16  1  1  0  0  0
  9  2  1  0  0  0  0
 11  3  1  0  0  0  0
 12  4  1  0  0  0  0
 13  4  1  0  0  0  0
 14  5  1  0  0  0  0
 17 22  1  0  0  0  0
 18 19  1  0  0  0  0
 18 17  2  0  0  0  0
 19 20  2  0  0  0  0
 20 21  1  0  0  0  0
 21 25  1  0  0  0  0
 22 21  2  0  0  0  0
 23 17  1  0  0  0  0
 24 18  1  0  0  0  0
 26 27  1  0  0  0  0
 27 28  2  0  0  0  0
 27 32  1  0  0  0  0
 28 33  1  0  0  0  0
 29 34  1  0  0  0  0
 29 28  1  0  0  0  0
 30 29  2  0  0  0  0
 31 30  1  0  0  0  0
 31 26  2  0  0  0  0
 35 30  1  0  0  0  0
 36 35  2  0  0  0  0
 37 35  1  0  0  0  0
 38 37  2  0  0  0  0
 39 38  1  0  0  0  0
 40 42  1  0  0  0  0
 40 38  1  0  0  0  0
 41 40  1  0  0  0  0
 42 44  2  0  0  0  0
 43 42  1  0  0  0  0
 44 37  1  0  0  0  0
M  END
>  <minimizedAffinity>
-5.28434467

>  <minimizedRMSD>
0.485164285

$$$$
