
 OpenBabel03242516523D

 44 47  0  0  1  0  0  0  0  0999 V2000
   47.8130   32.8340   41.6980 C   0  0  1  0  0  0  0  0  0  0  0  0
   47.4370   32.1330   40.4700 C   0  0  0  0  0  0  0  0  0  0  0  0
   48.4380   32.5780   39.4040 C   0  0  0  0  0  0  0  0  0  0  0  0
   48.1270   34.0180   39.0910 C   0  0  0  0  0  0  0  0  0  0  0  0
   48.1160   34.9150   40.2960 C   0  0  0  0  0  0  0  0  0  0  0  0
   47.6470   34.3520   41.5730 C   0  0  1  0  0  0  0  0  0  0  0  0
   48.9320   32.7300   41.8400 H   0  0  0  0  0  0  0  0  0  0  0  0
   47.5400   31.0450   40.6250 H   0  0  0  0  0  0  0  0  0  0  0  0
   46.4300   32.3830   40.1120 H   0  0  0  0  0  0  0  0  0  0  0  0
   49.4710   32.3890   39.7070 H   0  0  0  0  0  0  0  0  0  0  0  0
   48.1500   32.0040   38.4790 H   0  0  0  0  0  0  0  0  0  0  0  0
   48.8840   34.3750   38.3650 H   0  0  0  0  0  0  0  0  0  0  0  0
   47.1470   34.0590   38.5830 H   0  0  0  0  0  0  0  0  0  0  0  0
   47.4540   35.7710   40.0260 H   0  0  0  0  0  0  0  0  0  0  0  0
   49.1340   35.3600   40.3850 H   0  0  0  0  0  0  0  0  0  0  0  0
   48.2830   34.7750   42.3970 H   0  0  0  0  0  0  0  0  0  0  0  0
   45.4420   31.0540   44.0360 C   0  0  0  0  0  0  0  0  0  0  0  0
   46.0940   31.5240   42.8930 C   0  0  0  0  0  0  0  0  0  0  0  0
   47.1920   32.3830   42.9270 C   0  0  0  0  0  0  0  0  0  0  0  0
   47.6000   32.7460   44.1430 N   0  0  0  0  0  0  0  0  0  0  0  0
   46.9760   32.2980   45.2640 C   0  0  0  0  0  0  0  0  0  0  0  0
   45.9240   31.4730   45.2240 N   0  0  0  0  0  0  0  0  0  0  0  0
   44.6030   30.3950   43.9250 H   0  0  0  0  0  0  0  0  0  0  0  0
   45.6990   31.1800   41.9320 H   0  0  0  0  0  0  0  0  0  0  0  0
   47.4050   32.6670   46.2030 H   0  0  0  0  0  0  0  0  0  0  0  0
   46.2850   34.7760   41.9000 C   0  0  0  0  0  0  0  0  0  0  0  0
   45.9010   35.4770   43.0500 C   0  0  0  0  0  0  0  0  0  0  0  0
   44.5480   35.7930   43.1470 C   0  0  0  0  0  0  0  0  0  0  0  0
   43.7070   35.3920   42.1130 C   0  0  0  0  0  0  0  0  0  0  0  0
   44.1110   34.6980   40.9840 C   0  0  0  0  0  0  0  0  0  0  0  0
   45.4380   34.4000   40.9110 N   0  0  0  0  0  0  0  0  0  0  0  0
   46.6510   35.7110   43.7450 H   0  0  0  0  0  0  0  0  0  0  0  0
   44.2180   36.3250   44.0080 H   0  0  0  0  0  0  0  0  0  0  0  0
   42.6650   35.6540   42.2230 H   0  0  0  0  0  0  0  0  0  0  0  0
   43.1480   34.3270   39.9540 C   0  0  0  0  0  0  0  0  0  0  0  0
   42.6610   35.2660   39.2520 O   0  0  0  0  0  0  0  0  0  0  0  0
   42.6880   32.9740   39.6510 C   0  0  0  0  0  0  0  0  0  0  0  0
   42.2080   32.6170   38.4080 C   0  0  0  0  0  0  0  0  0  0  0  0
   42.0710   33.1480   37.4930 H   0  0  0  0  0  0  0  0  0  0  0  0
   41.8690   31.3050   38.4710 N   0  0  0  0  0  0  0  0  0  0  0  0
   41.4680   30.6790   37.7220 H   0  0  0  0  0  0  0  0  0  0  0  0
   42.1120   30.8260   39.6840 C   0  0  0  0  0  0  0  0  0  0  0  0
   42.0060   29.8760   40.1810 H   0  0  0  0  0  0  0  0  0  0  0  0
   42.6100   31.8570   40.3870 N   0  0  0  0  0  0  0  0  0  0  0  0
  1  7  1  1  0  0  0
  1 19  1  0  0  0  0
  2  8  1  0  0  0  0
  2  1  1  0  0  0  0
  3 10  1  0  0  0  0
  3  2  1  0  0  0  0
  4  3  1  0  0  0  0
  4  5  1  0  0  0  0
  5 15  1  0  0  0  0
  5  6  1  0  0  0  0
  6  1  1  0  0  0  0
  6 26  1  0  0  0  0
  6 16  1  1  0  0  0
  9  2  1  0  0  0  0
 11  3  1  0  0  0  0
 12  4  1  0  0  0  0
 13  4  1  0  0  0  0
 14  5  1  0  0  0  0
 17 22  1  0  0  0  0
 18 19  1  0  0  0  0
 18 17  2  0  0  0  0
 19 20  2  0  0  0  0
 20 21  1  0  0  0  0
 21 25  1  0  0  0  0
 22 21  2  0  0  0  0
 23 17  1  0  0  0  0
 24 18  1  0  0  0  0
 26 27  1  0  0  0  0
 27 28  2  0  0  0  0
 27 32  1  0  0  0  0
 28 33  1  0  0  0  0
 29 34  1  0  0  0  0
 29 28  1  0  0  0  0
 30 29  2  0  0  0  0
 31 30  1  0  0  0  0
 31 26  2  0  0  0  0
 35 30  1  0  0  0  0
 36 35  2  0  0  0  0
 37 35  1  0  0  0  0
 37 44  1  0  0  0  0
 38 40  1  0  0  0  0
 38 37  2  0  0  0  0
 39 38  1  0  0  0  0
 40 42  1  0  0  0  0
 41 40  1  0  0  0  0
 42 43  1  0  0  0  0
 42 44  2  0  0  0  0
M  END
>  <minimizedAffinity>
-5.09610271

>  <minimizedRMSD>
0.595563173

$$$$
