
 OpenBabel03242516523D

 44 47  0  0  1  0  0  0  0  0999 V2000
   47.8590   32.9100   41.8730 C   0  0  1  0  0  0  0  0  0  0  0  0
   47.5720   32.2870   40.5810 C   0  0  0  0  0  0  0  0  0  0  0  0
   48.6090   32.8390   39.6040 C   0  0  0  0  0  0  0  0  0  0  0  0
   48.2630   34.2870   39.3750 C   0  0  0  0  0  0  0  0  0  0  0  0
   48.1590   35.0950   40.6370 C   0  0  0  0  0  0  0  0  0  0  0  0
   47.6460   34.4270   41.8460 C   0  0  1  0  0  0  0  0  0  0  0  0
   48.9730   32.8320   42.0670 H   0  0  0  0  0  0  0  0  0  0  0  0
   47.7060   31.1940   40.6650 H   0  0  0  0  0  0  0  0  0  0  0  0
   46.5760   32.5300   40.1880 H   0  0  0  0  0  0  0  0  0  0  0  0
   49.6320   32.6620   39.9470 H   0  0  0  0  0  0  0  0  0  0  0  0
   48.3890   32.3230   38.6260 H   0  0  0  0  0  0  0  0  0  0  0  0
   49.0420   34.7190   38.7180 H   0  0  0  0  0  0  0  0  0  0  0  0
   47.3090   34.3330   38.8210 H   0  0  0  0  0  0  0  0  0  0  0  0
   47.4810   35.9460   40.3940 H   0  0  0  0  0  0  0  0  0  0  0  0
   49.1550   35.5650   40.8120 H   0  0  0  0  0  0  0  0  0  0  0  0
   48.2240   34.8100   42.7300 H   0  0  0  0  0  0  0  0  0  0  0  0
   45.4070   30.9320   43.9520 C   0  0  0  0  0  0  0  0  0  0  0  0
   46.1010   31.5000   42.8810 C   0  0  0  0  0  0  0  0  0  0  0  0
   47.1940   32.3530   43.0330 C   0  0  0  0  0  0  0  0  0  0  0  0
   47.5540   32.6070   44.2910 N   0  0  0  0  0  0  0  0  0  0  0  0
   46.8890   32.0620   45.3440 C   0  0  0  0  0  0  0  0  0  0  0  0
   45.8420   31.2440   45.1900 N   0  0  0  0  0  0  0  0  0  0  0  0
   44.5750   30.2840   43.7520 H   0  0  0  0  0  0  0  0  0  0  0  0
   45.7440   31.2430   41.8800 H   0  0  0  0  0  0  0  0  0  0  0  0
   47.2810   32.3460   46.3270 H   0  0  0  0  0  0  0  0  0  0  0  0
   46.2560   34.7830   42.1290 C   0  0  0  0  0  0  0  0  0  0  0  0
   45.7780   35.3250   43.3290 C   0  0  0  0  0  0  0  0  0  0  0  0
   44.4140   35.6030   43.3710 C   0  0  0  0  0  0  0  0  0  0  0  0
   43.6530   35.3220   42.2390 C   0  0  0  0  0  0  0  0  0  0  0  0
   44.1490   34.7840   41.0620 C   0  0  0  0  0  0  0  0  0  0  0  0
   45.4850   34.5210   41.0450 N   0  0  0  0  0  0  0  0  0  0  0  0
   46.4740   35.4820   44.0980 H   0  0  0  0  0  0  0  0  0  0  0  0
   44.0140   36.0160   44.2670 H   0  0  0  0  0  0  0  0  0  0  0  0
   42.6000   35.5500   42.3090 H   0  0  0  0  0  0  0  0  0  0  0  0
   43.2660   34.5310   39.9300 C   0  0  0  0  0  0  0  0  0  0  0  0
   42.2090   35.2290   39.8530 O   0  0  0  0  0  0  0  0  0  0  0  0
   43.4820   33.5480   38.8720 C   0  0  0  0  0  0  0  0  0  0  0  0
   42.4500   32.8280   38.3090 C   0  0  0  0  0  0  0  0  0  0  0  0
   41.3970   32.8050   38.4740 H   0  0  0  0  0  0  0  0  0  0  0  0
   42.9940   32.0140   37.3690 N   0  0  0  0  0  0  0  0  0  0  0  0
   42.5240   31.3180   36.7320 H   0  0  0  0  0  0  0  0  0  0  0  0
   44.3070   32.1890   37.3160 C   0  0  0  0  0  0  0  0  0  0  0  0
   45.1240   31.7790   36.7450 H   0  0  0  0  0  0  0  0  0  0  0  0
   44.5870   33.1280   38.2380 N   0  0  0  0  0  0  0  0  0  0  0  0
  1  7  1  1  0  0  0
  1 19  1  0  0  0  0
  2  8  1  0  0  0  0
  2  1  1  0  0  0  0
  3 10  1  0  0  0  0
  3  2  1  0  0  0  0
  4  3  1  0  0  0  0
  4  5  1  0  0  0  0
  5 15  1  0  0  0  0
  5  6  1  0  0  0  0
  6  1  1  0  0  0  0
  6 26  1  0  0  0  0
  6 16  1  1  0  0  0
  9  2  1  0  0  0  0
 11  3  1  0  0  0  0
 12  4  1  0  0  0  0
 13  4  1  0  0  0  0
 14  5  1  0  0  0  0
 17 22  1  0  0  0  0
 18 19  1  0  0  0  0
 18 17  2  0  0  0  0
 19 20  2  0  0  0  0
 20 21  1  0  0  0  0
 21 25  1  0  0  0  0
 22 21  2  0  0  0  0
 23 17  1  0  0  0  0
 24 18  1  0  0  0  0
 26 27  1  0  0  0  0
 27 28  2  0  0  0  0
 27 32  1  0  0  0  0
 28 33  1  0  0  0  0
 29 34  1  0  0  0  0
 29 28  1  0  0  0  0
 30 29  2  0  0  0  0
 31 30  1  0  0  0  0
 31 26  2  0  0  0  0
 35 30  1  0  0  0  0
 36 35  2  0  0  0  0
 37 35  1  0  0  0  0
 38 39  1  0  0  0  0
 38 37  2  0  0  0  0
 40 38  1  0  0  0  0
 41 40  1  0  0  0  0
 42 40  1  0  0  0  0
 42 44  2  0  0  0  0
 43 42  1  0  0  0  0
 44 37  1  0  0  0  0
M  END
>  <minimizedAffinity>
-5.4412322

>  <minimizedRMSD>
0.637193859

$$$$
