
 OpenBabel03252509193D

 42 45  0  0  1  0  0  0  0  0999 V2000
   37.4760   26.7840   42.0650 C   0  0  1  0  0  0  0  0  0  0  0  0
   37.7470   25.3760   41.6710 C   0  0  0  0  0  0  0  0  0  0  0  0
   39.1570   24.9210   41.9510 C   0  0  0  0  0  0  0  0  0  0  0  0
   39.6650   25.3360   43.2970 C   0  0  0  0  0  0  0  0  0  0  0  0
   39.3020   26.7570   43.6500 C   0  0  0  0  0  0  0  0  0  0  0  0
   38.8000   27.4860   42.3910 C   0  0  2  0  0  0  0  0  0  0  0  0
   36.9340   26.7710   43.0380 H   0  0  0  0  0  0  0  0  0  0  0  0
   37.0620   24.6830   42.2010 H   0  0  0  0  0  0  0  0  0  0  0  0
   37.5550   25.2210   40.5850 H   0  0  0  0  0  0  0  0  0  0  0  0
   39.1240   23.8140   41.9510 H   0  0  0  0  0  0  0  0  0  0  0  0
   39.8050   25.3190   41.1260 H   0  0  0  0  0  0  0  0  0  0  0  0
   40.7370   25.1300   43.3510 H   0  0  0  0  0  0  0  0  0  0  0  0
   39.1720   24.6840   44.0660 H   0  0  0  0  0  0  0  0  0  0  0  0
   38.5210   26.8440   44.4200 H   0  0  0  0  0  0  0  0  0  0  0  0
   40.2420   27.2570   43.9800 H   0  0  0  0  0  0  0  0  0  0  0  0
   39.5270   27.3160   41.5550 H   0  0  0  0  0  0  0  0  0  0  0  0
   35.5360   28.3550   38.8280 C   0  0  0  0  0  0  0  0  0  0  0  0
   35.1800   28.9820   40.0190 C   0  0  0  0  0  0  0  0  0  0  0  0
   35.7440   28.5580   41.1490 C   0  0  0  0  0  0  0  0  0  0  0  0
   36.6840   27.4950   41.1260 C   0  0  0  0  0  0  0  0  0  0  0  0
   36.7570   27.0740   39.3540 S   0  0  0  0  0  0  0  0  0  0  0  0
   34.4650   29.7930   40.0290 H   0  0  0  0  0  0  0  0  0  0  0  0
   35.5940   28.9150   42.1530 H   0  0  0  0  0  0  0  0  0  0  0  0
   35.1280   29.2130   35.2270 C   0  0  0  0  0  0  0  0  0  0  0  0
   33.7410   29.3320   35.1530 C   0  0  0  0  0  0  0  0  0  0  0  0
   33.0050   29.1180   36.3260 C   0  0  0  0  0  0  0  0  0  0  0  0
   33.6810   28.8070   37.4700 N   0  0  0  0  0  0  0  0  0  0  0  0
   35.0180   28.7030   37.4940 C   0  0  0  0  0  0  0  0  0  0  0  0
   35.7330   28.9080   36.3680 N   0  0  0  0  0  0  0  0  0  0  0  0
   35.7170   29.3720   34.3390 H   0  0  0  0  0  0  0  0  0  0  0  0
   33.2210   29.5770   34.2440 H   0  0  0  0  0  0  0  0  0  0  0  0
   31.9450   29.1940   36.3310 H   0  0  0  0  0  0  0  0  0  0  0  0
   38.5990   28.9020   42.6780 C   0  0  0  0  0  0  0  0  0  0  0  0
   37.9460   29.2840   43.6790 O   0  0  0  0  0  0  0  0  0  0  0  0
   38.9520   30.1850   42.1200 C   0  0  0  0  0  0  0  0  0  0  0  0
   40.0270   30.9140   42.5640 C   0  0  0  0  0  0  0  0  0  0  0  0
   40.8140   30.8770   43.3110 H   0  0  0  0  0  0  0  0  0  0  0  0
   40.1270   32.0560   41.8140 N   0  0  0  0  0  0  0  0  0  0  0  0
   40.7900   32.8560   41.8290 H   0  0  0  0  0  0  0  0  0  0  0  0
   39.1520   32.0760   40.9110 C   0  0  0  0  0  0  0  0  0  0  0  0
   38.8200   32.7410   40.1200 H   0  0  0  0  0  0  0  0  0  0  0  0
   38.5070   30.9580   41.1460 N   0  0  0  0  0  0  0  0  0  0  0  0
  1  6  1  0  0  0  0
  1  7  1  1  0  0  0
  2  3  1  0  0  0  0
  2  1  1  0  0  0  0
  2  8  1  0  0  0  0
  3 10  1  0  0  0  0
  3  4  1  0  0  0  0
  4 12  1  0  0  0  0
  4  5  1  0  0  0  0
  4 13  1  0  0  0  0
  5 15  1  0  0  0  0
  5 14  1  0  0  0  0
  6 16  1  6  0  0  0
  6 33  1  0  0  0  0
  6  5  1  0  0  0  0
  9  2  1  0  0  0  0
 11  3  1  0  0  0  0
 17 21  1  0  0  0  0
 17 18  2  0  0  0  0
 18 22  1  0  0  0  0
 18 19  1  0  0  0  0
 19 23  1  0  0  0  0
 20 19  2  0  0  0  0
 20  1  1  0  0  0  0
 21 20  1  0  0  0  0
 24 29  1  0  0  0  0
 25 24  2  0  0  0  0
 25 26  1  0  0  0  0
 26 32  1  0  0  0  0
 26 27  2  0  0  0  0
 27 28  1  0  0  0  0
 28 17  1  0  0  0  0
 29 28  2  0  0  0  0
 30 24  1  0  0  0  0
 31 25  1  0  0  0  0
 33 34  2  0  0  0  0
 35 36  2  0  0  0  0
 35 33  1  0  0  0  0
 36 37  1  0  0  0  0
 38 39  1  0  0  0  0
 38 36  1  0  0  0  0
 40 42  2  0  0  0  0
 40 38  1  0  0  0  0
 41 40  1  0  0  0  0
 42 35  1  0  0  0  0
M  END
>  <minimizedAffinity>
-5.80441713

$$$$

 OpenBabel03252509193D

 42 45  0  0  1  0  0  0  0  0999 V2000
   36.3800   30.0240   37.9680 C   0  0  1  0  0  0  0  0  0  0  0  0
   36.8440   29.7720   36.5780 C   0  0  0  0  0  0  0  0  0  0  0  0
   36.7460   28.3300   36.1510 C   0  0  0  0  0  0  0  0  0  0  0  0
   35.4580   27.6740   36.5430 C   0  0  0  0  0  0  0  0  0  0  0  0
   35.0230   28.0240   37.9440 C   0  0  0  0  0  0  0  0  0  0  0  0
   36.1930   28.6870   38.6940 C   0  0  2  0  0  0  0  0  0  0  0  0
   35.3510   30.4470   37.9160 H   0  0  0  0  0  0  0  0  0  0  0  0
   36.2570   30.3740   35.8540 H   0  0  0  0  0  0  0  0  0  0  0  0
   37.9040   30.0890   36.4470 H   0  0  0  0  0  0  0  0  0  0  0  0
   36.7740   28.3380   35.0440 H   0  0  0  0  0  0  0  0  0  0  0  0
   37.6300   27.7930   36.5860 H   0  0  0  0  0  0  0  0  0  0  0  0
   35.5370   26.5990   36.3620 H   0  0  0  0  0  0  0  0  0  0  0  0
   34.6560   28.0580   35.8580 H   0  0  0  0  0  0  0  0  0  0  0  0
   34.1640   28.7090   37.9910 H   0  0  0  0  0  0  0  0  0  0  0  0
   34.7930   27.0620   38.4580 H   0  0  0  0  0  0  0  0  0  0  0  0
   37.1130   28.0610   38.5640 H   0  0  0  0  0  0  0  0  0  0  0  0
   39.3150   32.1370   39.8750 C   0  0  0  0  0  0  0  0  0  0  0  0
   38.0750   32.7670   39.9420 C   0  0  0  0  0  0  0  0  0  0  0  0
   37.0350   32.1770   39.3550 C   0  0  0  0  0  0  0  0  0  0  0  0
   37.1980   30.9380   38.6830 C   0  0  0  0  0  0  0  0  0  0  0  0
   38.9750   30.6000   38.9090 S   0  0  0  0  0  0  0  0  0  0  0  0
   37.9570   33.7100   40.4570 H   0  0  0  0  0  0  0  0  0  0  0  0
   36.0120   32.5100   39.3010 H   0  0  0  0  0  0  0  0  0  0  0  0
   42.2800   34.1610   40.8670 C   0  0  0  0  0  0  0  0  0  0  0  0
   42.8890   33.2890   41.7660 C   0  0  0  0  0  0  0  0  0  0  0  0
   42.2700   32.0530   41.9980 C   0  0  0  0  0  0  0  0  0  0  0  0
   41.1120   31.7710   41.3330 N   0  0  0  0  0  0  0  0  0  0  0  0
   40.5610   32.6430   40.4750 C   0  0  0  0  0  0  0  0  0  0  0  0
   41.1520   33.8350   40.2470 N   0  0  0  0  0  0  0  0  0  0  0  0
   42.7360   35.1180   40.6720 H   0  0  0  0  0  0  0  0  0  0  0  0
   43.8020   33.5240   42.2850 H   0  0  0  0  0  0  0  0  0  0  0  0
   42.6880   31.3470   42.6730 H   0  0  0  0  0  0  0  0  0  0  0  0
   35.8430   28.8830   40.0960 C   0  0  0  0  0  0  0  0  0  0  0  0
   34.7280   29.3480   40.4370 O   0  0  0  0  0  0  0  0  0  0  0  0
   36.4300   28.6920   41.4000 C   0  0  0  0  0  0  0  0  0  0  0  0
   37.0140   29.7140   42.1050 C   0  0  0  0  0  0  0  0  0  0  0  0
   37.2490   30.7700   42.0130 H   0  0  0  0  0  0  0  0  0  0  0  0
   37.4350   29.2310   43.3170 N   0  0  0  0  0  0  0  0  0  0  0  0
   37.9150   29.6730   44.1250 H   0  0  0  0  0  0  0  0  0  0  0  0
   37.1380   27.9390   43.4030 C   0  0  0  0  0  0  0  0  0  0  0  0
   37.2610   27.1450   44.1330 H   0  0  0  0  0  0  0  0  0  0  0  0
   36.5550   27.6910   42.2530 N   0  0  0  0  0  0  0  0  0  0  0  0
  1  7  1  6  0  0  0
  1 20  1  0  0  0  0
  1  6  1  0  0  0  0
  2  1  1  0  0  0  0
  3  4  1  0  0  0  0
  3  2  1  0  0  0  0
  3 11  1  0  0  0  0
  4  5  1  0  0  0  0
  5 14  1  0  0  0  0
  5 15  1  0  0  0  0
  5  6  1  0  0  0  0
  6 16  1  6  0  0  0
  6 33  1  0  0  0  0
  8  2  1  0  0  0  0
  9  2  1  0  0  0  0
 10  3  1  0  0  0  0
 12  4  1  0  0  0  0
 13  4  1  0  0  0  0
 17 18  2  0  0  0  0
 17 28  1  0  0  0  0
 18 22  1  0  0  0  0
 19 18  1  0  0  0  0
 20 21  1  0  0  0  0
 20 19  2  0  0  0  0
 21 17  1  0  0  0  0
 23 19  1  0  0  0  0
 24 25  1  0  0  0  0
 25 26  2  0  0  0  0
 25 31  1  0  0  0  0
 26 32  1  0  0  0  0
 27 26  1  0  0  0  0
 28 27  2  0  0  0  0
 29 28  1  0  0  0  0
 29 24  2  0  0  0  0
 30 24  1  0  0  0  0
 33 34  2  0  0  0  0
 33 35  1  0  0  0  0
 35 36  2  0  0  0  0
 35 42  1  0  0  0  0
 36 38  1  0  0  0  0
 37 36  1  0  0  0  0
 38 40  1  0  0  0  0
 38 39  1  0  0  0  0
 40 41  1  0  0  0  0
 42 40  2  0  0  0  0
M  END
>  <minimizedAffinity>
-5.64022207

$$$$

 OpenBabel03252509193D

 42 45  0  0  1  0  0  0  0  0999 V2000
   36.7600   28.5520   41.5550 C   0  0  1  0  0  0  0  0  0  0  0  0
   36.6690   27.3240   42.3890 C   0  0  0  0  0  0  0  0  0  0  0  0
   37.9950   26.8490   42.9270 C   0  0  0  0  0  0  0  0  0  0  0  0
   38.8520   27.9510   43.4690 C   0  0  0  0  0  0  0  0  0  0  0  0
   38.8480   29.1820   42.5980 C   0  0  0  0  0  0  0  0  0  0  0  0
   38.2300   28.8400   41.2300 C   0  0  2  0  0  0  0  0  0  0  0  0
   36.4490   29.4180   42.1810 H   0  0  0  0  0  0  0  0  0  0  0  0
   35.9980   27.4900   43.2570 H   0  0  0  0  0  0  0  0  0  0  0  0
   36.2200   26.4830   41.8150 H   0  0  0  0  0  0  0  0  0  0  0  0
   37.7560   26.1840   43.7800 H   0  0  0  0  0  0  0  0  0  0  0  0
   38.5110   26.2960   42.0990 H   0  0  0  0  0  0  0  0  0  0  0  0
   39.8520   27.5570   43.6700 H   0  0  0  0  0  0  0  0  0  0  0  0
   38.4250   28.2630   44.4590 H   0  0  0  0  0  0  0  0  0  0  0  0
   38.2830   30.0280   43.0180 H   0  0  0  0  0  0  0  0  0  0  0  0
   39.9140   29.4600   42.4300 H   0  0  0  0  0  0  0  0  0  0  0  0
   38.7140   27.9100   40.8330 H   0  0  0  0  0  0  0  0  0  0  0  0
   34.8280   27.8460   38.0210 C   0  0  0  0  0  0  0  0  0  0  0  0
   34.2820   28.9160   38.7240 C   0  0  0  0  0  0  0  0  0  0  0  0
   34.8240   29.2460   39.8950 C   0  0  0  0  0  0  0  0  0  0  0  0
   35.9310   28.5180   40.4030 C   0  0  0  0  0  0  0  0  0  0  0  0
   36.2080   27.2690   39.1050 S   0  0  0  0  0  0  0  0  0  0  0  0
   33.4390   29.4680   38.3300 H   0  0  0  0  0  0  0  0  0  0  0  0
   34.5390   30.0330   40.5730 H   0  0  0  0  0  0  0  0  0  0  0  0
   33.0540   26.1200   35.2380 C   0  0  0  0  0  0  0  0  0  0  0  0
   33.7240   26.6580   34.1420 C   0  0  0  0  0  0  0  0  0  0  0  0
   34.7490   27.5810   34.3920 C   0  0  0  0  0  0  0  0  0  0  0  0
   35.0340   27.9010   35.6880 N   0  0  0  0  0  0  0  0  0  0  0  0
   34.3610   27.3570   36.7130 C   0  0  0  0  0  0  0  0  0  0  0  0
   33.3730   26.4670   36.4800 N   0  0  0  0  0  0  0  0  0  0  0  0
   32.2620   25.4080   35.0730 H   0  0  0  0  0  0  0  0  0  0  0  0
   33.4890   26.3980   33.1250 H   0  0  0  0  0  0  0  0  0  0  0  0
   35.2950   28.0250   33.5960 H   0  0  0  0  0  0  0  0  0  0  0  0
   38.3660   29.9730   40.3220 C   0  0  0  0  0  0  0  0  0  0  0  0
   38.6730   29.8150   39.1140 O   0  0  0  0  0  0  0  0  0  0  0  0
   38.2450   31.4100   40.3500 C   0  0  0  0  0  0  0  0  0  0  0  0
   37.0720   32.0590   40.0570 C   0  0  0  0  0  0  0  0  0  0  0  0
   36.0530   31.8510   39.7440 H   0  0  0  0  0  0  0  0  0  0  0  0
   37.2610   33.4070   40.2140 N   0  0  0  0  0  0  0  0  0  0  0  0
   36.6360   34.2280   40.0940 H   0  0  0  0  0  0  0  0  0  0  0  0
   38.5140   33.6340   40.5960 C   0  0  0  0  0  0  0  0  0  0  0  0
   39.1230   34.4990   40.8380 H   0  0  0  0  0  0  0  0  0  0  0  0
   39.0290   32.4290   40.6540 N   0  0  0  0  0  0  0  0  0  0  0  0
  1  7  1  1  0  0  0
  1  2  1  0  0  0  0
  2  3  1  0  0  0  0
  2  8  1  0  0  0  0
  3  4  1  0  0  0  0
  3 10  1  0  0  0  0
  4 12  1  0  0  0  0
  4 13  1  0  0  0  0
  5 14  1  0  0  0  0
  5  4  1  0  0  0  0
  6 16  1  6  0  0  0
  6  1  1  0  0  0  0
  6  5  1  0  0  0  0
  9  2  1  0  0  0  0
 11  3  1  0  0  0  0
 15  5  1  0  0  0  0
 17 18  2  0  0  0  0
 17 21  1  0  0  0  0
 18 19  1  0  0  0  0
 19 20  2  0  0  0  0
 19 23  1  0  0  0  0
 20  1  1  0  0  0  0
 21 20  1  0  0  0  0
 22 18  1  0  0  0  0
 24 29  1  0  0  0  0
 25 26  1  0  0  0  0
 25 24  2  0  0  0  0
 26 27  2  0  0  0  0
 27 28  1  0  0  0  0
 28 17  1  0  0  0  0
 29 28  2  0  0  0  0
 30 24  1  0  0  0  0
 31 25  1  0  0  0  0
 32 26  1  0  0  0  0
 33 35  1  0  0  0  0
 33  6  1  0  0  0  0
 34 33  2  0  0  0  0
 35 42  1  0  0  0  0
 36 38  1  0  0  0  0
 36 35  2  0  0  0  0
 37 36  1  0  0  0  0
 38 40  1  0  0  0  0
 39 38  1  0  0  0  0
 40 42  2  0  0  0  0
 40 41  1  0  0  0  0
M  END
>  <minimizedAffinity>
-5.62677288

$$$$

 OpenBabel03252509193D

 42 45  0  0  1  0  0  0  0  0999 V2000
   39.3690   26.8340   41.6750 C   0  0  1  0  0  0  0  0  0  0  0  0
   40.1570   25.5770   41.7830 C   0  0  0  0  0  0  0  0  0  0  0  0
   39.4440   24.4680   42.5130 C   0  0  0  0  0  0  0  0  0  0  0  0
   38.0090   24.3130   42.1150 C   0  0  0  0  0  0  0  0  0  0  0  0
   37.2930   25.6330   41.9700 C   0  0  0  0  0  0  0  0  0  0  0  0
   38.1460   26.7510   42.5950 C   0  0  2  0  0  0  0  0  0  0  0  0
   38.9320   26.8800   40.6510 H   0  0  0  0  0  0  0  0  0  0  0  0
   40.4240   25.1940   40.7760 H   0  0  0  0  0  0  0  0  0  0  0  0
   41.1240   25.7550   42.3050 H   0  0  0  0  0  0  0  0  0  0  0  0
   39.9580   23.5320   42.2200 H   0  0  0  0  0  0  0  0  0  0  0  0
   39.5460   24.6740   43.6120 H   0  0  0  0  0  0  0  0  0  0  0  0
   37.5200   23.6220   42.8070 H   0  0  0  0  0  0  0  0  0  0  0  0
   37.9840   23.8270   41.1040 H   0  0  0  0  0  0  0  0  0  0  0  0
   37.0800   25.9170   40.9290 H   0  0  0  0  0  0  0  0  0  0  0  0
   36.3500   25.5540   42.5600 H   0  0  0  0  0  0  0  0  0  0  0  0
   38.4710   26.4330   43.6200 H   0  0  0  0  0  0  0  0  0  0  0  0
   41.3410   30.4130   41.5400 C   0  0  0  0  0  0  0  0  0  0  0  0
   41.5650   29.7250   42.7290 C   0  0  0  0  0  0  0  0  0  0  0  0
   40.9740   28.5430   42.8950 C   0  0  0  0  0  0  0  0  0  0  0  0
   40.1420   28.0070   41.8790 C   0  0  0  0  0  0  0  0  0  0  0  0
   40.2100   29.3000   40.5950 S   0  0  0  0  0  0  0  0  0  0  0  0
   42.2030   30.1380   43.4990 H   0  0  0  0  0  0  0  0  0  0  0  0
   41.0290   27.8740   43.7380 H   0  0  0  0  0  0  0  0  0  0  0  0
   42.3530   33.5770   39.8550 C   0  0  0  0  0  0  0  0  0  0  0  0
   43.1320   34.1550   40.8550 C   0  0  0  0  0  0  0  0  0  0  0  0
   43.2820   33.4490   42.0560 C   0  0  0  0  0  0  0  0  0  0  0  0
   42.6610   32.2390   42.1800 N   0  0  0  0  0  0  0  0  0  0  0  0
   41.9200   31.7210   41.1900 C   0  0  0  0  0  0  0  0  0  0  0  0
   41.7710   32.3960   40.0300 N   0  0  0  0  0  0  0  0  0  0  0  0
   42.2210   34.1000   38.9220 H   0  0  0  0  0  0  0  0  0  0  0  0
   43.6140   35.1100   40.7430 H   0  0  0  0  0  0  0  0  0  0  0  0
   43.8630   33.8400   42.8540 H   0  0  0  0  0  0  0  0  0  0  0  0
   37.4000   28.0030   42.6090 C   0  0  0  0  0  0  0  0  0  0  0  0
   37.3660   28.7390   43.6260 O   0  0  0  0  0  0  0  0  0  0  0  0
   36.5770   28.7890   41.7210 C   0  0  0  0  0  0  0  0  0  0  0  0
   36.6100   30.1600   41.7030 C   0  0  0  0  0  0  0  0  0  0  0  0
   37.0880   30.9950   42.2070 H   0  0  0  0  0  0  0  0  0  0  0  0
   35.7570   30.6110   40.7300 N   0  0  0  0  0  0  0  0  0  0  0  0
   35.4970   31.5610   40.4010 H   0  0  0  0  0  0  0  0  0  0  0  0
   35.1850   29.5710   40.1310 C   0  0  0  0  0  0  0  0  0  0  0  0
   34.4660   29.4150   39.3330 H   0  0  0  0  0  0  0  0  0  0  0  0
   35.7080   28.5430   40.7570 N   0  0  0  0  0  0  0  0  0  0  0  0
  1  7  1  6  0  0  0
  1  2  1  0  0  0  0
  1 20  1  0  0  0  0
  1  6  1  0  0  0  0
  2  9  1  0  0  0  0
  2  3  1  0  0  0  0
  3 11  1  0  0  0  0
  4  3  1  0  0  0  0
  4 12  1  0  0  0  0
  5  4  1  0  0  0  0
  5 15  1  0  0  0  0
  5  6  1  0  0  0  0
  6 33  1  0  0  0  0
  6 16  1  1  0  0  0
  8  2  1  0  0  0  0
 10  3  1  0  0  0  0
 13  4  1  0  0  0  0
 14  5  1  0  0  0  0
 17 18  2  0  0  0  0
 18 19  1  0  0  0  0
 18 22  1  0  0  0  0
 19 23  1  0  0  0  0
 20 19  2  0  0  0  0
 21 17  1  0  0  0  0
 21 20  1  0  0  0  0
 24 29  2  0  0  0  0
 24 25  1  0  0  0  0
 25 26  2  0  0  0  0
 26 27  1  0  0  0  0
 26 32  1  0  0  0  0
 28 17  1  0  0  0  0
 28 27  2  0  0  0  0
 29 28  1  0  0  0  0
 30 24  1  0  0  0  0
 31 25  1  0  0  0  0
 33 34  2  0  0  0  0
 35 33  1  0  0  0  0
 36 35  2  0  0  0  0
 36 37  1  0  0  0  0
 38 36  1  0  0  0  0
 39 38  1  0  0  0  0
 40 38  1  0  0  0  0
 40 42  2  0  0  0  0
 41 40  1  0  0  0  0
 42 35  1  0  0  0  0
M  END
>  <minimizedAffinity>
-5.57485104

$$$$

 OpenBabel03252509193D

 42 45  0  0  1  0  0  0  0  0999 V2000
   38.6690   30.9270   39.5820 C   0  0  1  0  0  0  0  0  0  0  0  0
   37.8820   31.7190   38.5990 C   0  0  0  0  0  0  0  0  0  0  0  0
   37.2460   32.9580   39.1780 C   0  0  0  0  0  0  0  0  0  0  0  0
   38.1590   33.7390   40.0720 C   0  0  0  0  0  0  0  0  0  0  0  0
   38.9650   32.8630   40.9990 C   0  0  0  0  0  0  0  0  0  0  0  0
   38.3800   31.4390   40.9980 C   0  0  2  0  0  0  0  0  0  0  0  0
   39.7470   31.1600   39.4270 H   0  0  0  0  0  0  0  0  0  0  0  0
   38.5230   32.0400   37.7520 H   0  0  0  0  0  0  0  0  0  0  0  0
   37.0700   31.1050   38.1500 H   0  0  0  0  0  0  0  0  0  0  0  0
   37.0120   33.6100   38.3150 H   0  0  0  0  0  0  0  0  0  0  0  0
   36.3190   32.6330   39.7200 H   0  0  0  0  0  0  0  0  0  0  0  0
   37.5780   34.5080   40.5880 H   0  0  0  0  0  0  0  0  0  0  0  0
   38.8990   34.2760   39.4220 H   0  0  0  0  0  0  0  0  0  0  0  0
   40.0300   32.7880   40.7330 H   0  0  0  0  0  0  0  0  0  0  0  0
   38.8400   33.2810   42.0250 H   0  0  0  0  0  0  0  0  0  0  0  0
   37.2720   31.4990   41.1540 H   0  0  0  0  0  0  0  0  0  0  0  0
   37.4040   27.0490   39.3170 C   0  0  0  0  0  0  0  0  0  0  0  0
   38.7820   27.1720   39.1640 C   0  0  0  0  0  0  0  0  0  0  0  0
   39.3180   28.3900   39.2290 C   0  0  0  0  0  0  0  0  0  0  0  0
   38.4960   29.5250   39.4500 C   0  0  0  0  0  0  0  0  0  0  0  0
   36.8330   28.7870   39.5690 S   0  0  0  0  0  0  0  0  0  0  0  0
   39.4040   26.3030   38.9990 H   0  0  0  0  0  0  0  0  0  0  0  0
   40.3510   28.6780   39.1340 H   0  0  0  0  0  0  0  0  0  0  0  0
   35.2390   24.1610   38.3980 C   0  0  0  0  0  0  0  0  0  0  0  0
   35.3940   23.3620   39.5280 C   0  0  0  0  0  0  0  0  0  0  0  0
   36.2240   23.8350   40.5540 C   0  0  0  0  0  0  0  0  0  0  0  0
   36.8310   25.0470   40.3910 N   0  0  0  0  0  0  0  0  0  0  0  0
   36.6520   25.7830   39.2830 C   0  0  0  0  0  0  0  0  0  0  0  0
   35.8540   25.3330   38.2920 N   0  0  0  0  0  0  0  0  0  0  0  0
   34.6060   23.8200   37.5950 H   0  0  0  0  0  0  0  0  0  0  0  0
   34.9100   22.4080   39.6430 H   0  0  0  0  0  0  0  0  0  0  0  0
   36.3810   23.2700   41.4390 H   0  0  0  0  0  0  0  0  0  0  0  0
   39.0440   30.6240   42.0080 C   0  0  0  0  0  0  0  0  0  0  0  0
   40.0880   31.0140   42.5870 O   0  0  0  0  0  0  0  0  0  0  0  0
   38.8770   29.3460   42.6560 C   0  0  0  0  0  0  0  0  0  0  0  0
   37.6760   28.9320   43.1760 C   0  0  0  0  0  0  0  0  0  0  0  0
   36.6570   29.2810   43.3150 H   0  0  0  0  0  0  0  0  0  0  0  0
   37.8240   27.6660   43.6790 N   0  0  0  0  0  0  0  0  0  0  0  0
   37.1700   27.0110   44.1490 H   0  0  0  0  0  0  0  0  0  0  0  0
   39.0780   27.2650   43.4970 C   0  0  0  0  0  0  0  0  0  0  0  0
   39.6650   26.3770   43.7140 H   0  0  0  0  0  0  0  0  0  0  0  0
   39.6340   28.2910   42.8970 N   0  0  0  0  0  0  0  0  0  0  0  0
  1  7  1  6  0  0  0
  1  6  1  0  0  0  0
  2  3  1  0  0  0  0
  2  1  1  0  0  0  0
  3 11  1  0  0  0  0
  3  4  1  0  0  0  0
  4 12  1  0  0  0  0
  4  5  1  0  0  0  0
  5 15  1  0  0  0  0
  6  5  1  0  0  0  0
  6 16  1  1  0  0  0
  6 33  1  0  0  0  0
  8  2  1  0  0  0  0
  9  2  1  0  0  0  0
 10  3  1  0  0  0  0
 13  4  1  0  0  0  0
 14  5  1  0  0  0  0
 17 21  1  0  0  0  0
 18 19  1  0  0  0  0
 18 17  2  0  0  0  0
 19 20  2  0  0  0  0
 20 21  1  0  0  0  0
 20  1  1  0  0  0  0
 22 18  1  0  0  0  0
 23 19  1  0  0  0  0
 24 25  1  0  0  0  0
 25 31  1  0  0  0  0
 25 26  2  0  0  0  0
 26 32  1  0  0  0  0
 27 26  1  0  0  0  0
 28 17  1  0  0  0  0
 28 27  2  0  0  0  0
 29 24  2  0  0  0  0
 29 28  1  0  0  0  0
 30 24  1  0  0  0  0
 33 34  2  0  0  0  0
 33 35  1  0  0  0  0
 35 42  1  0  0  0  0
 35 36  2  0  0  0  0
 36 37  1  0  0  0  0
 36 38  1  0  0  0  0
 38 39  1  0  0  0  0
 40 38  1  0  0  0  0
 40 41  1  0  0  0  0
 42 40  2  0  0  0  0
M  END
>  <minimizedAffinity>
-5.26214743

$$$$

 OpenBabel03252509193D

 42 45  0  0  1  0  0  0  0  0999 V2000
   37.9080   31.4770   39.4730 C   0  0  1  0  0  0  0  0  0  0  0  0
   37.3350   32.7750   39.0240 C   0  0  0  0  0  0  0  0  0  0  0  0
   37.6880   33.9400   39.9130 C   0  0  0  0  0  0  0  0  0  0  0  0
   39.1260   33.9640   40.3290 C   0  0  0  0  0  0  0  0  0  0  0  0
   39.6500   32.6030   40.7140 C   0  0  0  0  0  0  0  0  0  0  0  0
   38.4700   31.6310   40.8910 C   0  0  2  0  0  0  0  0  0  0  0  0
   38.8050   31.2630   38.8500 H   0  0  0  0  0  0  0  0  0  0  0  0
   37.6810   33.0210   37.9990 H   0  0  0  0  0  0  0  0  0  0  0  0
   36.2250   32.7230   38.9650 H   0  0  0  0  0  0  0  0  0  0  0  0
   37.5180   34.8490   39.3030 H   0  0  0  0  0  0  0  0  0  0  0  0
   37.0030   33.9000   40.8010 H   0  0  0  0  0  0  0  0  0  0  0  0
   39.2590   34.7230   41.1050 H   0  0  0  0  0  0  0  0  0  0  0  0
   39.7330   34.2980   39.4450 H   0  0  0  0  0  0  0  0  0  0  0  0
   40.3390   32.1620   39.9790 H   0  0  0  0  0  0  0  0  0  0  0  0
   40.1470   32.7190   41.7050 H   0  0  0  0  0  0  0  0  0  0  0  0
   37.6980   32.1080   41.5490 H   0  0  0  0  0  0  0  0  0  0  0  0
   35.8760   28.0320   38.6270 C   0  0  0  0  0  0  0  0  0  0  0  0
   35.1680   28.8720   39.4810 C   0  0  0  0  0  0  0  0  0  0  0  0
   35.7270   30.0290   39.8350 C   0  0  0  0  0  0  0  0  0  0  0  0
   37.0090   30.3860   39.3450 C   0  0  0  0  0  0  0  0  0  0  0  0
   37.4450   28.9520   38.3060 S   0  0  0  0  0  0  0  0  0  0  0  0
   34.1900   28.5960   39.8490 H   0  0  0  0  0  0  0  0  0  0  0  0
   35.3350   30.7970   40.4790 H   0  0  0  0  0  0  0  0  0  0  0  0
   35.4010   24.4150   37.8750 C   0  0  0  0  0  0  0  0  0  0  0  0
   34.2780   24.4750   37.0520 C   0  0  0  0  0  0  0  0  0  0  0  0
   33.7310   25.7380   36.7870 C   0  0  0  0  0  0  0  0  0  0  0  0
   34.3250   26.8340   37.3440 N   0  0  0  0  0  0  0  0  0  0  0  0
   35.4050   26.7270   38.1310 C   0  0  0  0  0  0  0  0  0  0  0  0
   35.9370   25.5140   38.3910 N   0  0  0  0  0  0  0  0  0  0  0  0
   35.8400   23.4560   38.0950 H   0  0  0  0  0  0  0  0  0  0  0  0
   33.8200   23.6030   36.6200 H   0  0  0  0  0  0  0  0  0  0  0  0
   32.8750   25.8470   36.1670 H   0  0  0  0  0  0  0  0  0  0  0  0
   38.9450   30.3580   41.4200 C   0  0  0  0  0  0  0  0  0  0  0  0
   40.0710   29.8950   41.1110 O   0  0  0  0  0  0  0  0  0  0  0  0
   38.4920   29.3100   42.3030 C   0  0  0  0  0  0  0  0  0  0  0  0
   39.3380   28.3610   42.8190 C   0  0  0  0  0  0  0  0  0  0  0  0
   40.3790   28.0550   42.7790 H   0  0  0  0  0  0  0  0  0  0  0  0
   38.6260   27.5390   43.6510 N   0  0  0  0  0  0  0  0  0  0  0  0
   38.8890   26.7140   44.2250 H   0  0  0  0  0  0  0  0  0  0  0  0
   37.3570   27.9340   43.6800 C   0  0  0  0  0  0  0  0  0  0  0  0
   36.4410   27.6190   44.1690 H   0  0  0  0  0  0  0  0  0  0  0  0
   37.3510   28.9690   42.8730 N   0  0  0  0  0  0  0  0  0  0  0  0
  1  7  1  6  0  0  0
  1  6  1  0  0  0  0
  2  1  1  0  0  0  0
  2  3  1  0  0  0  0
  3  4  1  0  0  0  0
  3 11  1  0  0  0  0
  4  5  1  0  0  0  0
  4 12  1  0  0  0  0
  5  6  1  0  0  0  0
  5 15  1  0  0  0  0
  6 33  1  0  0  0  0
  6 16  1  1  0  0  0
  8  2  1  0  0  0  0
  9  2  1  0  0  0  0
 10  3  1  0  0  0  0
 13  4  1  0  0  0  0
 14  5  1  0  0  0  0
 17 18  2  0  0  0  0
 18 19  1  0  0  0  0
 18 22  1  0  0  0  0
 19 23  1  0  0  0  0
 20  1  1  0  0  0  0
 20 19  2  0  0  0  0
 21 17  1  0  0  0  0
 21 20  1  0  0  0  0
 24 30  1  0  0  0  0
 24 29  1  0  0  0  0
 25 24  2  0  0  0  0
 26 25  1  0  0  0  0
 26 27  2  0  0  0  0
 27 28  1  0  0  0  0
 28 29  2  0  0  0  0
 28 17  1  0  0  0  0
 31 25  1  0  0  0  0
 32 26  1  0  0  0  0
 33 35  1  0  0  0  0
 34 33  2  0  0  0  0
 35 36  2  0  0  0  0
 35 42  1  0  0  0  0
 36 38  1  0  0  0  0
 37 36  1  0  0  0  0
 38 40  1  0  0  0  0
 38 39  1  0  0  0  0
 40 41  1  0  0  0  0
 42 40  2  0  0  0  0
M  END
>  <minimizedAffinity>
-5.19113064

$$$$

 OpenBabel03252509193D

 42 45  0  0  1  0  0  0  0  0999 V2000
   36.2810   26.2530   39.5890 C   0  0  1  0  0  0  0  0  0  0  0  0
   36.1480   26.1210   38.1130 C   0  0  0  0  0  0  0  0  0  0  0  0
   36.8410   24.9110   37.5410 C   0  0  0  0  0  0  0  0  0  0  0  0
   36.6200   23.6610   38.3360 C   0  0  0  0  0  0  0  0  0  0  0  0
   36.7130   23.8860   39.8240 C   0  0  0  0  0  0  0  0  0  0  0  0
   37.3380   25.2660   40.0960 C   0  0  2  0  0  0  0  0  0  0  0  0
   35.3340   25.8940   40.0530 H   0  0  0  0  0  0  0  0  0  0  0  0
   35.0800   26.0620   37.8200 H   0  0  0  0  0  0  0  0  0  0  0  0
   36.5560   27.0170   37.5930 H   0  0  0  0  0  0  0  0  0  0  0  0
   36.3840   24.7410   36.5470 H   0  0  0  0  0  0  0  0  0  0  0  0
   37.9330   25.1590   37.4610 H   0  0  0  0  0  0  0  0  0  0  0  0
   37.2910   22.8810   37.9660 H   0  0  0  0  0  0  0  0  0  0  0  0
   35.5740   23.3080   38.1340 H   0  0  0  0  0  0  0  0  0  0  0  0
   35.7450   23.8490   40.3460 H   0  0  0  0  0  0  0  0  0  0  0  0
   37.4090   23.1130   40.2230 H   0  0  0  0  0  0  0  0  0  0  0  0
   38.2710   25.3720   39.4840 H   0  0  0  0  0  0  0  0  0  0  0  0
   37.5400   30.0720   40.3260 C   0  0  0  0  0  0  0  0  0  0  0  0
   36.4320   29.7190   41.0910 C   0  0  0  0  0  0  0  0  0  0  0  0
   35.9240   28.4960   40.9400 C   0  0  0  0  0  0  0  0  0  0  0  0
   36.5080   27.5860   40.0220 C   0  0  0  0  0  0  0  0  0  0  0  0
   37.8820   28.5590   39.3230 S   0  0  0  0  0  0  0  0  0  0  0  0
   35.9930   30.4170   41.7910 H   0  0  0  0  0  0  0  0  0  0  0  0
   35.0800   28.0510   41.4370 H   0  0  0  0  0  0  0  0  0  0  0  0
   40.0100   32.8350   40.7000 C   0  0  0  0  0  0  0  0  0  0  0  0
   39.2160   33.9280   40.3590 C   0  0  0  0  0  0  0  0  0  0  0  0
   37.8790   33.6830   40.0180 C   0  0  0  0  0  0  0  0  0  0  0  0
   37.4290   32.3940   40.0390 N   0  0  0  0  0  0  0  0  0  0  0  0
   38.2300   31.3720   40.3750 C   0  0  0  0  0  0  0  0  0  0  0  0
   39.5190   31.6010   40.7040 N   0  0  0  0  0  0  0  0  0  0  0  0
   41.0410   32.9970   40.9660 H   0  0  0  0  0  0  0  0  0  0  0  0
   39.5840   34.9390   40.3450 H   0  0  0  0  0  0  0  0  0  0  0  0
   37.2260   34.4760   39.7480 H   0  0  0  0  0  0  0  0  0  0  0  0
   37.5850   25.4320   41.5230 C   0  0  0  0  0  0  0  0  0  0  0  0
   36.7310   25.1010   42.3820 O   0  0  0  0  0  0  0  0  0  0  0  0
   38.6270   25.9130   42.3980 C   0  0  0  0  0  0  0  0  0  0  0  0
   39.5830   25.0870   42.9330 C   0  0  0  0  0  0  0  0  0  0  0  0
   39.8700   24.0400   42.9550 H   0  0  0  0  0  0  0  0  0  0  0  0
   40.4520   25.8400   43.6790 N   0  0  0  0  0  0  0  0  0  0  0  0
   41.2960   25.6020   44.2350 H   0  0  0  0  0  0  0  0  0  0  0  0
   40.0770   27.1140   43.6360 C   0  0  0  0  0  0  0  0  0  0  0  0
   40.4270   28.0560   44.0480 H   0  0  0  0  0  0  0  0  0  0  0  0
   39.0090   27.0840   42.8740 N   0  0  0  0  0  0  0  0  0  0  0  0
  1 20  1  0  0  0  0
  1  7  1  1  0  0  0
  1  6  1  0  0  0  0
  2  1  1  0  0  0  0
  3  2  1  0  0  0  0
  3  4  1  0  0  0  0
  4  5  1  0  0  0  0
  5  6  1  0  0  0  0
  5 15  1  0  0  0  0
  5 14  1  0  0  0  0
  6 16  1  6  0  0  0
  6 33  1  0  0  0  0
  8  2  1  0  0  0  0
  9  2  1  0  0  0  0
 10  3  1  0  0  0  0
 11  3  1  0  0  0  0
 12  4  1  0  0  0  0
 13  4  1  0  0  0  0
 17 28  1  0  0  0  0
 17 18  2  0  0  0  0
 18 22  1  0  0  0  0
 19 18  1  0  0  0  0
 19 23  1  0  0  0  0
 20 19  2  0  0  0  0
 21 20  1  0  0  0  0
 21 17  1  0  0  0  0
 24 29  1  0  0  0  0
 24 30  1  0  0  0  0
 25 24  2  0  0  0  0
 26 27  2  0  0  0  0
 26 25  1  0  0  0  0
 27 28  1  0  0  0  0
 28 29  2  0  0  0  0
 31 25  1  0  0  0  0
 32 26  1  0  0  0  0
 33 34  2  0  0  0  0
 33 35  1  0  0  0  0
 35 42  1  0  0  0  0
 35 36  2  0  0  0  0
 36 37  1  0  0  0  0
 36 38  1  0  0  0  0
 38 39  1  0  0  0  0
 40 38  1  0  0  0  0
 40 41  1  0  0  0  0
 42 40  2  0  0  0  0
M  END
>  <minimizedAffinity>
-5.17383671

$$$$

 OpenBabel03252509193D

 42 45  0  0  1  0  0  0  0  0999 V2000
   37.0140   28.2330   41.3290 C   0  0  1  0  0  0  0  0  0  0  0  0
   36.8830   27.0890   42.2710 C   0  0  0  0  0  0  0  0  0  0  0  0
   38.1750   26.6960   42.9410 C   0  0  0  0  0  0  0  0  0  0  0  0
   38.9770   27.8620   43.4300 C   0  0  0  0  0  0  0  0  0  0  0  0
   39.0150   29.0040   42.4450 C   0  0  0  0  0  0  0  0  0  0  0  0
   38.4990   28.5190   41.0780 C   0  0  2  0  0  0  0  0  0  0  0  0
   36.6480   29.1480   41.8460 H   0  0  0  0  0  0  0  0  0  0  0  0
   36.1510   27.3230   43.0720 H   0  0  0  0  0  0  0  0  0  0  0  0
   36.4870   26.1870   41.7530 H   0  0  0  0  0  0  0  0  0  0  0  0
   37.8870   26.1110   43.8360 H   0  0  0  0  0  0  0  0  0  0  0  0
   38.7550   26.0760   42.2070 H   0  0  0  0  0  0  0  0  0  0  0  0
   39.9660   27.5110   43.7340 H   0  0  0  0  0  0  0  0  0  0  0  0
   38.4780   28.2590   44.3530 H   0  0  0  0  0  0  0  0  0  0  0  0
   38.4110   29.8740   42.7410 H   0  0  0  0  0  0  0  0  0  0  0  0
   40.0860   29.2870   42.3220 H   0  0  0  0  0  0  0  0  0  0  0  0
   39.0220   27.5660   40.8060 H   0  0  0  0  0  0  0  0  0  0  0  0
   34.4720   28.4100   38.1320 C   0  0  0  0  0  0  0  0  0  0  0  0
   35.3560   27.3380   38.0510 C   0  0  0  0  0  0  0  0  0  0  0  0
   36.2390   27.1730   39.0350 C   0  0  0  0  0  0  0  0  0  0  0  0
   36.2670   28.0710   40.1330 C   0  0  0  0  0  0  0  0  0  0  0  0
   34.9310   29.2390   39.7170 S   0  0  0  0  0  0  0  0  0  0  0  0
   35.3290   26.6560   37.2130 H   0  0  0  0  0  0  0  0  0  0  0  0
   36.9930   26.4120   39.1440 H   0  0  0  0  0  0  0  0  0  0  0  0
   31.4220   29.6110   36.3640 C   0  0  0  0  0  0  0  0  0  0  0  0
   31.7000   29.1850   35.0660 C   0  0  0  0  0  0  0  0  0  0  0  0
   32.9080   28.5080   34.8470 C   0  0  0  0  0  0  0  0  0  0  0  0
   33.7410   28.3040   35.9090 N   0  0  0  0  0  0  0  0  0  0  0  0
   33.4310   28.7330   37.1410 C   0  0  0  0  0  0  0  0  0  0  0  0
   32.2700   29.3850   37.3600 N   0  0  0  0  0  0  0  0  0  0  0  0
   30.5000   30.1340   36.5590 H   0  0  0  0  0  0  0  0  0  0  0  0
   31.0350   29.3540   34.2380 H   0  0  0  0  0  0  0  0  0  0  0  0
   33.1740   28.1600   33.8790 H   0  0  0  0  0  0  0  0  0  0  0  0
   38.6810   29.5620   40.0750 C   0  0  0  0  0  0  0  0  0  0  0  0
   39.3390   29.3580   39.0250 O   0  0  0  0  0  0  0  0  0  0  0  0
   38.3020   30.9360   39.8540 C   0  0  0  0  0  0  0  0  0  0  0  0
   38.3760   31.5350   38.6220 C   0  0  0  0  0  0  0  0  0  0  0  0
   38.6830   31.3210   37.6020 H   0  0  0  0  0  0  0  0  0  0  0  0
   37.9090   32.8190   38.7240 N   0  0  0  0  0  0  0  0  0  0  0  0
   37.8000   33.5890   38.0360 H   0  0  0  0  0  0  0  0  0  0  0  0
   37.5420   33.0540   39.9800 C   0  0  0  0  0  0  0  0  0  0  0  0
   37.1270   33.8860   40.5400 H   0  0  0  0  0  0  0  0  0  0  0  0
   37.7980   31.9170   40.5820 N   0  0  0  0  0  0  0  0  0  0  0  0
  1  7  1  1  0  0  0
  1  2  1  0  0  0  0
  2  3  1  0  0  0  0
  2  8  1  0  0  0  0
  3  4  1  0  0  0  0
  3 10  1  0  0  0  0
  4 12  1  0  0  0  0
  4 13  1  0  0  0  0
  5 14  1  0  0  0  0
  5  4  1  0  0  0  0
  6 16  1  6  0  0  0
  6  1  1  0  0  0  0
  6  5  1  0  0  0  0
  9  2  1  0  0  0  0
 11  3  1  0  0  0  0
 15  5  1  0  0  0  0
 17 21  1  0  0  0  0
 18 17  2  0  0  0  0
 18 19  1  0  0  0  0
 19 23  1  0  0  0  0
 19 20  2  0  0  0  0
 20  1  1  0  0  0  0
 21 20  1  0  0  0  0
 22 18  1  0  0  0  0
 24 30  1  0  0  0  0
 24 29  1  0  0  0  0
 25 24  2  0  0  0  0
 26 25  1  0  0  0  0
 26 27  2  0  0  0  0
 27 28  1  0  0  0  0
 28 29  2  0  0  0  0
 28 17  1  0  0  0  0
 31 25  1  0  0  0  0
 32 26  1  0  0  0  0
 33  6  1  0  0  0  0
 34 33  2  0  0  0  0
 35 33  1  0  0  0  0
 35 42  1  0  0  0  0
 36 38  1  0  0  0  0
 36 35  2  0  0  0  0
 37 36  1  0  0  0  0
 38 40  1  0  0  0  0
 39 38  1  0  0  0  0
 40 41  1  0  0  0  0
 40 42  2  0  0  0  0
M  END
>  <minimizedAffinity>
-5.17312574

$$$$

 OpenBabel03252509193D

 42 45  0  0  1  0  0  0  0  0999 V2000
   38.4110   28.3570   41.0610 C   0  0  1  0  0  0  0  0  0  0  0  0
   39.2180   27.7560   42.1570 C   0  0  0  0  0  0  0  0  0  0  0  0
   38.5440   27.7890   43.5040 C   0  0  0  0  0  0  0  0  0  0  0  0
   37.0990   27.4000   43.4620 C   0  0  0  0  0  0  0  0  0  0  0  0
   36.3610   28.0010   42.2920 C   0  0  0  0  0  0  0  0  0  0  0  0
   37.2190   29.1120   41.6610 C   0  0  2  0  0  0  0  0  0  0  0  0
   37.9400   27.5280   40.4860 H   0  0  0  0  0  0  0  0  0  0  0  0
   39.4570   26.6960   41.9300 H   0  0  0  0  0  0  0  0  0  0  0  0
   40.1990   28.2720   42.2600 H   0  0  0  0  0  0  0  0  0  0  0  0
   39.0610   27.0290   44.1210 H   0  0  0  0  0  0  0  0  0  0  0  0
   38.6790   28.8240   43.9180 H   0  0  0  0  0  0  0  0  0  0  0  0
   36.6430   27.6210   44.4310 H   0  0  0  0  0  0  0  0  0  0  0  0
   37.0480   26.2860   43.3290 H   0  0  0  0  0  0  0  0  0  0  0  0
   36.1110   27.2800   41.5000 H   0  0  0  0  0  0  0  0  0  0  0  0
   35.4400   28.4750   42.7030 H   0  0  0  0  0  0  0  0  0  0  0  0
   37.5820   29.7980   42.4700 H   0  0  0  0  0  0  0  0  0  0  0  0
   40.7840   31.0520   39.1070 C   0  0  0  0  0  0  0  0  0  0  0  0
   40.2530   30.0910   38.2520 C   0  0  0  0  0  0  0  0  0  0  0  0
   39.4620   29.1520   38.7710 C   0  0  0  0  0  0  0  0  0  0  0  0
   39.1740   29.1440   40.1600 C   0  0  0  0  0  0  0  0  0  0  0  0
   40.1120   30.5860   40.7630 S   0  0  0  0  0  0  0  0  0  0  0  0
   40.4740   30.1040   37.1940 H   0  0  0  0  0  0  0  0  0  0  0  0
   38.9670   28.3370   38.2720 H   0  0  0  0  0  0  0  0  0  0  0  0
   42.3070   34.0510   37.5070 C   0  0  0  0  0  0  0  0  0  0  0  0
   43.5220   34.1070   38.1860 C   0  0  0  0  0  0  0  0  0  0  0  0
   43.7750   33.1260   39.1550 C   0  0  0  0  0  0  0  0  0  0  0  0
   42.8220   32.1740   39.3800 N   0  0  0  0  0  0  0  0  0  0  0  0
   41.6650   32.1610   38.7010 C   0  0  0  0  0  0  0  0  0  0  0  0
   41.4150   33.1020   37.7670 N   0  0  0  0  0  0  0  0  0  0  0  0
   42.0880   34.7940   36.7580 H   0  0  0  0  0  0  0  0  0  0  0  0
   44.2640   34.8640   37.9990 H   0  0  0  0  0  0  0  0  0  0  0  0
   44.6840   33.1180   39.7040 H   0  0  0  0  0  0  0  0  0  0  0  0
   36.4570   29.8120   40.6340 C   0  0  0  0  0  0  0  0  0  0  0  0
   36.4610   31.0650   40.5510 O   0  0  0  0  0  0  0  0  0  0  0  0
   35.5830   29.5040   39.5290 C   0  0  0  0  0  0  0  0  0  0  0  0
   35.9670   29.6530   38.2190 C   0  0  0  0  0  0  0  0  0  0  0  0
   36.8110   29.9900   37.6260 H   0  0  0  0  0  0  0  0  0  0  0  0
   34.9430   29.2380   37.4080 N   0  0  0  0  0  0  0  0  0  0  0  0
   34.8330   29.1910   36.3770 H   0  0  0  0  0  0  0  0  0  0  0  0
   33.9240   28.8330   38.1590 C   0  0  0  0  0  0  0  0  0  0  0  0
   32.9280   28.4330   37.9930 H   0  0  0  0  0  0  0  0  0  0  0  0
   34.3650   29.0150   39.3820 N   0  0  0  0  0  0  0  0  0  0  0  0
  1  7  1  6  0  0  0
  1  6  1  0  0  0  0
  1  2  1  0  0  0  0
  2  9  1  0  0  0  0
  2  3  1  0  0  0  0
  3 11  1  0  0  0  0
  3 10  1  0  0  0  0
  4  3  1  0  0  0  0
  4 12  1  0  0  0  0
  5 15  1  0  0  0  0
  5  4  1  0  0  0  0
  6  5  1  0  0  0  0
  6 16  1  1  0  0  0
  8  2  1  0  0  0  0
 13  4  1  0  0  0  0
 14  5  1  0  0  0  0
 17 21  1  0  0  0  0
 18 19  1  0  0  0  0
 18 17  2  0  0  0  0
 19 20  2  0  0  0  0
 20 21  1  0  0  0  0
 20  1  1  0  0  0  0
 22 18  1  0  0  0  0
 23 19  1  0  0  0  0
 24 29  2  0  0  0  0
 24 25  1  0  0  0  0
 25 26  2  0  0  0  0
 26 27  1  0  0  0  0
 26 32  1  0  0  0  0
 28 17  1  0  0  0  0
 28 27  2  0  0  0  0
 29 28  1  0  0  0  0
 30 24  1  0  0  0  0
 31 25  1  0  0  0  0
 33  6  1  0  0  0  0
 34 33  2  0  0  0  0
 35 33  1  0  0  0  0
 36 35  2  0  0  0  0
 37 36  1  0  0  0  0
 38 40  1  0  0  0  0
 38 36  1  0  0  0  0
 39 38  1  0  0  0  0
 40 42  2  0  0  0  0
 41 40  1  0  0  0  0
 42 35  1  0  0  0  0
M  END
>  <minimizedAffinity>
-5.15387011

$$$$
