
 OpenBabel03252509193D

 42 45  0  0  1  0  0  0  0  0999 V2000
   48.5900   29.1690   48.0080 C   0  0  1  0  0  0  0  0  0  0  0  0
   49.9630   28.6030   47.9140 C   0  0  0  0  0  0  0  0  0  0  0  0
   51.0290   29.4760   48.5260 C   0  0  0  0  0  0  0  0  0  0  0  0
   50.6450   30.0520   49.8530 C   0  0  0  0  0  0  0  0  0  0  0  0
   49.2220   30.5520   49.8880 C   0  0  0  0  0  0  0  0  0  0  0  0
   48.6720   30.6340   48.4520 C   0  0  2  0  0  0  0  0  0  0  0  0
   48.0660   28.6630   48.8500 H   0  0  0  0  0  0  0  0  0  0  0  0
   50.0130   27.6150   48.4160 H   0  0  0  0  0  0  0  0  0  0  0  0
   50.2480   28.4190   46.8540 H   0  0  0  0  0  0  0  0  0  0  0  0
   51.8970   28.8120   48.7070 H   0  0  0  0  0  0  0  0  0  0  0  0
   51.2670   30.2810   47.7810 H   0  0  0  0  0  0  0  0  0  0  0  0
   51.3830   30.8050   50.1410 H   0  0  0  0  0  0  0  0  0  0  0  0
   50.7090   29.2300   50.6160 H   0  0  0  0  0  0  0  0  0  0  0  0
   48.5370   29.9200   50.4720 H   0  0  0  0  0  0  0  0  0  0  0  0
   49.2560   31.5880   50.2990 H   0  0  0  0  0  0  0  0  0  0  0  0
   49.4110   31.1780   47.8080 H   0  0  0  0  0  0  0  0  0  0  0  0
   46.9470   29.0490   44.2670 C   0  0  0  0  0  0  0  0  0  0  0  0
   46.1610   28.4020   45.2150 C   0  0  0  0  0  0  0  0  0  0  0  0
   46.5910   28.3700   46.4760 C   0  0  0  0  0  0  0  0  0  0  0  0
   47.8190   28.9860   46.8310 C   0  0  0  0  0  0  0  0  0  0  0  0
   48.3980   29.6540   45.2370 S   0  0  0  0  0  0  0  0  0  0  0  0
   45.2250   27.9360   44.9390 H   0  0  0  0  0  0  0  0  0  0  0  0
   46.1250   27.9200   47.3360 H   0  0  0  0  0  0  0  0  0  0  0  0
   45.4970   28.7310   40.8500 C   0  0  0  0  0  0  0  0  0  0  0  0
   46.2460   29.6890   40.1700 C   0  0  0  0  0  0  0  0  0  0  0  0
   47.2110   30.4010   40.8970 C   0  0  0  0  0  0  0  0  0  0  0  0
   47.3630   30.1180   42.2240 N   0  0  0  0  0  0  0  0  0  0  0  0
   46.6190   29.1860   42.8370 C   0  0  0  0  0  0  0  0  0  0  0  0
   45.6890   28.4970   42.1430 N   0  0  0  0  0  0  0  0  0  0  0  0
   44.7490   28.1710   40.3140 H   0  0  0  0  0  0  0  0  0  0  0  0
   46.1140   29.9030   39.1240 H   0  0  0  0  0  0  0  0  0  0  0  0
   47.8110   31.1440   40.4330 H   0  0  0  0  0  0  0  0  0  0  0  0
   47.3590   31.2680   48.4540 C   0  0  0  0  0  0  0  0  0  0  0  0
   46.5300   31.0630   49.3740 O   0  0  0  0  0  0  0  0  0  0  0  0
   46.5910   32.1800   47.6410 C   0  0  0  0  0  0  0  0  0  0  0  0
   45.3930   32.7060   48.0520 C   0  0  0  0  0  0  0  0  0  0  0  0
   44.6970   32.6590   48.8840 H   0  0  0  0  0  0  0  0  0  0  0  0
   44.9340   33.5660   47.0880 N   0  0  0  0  0  0  0  0  0  0  0  0
   44.0820   34.1550   47.0140 H   0  0  0  0  0  0  0  0  0  0  0  0
   45.8010   33.6030   46.0820 C   0  0  0  0  0  0  0  0  0  0  0  0
   45.8840   34.1110   45.1270 H   0  0  0  0  0  0  0  0  0  0  0  0
   46.7410   32.7720   46.4700 N   0  0  0  0  0  0  0  0  0  0  0  0
  1  6  1  0  0  0  0
  1  7  1  1  0  0  0
  2  1  1  0  0  0  0
  2  8  1  0  0  0  0
  2  3  1  0  0  0  0
  3 10  1  0  0  0  0
  3  4  1  0  0  0  0
  4  5  1  0  0  0  0
  4 12  1  0  0  0  0
  4 13  1  0  0  0  0
  5 15  1  0  0  0  0
  5 14  1  0  0  0  0
  6 16  1  6  0  0  0
  6 33  1  0  0  0  0
  6  5  1  0  0  0  0
  9  2  1  0  0  0  0
 11  3  1  0  0  0  0
 17 18  2  0  0  0  0
 17 21  1  0  0  0  0
 18 19  1  0  0  0  0
 19 20  2  0  0  0  0
 19 23  1  0  0  0  0
 20  1  1  0  0  0  0
 21 20  1  0  0  0  0
 22 18  1  0  0  0  0
 24 29  1  0  0  0  0
 25 24  2  0  0  0  0
 25 26  1  0  0  0  0
 26 27  2  0  0  0  0
 27 28  1  0  0  0  0
 28 17  1  0  0  0  0
 29 28  2  0  0  0  0
 30 24  1  0  0  0  0
 31 25  1  0  0  0  0
 32 26  1  0  0  0  0
 33 34  2  0  0  0  0
 35 36  2  0  0  0  0
 35 33  1  0  0  0  0
 36 37  1  0  0  0  0
 38 36  1  0  0  0  0
 39 38  1  0  0  0  0
 40 42  2  0  0  0  0
 40 38  1  0  0  0  0
 41 40  1  0  0  0  0
 42 35  1  0  0  0  0
M  END
>  <minimizedAffinity>
-4.10697985

>  <minimizedRMSD>
4.37256193

$$$$
