
 OpenBabel03252509193D

 42 45  0  0  1  0  0  0  0  0999 V2000
   46.7800   30.9550   47.0610 C   0  0  1  0  0  0  0  0  0  0  0  0
   46.9540   32.0770   48.0210 C   0  0  0  0  0  0  0  0  0  0  0  0
   45.7870   32.2710   48.9560 C   0  0  0  0  0  0  0  0  0  0  0  0
   45.2580   30.9930   49.5280 C   0  0  0  0  0  0  0  0  0  0  0  0
   45.1640   29.8860   48.5070 C   0  0  0  0  0  0  0  0  0  0  0  0
   45.3240   30.4760   47.0940 C   0  0  2  0  0  0  0  0  0  0  0  0
   47.3570   30.0820   47.4430 H   0  0  0  0  0  0  0  0  0  0  0  0
   47.8580   31.9210   48.6460 H   0  0  0  0  0  0  0  0  0  0  0  0
   47.1180   33.0390   47.4860 H   0  0  0  0  0  0  0  0  0  0  0  0
   46.1760   32.8630   49.8070 H   0  0  0  0  0  0  0  0  0  0  0  0
   44.9950   32.8270   48.3880 H   0  0  0  0  0  0  0  0  0  0  0  0
   44.3150   31.1970   50.0420 H   0  0  0  0  0  0  0  0  0  0  0  0
   45.9810   30.6410   50.3100 H   0  0  0  0  0  0  0  0  0  0  0  0
   45.9220   29.0970   48.6280 H   0  0  0  0  0  0  0  0  0  0  0  0
   44.1350   29.4630   48.5850 H   0  0  0  0  0  0  0  0  0  0  0  0
   44.6390   31.3570   46.9870 H   0  0  0  0  0  0  0  0  0  0  0  0
   47.7500   32.5070   43.4050 C   0  0  0  0  0  0  0  0  0  0  0  0
   48.2230   31.2090   43.5770 C   0  0  0  0  0  0  0  0  0  0  0  0
   47.9730   30.5920   44.7310 C   0  0  0  0  0  0  0  0  0  0  0  0
   47.2400   31.2510   45.7510 C   0  0  0  0  0  0  0  0  0  0  0  0
   46.8910   32.8740   44.9980 S   0  0  0  0  0  0  0  0  0  0  0  0
   48.7800   30.7110   42.7940 H   0  0  0  0  0  0  0  0  0  0  0  0
   48.2560   29.6010   45.0410 H   0  0  0  0  0  0  0  0  0  0  0  0
   47.7900   33.8540   39.9330 C   0  0  0  0  0  0  0  0  0  0  0  0
   48.3950   35.0900   40.1510 C   0  0  0  0  0  0  0  0  0  0  0  0
   48.7650   35.4130   41.4640 C   0  0  0  0  0  0  0  0  0  0  0  0
   48.5140   34.5050   42.4520 N   0  0  0  0  0  0  0  0  0  0  0  0
   47.9290   33.3270   42.1950 C   0  0  0  0  0  0  0  0  0  0  0  0
   47.5710   33.0080   40.9330 N   0  0  0  0  0  0  0  0  0  0  0  0
   47.4970   33.5810   38.9330 H   0  0  0  0  0  0  0  0  0  0  0  0
   48.5860   35.7970   39.3630 H   0  0  0  0  0  0  0  0  0  0  0  0
   49.2290   36.3410   41.6910 H   0  0  0  0  0  0  0  0  0  0  0  0
   45.0750   29.4480   46.0910 C   0  0  0  0  0  0  0  0  0  0  0  0
   45.4710   28.2670   46.2450 O   0  0  0  0  0  0  0  0  0  0  0  0
   44.4340   29.3170   44.8050 C   0  0  0  0  0  0  0  0  0  0  0  0
   43.4290   28.4150   44.5670 C   0  0  0  0  0  0  0  0  0  0  0  0
   42.8710   27.6300   45.0680 H   0  0  0  0  0  0  0  0  0  0  0  0
   42.9980   28.5620   43.2750 N   0  0  0  0  0  0  0  0  0  0  0  0
   42.2680   28.0820   42.7130 H   0  0  0  0  0  0  0  0  0  0  0  0
   43.6960   29.5270   42.6850 C   0  0  0  0  0  0  0  0  0  0  0  0
   43.7280   29.9960   41.7070 H   0  0  0  0  0  0  0  0  0  0  0  0
   44.5130   29.9210   43.6320 N   0  0  0  0  0  0  0  0  0  0  0  0
  1  6  1  0  0  0  0
  1  7  1  1  0  0  0
  1  2  1  0  0  0  0
  2  8  1  0  0  0  0
  2  3  1  0  0  0  0
  3  4  1  0  0  0  0
  3 10  1  0  0  0  0
  4 12  1  0  0  0  0
  4 13  1  0  0  0  0
  5 15  1  0  0  0  0
  5 14  1  0  0  0  0
  5  4  1  0  0  0  0
  6 16  1  6  0  0  0
  6  5  1  0  0  0  0
  9  2  1  0  0  0  0
 11  3  1  0  0  0  0
 17 18  2  0  0  0  0
 17 21  1  0  0  0  0
 18 19  1  0  0  0  0
 19 23  1  0  0  0  0
 19 20  2  0  0  0  0
 20  1  1  0  0  0  0
 21 20  1  0  0  0  0
 22 18  1  0  0  0  0
 24 25  2  0  0  0  0
 24 29  1  0  0  0  0
 25 26  1  0  0  0  0
 26 32  1  0  0  0  0
 26 27  2  0  0  0  0
 28 27  1  0  0  0  0
 28 17  1  0  0  0  0
 29 28  2  0  0  0  0
 30 24  1  0  0  0  0
 31 25  1  0  0  0  0
 33 34  2  0  0  0  0
 33  6  1  0  0  0  0
 35 33  1  0  0  0  0
 36 35  2  0  0  0  0
 36 37  1  0  0  0  0
 38 36  1  0  0  0  0
 39 38  1  0  0  0  0
 40 38  1  0  0  0  0
 40 42  2  0  0  0  0
 41 40  1  0  0  0  0
 42 35  1  0  0  0  0
M  END
>  <minimizedAffinity>
-5.01530647

>  <minimizedRMSD>
5.69526529

$$$$
