
 OpenBabel03252508493D

 27 29  0  0  0  0  0  0  0  0999 V2000
   45.9810   34.1960   41.0450 C   0  0  0  0  0  0  0  0  0  0  0  0
   46.5610   34.8100   42.1480 C   0  0  0  0  0  0  0  0  0  0  0  0
   47.9000   35.1740   42.0260 C   0  0  0  0  0  0  0  0  0  0  0  0
   48.5490   34.9110   40.8580 N   0  0  0  0  0  0  0  0  0  0  0  0
   47.9520   34.3180   39.8210 C   0  0  0  0  0  0  0  0  0  0  0  0
   46.6570   33.9560   39.9120 N   0  0  0  0  0  0  0  0  0  0  0  0
   48.3690   35.6520   42.8730 H   0  0  0  0  0  0  0  0  0  0  0  0
   48.4550   34.1030   38.8870 H   0  0  0  0  0  0  0  0  0  0  0  0
   45.7740   35.0420   43.3460 C   0  0  0  0  0  0  0  0  0  0  0  0
   45.0850   36.2270   43.5680 C   0  0  0  0  0  0  0  0  0  0  0  0
   44.4880   36.0260   44.7980 C   0  0  0  0  0  0  0  0  0  0  0  0
   44.7960   34.7960   45.2910 N   0  0  0  0  0  0  0  0  0  0  0  0
   45.5710   34.2310   44.3910 N   0  0  0  0  0  0  0  0  0  0  0  0
   44.9990   37.1180   42.9670 H   0  0  0  0  0  0  0  0  0  0  0  0
   43.8560   36.7710   45.2920 H   0  0  0  0  0  0  0  0  0  0  0  0
   44.4700   34.3940   46.2100 H   0  0  0  0  0  0  0  0  0  0  0  0
   44.6520   33.8170   41.1250 O   0  0  0  0  0  0  0  0  0  0  0  0
   43.5710   34.4640   40.5970 C   0  0  0  0  0  0  0  0  0  0  0  0
   43.3020   35.7160   40.6790 O   0  0  0  0  0  0  0  0  0  0  0  0
   42.4990   33.7700   39.8170 C   0  0  0  0  0  0  0  0  0  0  0  0
   41.4530   33.0580   40.3580 C   0  0  0  0  0  0  0  0  0  0  0  0
   41.1860   32.8570   41.3850 H   0  0  0  0  0  0  0  0  0  0  0  0
   40.6600   32.5520   39.3770 N   0  0  0  0  0  0  0  0  0  0  0  0
   39.7990   31.9740   39.4560 H   0  0  0  0  0  0  0  0  0  0  0  0
   41.2450   32.9680   38.2430 C   0  0  0  0  0  0  0  0  0  0  0  0
   40.8720   32.7420   37.2460 H   0  0  0  0  0  0  0  0  0  0  0  0
   42.3430   33.6970   38.4890 N   0  0  0  0  0  0  0  0  0  0  0  0
  1 17  1  0  0  0  0
  1  2  1  0  0  0  0
  2  9  1  0  0  0  0
  3  2  2  0  0  0  0
  3  7  1  0  0  0  0
  4  3  1  0  0  0  0
  5  6  1  0  0  0  0
  5  4  2  0  0  0  0
  6  1  2  0  0  0  0
  8  5  1  0  0  0  0
  9 10  1  0  0  0  0
  9 13  2  0  0  0  0
 10 11  2  0  0  0  0
 11 12  1  0  0  0  0
 11 15  1  0  0  0  0
 12 16  1  0  0  0  0
 13 12  1  0  0  0  0
 14 10  1  0  0  0  0
 18 19  2  0  0  0  0
 18 17  1  0  0  0  0
 20 21  2  0  0  0  0
 20 18  1  0  0  0  0
 21 22  1  0  0  0  0
 23 24  1  0  0  0  0
 23 21  1  0  0  0  0
 25 27  2  0  0  0  0
 25 23  1  0  0  0  0
 26 25  1  0  0  0  0
 27 20  1  0  0  0  0
M  END
>  <minimizedAffinity>
-5.00815392

>  <minimizedRMSD>
0.445851445

$$$$
