
 OpenBabel03252508503D

 27 29  0  0  0  0  0  0  0  0999 V2000
   46.0840   34.1640   41.0110 C   0  0  0  0  0  0  0  0  0  0  0  0
   46.6160   34.8130   42.1190 C   0  0  0  0  0  0  0  0  0  0  0  0
   47.9370   35.2400   42.0160 C   0  0  0  0  0  0  0  0  0  0  0  0
   48.6180   35.0020   40.8610 N   0  0  0  0  0  0  0  0  0  0  0  0
   48.0680   34.3740   39.8180 C   0  0  0  0  0  0  0  0  0  0  0  0
   46.7910   33.9490   39.8910 N   0  0  0  0  0  0  0  0  0  0  0  0
   48.3690   35.7470   42.8670 H   0  0  0  0  0  0  0  0  0  0  0  0
   48.5960   34.1770   38.8940 H   0  0  0  0  0  0  0  0  0  0  0  0
   45.7990   35.0140   43.3020 C   0  0  0  0  0  0  0  0  0  0  0  0
   45.0540   36.1690   43.5070 C   0  0  0  0  0  0  0  0  0  0  0  0
   44.4460   35.9460   44.7270 C   0  0  0  0  0  0  0  0  0  0  0  0
   44.7980   34.7320   45.2300 N   0  0  0  0  0  0  0  0  0  0  0  0
   45.6130   34.1980   44.3470 N   0  0  0  0  0  0  0  0  0  0  0  0
   44.9400   37.0540   42.9010 H   0  0  0  0  0  0  0  0  0  0  0  0
   43.7740   36.6650   45.2070 H   0  0  0  0  0  0  0  0  0  0  0  0
   44.4740   34.3200   46.1460 H   0  0  0  0  0  0  0  0  0  0  0  0
   44.7740   33.7220   41.0720 O   0  0  0  0  0  0  0  0  0  0  0  0
   43.6950   34.2290   40.4070 C   0  0  0  0  0  0  0  0  0  0  0  0
   43.2670   35.4380   40.4350 O   0  0  0  0  0  0  0  0  0  0  0  0
   42.8190   33.4070   39.5150 C   0  0  0  0  0  0  0  0  0  0  0  0
   43.2350   32.7330   38.3900 C   0  0  0  0  0  0  0  0  0  0  0  0
   44.2100   32.6460   37.9320 H   0  0  0  0  0  0  0  0  0  0  0  0
   42.1920   32.0860   37.8060 N   0  0  0  0  0  0  0  0  0  0  0  0
   42.1760   31.4960   36.9500 H   0  0  0  0  0  0  0  0  0  0  0  0
   41.1470   32.3820   38.5940 C   0  0  0  0  0  0  0  0  0  0  0  0
   40.1330   32.0270   38.4210 H   0  0  0  0  0  0  0  0  0  0  0  0
   41.5050   33.1690   39.6180 N   0  0  0  0  0  0  0  0  0  0  0  0
  1 17  1  0  0  0  0
  1  2  1  0  0  0  0
  2  9  1  0  0  0  0
  3  2  2  0  0  0  0
  3  7  1  0  0  0  0
  4  3  1  0  0  0  0
  5  6  1  0  0  0  0
  5  4  2  0  0  0  0
  6  1  2  0  0  0  0
  8  5  1  0  0  0  0
  9 10  1  0  0  0  0
  9 13  2  0  0  0  0
 10 11  2  0  0  0  0
 11 15  1  0  0  0  0
 11 12  1  0  0  0  0
 12 16  1  0  0  0  0
 13 12  1  0  0  0  0
 14 10  1  0  0  0  0
 18 19  2  0  0  0  0
 18 17  1  0  0  0  0
 20 27  1  0  0  0  0
 20 18  1  0  0  0  0
 21 20  2  0  0  0  0
 22 21  1  0  0  0  0
 23 21  1  0  0  0  0
 23 25  1  0  0  0  0
 24 23  1  0  0  0  0
 25 27  2  0  0  0  0
 26 25  1  0  0  0  0
M  END
>  <minimizedAffinity>
-4.97237444

>  <minimizedRMSD>
0.0768511519

$$$$
