
 OpenBabel03252504013D

 33 36  0  0  0  0  0  0  0  0999 V2000
   38.5120   31.8980   40.5360 C   0  0  0  0  0  0  0  0  0  0  0  0
   37.1330   32.0790   40.4090 C   0  0  0  0  0  0  0  0  0  0  0  0
   36.3100   31.0560   40.8400 C   0  0  0  0  0  0  0  0  0  0  0  0
   36.8720   29.9370   41.3590 N   0  0  0  0  0  0  0  0  0  0  0  0
   38.2190   29.7930   41.4690 C   0  0  0  0  0  0  0  0  0  0  0  0
   39.0350   30.7740   41.0570 N   0  0  0  0  0  0  0  0  0  0  0  0
   36.7270   32.9930   39.9870 H   0  0  0  0  0  0  0  0  0  0  0  0
   35.2260   31.1600   40.7560 H   0  0  0  0  0  0  0  0  0  0  0  0
   39.9410   28.7170   42.8160 C   0  0  0  0  0  0  0  0  0  0  0  0
   38.8160   28.5840   42.0300 C   0  0  0  0  0  0  0  0  0  0  0  0
   38.3080   27.3310   41.8060 C   0  0  0  0  0  0  0  0  0  0  0  0
   38.9110   26.2270   42.3590 C   0  0  0  0  0  0  0  0  0  0  0  0
   38.6400   24.9040   42.3150 N   0  0  0  0  0  0  0  0  0  0  0  0
   39.5490   24.2160   43.0400 C   0  0  0  0  0  0  0  0  0  0  0  0
   40.4510   25.1200   43.5820 C   0  0  0  0  0  0  0  0  0  0  0  0
   40.0520   26.3660   43.1580 C   0  0  0  0  0  0  0  0  0  0  0  0
   40.5610   27.6230   43.3810 C   0  0  0  0  0  0  0  0  0  0  0  0
   40.3430   29.7060   42.9920 H   0  0  0  0  0  0  0  0  0  0  0  0
   37.4380   27.2640   41.1930 H   0  0  0  0  0  0  0  0  0  0  0  0
   37.8310   24.4790   41.7850 H   0  0  0  0  0  0  0  0  0  0  0  0
   39.6190   23.1530   43.2090 H   0  0  0  0  0  0  0  0  0  0  0  0
   41.3110   24.9370   44.2160 H   0  0  0  0  0  0  0  0  0  0  0  0
   41.4470   27.7890   43.9940 H   0  0  0  0  0  0  0  0  0  0  0  0
   39.3410   32.9950   40.0730 C   0  0  0  0  0  0  0  0  0  0  0  0
   39.4320   34.1270   40.6710 O   0  0  0  0  0  0  0  0  0  0  0  0
   40.1370   32.8250   38.8430 C   0  0  0  0  0  0  0  0  0  0  0  0
   39.7490   32.0160   37.7730 C   0  0  0  0  0  0  0  0  0  0  0  0
   38.8590   31.4110   37.6590 H   0  0  0  0  0  0  0  0  0  0  0  0
   40.7570   32.1640   36.8960 N   0  0  0  0  0  0  0  0  0  0  0  0
   40.7810   31.6800   35.9620 H   0  0  0  0  0  0  0  0  0  0  0  0
   41.7130   32.9920   37.3540 C   0  0  0  0  0  0  0  0  0  0  0  0
   42.6150   33.2320   36.7700 H   0  0  0  0  0  0  0  0  0  0  0  0
   41.3100   33.3960   38.5700 N   0  0  0  0  0  0  0  0  0  0  0  0
  1  6  1  0  0  0  0
  2  1  2  0  0  0  0
  2  3  1  0  0  0  0
  3  4  2  0  0  0  0
  4  5  1  0  0  0  0
  5 10  1  0  0  0  0
  6  5  2  0  0  0  0
  7  2  1  0  0  0  0
  8  3  1  0  0  0  0
  9 18  1  0  0  0  0
  9 17  1  0  0  0  0
 10  9  2  0  0  0  0
 11 10  1  0  0  0  0
 11 12  2  0  0  0  0
 12 16  1  0  0  0  0
 13 12  1  0  0  0  0
 13 14  1  0  0  0  0
 14 21  1  0  0  0  0
 14 15  2  0  0  0  0
 15 22  1  0  0  0  0
 16 17  2  0  0  0  0
 16 15  1  0  0  0  0
 17 23  1  0  0  0  0
 19 11  1  0  0  0  0
 20 13  1  0  0  0  0
 24  1  1  0  0  0  0
 24 25  2  0  0  0  0
 26 24  1  0  0  0  0
 27 26  2  0  0  0  0
 28 27  1  0  0  0  0
 29 31  1  0  0  0  0
 29 27  1  0  0  0  0
 30 29  1  0  0  0  0
 31 33  2  0  0  0  0
 32 31  1  0  0  0  0
 33 26  1  0  0  0  0
M  END
>  <minimizedAffinity>
-5.87950706

$$$$

 OpenBabel03252504013D

 33 36  0  0  0  0  0  0  0  0999 V2000
   33.4200   28.8880   36.8060 C   0  0  0  0  0  0  0  0  0  0  0  0
   34.1860   29.2400   35.6930 C   0  0  0  0  0  0  0  0  0  0  0  0
   35.5600   29.2520   35.8380 C   0  0  0  0  0  0  0  0  0  0  0  0
   36.0960   28.9280   37.0410 N   0  0  0  0  0  0  0  0  0  0  0  0
   35.3200   28.5900   38.1050 C   0  0  0  0  0  0  0  0  0  0  0  0
   33.9850   28.5710   37.9840 N   0  0  0  0  0  0  0  0  0  0  0  0
   33.7140   29.4920   34.7480 H   0  0  0  0  0  0  0  0  0  0  0  0
   36.1930   29.5230   34.9900 H   0  0  0  0  0  0  0  0  0  0  0  0
   36.3670   26.9550   39.5770 C   0  0  0  0  0  0  0  0  0  0  0  0
   35.9050   28.2410   39.3970 C   0  0  0  0  0  0  0  0  0  0  0  0
   36.0120   29.1350   40.4310 C   0  0  0  0  0  0  0  0  0  0  0  0
   36.5720   28.7520   41.6250 C   0  0  0  0  0  0  0  0  0  0  0  0
   36.8040   29.3990   42.7890 N   0  0  0  0  0  0  0  0  0  0  0  0
   37.3890   28.5670   43.6780 C   0  0  0  0  0  0  0  0  0  0  0  0
   37.5480   27.3270   43.0770 C   0  0  0  0  0  0  0  0  0  0  0  0
   37.0410   27.4450   41.8040 C   0  0  0  0  0  0  0  0  0  0  0  0
   36.9330   26.5510   40.7680 C   0  0  0  0  0  0  0  0  0  0  0  0
   36.2820   26.2490   38.7610 H   0  0  0  0  0  0  0  0  0  0  0  0
   35.6440   30.1210   40.2580 H   0  0  0  0  0  0  0  0  0  0  0  0
   36.5580   30.4110   42.9680 H   0  0  0  0  0  0  0  0  0  0  0  0
   37.7020   28.7670   44.6910 H   0  0  0  0  0  0  0  0  0  0  0  0
   37.9770   26.4170   43.4810 H   0  0  0  0  0  0  0  0  0  0  0  0
   37.2810   25.5210   40.8520 H   0  0  0  0  0  0  0  0  0  0  0  0
   31.9820   28.8860   36.6120 C   0  0  0  0  0  0  0  0  0  0  0  0
   31.3370   27.9330   36.0450 O   0  0  0  0  0  0  0  0  0  0  0  0
   31.1920   30.0380   37.0860 C   0  0  0  0  0  0  0  0  0  0  0  0
   30.5900   30.1020   38.3450 C   0  0  0  0  0  0  0  0  0  0  0  0
   30.5930   29.3710   39.1430 H   0  0  0  0  0  0  0  0  0  0  0  0
   29.9930   31.3060   38.3370 N   0  0  0  0  0  0  0  0  0  0  0  0
   29.4380   31.6760   39.1520 H   0  0  0  0  0  0  0  0  0  0  0  0
   30.1880   31.9650   37.1810 C   0  0  0  0  0  0  0  0  0  0  0  0
   29.7710   32.9670   36.9950 H   0  0  0  0  0  0  0  0  0  0  0  0
   30.9380   31.1590   36.4110 N   0  0  0  0  0  0  0  0  0  0  0  0
  1  6  1  0  0  0  0
  2  3  1  0  0  0  0
  2  1  2  0  0  0  0
  3  4  2  0  0  0  0
  4  5  1  0  0  0  0
  5 10  1  0  0  0  0
  6  5  2  0  0  0  0
  7  2  1  0  0  0  0
  8  3  1  0  0  0  0
  9 17  1  0  0  0  0
 10  9  2  0  0  0  0
 10 11  1  0  0  0  0
 11 12  2  0  0  0  0
 12 16  1  0  0  0  0
 12 13  1  0  0  0  0
 13 20  1  0  0  0  0
 13 14  1  0  0  0  0
 14 21  1  0  0  0  0
 15 22  1  0  0  0  0
 15 14  2  0  0  0  0
 16 15  1  0  0  0  0
 17 23  1  0  0  0  0
 17 16  2  0  0  0  0
 18  9  1  0  0  0  0
 19 11  1  0  0  0  0
 24  1  1  0  0  0  0
 24 26  1  0  0  0  0
 25 24  2  0  0  0  0
 26 27  2  0  0  0  0
 27 28  1  0  0  0  0
 29 27  1  0  0  0  0
 29 30  1  0  0  0  0
 31 29  1  0  0  0  0
 32 31  1  0  0  0  0
 33 26  1  0  0  0  0
 33 31  2  0  0  0  0
M  END
>  <minimizedAffinity>
-5.7905345

$$$$

 OpenBabel03252504013D

 33 36  0  0  0  0  0  0  0  0999 V2000
   38.7160   29.6670   41.2450 C   0  0  0  0  0  0  0  0  0  0  0  0
   38.6930   29.9040   42.6200 C   0  0  0  0  0  0  0  0  0  0  0  0
   38.1250   28.9380   43.4280 C   0  0  0  0  0  0  0  0  0  0  0  0
   37.6220   27.8170   42.8550 N   0  0  0  0  0  0  0  0  0  0  0  0
   37.6620   27.6170   41.5110 C   0  0  0  0  0  0  0  0  0  0  0  0
   38.2080   28.5430   40.7100 N   0  0  0  0  0  0  0  0  0  0  0  0
   39.1080   30.8170   43.0350 H   0  0  0  0  0  0  0  0  0  0  0  0
   38.0880   29.0880   44.5090 H   0  0  0  0  0  0  0  0  0  0  0  0
   37.0880   25.2530   41.6570 C   0  0  0  0  0  0  0  0  0  0  0  0
   37.1170   26.4060   40.9010 C   0  0  0  0  0  0  0  0  0  0  0  0
   36.6380   26.3700   39.6180 C   0  0  0  0  0  0  0  0  0  0  0  0
   36.1370   25.2020   39.0960 C   0  0  0  0  0  0  0  0  0  0  0  0
   35.6100   24.8750   37.8950 N   0  0  0  0  0  0  0  0  0  0  0  0
   35.2580   23.5710   37.8790 C   0  0  0  0  0  0  0  0  0  0  0  0
   35.5630   23.0190   39.1140 C   0  0  0  0  0  0  0  0  0  0  0  0
   36.1080   24.0330   39.8670 C   0  0  0  0  0  0  0  0  0  0  0  0
   36.5890   24.0720   41.1530 C   0  0  0  0  0  0  0  0  0  0  0  0
   37.4670   25.2820   42.6710 H   0  0  0  0  0  0  0  0  0  0  0  0
   36.6760   27.2780   39.0610 H   0  0  0  0  0  0  0  0  0  0  0  0
   35.4950   25.5500   37.0910 H   0  0  0  0  0  0  0  0  0  0  0  0
   34.8130   22.9980   37.0800 H   0  0  0  0  0  0  0  0  0  0  0  0
   35.4240   22.0040   39.4670 H   0  0  0  0  0  0  0  0  0  0  0  0
   36.5920   23.1920   41.7970 H   0  0  0  0  0  0  0  0  0  0  0  0
   39.3210   30.7060   40.4310 C   0  0  0  0  0  0  0  0  0  0  0  0
   40.4430   30.5770   39.8230 O   0  0  0  0  0  0  0  0  0  0  0  0
   38.6240   31.9970   40.2790 C   0  0  0  0  0  0  0  0  0  0  0  0
   37.2470   32.1160   40.0780 C   0  0  0  0  0  0  0  0  0  0  0  0
   36.4960   31.3410   40.0030 H   0  0  0  0  0  0  0  0  0  0  0  0
   37.0640   33.4460   39.9990 N   0  0  0  0  0  0  0  0  0  0  0  0
   36.1200   33.8870   39.8460 H   0  0  0  0  0  0  0  0  0  0  0  0
   38.2150   34.1280   40.1350 C   0  0  0  0  0  0  0  0  0  0  0  0
   38.2570   35.2270   40.0970 H   0  0  0  0  0  0  0  0  0  0  0  0
   39.1780   33.2080   40.3100 N   0  0  0  0  0  0  0  0  0  0  0  0
  1  2  1  0  0  0  0
  2  7  1  0  0  0  0
  2  3  2  0  0  0  0
  3  8  1  0  0  0  0
  4  3  1  0  0  0  0
  5  4  2  0  0  0  0
  6  1  2  0  0  0  0
  6  5  1  0  0  0  0
  9 18  1  0  0  0  0
 10  5  1  0  0  0  0
 10  9  2  0  0  0  0
 11 10  1  0  0  0  0
 12 11  2  0  0  0  0
 12 16  1  0  0  0  0
 13 12  1  0  0  0  0
 14 13  1  0  0  0  0
 14 15  2  0  0  0  0
 15 22  1  0  0  0  0
 15 16  1  0  0  0  0
 16 17  2  0  0  0  0
 17  9  1  0  0  0  0
 17 23  1  0  0  0  0
 19 11  1  0  0  0  0
 20 13  1  0  0  0  0
 21 14  1  0  0  0  0
 24  1  1  0  0  0  0
 25 24  2  0  0  0  0
 26 33  1  0  0  0  0
 26 24  1  0  0  0  0
 27 26  2  0  0  0  0
 28 27  1  0  0  0  0
 29 27  1  0  0  0  0
 29 31  1  0  0  0  0
 30 29  1  0  0  0  0
 31 33  2  0  0  0  0
 32 31  1  0  0  0  0
M  END
>  <minimizedAffinity>
-5.77468967

$$$$

 OpenBabel03252504013D

 33 36  0  0  0  0  0  0  0  0999 V2000
   38.4960   30.7050   40.8950 C   0  0  0  0  0  0  0  0  0  0  0  0
   39.3020   30.9200   42.0150 C   0  0  0  0  0  0  0  0  0  0  0  0
   39.5440   29.8440   42.8470 C   0  0  0  0  0  0  0  0  0  0  0  0
   38.9930   28.6430   42.5440 N   0  0  0  0  0  0  0  0  0  0  0  0
   38.2130   28.4680   41.4440 C   0  0  0  0  0  0  0  0  0  0  0  0
   37.9660   29.4990   40.6240 N   0  0  0  0  0  0  0  0  0  0  0  0
   39.7220   31.9000   42.2190 H   0  0  0  0  0  0  0  0  0  0  0  0
   40.1690   29.9740   43.7330 H   0  0  0  0  0  0  0  0  0  0  0  0
   37.6250   26.1960   42.1000 C   0  0  0  0  0  0  0  0  0  0  0  0
   37.6240   27.1700   41.1240 C   0  0  0  0  0  0  0  0  0  0  0  0
   37.0760   26.8820   39.9020 C   0  0  0  0  0  0  0  0  0  0  0  0
   36.5360   25.6440   39.6560 C   0  0  0  0  0  0  0  0  0  0  0  0
   35.9410   25.0900   38.5760 N   0  0  0  0  0  0  0  0  0  0  0  0
   35.5750   23.8170   38.8440 C   0  0  0  0  0  0  0  0  0  0  0  0
   35.9420   23.5230   40.1490 C   0  0  0  0  0  0  0  0  0  0  0  0
   36.5370   24.6570   40.6500 C   0  0  0  0  0  0  0  0  0  0  0  0
   37.0870   24.9470   41.8750 C   0  0  0  0  0  0  0  0  0  0  0  0
   38.0590   26.4230   43.0660 H   0  0  0  0  0  0  0  0  0  0  0  0
   37.0930   27.6580   39.1700 H   0  0  0  0  0  0  0  0  0  0  0  0
   35.7890   25.5900   37.6570 H   0  0  0  0  0  0  0  0  0  0  0  0
   35.0820   23.1030   38.2040 H   0  0  0  0  0  0  0  0  0  0  0  0
   35.8110   22.6040   40.7090 H   0  0  0  0  0  0  0  0  0  0  0  0
   37.1160   24.2170   42.6840 H   0  0  0  0  0  0  0  0  0  0  0  0
   38.2670   31.8590   40.0460 C   0  0  0  0  0  0  0  0  0  0  0  0
   37.3440   32.7260   40.2490 O   0  0  0  0  0  0  0  0  0  0  0  0
   39.1350   32.0710   38.8730 C   0  0  0  0  0  0  0  0  0  0  0  0
   38.7350   31.8270   37.5570 C   0  0  0  0  0  0  0  0  0  0  0  0
   37.7860   31.4640   37.1850 H   0  0  0  0  0  0  0  0  0  0  0  0
   39.8250   32.1530   36.8410 N   0  0  0  0  0  0  0  0  0  0  0  0
   39.8640   32.0840   35.7910 H   0  0  0  0  0  0  0  0  0  0  0  0
   40.8400   32.5720   37.6180 C   0  0  0  0  0  0  0  0  0  0  0  0
   41.8120   32.8810   37.2040 H   0  0  0  0  0  0  0  0  0  0  0  0
   40.3920   32.5140   38.8830 N   0  0  0  0  0  0  0  0  0  0  0  0
  1  2  1  0  0  0  0
  2  7  1  0  0  0  0
  2  3  2  0  0  0  0
  3  8  1  0  0  0  0
  4  3  1  0  0  0  0
  5  4  2  0  0  0  0
  6  1  2  0  0  0  0
  6  5  1  0  0  0  0
  9 18  1  0  0  0  0
 10  5  1  0  0  0  0
 10  9  2  0  0  0  0
 11 10  1  0  0  0  0
 12 11  2  0  0  0  0
 12 16  1  0  0  0  0
 13 14  1  0  0  0  0
 13 12  1  0  0  0  0
 14 15  2  0  0  0  0
 15 16  1  0  0  0  0
 15 22  1  0  0  0  0
 16 17  2  0  0  0  0
 17  9  1  0  0  0  0
 17 23  1  0  0  0  0
 19 11  1  0  0  0  0
 20 13  1  0  0  0  0
 21 14  1  0  0  0  0
 24 25  2  0  0  0  0
 24  1  1  0  0  0  0
 26 33  1  0  0  0  0
 26 24  1  0  0  0  0
 27 26  2  0  0  0  0
 28 27  1  0  0  0  0
 29 27  1  0  0  0  0
 29 31  1  0  0  0  0
 30 29  1  0  0  0  0
 31 33  2  0  0  0  0
 32 31  1  0  0  0  0
M  END
>  <minimizedAffinity>
-5.60970068

$$$$

 OpenBabel03252504013D

 33 36  0  0  0  0  0  0  0  0999 V2000
   36.9110   28.6260   41.4730 C   0  0  0  0  0  0  0  0  0  0  0  0
   35.6480   28.7510   40.8900 C   0  0  0  0  0  0  0  0  0  0  0  0
   35.4690   29.7580   39.9610 C   0  0  0  0  0  0  0  0  0  0  0  0
   36.5130   30.5690   39.6620 N   0  0  0  0  0  0  0  0  0  0  0  0
   37.7300   30.4180   40.2480 C   0  0  0  0  0  0  0  0  0  0  0  0
   37.9260   29.4480   41.1520 N   0  0  0  0  0  0  0  0  0  0  0  0
   34.8400   28.0790   41.1610 H   0  0  0  0  0  0  0  0  0  0  0  0
   34.4950   29.8880   39.4840 H   0  0  0  0  0  0  0  0  0  0  0  0
   39.5510   31.8740   40.9560 C   0  0  0  0  0  0  0  0  0  0  0  0
   38.8510   31.2960   39.9190 C   0  0  0  0  0  0  0  0  0  0  0  0
   39.2290   31.5680   38.6310 C   0  0  0  0  0  0  0  0  0  0  0  0
   40.2920   32.4020   38.3790 C   0  0  0  0  0  0  0  0  0  0  0  0
   40.8780   32.8400   37.2430 N   0  0  0  0  0  0  0  0  0  0  0  0
   41.9090   33.6620   37.5350 C   0  0  0  0  0  0  0  0  0  0  0  0
   42.0060   33.7680   38.9150 C   0  0  0  0  0  0  0  0  0  0  0  0
   41.0020   32.9860   39.4350 C   0  0  0  0  0  0  0  0  0  0  0  0
   40.6210   32.7130   40.7260 C   0  0  0  0  0  0  0  0  0  0  0  0
   39.2520   31.6600   41.9740 H   0  0  0  0  0  0  0  0  0  0  0  0
   38.6660   31.1060   37.8520 H   0  0  0  0  0  0  0  0  0  0  0  0
   40.5660   32.5710   36.2700 H   0  0  0  0  0  0  0  0  0  0  0  0
   42.5790   34.1760   36.8640 H   0  0  0  0  0  0  0  0  0  0  0  0
   42.7090   34.3370   39.5130 H   0  0  0  0  0  0  0  0  0  0  0  0
   41.1370   33.1410   41.5860 H   0  0  0  0  0  0  0  0  0  0  0  0
   37.0590   27.5560   42.4430 C   0  0  0  0  0  0  0  0  0  0  0  0
   36.7210   27.6560   43.6760 O   0  0  0  0  0  0  0  0  0  0  0  0
   37.6300   26.2670   42.0090 C   0  0  0  0  0  0  0  0  0  0  0  0
   36.9660   25.0440   42.1290 C   0  0  0  0  0  0  0  0  0  0  0  0
   35.9840   24.8340   42.5330 H   0  0  0  0  0  0  0  0  0  0  0  0
   37.8470   24.1670   41.6170 N   0  0  0  0  0  0  0  0  0  0  0  0
   37.6570   23.1330   41.5540 H   0  0  0  0  0  0  0  0  0  0  0  0
   38.9780   24.7640   41.2010 C   0  0  0  0  0  0  0  0  0  0  0  0
   39.8120   24.2010   40.7530 H   0  0  0  0  0  0  0  0  0  0  0  0
   38.8260   26.0740   41.4530 N   0  0  0  0  0  0  0  0  0  0  0  0
  1 24  1  0  0  0  0
  2  7  1  0  0  0  0
  2  1  2  0  0  0  0
  3  2  1  0  0  0  0
  4  3  2  0  0  0  0
  4  5  1  0  0  0  0
  5  6  2  0  0  0  0
  6  1  1  0  0  0  0
  8  3  1  0  0  0  0
  9 18  1  0  0  0  0
 10  5  1  0  0  0  0
 10  9  2  0  0  0  0
 11 10  1  0  0  0  0
 12 11  2  0  0  0  0
 12 16  1  0  0  0  0
 13 14  1  0  0  0  0
 13 12  1  0  0  0  0
 14 15  2  0  0  0  0
 15 16  1  0  0  0  0
 15 22  1  0  0  0  0
 16 17  2  0  0  0  0
 17  9  1  0  0  0  0
 17 23  1  0  0  0  0
 19 11  1  0  0  0  0
 20 13  1  0  0  0  0
 21 14  1  0  0  0  0
 24 25  2  0  0  0  0
 26 27  2  0  0  0  0
 26 24  1  0  0  0  0
 27 28  1  0  0  0  0
 29 27  1  0  0  0  0
 30 29  1  0  0  0  0
 31 33  2  0  0  0  0
 31 29  1  0  0  0  0
 32 31  1  0  0  0  0
 33 26  1  0  0  0  0
M  END
>  <minimizedAffinity>
-5.44132185

$$$$

 OpenBabel03252504013D

 33 36  0  0  0  0  0  0  0  0999 V2000
   37.0950   29.1040   41.2510 C   0  0  0  0  0  0  0  0  0  0  0  0
   36.5470   27.9720   41.8580 C   0  0  0  0  0  0  0  0  0  0  0  0
   37.3300   27.2920   42.7710 C   0  0  0  0  0  0  0  0  0  0  0  0
   38.5790   27.7480   43.0320 N   0  0  0  0  0  0  0  0  0  0  0  0
   39.0820   28.8550   42.4240 C   0  0  0  0  0  0  0  0  0  0  0  0
   38.3390   29.5290   41.5360 N   0  0  0  0  0  0  0  0  0  0  0  0
   35.5410   27.6430   41.6170 H   0  0  0  0  0  0  0  0  0  0  0  0
   36.9360   26.4010   43.2650 H   0  0  0  0  0  0  0  0  0  0  0  0
   41.3950   28.4170   43.0540 C   0  0  0  0  0  0  0  0  0  0  0  0
   40.4300   29.3400   42.7130 C   0  0  0  0  0  0  0  0  0  0  0  0
   40.7700   30.6660   42.6600 C   0  0  0  0  0  0  0  0  0  0  0  0
   42.0540   31.0660   42.9420 C   0  0  0  0  0  0  0  0  0  0  0  0
   42.6640   32.2720   42.9680 N   0  0  0  0  0  0  0  0  0  0  0  0
   43.9630   32.1310   43.3100 C   0  0  0  0  0  0  0  0  0  0  0  0
   44.2180   30.7830   43.5150 C   0  0  0  0  0  0  0  0  0  0  0  0
   43.0320   30.1260   43.2860 C   0  0  0  0  0  0  0  0  0  0  0  0
   42.6890   28.7960   43.3390 C   0  0  0  0  0  0  0  0  0  0  0  0
   41.1260   27.3690   43.0960 H   0  0  0  0  0  0  0  0  0  0  0  0
   39.9990   31.3540   42.3940 H   0  0  0  0  0  0  0  0  0  0  0  0
   42.1840   33.1880   42.7510 H   0  0  0  0  0  0  0  0  0  0  0  0
   44.7220   32.8900   43.4210 H   0  0  0  0  0  0  0  0  0  0  0  0
   45.1420   30.2940   43.8000 H   0  0  0  0  0  0  0  0  0  0  0  0
   43.4090   28.0220   43.6010 H   0  0  0  0  0  0  0  0  0  0  0  0
   36.2420   29.7910   40.3000 C   0  0  0  0  0  0  0  0  0  0  0  0
   34.9760   29.6030   40.2070 O   0  0  0  0  0  0  0  0  0  0  0  0
   36.8410   30.7680   39.3720 C   0  0  0  0  0  0  0  0  0  0  0  0
   37.0460   32.1130   39.6870 C   0  0  0  0  0  0  0  0  0  0  0  0
   36.8180   32.6450   40.6010 H   0  0  0  0  0  0  0  0  0  0  0  0
   37.6030   32.6070   38.5670 N   0  0  0  0  0  0  0  0  0  0  0  0
   37.8890   33.6160   38.4650 H   0  0  0  0  0  0  0  0  0  0  0  0
   37.7480   31.6710   37.6130 C   0  0  0  0  0  0  0  0  0  0  0  0
   38.1870   31.8950   36.6290 H   0  0  0  0  0  0  0  0  0  0  0  0
   37.2680   30.5290   38.1320 N   0  0  0  0  0  0  0  0  0  0  0  0
  1  6  2  0  0  0  0
  1  2  1  0  0  0  0
  2  3  2  0  0  0  0
  3  4  1  0  0  0  0
  3  8  1  0  0  0  0
  5 10  1  0  0  0  0
  5  4  2  0  0  0  0
  6  5  1  0  0  0  0
  7  2  1  0  0  0  0
  9 18  1  0  0  0  0
  9 17  1  0  0  0  0
 10  9  2  0  0  0  0
 11 10  1  0  0  0  0
 11 12  2  0  0  0  0
 12 13  1  0  0  0  0
 12 16  1  0  0  0  0
 13 14  1  0  0  0  0
 14 21  1  0  0  0  0
 14 15  2  0  0  0  0
 15 22  1  0  0  0  0
 16 17  2  0  0  0  0
 16 15  1  0  0  0  0
 17 23  1  0  0  0  0
 19 11  1  0  0  0  0
 20 13  1  0  0  0  0
 24  1  1  0  0  0  0
 25 24  2  0  0  0  0
 26 27  2  0  0  0  0
 26 24  1  0  0  0  0
 27 28  1  0  0  0  0
 29 27  1  0  0  0  0
 30 29  1  0  0  0  0
 31 33  2  0  0  0  0
 31 29  1  0  0  0  0
 32 31  1  0  0  0  0
 33 26  1  0  0  0  0
M  END
>  <minimizedAffinity>
-5.42045307

$$$$

 OpenBabel03252504013D

 33 36  0  0  0  0  0  0  0  0999 V2000
   38.5830   30.1090   41.9970 C   0  0  0  0  0  0  0  0  0  0  0  0
   38.4770   29.4480   43.2220 C   0  0  0  0  0  0  0  0  0  0  0  0
   37.5030   28.4750   43.3440 C   0  0  0  0  0  0  0  0  0  0  0  0
   36.7030   28.2120   42.2810 N   0  0  0  0  0  0  0  0  0  0  0  0
   36.8340   28.8740   41.1010 C   0  0  0  0  0  0  0  0  0  0  0  0
   37.7730   29.8210   40.9630 N   0  0  0  0  0  0  0  0  0  0  0  0
   39.1400   29.6920   44.0460 H   0  0  0  0  0  0  0  0  0  0  0  0
   37.3890   27.9370   44.2870 H   0  0  0  0  0  0  0  0  0  0  0  0
   34.7590   29.2400   39.8770 C   0  0  0  0  0  0  0  0  0  0  0  0
   35.9680   28.5830   39.9610 C   0  0  0  0  0  0  0  0  0  0  0  0
   36.3060   27.6880   38.9800 C   0  0  0  0  0  0  0  0  0  0  0  0
   35.4530   27.4530   37.9300 C   0  0  0  0  0  0  0  0  0  0  0  0
   35.5170   26.6500   36.8450 N   0  0  0  0  0  0  0  0  0  0  0  0
   34.4000   26.7840   36.0960 C   0  0  0  0  0  0  0  0  0  0  0  0
   33.5710   27.7100   36.7100 C   0  0  0  0  0  0  0  0  0  0  0  0
   34.2260   28.1240   37.8470 C   0  0  0  0  0  0  0  0  0  0  0  0
   33.8890   29.0200   38.8320 C   0  0  0  0  0  0  0  0  0  0  0  0
   34.4920   29.9460   40.6530 H   0  0  0  0  0  0  0  0  0  0  0  0
   37.2480   27.1970   39.0760 H   0  0  0  0  0  0  0  0  0  0  0  0
   36.3300   26.0110   36.6240 H   0  0  0  0  0  0  0  0  0  0  0  0
   34.1380   26.2890   35.1740 H   0  0  0  0  0  0  0  0  0  0  0  0
   32.5960   28.0710   36.4020 H   0  0  0  0  0  0  0  0  0  0  0  0
   32.9470   29.5690   38.8180 H   0  0  0  0  0  0  0  0  0  0  0  0
   39.6180   31.1220   41.9100 C   0  0  0  0  0  0  0  0  0  0  0  0
   40.6790   31.1270   42.6310 O   0  0  0  0  0  0  0  0  0  0  0  0
   39.4660   32.2230   40.9390 C   0  0  0  0  0  0  0  0  0  0  0  0
   40.1090   32.2600   39.7000 C   0  0  0  0  0  0  0  0  0  0  0  0
   40.7860   31.5410   39.2580 H   0  0  0  0  0  0  0  0  0  0  0  0
   39.6830   33.4190   39.1700 N   0  0  0  0  0  0  0  0  0  0  0  0
   39.9840   33.7610   38.2200 H   0  0  0  0  0  0  0  0  0  0  0  0
   38.8420   34.0760   39.9880 C   0  0  0  0  0  0  0  0  0  0  0  0
   38.3930   35.0450   39.7190 H   0  0  0  0  0  0  0  0  0  0  0  0
   38.7170   33.3150   41.0880 N   0  0  0  0  0  0  0  0  0  0  0  0
  1  2  1  0  0  0  0
  2  3  2  0  0  0  0
  2  7  1  0  0  0  0
  3  8  1  0  0  0  0
  4  3  1  0  0  0  0
  5  4  2  0  0  0  0
  6  5  1  0  0  0  0
  6  1  2  0  0  0  0
  9 10  1  0  0  0  0
  9 18  1  0  0  0  0
 10  5  1  0  0  0  0
 11 19  1  0  0  0  0
 11 10  2  0  0  0  0
 12 11  1  0  0  0  0
 13 12  1  0  0  0  0
 14 15  2  0  0  0  0
 14 13  1  0  0  0  0
 15 16  1  0  0  0  0
 16 12  2  0  0  0  0
 16 17  1  0  0  0  0
 17  9  2  0  0  0  0
 20 13  1  0  0  0  0
 21 14  1  0  0  0  0
 22 15  1  0  0  0  0
 23 17  1  0  0  0  0
 24  1  1  0  0  0  0
 24 25  2  0  0  0  0
 26 33  1  0  0  0  0
 26 24  1  0  0  0  0
 27 26  2  0  0  0  0
 28 27  1  0  0  0  0
 29 27  1  0  0  0  0
 29 31  1  0  0  0  0
 30 29  1  0  0  0  0
 31 33  2  0  0  0  0
 32 31  1  0  0  0  0
M  END
>  <minimizedAffinity>
-5.41445541

$$$$

 OpenBabel03252504013D

 33 36  0  0  0  0  0  0  0  0999 V2000
   38.1590   26.5450   41.6230 C   0  0  0  0  0  0  0  0  0  0  0  0
   37.2800   26.2230   42.6590 C   0  0  0  0  0  0  0  0  0  0  0  0
   36.5940   27.2590   43.2630 C   0  0  0  0  0  0  0  0  0  0  0  0
   36.8040   28.5260   42.8290 N   0  0  0  0  0  0  0  0  0  0  0  0
   37.6670   28.8050   41.8160 C   0  0  0  0  0  0  0  0  0  0  0  0
   38.3420   27.8140   41.2170 N   0  0  0  0  0  0  0  0  0  0  0  0
   37.1440   25.1930   42.9740 H   0  0  0  0  0  0  0  0  0  0  0  0
   35.8980   27.0460   44.0770 H   0  0  0  0  0  0  0  0  0  0  0  0
   36.8490   30.8200   40.7160 C   0  0  0  0  0  0  0  0  0  0  0  0
   37.8860   30.1740   41.3540 C   0  0  0  0  0  0  0  0  0  0  0  0
   39.0740   30.8350   41.5260 C   0  0  0  0  0  0  0  0  0  0  0  0
   39.2250   32.1230   41.0710 C   0  0  0  0  0  0  0  0  0  0  0  0
   40.2510   33.0020   41.1000 N   0  0  0  0  0  0  0  0  0  0  0  0
   39.8900   34.1610   40.5080 C   0  0  0  0  0  0  0  0  0  0  0  0
   38.5780   34.0420   40.0750 C   0  0  0  0  0  0  0  0  0  0  0  0
   38.1680   32.7770   40.4250 C   0  0  0  0  0  0  0  0  0  0  0  0
   36.9790   32.1110   40.2530 C   0  0  0  0  0  0  0  0  0  0  0  0
   35.9110   30.2970   40.5800 H   0  0  0  0  0  0  0  0  0  0  0  0
   39.8550   30.3060   42.0230 H   0  0  0  0  0  0  0  0  0  0  0  0
   41.1960   32.8000   41.5270 H   0  0  0  0  0  0  0  0  0  0  0  0
   40.4710   35.0590   40.3650 H   0  0  0  0  0  0  0  0  0  0  0  0
   37.9560   34.7640   39.5590 H   0  0  0  0  0  0  0  0  0  0  0  0
   36.1240   32.5710   39.7570 H   0  0  0  0  0  0  0  0  0  0  0  0
   38.8600   25.4300   41.0140 C   0  0  0  0  0  0  0  0  0  0  0  0
   40.1310   25.2670   41.0660 O   0  0  0  0  0  0  0  0  0  0  0  0
   38.0850   24.4060   40.2870 C   0  0  0  0  0  0  0  0  0  0  0  0
   38.0090   23.0670   40.6780 C   0  0  0  0  0  0  0  0  0  0  0  0
   38.4700   22.5730   41.5220 H   0  0  0  0  0  0  0  0  0  0  0  0
   37.2130   22.5210   39.7420 N   0  0  0  0  0  0  0  0  0  0  0  0
   36.9450   21.5030   39.7390 H   0  0  0  0  0  0  0  0  0  0  0  0
   36.8090   23.4210   38.8280 C   0  0  0  0  0  0  0  0  0  0  0  0
   36.1510   23.1530   37.9860 H   0  0  0  0  0  0  0  0  0  0  0  0
   37.3620   24.5920   39.1830 N   0  0  0  0  0  0  0  0  0  0  0  0
  1  2  1  0  0  0  0
  2  7  1  0  0  0  0
  2  3  2  0  0  0  0
  3  8  1  0  0  0  0
  4  3  1  0  0  0  0
  5  4  2  0  0  0  0
  6  1  2  0  0  0  0
  6  5  1  0  0  0  0
  9 10  1  0  0  0  0
 10 11  2  0  0  0  0
 10  5  1  0  0  0  0
 11 19  1  0  0  0  0
 12 13  1  0  0  0  0
 12 11  1  0  0  0  0
 13 20  1  0  0  0  0
 14 13  1  0  0  0  0
 15 16  1  0  0  0  0
 15 14  2  0  0  0  0
 16 12  2  0  0  0  0
 17 16  1  0  0  0  0
 17  9  2  0  0  0  0
 18  9  1  0  0  0  0
 21 14  1  0  0  0  0
 22 15  1  0  0  0  0
 23 17  1  0  0  0  0
 24 25  2  0  0  0  0
 24  1  1  0  0  0  0
 26 27  2  0  0  0  0
 26 24  1  0  0  0  0
 27 28  1  0  0  0  0
 29 27  1  0  0  0  0
 30 29  1  0  0  0  0
 31 33  2  0  0  0  0
 31 29  1  0  0  0  0
 32 31  1  0  0  0  0
 33 26  1  0  0  0  0
M  END
>  <minimizedAffinity>
-5.34077024

$$$$

 OpenBabel03252504013D

 33 36  0  0  0  0  0  0  0  0999 V2000
   38.1820   29.5780   41.5240 C   0  0  0  0  0  0  0  0  0  0  0  0
   39.2400   29.8550   42.3920 C   0  0  0  0  0  0  0  0  0  0  0  0
   39.9920   28.7890   42.8480 C   0  0  0  0  0  0  0  0  0  0  0  0
   39.6710   27.5370   42.4390 N   0  0  0  0  0  0  0  0  0  0  0  0
   38.6330   27.3020   41.5920 C   0  0  0  0  0  0  0  0  0  0  0  0
   37.8920   28.3220   41.1370 N   0  0  0  0  0  0  0  0  0  0  0  0
   39.4610   30.8740   42.6930 H   0  0  0  0  0  0  0  0  0  0  0  0
   40.8270   28.9670   43.5280 H   0  0  0  0  0  0  0  0  0  0  0  0
   37.1460   25.3730   41.6550 C   0  0  0  0  0  0  0  0  0  0  0  0
   38.2950   25.9500   41.1550 C   0  0  0  0  0  0  0  0  0  0  0  0
   39.0670   25.2360   40.2770 C   0  0  0  0  0  0  0  0  0  0  0  0
   38.7000   23.9670   39.9010 C   0  0  0  0  0  0  0  0  0  0  0  0
   39.2490   23.0510   39.0730 N   0  0  0  0  0  0  0  0  0  0  0  0
   38.4890   21.9340   39.0410 C   0  0  0  0  0  0  0  0  0  0  0  0
   37.3990   22.1230   39.8770 C   0  0  0  0  0  0  0  0  0  0  0  0
   37.5330   23.3840   40.4090 C   0  0  0  0  0  0  0  0  0  0  0  0
   36.7600   24.1010   41.2900 C   0  0  0  0  0  0  0  0  0  0  0  0
   36.5360   25.9360   42.3490 H   0  0  0  0  0  0  0  0  0  0  0  0
   39.9490   25.7120   39.9110 H   0  0  0  0  0  0  0  0  0  0  0  0
   40.1460   23.1970   38.5330 H   0  0  0  0  0  0  0  0  0  0  0  0
   38.6450   21.0230   38.4840 H   0  0  0  0  0  0  0  0  0  0  0  0
   36.5810   21.4490   40.1030 H   0  0  0  0  0  0  0  0  0  0  0  0
   35.8420   23.6970   41.7170 H   0  0  0  0  0  0  0  0  0  0  0  0
   37.4180   30.7240   41.0670 C   0  0  0  0  0  0  0  0  0  0  0  0
   36.1530   30.8530   41.2310 O   0  0  0  0  0  0  0  0  0  0  0  0
   38.1160   31.8200   40.3700 C   0  0  0  0  0  0  0  0  0  0  0  0
   38.4560   31.7870   39.0150 C   0  0  0  0  0  0  0  0  0  0  0  0
   38.2820   31.0080   38.2840 H   0  0  0  0  0  0  0  0  0  0  0  0
   39.0620   32.9710   38.8230 N   0  0  0  0  0  0  0  0  0  0  0  0
   39.4480   33.2740   37.8910 H   0  0  0  0  0  0  0  0  0  0  0  0
   39.1120   33.7070   39.9480 C   0  0  0  0  0  0  0  0  0  0  0  0
   39.5730   34.7070   39.9790 H   0  0  0  0  0  0  0  0  0  0  0  0
   38.5170   32.9740   40.9030 N   0  0  0  0  0  0  0  0  0  0  0  0
  1  2  1  0  0  0  0
  2  7  1  0  0  0  0
  2  3  2  0  0  0  0
  3  8  1  0  0  0  0
  4  3  1  0  0  0  0
  5  4  2  0  0  0  0
  6  1  2  0  0  0  0
  6  5  1  0  0  0  0
  9 18  1  0  0  0  0
 10  5  1  0  0  0  0
 10  9  2  0  0  0  0
 11 10  1  0  0  0  0
 12 11  2  0  0  0  0
 12 16  1  0  0  0  0
 13 12  1  0  0  0  0
 14 13  1  0  0  0  0
 14 15  2  0  0  0  0
 15 22  1  0  0  0  0
 15 16  1  0  0  0  0
 16 17  2  0  0  0  0
 17  9  1  0  0  0  0
 17 23  1  0  0  0  0
 19 11  1  0  0  0  0
 20 13  1  0  0  0  0
 21 14  1  0  0  0  0
 24 25  2  0  0  0  0
 24  1  1  0  0  0  0
 26 33  1  0  0  0  0
 26 24  1  0  0  0  0
 27 26  2  0  0  0  0
 28 27  1  0  0  0  0
 29 27  1  0  0  0  0
 29 31  1  0  0  0  0
 30 29  1  0  0  0  0
 31 32  1  0  0  0  0
 31 33  2  0  0  0  0
M  END
>  <minimizedAffinity>
-5.28439903

$$$$
