
 OpenBabel03252508493D

 27 29  0  0  0  0  0  0  0  0999 V2000
   46.0840   34.1670   41.0090 C   0  0  0  0  0  0  0  0  0  0  0  0
   46.6230   34.7970   42.1250 C   0  0  0  0  0  0  0  0  0  0  0  0
   47.9500   35.2070   42.0270 C   0  0  0  0  0  0  0  0  0  0  0  0
   48.6290   34.9690   40.8710 N   0  0  0  0  0  0  0  0  0  0  0  0
   48.0720   34.3590   39.8220 C   0  0  0  0  0  0  0  0  0  0  0  0
   46.7890   33.9530   39.8890 N   0  0  0  0  0  0  0  0  0  0  0  0
   48.3880   35.6990   42.8840 H   0  0  0  0  0  0  0  0  0  0  0  0
   48.5990   34.1640   38.8970 H   0  0  0  0  0  0  0  0  0  0  0  0
   45.8070   34.9990   43.3080 C   0  0  0  0  0  0  0  0  0  0  0  0
   45.0790   36.1630   43.5220 C   0  0  0  0  0  0  0  0  0  0  0  0
   44.4650   35.9370   44.7400 C   0  0  0  0  0  0  0  0  0  0  0  0
   44.7990   34.7140   45.2320 N   0  0  0  0  0  0  0  0  0  0  0  0
   45.6080   34.1760   44.3450 N   0  0  0  0  0  0  0  0  0  0  0  0
   44.9780   37.0550   42.9250 H   0  0  0  0  0  0  0  0  0  0  0  0
   43.8020   36.6610   45.2250 H   0  0  0  0  0  0  0  0  0  0  0  0
   44.4680   34.2980   46.1430 H   0  0  0  0  0  0  0  0  0  0  0  0
   44.7670   33.7430   41.0640 O   0  0  0  0  0  0  0  0  0  0  0  0
   43.6940   34.2790   40.4100 C   0  0  0  0  0  0  0  0  0  0  0  0
   43.2830   35.4930   40.4630 O   0  0  0  0  0  0  0  0  0  0  0  0
   42.8070   33.4870   39.5020 C   0  0  0  0  0  0  0  0  0  0  0  0
   43.2370   32.6000   38.5410 C   0  0  0  0  0  0  0  0  0  0  0  0
   44.2320   32.2950   38.2490 H   0  0  0  0  0  0  0  0  0  0  0  0
   42.1790   32.0510   37.8880 N   0  0  0  0  0  0  0  0  0  0  0  0
   42.1690   31.3540   37.1190 H   0  0  0  0  0  0  0  0  0  0  0  0
   41.1110   32.6210   38.4700 C   0  0  0  0  0  0  0  0  0  0  0  0
   40.0800   32.4100   38.1900 H   0  0  0  0  0  0  0  0  0  0  0  0
   41.4700   33.4790   39.4330 N   0  0  0  0  0  0  0  0  0  0  0  0
  1 17  1  0  0  0  0
  1  2  1  0  0  0  0
  2  9  1  0  0  0  0
  3  2  2  0  0  0  0
  3  7  1  0  0  0  0
  4  3  1  0  0  0  0
  5  6  1  0  0  0  0
  5  4  2  0  0  0  0
  6  1  2  0  0  0  0
  8  5  1  0  0  0  0
  9 10  1  0  0  0  0
  9 13  2  0  0  0  0
 10 11  2  0  0  0  0
 11 15  1  0  0  0  0
 11 12  1  0  0  0  0
 12 16  1  0  0  0  0
 13 12  1  0  0  0  0
 14 10  1  0  0  0  0
 18 19  2  0  0  0  0
 18 17  1  0  0  0  0
 20 18  1  0  0  0  0
 21 20  2  0  0  0  0
 22 21  1  0  0  0  0
 23 25  1  0  0  0  0
 23 21  1  0  0  0  0
 24 23  1  0  0  0  0
 25 27  2  0  0  0  0
 26 25  1  0  0  0  0
 27 20  1  0  0  0  0
M  END
>  <minimizedAffinity>
-4.9415288

>  <minimizedRMSD>
0.134168461

$$$$
