
 OpenBabel03252508523D

 27 29  0  0  0  0  0  0  0  0999 V2000
   39.5050   28.7580   41.4980 C   0  0  0  0  0  0  0  0  0  0  0  0
   38.2710   28.5450   42.1010 C   0  0  0  0  0  0  0  0  0  0  0  0
   38.2650   27.7380   43.2370 C   0  0  0  0  0  0  0  0  0  0  0  0
   39.4420   27.2160   43.6790 N   0  0  0  0  0  0  0  0  0  0  0  0
   40.6070   27.4460   43.0680 C   0  0  0  0  0  0  0  0  0  0  0  0
   40.6420   28.2230   41.9670 N   0  0  0  0  0  0  0  0  0  0  0  0
   37.3160   27.5610   43.7210 H   0  0  0  0  0  0  0  0  0  0  0  0
   41.5500   27.0380   43.4070 H   0  0  0  0  0  0  0  0  0  0  0  0
   37.0760   29.1530   41.5440 C   0  0  0  0  0  0  0  0  0  0  0  0
   36.1570   28.4340   40.7900 C   0  0  0  0  0  0  0  0  0  0  0  0
   35.2010   29.3770   40.4660 C   0  0  0  0  0  0  0  0  0  0  0  0
   35.5200   30.5910   40.9910 N   0  0  0  0  0  0  0  0  0  0  0  0
   36.6550   30.4190   41.6340 N   0  0  0  0  0  0  0  0  0  0  0  0
   36.1400   27.3960   40.4960 H   0  0  0  0  0  0  0  0  0  0  0  0
   34.3130   29.1550   39.8660 H   0  0  0  0  0  0  0  0  0  0  0  0
   34.9580   31.4790   40.8930 H   0  0  0  0  0  0  0  0  0  0  0  0
   39.5550   29.5530   40.3660 O   0  0  0  0  0  0  0  0  0  0  0  0
   40.0040   30.8400   40.2740 C   0  0  0  0  0  0  0  0  0  0  0  0
   40.2270   31.6520   41.2420 O   0  0  0  0  0  0  0  0  0  0  0  0
   40.3070   31.5140   38.9730 C   0  0  0  0  0  0  0  0  0  0  0  0
   39.4220   31.6730   37.9310 C   0  0  0  0  0  0  0  0  0  0  0  0
   38.3890   31.3740   37.8250 H   0  0  0  0  0  0  0  0  0  0  0  0
   40.0130   32.3220   36.8950 N   0  0  0  0  0  0  0  0  0  0  0  0
   39.6170   32.5920   35.9730 H   0  0  0  0  0  0  0  0  0  0  0  0
   41.2630   32.5510   37.3280 C   0  0  0  0  0  0  0  0  0  0  0  0
   42.0270   33.0600   36.7440 H   0  0  0  0  0  0  0  0  0  0  0  0
   41.4530   32.0740   38.5650 N   0  0  0  0  0  0  0  0  0  0  0  0
  1  6  2  0  0  0  0
  1  2  1  0  0  0  0
  2  3  2  0  0  0  0
  3  4  1  0  0  0  0
  3  7  1  0  0  0  0
  5  8  1  0  0  0  0
  5  4  2  0  0  0  0
  6  5  1  0  0  0  0
  9 13  2  0  0  0  0
  9  2  1  0  0  0  0
 10  9  1  0  0  0  0
 11 10  2  0  0  0  0
 11 12  1  0  0  0  0
 12 13  1  0  0  0  0
 14 10  1  0  0  0  0
 15 11  1  0  0  0  0
 16 12  1  0  0  0  0
 17  1  1  0  0  0  0
 18 17  1  0  0  0  0
 18 19  2  0  0  0  0
 20 18  1  0  0  0  0
 21 20  2  0  0  0  0
 22 21  1  0  0  0  0
 23 25  1  0  0  0  0
 23 21  1  0  0  0  0
 24 23  1  0  0  0  0
 25 27  2  0  0  0  0
 26 25  1  0  0  0  0
 27 20  1  0  0  0  0
M  END
>  <minimizedAffinity>
-5.10906363

$$$$

 OpenBabel03252508523D

 27 29  0  0  0  0  0  0  0  0999 V2000
   37.0210   25.8130   40.4720 C   0  0  0  0  0  0  0  0  0  0  0  0
   37.6420   25.8900   41.7140 C   0  0  0  0  0  0  0  0  0  0  0  0
   38.2400   24.7240   42.1850 C   0  0  0  0  0  0  0  0  0  0  0  0
   38.1820   23.5990   41.4190 N   0  0  0  0  0  0  0  0  0  0  0  0
   37.5750   23.5690   40.2300 C   0  0  0  0  0  0  0  0  0  0  0  0
   36.9880   24.6830   39.7500 N   0  0  0  0  0  0  0  0  0  0  0  0
   38.7270   24.7640   43.1480 H   0  0  0  0  0  0  0  0  0  0  0  0
   37.5200   22.6830   39.6110 H   0  0  0  0  0  0  0  0  0  0  0  0
   37.6430   27.1430   42.4470 C   0  0  0  0  0  0  0  0  0  0  0  0
   38.7580   27.9700   42.5080 C   0  0  0  0  0  0  0  0  0  0  0  0
   38.3310   29.0260   43.2900 C   0  0  0  0  0  0  0  0  0  0  0  0
   37.0390   28.8520   43.6780 N   0  0  0  0  0  0  0  0  0  0  0  0
   36.6560   27.7080   43.1520 N   0  0  0  0  0  0  0  0  0  0  0  0
   39.7400   27.8670   42.0750 H   0  0  0  0  0  0  0  0  0  0  0  0
   38.9660   29.8790   43.5510 H   0  0  0  0  0  0  0  0  0  0  0  0
   36.4750   29.5100   44.2780 H   0  0  0  0  0  0  0  0  0  0  0  0
   36.4140   26.9490   39.9680 O   0  0  0  0  0  0  0  0  0  0  0  0
   37.0150   28.0050   39.3430 C   0  0  0  0  0  0  0  0  0  0  0  0
   37.7730   27.9620   38.3090 O   0  0  0  0  0  0  0  0  0  0  0  0
   36.8690   29.4220   39.8010 C   0  0  0  0  0  0  0  0  0  0  0  0
   35.8230   29.9160   40.5460 C   0  0  0  0  0  0  0  0  0  0  0  0
   34.9410   29.4320   40.9400 H   0  0  0  0  0  0  0  0  0  0  0  0
   35.9920   31.2420   40.7890 N   0  0  0  0  0  0  0  0  0  0  0  0
   35.3850   31.8990   41.3170 H   0  0  0  0  0  0  0  0  0  0  0  0
   37.1530   31.5360   40.1810 C   0  0  0  0  0  0  0  0  0  0  0  0
   37.6030   32.5270   40.1730 H   0  0  0  0  0  0  0  0  0  0  0  0
   37.6870   30.4610   39.5880 N   0  0  0  0  0  0  0  0  0  0  0  0
  1  2  1  0  0  0  0
  2  3  2  0  0  0  0
  2  9  1  0  0  0  0
  3  7  1  0  0  0  0
  4  3  1  0  0  0  0
  5  4  2  0  0  0  0
  6  5  1  0  0  0  0
  6  1  2  0  0  0  0
  8  5  1  0  0  0  0
  9 10  1  0  0  0  0
  9 13  2  0  0  0  0
 10 11  2  0  0  0  0
 11 15  1  0  0  0  0
 11 12  1  0  0  0  0
 12 16  1  0  0  0  0
 13 12  1  0  0  0  0
 14 10  1  0  0  0  0
 17  1  1  0  0  0  0
 18 20  1  0  0  0  0
 18 17  1  0  0  0  0
 19 18  2  0  0  0  0
 20 21  2  0  0  0  0
 21 23  1  0  0  0  0
 21 22  1  0  0  0  0
 23 24  1  0  0  0  0
 25 23  1  0  0  0  0
 26 25  1  0  0  0  0
 27 20  1  0  0  0  0
 27 25  2  0  0  0  0
M  END
>  <minimizedAffinity>
-4.96887636

$$$$

 OpenBabel03252508523D

 27 29  0  0  0  0  0  0  0  0999 V2000
   39.4820   28.7070   41.5110 C   0  0  0  0  0  0  0  0  0  0  0  0
   38.2350   28.5030   42.0900 C   0  0  0  0  0  0  0  0  0  0  0  0
   38.1990   27.6880   43.2190 C   0  0  0  0  0  0  0  0  0  0  0  0
   39.3610   27.1480   43.6780 N   0  0  0  0  0  0  0  0  0  0  0  0
   40.5390   27.3700   43.0900 C   0  0  0  0  0  0  0  0  0  0  0  0
   40.6030   28.1550   41.9960 N   0  0  0  0  0  0  0  0  0  0  0  0
   37.2380   27.5170   43.6840 H   0  0  0  0  0  0  0  0  0  0  0  0
   41.4710   26.9480   43.4440 H   0  0  0  0  0  0  0  0  0  0  0  0
   37.0570   29.1280   41.5150 C   0  0  0  0  0  0  0  0  0  0  0  0
   36.2570   28.4900   40.5760 C   0  0  0  0  0  0  0  0  0  0  0  0
   35.2740   29.4230   40.3050 C   0  0  0  0  0  0  0  0  0  0  0  0
   35.4660   30.5550   41.0350 N   0  0  0  0  0  0  0  0  0  0  0  0
   36.5480   30.3430   41.7530 N   0  0  0  0  0  0  0  0  0  0  0  0
   36.3340   27.5110   40.1300 H   0  0  0  0  0  0  0  0  0  0  0  0
   34.4600   29.2520   39.5940 H   0  0  0  0  0  0  0  0  0  0  0  0
   34.8590   31.4180   41.0160 H   0  0  0  0  0  0  0  0  0  0  0  0
   39.5620   29.5100   40.3860 O   0  0  0  0  0  0  0  0  0  0  0  0
   39.9460   30.8190   40.3270 C   0  0  0  0  0  0  0  0  0  0  0  0
   41.1400   31.2800   40.4140 O   0  0  0  0  0  0  0  0  0  0  0  0
   38.9830   31.9500   40.1470 C   0  0  0  0  0  0  0  0  0  0  0  0
   38.9650   33.1090   40.8900 C   0  0  0  0  0  0  0  0  0  0  0  0
   39.5920   33.4400   41.7050 H   0  0  0  0  0  0  0  0  0  0  0  0
   37.9640   33.9280   40.4750 N   0  0  0  0  0  0  0  0  0  0  0  0
   37.6890   34.8660   40.8290 H   0  0  0  0  0  0  0  0  0  0  0  0
   37.3830   33.2470   39.4740 C   0  0  0  0  0  0  0  0  0  0  0  0
   36.5320   33.6110   38.9030 H   0  0  0  0  0  0  0  0  0  0  0  0
   37.9800   32.0660   39.2670 N   0  0  0  0  0  0  0  0  0  0  0  0
  1  6  2  0  0  0  0
  1  2  1  0  0  0  0
  2  3  2  0  0  0  0
  3  4  1  0  0  0  0
  3  7  1  0  0  0  0
  5  8  1  0  0  0  0
  5  4  2  0  0  0  0
  6  5  1  0  0  0  0
  9 13  2  0  0  0  0
  9  2  1  0  0  0  0
 10  9  1  0  0  0  0
 11 10  2  0  0  0  0
 11 12  1  0  0  0  0
 12 13  1  0  0  0  0
 14 10  1  0  0  0  0
 15 11  1  0  0  0  0
 16 12  1  0  0  0  0
 17  1  1  0  0  0  0
 18 17  1  0  0  0  0
 18 19  2  0  0  0  0
 20 18  1  0  0  0  0
 20 21  2  0  0  0  0
 21 22  1  0  0  0  0
 23 24  1  0  0  0  0
 23 21  1  0  0  0  0
 25 23  1  0  0  0  0
 26 25  1  0  0  0  0
 27 25  2  0  0  0  0
 27 20  1  0  0  0  0
M  END
>  <minimizedAffinity>
-4.93415022

$$$$

 OpenBabel03252508523D

 27 29  0  0  0  0  0  0  0  0999 V2000
   39.1680   31.5530   40.4480 C   0  0  0  0  0  0  0  0  0  0  0  0
   37.8710   31.9740   40.1760 C   0  0  0  0  0  0  0  0  0  0  0  0
   37.6930   33.3370   39.9540 C   0  0  0  0  0  0  0  0  0  0  0  0
   38.7750   34.1610   40.0160 N   0  0  0  0  0  0  0  0  0  0  0  0
   40.0050   33.7140   40.2810 C   0  0  0  0  0  0  0  0  0  0  0  0
   40.2060   32.4000   40.5000 N   0  0  0  0  0  0  0  0  0  0  0  0
   36.6920   33.6830   39.7410 H   0  0  0  0  0  0  0  0  0  0  0  0
   40.8740   34.3570   40.3340 H   0  0  0  0  0  0  0  0  0  0  0  0
   36.7890   31.0060   40.1340 C   0  0  0  0  0  0  0  0  0  0  0  0
   36.5480   30.2050   39.0250 C   0  0  0  0  0  0  0  0  0  0  0  0
   35.4520   29.4540   39.4060 C   0  0  0  0  0  0  0  0  0  0  0  0
   35.0550   29.7780   40.6660 N   0  0  0  0  0  0  0  0  0  0  0  0
   35.8820   30.7160   41.0740 N   0  0  0  0  0  0  0  0  0  0  0  0
   37.0540   30.1400   38.0760 H   0  0  0  0  0  0  0  0  0  0  0  0
   34.9820   28.7020   38.7620 H   0  0  0  0  0  0  0  0  0  0  0  0
   34.2450   29.3540   41.1920 H   0  0  0  0  0  0  0  0  0  0  0  0
   39.3890   30.2060   40.6760 O   0  0  0  0  0  0  0  0  0  0  0  0
   39.4130   29.5600   41.8790 C   0  0  0  0  0  0  0  0  0  0  0  0
   40.3350   29.6150   42.7690 O   0  0  0  0  0  0  0  0  0  0  0  0
   38.3180   28.6540   42.3470 C   0  0  0  0  0  0  0  0  0  0  0  0
   37.5980   28.8070   43.5110 C   0  0  0  0  0  0  0  0  0  0  0  0
   37.6540   29.5560   44.2870 H   0  0  0  0  0  0  0  0  0  0  0  0
   36.6810   27.8130   43.6410 N   0  0  0  0  0  0  0  0  0  0  0  0
   35.9920   27.6470   44.4000 H   0  0  0  0  0  0  0  0  0  0  0  0
   36.8590   27.0630   42.5410 C   0  0  0  0  0  0  0  0  0  0  0  0
   36.2840   26.1680   42.3140 H   0  0  0  0  0  0  0  0  0  0  0  0
   37.8320   27.5530   41.7610 N   0  0  0  0  0  0  0  0  0  0  0  0
  1  6  1  0  0  0  0
  1 17  1  0  0  0  0
  2  1  2  0  0  0  0
  3  4  2  0  0  0  0
  3  2  1  0  0  0  0
  4  5  1  0  0  0  0
  5  8  1  0  0  0  0
  5  6  2  0  0  0  0
  7  3  1  0  0  0  0
  9  2  1  0  0  0  0
  9 13  2  0  0  0  0
 10 11  2  0  0  0  0
 10  9  1  0  0  0  0
 11 12  1  0  0  0  0
 12 13  1  0  0  0  0
 12 16  1  0  0  0  0
 14 10  1  0  0  0  0
 15 11  1  0  0  0  0
 17 18  1  0  0  0  0
 18 20  1  0  0  0  0
 18 19  2  0  0  0  0
 20 21  2  0  0  0  0
 21 23  1  0  0  0  0
 21 22  1  0  0  0  0
 23 24  1  0  0  0  0
 25 23  1  0  0  0  0
 26 25  1  0  0  0  0
 27 20  1  0  0  0  0
 27 25  2  0  0  0  0
M  END
>  <minimizedAffinity>
-4.91740608

$$$$

 OpenBabel03252508523D

 27 29  0  0  0  0  0  0  0  0999 V2000
   36.8720   29.3740   38.1860 C   0  0  0  0  0  0  0  0  0  0  0  0
   35.9400   29.0270   39.1570 C   0  0  0  0  0  0  0  0  0  0  0  0
   34.6570   28.7270   38.7090 C   0  0  0  0  0  0  0  0  0  0  0  0
   34.3940   28.7890   37.3740 N   0  0  0  0  0  0  0  0  0  0  0  0
   35.3200   29.1270   36.4740 C   0  0  0  0  0  0  0  0  0  0  0  0
   36.5710   29.4230   36.8800 N   0  0  0  0  0  0  0  0  0  0  0  0
   33.9180   28.4550   39.4490 H   0  0  0  0  0  0  0  0  0  0  0  0
   35.1260   29.1810   35.4100 H   0  0  0  0  0  0  0  0  0  0  0  0
   36.3300   28.9930   40.5550 C   0  0  0  0  0  0  0  0  0  0  0  0
   36.6250   27.8080   41.2180 C   0  0  0  0  0  0  0  0  0  0  0  0
   36.9360   28.2260   42.4980 C   0  0  0  0  0  0  0  0  0  0  0  0
   36.8370   29.5790   42.6040 N   0  0  0  0  0  0  0  0  0  0  0  0
   36.4700   30.0080   41.4160 N   0  0  0  0  0  0  0  0  0  0  0  0
   36.6270   26.7870   40.8740 H   0  0  0  0  0  0  0  0  0  0  0  0
   37.2220   27.5420   43.3040 H   0  0  0  0  0  0  0  0  0  0  0  0
   37.0210   30.1500   43.4720 H   0  0  0  0  0  0  0  0  0  0  0  0
   38.1600   29.6810   38.5890 O   0  0  0  0  0  0  0  0  0  0  0  0
   38.8270   30.8600   38.4110 C   0  0  0  0  0  0  0  0  0  0  0  0
   39.8320   31.0730   37.6430 O   0  0  0  0  0  0  0  0  0  0  0  0
   38.4630   32.1240   39.1240 C   0  0  0  0  0  0  0  0  0  0  0  0
   37.2080   32.6890   39.1580 C   0  0  0  0  0  0  0  0  0  0  0  0
   36.2750   32.3720   38.7160 H   0  0  0  0  0  0  0  0  0  0  0  0
   37.2180   33.8350   39.8870 N   0  0  0  0  0  0  0  0  0  0  0  0
   36.4380   34.4880   40.1000 H   0  0  0  0  0  0  0  0  0  0  0  0
   38.4930   33.9500   40.2910 C   0  0  0  0  0  0  0  0  0  0  0  0
   38.8670   34.7670   40.9050 H   0  0  0  0  0  0  0  0  0  0  0  0
   39.2480   32.9380   39.8430 N   0  0  0  0  0  0  0  0  0  0  0  0
  1 17  1  0  0  0  0
  1  2  1  0  0  0  0
  2  9  1  0  0  0  0
  3  2  2  0  0  0  0
  3  7  1  0  0  0  0
  4  3  1  0  0  0  0
  5  6  1  0  0  0  0
  5  4  2  0  0  0  0
  6  1  2  0  0  0  0
  8  5  1  0  0  0  0
  9 10  1  0  0  0  0
  9 13  2  0  0  0  0
 10 11  2  0  0  0  0
 11 12  1  0  0  0  0
 11 15  1  0  0  0  0
 12 16  1  0  0  0  0
 13 12  1  0  0  0  0
 14 10  1  0  0  0  0
 18 17  1  0  0  0  0
 18 20  1  0  0  0  0
 19 18  2  0  0  0  0
 20 21  2  0  0  0  0
 20 27  1  0  0  0  0
 21 23  1  0  0  0  0
 22 21  1  0  0  0  0
 23 24  1  0  0  0  0
 23 25  1  0  0  0  0
 25 26  1  0  0  0  0
 27 25  2  0  0  0  0
M  END
>  <minimizedAffinity>
-4.81910753

$$$$

 OpenBabel03252508523D

 27 29  0  0  0  0  0  0  0  0999 V2000
   38.2080   28.8740   38.3550 C   0  0  0  0  0  0  0  0  0  0  0  0
   37.4310   29.9740   38.0100 C   0  0  0  0  0  0  0  0  0  0  0  0
   36.8250   29.9400   36.7560 C   0  0  0  0  0  0  0  0  0  0  0  0
   37.0260   28.8550   35.9580 N   0  0  0  0  0  0  0  0  0  0  0  0
   37.7800   27.8180   36.3300 C   0  0  0  0  0  0  0  0  0  0  0  0
   38.3790   27.8250   37.5370 N   0  0  0  0  0  0  0  0  0  0  0  0
   36.2170   30.7860   36.4690 H   0  0  0  0  0  0  0  0  0  0  0  0
   37.9490   26.9490   35.7060 H   0  0  0  0  0  0  0  0  0  0  0  0
   37.2860   31.0790   38.9400 C   0  0  0  0  0  0  0  0  0  0  0  0
   37.9570   32.2850   38.7750 C   0  0  0  0  0  0  0  0  0  0  0  0
   37.5410   33.0340   39.8600 C   0  0  0  0  0  0  0  0  0  0  0  0
   36.6730   32.3270   40.6330 N   0  0  0  0  0  0  0  0  0  0  0  0
   36.5420   31.1550   40.0490 N   0  0  0  0  0  0  0  0  0  0  0  0
   38.6430   32.6140   38.0120 H   0  0  0  0  0  0  0  0  0  0  0  0
   37.8790   34.0570   40.0520 H   0  0  0  0  0  0  0  0  0  0  0  0
   36.2090   32.6660   41.5180 H   0  0  0  0  0  0  0  0  0  0  0  0
   38.8290   28.8680   39.5910 O   0  0  0  0  0  0  0  0  0  0  0  0
   38.7570   27.9000   40.5530 C   0  0  0  0  0  0  0  0  0  0  0  0
   39.3330   26.7540   40.5400 O   0  0  0  0  0  0  0  0  0  0  0  0
   37.9570   28.0480   41.8080 C   0  0  0  0  0  0  0  0  0  0  0  0
   37.9360   29.1630   42.6150 C   0  0  0  0  0  0  0  0  0  0  0  0
   38.4480   30.1100   42.5310 H   0  0  0  0  0  0  0  0  0  0  0  0
   37.1110   28.9700   43.6770 N   0  0  0  0  0  0  0  0  0  0  0  0
   36.8810   29.6140   44.4590 H   0  0  0  0  0  0  0  0  0  0  0  0
   36.6390   27.7260   43.4980 C   0  0  0  0  0  0  0  0  0  0  0  0
   35.9390   27.2360   44.1720 H   0  0  0  0  0  0  0  0  0  0  0  0
   37.1340   27.1640   42.3870 N   0  0  0  0  0  0  0  0  0  0  0  0
  1 17  1  0  0  0  0
  2  1  1  0  0  0  0
  2  9  1  0  0  0  0
  3  2  2  0  0  0  0
  4  5  2  0  0  0  0
  4  3  1  0  0  0  0
  5  6  1  0  0  0  0
  6  1  2  0  0  0  0
  7  3  1  0  0  0  0
  8  5  1  0  0  0  0
  9 13  2  0  0  0  0
 10  9  1  0  0  0  0
 10 11  2  0  0  0  0
 11 15  1  0  0  0  0
 11 12  1  0  0  0  0
 12 16  1  0  0  0  0
 13 12  1  0  0  0  0
 14 10  1  0  0  0  0
 17 18  1  0  0  0  0
 18 20  1  0  0  0  0
 19 18  2  0  0  0  0
 20 27  1  0  0  0  0
 20 21  2  0  0  0  0
 21 23  1  0  0  0  0
 22 21  1  0  0  0  0
 23 24  1  0  0  0  0
 25 23  1  0  0  0  0
 25 26  1  0  0  0  0
 27 25  2  0  0  0  0
M  END
>  <minimizedAffinity>
-4.78587103

$$$$

 OpenBabel03252508523D

 27 29  0  0  0  0  0  0  0  0999 V2000
   38.3050   28.7590   40.6440 C   0  0  0  0  0  0  0  0  0  0  0  0
   38.1230   29.7940   41.5540 C   0  0  0  0  0  0  0  0  0  0  0  0
   38.0940   29.4420   42.9010 C   0  0  0  0  0  0  0  0  0  0  0  0
   38.2420   28.1310   43.2410 N   0  0  0  0  0  0  0  0  0  0  0  0
   38.4160   27.1680   42.3330 C   0  0  0  0  0  0  0  0  0  0  0  0
   38.4470   27.4810   41.0230 N   0  0  0  0  0  0  0  0  0  0  0  0
   37.9530   30.2320   43.6230 H   0  0  0  0  0  0  0  0  0  0  0  0
   38.5340   26.1220   42.5880 H   0  0  0  0  0  0  0  0  0  0  0  0
   37.9750   31.1590   41.0800 C   0  0  0  0  0  0  0  0  0  0  0  0
   39.0160   32.0780   41.1180 C   0  0  0  0  0  0  0  0  0  0  0  0
   38.4520   33.2220   40.5850 C   0  0  0  0  0  0  0  0  0  0  0  0
   37.1520   33.0090   40.2440 N   0  0  0  0  0  0  0  0  0  0  0  0
   36.8980   31.7570   40.5550 N   0  0  0  0  0  0  0  0  0  0  0  0
   40.0310   31.9830   41.4660 H   0  0  0  0  0  0  0  0  0  0  0  0
   38.9980   34.1630   40.4620 H   0  0  0  0  0  0  0  0  0  0  0  0
   36.4960   33.7170   39.8180 H   0  0  0  0  0  0  0  0  0  0  0  0
   38.3390   29.0670   39.2950 O   0  0  0  0  0  0  0  0  0  0  0  0
   39.4380   29.1430   38.4870 C   0  0  0  0  0  0  0  0  0  0  0  0
   40.1880   28.1730   38.1100 O   0  0  0  0  0  0  0  0  0  0  0  0
   39.9450   30.4260   37.9080 C   0  0  0  0  0  0  0  0  0  0  0  0
   39.1600   31.4640   37.4590 C   0  0  0  0  0  0  0  0  0  0  0  0
   38.0860   31.5800   37.4270 H   0  0  0  0  0  0  0  0  0  0  0  0
   39.9310   32.4790   36.9900 N   0  0  0  0  0  0  0  0  0  0  0  0
   39.6440   33.3930   36.5870 H   0  0  0  0  0  0  0  0  0  0  0  0
   41.1870   32.0380   37.1640 C   0  0  0  0  0  0  0  0  0  0  0  0
   42.0750   32.6040   36.8930 H   0  0  0  0  0  0  0  0  0  0  0  0
   41.2110   30.8150   37.7100 N   0  0  0  0  0  0  0  0  0  0  0  0
  1  6  2  0  0  0  0
  1  2  1  0  0  0  0
  2  3  2  0  0  0  0
  3  4  1  0  0  0  0
  3  7  1  0  0  0  0
  5  8  1  0  0  0  0
  5  4  2  0  0  0  0
  6  5  1  0  0  0  0
  9 10  1  0  0  0  0
  9  2  1  0  0  0  0
 10 14  1  0  0  0  0
 11 10  2  0  0  0  0
 12 13  1  0  0  0  0
 12 11  1  0  0  0  0
 13  9  2  0  0  0  0
 15 11  1  0  0  0  0
 16 12  1  0  0  0  0
 17  1  1  0  0  0  0
 18 17  1  0  0  0  0
 19 18  2  0  0  0  0
 20 18  1  0  0  0  0
 21 20  2  0  0  0  0
 22 21  1  0  0  0  0
 23 25  1  0  0  0  0
 23 21  1  0  0  0  0
 24 23  1  0  0  0  0
 25 27  2  0  0  0  0
 26 25  1  0  0  0  0
 27 20  1  0  0  0  0
M  END
>  <minimizedAffinity>
-4.77742767

$$$$

 OpenBabel03252508523D

 27 29  0  0  0  0  0  0  0  0999 V2000
   37.2560   29.8040   39.0160 C   0  0  0  0  0  0  0  0  0  0  0  0
   36.3960   29.0590   39.8140 C   0  0  0  0  0  0  0  0  0  0  0  0
   35.2600   28.5430   39.1930 C   0  0  0  0  0  0  0  0  0  0  0  0
   35.0630   28.7950   37.8700 N   0  0  0  0  0  0  0  0  0  0  0  0
   35.9160   29.5170   37.1390 C   0  0  0  0  0  0  0  0  0  0  0  0
   37.0220   30.0280   37.7150 N   0  0  0  0  0  0  0  0  0  0  0  0
   34.5790   27.9610   39.7970 H   0  0  0  0  0  0  0  0  0  0  0  0
   35.7720   29.7260   36.0870 H   0  0  0  0  0  0  0  0  0  0  0  0
   36.7050   28.8520   41.2170 C   0  0  0  0  0  0  0  0  0  0  0  0
   36.8760   27.5870   41.7650 C   0  0  0  0  0  0  0  0  0  0  0  0
   37.1480   27.8480   43.0950 C   0  0  0  0  0  0  0  0  0  0  0  0
   37.1420   29.1860   43.3380 N   0  0  0  0  0  0  0  0  0  0  0  0
   36.8720   29.7610   42.1860 N   0  0  0  0  0  0  0  0  0  0  0  0
   36.8230   26.6090   41.3150 H   0  0  0  0  0  0  0  0  0  0  0  0
   37.3390   27.0650   43.8360 H   0  0  0  0  0  0  0  0  0  0  0  0
   37.3190   29.6510   44.2680 H   0  0  0  0  0  0  0  0  0  0  0  0
   38.3950   30.3360   39.5940 O   0  0  0  0  0  0  0  0  0  0  0  0
   38.7220   31.6550   39.7250 C   0  0  0  0  0  0  0  0  0  0  0  0
   38.2040   32.5040   40.5360 O   0  0  0  0  0  0  0  0  0  0  0  0
   39.7750   32.3270   38.9010 C   0  0  0  0  0  0  0  0  0  0  0  0
   40.0050   32.1020   37.5620 C   0  0  0  0  0  0  0  0  0  0  0  0
   39.5150   31.4440   36.8590 H   0  0  0  0  0  0  0  0  0  0  0  0
   41.0350   32.8680   37.1170 N   0  0  0  0  0  0  0  0  0  0  0  0
   41.4480   32.9300   36.1660 H   0  0  0  0  0  0  0  0  0  0  0  0
   41.4190   33.5550   38.2050 C   0  0  0  0  0  0  0  0  0  0  0  0
   42.2330   34.2770   38.2140 H   0  0  0  0  0  0  0  0  0  0  0  0
   40.6770   33.2430   39.2760 N   0  0  0  0  0  0  0  0  0  0  0  0
  1 17  1  0  0  0  0
  1  2  1  0  0  0  0
  2  9  1  0  0  0  0
  3  7  1  0  0  0  0
  3  2  2  0  0  0  0
  4  3  1  0  0  0  0
  5  6  1  0  0  0  0
  5  4  2  0  0  0  0
  6  1  2  0  0  0  0
  8  5  1  0  0  0  0
  9 10  1  0  0  0  0
  9 13  2  0  0  0  0
 10 11  2  0  0  0  0
 11 12  1  0  0  0  0
 11 15  1  0  0  0  0
 12 16  1  0  0  0  0
 13 12  1  0  0  0  0
 14 10  1  0  0  0  0
 17 18  1  0  0  0  0
 18 19  2  0  0  0  0
 20 27  1  0  0  0  0
 20 18  1  0  0  0  0
 21 20  2  0  0  0  0
 22 21  1  0  0  0  0
 23 21  1  0  0  0  0
 23 25  1  0  0  0  0
 24 23  1  0  0  0  0
 25 26  1  0  0  0  0
 25 27  2  0  0  0  0
M  END
>  <minimizedAffinity>
-4.76414585

$$$$

 OpenBabel03252508523D

 27 29  0  0  0  0  0  0  0  0999 V2000
   37.5230   28.6760   42.2450 C   0  0  0  0  0  0  0  0  0  0  0  0
   38.9120   28.6520   42.2250 C   0  0  0  0  0  0  0  0  0  0  0  0
   39.5170   27.4140   42.4280 C   0  0  0  0  0  0  0  0  0  0  0  0
   38.7290   26.3230   42.6320 N   0  0  0  0  0  0  0  0  0  0  0  0
   37.3950   26.3900   42.6430 C   0  0  0  0  0  0  0  0  0  0  0  0
   36.7840   27.5750   42.4490 N   0  0  0  0  0  0  0  0  0  0  0  0
   40.5970   27.3750   42.4160 H   0  0  0  0  0  0  0  0  0  0  0  0
   36.7560   25.5310   42.8040 H   0  0  0  0  0  0  0  0  0  0  0  0
   39.6550   29.8790   41.9990 C   0  0  0  0  0  0  0  0  0  0  0  0
   40.3600   30.1190   40.8260 C   0  0  0  0  0  0  0  0  0  0  0  0
   40.9050   31.3720   41.0300 C   0  0  0  0  0  0  0  0  0  0  0  0
   40.5520   31.8620   42.2500 N   0  0  0  0  0  0  0  0  0  0  0  0
   39.8000   30.9370   42.8060 N   0  0  0  0  0  0  0  0  0  0  0  0
   40.4880   29.5150   39.9420 H   0  0  0  0  0  0  0  0  0  0  0  0
   41.5350   31.8840   40.2950 H   0  0  0  0  0  0  0  0  0  0  0  0
   40.8350   32.7950   42.6510 H   0  0  0  0  0  0  0  0  0  0  0  0
   36.8820   29.8860   42.0480 O   0  0  0  0  0  0  0  0  0  0  0  0
   36.3740   30.3770   40.8790 C   0  0  0  0  0  0  0  0  0  0  0  0
   35.3430   29.9530   40.2450 O   0  0  0  0  0  0  0  0  0  0  0  0
   36.9800   31.5270   40.1380 C   0  0  0  0  0  0  0  0  0  0  0  0
   36.9990   31.6750   38.7700 C   0  0  0  0  0  0  0  0  0  0  0  0
   36.6090   31.0470   37.9830 H   0  0  0  0  0  0  0  0  0  0  0  0
   37.6290   32.8270   38.4210 N   0  0  0  0  0  0  0  0  0  0  0  0
   37.8060   33.2220   37.4760 H   0  0  0  0  0  0  0  0  0  0  0  0
   37.9880   33.3680   39.5960 C   0  0  0  0  0  0  0  0  0  0  0  0
   38.5220   34.3100   39.6960 H   0  0  0  0  0  0  0  0  0  0  0  0
   37.6080   32.6040   40.6290 N   0  0  0  0  0  0  0  0  0  0  0  0
  1  6  1  0  0  0  0
  2  1  2  0  0  0  0
  2  3  1  0  0  0  0
  3  4  2  0  0  0  0
  4  5  1  0  0  0  0
  5  8  1  0  0  0  0
  6  5  2  0  0  0  0
  7  3  1  0  0  0  0
  9  2  1  0  0  0  0
  9 13  2  0  0  0  0
 10 11  2  0  0  0  0
 10  9  1  0  0  0  0
 11 12  1  0  0  0  0
 12 16  1  0  0  0  0
 12 13  1  0  0  0  0
 14 10  1  0  0  0  0
 15 11  1  0  0  0  0
 17  1  1  0  0  0  0
 18 17  1  0  0  0  0
 19 18  2  0  0  0  0
 20 27  1  0  0  0  0
 20 18  1  0  0  0  0
 21 20  2  0  0  0  0
 22 21  1  0  0  0  0
 23 21  1  0  0  0  0
 23 25  1  0  0  0  0
 24 23  1  0  0  0  0
 25 26  1  0  0  0  0
 25 27  2  0  0  0  0
M  END
>  <minimizedAffinity>
-4.65152359

$$$$
