
 OpenBabel03252508493D

 27 29  0  0  0  0  0  0  0  0999 V2000
   45.9720   34.1940   41.0370 C   0  0  0  0  0  0  0  0  0  0  0  0
   46.5550   34.8060   42.1410 C   0  0  0  0  0  0  0  0  0  0  0  0
   47.8950   35.1660   42.0170 C   0  0  0  0  0  0  0  0  0  0  0  0
   48.5420   34.9010   40.8490 N   0  0  0  0  0  0  0  0  0  0  0  0
   47.9430   34.3110   39.8120 C   0  0  0  0  0  0  0  0  0  0  0  0
   46.6470   33.9520   39.9040 N   0  0  0  0  0  0  0  0  0  0  0  0
   48.3660   35.6420   42.8650 H   0  0  0  0  0  0  0  0  0  0  0  0
   48.4440   34.0950   38.8770 H   0  0  0  0  0  0  0  0  0  0  0  0
   45.7690   35.0390   43.3390 C   0  0  0  0  0  0  0  0  0  0  0  0
   45.0800   36.2250   43.5590 C   0  0  0  0  0  0  0  0  0  0  0  0
   44.4850   36.0260   44.7910 C   0  0  0  0  0  0  0  0  0  0  0  0
   44.7940   34.7960   45.2850 N   0  0  0  0  0  0  0  0  0  0  0  0
   45.5680   34.2300   44.3850 N   0  0  0  0  0  0  0  0  0  0  0  0
   44.9940   37.1160   42.9580 H   0  0  0  0  0  0  0  0  0  0  0  0
   43.8540   36.7720   45.2840 H   0  0  0  0  0  0  0  0  0  0  0  0
   44.4680   34.3960   46.2050 H   0  0  0  0  0  0  0  0  0  0  0  0
   44.6420   33.8200   41.1180 O   0  0  0  0  0  0  0  0  0  0  0  0
   43.5640   34.4600   40.5760 C   0  0  0  0  0  0  0  0  0  0  0  0
   43.2810   35.7080   40.6650 O   0  0  0  0  0  0  0  0  0  0  0  0
   42.5150   33.7630   39.7690 C   0  0  0  0  0  0  0  0  0  0  0  0
   41.8950   32.5840   40.1140 C   0  0  0  0  0  0  0  0  0  0  0  0
   42.0120   31.9460   40.9780 H   0  0  0  0  0  0  0  0  0  0  0  0
   40.9940   32.2190   39.1640 N   0  0  0  0  0  0  0  0  0  0  0  0
   40.3720   31.3890   39.1290 H   0  0  0  0  0  0  0  0  0  0  0  0
   41.0830   33.1940   38.2440 C   0  0  0  0  0  0  0  0  0  0  0  0
   40.4930   33.2260   37.3310 H   0  0  0  0  0  0  0  0  0  0  0  0
   41.9850   34.1220   38.5910 N   0  0  0  0  0  0  0  0  0  0  0  0
  1 17  1  0  0  0  0
  1  2  1  0  0  0  0
  2  9  1  0  0  0  0
  3  2  2  0  0  0  0
  3  7  1  0  0  0  0
  4  3  1  0  0  0  0
  5  6  1  0  0  0  0
  5  4  2  0  0  0  0
  6  1  2  0  0  0  0
  8  5  1  0  0  0  0
  9 10  1  0  0  0  0
  9 13  2  0  0  0  0
 10 11  2  0  0  0  0
 11 15  1  0  0  0  0
 11 12  1  0  0  0  0
 12 16  1  0  0  0  0
 13 12  1  0  0  0  0
 14 10  1  0  0  0  0
 18 19  2  0  0  0  0
 18 17  1  0  0  0  0
 20 21  2  0  0  0  0
 20 18  1  0  0  0  0
 21 22  1  0  0  0  0
 23 21  1  0  0  0  0
 24 23  1  0  0  0  0
 25 27  2  0  0  0  0
 25 23  1  0  0  0  0
 26 25  1  0  0  0  0
 27 20  1  0  0  0  0
M  END
>  <minimizedAffinity>
-4.99684668

>  <minimizedRMSD>
0.420081735

$$$$
