
 OpenBabel03252508283D

 38 41  0  0  1  0  0  0  0  0999 V2000
   41.4350   33.5960   39.2510 N   0  0  0  0  0  0  0  0  0  0  0  0
   41.5390   33.1990   40.6580 C   0  0  2  0  0  0  0  0  0  0  0  0
   40.3600   33.6210   41.4580 C   0  0  0  0  0  0  0  0  0  0  0  0
   39.2620   34.0840   40.6300 N   0  0  0  0  0  0  0  0  0  0  0  0
   39.6180   35.0600   39.6620 C   0  0  0  0  0  0  0  0  0  0  0  0
   41.0830   35.0340   39.3060 C   0  0  2  0  0  0  0  0  0  0  0  0
   40.7400   33.0530   38.7240 H   0  0  0  0  0  0  0  0  0  0  0  0
   41.6300   32.1020   40.6800 H   0  0  0  0  0  0  0  0  0  0  0  0
   39.9340   32.7420   42.0270 H   0  0  0  0  0  0  0  0  0  0  0  0
   40.4910   34.4960   42.1170 H   0  0  0  0  0  0  0  0  0  0  0  0
   38.7780   33.2430   40.2310 H   0  0  0  0  0  0  0  0  0  0  0  0
   39.3960   36.0810   40.0300 H   0  0  0  0  0  0  0  0  0  0  0  0
   39.0040   34.9290   38.7420 H   0  0  0  0  0  0  0  0  0  0  0  0
   41.6530   35.4650   40.1360 H   0  0  0  0  0  0  0  0  0  0  0  0
   41.3580   35.7280   38.0480 C   0  0  0  0  0  0  0  0  0  0  0  0
   42.5210   35.9780   37.3820 C   0  0  0  0  0  0  0  0  0  0  0  0
   43.4990   35.6730   37.7160 H   0  0  0  0  0  0  0  0  0  0  0  0
   42.2930   36.6610   36.2440 N   0  0  0  0  0  0  0  0  0  0  0  0
   42.9430   37.0170   35.4970 H   0  0  0  0  0  0  0  0  0  0  0  0
   40.9740   36.8480   36.1830 C   0  0  0  0  0  0  0  0  0  0  0  0
   40.3850   37.3620   35.4120 H   0  0  0  0  0  0  0  0  0  0  0  0
   40.3960   36.2940   37.2600 N   0  0  0  0  0  0  0  0  0  0  0  0
   44.8060   34.2880   41.7320 C   0  0  0  0  0  0  0  0  0  0  0  0
   43.9320   35.2270   42.2950 C   0  0  0  0  0  0  0  0  0  0  0  0
   42.6270   34.9150   41.9610 C   0  0  0  0  0  0  0  0  0  0  0  0
   42.7290   33.8180   41.2140 N   0  0  0  0  0  0  0  0  0  0  0  0
   43.9980   33.4520   41.0800 N   0  0  0  0  0  0  0  0  0  0  0  0
   44.3670   36.0390   42.8910 H   0  0  0  0  0  0  0  0  0  0  0  0
   41.9460   35.6350   42.4010 H   0  0  0  0  0  0  0  0  0  0  0  0
   48.5160   34.5360   41.1750 C   0  0  0  0  0  0  0  0  0  0  0  0
   47.1200   34.5590   40.8520 C   0  0  0  0  0  0  0  0  0  0  0  0
   46.2590   34.2960   41.8890 C   0  0  0  0  0  0  0  0  0  0  0  0
   46.7550   34.0380   43.1270 N   0  0  0  0  0  0  0  0  0  0  0  0
   48.0730   34.0220   43.4090 C   0  0  0  0  0  0  0  0  0  0  0  0
   48.9300   34.2720   42.4200 N   0  0  0  0  0  0  0  0  0  0  0  0
   49.1810   34.7440   40.3440 H   0  0  0  0  0  0  0  0  0  0  0  0
   46.7450   34.7640   39.8720 H   0  0  0  0  0  0  0  0  0  0  0  0
   48.3590   33.8060   44.4210 H   0  0  0  0  0  0  0  0  0  0  0  0
  1  6  1  0  0  0  0
  1  2  1  0  0  0  0
  2  8  1  1  0  0  0
  2 26  1  0  0  0  0
  2  3  1  0  0  0  0
  3  9  1  0  0  0  0
  3 10  1  0  0  0  0
  4  3  1  0  0  0  0
  5 12  1  0  0  0  0
  5  4  1  0  0  0  0
  6  5  1  0  0  0  0
  6 14  1  1  0  0  0
  7  1  1  0  0  0  0
 11  4  1  0  0  0  0
 13  5  1  0  0  0  0
 15  6  1  0  0  0  0
 16 17  1  0  0  0  0
 16 15  2  0  0  0  0
 18 16  1  0  0  0  0
 19 18  1  0  0  0  0
 20 18  1  0  0  0  0
 20 22  2  0  0  0  0
 21 20  1  0  0  0  0
 22 15  1  0  0  0  0
 23 32  1  0  0  0  0
 23 24  1  0  0  0  0
 24 28  1  0  0  0  0
 25 24  2  0  0  0  0
 25 29  1  0  0  0  0
 26 25  1  0  0  0  0
 27 26  1  0  0  0  0
 27 23  2  0  0  0  0
 30 35  1  0  0  0  0
 31 30  2  0  0  0  0
 31 32  1  0  0  0  0
 32 33  2  0  0  0  0
 33 34  1  0  0  0  0
 34 38  1  0  0  0  0
 35 34  2  0  0  0  0
 36 30  1  0  0  0  0
 37 31  1  0  0  0  0
M  END
>  <minimizedAffinity>
-4.46069431

>  <minimizedRMSD>
1.55740047

$$$$
