
 OpenBabel03242519463D

 37 39  0  0  1  0  0  0  0  0999 V2000
   46.6300   32.6460   46.5040 C   0  0  2  0  0  0  0  0  0  0  0  0
   47.1310   32.7070   45.1170 C   0  0  1  0  0  0  0  0  0  0  0  0
   46.7760   31.3910   44.5640 O   0  0  0  0  0  0  0  0  0  0  0  0
   47.4100   30.6220   45.5610 C   0  0  0  0  0  0  0  0  0  0  0  0
   46.6560   31.1560   46.8150 C   0  0  2  0  0  0  0  0  0  0  0  0
   47.1900   33.2330   47.2380 H   0  0  0  0  0  0  0  0  0  0  0  0
   48.2500   32.7530   45.0810 H   0  0  0  0  0  0  0  0  0  0  0  0
   47.3020   29.5620   45.4170 H   0  0  0  0  0  0  0  0  0  0  0  0
   48.4680   30.9250   45.6480 H   0  0  0  0  0  0  0  0  0  0  0  0
   47.3010   30.8720   47.6770 H   0  0  0  0  0  0  0  0  0  0  0  0
   44.7640   35.2440   44.0030 C   0  0  0  0  0  0  0  0  0  0  0  0
   45.3560   35.7740   42.8490 C   0  0  0  0  0  0  0  0  0  0  0  0
   46.5970   35.2410   42.4420 C   0  0  0  0  0  0  0  0  0  0  0  0
   47.1630   34.2510   43.1700 N   0  0  0  0  0  0  0  0  0  0  0  0
   46.5700   33.7590   44.2790 C   0  0  0  0  0  0  0  0  0  0  0  0
   45.3690   34.2480   44.7040 N   0  0  0  0  0  0  0  0  0  0  0  0
   44.8460   36.5560   42.3290 H   0  0  0  0  0  0  0  0  0  0  0  0
   47.0300   35.6600   41.5600 H   0  0  0  0  0  0  0  0  0  0  0  0
   43.5320   35.7270   44.4660 O   0  0  0  0  0  0  0  0  0  0  0  0
   42.7270   35.4900   43.8980 H   0  0  0  0  0  0  0  0  0  0  0  0
   45.2600   33.0830   46.5370 O   0  0  0  0  0  0  0  0  0  0  0  0
   44.7100   32.3430   46.1450 H   0  0  0  0  0  0  0  0  0  0  0  0
   45.4180   30.6190   46.7820 O   0  0  0  0  0  0  0  0  0  0  0  0
   45.0560   29.6890   47.7090 C   0  0  0  0  0  0  0  0  0  0  0  0
   44.9850   30.1080   48.7060 H   0  0  0  0  0  0  0  0  0  0  0  0
   43.8810   29.5110   47.5090 H   0  0  0  0  0  0  0  0  0  0  0  0
   45.6840   28.3640   47.6140 C   0  0  0  0  0  0  0  0  0  0  0  0
   46.2790   28.0860   48.5280 H   0  0  0  0  0  0  0  0  0  0  0  0
   46.3370   28.1920   46.7640 H   0  0  0  0  0  0  0  0  0  0  0  0
   44.5640   27.3630   47.4380 C   0  0  0  0  0  0  0  0  0  0  0  0
   43.6970   27.2630   46.3480 C   0  0  0  0  0  0  0  0  0  0  0  0
   43.8040   27.9620   45.5150 H   0  0  0  0  0  0  0  0  0  0  0  0
   42.8370   26.2330   46.5810 N   0  0  0  0  0  0  0  0  0  0  0  0
   42.1340   26.0540   45.8360 H   0  0  0  0  0  0  0  0  0  0  0  0
   43.1500   25.7010   47.7740 C   0  0  0  0  0  0  0  0  0  0  0  0
   42.5940   24.8660   48.1640 H   0  0  0  0  0  0  0  0  0  0  0  0
   44.1810   26.3700   48.2930 N   0  0  0  0  0  0  0  0  0  0  0  0
  1 21  1  0  0  0  0
  1  5  1  0  0  0  0
  1  6  1  1  0  0  0
  2  7  1  1  0  0  0
  2  1  1  0  0  0  0
  3  2  1  0  0  0  0
  3  4  1  0  0  0  0
  4  9  1  0  0  0  0
  4  5  1  0  0  0  0
  5 10  1  1  0  0  0
  8  4  1  0  0  0  0
 11 19  1  0  0  0  0
 11 16  1  0  0  0  0
 12 11  2  0  0  0  0
 13 12  1  0  0  0  0
 13 14  2  0  0  0  0
 14 15  1  0  0  0  0
 15 16  2  0  0  0  0
 15  2  1  0  0  0  0
 17 12  1  0  0  0  0
 18 13  1  0  0  0  0
 20 19  1  0  0  0  0
 22 21  1  0  0  0  0
 23  5  1  0  0  0  0
 23 24  1  0  0  0  0
 24 25  1  0  0  0  0
 26 24  1  0  0  0  0
 27 24  1  0  0  0  0
 27 28  1  0  0  0  0
 29 27  1  0  0  0  0
 30 27  1  0  0  0  0
 30 37  1  0  0  0  0
 31 33  1  0  0  0  0
 31 30  2  0  0  0  0
 32 31  1  0  0  0  0
 33 35  1  0  0  0  0
 34 33  1  0  0  0  0
 35 36  1  0  0  0  0
 35 37  2  0  0  0  0
M  END
>  <minimizedAffinity>
-5.18383312

>  <minimizedRMSD>
1.21330404

$$$$
