
 OpenBabel03242518223D

 31 33  0  0  0  0  0  0  0  0999 V2000
   45.1950   34.3960   44.7830 C   0  0  0  0  0  0  0  0  0  0  0  0
   45.2570   33.5480   43.6790 C   0  0  0  0  0  0  0  0  0  0  0  0
   45.6760   32.2390   43.8680 C   0  0  0  0  0  0  0  0  0  0  0  0
   46.0100   31.8300   45.1210 N   0  0  0  0  0  0  0  0  0  0  0  0
   45.9410   32.6730   46.1720 C   0  0  0  0  0  0  0  0  0  0  0  0
   45.5370   33.9470   46.0090 N   0  0  0  0  0  0  0  0  0  0  0  0
   44.8990   35.4330   44.8380 H   0  0  0  0  0  0  0  0  0  0  0  0
   45.7030   31.6350   42.9760 H   0  0  0  0  0  0  0  0  0  0  0  0
   44.8710   34.1340   42.4410 N   0  0  0  0  0  0  0  0  0  0  0  0
   44.8280   33.2770   41.2880 C   0  0  0  0  0  0  0  0  0  0  0  0
   44.4520   33.9680   40.0320 C   0  0  0  0  0  0  0  0  0  0  0  0
   43.3660   34.8810   40.1570 N   0  0  0  0  0  0  0  0  0  0  0  0
   43.2140   35.5600   41.3860 C   0  0  0  0  0  0  0  0  0  0  0  0
   44.5090   35.4950   42.1800 C   0  0  0  0  0  0  0  0  0  0  0  0
   44.0270   32.5050   41.4810 H   0  0  0  0  0  0  0  0  0  0  0  0
   45.8150   32.8000   41.1730 H   0  0  0  0  0  0  0  0  0  0  0  0
   45.3660   34.5230   39.6770 H   0  0  0  0  0  0  0  0  0  0  0  0
   44.2200   33.2070   39.2570 H   0  0  0  0  0  0  0  0  0  0  0  0
   43.5120   35.6220   39.4080 H   0  0  0  0  0  0  0  0  0  0  0  0
   42.8620   36.5910   41.3310 H   0  0  0  0  0  0  0  0  0  0  0  0
   42.4560   35.0000   42.0030 H   0  0  0  0  0  0  0  0  0  0  0  0
   45.2850   35.9120   41.4930 H   0  0  0  0  0  0  0  0  0  0  0  0
   44.3440   36.1220   43.0610 H   0  0  0  0  0  0  0  0  0  0  0  0
   46.3290   32.1140   47.4790 C   0  0  0  0  0  0  0  0  0  0  0  0
   45.6180   32.2070   48.6670 C   0  0  0  0  0  0  0  0  0  0  0  0
   44.6650   32.7250   48.7470 H   0  0  0  0  0  0  0  0  0  0  0  0
   46.3340   31.5560   49.6150 N   0  0  0  0  0  0  0  0  0  0  0  0
   46.0520   31.4600   50.6020 H   0  0  0  0  0  0  0  0  0  0  0  0
   47.4380   31.0770   49.0540 C   0  0  0  0  0  0  0  0  0  0  0  0
   48.2280   30.5150   49.4960 H   0  0  0  0  0  0  0  0  0  0  0  0
   47.4450   31.4160   47.7330 N   0  0  0  0  0  0  0  0  0  0  0  0
  1  7  1  0  0  0  0
  1  6  1  0  0  0  0
  2  3  1  0  0  0  0
  2  1  2  0  0  0  0
  3  4  2  0  0  0  0
  4  5  1  0  0  0  0
  5 24  1  0  0  0  0
  6  5  2  0  0  0  0
  8  3  1  0  0  0  0
  9  2  1  0  0  0  0
 10 15  1  0  0  0  0
 10  9  1  0  0  0  0
 11 12  1  0  0  0  0
 11 10  1  0  0  0  0
 12 13  1  0  0  0  0
 13 21  1  0  0  0  0
 13 14  1  0  0  0  0
 14  9  1  0  0  0  0
 14 23  1  0  0  0  0
 16 10  1  0  0  0  0
 17 11  1  0  0  0  0
 18 11  1  0  0  0  0
 19 12  1  0  0  0  0
 20 13  1  0  0  0  0
 22 14  1  0  0  0  0
 24 31  1  0  0  0  0
 24 25  2  0  0  0  0
 25 26  1  0  0  0  0
 25 27  1  0  0  0  0
 27 28  1  0  0  0  0
 29 30  1  0  0  0  0
 29 27  1  0  0  0  0
 31 29  2  0  0  0  0
M  END
>  <minimizedAffinity>
-4.7512641

>  <minimizedRMSD>
1.24915123

$$$$
