
 OpenBabel03252508283D

 38 41  0  0  1  0  0  0  0  0999 V2000
   41.8430   33.9670   41.7780 N   0  0  0  0  0  0  0  0  0  0  0  0
   42.1230   34.8650   40.6540 C   0  0  2  0  0  0  0  0  0  0  0  0
   40.9230   35.1220   39.8160 C   0  0  0  0  0  0  0  0  0  0  0  0
   39.6980   34.6540   40.4400 N   0  0  0  0  0  0  0  0  0  0  0  0
   39.7400   33.3130   40.9020 C   0  0  0  0  0  0  0  0  0  0  0  0
   41.1420   32.8180   41.1580 C   0  0  2  0  0  0  0  0  0  0  0  0
   41.2780   34.4020   42.5180 H   0  0  0  0  0  0  0  0  0  0  0  0
   42.4900   35.8130   41.0790 H   0  0  0  0  0  0  0  0  0  0  0  0
   40.7660   36.2330   39.6820 H   0  0  0  0  0  0  0  0  0  0  0  0
   40.8650   34.5920   38.8500 H   0  0  0  0  0  0  0  0  0  0  0  0
   39.4200   35.3510   41.1740 H   0  0  0  0  0  0  0  0  0  0  0  0
   39.2890   32.6250   40.1590 H   0  0  0  0  0  0  0  0  0  0  0  0
   39.1280   33.2060   41.8260 H   0  0  0  0  0  0  0  0  0  0  0  0
   41.6310   32.6360   40.1940 H   0  0  0  0  0  0  0  0  0  0  0  0
   41.1610   31.6250   42.0030 C   0  0  0  0  0  0  0  0  0  0  0  0
   40.1660   30.9440   42.6390 C   0  0  0  0  0  0  0  0  0  0  0  0
   39.1220   31.2100   42.6090 H   0  0  0  0  0  0  0  0  0  0  0  0
   40.6540   29.8860   43.3150 N   0  0  0  0  0  0  0  0  0  0  0  0
   40.1840   29.1550   43.9070 H   0  0  0  0  0  0  0  0  0  0  0  0
   41.9720   29.8930   43.1100 C   0  0  0  0  0  0  0  0  0  0  0  0
   42.7320   29.1980   43.4880 H   0  0  0  0  0  0  0  0  0  0  0  0
   42.2930   30.9320   42.3220 N   0  0  0  0  0  0  0  0  0  0  0  0
   45.0230   33.3630   39.1220 C   0  0  0  0  0  0  0  0  0  0  0  0
   44.0570   33.3490   38.1090 C   0  0  0  0  0  0  0  0  0  0  0  0
   42.8810   33.9130   38.5700 C   0  0  0  0  0  0  0  0  0  0  0  0
   43.1480   34.2490   39.8300 N   0  0  0  0  0  0  0  0  0  0  0  0
   44.3950   33.9300   40.1530 N   0  0  0  0  0  0  0  0  0  0  0  0
   44.3370   32.9190   37.1390 H   0  0  0  0  0  0  0  0  0  0  0  0
   42.1320   33.9100   37.7860 H   0  0  0  0  0  0  0  0  0  0  0  0
   48.1330   31.5590   38.0250 C   0  0  0  0  0  0  0  0  0  0  0  0
   46.7520   31.9420   38.0320 C   0  0  0  0  0  0  0  0  0  0  0  0
   46.3880   32.8610   38.9850 C   0  0  0  0  0  0  0  0  0  0  0  0
   47.3210   33.3460   39.8430 N   0  0  0  0  0  0  0  0  0  0  0  0
   48.6160   32.9720   39.8200 C   0  0  0  0  0  0  0  0  0  0  0  0
   48.9970   32.0810   38.9060 N   0  0  0  0  0  0  0  0  0  0  0  0
   48.4030   30.8320   37.2670 H   0  0  0  0  0  0  0  0  0  0  0  0
   46.0300   31.5510   37.3480 H   0  0  0  0  0  0  0  0  0  0  0  0
   49.2730   33.4160   40.5440 H   0  0  0  0  0  0  0  0  0  0  0  0
  1  7  1  0  0  0  0
  2  8  1  1  0  0  0
  2  1  1  0  0  0  0
  3  4  1  0  0  0  0
  3  2  1  0  0  0  0
  4  5  1  0  0  0  0
  4 11  1  0  0  0  0
  5  6  1  0  0  0  0
  5 13  1  0  0  0  0
  6 14  1  6  0  0  0
  6  1  1  0  0  0  0
  6 15  1  0  0  0  0
  9  3  1  0  0  0  0
 10  3  1  0  0  0  0
 12  5  1  0  0  0  0
 15 22  1  0  0  0  0
 15 16  2  0  0  0  0
 16 18  1  0  0  0  0
 17 16  1  0  0  0  0
 18 19  1  0  0  0  0
 20 18  1  0  0  0  0
 20 21  1  0  0  0  0
 22 20  2  0  0  0  0
 23 27  2  0  0  0  0
 24 25  2  0  0  0  0
 24 23  1  0  0  0  0
 25 26  1  0  0  0  0
 26 27  1  0  0  0  0
 26  2  1  0  0  0  0
 28 24  1  0  0  0  0
 29 25  1  0  0  0  0
 30 31  2  0  0  0  0
 30 35  1  0  0  0  0
 31 32  1  0  0  0  0
 32 23  1  0  0  0  0
 32 33  2  0  0  0  0
 34 33  1  0  0  0  0
 34 38  1  0  0  0  0
 35 34  2  0  0  0  0
 36 30  1  0  0  0  0
 37 31  1  0  0  0  0
M  END
>  <minimizedAffinity>
-4.27896643

>  <minimizedRMSD>
4.82830286

$$$$
