
 OpenBabel03252508283D

 38 41  0  0  1  0  0  0  0  0999 V2000
   41.5810   33.6520   39.3900 N   0  0  0  0  0  0  0  0  0  0  0  0
   41.7040   33.2830   40.8030 C   0  0  2  0  0  0  0  0  0  0  0  0
   40.5360   33.7200   41.6110 C   0  0  0  0  0  0  0  0  0  0  0  0
   39.4260   34.1660   40.7880 N   0  0  0  0  0  0  0  0  0  0  0  0
   39.7680   35.1230   39.7970 C   0  0  0  0  0  0  0  0  0  0  0  0
   41.2280   35.0910   39.4210 C   0  0  2  0  0  0  0  0  0  0  0  0
   40.8780   33.0990   38.8820 H   0  0  0  0  0  0  0  0  0  0  0  0
   41.7960   32.1860   40.8450 H   0  0  0  0  0  0  0  0  0  0  0  0
   40.1180   32.8520   42.2020 H   0  0  0  0  0  0  0  0  0  0  0  0
   40.6750   34.6080   42.2510 H   0  0  0  0  0  0  0  0  0  0  0  0
   38.9370   33.3170   40.4130 H   0  0  0  0  0  0  0  0  0  0  0  0
   39.5510   36.1510   40.1490 H   0  0  0  0  0  0  0  0  0  0  0  0
   39.1420   34.9750   38.8880 H   0  0  0  0  0  0  0  0  0  0  0  0
   41.8090   35.5380   40.2350 H   0  0  0  0  0  0  0  0  0  0  0  0
   41.4860   35.7610   38.1460 C   0  0  0  0  0  0  0  0  0  0  0  0
   42.6220   35.9080   37.4090 C   0  0  0  0  0  0  0  0  0  0  0  0
   43.5880   35.5150   37.6820 H   0  0  0  0  0  0  0  0  0  0  0  0
   42.3860   36.6110   36.2850 N   0  0  0  0  0  0  0  0  0  0  0  0
   43.0170   36.9090   35.4990 H   0  0  0  0  0  0  0  0  0  0  0  0
   41.0880   36.9150   36.3060 C   0  0  0  0  0  0  0  0  0  0  0  0
   40.5000   37.4820   35.5710 H   0  0  0  0  0  0  0  0  0  0  0  0
   40.5310   36.4120   37.4190 N   0  0  0  0  0  0  0  0  0  0  0  0
   44.9730   34.3360   41.9050 C   0  0  0  0  0  0  0  0  0  0  0  0
   44.1370   35.4070   42.2450 C   0  0  0  0  0  0  0  0  0  0  0  0
   42.8340   35.1240   41.8780 C   0  0  0  0  0  0  0  0  0  0  0  0
   42.9010   33.9130   41.3300 N   0  0  0  0  0  0  0  0  0  0  0  0
   44.1460   33.4530   41.3460 N   0  0  0  0  0  0  0  0  0  0  0  0
   44.5930   36.2800   42.7290 H   0  0  0  0  0  0  0  0  0  0  0  0
   42.1830   35.9480   42.1460 H   0  0  0  0  0  0  0  0  0  0  0  0
   48.6760   34.9820   41.9550 C   0  0  0  0  0  0  0  0  0  0  0  0
   47.3000   35.1660   41.5990 C   0  0  0  0  0  0  0  0  0  0  0  0
   46.4110   34.2820   42.1590 C   0  0  0  0  0  0  0  0  0  0  0  0
   46.8620   33.3120   42.9940 N   0  0  0  0  0  0  0  0  0  0  0  0
   48.1620   33.1570   43.3170 C   0  0  0  0  0  0  0  0  0  0  0  0
   49.0460   34.0000   42.7860 N   0  0  0  0  0  0  0  0  0  0  0  0
   49.3640   35.6880   41.5040 H   0  0  0  0  0  0  0  0  0  0  0  0
   46.9610   35.9360   40.9390 H   0  0  0  0  0  0  0  0  0  0  0  0
   48.4130   32.3560   43.9870 H   0  0  0  0  0  0  0  0  0  0  0  0
  1  6  1  0  0  0  0
  1  2  1  0  0  0  0
  2  8  1  1  0  0  0
  2 26  1  0  0  0  0
  2  3  1  0  0  0  0
  3  9  1  0  0  0  0
  3 10  1  0  0  0  0
  4  3  1  0  0  0  0
  5 12  1  0  0  0  0
  5  4  1  0  0  0  0
  6  5  1  0  0  0  0
  6 14  1  1  0  0  0
  7  1  1  0  0  0  0
 11  4  1  0  0  0  0
 13  5  1  0  0  0  0
 15  6  1  0  0  0  0
 16 17  1  0  0  0  0
 16 15  2  0  0  0  0
 18 20  1  0  0  0  0
 18 16  1  0  0  0  0
 19 18  1  0  0  0  0
 20 22  2  0  0  0  0
 21 20  1  0  0  0  0
 22 15  1  0  0  0  0
 23 32  1  0  0  0  0
 23 24  1  0  0  0  0
 24 28  1  0  0  0  0
 25 29  1  0  0  0  0
 25 24  2  0  0  0  0
 26 27  1  0  0  0  0
 26 25  1  0  0  0  0
 27 23  2  0  0  0  0
 30 35  1  0  0  0  0
 31 30  2  0  0  0  0
 31 32  1  0  0  0  0
 32 33  2  0  0  0  0
 33 34  1  0  0  0  0
 34 38  1  0  0  0  0
 35 34  2  0  0  0  0
 36 30  1  0  0  0  0
 37 31  1  0  0  0  0
M  END
>  <minimizedAffinity>
-4.55956316

>  <minimizedRMSD>
1.36925471

$$$$
