
 OpenBabel03252501103D

 19 20  0  0  0  0  0  0  0  0999 V2000
   46.9280   34.8960   42.0500 C   0  0  0  0  0  0  0  0  0  0  0  0
   48.0570   35.4560   41.9080 O   0  0  0  0  0  0  0  0  0  0  0  0
   44.5490   35.9270   44.6740 C   0  0  0  0  0  0  0  0  0  0  0  0
   45.2880   35.9220   43.4690 C   0  0  0  0  0  0  0  0  0  0  0  0
   46.1850   34.8790   43.2890 C   0  0  0  0  0  0  0  0  0  0  0  0
   46.2960   33.9420   44.2620 N   0  0  0  0  0  0  0  0  0  0  0  0
   45.5750   33.9780   45.3990 C   0  0  0  0  0  0  0  0  0  0  0  0
   44.6890   34.9860   45.6060 N   0  0  0  0  0  0  0  0  0  0  0  0
   43.8210   36.7150   44.8910 H   0  0  0  0  0  0  0  0  0  0  0  0
   45.0770   36.7440   42.7990 H   0  0  0  0  0  0  0  0  0  0  0  0
   45.7680   33.1720   46.0770 H   0  0  0  0  0  0  0  0  0  0  0  0
   46.3650   34.2360   40.8710 C   0  0  0  0  0  0  0  0  0  0  0  0
   47.1160   33.9050   39.7370 C   0  0  0  0  0  0  0  0  0  0  0  0
   48.1590   34.0570   39.5270 H   0  0  0  0  0  0  0  0  0  0  0  0
   46.2000   33.3190   38.9110 N   0  0  0  0  0  0  0  0  0  0  0  0
   46.4870   32.9590   37.9560 H   0  0  0  0  0  0  0  0  0  0  0  0
   44.9720   33.2730   39.4530 C   0  0  0  0  0  0  0  0  0  0  0  0
   44.1380   32.8360   38.9180 H   0  0  0  0  0  0  0  0  0  0  0  0
   45.0870   33.8480   40.6790 N   0  0  0  0  0  0  0  0  0  0  0  0
  1  5  1  0  0  0  0
  2  1  2  0  0  0  0
  3  9  1  0  0  0  0
  3  8  1  0  0  0  0
  4  3  2  0  0  0  0
  5  4  1  0  0  0  0
  5  6  2  0  0  0  0
  6  7  1  0  0  0  0
  7  8  2  0  0  0  0
  7 11  1  0  0  0  0
 10  4  1  0  0  0  0
 12  1  1  0  0  0  0
 13 12  2  0  0  0  0
 14 13  1  0  0  0  0
 15 17  1  0  0  0  0
 15 13  1  0  0  0  0
 16 15  1  0  0  0  0
 17 19  2  0  0  0  0
 18 17  1  0  0  0  0
 19 12  1  0  0  0  0
M  END
>  <minimizedAffinity>
-4.07134724

>  <minimizedRMSD>
0.561405599

$$$$
