
 OpenBabel03252507093D

 23 24  0  0  0  0  0  0  0  0999 V2000
   38.9200   34.1590   40.6490 C   0  0  0  0  0  0  0  0  0  0  0  0
   40.1200   33.9240   39.9550 C   0  0  0  0  0  0  0  0  0  0  0  0
   40.4510   32.6250   39.6000 C   0  0  0  0  0  0  0  0  0  0  0  0
   39.5860   31.6170   39.9420 N   0  0  0  0  0  0  0  0  0  0  0  0
   38.4440   31.8680   40.6040 C   0  0  0  0  0  0  0  0  0  0  0  0
   38.1030   33.1160   40.9590 N   0  0  0  0  0  0  0  0  0  0  0  0
   38.6070   35.1430   40.9530 H   0  0  0  0  0  0  0  0  0  0  0  0
   40.7560   34.7920   39.7210 H   0  0  0  0  0  0  0  0  0  0  0  0
   37.5880   30.7280   40.9230 C   0  0  0  0  0  0  0  0  0  0  0  0
   36.2090   30.8670   40.8960 C   0  0  0  0  0  0  0  0  0  0  0  0
   35.5390   31.6990   40.6740 H   0  0  0  0  0  0  0  0  0  0  0  0
   35.6700   29.6780   41.2250 N   0  0  0  0  0  0  0  0  0  0  0  0
   34.6950   29.3000   41.3370 H   0  0  0  0  0  0  0  0  0  0  0  0
   36.6670   28.7950   41.4590 C   0  0  0  0  0  0  0  0  0  0  0  0
   36.7120   27.7480   41.7450 H   0  0  0  0  0  0  0  0  0  0  0  0
   37.8560   29.4360   41.2740 N   0  0  0  0  0  0  0  0  0  0  0  0
   41.6400   32.4340   38.9190 O   0  0  0  0  0  0  0  0  0  0  0  0
   42.5400   31.3900   36.6720 O   0  0  0  0  0  0  0  0  0  0  0  0
   41.6430   32.5100   37.2060 P   0  0  0  0  0  0  0  0  0  0  0  0
   40.0720   32.3770   36.6570 O   0  0  0  0  0  0  0  0  0  0  0  0
   39.9290   33.0620   35.9580 H   0  0  0  0  0  0  0  0  0  0  0  0
   42.3480   33.9950   36.7660 O   0  0  0  0  0  0  0  0  0  0  0  0
   43.3440   33.8620   36.7680 H   0  0  0  0  0  0  0  0  0  0  0  0
  1  7  1  0  0  0  0
  1  6  1  0  0  0  0
  2  1  2  0  0  0  0
  3  4  2  0  0  0  0
  3  2  1  0  0  0  0
  4  5  1  0  0  0  0
  5  9  1  0  0  0  0
  5  6  2  0  0  0  0
  8  2  1  0  0  0  0
  9 16  1  0  0  0  0
 10  9  2  0  0  0  0
 10 12  1  0  0  0  0
 11 10  1  0  0  0  0
 12 13  1  0  0  0  0
 12 14  1  0  0  0  0
 14 15  1  0  0  0  0
 16 14  2  0  0  0  0
 17  3  1  0  0  0  0
 18 19  2  0  0  0  0
 19 17  1  0  0  0  0
 20 19  1  0  0  0  0
 21 20  1  0  0  0  0
 22 23  1  0  0  0  0
 22 19  1  0  0  0  0
M  END
>  <minimizedAffinity>
-5.16298914

$$$$

 OpenBabel03252507093D

 23 24  0  0  0  0  0  0  0  0999 V2000
   41.0900   31.3040   42.1800 C   0  0  0  0  0  0  0  0  0  0  0  0
   41.4750   32.1950   41.1640 C   0  0  0  0  0  0  0  0  0  0  0  0
   40.5950   32.4560   40.1240 C   0  0  0  0  0  0  0  0  0  0  0  0
   39.3760   31.8280   40.1320 N   0  0  0  0  0  0  0  0  0  0  0  0
   39.0300   30.9800   41.1150 C   0  0  0  0  0  0  0  0  0  0  0  0
   39.8650   30.7120   42.1310 N   0  0  0  0  0  0  0  0  0  0  0  0
   41.7260   31.0600   43.0120 H   0  0  0  0  0  0  0  0  0  0  0  0
   42.4740   32.6560   41.2360 H   0  0  0  0  0  0  0  0  0  0  0  0
   37.7100   30.3610   41.0350 C   0  0  0  0  0  0  0  0  0  0  0  0
   36.5740   31.1540   40.9840 C   0  0  0  0  0  0  0  0  0  0  0  0
   36.4060   32.2320   40.9880 H   0  0  0  0  0  0  0  0  0  0  0  0
   35.5060   30.3370   40.9150 N   0  0  0  0  0  0  0  0  0  0  0  0
   34.4630   30.4650   40.8600 H   0  0  0  0  0  0  0  0  0  0  0  0
   35.9340   29.0540   40.9220 C   0  0  0  0  0  0  0  0  0  0  0  0
   35.4480   28.0830   40.8830 H   0  0  0  0  0  0  0  0  0  0  0  0
   37.2960   29.0600   40.9960 N   0  0  0  0  0  0  0  0  0  0  0  0
   41.0110   33.3380   39.1430 O   0  0  0  0  0  0  0  0  0  0  0  0
   42.2760   31.5170   37.7180 O   0  0  0  0  0  0  0  0  0  0  0  0
   41.3630   32.7370   37.5750 P   0  0  0  0  0  0  0  0  0  0  0  0
   39.9290   32.3680   36.8050 O   0  0  0  0  0  0  0  0  0  0  0  0
   39.9730   32.7210   35.8820 H   0  0  0  0  0  0  0  0  0  0  0  0
   42.2340   33.9470   36.7540 O   0  0  0  0  0  0  0  0  0  0  0  0
   43.1990   33.8460   37.0160 H   0  0  0  0  0  0  0  0  0  0  0  0
  1  7  1  0  0  0  0
  2  8  1  0  0  0  0
  2  1  2  0  0  0  0
  3  4  2  0  0  0  0
  3  2  1  0  0  0  0
  4  5  1  0  0  0  0
  5  6  2  0  0  0  0
  6  1  1  0  0  0  0
  9  5  1  0  0  0  0
 10 11  1  0  0  0  0
 10  9  2  0  0  0  0
 12 14  1  0  0  0  0
 12 10  1  0  0  0  0
 13 12  1  0  0  0  0
 14 16  2  0  0  0  0
 15 14  1  0  0  0  0
 16  9  1  0  0  0  0
 17  3  1  0  0  0  0
 19 18  2  0  0  0  0
 19 17  1  0  0  0  0
 20 19  1  0  0  0  0
 21 20  1  0  0  0  0
 22 23  1  0  0  0  0
 22 19  1  0  0  0  0
M  END
>  <minimizedAffinity>
-5.02985811

$$$$

 OpenBabel03252507093D

 23 24  0  0  0  0  0  0  0  0999 V2000
   38.6880   27.9830   43.4860 C   0  0  0  0  0  0  0  0  0  0  0  0
   38.7250   29.2430   42.8640 C   0  0  0  0  0  0  0  0  0  0  0  0
   38.2050   29.3800   41.5850 C   0  0  0  0  0  0  0  0  0  0  0  0
   37.6730   28.2720   40.9780 N   0  0  0  0  0  0  0  0  0  0  0  0
   37.6490   27.0780   41.5940 C   0  0  0  0  0  0  0  0  0  0  0  0
   38.1460   26.9210   42.8310 N   0  0  0  0  0  0  0  0  0  0  0  0
   39.0750   27.8120   44.4760 H   0  0  0  0  0  0  0  0  0  0  0  0
   39.1710   30.0810   43.4240 H   0  0  0  0  0  0  0  0  0  0  0  0
   37.0610   25.9570   40.8660 C   0  0  0  0  0  0  0  0  0  0  0  0
   36.8990   24.7310   41.4920 C   0  0  0  0  0  0  0  0  0  0  0  0
   37.1250   24.3600   42.4930 H   0  0  0  0  0  0  0  0  0  0  0  0
   36.3410   23.8870   40.6040 N   0  0  0  0  0  0  0  0  0  0  0  0
   36.0370   22.8800   40.6120 H   0  0  0  0  0  0  0  0  0  0  0  0
   36.1460   24.5440   39.4380 C   0  0  0  0  0  0  0  0  0  0  0  0
   35.7370   24.2780   38.4670 H   0  0  0  0  0  0  0  0  0  0  0  0
   36.5890   25.8250   39.5910 N   0  0  0  0  0  0  0  0  0  0  0  0
   38.2600   30.6360   41.0060 O   0  0  0  0  0  0  0  0  0  0  0  0
   36.6320   30.9170   38.9520 O   0  0  0  0  0  0  0  0  0  0  0  0
   36.8160   31.3440   40.4100 P   0  0  0  0  0  0  0  0  0  0  0  0
   35.5420   30.8640   41.3750 O   0  0  0  0  0  0  0  0  0  0  0  0
   34.9850   31.6580   41.5710 H   0  0  0  0  0  0  0  0  0  0  0  0
   37.0330   33.0320   40.4350 O   0  0  0  0  0  0  0  0  0  0  0  0
   37.5120   33.2810   39.5880 H   0  0  0  0  0  0  0  0  0  0  0  0
  1  7  1  0  0  0  0
  2  8  1  0  0  0  0
  2  1  1  0  0  0  0
  3  2  2  0  0  0  0
  4  3  1  0  0  0  0
  4  5  2  0  0  0  0
  5  6  1  0  0  0  0
  6  1  2  0  0  0  0
  9 10  2  0  0  0  0
  9  5  1  0  0  0  0
 10 11  1  0  0  0  0
 12 13  1  0  0  0  0
 12 10  1  0  0  0  0
 14 16  2  0  0  0  0
 14 12  1  0  0  0  0
 15 14  1  0  0  0  0
 16  9  1  0  0  0  0
 17  3  1  0  0  0  0
 18 19  2  0  0  0  0
 19 22  1  0  0  0  0
 19 17  1  0  0  0  0
 19 20  1  0  0  0  0
 20 21  1  0  0  0  0
 23 22  1  0  0  0  0
M  END
>  <minimizedAffinity>
-4.96455717

$$$$

 OpenBabel03252507093D

 23 24  0  0  0  0  0  0  0  0999 V2000
   34.9930   29.2940   40.1250 C   0  0  0  0  0  0  0  0  0  0  0  0
   35.8380   30.1830   40.8130 C   0  0  0  0  0  0  0  0  0  0  0  0
   36.8920   30.7750   40.1330 C   0  0  0  0  0  0  0  0  0  0  0  0
   37.0660   30.4660   38.8090 N   0  0  0  0  0  0  0  0  0  0  0  0
   36.2450   29.6140   38.1730 C   0  0  0  0  0  0  0  0  0  0  0  0
   35.2180   29.0290   38.8100 N   0  0  0  0  0  0  0  0  0  0  0  0
   34.1590   28.8030   40.5960 H   0  0  0  0  0  0  0  0  0  0  0  0
   35.6260   30.3740   41.8770 H   0  0  0  0  0  0  0  0  0  0  0  0
   36.5110   29.3490   36.7620 C   0  0  0  0  0  0  0  0  0  0  0  0
   37.6290   28.6160   36.3920 C   0  0  0  0  0  0  0  0  0  0  0  0
   38.4380   28.1430   36.9500 H   0  0  0  0  0  0  0  0  0  0  0  0
   37.6330   28.5220   35.0490 N   0  0  0  0  0  0  0  0  0  0  0  0
   38.2570   28.0780   34.3280 H   0  0  0  0  0  0  0  0  0  0  0  0
   36.5520   29.1720   34.5620 C   0  0  0  0  0  0  0  0  0  0  0  0
   36.1520   29.3570   33.5680 H   0  0  0  0  0  0  0  0  0  0  0  0
   35.8530   29.6860   35.6140 N   0  0  0  0  0  0  0  0  0  0  0  0
   37.7020   31.6430   40.8440 O   0  0  0  0  0  0  0  0  0  0  0  0
   39.4420   32.8080   39.2430 O   0  0  0  0  0  0  0  0  0  0  0  0
   38.2110   33.1040   40.1050 P   0  0  0  0  0  0  0  0  0  0  0  0
   36.9470   33.7250   39.2090 O   0  0  0  0  0  0  0  0  0  0  0  0
   36.8850   34.6950   39.3930 H   0  0  0  0  0  0  0  0  0  0  0  0
   38.6900   34.1610   41.3500 O   0  0  0  0  0  0  0  0  0  0  0  0
   39.6420   33.9370   41.5780 H   0  0  0  0  0  0  0  0  0  0  0  0
  1  7  1  0  0  0  0
  1  2  1  0  0  0  0
  2  8  1  0  0  0  0
  3  2  2  0  0  0  0
  3 17  1  0  0  0  0
  4  3  1  0  0  0  0
  5  4  2  0  0  0  0
  5  6  1  0  0  0  0
  6  1  2  0  0  0  0
  9  5  1  0  0  0  0
 10  9  2  0  0  0  0
 10 11  1  0  0  0  0
 12 10  1  0  0  0  0
 13 12  1  0  0  0  0
 14 12  1  0  0  0  0
 14 16  2  0  0  0  0
 15 14  1  0  0  0  0
 16  9  1  0  0  0  0
 18 19  2  0  0  0  0
 19 17  1  0  0  0  0
 19 22  1  0  0  0  0
 20 21  1  0  0  0  0
 20 19  1  0  0  0  0
 22 23  1  0  0  0  0
M  END
>  <minimizedAffinity>
-4.747756

$$$$

 OpenBabel03252507093D

 23 24  0  0  0  0  0  0  0  0999 V2000
   35.3250   27.9040   37.4690 C   0  0  0  0  0  0  0  0  0  0  0  0
   35.7760   29.2260   37.6190 C   0  0  0  0  0  0  0  0  0  0  0  0
   36.5550   29.5530   38.7200 C   0  0  0  0  0  0  0  0  0  0  0  0
   36.8530   28.5650   39.6220 N   0  0  0  0  0  0  0  0  0  0  0  0
   36.4090   27.3070   39.4560 C   0  0  0  0  0  0  0  0  0  0  0  0
   35.6550   26.9670   38.3990 N   0  0  0  0  0  0  0  0  0  0  0  0
   34.7180   27.5870   36.6390 H   0  0  0  0  0  0  0  0  0  0  0  0
   35.4900   29.9580   36.8470 H   0  0  0  0  0  0  0  0  0  0  0  0
   36.7800   26.3250   40.4710 C   0  0  0  0  0  0  0  0  0  0  0  0
   37.2620   26.7450   41.7010 C   0  0  0  0  0  0  0  0  0  0  0  0
   37.4520   27.7250   42.1410 H   0  0  0  0  0  0  0  0  0  0  0  0
   37.5240   25.6480   42.4360 N   0  0  0  0  0  0  0  0  0  0  0  0
   37.8920   25.4610   43.4040 H   0  0  0  0  0  0  0  0  0  0  0  0
   37.2210   24.5500   41.7070 C   0  0  0  0  0  0  0  0  0  0  0  0
   37.2660   23.4780   41.8810 H   0  0  0  0  0  0  0  0  0  0  0  0
   36.7600   24.9590   40.4910 N   0  0  0  0  0  0  0  0  0  0  0  0
   36.9790   30.8660   38.8330 O   0  0  0  0  0  0  0  0  0  0  0  0
   38.2700   31.1930   41.1080 O   0  0  0  0  0  0  0  0  0  0  0  0
   36.9900   31.6090   40.3780 P   0  0  0  0  0  0  0  0  0  0  0  0
   36.8830   33.2630   40.1820 O   0  0  0  0  0  0  0  0  0  0  0  0
   36.2180   33.6100   40.8290 H   0  0  0  0  0  0  0  0  0  0  0  0
   35.6680   30.9840   41.2500 O   0  0  0  0  0  0  0  0  0  0  0  0
   35.9670   30.1160   41.6580 H   0  0  0  0  0  0  0  0  0  0  0  0
  1  2  2  0  0  0  0
  1  6  1  0  0  0  0
  2  3  1  0  0  0  0
  3 17  1  0  0  0  0
  3  4  2  0  0  0  0
  5  4  1  0  0  0  0
  5  9  1  0  0  0  0
  6  5  2  0  0  0  0
  7  1  1  0  0  0  0
  8  2  1  0  0  0  0
  9 16  1  0  0  0  0
  9 10  2  0  0  0  0
 10 11  1  0  0  0  0
 10 12  1  0  0  0  0
 12 13  1  0  0  0  0
 14 15  1  0  0  0  0
 14 12  1  0  0  0  0
 16 14  2  0  0  0  0
 17 19  1  0  0  0  0
 19 18  2  0  0  0  0
 19 22  1  0  0  0  0
 20 19  1  0  0  0  0
 20 21  1  0  0  0  0
 22 23  1  0  0  0  0
M  END
>  <minimizedAffinity>
-4.60270929

$$$$

 OpenBabel03252507093D

 23 24  0  0  0  0  0  0  0  0999 V2000
   40.9270   28.5640   42.9950 C   0  0  0  0  0  0  0  0  0  0  0  0
   40.3260   29.7590   42.5620 C   0  0  0  0  0  0  0  0  0  0  0  0
   39.0550   29.7140   42.0080 C   0  0  0  0  0  0  0  0  0  0  0  0
   38.4340   28.4970   41.9060 N   0  0  0  0  0  0  0  0  0  0  0  0
   39.0290   27.3680   42.3270 C   0  0  0  0  0  0  0  0  0  0  0  0
   40.2570   27.3870   42.8670 N   0  0  0  0  0  0  0  0  0  0  0  0
   41.9090   28.5320   43.4330 H   0  0  0  0  0  0  0  0  0  0  0  0
   40.8970   30.6940   42.6820 H   0  0  0  0  0  0  0  0  0  0  0  0
   38.2860   26.1200   42.1770 C   0  0  0  0  0  0  0  0  0  0  0  0
   38.9090   24.9060   42.4250 C   0  0  0  0  0  0  0  0  0  0  0  0
   39.9170   24.6270   42.7350 H   0  0  0  0  0  0  0  0  0  0  0  0
   38.0070   23.9300   42.2130 N   0  0  0  0  0  0  0  0  0  0  0  0
   38.0090   22.8800   42.2700 H   0  0  0  0  0  0  0  0  0  0  0  0
   36.8340   24.4910   41.8400 C   0  0  0  0  0  0  0  0  0  0  0  0
   35.8530   24.1090   41.5730 H   0  0  0  0  0  0  0  0  0  0  0  0
   36.9980   25.8450   41.8150 N   0  0  0  0  0  0  0  0  0  0  0  0
   38.4990   30.9110   41.5930 O   0  0  0  0  0  0  0  0  0  0  0  0
   37.2610   30.1910   39.3800 O   0  0  0  0  0  0  0  0  0  0  0  0
   37.0210   30.8870   40.7230 P   0  0  0  0  0  0  0  0  0  0  0  0
   35.8670   30.1070   41.6410 O   0  0  0  0  0  0  0  0  0  0  0  0
   35.0320   30.6380   41.6070 H   0  0  0  0  0  0  0  0  0  0  0  0
   36.5950   32.5030   40.4020 O   0  0  0  0  0  0  0  0  0  0  0  0
   37.0880   32.7800   39.5710 H   0  0  0  0  0  0  0  0  0  0  0  0
  1  7  1  0  0  0  0
  2  8  1  0  0  0  0
  2  1  2  0  0  0  0
  3  2  1  0  0  0  0
  4  3  2  0  0  0  0
  4  5  1  0  0  0  0
  5  6  2  0  0  0  0
  6  1  1  0  0  0  0
  9  5  1  0  0  0  0
  9 10  2  0  0  0  0
 10 11  1  0  0  0  0
 12 13  1  0  0  0  0
 12 10  1  0  0  0  0
 14 12  1  0  0  0  0
 15 14  1  0  0  0  0
 16 14  2  0  0  0  0
 16  9  1  0  0  0  0
 17  3  1  0  0  0  0
 18 19  2  0  0  0  0
 19 17  1  0  0  0  0
 19 20  1  0  0  0  0
 21 20  1  0  0  0  0
 22 19  1  0  0  0  0
 23 22  1  0  0  0  0
M  END
>  <minimizedAffinity>
-4.59316158

$$$$

 OpenBabel03252507093D

 23 24  0  0  0  0  0  0  0  0999 V2000
   39.4910   26.4310   43.5330 C   0  0  0  0  0  0  0  0  0  0  0  0
   38.7930   27.6510   43.5280 C   0  0  0  0  0  0  0  0  0  0  0  0
   37.6720   27.7850   42.7220 C   0  0  0  0  0  0  0  0  0  0  0  0
   37.2900   26.7130   41.9580 N   0  0  0  0  0  0  0  0  0  0  0  0
   37.9730   25.5560   41.9790 C   0  0  0  0  0  0  0  0  0  0  0  0
   39.0600   25.4030   42.7520 N   0  0  0  0  0  0  0  0  0  0  0  0
   40.3660   26.2640   44.1360 H   0  0  0  0  0  0  0  0  0  0  0  0
   39.1690   28.4610   44.1730 H   0  0  0  0  0  0  0  0  0  0  0  0
   37.4880   24.4720   41.1310 C   0  0  0  0  0  0  0  0  0  0  0  0
   38.2490   23.3250   40.9650 C   0  0  0  0  0  0  0  0  0  0  0  0
   39.2170   23.0010   41.3500 H   0  0  0  0  0  0  0  0  0  0  0  0
   37.5750   22.4990   40.1440 N   0  0  0  0  0  0  0  0  0  0  0  0
   37.7400   21.5430   39.7370 H   0  0  0  0  0  0  0  0  0  0  0  0
   36.4110   23.0890   39.7880 C   0  0  0  0  0  0  0  0  0  0  0  0
   35.5710   22.8090   39.1590 H   0  0  0  0  0  0  0  0  0  0  0  0
   36.3490   24.3090   40.3940 N   0  0  0  0  0  0  0  0  0  0  0  0
   37.0130   29.0010   42.7440 O   0  0  0  0  0  0  0  0  0  0  0  0
   38.2410   30.8660   41.3440 O   0  0  0  0  0  0  0  0  0  0  0  0
   37.0010   29.9700   41.3290 P   0  0  0  0  0  0  0  0  0  0  0  0
   36.9590   28.9710   39.9920 O   0  0  0  0  0  0  0  0  0  0  0  0
   36.2880   29.3280   39.3590 H   0  0  0  0  0  0  0  0  0  0  0  0
   35.6300   30.9750   41.4150 O   0  0  0  0  0  0  0  0  0  0  0  0
   35.8850   31.7750   41.9680 H   0  0  0  0  0  0  0  0  0  0  0  0
  1  7  1  0  0  0  0
  2  1  1  0  0  0  0
  2  8  1  0  0  0  0
  3 17  1  0  0  0  0
  3  2  2  0  0  0  0
  4  5  2  0  0  0  0
  4  3  1  0  0  0  0
  5  6  1  0  0  0  0
  6  1  2  0  0  0  0
  9  5  1  0  0  0  0
 10  9  2  0  0  0  0
 10 11  1  0  0  0  0
 12 10  1  0  0  0  0
 13 12  1  0  0  0  0
 14 12  1  0  0  0  0
 14 16  2  0  0  0  0
 15 14  1  0  0  0  0
 16  9  1  0  0  0  0
 19 18  2  0  0  0  0
 19 22  1  0  0  0  0
 19 17  1  0  0  0  0
 20 19  1  0  0  0  0
 21 20  1  0  0  0  0
 22 23  1  0  0  0  0
M  END
>  <minimizedAffinity>
-4.51213789

$$$$

 OpenBabel03252507093D

 23 24  0  0  0  0  0  0  0  0999 V2000
   37.1740   28.9180   42.0760 C   0  0  0  0  0  0  0  0  0  0  0  0
   36.0230   28.5350   41.3650 C   0  0  0  0  0  0  0  0  0  0  0  0
   35.5100   29.3910   40.4010 C   0  0  0  0  0  0  0  0  0  0  0  0
   36.1510   30.5820   40.1810 N   0  0  0  0  0  0  0  0  0  0  0  0
   37.2500   30.9250   40.8740 C   0  0  0  0  0  0  0  0  0  0  0  0
   37.7660   30.1140   41.8110 N   0  0  0  0  0  0  0  0  0  0  0  0
   37.6200   28.3000   42.8360 H   0  0  0  0  0  0  0  0  0  0  0  0
   35.5710   27.5600   41.6050 H   0  0  0  0  0  0  0  0  0  0  0  0
   37.8630   32.2150   40.5680 C   0  0  0  0  0  0  0  0  0  0  0  0
   37.2840   33.0530   39.6270 C   0  0  0  0  0  0  0  0  0  0  0  0
   36.3960   32.9790   38.9980 H   0  0  0  0  0  0  0  0  0  0  0  0
   38.0430   34.1610   39.5410 N   0  0  0  0  0  0  0  0  0  0  0  0
   38.0120   35.0530   38.9840 H   0  0  0  0  0  0  0  0  0  0  0  0
   39.0830   34.0470   40.3990 C   0  0  0  0  0  0  0  0  0  0  0  0
   39.9290   34.6750   40.6650 H   0  0  0  0  0  0  0  0  0  0  0  0
   38.9790   32.8470   41.0380 N   0  0  0  0  0  0  0  0  0  0  0  0
   34.3760   28.9790   39.7230 O   0  0  0  0  0  0  0  0  0  0  0  0
   35.3350   27.1440   38.0910 O   0  0  0  0  0  0  0  0  0  0  0  0
   34.5230   28.4420   38.1000 P   0  0  0  0  0  0  0  0  0  0  0  0
   32.9960   28.2360   37.4600 O   0  0  0  0  0  0  0  0  0  0  0  0
   32.9830   28.6370   36.5550 H   0  0  0  0  0  0  0  0  0  0  0  0
   35.4150   29.6200   37.2560 O   0  0  0  0  0  0  0  0  0  0  0  0
   36.3880   29.4250   37.4160 H   0  0  0  0  0  0  0  0  0  0  0  0
  1  7  1  0  0  0  0
  2  8  1  0  0  0  0
  2  1  2  0  0  0  0
  3  2  1  0  0  0  0
  4  3  2  0  0  0  0
  4  5  1  0  0  0  0
  5  6  2  0  0  0  0
  6  1  1  0  0  0  0
  9  5  1  0  0  0  0
  9 16  1  0  0  0  0
 10  9  2  0  0  0  0
 11 10  1  0  0  0  0
 12 10  1  0  0  0  0
 12 14  1  0  0  0  0
 13 12  1  0  0  0  0
 14 15  1  0  0  0  0
 14 16  2  0  0  0  0
 17  3  1  0  0  0  0
 18 19  2  0  0  0  0
 19 17  1  0  0  0  0
 20 19  1  0  0  0  0
 21 20  1  0  0  0  0
 22 23  1  0  0  0  0
 22 19  1  0  0  0  0
M  END
>  <minimizedAffinity>
-4.46398258

$$$$

 OpenBabel03252507093D

 23 24  0  0  0  0  0  0  0  0999 V2000
   37.4000   24.2390   41.4390 C   0  0  0  0  0  0  0  0  0  0  0  0
   38.5710   24.0380   42.1910 C   0  0  0  0  0  0  0  0  0  0  0  0
   39.2110   25.1350   42.7490 C   0  0  0  0  0  0  0  0  0  0  0  0
   38.6700   26.3780   42.5420 N   0  0  0  0  0  0  0  0  0  0  0  0
   37.5490   26.5440   41.8200 C   0  0  0  0  0  0  0  0  0  0  0  0
   36.9120   25.4980   41.2700 N   0  0  0  0  0  0  0  0  0  0  0  0
   36.8580   23.4300   40.9800 H   0  0  0  0  0  0  0  0  0  0  0  0
   38.9370   23.0060   42.3070 H   0  0  0  0  0  0  0  0  0  0  0  0
   37.0490   27.9060   41.6560 C   0  0  0  0  0  0  0  0  0  0  0  0
   37.2900   28.8560   42.6370 C   0  0  0  0  0  0  0  0  0  0  0  0
   37.8120   28.8350   43.5950 H   0  0  0  0  0  0  0  0  0  0  0  0
   36.7270   30.0110   42.2370 N   0  0  0  0  0  0  0  0  0  0  0  0
   36.6450   30.9840   42.6300 H   0  0  0  0  0  0  0  0  0  0  0  0
   36.1380   29.8190   41.0340 C   0  0  0  0  0  0  0  0  0  0  0  0
   35.5790   30.4450   40.3460 H   0  0  0  0  0  0  0  0  0  0  0  0
   36.3340   28.5200   40.6680 N   0  0  0  0  0  0  0  0  0  0  0  0
   40.3610   24.8980   43.4810 O   0  0  0  0  0  0  0  0  0  0  0  0
   41.9090   27.0250   43.6430 O   0  0  0  0  0  0  0  0  0  0  0  0
   41.8280   25.6410   42.9940 P   0  0  0  0  0  0  0  0  0  0  0  0
   43.1030   24.6600   43.4380 O   0  0  0  0  0  0  0  0  0  0  0  0
   43.7300   24.6030   42.6750 H   0  0  0  0  0  0  0  0  0  0  0  0
   41.7490   25.8600   41.3080 O   0  0  0  0  0  0  0  0  0  0  0  0
   41.2530   26.7180   41.1450 H   0  0  0  0  0  0  0  0  0  0  0  0
  1  2  1  0  0  0  0
  2  8  1  0  0  0  0
  2  3  2  0  0  0  0
  3 17  1  0  0  0  0
  4  3  1  0  0  0  0
  5  4  2  0  0  0  0
  6  1  2  0  0  0  0
  6  5  1  0  0  0  0
  7  1  1  0  0  0  0
  9  5  1  0  0  0  0
  9 10  2  0  0  0  0
 10 11  1  0  0  0  0
 12 13  1  0  0  0  0
 12 10  1  0  0  0  0
 14 12  1  0  0  0  0
 15 14  1  0  0  0  0
 16 14  2  0  0  0  0
 16  9  1  0  0  0  0
 19 20  1  0  0  0  0
 19 17  1  0  0  0  0
 19 18  2  0  0  0  0
 21 20  1  0  0  0  0
 22 19  1  0  0  0  0
 23 22  1  0  0  0  0
M  END
>  <minimizedAffinity>
-4.45391989

$$$$
