
 OpenBabel03252503083D

 26 28  0  0  0  0  0  0  0  0999 V2000
   45.2290   36.1850   43.4920 C   0  0  0  0  0  0  0  0  0  0  0  0
   45.8680   34.9750   43.1570 C   0  0  0  0  0  0  0  0  0  0  0  0
   45.8050   33.9900   44.1360 C   0  0  0  0  0  0  0  0  0  0  0  0
   45.1790   34.1730   45.3190 N   0  0  0  0  0  0  0  0  0  0  0  0
   44.5750   35.3670   45.5900 C   0  0  0  0  0  0  0  0  0  0  0  0
   44.6040   36.3620   44.6790 N   0  0  0  0  0  0  0  0  0  0  0  0
   45.2170   37.0140   42.8120 H   0  0  0  0  0  0  0  0  0  0  0  0
   44.0850   35.4740   46.5460 H   0  0  0  0  0  0  0  0  0  0  0  0
   46.4140   32.7640   43.8920 C   0  0  0  0  0  0  0  0  0  0  0  0
   47.6900   32.2770   44.0140 C   0  0  0  0  0  0  0  0  0  0  0  0
   48.0550   31.0410   43.7060 C   0  0  0  0  0  0  0  0  0  0  0  0
   47.0560   30.2250   43.2390 C   0  0  0  0  0  0  0  0  0  0  0  0
   45.5670   31.3300   43.2670 S   0  0  0  0  0  0  0  0  0  0  0  0
   48.5660   32.7740   44.3990 H   0  0  0  0  0  0  0  0  0  0  0  0
   48.9070   30.4190   43.6940 H   0  0  0  0  0  0  0  0  0  0  0  0
   46.8150   29.2200   42.8740 H   0  0  0  0  0  0  0  0  0  0  0  0
   46.4870   34.8230   41.8950 C   0  0  0  0  0  0  0  0  0  0  0  0
   47.6910   35.2430   41.8360 O   0  0  0  0  0  0  0  0  0  0  0  0
   45.7520   34.2180   40.7430 C   0  0  0  0  0  0  0  0  0  0  0  0
   44.4030   34.3360   40.4830 C   0  0  0  0  0  0  0  0  0  0  0  0
   43.6610   34.8750   41.0560 H   0  0  0  0  0  0  0  0  0  0  0  0
   44.1920   33.6340   39.3540 N   0  0  0  0  0  0  0  0  0  0  0  0
   43.3240   33.4720   38.8270 H   0  0  0  0  0  0  0  0  0  0  0  0
   45.3800   33.1050   38.9410 C   0  0  0  0  0  0  0  0  0  0  0  0
   45.6540   32.4880   38.0980 H   0  0  0  0  0  0  0  0  0  0  0  0
   46.3480   33.4680   39.8050 N   0  0  0  0  0  0  0  0  0  0  0  0
  1  6  1  0  0  0  0
  2  1  2  0  0  0  0
  2  3  1  0  0  0  0
  3  4  2  0  0  0  0
  4  5  1  0  0  0  0
  5  8  1  0  0  0  0
  6  5  2  0  0  0  0
  7  1  1  0  0  0  0
  9 10  2  0  0  0  0
  9  3  1  0  0  0  0
 10 14  1  0  0  0  0
 11 10  1  0  0  0  0
 12 13  1  0  0  0  0
 12 11  2  0  0  0  0
 13  9  1  0  0  0  0
 15 11  1  0  0  0  0
 16 12  1  0  0  0  0
 17  2  1  0  0  0  0
 18 17  2  0  0  0  0
 19 17  1  0  0  0  0
 20 19  2  0  0  0  0
 20 21  1  0  0  0  0
 22 20  1  0  0  0  0
 23 22  1  0  0  0  0
 24 22  1  0  0  0  0
 24 26  2  0  0  0  0
 25 24  1  0  0  0  0
 26 19  1  0  0  0  0
M  END
>  <minimizedAffinity>
-4.26591253

>  <minimizedRMSD>
1.09052396

$$$$
