
 OpenBabel03242512503D

 43 47  0  0  1  0  0  0  0  0999 V2000
   47.3770   34.2700   42.9880 N   0  0  0  0  0  0  0  0  0  0  0  0
   48.7490   33.7990   42.8500 C   0  0  0  0  0  0  0  0  0  0  0  0
   49.2790   34.9690   42.0450 C   0  0  0  0  0  0  0  0  0  0  0  0
   48.2710   35.0080   40.9330 C   0  0  0  0  0  0  0  0  0  0  0  0
   46.9620   34.7690   41.6500 C   0  0  1  0  0  0  0  0  0  0  0  0
   48.7270   32.9270   42.1900 H   0  0  0  0  0  0  0  0  0  0  0  0
   49.2500   33.6680   43.8030 H   0  0  0  0  0  0  0  0  0  0  0  0
   50.3130   34.8210   41.7020 H   0  0  0  0  0  0  0  0  0  0  0  0
   49.1810   35.8930   42.6620 H   0  0  0  0  0  0  0  0  0  0  0  0
   48.4760   34.1050   40.3010 H   0  0  0  0  0  0  0  0  0  0  0  0
   48.2950   35.9420   40.3450 H   0  0  0  0  0  0  0  0  0  0  0  0
   46.5450   35.7110   41.8620 H   0  0  0  0  0  0  0  0  0  0  0  0
   46.1690   33.7020   41.0700 C   0  0  0  0  0  0  0  0  0  0  0  0
   46.7160   32.4880   40.8060 N   0  0  0  0  0  0  0  0  0  0  0  0
   46.0540   31.4490   40.2610 C   0  0  0  0  0  0  0  0  0  0  0  0
   44.7540   31.6130   39.9540 N   0  0  0  0  0  0  0  0  0  0  0  0
   44.1770   32.7730   40.1900 C   0  0  0  0  0  0  0  0  0  0  0  0
   42.8320   32.8900   39.8590 C   0  0  0  0  0  0  0  0  0  0  0  0
   42.2150   34.1200   40.1140 C   0  0  0  0  0  0  0  0  0  0  0  0
   42.8530   35.2270   40.6710 C   0  0  0  0  0  0  0  0  0  0  0  0
   44.1870   35.0210   40.9700 C   0  0  0  0  0  0  0  0  0  0  0  0
   44.8440   33.8620   40.7520 C   0  0  0  0  0  0  0  0  0  0  0  0
   46.5830   30.5160   40.0870 H   0  0  0  0  0  0  0  0  0  0  0  0
   42.2700   32.0840   39.4250 H   0  0  0  0  0  0  0  0  0  0  0  0
   41.1630   34.1740   39.8410 H   0  0  0  0  0  0  0  0  0  0  0  0
   42.2850   36.1160   40.8220 H   0  0  0  0  0  0  0  0  0  0  0  0
   44.6510   35.8940   41.3750 H   0  0  0  0  0  0  0  0  0  0  0  0
   44.6500   35.1250   45.3770 C   0  0  0  0  0  0  0  0  0  0  0  0
   45.4390   35.1860   44.2380 C   0  0  0  0  0  0  0  0  0  0  0  0
   46.5030   34.3100   44.0980 C   0  0  0  0  0  0  0  0  0  0  0  0
   46.7250   33.4210   45.1020 N   0  0  0  0  0  0  0  0  0  0  0  0
   45.9490   33.3670   46.2160 C   0  0  0  0  0  0  0  0  0  0  0  0
   44.9070   34.2280   46.3440 N   0  0  0  0  0  0  0  0  0  0  0  0
   43.8090   35.8090   45.4960 H   0  0  0  0  0  0  0  0  0  0  0  0
   45.2240   35.9130   43.5100 H   0  0  0  0  0  0  0  0  0  0  0  0
   46.3330   32.3440   47.1960 C   0  0  0  0  0  0  0  0  0  0  0  0
   45.7200   32.5220   48.4320 C   0  0  0  0  0  0  0  0  0  0  0  0
   45.0150   33.2280   48.8820 H   0  0  0  0  0  0  0  0  0  0  0  0
   46.1390   31.5300   49.2650 N   0  0  0  0  0  0  0  0  0  0  0  0
   45.9250   31.2970   50.2620 H   0  0  0  0  0  0  0  0  0  0  0  0
   46.9890   30.7790   48.5270 C   0  0  0  0  0  0  0  0  0  0  0  0
   47.5210   29.8870   48.8760 H   0  0  0  0  0  0  0  0  0  0  0  0
   47.1200   31.2620   47.2610 N   0  0  0  0  0  0  0  0  0  0  0  0
  1 30  1  0  0  0  0
  2  1  1  0  0  0  0
  2  7  1  0  0  0  0
  3  9  1  0  0  0  0
  3  2  1  0  0  0  0
  4  5  1  0  0  0  0
  4  3  1  0  0  0  0
  5 12  1  1  0  0  0
  5  1  1  0  0  0  0
  6  2  1  0  0  0  0
  8  3  1  0  0  0  0
 10  4  1  0  0  0  0
 11  4  1  0  0  0  0
 13  5  1  0  0  0  0
 14 13  1  0  0  0  0
 15 14  2  0  0  0  0
 16 17  2  0  0  0  0
 16 15  1  0  0  0  0
 17 22  1  0  0  0  0
 18 19  2  0  0  0  0
 18 17  1  0  0  0  0
 19 20  1  0  0  0  0
 20 26  1  0  0  0  0
 20 21  2  0  0  0  0
 21 27  1  0  0  0  0
 22 21  1  0  0  0  0
 22 13  2  0  0  0  0
 23 15  1  0  0  0  0
 24 18  1  0  0  0  0
 25 19  1  0  0  0  0
 28 34  1  0  0  0  0
 28 33  1  0  0  0  0
 29 28  2  0  0  0  0
 30 29  1  0  0  0  0
 30 31  2  0  0  0  0
 31 32  1  0  0  0  0
 32 33  2  0  0  0  0
 32 36  1  0  0  0  0
 35 29  1  0  0  0  0
 36 43  1  0  0  0  0
 36 37  2  0  0  0  0
 37 38  1  0  0  0  0
 37 39  1  0  0  0  0
 39 40  1  0  0  0  0
 41 42  1  0  0  0  0
 41 39  1  0  0  0  0
 43 41  2  0  0  0  0
M  END
>  <minimizedAffinity>
-6.61229897

>  <minimizedRMSD>
0.629654288

$$$$
