
 OpenBabel03252508283D

 38 41  0  0  1  0  0  0  0  0999 V2000
   42.8680   33.4250   41.6020 N   0  0  0  0  0  0  0  0  0  0  0  0
   44.2300   33.6410   42.1000 C   0  0  2  0  0  0  0  0  0  0  0  0
   44.3950   34.9640   42.7550 C   0  0  0  0  0  0  0  0  0  0  0  0
   43.1270   35.6270   42.9970 N   0  0  0  0  0  0  0  0  0  0  0  0
   42.2700   35.7030   41.8680 C   0  0  0  0  0  0  0  0  0  0  0  0
   42.5670   34.6530   40.8280 C   0  0  2  0  0  0  0  0  0  0  0  0
   42.1800   33.2690   42.3490 H   0  0  0  0  0  0  0  0  0  0  0  0
   44.4420   32.8370   42.8230 H   0  0  0  0  0  0  0  0  0  0  0  0
   44.8510   34.8410   43.7820 H   0  0  0  0  0  0  0  0  0  0  0  0
   44.9180   35.7450   42.1780 H   0  0  0  0  0  0  0  0  0  0  0  0
   42.6850   35.1870   43.8410 H   0  0  0  0  0  0  0  0  0  0  0  0
   42.3650   36.6860   41.3660 H   0  0  0  0  0  0  0  0  0  0  0  0
   41.2060   35.6270   42.1880 H   0  0  0  0  0  0  0  0  0  0  0  0
   43.4900   34.9280   40.3060 H   0  0  0  0  0  0  0  0  0  0  0  0
   41.4560   34.4700   39.8940 C   0  0  0  0  0  0  0  0  0  0  0  0
   41.4150   34.0470   38.5990 C   0  0  0  0  0  0  0  0  0  0  0  0
   42.2770   33.7600   38.0190 H   0  0  0  0  0  0  0  0  0  0  0  0
   40.1530   34.0340   38.1300 N   0  0  0  0  0  0  0  0  0  0  0  0
   39.7550   33.7700   37.1930 H   0  0  0  0  0  0  0  0  0  0  0  0
   39.3820   34.4520   39.1350 C   0  0  0  0  0  0  0  0  0  0  0  0
   38.2920   34.5820   39.1590 H   0  0  0  0  0  0  0  0  0  0  0  0
   40.1490   34.7180   40.2040 N   0  0  0  0  0  0  0  0  0  0  0  0
   46.0290   33.1200   39.0170 C   0  0  0  0  0  0  0  0  0  0  0  0
   46.9030   33.8890   39.7950 C   0  0  0  0  0  0  0  0  0  0  0  0
   46.3280   34.1560   41.0250 C   0  0  0  0  0  0  0  0  0  0  0  0
   45.1390   33.5590   40.9700 N   0  0  0  0  0  0  0  0  0  0  0  0
   44.9640   32.9550   39.8020 N   0  0  0  0  0  0  0  0  0  0  0  0
   47.8710   34.1650   39.3580 H   0  0  0  0  0  0  0  0  0  0  0  0
   47.0050   34.7450   41.6330 H   0  0  0  0  0  0  0  0  0  0  0  0
   45.8640   32.2680   35.3590 C   0  0  0  0  0  0  0  0  0  0  0  0
   45.4310   32.7870   36.6220 C   0  0  0  0  0  0  0  0  0  0  0  0
   46.3120   32.6400   37.6650 C   0  0  0  0  0  0  0  0  0  0  0  0
   47.5080   32.0330   37.4560 N   0  0  0  0  0  0  0  0  0  0  0  0
   47.8960   31.5520   36.2580 C   0  0  0  0  0  0  0  0  0  0  0  0
   47.0600   31.6800   35.2290 N   0  0  0  0  0  0  0  0  0  0  0  0
   45.1570   32.3920   34.5460 H   0  0  0  0  0  0  0  0  0  0  0  0
   44.4860   33.2620   36.7710 H   0  0  0  0  0  0  0  0  0  0  0  0
   48.8630   31.0890   36.2000 H   0  0  0  0  0  0  0  0  0  0  0  0
  1  2  1  0  0  0  0
  1  7  1  0  0  0  0
  2  3  1  0  0  0  0
  2  8  1  1  0  0  0
  3  4  1  0  0  0  0
  3  9  1  0  0  0  0
  4 11  1  0  0  0  0
  5 13  1  0  0  0  0
  5  4  1  0  0  0  0
  6 14  1  6  0  0  0
  6  1  1  0  0  0  0
  6  5  1  0  0  0  0
 10  3  1  0  0  0  0
 12  5  1  0  0  0  0
 15 22  1  0  0  0  0
 15  6  1  0  0  0  0
 16 15  2  0  0  0  0
 17 16  1  0  0  0  0
 18 16  1  0  0  0  0
 18 20  1  0  0  0  0
 19 18  1  0  0  0  0
 20 21  1  0  0  0  0
 20 22  2  0  0  0  0
 23 24  1  0  0  0  0
 23 27  2  0  0  0  0
 24 25  2  0  0  0  0
 25 29  1  0  0  0  0
 26 25  1  0  0  0  0
 26  2  1  0  0  0  0
 27 26  1  0  0  0  0
 28 24  1  0  0  0  0
 30 31  1  0  0  0  0
 31 37  1  0  0  0  0
 31 32  2  0  0  0  0
 32 23  1  0  0  0  0
 33 32  1  0  0  0  0
 34 33  2  0  0  0  0
 35 30  2  0  0  0  0
 35 34  1  0  0  0  0
 36 30  1  0  0  0  0
 38 34  1  0  0  0  0
M  END
>  <minimizedAffinity>
-4.84746265

>  <minimizedRMSD>
4.5025382

$$$$
