
 OpenBabel03252508283D

 38 41  0  0  1  0  0  0  0  0999 V2000
   42.0620   32.9790   41.9700 N   0  0  0  0  0  0  0  0  0  0  0  0
   43.0390   33.9300   41.4320 C   0  0  2  0  0  0  0  0  0  0  0  0
   42.5500   35.3330   41.4690 C   0  0  0  0  0  0  0  0  0  0  0  0
   41.3460   35.4810   42.2660 N   0  0  0  0  0  0  0  0  0  0  0  0
   40.3060   34.5690   41.9480 C   0  0  0  0  0  0  0  0  0  0  0  0
   40.8020   33.3180   41.2680 C   0  0  2  0  0  0  0  0  0  0  0  0
   41.9570   33.0360   42.9910 H   0  0  0  0  0  0  0  0  0  0  0  0
   43.9520   33.8380   42.0410 H   0  0  0  0  0  0  0  0  0  0  0  0
   43.3080   36.0020   41.9730 H   0  0  0  0  0  0  0  0  0  0  0  0
   42.2080   35.7680   40.5140 H   0  0  0  0  0  0  0  0  0  0  0  0
   41.6230   35.4780   43.2780 H   0  0  0  0  0  0  0  0  0  0  0  0
   39.5680   35.0340   41.2630 H   0  0  0  0  0  0  0  0  0  0  0  0
   39.7380   34.2990   42.8670 H   0  0  0  0  0  0  0  0  0  0  0  0
   41.0750   33.5650   40.2360 H   0  0  0  0  0  0  0  0  0  0  0  0
   39.8210   32.2340   41.3200 C   0  0  0  0  0  0  0  0  0  0  0  0
   39.9030   30.9540   41.7800 C   0  0  0  0  0  0  0  0  0  0  0  0
   40.7850   30.5110   42.2120 H   0  0  0  0  0  0  0  0  0  0  0  0
   38.7350   30.3050   41.6250 N   0  0  0  0  0  0  0  0  0  0  0  0
   38.4390   29.3230   41.8620 H   0  0  0  0  0  0  0  0  0  0  0  0
   37.8980   31.1790   41.0620 C   0  0  0  0  0  0  0  0  0  0  0  0
   36.8490   31.0400   40.7710 H   0  0  0  0  0  0  0  0  0  0  0  0
   38.5360   32.3440   40.8710 N   0  0  0  0  0  0  0  0  0  0  0  0
   43.9060   32.4760   38.2460 C   0  0  0  0  0  0  0  0  0  0  0  0
   43.3900   33.7360   37.9160 C   0  0  0  0  0  0  0  0  0  0  0  0
   43.0220   34.4100   39.0660 C   0  0  0  0  0  0  0  0  0  0  0  0
   43.3110   33.5640   40.0530 N   0  0  0  0  0  0  0  0  0  0  0  0
   43.8270   32.4380   39.5760 N   0  0  0  0  0  0  0  0  0  0  0  0
   43.3470   34.0100   36.8550 H   0  0  0  0  0  0  0  0  0  0  0  0
   42.6290   35.3890   38.8160 H   0  0  0  0  0  0  0  0  0  0  0  0
   44.2410   29.9100   35.5190 C   0  0  0  0  0  0  0  0  0  0  0  0
   43.5900   30.8320   36.4030 C   0  0  0  0  0  0  0  0  0  0  0  0
   44.4070   31.4980   37.2830 C   0  0  0  0  0  0  0  0  0  0  0  0
   45.7440   31.2610   37.2720 N   0  0  0  0  0  0  0  0  0  0  0  0
   46.3350   30.3900   36.4310 C   0  0  0  0  0  0  0  0  0  0  0  0
   45.5660   29.7280   35.5670 N   0  0  0  0  0  0  0  0  0  0  0  0
   43.5810   29.3920   34.8320 H   0  0  0  0  0  0  0  0  0  0  0  0
   42.5360   31.0070   36.3990 H   0  0  0  0  0  0  0  0  0  0  0  0
   47.4010   30.2760   36.5040 H   0  0  0  0  0  0  0  0  0  0  0  0
  1  7  1  0  0  0  0
  2  3  1  0  0  0  0
  2  1  1  0  0  0  0
  2  8  1  1  0  0  0
  3  9  1  0  0  0  0
  3  4  1  0  0  0  0
  4 11  1  0  0  0  0
  5  4  1  0  0  0  0
  5 13  1  0  0  0  0
  6 14  1  6  0  0  0
  6 15  1  0  0  0  0
  6  5  1  0  0  0  0
  6  1  1  0  0  0  0
 10  3  1  0  0  0  0
 12  5  1  0  0  0  0
 15 16  2  0  0  0  0
 16 17  1  0  0  0  0
 18 16  1  0  0  0  0
 18 19  1  0  0  0  0
 20 18  1  0  0  0  0
 21 20  1  0  0  0  0
 22 20  2  0  0  0  0
 22 15  1  0  0  0  0
 23 27  2  0  0  0  0
 24 23  1  0  0  0  0
 24 25  2  0  0  0  0
 25 26  1  0  0  0  0
 26  2  1  0  0  0  0
 27 26  1  0  0  0  0
 28 24  1  0  0  0  0
 29 25  1  0  0  0  0
 30 35  2  0  0  0  0
 30 31  1  0  0  0  0
 31 32  2  0  0  0  0
 32 23  1  0  0  0  0
 33 32  1  0  0  0  0
 34 38  1  0  0  0  0
 34 33  2  0  0  0  0
 35 34  1  0  0  0  0
 36 30  1  0  0  0  0
 37 31  1  0  0  0  0
M  END
>  <minimizedAffinity>
-4.31480074

>  <minimizedRMSD>
5.94361973

$$$$
