
 OpenBabel03242520493D

 21 22  0  0  0  0  0  0  0  0999 V2000
   44.4670   36.0110   44.5430 C   0  0  0  0  0  0  0  0  0  0  0  0
   45.1910   36.0590   43.3400 C   0  0  0  0  0  0  0  0  0  0  0  0
   46.1770   35.0870   43.1130 C   0  0  0  0  0  0  0  0  0  0  0  0
   46.3650   34.1670   44.0670 N   0  0  0  0  0  0  0  0  0  0  0  0
   45.6690   34.1310   45.2130 C   0  0  0  0  0  0  0  0  0  0  0  0
   44.7160   35.0660   45.4370 N   0  0  0  0  0  0  0  0  0  0  0  0
   43.7450   36.8060   44.5990 H   0  0  0  0  0  0  0  0  0  0  0  0
   45.0940   36.7670   42.5280 H   0  0  0  0  0  0  0  0  0  0  0  0
   45.9530   33.0850   46.1880 C   0  0  0  0  0  0  0  0  0  0  0  0
   46.9450   32.1280   45.9650 C   0  0  0  0  0  0  0  0  0  0  0  0
   47.6400   31.9430   45.1550 H   0  0  0  0  0  0  0  0  0  0  0  0
   46.9930   31.2940   47.0150 N   0  0  0  0  0  0  0  0  0  0  0  0
   47.4970   30.4700   47.3590 H   0  0  0  0  0  0  0  0  0  0  0  0
   46.0620   31.7020   47.8850 C   0  0  0  0  0  0  0  0  0  0  0  0
   45.6520   31.4340   48.8710 H   0  0  0  0  0  0  0  0  0  0  0  0
   45.4070   32.7990   47.4050 N   0  0  0  0  0  0  0  0  0  0  0  0
   46.9630   35.0090   41.9820 O   0  0  0  0  0  0  0  0  0  0  0  0
   46.4610   34.1820   40.9230 C   0  0  0  0  0  0  0  0  0  0  0  0
   45.1630   34.5340   40.6310 F   0  0  0  0  0  0  0  0  0  0  0  0
   47.2680   34.4210   39.7970 F   0  0  0  0  0  0  0  0  0  0  0  0
   46.5920   32.8270   41.2470 F   0  0  0  0  0  0  0  0  0  0  0  0
  1  7  1  0  0  0  0
  1  6  1  0  0  0  0
  2  1  2  0  0  0  0
  3  2  1  0  0  0  0
  3  4  2  0  0  0  0
  4  5  1  0  0  0  0
  5  6  2  0  0  0  0
  5  9  1  0  0  0  0
  8  2  1  0  0  0  0
  9 16  1  0  0  0  0
 10  9  2  0  0  0  0
 10 12  1  0  0  0  0
 11 10  1  0  0  0  0
 12 13  1  0  0  0  0
 12 14  1  0  0  0  0
 14 15  1  0  0  0  0
 16 14  2  0  0  0  0
 17  3  1  0  0  0  0
 18 21  1  0  0  0  0
 18 17  1  0  0  0  0
 19 18  1  0  0  0  0
 20 18  1  0  0  0  0
M  END
>  <minimizedAffinity>
-4.7093358

>  <minimizedRMSD>
0.411784589

$$$$
