
 OpenBabel03252509223D

 26 28  0  0  1  0  0  0  0  0999 V2000
   46.4340   34.7550   42.0430 C   0  0  1  0  0  0  0  0  0  0  0  0
   47.9080   35.2390   42.0230 C   0  0  0  0  0  0  0  0  0  0  0  0
   47.4160   33.7980   41.6830 C   0  0  2  0  0  0  0  0  0  0  0  0
   45.7800   35.3030   41.3450 H   0  0  0  0  0  0  0  0  0  0  0  0
   48.1270   35.8870   41.1790 H   0  0  0  0  0  0  0  0  0  0  0  0
   48.4430   35.3690   42.9590 H   0  0  0  0  0  0  0  0  0  0  0  0
   47.7810   33.0410   42.4050 H   0  0  0  0  0  0  0  0  0  0  0  0
   44.5120   35.6590   45.1230 C   0  0  0  0  0  0  0  0  0  0  0  0
   45.0200   35.7540   43.8020 C   0  0  0  0  0  0  0  0  0  0  0  0
   45.9040   34.7620   43.4660 C   0  0  0  0  0  0  0  0  0  0  0  0
   46.2660   33.7580   44.3440 N   0  0  0  0  0  0  0  0  0  0  0  0
   45.7510   33.7190   45.5810 C   0  0  0  0  0  0  0  0  0  0  0  0
   44.8710   34.6650   45.9820 N   0  0  0  0  0  0  0  0  0  0  0  0
   43.8160   36.3930   45.4660 H   0  0  0  0  0  0  0  0  0  0  0  0
   46.0090   32.9510   46.2950 H   0  0  0  0  0  0  0  0  0  0  0  0
   44.6540   36.8010   42.9250 N   0  0  0  0  0  0  0  0  0  0  0  0
   44.2400   36.7970   41.9800 H   0  0  0  0  0  0  0  0  0  0  0  0
   44.8910   37.6840   43.4280 H   0  0  0  0  0  0  0  0  0  0  0  0
   47.5220   33.4280   40.2260 C   0  0  0  0  0  0  0  0  0  0  0  0
   48.6100   32.9540   39.5130 C   0  0  0  0  0  0  0  0  0  0  0  0
   49.5840   32.7790   39.9420 H   0  0  0  0  0  0  0  0  0  0  0  0
   48.1910   32.7750   38.2370 N   0  0  0  0  0  0  0  0  0  0  0  0
   48.7820   32.4250   37.4550 H   0  0  0  0  0  0  0  0  0  0  0  0
   46.8750   33.1210   38.1220 C   0  0  0  0  0  0  0  0  0  0  0  0
   46.2490   33.0910   37.2370 H   0  0  0  0  0  0  0  0  0  0  0  0
   46.4990   33.5140   39.3560 N   0  0  0  0  0  0  0  0  0  0  0  0
  1  4  1  6  0  0  0
  1 10  1  0  0  0  0
  2  1  1  0  0  0  0
  2  6  1  0  0  0  0
  3  2  1  0  0  0  0
  3  1  1  0  0  0  0
  3  7  1  1  0  0  0
  5  2  1  0  0  0  0
  8 14  1  0  0  0  0
  8 13  1  0  0  0  0
  9  8  2  0  0  0  0
 10  9  1  0  0  0  0
 10 11  2  0  0  0  0
 11 12  1  0  0  0  0
 12 13  2  0  0  0  0
 12 15  1  0  0  0  0
 16 18  1  0  0  0  0
 16  9  1  0  0  0  0
 17 16  1  0  0  0  0
 19  3  1  0  0  0  0
 20 21  1  0  0  0  0
 20 19  2  0  0  0  0
 22 20  1  0  0  0  0
 23 22  1  0  0  0  0
 24 22  1  0  0  0  0
 24 26  2  0  0  0  0
 25 24  1  0  0  0  0
 26 19  1  0  0  0  0
M  END
>  <minimizedAffinity>
-4.53762627

>  <minimizedRMSD>
0.460938692

$$$$
