
 OpenBabel03252503293D

 36 38  0  0  1  0  0  0  0  0999 V2000
   45.2650   34.7120   42.3180 C   0  0  0  0  0  0  0  0  0  0  0  0
   46.3960   35.2870   41.6850 C   0  0  0  0  0  0  0  0  0  0  0  0
   47.6460   34.8750   42.1920 C   0  0  0  0  0  0  0  0  0  0  0  0
   47.6700   33.9990   43.2020 N   0  0  0  0  0  0  0  0  0  0  0  0
   46.5590   33.4790   43.7730 C   0  0  0  0  0  0  0  0  0  0  0  0
   45.3450   33.8480   43.3160 N   0  0  0  0  0  0  0  0  0  0  0  0
   43.6220   34.4200   40.6680 C   0  0  0  0  0  0  0  0  0  0  0  0
   44.4850   33.6780   40.1130 O   0  0  0  0  0  0  0  0  0  0  0  0
   43.9340   35.0510   41.8940 N   0  0  0  0  0  0  0  0  0  0  0  0
   42.3840   34.5440   39.9750 N   0  0  0  0  0  0  0  0  0  0  0  0
   42.2340   34.1120   38.6000 C   0  0  0  0  0  0  0  0  0  0  0  0
   41.2110   35.0920   38.0790 C   0  0  0  0  0  0  0  0  0  0  0  0
   40.7080   35.8880   39.2510 C   0  0  0  0  0  0  0  0  0  0  0  0
   41.1080   35.0840   40.4440 C   0  0  1  0  0  0  0  0  0  0  0  0
   46.2280   35.9880   40.8730 H   0  0  0  0  0  0  0  0  0  0  0  0
   46.6110   32.7730   44.5870 H   0  0  0  0  0  0  0  0  0  0  0  0
   43.1960   35.6390   42.2940 H   0  0  0  0  0  0  0  0  0  0  0  0
   41.8080   33.1060   38.5370 H   0  0  0  0  0  0  0  0  0  0  0  0
   43.2020   34.1960   38.0270 H   0  0  0  0  0  0  0  0  0  0  0  0
   41.7180   35.7700   37.3510 H   0  0  0  0  0  0  0  0  0  0  0  0
   40.4170   34.5900   37.5110 H   0  0  0  0  0  0  0  0  0  0  0  0
   41.1920   36.8820   39.2630 H   0  0  0  0  0  0  0  0  0  0  0  0
   39.6030   35.9540   39.1260 H   0  0  0  0  0  0  0  0  0  0  0  0
   41.3200   35.7340   41.3230 H   0  0  0  0  0  0  0  0  0  0  0  0
   40.1760   34.0170   40.8190 C   0  0  0  0  0  0  0  0  0  0  0  0
   38.8350   33.9110   40.5050 C   0  0  0  0  0  0  0  0  0  0  0  0
   38.2610   34.6140   39.9220 H   0  0  0  0  0  0  0  0  0  0  0  0
   38.3980   32.7720   41.0630 N   0  0  0  0  0  0  0  0  0  0  0  0
   37.4160   32.3650   41.0300 H   0  0  0  0  0  0  0  0  0  0  0  0
   39.4190   32.1520   41.7220 C   0  0  0  0  0  0  0  0  0  0  0  0
   39.4570   31.2250   42.2870 H   0  0  0  0  0  0  0  0  0  0  0  0
   40.5280   32.9340   41.5650 N   0  0  0  0  0  0  0  0  0  0  0  0
   48.7920   35.4830   41.5200 C   0  0  0  0  0  0  0  0  0  0  0  0
   49.9340   34.7440   41.8390 F   0  0  0  0  0  0  0  0  0  0  0  0
   48.9880   36.7310   42.0840 F   0  0  0  0  0  0  0  0  0  0  0  0
   48.6870   35.5080   40.1470 F   0  0  0  0  0  0  0  0  0  0  0  0
  1  6  1  0  0  0  0
  2  3  1  0  0  0  0
  2  1  2  0  0  0  0
  3  4  2  0  0  0  0
  4  5  1  0  0  0  0
  5 16  1  0  0  0  0
  6  5  2  0  0  0  0
  7  9  1  0  0  0  0
  8  7  2  0  0  0  0
  9 17  1  0  0  0  0
  9  1  1  0  0  0  0
 10 14  1  0  0  0  0
 10  7  1  0  0  0  0
 11 10  1  0  0  0  0
 12 11  1  0  0  0  0
 12 13  1  0  0  0  0
 13 22  1  0  0  0  0
 13 14  1  0  0  0  0
 14 25  1  0  0  0  0
 14 24  1  1  0  0  0
 15  2  1  0  0  0  0
 18 11  1  0  0  0  0
 19 11  1  0  0  0  0
 20 12  1  0  0  0  0
 21 12  1  0  0  0  0
 23 13  1  0  0  0  0
 25 32  1  0  0  0  0
 26 25  2  0  0  0  0
 26 28  1  0  0  0  0
 27 26  1  0  0  0  0
 28 30  1  0  0  0  0
 29 28  1  0  0  0  0
 30 31  1  0  0  0  0
 32 30  2  0  0  0  0
 33 34  1  0  0  0  0
 33 35  1  0  0  0  0
 33  3  1  0  0  0  0
 36 33  1  0  0  0  0
M  END
>  <minimizedAffinity>
-7.07061243

>  <minimizedRMSD>
1.30536473

$$$$
