
 OpenBabel03252509223D

 26 28  0  0  1  0  0  0  0  0999 V2000
   46.5090   35.0080   41.9280 C   0  0  1  0  0  0  0  0  0  0  0  0
   48.0350   35.2820   41.8960 C   0  0  0  0  0  0  0  0  0  0  0  0
   47.3240   34.0160   41.3270 C   0  0  2  0  0  0  0  0  0  0  0  0
   45.9130   35.7660   41.3940 H   0  0  0  0  0  0  0  0  0  0  0  0
   48.3110   36.0470   41.1770 H   0  0  0  0  0  0  0  0  0  0  0  0
   48.6230   35.1520   42.8010 H   0  0  0  0  0  0  0  0  0  0  0  0
   47.6040   33.0890   41.8660 H   0  0  0  0  0  0  0  0  0  0  0  0
   44.6730   35.3950   45.1660 C   0  0  0  0  0  0  0  0  0  0  0  0
   45.1120   35.6840   43.8480 C   0  0  0  0  0  0  0  0  0  0  0  0
   46.0470   34.8070   43.3610 C   0  0  0  0  0  0  0  0  0  0  0  0
   46.5180   33.7370   44.0970 N   0  0  0  0  0  0  0  0  0  0  0  0
   46.0660   33.5140   45.3390 C   0  0  0  0  0  0  0  0  0  0  0  0
   45.1420   34.3370   45.8840 N   0  0  0  0  0  0  0  0  0  0  0  0
   43.9450   36.0290   45.6220 H   0  0  0  0  0  0  0  0  0  0  0  0
   46.4110   32.6890   45.9440 H   0  0  0  0  0  0  0  0  0  0  0  0
   44.6330   36.7960   43.1180 N   0  0  0  0  0  0  0  0  0  0  0  0
   44.1760   36.8720   42.1970 H   0  0  0  0  0  0  0  0  0  0  0  0
   44.8300   37.6290   43.7160 H   0  0  0  0  0  0  0  0  0  0  0  0
   47.3120   33.9280   39.8220 C   0  0  0  0  0  0  0  0  0  0  0  0
   46.3630   33.3800   38.9780 C   0  0  0  0  0  0  0  0  0  0  0  0
   45.4510   32.9130   39.3160 H   0  0  0  0  0  0  0  0  0  0  0  0
   46.8170   33.5530   37.7130 N   0  0  0  0  0  0  0  0  0  0  0  0
   46.3250   33.2440   36.8500 H   0  0  0  0  0  0  0  0  0  0  0  0
   48.0240   34.1940   37.7340 C   0  0  0  0  0  0  0  0  0  0  0  0
   48.6450   34.4790   36.8920 H   0  0  0  0  0  0  0  0  0  0  0  0
   48.2940   34.4080   39.0380 N   0  0  0  0  0  0  0  0  0  0  0  0
  1  4  1  6  0  0  0
  1 10  1  0  0  0  0
  2  1  1  0  0  0  0
  2  6  1  0  0  0  0
  3  7  1  1  0  0  0
  3  2  1  0  0  0  0
  3  1  1  0  0  0  0
  5  2  1  0  0  0  0
  8 14  1  0  0  0  0
  8 13  1  0  0  0  0
  9  8  2  0  0  0  0
 10  9  1  0  0  0  0
 10 11  2  0  0  0  0
 11 12  1  0  0  0  0
 12 13  2  0  0  0  0
 12 15  1  0  0  0  0
 16 18  1  0  0  0  0
 16  9  1  0  0  0  0
 17 16  1  0  0  0  0
 19  3  1  0  0  0  0
 20 21  1  0  0  0  0
 20 19  2  0  0  0  0
 22 24  1  0  0  0  0
 22 20  1  0  0  0  0
 23 22  1  0  0  0  0
 24 26  2  0  0  0  0
 25 24  1  0  0  0  0
 26 19  1  0  0  0  0
M  END
>  <minimizedAffinity>
-5.06703806

>  <minimizedRMSD>
0.367382854

$$$$
