
 OpenBabel03242510413D

 30 32  0  0  0  0  0  0  0  0999 V2000
   37.4180   29.6130   37.3980 Cl  0  0  0  0  0  0  0  0  0  0  0  0
   35.6880   29.3290   37.4940 C   0  0  0  0  0  0  0  0  0  0  0  0
   35.1180   29.2350   38.7550 C   0  0  0  0  0  0  0  0  0  0  0  0
   33.7870   29.0170   38.8310 C   0  0  0  0  0  0  0  0  0  0  0  0
   33.0380   28.8940   37.6650 C   0  0  0  0  0  0  0  0  0  0  0  0
   33.6050   28.9880   36.4220 C   0  0  0  0  0  0  0  0  0  0  0  0
   34.9710   29.2120   36.3310 C   0  0  0  0  0  0  0  0  0  0  0  0
   33.2710   28.9310   39.7800 H   0  0  0  0  0  0  0  0  0  0  0  0
   31.9700   28.7180   37.7030 H   0  0  0  0  0  0  0  0  0  0  0  0
   33.0680   28.8990   35.4820 H   0  0  0  0  0  0  0  0  0  0  0  0
   37.3800   30.6310   41.2600 C   0  0  0  0  0  0  0  0  0  0  0  0
   37.5300   29.5900   42.2090 C   0  0  0  0  0  0  0  0  0  0  0  0
   36.8090   28.3960   41.9270 C   0  0  0  0  0  0  0  0  0  0  0  0
   36.0580   28.3510   40.8060 N   0  0  0  0  0  0  0  0  0  0  0  0
   35.9530   29.3720   39.9400 C   0  0  0  0  0  0  0  0  0  0  0  0
   36.6220   30.5080   40.1800 N   0  0  0  0  0  0  0  0  0  0  0  0
   37.9160   31.5540   41.4440 H   0  0  0  0  0  0  0  0  0  0  0  0
   38.1490   29.6940   43.0870 H   0  0  0  0  0  0  0  0  0  0  0  0
   36.9860   27.3430   42.9270 C   0  0  0  0  0  0  0  0  0  0  0  0
   37.0440   26.1160   42.2670 F   0  0  0  0  0  0  0  0  0  0  0  0
   35.8390   27.2970   43.6780 F   0  0  0  0  0  0  0  0  0  0  0  0
   38.1360   27.4720   43.6730 F   0  0  0  0  0  0  0  0  0  0  0  0
   35.6200   29.3190   35.0280 C   0  0  0  0  0  0  0  0  0  0  0  0
   35.9380   28.2670   34.2010 C   0  0  0  0  0  0  0  0  0  0  0  0
   35.7690   27.2080   34.3650 H   0  0  0  0  0  0  0  0  0  0  0  0
   36.5290   28.6940   33.0710 N   0  0  0  0  0  0  0  0  0  0  0  0
   36.9030   28.2070   32.2280 H   0  0  0  0  0  0  0  0  0  0  0  0
   36.5830   30.0340   33.1890 C   0  0  0  0  0  0  0  0  0  0  0  0
   36.9930   30.7630   32.4800 H   0  0  0  0  0  0  0  0  0  0  0  0
   36.0360   30.4400   34.3730 N   0  0  0  0  0  0  0  0  0  0  0  0
  1  2  1  0  0  0  0
  2  3  1  0  0  0  0
  3  4  2  0  0  0  0
  3 15  1  0  0  0  0
  4  8  1  0  0  0  0
  5  9  1  0  0  0  0
  5  4  1  0  0  0  0
  6  5  2  0  0  0  0
  7  6  1  0  0  0  0
  7  2  2  0  0  0  0
 10  6  1  0  0  0  0
 11 17  1  0  0  0  0
 11 12  1  0  0  0  0
 12 18  1  0  0  0  0
 13 12  2  0  0  0  0
 13 19  1  0  0  0  0
 14 13  1  0  0  0  0
 15 16  1  0  0  0  0
 15 14  2  0  0  0  0
 16 11  2  0  0  0  0
 19 22  1  0  0  0  0
 19 21  1  0  0  0  0
 20 19  1  0  0  0  0
 23  7  1  0  0  0  0
 24 25  1  0  0  0  0
 24 23  2  0  0  0  0
 26 28  1  0  0  0  0
 26 24  1  0  0  0  0
 27 26  1  0  0  0  0
 28 30  2  0  0  0  0
 29 28  1  0  0  0  0
 30 23  1  0  0  0  0
M  END
>  <minimizedAffinity>
-5.8565855

$$$$

 OpenBabel03242510413D

 30 32  0  0  0  0  0  0  0  0999 V2000
   40.3460   29.3790   40.0940 Cl  0  0  0  0  0  0  0  0  0  0  0  0
   38.7920   30.1440   40.3890 C   0  0  0  0  0  0  0  0  0  0  0  0
   37.9260   29.5240   41.2770 C   0  0  0  0  0  0  0  0  0  0  0  0
   36.7310   30.1110   41.5060 C   0  0  0  0  0  0  0  0  0  0  0  0
   36.4070   31.2980   40.8580 C   0  0  0  0  0  0  0  0  0  0  0  0
   37.2670   31.9070   39.9820 C   0  0  0  0  0  0  0  0  0  0  0  0
   38.4970   31.3140   39.7380 C   0  0  0  0  0  0  0  0  0  0  0  0
   36.0020   29.6860   42.1850 H   0  0  0  0  0  0  0  0  0  0  0  0
   35.4560   31.7850   41.0250 H   0  0  0  0  0  0  0  0  0  0  0  0
   37.0650   32.8320   39.4500 H   0  0  0  0  0  0  0  0  0  0  0  0
   39.5520   27.1530   43.5290 C   0  0  0  0  0  0  0  0  0  0  0  0
   39.0400   25.8920   43.1340 C   0  0  0  0  0  0  0  0  0  0  0  0
   38.1120   25.9200   42.0550 C   0  0  0  0  0  0  0  0  0  0  0  0
   37.8010   27.1140   41.5080 N   0  0  0  0  0  0  0  0  0  0  0  0
   38.3200   28.2810   41.9260 C   0  0  0  0  0  0  0  0  0  0  0  0
   39.1960   28.2840   42.9400 N   0  0  0  0  0  0  0  0  0  0  0  0
   40.2610   27.1670   44.3480 H   0  0  0  0  0  0  0  0  0  0  0  0
   39.3330   24.9730   43.6170 H   0  0  0  0  0  0  0  0  0  0  0  0
   37.6030   24.6030   41.6730 C   0  0  0  0  0  0  0  0  0  0  0  0
   37.2400   24.6460   40.3270 F   0  0  0  0  0  0  0  0  0  0  0  0
   36.4310   24.4030   42.3590 F   0  0  0  0  0  0  0  0  0  0  0  0
   38.5190   23.5860   41.8280 F   0  0  0  0  0  0  0  0  0  0  0  0
   39.4460   31.9260   38.8140 C   0  0  0  0  0  0  0  0  0  0  0  0
   39.4370   31.7860   37.4450 C   0  0  0  0  0  0  0  0  0  0  0  0
   38.7470   31.2160   36.8320 H   0  0  0  0  0  0  0  0  0  0  0  0
   40.4430   32.4740   36.8770 N   0  0  0  0  0  0  0  0  0  0  0  0
   40.7530   32.6080   35.8900 H   0  0  0  0  0  0  0  0  0  0  0  0
   41.0930   33.0550   37.9020 C   0  0  0  0  0  0  0  0  0  0  0  0
   41.9760   33.7040   37.8660 H   0  0  0  0  0  0  0  0  0  0  0  0
   40.5060   32.7370   39.0930 N   0  0  0  0  0  0  0  0  0  0  0  0
  1  2  1  0  0  0  0
  2  3  1  0  0  0  0
  3  4  2  0  0  0  0
  3 15  1  0  0  0  0
  4  8  1  0  0  0  0
  5  9  1  0  0  0  0
  5  4  1  0  0  0  0
  6  5  2  0  0  0  0
  7  6  1  0  0  0  0
  7  2  2  0  0  0  0
 10  6  1  0  0  0  0
 11 17  1  0  0  0  0
 12 11  1  0  0  0  0
 12 18  1  0  0  0  0
 13 12  2  0  0  0  0
 14 15  2  0  0  0  0
 14 13  1  0  0  0  0
 15 16  1  0  0  0  0
 16 11  2  0  0  0  0
 19 22  1  0  0  0  0
 19 13  1  0  0  0  0
 19 21  1  0  0  0  0
 20 19  1  0  0  0  0
 23 30  1  0  0  0  0
 23  7  1  0  0  0  0
 24 23  2  0  0  0  0
 25 24  1  0  0  0  0
 26 24  1  0  0  0  0
 26 28  1  0  0  0  0
 27 26  1  0  0  0  0
 28 30  2  0  0  0  0
 29 28  1  0  0  0  0
M  END
>  <minimizedAffinity>
-5.82328033

$$$$

 OpenBabel03242510413D

 30 32  0  0  0  0  0  0  0  0999 V2000
   40.2770   28.3860   40.7790 Cl  0  0  0  0  0  0  0  0  0  0  0  0
   38.8760   27.9550   41.7490 C   0  0  0  0  0  0  0  0  0  0  0  0
   37.6810   28.6040   41.4790 C   0  0  0  0  0  0  0  0  0  0  0  0
   36.6020   28.2740   42.2230 C   0  0  0  0  0  0  0  0  0  0  0  0
   36.7170   27.3110   43.2200 C   0  0  0  0  0  0  0  0  0  0  0  0
   37.9000   26.6710   43.4820 C   0  0  0  0  0  0  0  0  0  0  0  0
   39.0150   27.0020   42.7240 C   0  0  0  0  0  0  0  0  0  0  0  0
   35.6360   28.7380   42.0720 H   0  0  0  0  0  0  0  0  0  0  0  0
   35.8670   27.0310   43.8280 H   0  0  0  0  0  0  0  0  0  0  0  0
   38.0450   25.9140   44.2460 H   0  0  0  0  0  0  0  0  0  0  0  0
   37.2340   30.1740   38.2120 C   0  0  0  0  0  0  0  0  0  0  0  0
   37.5170   31.5420   38.4430 C   0  0  0  0  0  0  0  0  0  0  0  0
   37.8670   31.8770   39.7820 C   0  0  0  0  0  0  0  0  0  0  0  0
   37.9000   30.8890   40.7020 N   0  0  0  0  0  0  0  0  0  0  0  0
   37.6210   29.6050   40.4230 C   0  0  0  0  0  0  0  0  0  0  0  0
   37.2890   29.2620   39.1710 N   0  0  0  0  0  0  0  0  0  0  0  0
   36.9640   29.8850   37.2030 H   0  0  0  0  0  0  0  0  0  0  0  0
   37.4720   32.2820   37.6590 H   0  0  0  0  0  0  0  0  0  0  0  0
   38.1530   33.2970   39.9860 C   0  0  0  0  0  0  0  0  0  0  0  0
   39.2890   33.6270   39.2470 F   0  0  0  0  0  0  0  0  0  0  0  0
   38.5150   33.4560   41.3000 F   0  0  0  0  0  0  0  0  0  0  0  0
   37.1350   34.1320   39.5840 F   0  0  0  0  0  0  0  0  0  0  0  0
   40.2970   26.3470   42.9660 C   0  0  0  0  0  0  0  0  0  0  0  0
   40.6650   25.1060   42.4990 C   0  0  0  0  0  0  0  0  0  0  0  0
   40.0880   24.4190   41.8890 H   0  0  0  0  0  0  0  0  0  0  0  0
   41.9090   24.7840   42.8950 N   0  0  0  0  0  0  0  0  0  0  0  0
   42.5170   23.9510   42.7430 H   0  0  0  0  0  0  0  0  0  0  0  0
   42.3290   25.8370   43.6210 C   0  0  0  0  0  0  0  0  0  0  0  0
   43.2930   25.9730   44.1250 H   0  0  0  0  0  0  0  0  0  0  0  0
   41.3660   26.8020   43.6800 N   0  0  0  0  0  0  0  0  0  0  0  0
  1  2  1  0  0  0  0
  2  7  1  0  0  0  0
  3  2  2  0  0  0  0
  3  4  1  0  0  0  0
  4  5  2  0  0  0  0
  5  6  1  0  0  0  0
  5  9  1  0  0  0  0
  6 10  1  0  0  0  0
  7 23  1  0  0  0  0
  7  6  2  0  0  0  0
  8  4  1  0  0  0  0
 11 12  2  0  0  0  0
 11 16  1  0  0  0  0
 12 13  1  0  0  0  0
 13 19  1  0  0  0  0
 13 14  2  0  0  0  0
 15 14  1  0  0  0  0
 15  3  1  0  0  0  0
 16 15  2  0  0  0  0
 17 11  1  0  0  0  0
 18 12  1  0  0  0  0
 19 21  1  0  0  0  0
 20 19  1  0  0  0  0
 22 19  1  0  0  0  0
 23 30  1  0  0  0  0
 24 26  1  0  0  0  0
 24 23  2  0  0  0  0
 25 24  1  0  0  0  0
 26 28  1  0  0  0  0
 27 26  1  0  0  0  0
 28 30  2  0  0  0  0
 28 29  1  0  0  0  0
M  END
>  <minimizedAffinity>
-5.67477179

$$$$

 OpenBabel03242510413D

 30 32  0  0  0  0  0  0  0  0999 V2000
   40.2210   29.6930   38.9510 Cl  0  0  0  0  0  0  0  0  0  0  0  0
   39.2490   31.0870   39.3950 C   0  0  0  0  0  0  0  0  0  0  0  0
   37.9930   30.8510   39.9350 C   0  0  0  0  0  0  0  0  0  0  0  0
   37.2430   31.9220   40.2790 C   0  0  0  0  0  0  0  0  0  0  0  0
   37.7410   33.2060   40.0850 C   0  0  0  0  0  0  0  0  0  0  0  0
   38.9820   33.4340   39.5520 C   0  0  0  0  0  0  0  0  0  0  0  0
   39.7610   32.3420   39.1950 C   0  0  0  0  0  0  0  0  0  0  0  0
   36.2530   31.8180   40.7050 H   0  0  0  0  0  0  0  0  0  0  0  0
   37.1570   34.0780   40.3520 H   0  0  0  0  0  0  0  0  0  0  0  0
   39.4180   34.4130   39.3790 H   0  0  0  0  0  0  0  0  0  0  0  0
   36.6580   27.5240   39.2380 C   0  0  0  0  0  0  0  0  0  0  0  0
   36.6450   26.8840   40.5020 C   0  0  0  0  0  0  0  0  0  0  0  0
   37.1210   27.6690   41.5890 C   0  0  0  0  0  0  0  0  0  0  0  0
   37.5370   28.9280   41.3380 N   0  0  0  0  0  0  0  0  0  0  0  0
   37.5250   29.4840   40.1150 C   0  0  0  0  0  0  0  0  0  0  0  0
   37.0820   28.7680   39.0720 N   0  0  0  0  0  0  0  0  0  0  0  0
   36.3010   26.9550   38.3880 H   0  0  0  0  0  0  0  0  0  0  0  0
   36.2980   25.8710   40.6320 H   0  0  0  0  0  0  0  0  0  0  0  0
   37.0940   26.9780   42.8790 C   0  0  0  0  0  0  0  0  0  0  0  0
   36.8750   25.6210   42.6460 F   0  0  0  0  0  0  0  0  0  0  0  0
   35.9820   27.4150   43.5530 F   0  0  0  0  0  0  0  0  0  0  0  0
   38.2630   27.0960   43.5970 F   0  0  0  0  0  0  0  0  0  0  0  0
   41.0900   32.5350   38.6240 C   0  0  0  0  0  0  0  0  0  0  0  0
   41.3740   32.6900   37.2870 C   0  0  0  0  0  0  0  0  0  0  0  0
   40.6840   32.6970   36.4490 H   0  0  0  0  0  0  0  0  0  0  0  0
   42.6940   32.8470   37.0820 N   0  0  0  0  0  0  0  0  0  0  0  0
   43.2760   32.9880   36.2280 H   0  0  0  0  0  0  0  0  0  0  0  0
   43.2480   32.7890   38.3070 C   0  0  0  0  0  0  0  0  0  0  0  0
   44.3070   32.8730   38.5790 H   0  0  0  0  0  0  0  0  0  0  0  0
   42.2920   32.6000   39.2640 N   0  0  0  0  0  0  0  0  0  0  0  0
  1  2  1  0  0  0  0
  2  3  1  0  0  0  0
  3 15  1  0  0  0  0
  3  4  2  0  0  0  0
  4  8  1  0  0  0  0
  5  4  1  0  0  0  0
  5  9  1  0  0  0  0
  6  5  2  0  0  0  0
  7  2  2  0  0  0  0
  7  6  1  0  0  0  0
 10  6  1  0  0  0  0
 11 12  1  0  0  0  0
 12 18  1  0  0  0  0
 12 13  2  0  0  0  0
 13 19  1  0  0  0  0
 14 13  1  0  0  0  0
 15 14  2  0  0  0  0
 16 11  2  0  0  0  0
 16 15  1  0  0  0  0
 17 11  1  0  0  0  0
 19 21  1  0  0  0  0
 19 22  1  0  0  0  0
 20 19  1  0  0  0  0
 23  7  1  0  0  0  0
 23 30  1  0  0  0  0
 24 23  2  0  0  0  0
 25 24  1  0  0  0  0
 26 24  1  0  0  0  0
 26 28  1  0  0  0  0
 27 26  1  0  0  0  0
 28 29  1  0  0  0  0
 28 30  2  0  0  0  0
M  END
>  <minimizedAffinity>
-5.53006268

$$$$

 OpenBabel03242510413D

 30 32  0  0  0  0  0  0  0  0999 V2000
   38.6280   28.1920   38.0400 Cl  0  0  0  0  0  0  0  0  0  0  0  0
   37.5060   29.0440   39.0890 C   0  0  0  0  0  0  0  0  0  0  0  0
   36.5780   28.2890   39.7900 C   0  0  0  0  0  0  0  0  0  0  0  0
   35.7140   28.9420   40.5990 C   0  0  0  0  0  0  0  0  0  0  0  0
   35.7770   30.3280   40.7030 C   0  0  0  0  0  0  0  0  0  0  0  0
   36.6960   31.0700   40.0080 C   0  0  0  0  0  0  0  0  0  0  0  0
   37.5880   30.4100   39.1750 C   0  0  0  0  0  0  0  0  0  0  0  0
   34.9620   28.4210   41.1770 H   0  0  0  0  0  0  0  0  0  0  0  0
   35.0950   30.8720   41.3430 H   0  0  0  0  0  0  0  0  0  0  0  0
   36.7880   32.1510   40.0530 H   0  0  0  0  0  0  0  0  0  0  0  0
   35.8550   24.9440   38.5150 C   0  0  0  0  0  0  0  0  0  0  0  0
   36.5530   24.0800   39.3930 C   0  0  0  0  0  0  0  0  0  0  0  0
   37.2770   24.7230   40.4360 C   0  0  0  0  0  0  0  0  0  0  0  0
   37.2420   26.0710   40.5050 N   0  0  0  0  0  0  0  0  0  0  0  0
   36.5600   26.8410   39.6410 C   0  0  0  0  0  0  0  0  0  0  0  0
   35.8690   26.2620   38.6490 N   0  0  0  0  0  0  0  0  0  0  0  0
   35.2930   24.4870   37.7090 H   0  0  0  0  0  0  0  0  0  0  0  0
   36.5380   23.0070   39.2800 H   0  0  0  0  0  0  0  0  0  0  0  0
   37.9870   23.8010   41.3240 C   0  0  0  0  0  0  0  0  0  0  0  0
   37.6660   22.4970   40.9510 F   0  0  0  0  0  0  0  0  0  0  0  0
   37.4590   23.9590   42.5810 F   0  0  0  0  0  0  0  0  0  0  0  0
   39.3570   23.9270   41.2750 F   0  0  0  0  0  0  0  0  0  0  0  0
   38.5850   31.1580   38.4150 C   0  0  0  0  0  0  0  0  0  0  0  0
   38.3880   31.7320   37.1810 C   0  0  0  0  0  0  0  0  0  0  0  0
   37.4880   31.7310   36.5740 H   0  0  0  0  0  0  0  0  0  0  0  0
   39.5000   32.3500   36.7460 N   0  0  0  0  0  0  0  0  0  0  0  0
   39.7330   32.8830   35.8800 H   0  0  0  0  0  0  0  0  0  0  0  0
   40.4090   32.1620   37.7200 C   0  0  0  0  0  0  0  0  0  0  0  0
   41.4490   32.5090   37.7560 H   0  0  0  0  0  0  0  0  0  0  0  0
   39.8770   31.4390   38.7490 N   0  0  0  0  0  0  0  0  0  0  0  0
  1  2  1  0  0  0  0
  2  7  2  0  0  0  0
  2  3  1  0  0  0  0
  3  4  2  0  0  0  0
  4  5  1  0  0  0  0
  4  8  1  0  0  0  0
  5  9  1  0  0  0  0
  6 10  1  0  0  0  0
  6  5  2  0  0  0  0
  7  6  1  0  0  0  0
 11 16  2  0  0  0  0
 11 12  1  0  0  0  0
 12 13  2  0  0  0  0
 13 14  1  0  0  0  0
 13 19  1  0  0  0  0
 15  3  1  0  0  0  0
 15 14  2  0  0  0  0
 16 15  1  0  0  0  0
 17 11  1  0  0  0  0
 18 12  1  0  0  0  0
 19 21  1  0  0  0  0
 20 19  1  0  0  0  0
 22 19  1  0  0  0  0
 23 30  1  0  0  0  0
 23  7  1  0  0  0  0
 24 23  2  0  0  0  0
 25 24  1  0  0  0  0
 26 24  1  0  0  0  0
 26 28  1  0  0  0  0
 27 26  1  0  0  0  0
 28 29  1  0  0  0  0
 28 30  2  0  0  0  0
M  END
>  <minimizedAffinity>
-5.46332312

$$$$

 OpenBabel03242510413D

 30 32  0  0  0  0  0  0  0  0999 V2000
   40.5890   29.7570   40.2150 Cl  0  0  0  0  0  0  0  0  0  0  0  0
   39.1380   30.2300   39.3450 C   0  0  0  0  0  0  0  0  0  0  0  0
   37.9170   29.8100   39.8500 C   0  0  0  0  0  0  0  0  0  0  0  0
   36.8000   30.1740   39.1820 C   0  0  0  0  0  0  0  0  0  0  0  0
   36.9030   30.9430   38.0280 C   0  0  0  0  0  0  0  0  0  0  0  0
   38.1120   31.3560   37.5330 C   0  0  0  0  0  0  0  0  0  0  0  0
   39.2660   30.9890   38.2100 C   0  0  0  0  0  0  0  0  0  0  0  0
   35.8110   29.8830   39.5150 H   0  0  0  0  0  0  0  0  0  0  0  0
   36.0220   31.2450   37.4770 H   0  0  0  0  0  0  0  0  0  0  0  0
   38.2480   31.9560   36.6390 H   0  0  0  0  0  0  0  0  0  0  0  0
   37.8290   28.8510   43.3720 C   0  0  0  0  0  0  0  0  0  0  0  0
   37.7830   27.4360   43.3450 C   0  0  0  0  0  0  0  0  0  0  0  0
   37.7850   26.8490   42.0490 C   0  0  0  0  0  0  0  0  0  0  0  0
   37.8290   27.6660   40.9750 N   0  0  0  0  0  0  0  0  0  0  0  0
   37.8720   29.0060   41.0620 C   0  0  0  0  0  0  0  0  0  0  0  0
   37.8710   29.5850   42.2710 N   0  0  0  0  0  0  0  0  0  0  0  0
   37.8290   29.3300   44.3440 H   0  0  0  0  0  0  0  0  0  0  0  0
   37.7490   26.8420   44.2450 H   0  0  0  0  0  0  0  0  0  0  0  0
   37.7360   25.3860   42.0570 C   0  0  0  0  0  0  0  0  0  0  0  0
   36.5300   24.9900   42.6340 F   0  0  0  0  0  0  0  0  0  0  0  0
   38.7110   24.9510   42.9180 F   0  0  0  0  0  0  0  0  0  0  0  0
   37.8070   24.8210   40.8040 F   0  0  0  0  0  0  0  0  0  0  0  0
   40.5760   31.4060   37.7210 C   0  0  0  0  0  0  0  0  0  0  0  0
   41.0730   32.6890   37.7520 C   0  0  0  0  0  0  0  0  0  0  0  0
   40.5970   33.5860   38.1320 H   0  0  0  0  0  0  0  0  0  0  0  0
   42.3090   32.7470   37.2260 N   0  0  0  0  0  0  0  0  0  0  0  0
   42.9910   33.5220   37.0790 H   0  0  0  0  0  0  0  0  0  0  0  0
   42.5940   31.4830   36.8590 C   0  0  0  0  0  0  0  0  0  0  0  0
   43.5070   31.1020   36.3880 H   0  0  0  0  0  0  0  0  0  0  0  0
   41.5540   30.6470   37.1500 N   0  0  0  0  0  0  0  0  0  0  0  0
  2  3  1  0  0  0  0
  2  1  1  0  0  0  0
  3 15  1  0  0  0  0
  4  8  1  0  0  0  0
  4  3  2  0  0  0  0
  5  4  1  0  0  0  0
  6  5  2  0  0  0  0
  6  7  1  0  0  0  0
  7  2  2  0  0  0  0
  9  5  1  0  0  0  0
 10  6  1  0  0  0  0
 11 17  1  0  0  0  0
 12 11  1  0  0  0  0
 12 18  1  0  0  0  0
 13 19  1  0  0  0  0
 13 12  2  0  0  0  0
 14 15  2  0  0  0  0
 14 13  1  0  0  0  0
 15 16  1  0  0  0  0
 16 11  2  0  0  0  0
 19 20  1  0  0  0  0
 19 21  1  0  0  0  0
 22 19  1  0  0  0  0
 23 24  2  0  0  0  0
 23  7  1  0  0  0  0
 24 25  1  0  0  0  0
 26 24  1  0  0  0  0
 27 26  1  0  0  0  0
 28 30  2  0  0  0  0
 28 26  1  0  0  0  0
 29 28  1  0  0  0  0
 30 23  1  0  0  0  0
M  END
>  <minimizedAffinity>
-5.35687113

$$$$

 OpenBabel03242510413D

 30 32  0  0  0  0  0  0  0  0999 V2000
   37.6100   28.3370   39.2500 Cl  0  0  0  0  0  0  0  0  0  0  0  0
   37.5640   28.0790   40.9870 C   0  0  0  0  0  0  0  0  0  0  0  0
   37.5470   26.7700   41.4440 C   0  0  0  0  0  0  0  0  0  0  0  0
   37.5120   26.5690   42.7800 C   0  0  0  0  0  0  0  0  0  0  0  0
   37.4940   27.6600   43.6440 C   0  0  0  0  0  0  0  0  0  0  0  0
   37.5110   28.9510   43.1870 C   0  0  0  0  0  0  0  0  0  0  0  0
   37.5470   29.1700   41.8170 C   0  0  0  0  0  0  0  0  0  0  0  0
   37.4960   25.5760   43.2130 H   0  0  0  0  0  0  0  0  0  0  0  0
   37.4650   27.5220   44.7170 H   0  0  0  0  0  0  0  0  0  0  0  0
   37.4980   29.8360   43.8150 H   0  0  0  0  0  0  0  0  0  0  0  0
   38.7440   24.1430   39.2070 C   0  0  0  0  0  0  0  0  0  0  0  0
   37.5600   23.5710   38.6800 C   0  0  0  0  0  0  0  0  0  0  0  0
   36.3440   24.1460   39.1440 C   0  0  0  0  0  0  0  0  0  0  0  0
   36.4120   25.1650   40.0270 N   0  0  0  0  0  0  0  0  0  0  0  0
   37.5680   25.6690   40.4930 C   0  0  0  0  0  0  0  0  0  0  0  0
   38.7280   25.1460   40.0720 N   0  0  0  0  0  0  0  0  0  0  0  0
   39.6880   23.7280   38.8750 H   0  0  0  0  0  0  0  0  0  0  0  0
   37.5780   22.7540   37.9750 H   0  0  0  0  0  0  0  0  0  0  0  0
   35.1410   23.5310   38.5810 C   0  0  0  0  0  0  0  0  0  0  0  0
   35.5280   22.6740   37.5510 F   0  0  0  0  0  0  0  0  0  0  0  0
   34.4210   24.5280   37.9730 F   0  0  0  0  0  0  0  0  0  0  0  0
   34.4160   22.7950   39.4900 F   0  0  0  0  0  0  0  0  0  0  0  0
   37.5670   30.5280   41.2830 C   0  0  0  0  0  0  0  0  0  0  0  0
   36.4670   31.2440   40.8710 C   0  0  0  0  0  0  0  0  0  0  0  0
   35.4270   30.9380   40.8710 H   0  0  0  0  0  0  0  0  0  0  0  0
   36.8160   32.4650   40.4290 N   0  0  0  0  0  0  0  0  0  0  0  0
   36.2770   33.2720   40.0480 H   0  0  0  0  0  0  0  0  0  0  0  0
   38.1550   32.5180   40.5650 C   0  0  0  0  0  0  0  0  0  0  0  0
   38.8310   33.3440   40.3170 H   0  0  0  0  0  0  0  0  0  0  0  0
   38.6360   31.3500   41.0830 N   0  0  0  0  0  0  0  0  0  0  0  0
  1  2  1  0  0  0  0
  2  3  2  0  0  0  0
  2  7  1  0  0  0  0
  3  4  1  0  0  0  0
  4  8  1  0  0  0  0
  4  5  2  0  0  0  0
  5  9  1  0  0  0  0
  6  5  1  0  0  0  0
  6 10  1  0  0  0  0
  7  6  2  0  0  0  0
 11 16  1  0  0  0  0
 12 13  1  0  0  0  0
 12 11  2  0  0  0  0
 13 14  2  0  0  0  0
 14 15  1  0  0  0  0
 15  3  1  0  0  0  0
 16 15  2  0  0  0  0
 17 11  1  0  0  0  0
 18 12  1  0  0  0  0
 19 13  1  0  0  0  0
 19 22  1  0  0  0  0
 20 19  1  0  0  0  0
 21 19  1  0  0  0  0
 23  7  1  0  0  0  0
 24 25  1  0  0  0  0
 24 23  2  0  0  0  0
 26 28  1  0  0  0  0
 26 24  1  0  0  0  0
 27 26  1  0  0  0  0
 28 30  2  0  0  0  0
 29 28  1  0  0  0  0
 30 23  1  0  0  0  0
M  END
>  <minimizedAffinity>
-5.34077644

$$$$

 OpenBabel03242510413D

 30 32  0  0  0  0  0  0  0  0999 V2000
   38.0240   27.2360   39.3460 Cl  0  0  0  0  0  0  0  0  0  0  0  0
   37.8330   27.7580   41.0120 C   0  0  0  0  0  0  0  0  0  0  0  0
   37.7620   29.1210   41.2570 C   0  0  0  0  0  0  0  0  0  0  0  0
   37.6150   29.5250   42.5390 C   0  0  0  0  0  0  0  0  0  0  0  0
   37.5400   28.5810   43.5580 C   0  0  0  0  0  0  0  0  0  0  0  0
   37.6100   27.2350   43.3100 C   0  0  0  0  0  0  0  0  0  0  0  0
   37.7610   26.8090   41.9990 C   0  0  0  0  0  0  0  0  0  0  0  0
   37.5530   30.5720   42.8080 H   0  0  0  0  0  0  0  0  0  0  0  0
   37.4230   28.8820   44.5900 H   0  0  0  0  0  0  0  0  0  0  0  0
   37.5570   26.4580   44.0660 H   0  0  0  0  0  0  0  0  0  0  0  0
   36.8680   31.1440   38.3510 C   0  0  0  0  0  0  0  0  0  0  0  0
   38.0510   31.8650   38.0530 C   0  0  0  0  0  0  0  0  0  0  0  0
   39.1570   31.6060   38.9110 C   0  0  0  0  0  0  0  0  0  0  0  0
   38.9960   30.7180   39.9150 N   0  0  0  0  0  0  0  0  0  0  0  0
   37.8470   30.0630   40.1500 C   0  0  0  0  0  0  0  0  0  0  0  0
   36.7890   30.2860   39.3570 N   0  0  0  0  0  0  0  0  0  0  0  0
   36.0070   31.3170   37.7170 H   0  0  0  0  0  0  0  0  0  0  0  0
   38.1110   32.5620   37.2320 H   0  0  0  0  0  0  0  0  0  0  0  0
   40.3610   32.3670   38.5760 C   0  0  0  0  0  0  0  0  0  0  0  0
   40.4530   32.4540   37.1880 F   0  0  0  0  0  0  0  0  0  0  0  0
   41.4400   31.6140   38.9650 F   0  0  0  0  0  0  0  0  0  0  0  0
   40.3670   33.6490   39.0780 F   0  0  0  0  0  0  0  0  0  0  0  0
   37.8400   25.3850   41.6860 C   0  0  0  0  0  0  0  0  0  0  0  0
   38.9240   24.5710   41.9210 C   0  0  0  0  0  0  0  0  0  0  0  0
   39.8780   24.8330   42.3650 H   0  0  0  0  0  0  0  0  0  0  0  0
   38.6840   23.3100   41.5210 N   0  0  0  0  0  0  0  0  0  0  0  0
   39.2480   22.4330   41.5340 H   0  0  0  0  0  0  0  0  0  0  0  0
   37.4320   23.3310   41.0270 C   0  0  0  0  0  0  0  0  0  0  0  0
   36.8570   22.5030   40.5970 H   0  0  0  0  0  0  0  0  0  0  0  0
   36.8960   24.5840   41.1160 N   0  0  0  0  0  0  0  0  0  0  0  0
  1  2  1  0  0  0  0
  2  3  2  0  0  0  0
  2  7  1  0  0  0  0
  3  4  1  0  0  0  0
  4  8  1  0  0  0  0
  4  5  2  0  0  0  0
  5  9  1  0  0  0  0
  6  5  1  0  0  0  0
  6 10  1  0  0  0  0
  7  6  2  0  0  0  0
 11 16  1  0  0  0  0
 12 11  2  0  0  0  0
 12 13  1  0  0  0  0
 13 14  2  0  0  0  0
 14 15  1  0  0  0  0
 15  3  1  0  0  0  0
 16 15  2  0  0  0  0
 17 11  1  0  0  0  0
 18 12  1  0  0  0  0
 19 13  1  0  0  0  0
 19 21  1  0  0  0  0
 19 22  1  0  0  0  0
 20 19  1  0  0  0  0
 23 24  2  0  0  0  0
 23  7  1  0  0  0  0
 24 25  1  0  0  0  0
 26 27  1  0  0  0  0
 26 24  1  0  0  0  0
 28 30  2  0  0  0  0
 28 26  1  0  0  0  0
 29 28  1  0  0  0  0
 30 23  1  0  0  0  0
M  END
>  <minimizedAffinity>
-5.33564091

$$$$

 OpenBabel03242510413D

 30 32  0  0  0  0  0  0  0  0999 V2000
   39.0420   27.0640   39.8880 Cl  0  0  0  0  0  0  0  0  0  0  0  0
   38.2240   27.4740   41.3870 C   0  0  0  0  0  0  0  0  0  0  0  0
   38.2140   28.8060   41.7730 C   0  0  0  0  0  0  0  0  0  0  0  0
   37.5840   29.1250   42.9250 C   0  0  0  0  0  0  0  0  0  0  0  0
   36.9750   28.1270   43.6790 C   0  0  0  0  0  0  0  0  0  0  0  0
   36.9860   26.8130   43.2930 C   0  0  0  0  0  0  0  0  0  0  0  0
   37.6300   26.4730   42.1110 C   0  0  0  0  0  0  0  0  0  0  0  0
   37.5360   30.1420   43.2920 H   0  0  0  0  0  0  0  0  0  0  0  0
   36.4660   28.3590   44.6050 H   0  0  0  0  0  0  0  0  0  0  0  0
   36.5270   25.9960   43.8420 H   0  0  0  0  0  0  0  0  0  0  0  0
   40.6690   31.2020   40.5180 C   0  0  0  0  0  0  0  0  0  0  0  0
   40.0820   31.7100   39.3330 C   0  0  0  0  0  0  0  0  0  0  0  0
   38.8040   31.1770   39.0060 C   0  0  0  0  0  0  0  0  0  0  0  0
   38.2650   30.2520   39.8290 N   0  0  0  0  0  0  0  0  0  0  0  0
   38.8700   29.8070   40.9430 C   0  0  0  0  0  0  0  0  0  0  0  0
   40.0740   30.2920   41.2750 N   0  0  0  0  0  0  0  0  0  0  0  0
   41.6420   31.5870   40.7960 H   0  0  0  0  0  0  0  0  0  0  0  0
   40.5700   32.4520   38.7190 H   0  0  0  0  0  0  0  0  0  0  0  0
   38.2270   31.7230   37.7770 C   0  0  0  0  0  0  0  0  0  0  0  0
   37.7120   30.6670   37.0260 F   0  0  0  0  0  0  0  0  0  0  0  0
   39.2610   32.2290   37.0310 F   0  0  0  0  0  0  0  0  0  0  0  0
   37.2050   32.6200   37.9930 F   0  0  0  0  0  0  0  0  0  0  0  0
   37.6680   25.0870   41.6590 C   0  0  0  0  0  0  0  0  0  0  0  0
   38.5920   24.1430   42.0430 C   0  0  0  0  0  0  0  0  0  0  0  0
   39.4260   24.2580   42.7270 H   0  0  0  0  0  0  0  0  0  0  0  0
   38.3570   22.9590   41.4500 N   0  0  0  0  0  0  0  0  0  0  0  0
   38.8280   22.0300   41.4910 H   0  0  0  0  0  0  0  0  0  0  0  0
   37.2700   23.1610   40.6820 C   0  0  0  0  0  0  0  0  0  0  0  0
   36.7530   22.4440   40.0340 H   0  0  0  0  0  0  0  0  0  0  0  0
   36.8310   24.4490   40.7920 N   0  0  0  0  0  0  0  0  0  0  0  0
  1  2  1  0  0  0  0
  2  3  2  0  0  0  0
  2  7  1  0  0  0  0
  3  4  1  0  0  0  0
  4  8  1  0  0  0  0
  4  5  2  0  0  0  0
  5  9  1  0  0  0  0
  6  5  1  0  0  0  0
  6 10  1  0  0  0  0
  7  6  2  0  0  0  0
 11 17  1  0  0  0  0
 11 16  1  0  0  0  0
 12 11  2  0  0  0  0
 13 12  1  0  0  0  0
 13 14  2  0  0  0  0
 14 15  1  0  0  0  0
 15 16  2  0  0  0  0
 15  3  1  0  0  0  0
 18 12  1  0  0  0  0
 19 22  1  0  0  0  0
 19 13  1  0  0  0  0
 20 19  1  0  0  0  0
 21 19  1  0  0  0  0
 23 24  2  0  0  0  0
 23  7  1  0  0  0  0
 24 25  1  0  0  0  0
 26 27  1  0  0  0  0
 26 24  1  0  0  0  0
 28 30  2  0  0  0  0
 28 26  1  0  0  0  0
 29 28  1  0  0  0  0
 30 23  1  0  0  0  0
M  END
>  <minimizedAffinity>
-5.32665873

$$$$
