
 OpenBabel03242523423D

 23 24  0  0  1  0  0  0  0  0999 V2000
   47.6230   35.2310   41.7740 C   0  0  2  0  0  0  0  0  0  0  0  0
   47.1400   36.2280   41.7230 H   0  0  0  0  0  0  0  0  0  0  0  0
   45.8870   34.9570   43.4790 C   0  0  0  0  0  0  0  0  0  0  0  0
   47.1020   34.5090   42.9380 C   0  0  0  0  0  0  0  0  0  0  0  0
   47.7330   33.3970   43.5530 C   0  0  0  0  0  0  0  0  0  0  0  0
   47.1100   32.8620   44.6160 N   0  0  0  0  0  0  0  0  0  0  0  0
   45.9540   33.3170   45.1020 C   0  0  0  0  0  0  0  0  0  0  0  0
   45.3320   34.3630   44.5450 N   0  0  0  0  0  0  0  0  0  0  0  0
   45.3500   35.8100   43.0490 H   0  0  0  0  0  0  0  0  0  0  0  0
   48.6680   33.0720   43.1140 H   0  0  0  0  0  0  0  0  0  0  0  0
   45.6050   32.7500   45.9700 H   0  0  0  0  0  0  0  0  0  0  0  0
   47.3530   34.4280   40.5560 C   0  0  0  0  0  0  0  0  0  0  0  0
   46.2620   33.6480   40.2340 C   0  0  0  0  0  0  0  0  0  0  0  0
   45.3960   33.4980   40.8560 H   0  0  0  0  0  0  0  0  0  0  0  0
   46.4210   33.0800   39.0090 N   0  0  0  0  0  0  0  0  0  0  0  0
   45.7470   32.4460   38.5270 H   0  0  0  0  0  0  0  0  0  0  0  0
   47.6260   33.5150   38.5680 C   0  0  0  0  0  0  0  0  0  0  0  0
   47.9800   33.1850   37.5850 H   0  0  0  0  0  0  0  0  0  0  0  0
   48.1840   34.3260   39.5000 N   0  0  0  0  0  0  0  0  0  0  0  0
   49.1220   35.3520   41.9490 C   0  0  0  0  0  0  0  0  0  0  0  0
   49.4090   35.8580   42.8760 H   0  0  0  0  0  0  0  0  0  0  0  0
   49.5710   34.3480   41.8430 H   0  0  0  0  0  0  0  0  0  0  0  0
   49.4500   36.0190   41.0990 H   0  0  0  0  0  0  0  0  0  0  0  0
  1  2  1  6  0  0  0
  1 20  1  0  0  0  0
  1  4  1  0  0  0  0
  3  8  1  0  0  0  0
  4  3  2  0  0  0  0
  4  5  1  0  0  0  0
  5  6  2  0  0  0  0
  6  7  1  0  0  0  0
  7 11  1  0  0  0  0
  8  7  2  0  0  0  0
  9  3  1  0  0  0  0
 10  5  1  0  0  0  0
 12  1  1  0  0  0  0
 13 12  2  0  0  0  0
 13 14  1  0  0  0  0
 15 13  1  0  0  0  0
 16 15  1  0  0  0  0
 17 15  1  0  0  0  0
 17 19  2  0  0  0  0
 18 17  1  0  0  0  0
 19 12  1  0  0  0  0
 20 21  1  0  0  0  0
 22 20  1  0  0  0  0
 23 20  1  0  0  0  0
M  END
>  <minimizedAffinity>
-3.90612555

>  <minimizedRMSD>
1.44033456

$$$$
