
 OpenBabel03242511103D

 42 46  0  0  1  0  0  0  0  0999 V2000
   36.4070   26.9360   39.5530 C   0  0  0  0  0  0  0  0  0  0  0  0
   36.0100   26.6880   38.2420 C   0  0  0  0  0  0  0  0  0  0  0  0
   36.1580   25.4620   37.6210 C   0  0  0  0  0  0  0  0  0  0  0  0
   36.7240   24.3960   38.3010 C   0  0  0  0  0  0  0  0  0  0  0  0
   37.1280   24.6000   39.5990 C   0  0  0  0  0  0  0  0  0  0  0  0
   37.6920   23.5470   40.2950 C   0  0  0  0  0  0  0  0  0  0  0  0
   38.1140   23.6720   41.5890 C   0  0  0  0  0  0  0  0  0  0  0  0
   37.9440   24.9230   42.1690 C   0  0  0  0  0  0  0  0  0  0  0  0
   37.3760   25.9660   41.4590 C   0  0  0  0  0  0  0  0  0  0  0  0
   36.9600   25.8300   40.1690 C   0  0  0  0  0  0  0  0  0  0  0  0
   35.5570   27.4510   37.6240 H   0  0  0  0  0  0  0  0  0  0  0  0
   35.8420   25.2930   36.5970 H   0  0  0  0  0  0  0  0  0  0  0  0
   36.8410   23.4460   37.8240 H   0  0  0  0  0  0  0  0  0  0  0  0
   37.7940   22.6030   39.7790 H   0  0  0  0  0  0  0  0  0  0  0  0
   38.5440   22.7940   42.0520 H   0  0  0  0  0  0  0  0  0  0  0  0
   38.3100   24.9280   43.2060 H   0  0  0  0  0  0  0  0  0  0  0  0
   37.2980   27.1200   42.3370 C   0  0  0  0  0  0  0  0  0  0  0  0
   36.4770   27.7900   43.2120 C   0  0  0  0  0  0  0  0  0  0  0  0
   35.5130   27.2930   43.3580 H   0  0  0  0  0  0  0  0  0  0  0  0
   37.0550   28.9080   43.6800 N   0  0  0  0  0  0  0  0  0  0  0  0
   36.5580   29.5220   44.3520 H   0  0  0  0  0  0  0  0  0  0  0  0
   38.2690   28.9780   43.1100 C   0  0  0  0  0  0  0  0  0  0  0  0
   38.9780   29.7760   43.2910 H   0  0  0  0  0  0  0  0  0  0  0  0
   38.4260   27.8970   42.2920 N   0  0  0  0  0  0  0  0  0  0  0  0
   36.2400   28.2090   40.1360 N   0  0  0  0  0  0  0  0  0  0  0  0
   35.5760   28.3370   40.9270 H   0  0  0  0  0  0  0  0  0  0  0  0
   36.7520   30.7200   40.0600 C   0  0  1  0  0  0  0  0  0  0  0  0
   36.1950   30.2990   38.7170 C   0  0  0  0  0  0  0  0  0  0  0  0
   36.9620   29.3430   39.6450 C   0  0  2  0  0  0  0  0  0  0  0  0
   35.9200   31.0810   40.7170 H   0  0  0  0  0  0  0  0  0  0  0  0
   35.1170   30.0900   38.6000 H   0  0  0  0  0  0  0  0  0  0  0  0
   36.7300   30.7240   37.8480 H   0  0  0  0  0  0  0  0  0  0  0  0
   38.0020   29.1240   39.2590 H   0  0  0  0  0  0  0  0  0  0  0  0
   38.7380   33.8580   40.2860 C   0  0  0  0  0  0  0  0  0  0  0  0
   40.0570   33.3670   40.0380 C   0  0  0  0  0  0  0  0  0  0  0  0
   40.2280   31.9660   39.8100 C   0  0  0  0  0  0  0  0  0  0  0  0
   39.1530   31.1710   39.8400 N   0  0  0  0  0  0  0  0  0  0  0  0
   37.9120   31.6660   40.0790 C   0  0  0  0  0  0  0  0  0  0  0  0
   37.7060   33.0080   40.3020 N   0  0  0  0  0  0  0  0  0  0  0  0
   38.6030   34.9150   40.4570 H   0  0  0  0  0  0  0  0  0  0  0  0
   40.8470   34.0760   40.0330 H   0  0  0  0  0  0  0  0  0  0  0  0
   41.2310   31.6680   39.6330 H   0  0  0  0  0  0  0  0  0  0  0  0
  1 25  1  0  0  0  0
  1 10  1  0  0  0  0
  2  1  2  0  0  0  0
  3  2  1  0  0  0  0
  3  4  2  0  0  0  0
  4  5  1  0  0  0  0
  5 10  2  0  0  0  0
  5  6  1  0  0  0  0
  6  7  2  0  0  0  0
  7 15  1  0  0  0  0
  7  8  1  0  0  0  0
  8 16  1  0  0  0  0
  9  8  2  0  0  0  0
  9 17  1  0  0  0  0
 10  9  1  0  0  0  0
 11  2  1  0  0  0  0
 12  3  1  0  0  0  0
 13  4  1  0  0  0  0
 14  6  1  0  0  0  0
 17 18  2  0  0  0  0
 18 19  1  0  0  0  0
 18 20  1  0  0  0  0
 20 21  1  0  0  0  0
 22 23  1  0  0  0  0
 22 20  1  0  0  0  0
 24 17  1  0  0  0  0
 24 22  2  0  0  0  0
 25 26  1  0  0  0  0
 27 38  1  0  0  0  0
 27 30  1  1  0  0  0
 28 29  1  0  0  0  0
 28 27  1  0  0  0  0
 29 33  1  6  0  0  0
 29 27  1  0  0  0  0
 29 25  1  0  0  0  0
 31 28  1  0  0  0  0
 32 28  1  0  0  0  0
 34 39  1  0  0  0  0
 34 40  1  0  0  0  0
 35 34  2  0  0  0  0
 36 37  2  0  0  0  0
 36 35  1  0  0  0  0
 37 38  1  0  0  0  0
 38 39  2  0  0  0  0
 41 35  1  0  0  0  0
 42 36  1  0  0  0  0
M  END
>  <minimizedAffinity>
-6.03644609

$$$$

 OpenBabel03242511103D

 42 46  0  0  1  0  0  0  0  0999 V2000
   36.9940   28.9250   41.3610 C   0  0  0  0  0  0  0  0  0  0  0  0
   37.3970   29.3260   42.6320 C   0  0  0  0  0  0  0  0  0  0  0  0
   37.7150   28.4390   43.6440 C   0  0  0  0  0  0  0  0  0  0  0  0
   37.6440   27.0730   43.4260 C   0  0  0  0  0  0  0  0  0  0  0  0
   37.2500   26.6370   42.1840 C   0  0  0  0  0  0  0  0  0  0  0  0
   37.1760   25.2780   41.9460 C   0  0  0  0  0  0  0  0  0  0  0  0
   36.7970   24.7690   40.7360 C   0  0  0  0  0  0  0  0  0  0  0  0
   36.4880   25.6990   39.7510 C   0  0  0  0  0  0  0  0  0  0  0  0
   36.5690   27.0570   40.0040 C   0  0  0  0  0  0  0  0  0  0  0  0
   36.9470   27.5520   41.2160 C   0  0  0  0  0  0  0  0  0  0  0  0
   37.4870   30.3680   42.9060 H   0  0  0  0  0  0  0  0  0  0  0  0
   38.0260   28.7750   44.6280 H   0  0  0  0  0  0  0  0  0  0  0  0
   37.8880   26.3830   44.2070 H   0  0  0  0  0  0  0  0  0  0  0  0
   37.4300   24.6120   42.7590 H   0  0  0  0  0  0  0  0  0  0  0  0
   36.7670   23.6910   40.6440 H   0  0  0  0  0  0  0  0  0  0  0  0
   36.1960   25.2000   38.8160 H   0  0  0  0  0  0  0  0  0  0  0  0
   36.2270   27.7650   38.7840 C   0  0  0  0  0  0  0  0  0  0  0  0
   35.1820   28.3080   38.0760 C   0  0  0  0  0  0  0  0  0  0  0  0
   34.2240   28.2250   38.5980 H   0  0  0  0  0  0  0  0  0  0  0  0
   35.5870   28.8120   36.8990 N   0  0  0  0  0  0  0  0  0  0  0  0
   34.9100   29.2570   36.2510 H   0  0  0  0  0  0  0  0  0  0  0  0
   36.9100   28.6000   36.8270 C   0  0  0  0  0  0  0  0  0  0  0  0
   37.5270   28.8970   35.9880 H   0  0  0  0  0  0  0  0  0  0  0  0
   37.3100   27.9640   37.9670 N   0  0  0  0  0  0  0  0  0  0  0  0
   36.6730   29.8730   40.3680 N   0  0  0  0  0  0  0  0  0  0  0  0
   35.7260   29.8740   39.9350 H   0  0  0  0  0  0  0  0  0  0  0  0
   37.9510   32.0840   40.5980 C   0  0  1  0  0  0  0  0  0  0  0  0
   37.0900   32.1500   39.3540 C   0  0  0  0  0  0  0  0  0  0  0  0
   37.6380   30.8330   39.9270 C   0  0  2  0  0  0  0  0  0  0  0  0
   37.3900   32.5120   41.4680 H   0  0  0  0  0  0  0  0  0  0  0  0
   35.9980   32.2890   39.4390 H   0  0  0  0  0  0  0  0  0  0  0  0
   37.5930   32.5860   38.4730 H   0  0  0  0  0  0  0  0  0  0  0  0
   38.4800   30.4170   39.2960 H   0  0  0  0  0  0  0  0  0  0  0  0
   40.8730   34.1610   39.6060 C   0  0  0  0  0  0  0  0  0  0  0  0
   41.9160   33.5510   40.3690 C   0  0  0  0  0  0  0  0  0  0  0  0
   41.5820   32.4470   41.2140 C   0  0  0  0  0  0  0  0  0  0  0  0
   40.3130   32.0290   41.2600 N   0  0  0  0  0  0  0  0  0  0  0  0
   39.3430   32.6300   40.5230 C   0  0  0  0  0  0  0  0  0  0  0  0
   39.6240   33.6940   39.6980 N   0  0  0  0  0  0  0  0  0  0  0  0
   41.1200   34.9950   38.9660 H   0  0  0  0  0  0  0  0  0  0  0  0
   42.8930   33.9530   40.2660 H   0  0  0  0  0  0  0  0  0  0  0  0
   42.4010   32.0410   41.7530 H   0  0  0  0  0  0  0  0  0  0  0  0
  1  2  1  0  0  0  0
  2 11  1  0  0  0  0
  2  3  2  0  0  0  0
  3 12  1  0  0  0  0
  4  3  1  0  0  0  0
  4 13  1  0  0  0  0
  5  4  2  0  0  0  0
  6  5  1  0  0  0  0
  6 14  1  0  0  0  0
  7  6  2  0  0  0  0
  8  9  2  0  0  0  0
  8  7  1  0  0  0  0
  9 10  1  0  0  0  0
 10  1  2  0  0  0  0
 10  5  1  0  0  0  0
 15  7  1  0  0  0  0
 16  8  1  0  0  0  0
 17  9  1  0  0  0  0
 18 19  1  0  0  0  0
 18 17  2  0  0  0  0
 20 18  1  0  0  0  0
 21 20  1  0  0  0  0
 22 20  1  0  0  0  0
 22 24  2  0  0  0  0
 23 22  1  0  0  0  0
 24 17  1  0  0  0  0
 25  1  1  0  0  0  0
 26 25  1  0  0  0  0
 27 30  1  1  0  0  0
 28 31  1  0  0  0  0
 28 29  1  0  0  0  0
 28 27  1  0  0  0  0
 29 33  1  6  0  0  0
 29 25  1  0  0  0  0
 29 27  1  0  0  0  0
 32 28  1  0  0  0  0
 34 39  2  0  0  0  0
 34 35  1  0  0  0  0
 35 36  2  0  0  0  0
 36 37  1  0  0  0  0
 36 42  1  0  0  0  0
 38 27  1  0  0  0  0
 38 37  2  0  0  0  0
 39 38  1  0  0  0  0
 40 34  1  0  0  0  0
 41 35  1  0  0  0  0
M  END
>  <minimizedAffinity>
-5.99859333

$$$$

 OpenBabel03242511103D

 42 46  0  0  1  0  0  0  0  0999 V2000
   36.5080   29.5600   39.8480 C   0  0  0  0  0  0  0  0  0  0  0  0
   35.5730   28.5420   39.6810 C   0  0  0  0  0  0  0  0  0  0  0  0
   35.0430   28.1890   38.4540 C   0  0  0  0  0  0  0  0  0  0  0  0
   35.4340   28.8570   37.3040 C   0  0  0  0  0  0  0  0  0  0  0  0
   36.3560   29.8680   37.4270 C   0  0  0  0  0  0  0  0  0  0  0  0
   36.7610   30.5430   36.2910 C   0  0  0  0  0  0  0  0  0  0  0  0
   37.6760   31.5580   36.3330 C   0  0  0  0  0  0  0  0  0  0  0  0
   38.1810   31.8740   37.5890 C   0  0  0  0  0  0  0  0  0  0  0  0
   37.7660   31.1870   38.7160 C   0  0  0  0  0  0  0  0  0  0  0  0
   36.8520   30.1790   38.6620 C   0  0  0  0  0  0  0  0  0  0  0  0
   35.2020   27.9580   40.5120 H   0  0  0  0  0  0  0  0  0  0  0  0
   34.3140   27.3930   38.3480 H   0  0  0  0  0  0  0  0  0  0  0  0
   35.0250   28.5880   36.3530 H   0  0  0  0  0  0  0  0  0  0  0  0
   36.3250   30.2440   35.3480 H   0  0  0  0  0  0  0  0  0  0  0  0
   37.9310   32.0280   35.3930 H   0  0  0  0  0  0  0  0  0  0  0  0
   38.9070   32.6960   37.5240 H   0  0  0  0  0  0  0  0  0  0  0  0
   38.4920   31.7140   39.8580 C   0  0  0  0  0  0  0  0  0  0  0  0
   38.4440   32.6520   40.8610 C   0  0  0  0  0  0  0  0  0  0  0  0
   37.5160   33.2310   40.8610 H   0  0  0  0  0  0  0  0  0  0  0  0
   39.5610   32.6380   41.6090 N   0  0  0  0  0  0  0  0  0  0  0  0
   39.6730   33.2900   42.4080 H   0  0  0  0  0  0  0  0  0  0  0  0
   40.3530   31.6840   41.0950 C   0  0  0  0  0  0  0  0  0  0  0  0
   41.3310   31.4340   41.4850 H   0  0  0  0  0  0  0  0  0  0  0  0
   39.7140   31.1170   40.0300 N   0  0  0  0  0  0  0  0  0  0  0  0
   37.0100   29.8830   41.1250 N   0  0  0  0  0  0  0  0  0  0  0  0
   36.7770   30.8000   41.5590 H   0  0  0  0  0  0  0  0  0  0  0  0
   37.4030   27.9420   42.7540 C   0  0  1  0  0  0  0  0  0  0  0  0
   37.9960   29.2010   43.3490 C   0  0  0  0  0  0  0  0  0  0  0  0
   37.8570   28.9740   41.8350 C   0  0  2  0  0  0  0  0  0  0  0  0
   36.3510   27.8130   43.1160 H   0  0  0  0  0  0  0  0  0  0  0  0
   37.3390   29.9790   43.7780 H   0  0  0  0  0  0  0  0  0  0  0  0
   38.9910   29.0640   43.8090 H   0  0  0  0  0  0  0  0  0  0  0  0
   38.8540   28.7610   41.3470 H   0  0  0  0  0  0  0  0  0  0  0  0
   40.0650   25.5130   43.6740 C   0  0  0  0  0  0  0  0  0  0  0  0
   39.6080   24.3370   43.0050 C   0  0  0  0  0  0  0  0  0  0  0  0
   38.3880   24.4090   42.2620 C   0  0  0  0  0  0  0  0  0  0  0  0
   37.7230   25.5680   42.2240 N   0  0  0  0  0  0  0  0  0  0  0  0
   38.1820   26.6700   42.8720 C   0  0  0  0  0  0  0  0  0  0  0  0
   39.3510   26.6400   43.5960 N   0  0  0  0  0  0  0  0  0  0  0  0
   40.9860   25.4640   44.2360 H   0  0  0  0  0  0  0  0  0  0  0  0
   40.2050   23.4630   43.0930 H   0  0  0  0  0  0  0  0  0  0  0  0
   38.1050   23.5020   41.7890 H   0  0  0  0  0  0  0  0  0  0  0  0
  1 25  1  0  0  0  0
  2  1  1  0  0  0  0
  2 11  1  0  0  0  0
  3  2  2  0  0  0  0
  4  5  2  0  0  0  0
  4  3  1  0  0  0  0
  5 10  1  0  0  0  0
  6  7  2  0  0  0  0
  6  5  1  0  0  0  0
  7  8  1  0  0  0  0
  8  9  2  0  0  0  0
  9 17  1  0  0  0  0
 10  9  1  0  0  0  0
 10  1  2  0  0  0  0
 12  3  1  0  0  0  0
 13  4  1  0  0  0  0
 14  6  1  0  0  0  0
 15  7  1  0  0  0  0
 16  8  1  0  0  0  0
 17 24  1  0  0  0  0
 17 18  2  0  0  0  0
 18 19  1  0  0  0  0
 18 20  1  0  0  0  0
 20 21  1  0  0  0  0
 22 23  1  0  0  0  0
 22 20  1  0  0  0  0
 24 22  2  0  0  0  0
 25 26  1  0  0  0  0
 25 29  1  0  0  0  0
 27 38  1  0  0  0  0
 27 30  1  1  0  0  0
 27 28  1  0  0  0  0
 28 31  1  0  0  0  0
 28 32  1  0  0  0  0
 29 33  1  6  0  0  0
 29 27  1  0  0  0  0
 29 28  1  0  0  0  0
 34 40  1  0  0  0  0
 35 41  1  0  0  0  0
 35 34  2  0  0  0  0
 36 35  1  0  0  0  0
 37 36  2  0  0  0  0
 37 38  1  0  0  0  0
 38 39  2  0  0  0  0
 39 34  1  0  0  0  0
 42 36  1  0  0  0  0
M  END
>  <minimizedAffinity>
-5.96366024

$$$$

 OpenBabel03242511103D

 42 46  0  0  1  0  0  0  0  0999 V2000
   36.8430   28.3800   40.8000 C   0  0  0  0  0  0  0  0  0  0  0  0
   37.1000   29.0610   41.9870 C   0  0  0  0  0  0  0  0  0  0  0  0
   37.3260   28.4270   43.1950 C   0  0  0  0  0  0  0  0  0  0  0  0
   37.3040   27.0430   43.2740 C   0  0  0  0  0  0  0  0  0  0  0  0
   37.0540   26.3350   42.1230 C   0  0  0  0  0  0  0  0  0  0  0  0
   37.0320   24.9540   42.1820 C   0  0  0  0  0  0  0  0  0  0  0  0
   36.7930   24.1820   41.0790 C   0  0  0  0  0  0  0  0  0  0  0  0
   36.5740   24.8660   39.8900 C   0  0  0  0  0  0  0  0  0  0  0  0
   36.6010   26.2480   39.8480 C   0  0  0  0  0  0  0  0  0  0  0  0
   36.8380   27.0070   40.9540 C   0  0  0  0  0  0  0  0  0  0  0  0
   37.1410   30.1400   42.0350 H   0  0  0  0  0  0  0  0  0  0  0  0
   37.5230   28.9780   44.1080 H   0  0  0  0  0  0  0  0  0  0  0  0
   37.4770   26.5480   44.2060 H   0  0  0  0  0  0  0  0  0  0  0  0
   37.2100   24.4900   43.1410 H   0  0  0  0  0  0  0  0  0  0  0  0
   36.7940   23.1100   41.2220 H   0  0  0  0  0  0  0  0  0  0  0  0
   36.3930   24.1650   39.0620 H   0  0  0  0  0  0  0  0  0  0  0  0
   36.3780   26.6630   38.4740 C   0  0  0  0  0  0  0  0  0  0  0  0
   35.4040   26.9870   37.5620 C   0  0  0  0  0  0  0  0  0  0  0  0
   34.3960   26.9660   37.9870 H   0  0  0  0  0  0  0  0  0  0  0  0
   35.9240   27.2510   36.3510 N   0  0  0  0  0  0  0  0  0  0  0  0
   35.3110   27.5130   35.5560 H   0  0  0  0  0  0  0  0  0  0  0  0
   37.2520   27.1000   36.4650 C   0  0  0  0  0  0  0  0  0  0  0  0
   37.9500   27.2440   35.6500 H   0  0  0  0  0  0  0  0  0  0  0  0
   37.5400   26.7420   37.7500 N   0  0  0  0  0  0  0  0  0  0  0  0
   36.6120   29.0790   39.5970 N   0  0  0  0  0  0  0  0  0  0  0  0
   35.7470   28.8970   39.0470 H   0  0  0  0  0  0  0  0  0  0  0  0
   37.3560   31.4670   39.0360 C   0  0  1  0  0  0  0  0  0  0  0  0
   37.2440   30.6800   37.7480 C   0  0  0  0  0  0  0  0  0  0  0  0
   37.5610   30.0290   39.1040 C   0  0  2  0  0  0  0  0  0  0  0  0
   36.3910   31.9960   39.2410 H   0  0  0  0  0  0  0  0  0  0  0  0
   36.2520   30.4420   37.3240 H   0  0  0  0  0  0  0  0  0  0  0  0
   38.0760   30.8430   37.0390 H   0  0  0  0  0  0  0  0  0  0  0  0
   38.6440   29.7140   39.1770 H   0  0  0  0  0  0  0  0  0  0  0  0
   40.6970   33.0360   38.5770 C   0  0  0  0  0  0  0  0  0  0  0  0
   40.6710   34.0430   39.5910 C   0  0  0  0  0  0  0  0  0  0  0  0
   39.4970   34.1610   40.3990 C   0  0  0  0  0  0  0  0  0  0  0  0
   38.4730   33.3310   40.1760 N   0  0  0  0  0  0  0  0  0  0  0  0
   38.5270   32.3840   39.2040 C   0  0  0  0  0  0  0  0  0  0  0  0
   39.6390   32.2390   38.4060 N   0  0  0  0  0  0  0  0  0  0  0  0
   41.5820   32.9420   37.9640 H   0  0  0  0  0  0  0  0  0  0  0  0
   41.5330   34.6540   39.6930 H   0  0  0  0  0  0  0  0  0  0  0  0
   39.5420   34.9270   41.1320 H   0  0  0  0  0  0  0  0  0  0  0  0
  1 10  2  0  0  0  0
  1  2  1  0  0  0  0
  2 11  1  0  0  0  0
  2  3  2  0  0  0  0
  3  4  1  0  0  0  0
  3 12  1  0  0  0  0
  4 13  1  0  0  0  0
  5  6  1  0  0  0  0
  5  4  2  0  0  0  0
  6 14  1  0  0  0  0
  7 15  1  0  0  0  0
  7  6  2  0  0  0  0
  8  7  1  0  0  0  0
  9  8  2  0  0  0  0
  9 10  1  0  0  0  0
 10  5  1  0  0  0  0
 16  8  1  0  0  0  0
 17  9  1  0  0  0  0
 18 19  1  0  0  0  0
 18 17  2  0  0  0  0
 20 22  1  0  0  0  0
 20 18  1  0  0  0  0
 21 20  1  0  0  0  0
 22 24  2  0  0  0  0
 23 22  1  0  0  0  0
 24 17  1  0  0  0  0
 25  1  1  0  0  0  0
 26 25  1  0  0  0  0
 27 29  1  0  0  0  0
 27 38  1  0  0  0  0
 27 30  1  1  0  0  0
 28 27  1  0  0  0  0
 28 29  1  0  0  0  0
 29 33  1  1  0  0  0
 29 25  1  0  0  0  0
 31 28  1  0  0  0  0
 32 28  1  0  0  0  0
 34 35  1  0  0  0  0
 35 41  1  0  0  0  0
 35 36  2  0  0  0  0
 36 42  1  0  0  0  0
 37 36  1  0  0  0  0
 38 37  2  0  0  0  0
 39 34  2  0  0  0  0
 39 38  1  0  0  0  0
 40 34  1  0  0  0  0
M  END
>  <minimizedAffinity>
-5.94180346

$$$$

 OpenBabel03242511103D

 42 46  0  0  1  0  0  0  0  0999 V2000
   37.1040   28.2390   41.6710 C   0  0  0  0  0  0  0  0  0  0  0  0
   36.8960   29.5950   41.9120 C   0  0  0  0  0  0  0  0  0  0  0  0
   36.2330   30.4310   41.0340 C   0  0  0  0  0  0  0  0  0  0  0  0
   35.7310   29.9370   39.8400 C   0  0  0  0  0  0  0  0  0  0  0  0
   35.9160   28.6040   39.5650 C   0  0  0  0  0  0  0  0  0  0  0  0
   35.4190   28.0920   38.3810 C   0  0  0  0  0  0  0  0  0  0  0  0
   35.5610   26.7760   38.0400 C   0  0  0  0  0  0  0  0  0  0  0  0
   36.2340   25.9760   38.9550 C   0  0  0  0  0  0  0  0  0  0  0  0
   36.7230   26.5030   40.1370 C   0  0  0  0  0  0  0  0  0  0  0  0
   36.5770   27.8170   40.4650 C   0  0  0  0  0  0  0  0  0  0  0  0
   37.2460   30.0790   42.8130 H   0  0  0  0  0  0  0  0  0  0  0  0
   36.0840   31.4850   41.2430 H   0  0  0  0  0  0  0  0  0  0  0  0
   35.2180   30.5810   39.1570 H   0  0  0  0  0  0  0  0  0  0  0  0
   34.9080   28.7730   37.7160 H   0  0  0  0  0  0  0  0  0  0  0  0
   35.1410   26.4670   37.0920 H   0  0  0  0  0  0  0  0  0  0  0  0
   36.2970   24.9380   38.5970 H   0  0  0  0  0  0  0  0  0  0  0  0
   37.3350   25.4250   40.8930 C   0  0  0  0  0  0  0  0  0  0  0  0
   37.1050   24.4990   41.8810 C   0  0  0  0  0  0  0  0  0  0  0  0
   36.0780   24.5220   42.2580 H   0  0  0  0  0  0  0  0  0  0  0  0
   38.2070   23.7810   42.1570 N   0  0  0  0  0  0  0  0  0  0  0  0
   38.1900   23.0400   42.8820 H   0  0  0  0  0  0  0  0  0  0  0  0
   39.1730   24.2370   41.3440 C   0  0  0  0  0  0  0  0  0  0  0  0
   40.1850   23.8540   41.3310 H   0  0  0  0  0  0  0  0  0  0  0  0
   38.6540   25.2370   40.5730 N   0  0  0  0  0  0  0  0  0  0  0  0
   37.7960   27.4330   42.5990 N   0  0  0  0  0  0  0  0  0  0  0  0
   37.4210   26.4970   42.8560 H   0  0  0  0  0  0  0  0  0  0  0  0
   40.3280   27.8300   42.6110 C   0  0  1  0  0  0  0  0  0  0  0  0
   39.9930   26.8060   43.6750 C   0  0  0  0  0  0  0  0  0  0  0  0
   39.0050   27.8890   43.2110 C   0  0  2  0  0  0  0  0  0  0  0  0
   40.5850   27.3090   41.6540 H   0  0  0  0  0  0  0  0  0  0  0  0
   39.7350   25.7710   43.3920 H   0  0  0  0  0  0  0  0  0  0  0  0
   40.5200   26.9560   44.6350 H   0  0  0  0  0  0  0  0  0  0  0  0
   38.8780   28.7030   43.9850 H   0  0  0  0  0  0  0  0  0  0  0  0
   41.9230   31.1630   43.0390 C   0  0  0  0  0  0  0  0  0  0  0  0
   43.2230   30.7890   43.4990 C   0  0  0  0  0  0  0  0  0  0  0  0
   43.5130   29.3980   43.6590 C   0  0  0  0  0  0  0  0  0  0  0  0
   42.5600   28.5040   43.3770 N   0  0  0  0  0  0  0  0  0  0  0  0
   41.3320   28.8900   42.9420 C   0  0  0  0  0  0  0  0  0  0  0  0
   41.0160   30.2180   42.7750 N   0  0  0  0  0  0  0  0  0  0  0  0
   41.7000   32.2120   42.9150 H   0  0  0  0  0  0  0  0  0  0  0  0
   43.9140   31.5720   43.6960 H   0  0  0  0  0  0  0  0  0  0  0  0
   44.4950   29.1890   44.0030 H   0  0  0  0  0  0  0  0  0  0  0  0
  1  2  1  0  0  0  0
  1 25  1  0  0  0  0
  2 11  1  0  0  0  0
  3 12  1  0  0  0  0
  3  2  2  0  0  0  0
  4  3  1  0  0  0  0
  5  4  2  0  0  0  0
  5 10  1  0  0  0  0
  6  5  1  0  0  0  0
  7  6  2  0  0  0  0
  7  8  1  0  0  0  0
  8  9  2  0  0  0  0
  9 10  1  0  0  0  0
  9 17  1  0  0  0  0
 10  1  2  0  0  0  0
 13  4  1  0  0  0  0
 14  6  1  0  0  0  0
 15  7  1  0  0  0  0
 16  8  1  0  0  0  0
 17 18  2  0  0  0  0
 18 20  1  0  0  0  0
 18 19  1  0  0  0  0
 20 21  1  0  0  0  0
 22 20  1  0  0  0  0
 23 22  1  0  0  0  0
 24 17  1  0  0  0  0
 24 22  2  0  0  0  0
 25 26  1  0  0  0  0
 25 29  1  0  0  0  0
 27 30  1  6  0  0  0
 27 38  1  0  0  0  0
 27 29  1  0  0  0  0
 27 28  1  0  0  0  0
 28 32  1  0  0  0  0
 29 28  1  0  0  0  0
 29 33  1  1  0  0  0
 31 28  1  0  0  0  0
 34 35  1  0  0  0  0
 35 36  2  0  0  0  0
 35 41  1  0  0  0  0
 36 42  1  0  0  0  0
 37 36  1  0  0  0  0
 38 37  2  0  0  0  0
 39 38  1  0  0  0  0
 39 34  2  0  0  0  0
 40 34  1  0  0  0  0
M  END
>  <minimizedAffinity>
-5.80431223

$$$$

 OpenBabel03242511103D

 42 46  0  0  1  0  0  0  0  0999 V2000
   36.9510   26.2110   41.4550 C   0  0  0  0  0  0  0  0  0  0  0  0
   37.3590   24.9760   41.9510 C   0  0  0  0  0  0  0  0  0  0  0  0
   37.4980   23.8480   41.1650 C   0  0  0  0  0  0  0  0  0  0  0  0
   37.2270   23.9030   39.8070 C   0  0  0  0  0  0  0  0  0  0  0  0
   36.8210   25.1050   39.2790 C   0  0  0  0  0  0  0  0  0  0  0  0
   36.5490   25.1800   37.9260 C   0  0  0  0  0  0  0  0  0  0  0  0
   36.1440   26.3410   37.3270 C   0  0  0  0  0  0  0  0  0  0  0  0
   36.0210   27.4470   38.1590 C   0  0  0  0  0  0  0  0  0  0  0  0
   36.2990   27.3550   39.5110 C   0  0  0  0  0  0  0  0  0  0  0  0
   36.7000   26.1920   40.0970 C   0  0  0  0  0  0  0  0  0  0  0  0
   37.5970   24.8250   42.9950 H   0  0  0  0  0  0  0  0  0  0  0  0
   37.8170   22.8950   41.5740 H   0  0  0  0  0  0  0  0  0  0  0  0
   37.3310   23.0320   39.1950 H   0  0  0  0  0  0  0  0  0  0  0  0
   36.6660   24.2800   37.3400 H   0  0  0  0  0  0  0  0  0  0  0  0
   35.9540   26.3040   36.2630 H   0  0  0  0  0  0  0  0  0  0  0  0
   35.6940   28.3300   37.5920 H   0  0  0  0  0  0  0  0  0  0  0  0
   36.1180   28.6700   40.1000 C   0  0  0  0  0  0  0  0  0  0  0  0
   35.2050   29.4880   40.7200 C   0  0  0  0  0  0  0  0  0  0  0  0
   34.2360   29.0040   40.8780 H   0  0  0  0  0  0  0  0  0  0  0  0
   35.7200   30.7000   40.9830 N   0  0  0  0  0  0  0  0  0  0  0  0
   35.1500   31.4290   41.4510 H   0  0  0  0  0  0  0  0  0  0  0  0
   36.9850   30.6840   40.5320 C   0  0  0  0  0  0  0  0  0  0  0  0
   37.6630   31.5240   40.6010 H   0  0  0  0  0  0  0  0  0  0  0  0
   37.2370   29.4560   39.9930 N   0  0  0  0  0  0  0  0  0  0  0  0
   36.8190   27.3290   42.3050 N   0  0  0  0  0  0  0  0  0  0  0  0
   35.8780   27.7380   42.4850 H   0  0  0  0  0  0  0  0  0  0  0  0
   39.3370   27.7800   42.4620 C   0  0  1  0  0  0  0  0  0  0  0  0
   38.9110   26.9860   43.6790 C   0  0  0  0  0  0  0  0  0  0  0  0
   37.9640   27.9280   42.9170 C   0  0  2  0  0  0  0  0  0  0  0  0
   39.6840   27.0810   41.6590 H   0  0  0  0  0  0  0  0  0  0  0  0
   38.6850   25.9080   43.5910 H   0  0  0  0  0  0  0  0  0  0  0  0
   39.3460   27.3400   44.6310 H   0  0  0  0  0  0  0  0  0  0  0  0
   37.7620   28.8790   43.4930 H   0  0  0  0  0  0  0  0  0  0  0  0
   40.7550   31.2150   42.6310 C   0  0  0  0  0  0  0  0  0  0  0  0
   42.1160   30.9350   42.9620 C   0  0  0  0  0  0  0  0  0  0  0  0
   42.5080   29.5690   43.1290 C   0  0  0  0  0  0  0  0  0  0  0  0
   41.5890   28.6110   42.9720 N   0  0  0  0  0  0  0  0  0  0  0  0
   40.3010   28.9080   42.6580 C   0  0  0  0  0  0  0  0  0  0  0  0
   39.8870   30.2090   42.4880 N   0  0  0  0  0  0  0  0  0  0  0  0
   40.4550   32.2440   42.5030 H   0  0  0  0  0  0  0  0  0  0  0  0
   42.7730   31.7630   43.0650 H   0  0  0  0  0  0  0  0  0  0  0  0
   43.5310   29.4310   43.3750 H   0  0  0  0  0  0  0  0  0  0  0  0
  1  2  1  0  0  0  0
  1 25  1  0  0  0  0
  2 11  1  0  0  0  0
  3 12  1  0  0  0  0
  3  2  2  0  0  0  0
  4  3  1  0  0  0  0
  5  4  2  0  0  0  0
  5 10  1  0  0  0  0
  6  5  1  0  0  0  0
  7  6  2  0  0  0  0
  7  8  1  0  0  0  0
  8  9  2  0  0  0  0
  9 10  1  0  0  0  0
  9 17  1  0  0  0  0
 10  1  2  0  0  0  0
 13  4  1  0  0  0  0
 14  6  1  0  0  0  0
 15  7  1  0  0  0  0
 16  8  1  0  0  0  0
 17 18  2  0  0  0  0
 18 19  1  0  0  0  0
 18 20  1  0  0  0  0
 20 21  1  0  0  0  0
 22 23  1  0  0  0  0
 22 20  1  0  0  0  0
 24 17  1  0  0  0  0
 24 22  2  0  0  0  0
 25 26  1  0  0  0  0
 25 29  1  0  0  0  0
 27 30  1  6  0  0  0
 27 38  1  0  0  0  0
 27 29  1  0  0  0  0
 27 28  1  0  0  0  0
 28 32  1  0  0  0  0
 29 33  1  1  0  0  0
 29 28  1  0  0  0  0
 31 28  1  0  0  0  0
 34 35  1  0  0  0  0
 35 41  1  0  0  0  0
 35 36  2  0  0  0  0
 36 42  1  0  0  0  0
 37 36  1  0  0  0  0
 38 37  2  0  0  0  0
 39 34  2  0  0  0  0
 39 38  1  0  0  0  0
 40 34  1  0  0  0  0
M  END
>  <minimizedAffinity>
-5.7604661

$$$$

 OpenBabel03242511103D

 42 46  0  0  1  0  0  0  0  0999 V2000
   39.3550   27.7580   42.9660 C   0  0  0  0  0  0  0  0  0  0  0  0
   38.4100   28.7110   43.3360 C   0  0  0  0  0  0  0  0  0  0  0  0
   37.0490   28.4710   43.3450 C   0  0  0  0  0  0  0  0  0  0  0  0
   36.5550   27.2310   42.9750 C   0  0  0  0  0  0  0  0  0  0  0  0
   37.4550   26.2620   42.6020 C   0  0  0  0  0  0  0  0  0  0  0  0
   36.9810   25.0170   42.2320 C   0  0  0  0  0  0  0  0  0  0  0  0
   37.8160   24.0030   41.8530 C   0  0  0  0  0  0  0  0  0  0  0  0
   39.1740   24.2930   41.8610 C   0  0  0  0  0  0  0  0  0  0  0  0
   39.6330   25.5430   42.2360 C   0  0  0  0  0  0  0  0  0  0  0  0
   38.7910   26.5480   42.6110 C   0  0  0  0  0  0  0  0  0  0  0  0
   38.6900   29.7090   43.6440 H   0  0  0  0  0  0  0  0  0  0  0  0
   36.3310   29.2300   43.6370 H   0  0  0  0  0  0  0  0  0  0  0  0
   35.5020   27.0400   42.9790 H   0  0  0  0  0  0  0  0  0  0  0  0
   35.9120   24.8630   42.2490 H   0  0  0  0  0  0  0  0  0  0  0  0
   37.3530   23.0640   41.5790 H   0  0  0  0  0  0  0  0  0  0  0  0
   39.7640   23.4210   41.5450 H   0  0  0  0  0  0  0  0  0  0  0  0
   41.0840   25.5280   42.1810 C   0  0  0  0  0  0  0  0  0  0  0  0
   42.1580   25.5910   41.3280 C   0  0  0  0  0  0  0  0  0  0  0  0
   41.8660   25.7330   40.2830 H   0  0  0  0  0  0  0  0  0  0  0  0
   43.3230   25.4570   41.9830 N   0  0  0  0  0  0  0  0  0  0  0  0
   44.2260   25.4850   41.4730 H   0  0  0  0  0  0  0  0  0  0  0  0
   43.0160   25.3040   43.2810 C   0  0  0  0  0  0  0  0  0  0  0  0
   43.7490   25.1710   44.0650 H   0  0  0  0  0  0  0  0  0  0  0  0
   41.6580   25.3440   43.4120 N   0  0  0  0  0  0  0  0  0  0  0  0
   40.7320   28.0600   42.9670 N   0  0  0  0  0  0  0  0  0  0  0  0
   41.4190   27.3580   43.3120 H   0  0  0  0  0  0  0  0  0  0  0  0
   41.1840   29.7980   41.1370 C   0  0  1  0  0  0  0  0  0  0  0  0
   42.5110   29.3300   41.6990 C   0  0  0  0  0  0  0  0  0  0  0  0
   41.2070   29.3310   42.5140 C   0  0  2  0  0  0  0  0  0  0  0  0
   40.9120   29.1780   40.2460 H   0  0  0  0  0  0  0  0  0  0  0  0
   42.9080   28.3340   41.4350 H   0  0  0  0  0  0  0  0  0  0  0  0
   43.2410   30.1390   41.8800 H   0  0  0  0  0  0  0  0  0  0  0  0
   41.1950   30.1550   43.2880 H   0  0  0  0  0  0  0  0  0  0  0  0
   39.6060   33.1340   40.6720 C   0  0  0  0  0  0  0  0  0  0  0  0
   40.7330   33.9200   40.2810 C   0  0  0  0  0  0  0  0  0  0  0  0
   42.0100   33.2810   40.1980 C   0  0  0  0  0  0  0  0  0  0  0  0
   42.1010   31.9800   40.4910 N   0  0  0  0  0  0  0  0  0  0  0  0
   41.0110   31.2590   40.8600 C   0  0  0  0  0  0  0  0  0  0  0  0
   39.7670   31.8370   40.9510 N   0  0  0  0  0  0  0  0  0  0  0  0
   38.6390   33.6110   40.7350 H   0  0  0  0  0  0  0  0  0  0  0  0
   40.5610   34.9460   40.0680 H   0  0  0  0  0  0  0  0  0  0  0  0
   42.8040   33.9200   39.9030 H   0  0  0  0  0  0  0  0  0  0  0  0
  1 25  1  0  0  0  0
  1  2  1  0  0  0  0
  2  3  2  0  0  0  0
  2 11  1  0  0  0  0
  3 12  1  0  0  0  0
  4 13  1  0  0  0  0
  4  3  1  0  0  0  0
  5 10  1  0  0  0  0
  5  4  2  0  0  0  0
  6 14  1  0  0  0  0
  6  5  1  0  0  0  0
  7  8  1  0  0  0  0
  7  6  2  0  0  0  0
  8  9  2  0  0  0  0
  9 10  1  0  0  0  0
 10  1  2  0  0  0  0
 15  7  1  0  0  0  0
 16  8  1  0  0  0  0
 17  9  1  0  0  0  0
 17 24  1  0  0  0  0
 18 20  1  0  0  0  0
 18 17  2  0  0  0  0
 19 18  1  0  0  0  0
 20 22  1  0  0  0  0
 21 20  1  0  0  0  0
 22 24  2  0  0  0  0
 22 23  1  0  0  0  0
 25 26  1  0  0  0  0
 27 30  1  6  0  0  0
 27 28  1  0  0  0  0
 27 29  1  0  0  0  0
 28 32  1  0  0  0  0
 28 29  1  0  0  0  0
 29 25  1  0  0  0  0
 29 33  1  1  0  0  0
 31 28  1  0  0  0  0
 34 40  1  0  0  0  0
 34 39  1  0  0  0  0
 35 34  2  0  0  0  0
 36 35  1  0  0  0  0
 36 37  2  0  0  0  0
 37 38  1  0  0  0  0
 38 39  2  0  0  0  0
 38 27  1  0  0  0  0
 41 35  1  0  0  0  0
 42 36  1  0  0  0  0
M  END
>  <minimizedAffinity>
-5.73533249

$$$$

 OpenBabel03242511103D

 42 46  0  0  1  0  0  0  0  0999 V2000
   36.9760   29.3410   41.0660 C   0  0  0  0  0  0  0  0  0  0  0  0
   37.5980   29.7810   42.2310 C   0  0  0  0  0  0  0  0  0  0  0  0
   38.1770   28.9290   43.1530 C   0  0  0  0  0  0  0  0  0  0  0  0
   38.1610   27.5590   42.9470 C   0  0  0  0  0  0  0  0  0  0  0  0
   37.5560   27.0850   41.8080 C   0  0  0  0  0  0  0  0  0  0  0  0
   37.5330   25.7220   41.5830 C   0  0  0  0  0  0  0  0  0  0  0  0
   36.9530   25.1750   40.4720 C   0  0  0  0  0  0  0  0  0  0  0  0
   36.3860   26.0720   39.5750 C   0  0  0  0  0  0  0  0  0  0  0  0
   36.4190   27.4350   39.8140 C   0  0  0  0  0  0  0  0  0  0  0  0
   36.9990   27.9670   40.9260 C   0  0  0  0  0  0  0  0  0  0  0  0
   37.6670   30.8300   42.4860 H   0  0  0  0  0  0  0  0  0  0  0  0
   38.6560   29.2950   44.0550 H   0  0  0  0  0  0  0  0  0  0  0  0
   38.6070   26.8960   43.6580 H   0  0  0  0  0  0  0  0  0  0  0  0
   37.9930   25.0830   42.3240 H   0  0  0  0  0  0  0  0  0  0  0  0
   36.9820   24.0980   40.3820 H   0  0  0  0  0  0  0  0  0  0  0  0
   35.9470   25.5450   38.7160 H   0  0  0  0  0  0  0  0  0  0  0  0
   35.7880   28.1050   38.6910 C   0  0  0  0  0  0  0  0  0  0  0  0
   34.5900   28.5910   38.2250 C   0  0  0  0  0  0  0  0  0  0  0  0
   33.7740   28.4780   38.9450 H   0  0  0  0  0  0  0  0  0  0  0  0
   34.7050   29.0900   36.9830 N   0  0  0  0  0  0  0  0  0  0  0  0
   33.8840   29.4950   36.4960 H   0  0  0  0  0  0  0  0  0  0  0  0
   35.9890   28.9320   36.6250 C   0  0  0  0  0  0  0  0  0  0  0  0
   36.3930   29.2380   35.6690 H   0  0  0  0  0  0  0  0  0  0  0  0
   36.6560   28.3340   37.6550 N   0  0  0  0  0  0  0  0  0  0  0  0
   36.3940   30.2550   40.1630 N   0  0  0  0  0  0  0  0  0  0  0  0
   35.3670   30.2380   39.9950 H   0  0  0  0  0  0  0  0  0  0  0  0
   38.2730   31.9940   40.0290 C   0  0  1  0  0  0  0  0  0  0  0  0
   36.9530   32.6870   39.7690 C   0  0  0  0  0  0  0  0  0  0  0  0
   37.1970   31.2020   39.4540 C   0  0  2  0  0  0  0  0  0  0  0  0
   38.5230   32.0550   41.1190 H   0  0  0  0  0  0  0  0  0  0  0  0
   36.2560   32.8900   40.6010 H   0  0  0  0  0  0  0  0  0  0  0  0
   36.9730   33.4090   38.9320 H   0  0  0  0  0  0  0  0  0  0  0  0
   37.2950   31.0170   38.3420 H   0  0  0  0  0  0  0  0  0  0  0  0
   40.8650   31.8970   37.3630 C   0  0  0  0  0  0  0  0  0  0  0  0
   41.6390   33.0530   37.6890 C   0  0  0  0  0  0  0  0  0  0  0  0
   41.2410   33.8420   38.8140 C   0  0  0  0  0  0  0  0  0  0  0  0
   40.1630   33.4700   39.5130 N   0  0  0  0  0  0  0  0  0  0  0  0
   39.4470   32.3670   39.1780 C   0  0  0  0  0  0  0  0  0  0  0  0
   39.7980   31.5830   38.1030 N   0  0  0  0  0  0  0  0  0  0  0  0
   41.1630   31.2980   36.5150 H   0  0  0  0  0  0  0  0  0  0  0  0
   42.4790   33.2660   37.0750 H   0  0  0  0  0  0  0  0  0  0  0  0
   41.8570   34.6850   39.0010 H   0  0  0  0  0  0  0  0  0  0  0  0
  1  2  1  0  0  0  0
  2 11  1  0  0  0  0
  2  3  2  0  0  0  0
  3 12  1  0  0  0  0
  4  3  1  0  0  0  0
  4 13  1  0  0  0  0
  5  4  2  0  0  0  0
  6  5  1  0  0  0  0
  6 14  1  0  0  0  0
  7  6  2  0  0  0  0
  8  9  2  0  0  0  0
  8  7  1  0  0  0  0
  9 10  1  0  0  0  0
 10  1  2  0  0  0  0
 10  5  1  0  0  0  0
 15  7  1  0  0  0  0
 16  8  1  0  0  0  0
 17  9  1  0  0  0  0
 18 17  2  0  0  0  0
 18 19  1  0  0  0  0
 20 18  1  0  0  0  0
 21 20  1  0  0  0  0
 22 20  1  0  0  0  0
 22 24  2  0  0  0  0
 23 22  1  0  0  0  0
 24 17  1  0  0  0  0
 25  1  1  0  0  0  0
 26 25  1  0  0  0  0
 27 30  1  1  0  0  0
 28 27  1  0  0  0  0
 28 31  1  0  0  0  0
 29 33  1  6  0  0  0
 29 28  1  0  0  0  0
 29 27  1  0  0  0  0
 29 25  1  0  0  0  0
 32 28  1  0  0  0  0
 34 35  2  0  0  0  0
 34 39  1  0  0  0  0
 35 36  1  0  0  0  0
 36 42  1  0  0  0  0
 36 37  2  0  0  0  0
 38 37  1  0  0  0  0
 38 27  1  0  0  0  0
 39 38  2  0  0  0  0
 40 34  1  0  0  0  0
 41 35  1  0  0  0  0
M  END
>  <minimizedAffinity>
-5.72926044

$$$$

 OpenBabel03242511103D

 42 46  0  0  1  0  0  0  0  0999 V2000
   37.4180   27.9380   39.2790 C   0  0  0  0  0  0  0  0  0  0  0  0
   37.5350   26.7830   38.5110 C   0  0  0  0  0  0  0  0  0  0  0  0
   37.4970   25.5080   39.0430 C   0  0  0  0  0  0  0  0  0  0  0  0
   37.3360   25.3230   40.4070 C   0  0  0  0  0  0  0  0  0  0  0  0
   37.2170   26.4390   41.2000 C   0  0  0  0  0  0  0  0  0  0  0  0
   37.0520   26.2750   42.5620 C   0  0  0  0  0  0  0  0  0  0  0  0
   36.9230   27.3360   43.4140 C   0  0  0  0  0  0  0  0  0  0  0  0
   36.9670   28.5970   42.8310 C   0  0  0  0  0  0  0  0  0  0  0  0
   37.1300   28.7440   41.4650 C   0  0  0  0  0  0  0  0  0  0  0  0
   37.2590   27.6780   40.6260 C   0  0  0  0  0  0  0  0  0  0  0  0
   37.6620   26.8160   37.4370 H   0  0  0  0  0  0  0  0  0  0  0  0
   37.5920   24.6220   38.4240 H   0  0  0  0  0  0  0  0  0  0  0  0
   37.3080   24.3380   40.8240 H   0  0  0  0  0  0  0  0  0  0  0  0
   37.0290   25.2650   42.9460 H   0  0  0  0  0  0  0  0  0  0  0  0
   36.8000   27.1100   44.4640 H   0  0  0  0  0  0  0  0  0  0  0  0
   36.8540   29.3840   43.5900 H   0  0  0  0  0  0  0  0  0  0  0  0
   37.0960   30.1630   41.1570 C   0  0  0  0  0  0  0  0  0  0  0  0
   36.2800   31.1820   40.7290 C   0  0  0  0  0  0  0  0  0  0  0  0
   35.2460   30.8630   40.5710 H   0  0  0  0  0  0  0  0  0  0  0  0
   36.9530   32.3370   40.6010 N   0  0  0  0  0  0  0  0  0  0  0  0
   36.4710   33.2000   40.2860 H   0  0  0  0  0  0  0  0  0  0  0  0
   38.2250   32.0800   40.9460 C   0  0  0  0  0  0  0  0  0  0  0  0
   39.0150   32.8190   40.9420 H   0  0  0  0  0  0  0  0  0  0  0  0
   38.3230   30.7610   41.2850 N   0  0  0  0  0  0  0  0  0  0  0  0
   37.4710   29.2160   38.6840 N   0  0  0  0  0  0  0  0  0  0  0  0
   36.7300   29.9170   38.8890 H   0  0  0  0  0  0  0  0  0  0  0  0
   39.8140   30.1210   38.1670 C   0  0  1  0  0  0  0  0  0  0  0  0
   38.7880   31.0650   37.5750 C   0  0  0  0  0  0  0  0  0  0  0  0
   38.5260   29.5650   37.7830 C   0  0  2  0  0  0  0  0  0  0  0  0
   40.0920   30.4640   39.1950 H   0  0  0  0  0  0  0  0  0  0  0  0
   38.2140   31.7450   38.2290 H   0  0  0  0  0  0  0  0  0  0  0  0
   39.0270   31.4180   36.5560 H   0  0  0  0  0  0  0  0  0  0  0  0
   38.5350   28.9960   36.8060 H   0  0  0  0  0  0  0  0  0  0  0  0
   42.4000   28.1970   36.3100 C   0  0  0  0  0  0  0  0  0  0  0  0
   43.2910   29.2420   35.9170 C   0  0  0  0  0  0  0  0  0  0  0  0
   42.9710   30.5850   36.2930 C   0  0  0  0  0  0  0  0  0  0  0  0
   41.8550   30.8100   36.9930 N   0  0  0  0  0  0  0  0  0  0  0  0
   41.0270   29.7960   37.3520 C   0  0  0  0  0  0  0  0  0  0  0  0
   41.3000   28.4920   37.0100 N   0  0  0  0  0  0  0  0  0  0  0  0
   42.6380   27.1820   36.0300 H   0  0  0  0  0  0  0  0  0  0  0  0
   44.1530   28.9640   35.3630 H   0  0  0  0  0  0  0  0  0  0  0  0
   43.6730   31.3120   35.9690 H   0  0  0  0  0  0  0  0  0  0  0  0
  1 10  1  0  0  0  0
  2  3  1  0  0  0  0
  2  1  2  0  0  0  0
  3  4  2  0  0  0  0
  4 13  1  0  0  0  0
  4  5  1  0  0  0  0
  5  6  1  0  0  0  0
  6 14  1  0  0  0  0
  6  7  2  0  0  0  0
  7 15  1  0  0  0  0
  8  7  1  0  0  0  0
  8 16  1  0  0  0  0
  9  8  2  0  0  0  0
 10  5  2  0  0  0  0
 10  9  1  0  0  0  0
 11  2  1  0  0  0  0
 12  3  1  0  0  0  0
 17 24  1  0  0  0  0
 17  9  1  0  0  0  0
 18 17  2  0  0  0  0
 19 18  1  0  0  0  0
 20 18  1  0  0  0  0
 20 22  1  0  0  0  0
 21 20  1  0  0  0  0
 22 24  2  0  0  0  0
 23 22  1  0  0  0  0
 25 26  1  0  0  0  0
 25  1  1  0  0  0  0
 27 30  1  1  0  0  0
 28 29  1  0  0  0  0
 28 27  1  0  0  0  0
 28 31  1  0  0  0  0
 29 33  1  6  0  0  0
 29 27  1  0  0  0  0
 29 25  1  0  0  0  0
 32 28  1  0  0  0  0
 34 39  1  0  0  0  0
 35 36  1  0  0  0  0
 35 34  2  0  0  0  0
 36 37  2  0  0  0  0
 37 38  1  0  0  0  0
 38 27  1  0  0  0  0
 39 38  2  0  0  0  0
 40 34  1  0  0  0  0
 41 35  1  0  0  0  0
 42 36  1  0  0  0  0
M  END
>  <minimizedAffinity>
-5.67914677

$$$$
