
 OpenBabel03242511363D

 41 44  0  0  1  0  0  0  0  0999 V2000
   49.1530   31.7210   41.8320 C   0  0  0  0  0  0  0  0  0  0  0  0
   50.4330   32.2980   42.0030 C   0  0  0  0  0  0  0  0  0  0  0  0
   51.4130   32.1400   41.0240 C   0  0  0  0  0  0  0  0  0  0  0  0
   51.0430   31.4150   39.9450 N   0  0  0  0  0  0  0  0  0  0  0  0
   49.8270   30.8730   39.7920 C   0  0  0  0  0  0  0  0  0  0  0  0
   48.8990   31.0220   40.7150 N   0  0  0  0  0  0  0  0  0  0  0  0
   50.6590   32.8700   42.9010 H   0  0  0  0  0  0  0  0  0  0  0  0
   52.3880   32.5760   41.1490 H   0  0  0  0  0  0  0  0  0  0  0  0
   49.5000   30.1030   38.5590 C   0  0  2  0  0  0  0  0  0  0  0  0
   50.1280   30.3380   37.2640 C   0  0  0  0  0  0  0  0  0  0  0  0
   48.7390   30.7940   37.4280 C   0  0  2  0  0  0  0  0  0  0  0  0
   49.1240   29.0730   38.8330 H   0  0  0  0  0  0  0  0  0  0  0  0
   50.3530   29.4430   36.6220 H   0  0  0  0  0  0  0  0  0  0  0  0
   50.9180   31.1340   37.1970 H   0  0  0  0  0  0  0  0  0  0  0  0
   47.9430   30.1200   37.0140 H   0  0  0  0  0  0  0  0  0  0  0  0
   48.3670   32.1990   37.5820 C   0  0  0  0  0  0  0  0  0  0  0  0
   47.2750   32.8420   38.0670 C   0  0  0  0  0  0  0  0  0  0  0  0
   46.3990   32.3390   38.4820 H   0  0  0  0  0  0  0  0  0  0  0  0
   47.3430   34.1760   38.0110 N   0  0  0  0  0  0  0  0  0  0  0  0
   46.6480   34.8700   38.3140 H   0  0  0  0  0  0  0  0  0  0  0  0
   48.5490   34.3980   37.4580 C   0  0  0  0  0  0  0  0  0  0  0  0
   49.0200   35.3460   37.2260 H   0  0  0  0  0  0  0  0  0  0  0  0
   49.1590   33.2400   37.2020 N   0  0  0  0  0  0  0  0  0  0  0  0
   48.1620   31.9230   42.8910 C   0  0  0  0  0  0  0  0  0  0  0  0
   47.9840   33.1690   43.3360 C   0  0  0  0  0  0  0  0  0  0  0  0
   47.0090   33.4800   44.4040 C   0  0  0  0  0  0  0  0  0  0  0  0
   47.4970   34.1860   45.1030 H   0  0  0  0  0  0  0  0  0  0  0  0
   46.7170   32.5500   44.9410 H   0  0  0  0  0  0  0  0  0  0  0  0
   44.7670   36.1360   43.4260 C   0  0  1  0  0  0  0  0  0  0  0  0
   45.9440   35.2560   42.9890 C   0  0  0  0  0  0  0  0  0  0  0  0
   45.7210   34.0670   43.8400 C   0  0  2  0  0  0  0  0  0  0  0  0
   44.8550   34.4010   44.8480 O   0  0  0  0  0  0  0  0  0  0  0  0
   44.6520   35.7450   44.8750 C   0  0  0  0  0  0  0  0  0  0  0  0
   43.8510   35.8610   42.8850 H   0  0  0  0  0  0  0  0  0  0  0  0
   46.8850   35.7750   43.2990 H   0  0  0  0  0  0  0  0  0  0  0  0
   45.9200   35.0760   41.9050 H   0  0  0  0  0  0  0  0  0  0  0  0
   45.2470   33.2590   43.2420 H   0  0  0  0  0  0  0  0  0  0  0  0
   43.5900   35.9540   45.1880 H   0  0  0  0  0  0  0  0  0  0  0  0
   45.2710   36.3300   45.5600 H   0  0  0  0  0  0  0  0  0  0  0  0
   45.0960   37.4800   43.2620 O   0  0  0  0  0  0  0  0  0  0  0  0
   44.4060   37.9860   43.7540 H   0  0  0  0  0  0  0  0  0  0  0  0
  1  2  1  0  0  0  0
  1 24  1  0  0  0  0
  2  7  1  0  0  0  0
  3  8  1  0  0  0  0
  3  2  2  0  0  0  0
  4  3  1  0  0  0  0
  5  4  2  0  0  0  0
  5  6  1  0  0  0  0
  6  1  2  0  0  0  0
  9 12  1  1  0  0  0
  9  5  1  0  0  0  0
 10 11  1  0  0  0  0
 10  9  1  0  0  0  0
 11 15  1  6  0  0  0
 11 16  1  0  0  0  0
 11  9  1  0  0  0  0
 13 10  1  0  0  0  0
 14 10  1  0  0  0  0
 16 17  2  0  0  0  0
 17 18  1  0  0  0  0
 19 17  1  0  0  0  0
 19 20  1  0  0  0  0
 21 19  1  0  0  0  0
 22 21  1  0  0  0  0
 23 21  2  0  0  0  0
 23 16  1  0  0  0  0
 24 25  2  0  0  0  0
 25 26  1  0  0  0  0
 26 28  1  0  0  0  0
 26 27  1  0  0  0  0
 29 34  1  6  0  0  0
 29 33  1  0  0  0  0
 30 35  1  0  0  0  0
 30 29  1  0  0  0  0
 30 31  1  0  0  0  0
 31 37  1  6  0  0  0
 31 26  1  0  0  0  0
 31 32  1  0  0  0  0
 32 33  1  0  0  0  0
 33 38  1  0  0  0  0
 33 39  1  0  0  0  0
 36 30  1  0  0  0  0
 40 29  1  0  0  0  0
 40 41  1  0  0  0  0
M  END
>  <minimizedAffinity>
-4.92908049

>  <minimizedRMSD>
1.5050652

$$$$
