
 OpenBabel03252505403D

 27 29  0  0  1  0  0  0  0  0999 V2000
   36.7570   25.4560   42.3200 C   0  0  1  0  0  0  0  0  0  0  0  0
   37.0410   24.8150   40.9420 C   0  0  0  0  0  0  0  0  0  0  0  0
   37.8310   24.4760   42.1640 C   0  0  1  0  0  0  0  0  0  0  0  0
   35.7560   25.1360   42.7310 H   0  0  0  0  0  0  0  0  0  0  0  0
   36.3120   24.0770   40.5520 H   0  0  0  0  0  0  0  0  0  0  0  0
   37.4430   25.4670   40.1640 H   0  0  0  0  0  0  0  0  0  0  0  0
   37.5940   23.4570   42.6000 H   0  0  0  0  0  0  0  0  0  0  0  0
   36.9830   26.9170   42.3620 C   0  0  0  0  0  0  0  0  0  0  0  0
   37.8130   27.4080   43.3860 C   0  0  0  0  0  0  0  0  0  0  0  0
   38.0620   28.7760   43.4410 C   0  0  0  0  0  0  0  0  0  0  0  0
   37.4810   29.5640   42.4940 N   0  0  0  0  0  0  0  0  0  0  0  0
   36.6900   29.0620   41.5290 C   0  0  0  0  0  0  0  0  0  0  0  0
   36.4470   27.7310   41.4720 N   0  0  0  0  0  0  0  0  0  0  0  0
   38.2860   26.8560   44.1600 H   0  0  0  0  0  0  0  0  0  0  0  0
   38.6910   29.2240   44.1990 H   0  0  0  0  0  0  0  0  0  0  0  0
   36.1500   30.0920   40.5880 C   0  0  0  0  0  0  0  0  0  0  0  0
   36.0710   31.3380   41.1840 F   0  0  0  0  0  0  0  0  0  0  0  0
   34.9210   29.7080   40.1070 F   0  0  0  0  0  0  0  0  0  0  0  0
   36.9910   30.1420   39.4590 F   0  0  0  0  0  0  0  0  0  0  0  0
   39.2660   24.7930   42.0830 C   0  0  0  0  0  0  0  0  0  0  0  0
   40.1210   24.4850   43.1460 C   0  0  0  0  0  0  0  0  0  0  0  0
   39.9130   24.0260   44.1110 H   0  0  0  0  0  0  0  0  0  0  0  0
   41.3830   24.8380   42.8650 N   0  0  0  0  0  0  0  0  0  0  0  0
   42.2490   24.7450   43.4420 H   0  0  0  0  0  0  0  0  0  0  0  0
   41.3570   25.3730   41.6320 C   0  0  0  0  0  0  0  0  0  0  0  0
   42.1380   25.7890   41.0050 H   0  0  0  0  0  0  0  0  0  0  0  0
   40.0930   25.3390   41.1800 N   0  0  0  0  0  0  0  0  0  0  0  0
  1  8  1  0  0  0  0
  1  4  1  1  0  0  0
  2  3  1  0  0  0  0
  2  1  1  0  0  0  0
  3  1  1  0  0  0  0
  3  7  1  1  0  0  0
  5  2  1  0  0  0  0
  6  2  1  0  0  0  0
  8  9  1  0  0  0  0
  9 10  2  0  0  0  0
  9 14  1  0  0  0  0
 10 15  1  0  0  0  0
 11 10  1  0  0  0  0
 12 11  2  0  0  0  0
 13 12  1  0  0  0  0
 13  8  2  0  0  0  0
 16 17  1  0  0  0  0
 16 12  1  0  0  0  0
 18 16  1  0  0  0  0
 19 16  1  0  0  0  0
 20  3  1  0  0  0  0
 20 21  2  0  0  0  0
 21 22  1  0  0  0  0
 23 21  1  0  0  0  0
 23 24  1  0  0  0  0
 25 23  1  0  0  0  0
 26 25  1  0  0  0  0
 27 25  2  0  0  0  0
 27 20  1  0  0  0  0
M  END
>  <minimizedAffinity>
-5.19855118

$$$$

 OpenBabel03252505403D

 27 29  0  0  1  0  0  0  0  0999 V2000
   38.2420   29.7800   38.2500 C   0  0  1  0  0  0  0  0  0  0  0  0
   37.5390   30.7560   37.2790 C   0  0  0  0  0  0  0  0  0  0  0  0
   38.7540   31.1370   38.0610 C   0  0  1  0  0  0  0  0  0  0  0  0
   38.7180   28.9150   37.7010 H   0  0  0  0  0  0  0  0  0  0  0  0
   37.6370   30.5690   36.1910 H   0  0  0  0  0  0  0  0  0  0  0  0
   36.5440   31.1070   37.5610 H   0  0  0  0  0  0  0  0  0  0  0  0
   39.7030   31.1910   37.4430 H   0  0  0  0  0  0  0  0  0  0  0  0
   37.4090   29.3720   39.4020 C   0  0  0  0  0  0  0  0  0  0  0  0
   36.0180   29.3240   39.2000 C   0  0  0  0  0  0  0  0  0  0  0  0
   35.2060   28.9240   40.2570 C   0  0  0  0  0  0  0  0  0  0  0  0
   35.8130   28.6030   41.4340 N   0  0  0  0  0  0  0  0  0  0  0  0
   37.1480   28.6620   41.5940 C   0  0  0  0  0  0  0  0  0  0  0  0
   37.9390   29.0500   40.5660 N   0  0  0  0  0  0  0  0  0  0  0  0
   35.4800   29.5700   38.3180 H   0  0  0  0  0  0  0  0  0  0  0  0
   34.1300   28.8610   40.1750 H   0  0  0  0  0  0  0  0  0  0  0  0
   37.6140   28.2710   42.9600 C   0  0  0  0  0  0  0  0  0  0  0  0
   38.0670   29.3630   43.6790 F   0  0  0  0  0  0  0  0  0  0  0  0
   38.5910   27.3070   42.8780 F   0  0  0  0  0  0  0  0  0  0  0  0
   36.5400   27.6540   43.6330 F   0  0  0  0  0  0  0  0  0  0  0  0
   38.5630   32.2540   38.9990 C   0  0  0  0  0  0  0  0  0  0  0  0
   37.3090   32.8560   39.1400 C   0  0  0  0  0  0  0  0  0  0  0  0
   36.3640   32.6470   38.6410 H   0  0  0  0  0  0  0  0  0  0  0  0
   37.3460   33.8370   40.0520 N   0  0  0  0  0  0  0  0  0  0  0  0
   36.5860   34.4710   40.3850 H   0  0  0  0  0  0  0  0  0  0  0  0
   38.6120   33.8810   40.5040 C   0  0  0  0  0  0  0  0  0  0  0  0
   39.0970   34.5110   41.2400 H   0  0  0  0  0  0  0  0  0  0  0  0
   39.3220   32.9350   39.8700 N   0  0  0  0  0  0  0  0  0  0  0  0
  1  4  1  6  0  0  0
  1  8  1  0  0  0  0
  2  6  1  0  0  0  0
  2  3  1  0  0  0  0
  2  1  1  0  0  0  0
  3  7  1  6  0  0  0
  3  1  1  0  0  0  0
  3 20  1  0  0  0  0
  5  2  1  0  0  0  0
  8 13  1  0  0  0  0
  9  8  2  0  0  0  0
  9 10  1  0  0  0  0
 10 11  2  0  0  0  0
 11 12  1  0  0  0  0
 12 16  1  0  0  0  0
 13 12  2  0  0  0  0
 14  9  1  0  0  0  0
 15 10  1  0  0  0  0
 16 19  1  0  0  0  0
 16 17  1  0  0  0  0
 18 16  1  0  0  0  0
 20 21  2  0  0  0  0
 20 27  1  0  0  0  0
 21 23  1  0  0  0  0
 22 21  1  0  0  0  0
 23 24  1  0  0  0  0
 23 25  1  0  0  0  0
 25 26  1  0  0  0  0
 27 25  2  0  0  0  0
M  END
>  <minimizedAffinity>
-5.16360426

$$$$

 OpenBabel03252505403D

 27 29  0  0  1  0  0  0  0  0999 V2000
   39.6400   29.8510   39.0770 C   0  0  1  0  0  0  0  0  0  0  0  0
   38.4870   30.0580   38.0680 C   0  0  0  0  0  0  0  0  0  0  0  0
   39.4250   31.1550   38.4520 C   0  0  1  0  0  0  0  0  0  0  0  0
   40.4300   29.1530   38.6720 H   0  0  0  0  0  0  0  0  0  0  0  0
   38.5840   29.5940   37.0660 H   0  0  0  0  0  0  0  0  0  0  0  0
   37.4690   30.0120   38.4610 H   0  0  0  0  0  0  0  0  0  0  0  0
   40.1850   31.4150   37.6520 H   0  0  0  0  0  0  0  0  0  0  0  0
   39.1890   29.5140   40.4450 C   0  0  0  0  0  0  0  0  0  0  0  0
   39.6380   30.3440   41.4880 C   0  0  0  0  0  0  0  0  0  0  0  0
   39.2160   30.0680   42.7850 C   0  0  0  0  0  0  0  0  0  0  0  0
   38.3880   29.0010   42.9690 N   0  0  0  0  0  0  0  0  0  0  0  0
   37.9800   28.2260   41.9470 C   0  0  0  0  0  0  0  0  0  0  0  0
   38.3890   28.4930   40.6840 N   0  0  0  0  0  0  0  0  0  0  0  0
   40.2890   31.1810   41.4200 H   0  0  0  0  0  0  0  0  0  0  0  0
   39.5190   30.6630   43.6370 H   0  0  0  0  0  0  0  0  0  0  0  0
   37.0770   27.1060   42.3580 C   0  0  0  0  0  0  0  0  0  0  0  0
   36.1000   27.5330   43.2400 F   0  0  0  0  0  0  0  0  0  0  0  0
   37.8050   26.0760   42.9040 F   0  0  0  0  0  0  0  0  0  0  0  0
   36.4860   26.5690   41.1960 F   0  0  0  0  0  0  0  0  0  0  0  0
   38.7920   32.3140   39.1010 C   0  0  0  0  0  0  0  0  0  0  0  0
   37.3990   32.4030   39.1920 C   0  0  0  0  0  0  0  0  0  0  0  0
   36.6230   31.7280   38.8370 H   0  0  0  0  0  0  0  0  0  0  0  0
   37.0290   33.5210   39.8310 N   0  0  0  0  0  0  0  0  0  0  0  0
   36.0750   33.8780   40.0590 H   0  0  0  0  0  0  0  0  0  0  0  0
   38.1670   34.1610   40.1550 C   0  0  0  0  0  0  0  0  0  0  0  0
   38.3510   35.0950   40.6740 H   0  0  0  0  0  0  0  0  0  0  0  0
   39.2050   33.4320   39.7160 N   0  0  0  0  0  0  0  0  0  0  0  0
  1  4  1  6  0  0  0
  1  8  1  0  0  0  0
  2  3  1  0  0  0  0
  2  6  1  0  0  0  0
  2  1  1  0  0  0  0
  3  7  1  6  0  0  0
  3  1  1  0  0  0  0
  3 20  1  0  0  0  0
  5  2  1  0  0  0  0
  8 13  2  0  0  0  0
  8  9  1  0  0  0  0
  9 10  2  0  0  0  0
 10 11  1  0  0  0  0
 10 15  1  0  0  0  0
 12 16  1  0  0  0  0
 12 11  2  0  0  0  0
 13 12  1  0  0  0  0
 14  9  1  0  0  0  0
 16 18  1  0  0  0  0
 16 17  1  0  0  0  0
 19 16  1  0  0  0  0
 20 21  2  0  0  0  0
 20 27  1  0  0  0  0
 21 23  1  0  0  0  0
 22 21  1  0  0  0  0
 23 24  1  0  0  0  0
 23 25  1  0  0  0  0
 25 26  1  0  0  0  0
 27 25  2  0  0  0  0
M  END
>  <minimizedAffinity>
-4.90903234

$$$$

 OpenBabel03252505403D

 27 29  0  0  1  0  0  0  0  0999 V2000
   37.9170   28.3070   43.5420 C   0  0  1  0  0  0  0  0  0  0  0  0
   38.7610   29.4420   42.9170 C   0  0  0  0  0  0  0  0  0  0  0  0
   37.3060   29.2700   42.6270 C   0  0  1  0  0  0  0  0  0  0  0  0
   37.8020   28.4380   44.6580 H   0  0  0  0  0  0  0  0  0  0  0  0
   39.0830   30.2730   43.5760 H   0  0  0  0  0  0  0  0  0  0  0  0
   39.5270   29.1510   42.1950 H   0  0  0  0  0  0  0  0  0  0  0  0
   36.6390   30.0330   43.1350 H   0  0  0  0  0  0  0  0  0  0  0  0
   38.3410   26.9490   43.1380 C   0  0  0  0  0  0  0  0  0  0  0  0
   39.5460   26.4680   43.6800 C   0  0  0  0  0  0  0  0  0  0  0  0
   39.9640   25.1860   43.3360 C   0  0  0  0  0  0  0  0  0  0  0  0
   39.1750   24.4680   42.4880 N   0  0  0  0  0  0  0  0  0  0  0  0
   38.0280   24.9610   41.9860 C   0  0  0  0  0  0  0  0  0  0  0  0
   37.6190   26.2080   42.3200 N   0  0  0  0  0  0  0  0  0  0  0  0
   40.2140   26.9740   44.3330 H   0  0  0  0  0  0  0  0  0  0  0  0
   40.8780   24.7490   43.7140 H   0  0  0  0  0  0  0  0  0  0  0  0
   37.3090   24.0180   41.0740 C   0  0  0  0  0  0  0  0  0  0  0  0
   37.8620   22.7500   41.1100 F   0  0  0  0  0  0  0  0  0  0  0  0
   37.2990   24.5050   39.7890 F   0  0  0  0  0  0  0  0  0  0  0  0
   35.9560   23.9720   41.4650 F   0  0  0  0  0  0  0  0  0  0  0  0
   36.9810   29.0120   41.2150 C   0  0  0  0  0  0  0  0  0  0  0  0
   35.6530   28.8410   40.8120 C   0  0  0  0  0  0  0  0  0  0  0  0
   34.7310   28.8520   41.3920 H   0  0  0  0  0  0  0  0  0  0  0  0
   35.5730   28.6360   39.4900 N   0  0  0  0  0  0  0  0  0  0  0  0
   34.7370   28.4750   38.8870 H   0  0  0  0  0  0  0  0  0  0  0  0
   36.8360   28.6700   39.0300 C   0  0  0  0  0  0  0  0  0  0  0  0
   37.2470   28.5550   38.0330 H   0  0  0  0  0  0  0  0  0  0  0  0
   37.6600   28.8950   40.0650 N   0  0  0  0  0  0  0  0  0  0  0  0
  1  4  1  1  0  0  0
  2  1  1  0  0  0  0
  2  5  1  0  0  0  0
  3  2  1  0  0  0  0
  3  7  1  1  0  0  0
  3  1  1  0  0  0  0
  6  2  1  0  0  0  0
  8  1  1  0  0  0  0
  8  9  1  0  0  0  0
  9 14  1  0  0  0  0
 10  9  2  0  0  0  0
 10 15  1  0  0  0  0
 11 10  1  0  0  0  0
 12 13  1  0  0  0  0
 12 11  2  0  0  0  0
 13  8  2  0  0  0  0
 16 17  1  0  0  0  0
 16 19  1  0  0  0  0
 16 12  1  0  0  0  0
 18 16  1  0  0  0  0
 20  3  1  0  0  0  0
 21 20  2  0  0  0  0
 21 22  1  0  0  0  0
 23 21  1  0  0  0  0
 24 23  1  0  0  0  0
 25 23  1  0  0  0  0
 25 27  2  0  0  0  0
 26 25  1  0  0  0  0
 27 20  1  0  0  0  0
M  END
>  <minimizedAffinity>
-4.8915

$$$$

 OpenBabel03252505403D

 27 29  0  0  1  0  0  0  0  0999 V2000
   35.9610   29.9720   40.6540 C   0  0  1  0  0  0  0  0  0  0  0  0
   36.7050   31.3230   40.5570 C   0  0  0  0  0  0  0  0  0  0  0  0
   36.4200   30.4760   39.3600 C   0  0  1  0  0  0  0  0  0  0  0  0
   34.8830   30.1100   40.9640 H   0  0  0  0  0  0  0  0  0  0  0  0
   36.1200   32.2520   40.7100 H   0  0  0  0  0  0  0  0  0  0  0  0
   37.7030   31.3730   40.9970 H   0  0  0  0  0  0  0  0  0  0  0  0
   35.5900   30.8750   38.6980 H   0  0  0  0  0  0  0  0  0  0  0  0
   36.6810   28.9420   41.4330 C   0  0  0  0  0  0  0  0  0  0  0  0
   37.4580   29.3880   42.5180 C   0  0  0  0  0  0  0  0  0  0  0  0
   38.1320   28.4430   43.2850 C   0  0  0  0  0  0  0  0  0  0  0  0
   37.9990   27.1320   42.9360 N   0  0  0  0  0  0  0  0  0  0  0  0
   37.2490   26.7400   41.8900 C   0  0  0  0  0  0  0  0  0  0  0  0
   36.5910   27.6580   41.1430 N   0  0  0  0  0  0  0  0  0  0  0  0
   37.6150   30.3880   42.8380 H   0  0  0  0  0  0  0  0  0  0  0  0
   38.7470   28.7110   44.1340 H   0  0  0  0  0  0  0  0  0  0  0  0
   37.2350   25.2600   41.6740 C   0  0  0  0  0  0  0  0  0  0  0  0
   36.8550   24.9350   40.3840 F   0  0  0  0  0  0  0  0  0  0  0  0
   36.4120   24.6480   42.5890 F   0  0  0  0  0  0  0  0  0  0  0  0
   38.5260   24.7630   41.9440 F   0  0  0  0  0  0  0  0  0  0  0  0
   37.6100   30.0010   38.6370 C   0  0  0  0  0  0  0  0  0  0  0  0
   37.5020   29.5270   37.3260 C   0  0  0  0  0  0  0  0  0  0  0  0
   36.6300   29.4210   36.6820 H   0  0  0  0  0  0  0  0  0  0  0  0
   38.6980   29.1610   36.8460 N   0  0  0  0  0  0  0  0  0  0  0  0
   38.9550   28.7710   35.9120 H   0  0  0  0  0  0  0  0  0  0  0  0
   39.5830   29.3920   37.8320 C   0  0  0  0  0  0  0  0  0  0  0  0
   40.6560   29.2470   37.8910 H   0  0  0  0  0  0  0  0  0  0  0  0
   38.9220   29.8910   38.8890 N   0  0  0  0  0  0  0  0  0  0  0  0
  1  4  1  1  0  0  0
  1  8  1  0  0  0  0
  2  1  1  0  0  0  0
  2  5  1  0  0  0  0
  2  6  1  0  0  0  0
  3  7  1  6  0  0  0
  3  2  1  0  0  0  0
  3  1  1  0  0  0  0
  8  9  1  0  0  0  0
  9 14  1  0  0  0  0
  9 10  2  0  0  0  0
 10 15  1  0  0  0  0
 11 10  1  0  0  0  0
 12 11  2  0  0  0  0
 13  8  2  0  0  0  0
 13 12  1  0  0  0  0
 16 12  1  0  0  0  0
 16 19  1  0  0  0  0
 16 18  1  0  0  0  0
 17 16  1  0  0  0  0
 20 27  1  0  0  0  0
 20  3  1  0  0  0  0
 21 20  2  0  0  0  0
 22 21  1  0  0  0  0
 23 21  1  0  0  0  0
 23 25  1  0  0  0  0
 24 23  1  0  0  0  0
 25 26  1  0  0  0  0
 25 27  2  0  0  0  0
M  END
>  <minimizedAffinity>
-4.85930157

$$$$

 OpenBabel03252505403D

 27 29  0  0  1  0  0  0  0  0999 V2000
   36.4660   27.8030   37.8860 C   0  0  1  0  0  0  0  0  0  0  0  0
   34.9850   28.0850   38.2310 C   0  0  0  0  0  0  0  0  0  0  0  0
   35.9770   29.1770   37.9950 C   0  0  1  0  0  0  0  0  0  0  0  0
   36.5730   27.3210   36.8700 H   0  0  0  0  0  0  0  0  0  0  0  0
   34.2220   27.8760   37.4550 H   0  0  0  0  0  0  0  0  0  0  0  0
   34.6510   27.8230   39.2370 H   0  0  0  0  0  0  0  0  0  0  0  0
   35.8560   29.7050   37.0000 H   0  0  0  0  0  0  0  0  0  0  0  0
   37.2120   27.1110   38.9590 C   0  0  0  0  0  0  0  0  0  0  0  0
   38.5270   27.5460   39.2050 C   0  0  0  0  0  0  0  0  0  0  0  0
   39.2510   26.9300   40.2220 C   0  0  0  0  0  0  0  0  0  0  0  0
   38.6380   25.9350   40.9230 N   0  0  0  0  0  0  0  0  0  0  0  0
   37.3780   25.5420   40.6590 C   0  0  0  0  0  0  0  0  0  0  0  0
   36.6720   26.1410   39.6700 N   0  0  0  0  0  0  0  0  0  0  0  0
   39.0690   28.3030   38.6940 H   0  0  0  0  0  0  0  0  0  0  0  0
   40.2660   27.2120   40.4700 H   0  0  0  0  0  0  0  0  0  0  0  0
   36.8900   24.4350   41.5390 C   0  0  0  0  0  0  0  0  0  0  0  0
   37.8990   23.5380   41.8400 F   0  0  0  0  0  0  0  0  0  0  0  0
   35.8270   23.7900   40.9540 F   0  0  0  0  0  0  0  0  0  0  0  0
   36.3740   25.0070   42.7190 F   0  0  0  0  0  0  0  0  0  0  0  0
   36.2020   30.0690   39.1430 C   0  0  0  0  0  0  0  0  0  0  0  0
   35.4190   29.9530   40.2960 C   0  0  0  0  0  0  0  0  0  0  0  0
   34.5960   29.2790   40.5270 H   0  0  0  0  0  0  0  0  0  0  0  0
   35.7950   30.8430   41.2250 N   0  0  0  0  0  0  0  0  0  0  0  0
   35.4160   31.0120   42.1830 H   0  0  0  0  0  0  0  0  0  0  0  0
   36.8140   31.5370   40.6880 C   0  0  0  0  0  0  0  0  0  0  0  0
   37.4220   32.3480   41.0730 H   0  0  0  0  0  0  0  0  0  0  0  0
   37.0440   31.0660   39.4520 N   0  0  0  0  0  0  0  0  0  0  0  0
  1  4  1  6  0  0  0
  1  3  1  0  0  0  0
  1  2  1  0  0  0  0
  1  8  1  0  0  0  0
  2  6  1  0  0  0  0
  3  7  1  6  0  0  0
  3  2  1  0  0  0  0
  3 20  1  0  0  0  0
  5  2  1  0  0  0  0
  8  9  2  0  0  0  0
  8 13  1  0  0  0  0
  9 10  1  0  0  0  0
 10 15  1  0  0  0  0
 10 11  2  0  0  0  0
 12 11  1  0  0  0  0
 12 16  1  0  0  0  0
 13 12  2  0  0  0  0
 14  9  1  0  0  0  0
 16 17  1  0  0  0  0
 16 19  1  0  0  0  0
 18 16  1  0  0  0  0
 20 27  1  0  0  0  0
 20 21  2  0  0  0  0
 21 22  1  0  0  0  0
 21 23  1  0  0  0  0
 23 24  1  0  0  0  0
 25 26  1  0  0  0  0
 25 23  1  0  0  0  0
 27 25  2  0  0  0  0
M  END
>  <minimizedAffinity>
-4.84356213

$$$$

 OpenBabel03252505403D

 27 29  0  0  1  0  0  0  0  0999 V2000
   36.2710   28.4140   39.8660 C   0  0  1  0  0  0  0  0  0  0  0  0
   34.9720   29.2450   39.9760 C   0  0  0  0  0  0  0  0  0  0  0  0
   36.0730   29.5980   39.0300 C   0  0  1  0  0  0  0  0  0  0  0  0
   36.0740   27.3850   39.4440 H   0  0  0  0  0  0  0  0  0  0  0  0
   34.0380   28.8050   39.5740 H   0  0  0  0  0  0  0  0  0  0  0  0
   34.8150   29.8000   40.9040 H   0  0  0  0  0  0  0  0  0  0  0  0
   35.8420   29.3650   37.9450 H   0  0  0  0  0  0  0  0  0  0  0  0
   37.0890   28.4090   41.0980 C   0  0  0  0  0  0  0  0  0  0  0  0
   36.4800   27.9230   42.2680 C   0  0  0  0  0  0  0  0  0  0  0  0
   37.2290   27.8850   43.4410 C   0  0  0  0  0  0  0  0  0  0  0  0
   38.5170   28.3270   43.3840 N   0  0  0  0  0  0  0  0  0  0  0  0
   39.0680   28.7890   42.2470 C   0  0  0  0  0  0  0  0  0  0  0  0
   38.3410   28.8250   41.1040 N   0  0  0  0  0  0  0  0  0  0  0  0
   35.4830   27.5750   42.3870 H   0  0  0  0  0  0  0  0  0  0  0  0
   36.8280   27.5230   44.3780 H   0  0  0  0  0  0  0  0  0  0  0  0
   40.4900   29.2270   42.3950 C   0  0  0  0  0  0  0  0  0  0  0  0
   41.1750   29.1560   41.1950 F   0  0  0  0  0  0  0  0  0  0  0  0
   41.1250   28.4810   43.3590 F   0  0  0  0  0  0  0  0  0  0  0  0
   40.4950   30.5490   42.8850 F   0  0  0  0  0  0  0  0  0  0  0  0
   36.6910   30.9130   39.2600 C   0  0  0  0  0  0  0  0  0  0  0  0
   37.3880   31.5580   38.2330 C   0  0  0  0  0  0  0  0  0  0  0  0
   37.5880   31.2460   37.2100 H   0  0  0  0  0  0  0  0  0  0  0  0
   37.8550   32.7460   38.6420 N   0  0  0  0  0  0  0  0  0  0  0  0
   38.4090   33.4620   38.1230 H   0  0  0  0  0  0  0  0  0  0  0  0
   37.4710   32.8790   39.9240 C   0  0  0  0  0  0  0  0  0  0  0  0
   37.6230   33.6720   40.6480 H   0  0  0  0  0  0  0  0  0  0  0  0
   36.7800   31.7830   40.2760 N   0  0  0  0  0  0  0  0  0  0  0  0
  1  4  1  6  0  0  0
  1  2  1  0  0  0  0
  1  8  1  0  0  0  0
  2  6  1  0  0  0  0
  3  7  1  6  0  0  0
  3 20  1  0  0  0  0
  3  1  1  0  0  0  0
  3  2  1  0  0  0  0
  5  2  1  0  0  0  0
  8 13  2  0  0  0  0
  8  9  1  0  0  0  0
  9 14  1  0  0  0  0
  9 10  2  0  0  0  0
 10 15  1  0  0  0  0
 11 10  1  0  0  0  0
 12 16  1  0  0  0  0
 12 11  2  0  0  0  0
 13 12  1  0  0  0  0
 16 19  1  0  0  0  0
 16 18  1  0  0  0  0
 17 16  1  0  0  0  0
 20 27  1  0  0  0  0
 21 23  1  0  0  0  0
 21 20  2  0  0  0  0
 22 21  1  0  0  0  0
 23 25  1  0  0  0  0
 24 23  1  0  0  0  0
 25 27  2  0  0  0  0
 25 26  1  0  0  0  0
M  END
>  <minimizedAffinity>
-4.76889515

$$$$

 OpenBabel03252505403D

 27 29  0  0  1  0  0  0  0  0999 V2000
   41.0230   29.7570   41.0220 C   0  0  1  0  0  0  0  0  0  0  0  0
   41.1380   29.5780   42.5530 C   0  0  0  0  0  0  0  0  0  0  0  0
   40.3240   28.6640   41.6960 C   0  0  1  0  0  0  0  0  0  0  0  0
   42.0080   29.5640   40.5040 H   0  0  0  0  0  0  0  0  0  0  0  0
   42.1010   29.2140   42.9640 H   0  0  0  0  0  0  0  0  0  0  0  0
   40.6710   30.3420   43.1790 H   0  0  0  0  0  0  0  0  0  0  0  0
   40.7920   27.6450   41.5320 H   0  0  0  0  0  0  0  0  0  0  0  0
   40.3690   31.0180   40.6110 C   0  0  0  0  0  0  0  0  0  0  0  0
   41.0650   32.2130   40.8650 C   0  0  0  0  0  0  0  0  0  0  0  0
   40.4860   33.4160   40.4720 C   0  0  0  0  0  0  0  0  0  0  0  0
   39.2690   33.3630   39.8610 N   0  0  0  0  0  0  0  0  0  0  0  0
   38.6290   32.2010   39.6360 C   0  0  0  0  0  0  0  0  0  0  0  0
   39.1910   31.0300   40.0160 N   0  0  0  0  0  0  0  0  0  0  0  0
   42.0060   32.3280   41.3440 H   0  0  0  0  0  0  0  0  0  0  0  0
   40.9630   34.3730   40.6320 H   0  0  0  0  0  0  0  0  0  0  0  0
   37.3060   32.3590   38.9560 C   0  0  0  0  0  0  0  0  0  0  0  0
   36.3750   31.4510   39.4290 F   0  0  0  0  0  0  0  0  0  0  0  0
   37.4480   32.2400   37.5940 F   0  0  0  0  0  0  0  0  0  0  0  0
   36.8560   33.6780   39.1680 F   0  0  0  0  0  0  0  0  0  0  0  0
   38.8860   28.6390   42.0060 C   0  0  0  0  0  0  0  0  0  0  0  0
   38.3900   29.3090   43.1290 C   0  0  0  0  0  0  0  0  0  0  0  0
   38.9080   29.8880   43.8920 H   0  0  0  0  0  0  0  0  0  0  0  0
   37.0600   29.1760   43.2200 N   0  0  0  0  0  0  0  0  0  0  0  0
   36.3970   29.5510   43.9350 H   0  0  0  0  0  0  0  0  0  0  0  0
   36.6860   28.4270   42.1690 C   0  0  0  0  0  0  0  0  0  0  0  0
   35.7150   28.0700   41.8410 H   0  0  0  0  0  0  0  0  0  0  0  0
   37.7800   28.1160   41.4570 N   0  0  0  0  0  0  0  0  0  0  0  0
  1  4  1  6  0  0  0
  1  3  1  0  0  0  0
  1  2  1  0  0  0  0
  2  5  1  0  0  0  0
  2  6  1  0  0  0  0
  3  7  1  6  0  0  0
  3 20  1  0  0  0  0
  3  2  1  0  0  0  0
  8  9  1  0  0  0  0
  8  1  1  0  0  0  0
  9 14  1  0  0  0  0
 10 15  1  0  0  0  0
 10  9  2  0  0  0  0
 11 10  1  0  0  0  0
 12 11  2  0  0  0  0
 12 13  1  0  0  0  0
 13  8  2  0  0  0  0
 16 19  1  0  0  0  0
 16 17  1  0  0  0  0
 16 12  1  0  0  0  0
 18 16  1  0  0  0  0
 20 21  2  0  0  0  0
 21 23  1  0  0  0  0
 21 22  1  0  0  0  0
 23 24  1  0  0  0  0
 25 23  1  0  0  0  0
 26 25  1  0  0  0  0
 27 20  1  0  0  0  0
 27 25  2  0  0  0  0
M  END
>  <minimizedAffinity>
-4.7425065

$$$$

 OpenBabel03252505403D

 27 29  0  0  1  0  0  0  0  0999 V2000
   37.9730   29.7820   38.2630 C   0  0  1  0  0  0  0  0  0  0  0  0
   36.6320   30.5270   38.4560 C   0  0  0  0  0  0  0  0  0  0  0  0
   37.8910   31.2280   38.0600 C   0  0  1  0  0  0  0  0  0  0  0  0
   37.9400   29.0840   37.3760 H   0  0  0  0  0  0  0  0  0  0  0  0
   35.8400   30.3760   37.6960 H   0  0  0  0  0  0  0  0  0  0  0  0
   36.2390   30.5870   39.4730 H   0  0  0  0  0  0  0  0  0  0  0  0
   37.9210   31.5450   36.9720 H   0  0  0  0  0  0  0  0  0  0  0  0
   38.4970   29.1570   39.4970 C   0  0  0  0  0  0  0  0  0  0  0  0
   39.8610   28.8130   39.5100 C   0  0  0  0  0  0  0  0  0  0  0  0
   40.3920   28.2420   40.6630 C   0  0  0  0  0  0  0  0  0  0  0  0
   39.5510   28.0480   41.7180 N   0  0  0  0  0  0  0  0  0  0  0  0
   38.2500   28.3870   41.6700 C   0  0  0  0  0  0  0  0  0  0  0  0
   37.7320   28.9440   40.5500 N   0  0  0  0  0  0  0  0  0  0  0  0
   40.5680   28.9250   38.7250 H   0  0  0  0  0  0  0  0  0  0  0  0
   41.4310   27.9530   40.7470 H   0  0  0  0  0  0  0  0  0  0  0  0
   37.4980   28.0910   42.9300 C   0  0  0  0  0  0  0  0  0  0  0  0
   38.1150   27.0990   43.6720 F   0  0  0  0  0  0  0  0  0  0  0  0
   36.1990   27.7450   42.6450 F   0  0  0  0  0  0  0  0  0  0  0  0
   37.4100   29.2810   43.6800 F   0  0  0  0  0  0  0  0  0  0  0  0
   38.3590   32.2470   39.0120 C   0  0  0  0  0  0  0  0  0  0  0  0
   37.4450   32.9630   39.7920 C   0  0  0  0  0  0  0  0  0  0  0  0
   36.3580   32.9160   39.8280 H   0  0  0  0  0  0  0  0  0  0  0  0
   38.0740   33.8260   40.6020 N   0  0  0  0  0  0  0  0  0  0  0  0
   37.6830   34.4980   41.2980 H   0  0  0  0  0  0  0  0  0  0  0  0
   39.3880   33.6790   40.3550 C   0  0  0  0  0  0  0  0  0  0  0  0
   40.2630   34.1660   40.7730 H   0  0  0  0  0  0  0  0  0  0  0  0
   39.5420   32.7380   39.4100 N   0  0  0  0  0  0  0  0  0  0  0  0
  1  4  1  6  0  0  0
  1  2  1  0  0  0  0
  1  8  1  0  0  0  0
  2  6  1  0  0  0  0
  3  7  1  6  0  0  0
  3  1  1  0  0  0  0
  3  2  1  0  0  0  0
  3 20  1  0  0  0  0
  5  2  1  0  0  0  0
  8  9  2  0  0  0  0
  8 13  1  0  0  0  0
  9 10  1  0  0  0  0
 10 15  1  0  0  0  0
 10 11  2  0  0  0  0
 12 11  1  0  0  0  0
 12 16  1  0  0  0  0
 13 12  2  0  0  0  0
 14  9  1  0  0  0  0
 16 17  1  0  0  0  0
 16 19  1  0  0  0  0
 18 16  1  0  0  0  0
 20 27  1  0  0  0  0
 20 21  2  0  0  0  0
 21 22  1  0  0  0  0
 21 23  1  0  0  0  0
 23 24  1  0  0  0  0
 25 23  1  0  0  0  0
 25 26  1  0  0  0  0
 27 25  2  0  0  0  0
M  END
>  <minimizedAffinity>
-4.73735952

$$$$
