
 OpenBabel03252508373D

 40 43  0  0  0  0  0  0  0  0999 V2000
   45.1240   33.9650   40.7240 C   0  0  0  0  0  0  0  0  0  0  0  0
   44.0770   33.6410   39.9050 C   0  0  0  0  0  0  0  0  0  0  0  0
   44.3770   33.1280   38.6660 C   0  0  0  0  0  0  0  0  0  0  0  0
   45.6520   32.9280   38.2190 C   0  0  0  0  0  0  0  0  0  0  0  0
   46.6840   33.2610   39.0580 C   0  0  0  0  0  0  0  0  0  0  0  0
   46.4390   33.7780   40.3070 C   0  0  0  0  0  0  0  0  0  0  0  0
   43.5280   32.8800   38.0370 H   0  0  0  0  0  0  0  0  0  0  0  0
   45.7770   32.5210   37.2310 H   0  0  0  0  0  0  0  0  0  0  0  0
   47.6950   33.0970   38.6900 H   0  0  0  0  0  0  0  0  0  0  0  0
   40.7970   35.2760   40.7960 C   0  0  0  0  0  0  0  0  0  0  0  0
   42.1030   35.1150   40.2780 C   0  0  0  0  0  0  0  0  0  0  0  0
   42.7430   33.8660   40.4140 C   0  0  0  0  0  0  0  0  0  0  0  0
   42.0220   32.9020   41.0510 N   0  0  0  0  0  0  0  0  0  0  0  0
   40.7900   33.0910   41.5260 C   0  0  0  0  0  0  0  0  0  0  0  0
   40.1830   34.2800   41.3970 N   0  0  0  0  0  0  0  0  0  0  0  0
   40.2010   36.5450   40.6360 N   0  0  0  0  0  0  0  0  0  0  0  0
   42.6180   35.9280   39.7820 H   0  0  0  0  0  0  0  0  0  0  0  0
   40.2380   32.3100   42.0290 H   0  0  0  0  0  0  0  0  0  0  0  0
   40.0750   37.1740   39.7980 H   0  0  0  0  0  0  0  0  0  0  0  0
   39.8110   36.9310   41.5210 H   0  0  0  0  0  0  0  0  0  0  0  0
   47.6040   34.1030   41.1330 C   0  0  0  0  0  0  0  0  0  0  0  0
   48.1310   35.3590   40.9330 C   0  0  0  0  0  0  0  0  0  0  0  0
   49.2460   35.8340   41.6390 C   0  0  0  0  0  0  0  0  0  0  0  0
   49.8230   34.9950   42.5660 C   0  0  0  0  0  0  0  0  0  0  0  0
   49.3090   33.7390   42.7780 C   0  0  0  0  0  0  0  0  0  0  0  0
   48.1980   33.2840   42.0640 C   0  0  0  0  0  0  0  0  0  0  0  0
   47.7440   36.0820   40.2270 H   0  0  0  0  0  0  0  0  0  0  0  0
   49.6550   36.8180   41.4810 H   0  0  0  0  0  0  0  0  0  0  0  0
   50.6760   35.2470   43.1640 H   0  0  0  0  0  0  0  0  0  0  0  0
   49.6740   33.0040   43.4710 H   0  0  0  0  0  0  0  0  0  0  0  0
   47.5730   31.9730   42.2100 C   0  0  0  0  0  0  0  0  0  0  0  0
   47.6210   30.7540   41.5360 C   0  0  0  0  0  0  0  0  0  0  0  0
   48.2780   30.7020   40.6690 H   0  0  0  0  0  0  0  0  0  0  0  0
   46.7910   29.8900   42.1700 N   0  0  0  0  0  0  0  0  0  0  0  0
   46.7810   28.9430   41.7080 H   0  0  0  0  0  0  0  0  0  0  0  0
   46.2290   30.5370   43.2150 C   0  0  0  0  0  0  0  0  0  0  0  0
   45.5360   29.9620   43.8150 H   0  0  0  0  0  0  0  0  0  0  0  0
   46.7000   31.7940   43.2410 N   0  0  0  0  0  0  0  0  0  0  0  0
   44.7140   34.9390   43.1100 N   0  0  0  0  0  0  0  0  0  0  0  0
   44.9000   34.5070   42.0330 C   0  0  0  0  0  0  0  0  0  0  0  0
  1 40  1  0  0  0  0
  2 12  1  0  0  0  0
  2  1  2  0  0  0  0
  3  2  1  0  0  0  0
  4  3  2  0  0  0  0
  4  5  1  0  0  0  0
  5  6  2  0  0  0  0
  6  1  1  0  0  0  0
  6 21  1  0  0  0  0
  7  3  1  0  0  0  0
  8  4  1  0  0  0  0
  9  5  1  0  0  0  0
 10 15  1  0  0  0  0
 11 12  1  0  0  0  0
 11 10  2  0  0  0  0
 12 13  2  0  0  0  0
 13 14  1  0  0  0  0
 14 18  1  0  0  0  0
 15 14  2  0  0  0  0
 16 10  1  0  0  0  0
 16 20  1  0  0  0  0
 17 11  1  0  0  0  0
 19 16  1  0  0  0  0
 21 26  1  0  0  0  0
 22 21  2  0  0  0  0
 22 23  1  0  0  0  0
 23 24  2  0  0  0  0
 24 25  1  0  0  0  0
 24 29  1  0  0  0  0
 25 30  1  0  0  0  0
 26 31  1  0  0  0  0
 26 25  2  0  0  0  0
 27 22  1  0  0  0  0
 28 23  1  0  0  0  0
 31 38  1  0  0  0  0
 32 34  1  0  0  0  0
 32 31  2  0  0  0  0
 33 32  1  0  0  0  0
 34 36  1  0  0  0  0
 35 34  1  0  0  0  0
 36 38  2  0  0  0  0
 36 37  1  0  0  0  0
 40 39  3  0  0  0  0
M  END
>  <minimizedAffinity>
-5.92135525

>  <minimizedRMSD>
0.393415451

$$$$
