
 OpenBabel03242520033D

 38 41  0  0  1  0  0  0  0  0999 V2000
   45.6690   34.3700   44.7260 N   0  0  0  0  0  0  0  0  0  0  0  0
   46.1640   34.8620   43.4910 C   0  0  1  0  0  0  0  0  0  0  0  0
   47.4710   34.1550   43.1800 C   0  0  0  0  0  0  0  0  0  0  0  0
   47.1160   32.7630   42.9670 N   0  0  0  0  0  0  0  0  0  0  0  0
   46.6690   32.1520   44.1990 C   0  0  0  0  0  0  0  0  0  0  0  0
   45.7330   32.9790   44.9900 C   0  0  1  0  0  0  0  0  0  0  0  0
   44.7370   34.7390   44.9970 H   0  0  0  0  0  0  0  0  0  0  0  0
   46.3850   35.9330   43.5810 H   0  0  0  0  0  0  0  0  0  0  0  0
   47.9260   34.5210   42.2420 H   0  0  0  0  0  0  0  0  0  0  0  0
   48.1810   34.1760   44.0360 H   0  0  0  0  0  0  0  0  0  0  0  0
   47.9020   32.1920   42.6000 H   0  0  0  0  0  0  0  0  0  0  0  0
   46.2500   31.1520   43.9440 H   0  0  0  0  0  0  0  0  0  0  0  0
   47.5800   31.9670   44.8110 H   0  0  0  0  0  0  0  0  0  0  0  0
   44.7030   32.5550   44.8070 H   0  0  0  0  0  0  0  0  0  0  0  0
   45.9430   32.8020   46.4600 C   0  0  0  0  0  0  0  0  0  0  0  0
   45.0760   33.2350   47.4440 C   0  0  0  0  0  0  0  0  0  0  0  0
   44.1310   33.7590   47.2900 H   0  0  0  0  0  0  0  0  0  0  0  0
   45.6510   32.8720   48.6170 N   0  0  0  0  0  0  0  0  0  0  0  0
   45.1490   33.1090   49.5200 H   0  0  0  0  0  0  0  0  0  0  0  0
   46.8120   32.2470   48.3750 C   0  0  0  0  0  0  0  0  0  0  0  0
   47.4520   31.8630   49.1750 H   0  0  0  0  0  0  0  0  0  0  0  0
   47.0190   32.1900   47.0360 N   0  0  0  0  0  0  0  0  0  0  0  0
   43.4080   34.4520   41.2810 C   0  0  0  0  0  0  0  0  0  0  0  0
   44.4420   34.1840   40.4160 C   0  0  0  0  0  0  0  0  0  0  0  0
   45.6120   34.2960   41.1020 C   0  0  0  0  0  0  0  0  0  0  0  0
   45.2890   34.6290   42.3760 N   0  0  0  0  0  0  0  0  0  0  0  0
   43.9600   34.7180   42.4600 N   0  0  0  0  0  0  0  0  0  0  0  0
   44.3020   33.9300   39.3630 H   0  0  0  0  0  0  0  0  0  0  0  0
   46.6110   34.1500   40.7180 H   0  0  0  0  0  0  0  0  0  0  0  0
   40.1080   35.4510   40.0000 C   0  0  0  0  0  0  0  0  0  0  0  0
   39.2860   34.3810   40.3660 C   0  0  0  0  0  0  0  0  0  0  0  0
   39.8940   33.3250   41.0560 C   0  0  0  0  0  0  0  0  0  0  0  0
   41.2200   33.4000   41.3230 N   0  0  0  0  0  0  0  0  0  0  0  0
   41.9870   34.4450   40.9570 C   0  0  0  0  0  0  0  0  0  0  0  0
   41.4210   35.4680   40.2940 N   0  0  0  0  0  0  0  0  0  0  0  0
   39.6880   36.3070   39.4570 H   0  0  0  0  0  0  0  0  0  0  0  0
   38.2370   34.4090   40.1090 H   0  0  0  0  0  0  0  0  0  0  0  0
   39.2810   32.4840   41.3520 H   0  0  0  0  0  0  0  0  0  0  0  0
  1  6  1  0  0  0  0
  1  7  1  0  0  0  0
  2  8  1  1  0  0  0
  2  1  1  0  0  0  0
  3  2  1  0  0  0  0
  3 10  1  0  0  0  0
  4  3  1  0  0  0  0
  4  5  1  0  0  0  0
  5 13  1  0  0  0  0
  5  6  1  0  0  0  0
  6 14  1  6  0  0  0
  6 15  1  0  0  0  0
  9  3  1  0  0  0  0
 11  4  1  0  0  0  0
 12  5  1  0  0  0  0
 15 22  1  0  0  0  0
 15 16  2  0  0  0  0
 16 18  1  0  0  0  0
 17 16  1  0  0  0  0
 18 19  1  0  0  0  0
 20 18  1  0  0  0  0
 20 21  1  0  0  0  0
 22 20  2  0  0  0  0
 23 27  2  0  0  0  0
 24 25  2  0  0  0  0
 24 23  1  0  0  0  0
 25 26  1  0  0  0  0
 26 27  1  0  0  0  0
 26  2  1  0  0  0  0
 28 24  1  0  0  0  0
 29 25  1  0  0  0  0
 30 35  2  0  0  0  0
 30 31  1  0  0  0  0
 31 32  2  0  0  0  0
 32 33  1  0  0  0  0
 32 38  1  0  0  0  0
 34 23  1  0  0  0  0
 34 33  2  0  0  0  0
 35 34  1  0  0  0  0
 36 30  1  0  0  0  0
 37 31  1  0  0  0  0
M  END
>  <minimizedAffinity>
-5.75009537

>  <minimizedRMSD>
5.2036624

$$$$
