
 OpenBabel03242511083D

 42 46  0  0  1  0  0  0  0  0999 V2000
   47.1320   32.8220   44.1320 C   0  0  0  0  0  0  0  0  0  0  0  0
   47.1810   32.0070   45.2590 C   0  0  0  0  0  0  0  0  0  0  0  0
   46.4410   32.2440   46.4020 C   0  0  0  0  0  0  0  0  0  0  0  0
   45.5930   33.3380   46.4730 C   0  0  0  0  0  0  0  0  0  0  0  0
   45.5170   34.1670   45.3800 C   0  0  0  0  0  0  0  0  0  0  0  0
   44.6740   35.2610   45.4310 C   0  0  0  0  0  0  0  0  0  0  0  0
   44.5420   36.1290   44.3820 C   0  0  0  0  0  0  0  0  0  0  0  0
   45.3060   35.8480   43.2560 C   0  0  0  0  0  0  0  0  0  0  0  0
   46.1430   34.7470   43.2210 C   0  0  0  0  0  0  0  0  0  0  0  0
   46.2680   33.8900   44.2730 C   0  0  0  0  0  0  0  0  0  0  0  0
   47.8080   31.1280   45.3070 H   0  0  0  0  0  0  0  0  0  0  0  0
   46.4960   31.5950   47.2700 H   0  0  0  0  0  0  0  0  0  0  0  0
   45.0190   33.5260   47.3560 H   0  0  0  0  0  0  0  0  0  0  0  0
   44.1110   35.4190   46.3400 H   0  0  0  0  0  0  0  0  0  0  0  0
   43.8600   36.9580   44.5150 H   0  0  0  0  0  0  0  0  0  0  0  0
   45.1340   36.5950   42.4690 H   0  0  0  0  0  0  0  0  0  0  0  0
   46.7700   34.6990   41.9120 C   0  0  0  0  0  0  0  0  0  0  0  0
   46.6260   34.2150   40.6350 C   0  0  0  0  0  0  0  0  0  0  0  0
   45.6860   33.6750   40.4860 H   0  0  0  0  0  0  0  0  0  0  0  0
   47.6850   34.5170   39.8660 N   0  0  0  0  0  0  0  0  0  0  0  0
   47.7230   34.2200   38.8730 H   0  0  0  0  0  0  0  0  0  0  0  0
   48.5370   35.2070   40.6410 C   0  0  0  0  0  0  0  0  0  0  0  0
   49.4900   35.5910   40.3020 H   0  0  0  0  0  0  0  0  0  0  0  0
   47.9910   35.3220   41.8870 N   0  0  0  0  0  0  0  0  0  0  0  0
   47.9160   32.5380   42.9940 N   0  0  0  0  0  0  0  0  0  0  0  0
   47.8880   33.1740   42.1710 H   0  0  0  0  0  0  0  0  0  0  0  0
   50.0000   31.2610   42.2180 C   0  0  1  0  0  0  0  0  0  0  0  0
   48.7770   30.6070   41.6100 C   0  0  0  0  0  0  0  0  0  0  0  0
   48.7440   31.3720   42.9430 C   0  0  2  0  0  0  0  0  0  0  0  0
   50.4100   32.0240   41.5100 H   0  0  0  0  0  0  0  0  0  0  0  0
   48.2460   31.0890   40.7700 H   0  0  0  0  0  0  0  0  0  0  0  0
   48.7860   29.5030   41.6420 H   0  0  0  0  0  0  0  0  0  0  0  0
   48.6510   30.6750   43.8280 H   0  0  0  0  0  0  0  0  0  0  0  0
   51.9170   29.0120   44.4770 C   0  0  0  0  0  0  0  0  0  0  0  0
   53.1130   28.8170   43.7210 C   0  0  0  0  0  0  0  0  0  0  0  0
   53.2230   29.4570   42.4470 C   0  0  0  0  0  0  0  0  0  0  0  0
   52.2060   30.2090   42.0130 N   0  0  0  0  0  0  0  0  0  0  0  0
   51.0810   30.3750   42.7540 C   0  0  0  0  0  0  0  0  0  0  0  0
   50.9380   29.7770   43.9840 N   0  0  0  0  0  0  0  0  0  0  0  0
   51.8290   28.5320   45.4400 H   0  0  0  0  0  0  0  0  0  0  0  0
   53.8660   28.2030   44.1500 H   0  0  0  0  0  0  0  0  0  0  0  0
   54.1350   29.2710   41.9380 H   0  0  0  0  0  0  0  0  0  0  0  0
  1 10  2  0  0  0  0
  1  2  1  0  0  0  0
  2 11  1  0  0  0  0
  2  3  2  0  0  0  0
  3  4  1  0  0  0  0
  3 12  1  0  0  0  0
  4 13  1  0  0  0  0
  5  6  1  0  0  0  0
  5  4  2  0  0  0  0
  6 14  1  0  0  0  0
  7 15  1  0  0  0  0
  7  6  2  0  0  0  0
  8  7  1  0  0  0  0
  9  8  2  0  0  0  0
  9 10  1  0  0  0  0
 10  5  1  0  0  0  0
 16  8  1  0  0  0  0
 17  9  1  0  0  0  0
 18 17  2  0  0  0  0
 19 18  1  0  0  0  0
 20 18  1  0  0  0  0
 20 22  1  0  0  0  0
 21 20  1  0  0  0  0
 22 24  2  0  0  0  0
 23 22  1  0  0  0  0
 24 17  1  0  0  0  0
 25  1  1  0  0  0  0
 26 25  1  0  0  0  0
 27 30  1  6  0  0  0
 27 38  1  0  0  0  0
 27 29  1  0  0  0  0
 28 32  1  0  0  0  0
 28 27  1  0  0  0  0
 28 29  1  0  0  0  0
 29 25  1  0  0  0  0
 29 33  1  1  0  0  0
 31 28  1  0  0  0  0
 34 40  1  0  0  0  0
 35 41  1  0  0  0  0
 35 34  2  0  0  0  0
 36 35  1  0  0  0  0
 37 36  2  0  0  0  0
 37 38  1  0  0  0  0
 38 39  2  0  0  0  0
 39 34  1  0  0  0  0
 42 36  1  0  0  0  0
M  END
>  <minimizedAffinity>
-5.69171095

>  <minimizedRMSD>
2.38712978

$$$$
