
 OpenBabel03252509223D

 26 28  0  0  1  0  0  0  0  0999 V2000
   46.8110   34.7600   41.9830 C   0  0  1  0  0  0  0  0  0  0  0  0
   48.1920   35.4630   42.0480 C   0  0  0  0  0  0  0  0  0  0  0  0
   47.9530   33.9470   41.7740 C   0  0  2  0  0  0  0  0  0  0  0  0
   46.1500   35.1600   41.1970 H   0  0  0  0  0  0  0  0  0  0  0  0
   48.3890   36.0870   41.1810 H   0  0  0  0  0  0  0  0  0  0  0  0
   48.6150   35.7290   43.0140 H   0  0  0  0  0  0  0  0  0  0  0  0
   48.3590   33.2980   42.5750 H   0  0  0  0  0  0  0  0  0  0  0  0
   44.5650   35.6060   44.8530 C   0  0  0  0  0  0  0  0  0  0  0  0
   45.1800   35.7020   43.5790 C   0  0  0  0  0  0  0  0  0  0  0  0
   46.1590   34.7690   43.3540 C   0  0  0  0  0  0  0  0  0  0  0  0
   46.5120   33.8200   44.2950 N   0  0  0  0  0  0  0  0  0  0  0  0
   45.8940   33.7780   45.4840 C   0  0  0  0  0  0  0  0  0  0  0  0
   44.9170   34.6670   45.7740 N   0  0  0  0  0  0  0  0  0  0  0  0
   43.7910   36.2960   45.1090 H   0  0  0  0  0  0  0  0  0  0  0  0
   46.1430   33.0520   46.2430 H   0  0  0  0  0  0  0  0  0  0  0  0
   44.8190   36.6920   42.6360 N   0  0  0  0  0  0  0  0  0  0  0  0
   44.4910   36.6310   41.6610 H   0  0  0  0  0  0  0  0  0  0  0  0
   44.9460   37.6050   43.1280 H   0  0  0  0  0  0  0  0  0  0  0  0
   48.2450   33.5130   40.3600 C   0  0  0  0  0  0  0  0  0  0  0  0
   47.7380   33.9960   39.1660 C   0  0  0  0  0  0  0  0  0  0  0  0
   47.0200   34.7980   39.0950 H   0  0  0  0  0  0  0  0  0  0  0  0
   48.3150   33.2730   38.1760 N   0  0  0  0  0  0  0  0  0  0  0  0
   48.1360   33.3990   37.1590 H   0  0  0  0  0  0  0  0  0  0  0  0
   49.1700   32.3510   38.7070 C   0  0  0  0  0  0  0  0  0  0  0  0
   49.7800   31.6240   38.1830 H   0  0  0  0  0  0  0  0  0  0  0  0
   49.1020   32.5260   40.0440 N   0  0  0  0  0  0  0  0  0  0  0  0
  1  4  1  6  0  0  0
  1  2  1  0  0  0  0
  1 10  1  0  0  0  0
  2  6  1  0  0  0  0
  3  1  1  0  0  0  0
  3  2  1  0  0  0  0
  3  7  1  1  0  0  0
  5  2  1  0  0  0  0
  8 14  1  0  0  0  0
  8 13  1  0  0  0  0
  9  8  2  0  0  0  0
 10  9  1  0  0  0  0
 10 11  2  0  0  0  0
 11 12  1  0  0  0  0
 12 13  2  0  0  0  0
 12 15  1  0  0  0  0
 16 18  1  0  0  0  0
 16  9  1  0  0  0  0
 17 16  1  0  0  0  0
 19  3  1  0  0  0  0
 20 19  2  0  0  0  0
 21 20  1  0  0  0  0
 22 24  1  0  0  0  0
 22 20  1  0  0  0  0
 23 22  1  0  0  0  0
 24 26  2  0  0  0  0
 25 24  1  0  0  0  0
 26 19  1  0  0  0  0
M  END
>  <minimizedAffinity>
-4.57907534

>  <minimizedRMSD>
0.843078852

$$$$
