
 OpenBabel03252509223D

 26 28  0  0  1  0  0  0  0  0999 V2000
   46.5310   35.0210   41.9650 C   0  0  1  0  0  0  0  0  0  0  0  0
   48.0580   35.2910   41.9500 C   0  0  0  0  0  0  0  0  0  0  0  0
   47.3490   34.0310   41.3660 C   0  0  2  0  0  0  0  0  0  0  0  0
   45.9430   35.7840   41.4300 H   0  0  0  0  0  0  0  0  0  0  0  0
   48.3440   36.0590   41.2380 H   0  0  0  0  0  0  0  0  0  0  0  0
   48.6370   35.1540   42.8600 H   0  0  0  0  0  0  0  0  0  0  0  0
   47.6210   33.1000   41.9020 H   0  0  0  0  0  0  0  0  0  0  0  0
   44.6590   35.3880   45.1850 C   0  0  0  0  0  0  0  0  0  0  0  0
   45.1110   35.6840   43.8730 C   0  0  0  0  0  0  0  0  0  0  0  0
   46.0540   34.8130   43.3930 C   0  0  0  0  0  0  0  0  0  0  0  0
   46.5230   33.7420   44.1290 N   0  0  0  0  0  0  0  0  0  0  0  0
   46.0580   33.5120   45.3650 C   0  0  0  0  0  0  0  0  0  0  0  0
   45.1240   34.3300   45.9040 N   0  0  0  0  0  0  0  0  0  0  0  0
   43.9230   36.0180   45.6350 H   0  0  0  0  0  0  0  0  0  0  0  0
   46.3990   32.6860   45.9710 H   0  0  0  0  0  0  0  0  0  0  0  0
   44.6350   36.7970   43.1420 N   0  0  0  0  0  0  0  0  0  0  0  0
   44.1880   36.8750   42.2160 H   0  0  0  0  0  0  0  0  0  0  0  0
   44.8220   37.6290   43.7450 H   0  0  0  0  0  0  0  0  0  0  0  0
   47.3510   33.9520   39.8610 C   0  0  0  0  0  0  0  0  0  0  0  0
   46.4160   33.3980   39.0050 C   0  0  0  0  0  0  0  0  0  0  0  0
   45.5060   32.9200   39.3320 H   0  0  0  0  0  0  0  0  0  0  0  0
   46.8820   33.5830   37.7450 N   0  0  0  0  0  0  0  0  0  0  0  0
   46.4000   33.2760   36.8770 H   0  0  0  0  0  0  0  0  0  0  0  0
   48.0800   34.2380   37.7800 C   0  0  0  0  0  0  0  0  0  0  0  0
   48.7060   34.5340   36.9460 H   0  0  0  0  0  0  0  0  0  0  0  0
   48.3360   34.4470   39.0890 N   0  0  0  0  0  0  0  0  0  0  0  0
  1  4  1  6  0  0  0
  1 10  1  0  0  0  0
  2  1  1  0  0  0  0
  2  6  1  0  0  0  0
  3  7  1  1  0  0  0
  3  2  1  0  0  0  0
  3  1  1  0  0  0  0
  5  2  1  0  0  0  0
  8 14  1  0  0  0  0
  8 13  1  0  0  0  0
  9  8  2  0  0  0  0
 10  9  1  0  0  0  0
 10 11  2  0  0  0  0
 11 12  1  0  0  0  0
 12 13  2  0  0  0  0
 12 15  1  0  0  0  0
 16 18  1  0  0  0  0
 16  9  1  0  0  0  0
 17 16  1  0  0  0  0
 19  3  1  0  0  0  0
 20 21  1  0  0  0  0
 20 19  2  0  0  0  0
 22 24  1  0  0  0  0
 22 20  1  0  0  0  0
 23 22  1  0  0  0  0
 24 26  2  0  0  0  0
 25 24  1  0  0  0  0
 26 19  1  0  0  0  0
M  END
>  <minimizedAffinity>
-5.0667057

>  <minimizedRMSD>
0.402610868

$$$$
