
 OpenBabel03252509223D

 26 28  0  0  1  0  0  0  0  0999 V2000
   46.9340   34.7940   41.9640 C   0  0  1  0  0  0  0  0  0  0  0  0
   48.3070   35.5090   42.0690 C   0  0  0  0  0  0  0  0  0  0  0  0
   48.0850   34.0080   41.7070 C   0  0  2  0  0  0  0  0  0  0  0  0
   46.2670   35.2310   41.2040 H   0  0  0  0  0  0  0  0  0  0  0  0
   48.4950   36.1840   41.2390 H   0  0  0  0  0  0  0  0  0  0  0  0
   48.7280   35.7240   43.0470 H   0  0  0  0  0  0  0  0  0  0  0  0
   48.5000   33.3190   42.4690 H   0  0  0  0  0  0  0  0  0  0  0  0
   44.6630   35.4250   44.8700 C   0  0  0  0  0  0  0  0  0  0  0  0
   45.2720   35.6010   43.6010 C   0  0  0  0  0  0  0  0  0  0  0  0
   46.2840   34.7160   43.3340 C   0  0  0  0  0  0  0  0  0  0  0  0
   46.6740   33.7390   44.2300 N   0  0  0  0  0  0  0  0  0  0  0  0
   46.0600   33.6200   45.4160 C   0  0  0  0  0  0  0  0  0  0  0  0
   45.0510   34.4580   45.7470 N   0  0  0  0  0  0  0  0  0  0  0  0
   43.8640   36.0730   45.1580 H   0  0  0  0  0  0  0  0  0  0  0  0
   46.3360   32.8690   46.1420 H   0  0  0  0  0  0  0  0  0  0  0  0
   44.8730   36.6200   42.7060 N   0  0  0  0  0  0  0  0  0  0  0  0
   44.5460   36.5910   41.7280 H   0  0  0  0  0  0  0  0  0  0  0  0
   44.9680   37.5130   43.2380 H   0  0  0  0  0  0  0  0  0  0  0  0
   48.3800   33.6600   40.2700 C   0  0  0  0  0  0  0  0  0  0  0  0
   49.1220   32.6150   39.7500 C   0  0  0  0  0  0  0  0  0  0  0  0
   49.6160   31.8670   40.3490 H   0  0  0  0  0  0  0  0  0  0  0  0
   49.0850   32.7430   38.4010 N   0  0  0  0  0  0  0  0  0  0  0  0
   49.5510   32.1050   37.7250 H   0  0  0  0  0  0  0  0  0  0  0  0
   48.3420   33.8360   38.0550 C   0  0  0  0  0  0  0  0  0  0  0  0
   48.1230   34.2080   37.0610 H   0  0  0  0  0  0  0  0  0  0  0  0
   47.9280   34.3720   39.2210 N   0  0  0  0  0  0  0  0  0  0  0  0
  1  4  1  6  0  0  0
  1  2  1  0  0  0  0
  1 10  1  0  0  0  0
  2  6  1  0  0  0  0
  3  1  1  0  0  0  0
  3  2  1  0  0  0  0
  3  7  1  1  0  0  0
  5  2  1  0  0  0  0
  8 14  1  0  0  0  0
  8 13  1  0  0  0  0
  9  8  2  0  0  0  0
 10  9  1  0  0  0  0
 10 11  2  0  0  0  0
 11 12  1  0  0  0  0
 12 13  2  0  0  0  0
 12 15  1  0  0  0  0
 16 18  1  0  0  0  0
 16  9  1  0  0  0  0
 17 16  1  0  0  0  0
 19  3  1  0  0  0  0
 20 19  2  0  0  0  0
 20 21  1  0  0  0  0
 22 20  1  0  0  0  0
 23 22  1  0  0  0  0
 24 22  1  0  0  0  0
 24 26  2  0  0  0  0
 25 24  1  0  0  0  0
 26 19  1  0  0  0  0
M  END
>  <minimizedAffinity>
-4.69462538

>  <minimizedRMSD>
0.836246669

$$$$
