
 OpenBabel03242517243D

 42 45  0  0  1  0  0  0  0  0999 V2000
   41.9870   30.8380   42.8220 C   0  0  0  0  0  0  0  0  0  0  0  0
   42.1210   29.4490   43.0250 C   0  0  0  0  0  0  0  0  0  0  0  0
   41.1670   28.5850   42.4550 C   0  0  0  0  0  0  0  0  0  0  0  0
   40.1660   29.1460   41.7380 N   0  0  0  0  0  0  0  0  0  0  0  0
   40.0610   30.4900   41.5570 C   0  0  0  0  0  0  0  0  0  0  0  0
   40.9730   31.3410   42.1010 N   0  0  0  0  0  0  0  0  0  0  0  0
   38.9670   30.9880   40.7840 N   0  0  0  0  0  0  0  0  0  0  0  0
   39.0530   32.3810   40.3600 C   0  0  0  0  0  0  0  0  0  0  0  0
   37.7890   32.9850   39.8970 C   0  0  0  0  0  0  0  0  0  0  0  0
   36.9490   31.9660   39.1940 C   0  0  0  0  0  0  0  0  0  0  0  0
   36.6160   30.9090   40.2080 C   0  0  0  0  0  0  0  0  0  0  0  0
   37.8570   30.1280   40.4590 C   0  0  2  0  0  0  0  0  0  0  0  0
   42.6930   31.5530   43.2370 H   0  0  0  0  0  0  0  0  0  0  0  0
   42.9470   29.0840   43.6080 H   0  0  0  0  0  0  0  0  0  0  0  0
   41.2520   27.5150   42.5980 H   0  0  0  0  0  0  0  0  0  0  0  0
   39.8670   32.4280   39.5900 H   0  0  0  0  0  0  0  0  0  0  0  0
   39.4380   32.9900   41.2070 H   0  0  0  0  0  0  0  0  0  0  0  0
   37.2520   33.4260   40.7520 H   0  0  0  0  0  0  0  0  0  0  0  0
   38.0260   33.8200   39.1970 H   0  0  0  0  0  0  0  0  0  0  0  0
   36.0450   32.3590   38.7110 H   0  0  0  0  0  0  0  0  0  0  0  0
   37.5730   31.4580   38.4150 H   0  0  0  0  0  0  0  0  0  0  0  0
   36.2250   31.4180   41.1010 H   0  0  0  0  0  0  0  0  0  0  0  0
   35.8220   30.2100   39.8600 H   0  0  0  0  0  0  0  0  0  0  0  0
   38.1470   29.6240   39.4960 H   0  0  0  0  0  0  0  0  0  0  0  0
   38.0460   27.3370   39.7980 F   0  0  0  0  0  0  0  0  0  0  0  0
   37.7360   27.6580   41.0810 C   0  0  0  0  0  0  0  0  0  0  0  0
   37.6430   29.0160   41.4170 C   0  0  0  0  0  0  0  0  0  0  0  0
   37.3260   29.2850   42.7400 C   0  0  0  0  0  0  0  0  0  0  0  0
   37.1120   28.3030   43.6800 C   0  0  0  0  0  0  0  0  0  0  0  0
   37.2070   26.9820   43.3310 C   0  0  0  0  0  0  0  0  0  0  0  0
   37.5210   26.6710   42.0250 C   0  0  0  0  0  0  0  0  0  0  0  0
   37.2520   30.3150   43.0100 H   0  0  0  0  0  0  0  0  0  0  0  0
   36.8640   28.5040   44.7130 H   0  0  0  0  0  0  0  0  0  0  0  0
   37.0520   26.1470   44.0190 H   0  0  0  0  0  0  0  0  0  0  0  0
   37.6400   25.2820   41.5840 C   0  0  0  0  0  0  0  0  0  0  0  0
   38.6530   24.4030   41.9110 C   0  0  0  0  0  0  0  0  0  0  0  0
   39.5110   24.6120   42.5420 H   0  0  0  0  0  0  0  0  0  0  0  0
   38.4480   23.2050   41.3320 N   0  0  0  0  0  0  0  0  0  0  0  0
   38.9780   22.3080   41.3400 H   0  0  0  0  0  0  0  0  0  0  0  0
   37.2920   23.3060   40.6260 C   0  0  0  0  0  0  0  0  0  0  0  0
   36.7870   22.5610   40.0230 H   0  0  0  0  0  0  0  0  0  0  0  0
   36.8150   24.5680   40.7880 N   0  0  0  0  0  0  0  0  0  0  0  0
  1  2  1  0  0  0  0
  1 13  1  0  0  0  0
  2 14  1  0  0  0  0
  3 15  1  0  0  0  0
  3  2  2  0  0  0  0
  4  3  1  0  0  0  0
  5  4  2  0  0  0  0
  5  6  1  0  0  0  0
  6  1  2  0  0  0  0
  7  5  1  0  0  0  0
  8  7  1  0  0  0  0
  8 17  1  0  0  0  0
  9  8  1  0  0  0  0
  9 18  1  0  0  0  0
 10  9  1  0  0  0  0
 10 11  1  0  0  0  0
 11 12  1  0  0  0  0
 11 22  1  0  0  0  0
 12 24  1  6  0  0  0
 12  7  1  0  0  0  0
 12 27  1  0  0  0  0
 16  8  1  0  0  0  0
 19  9  1  0  0  0  0
 20 10  1  0  0  0  0
 21 10  1  0  0  0  0
 23 11  1  0  0  0  0
 25 26  1  0  0  0  0
 26 27  2  0  0  0  0
 26 31  1  0  0  0  0
 27 28  1  0  0  0  0
 28 32  1  0  0  0  0
 28 29  2  0  0  0  0
 29 33  1  0  0  0  0
 30 29  1  0  0  0  0
 30 34  1  0  0  0  0
 31 30  2  0  0  0  0
 35 36  2  0  0  0  0
 35 31  1  0  0  0  0
 36 37  1  0  0  0  0
 38 39  1  0  0  0  0
 38 36  1  0  0  0  0
 40 42  2  0  0  0  0
 40 38  1  0  0  0  0
 41 40  1  0  0  0  0
 42 35  1  0  0  0  0
M  END
>  <minimizedAffinity>
-6.19612122

$$$$

 OpenBabel03242517243D

 42 45  0  0  1  0  0  0  0  0999 V2000
   35.2110   28.3840   37.8790 C   0  0  0  0  0  0  0  0  0  0  0  0
   35.8820   29.2060   36.9520 C   0  0  0  0  0  0  0  0  0  0  0  0
   37.0840   29.8290   37.3410 C   0  0  0  0  0  0  0  0  0  0  0  0
   37.5270   29.5970   38.5990 N   0  0  0  0  0  0  0  0  0  0  0  0
   36.8590   28.7990   39.4740 C   0  0  0  0  0  0  0  0  0  0  0  0
   35.6960   28.1900   39.1160 N   0  0  0  0  0  0  0  0  0  0  0  0
   37.4070   28.6170   40.7810 N   0  0  0  0  0  0  0  0  0  0  0  0
   36.8410   27.5330   41.5760 C   0  0  0  0  0  0  0  0  0  0  0  0
   37.1360   27.5820   43.0210 C   0  0  0  0  0  0  0  0  0  0  0  0
   38.5030   28.1430   43.2570 C   0  0  0  0  0  0  0  0  0  0  0  0
   38.4860   29.5520   42.7380 C   0  0  0  0  0  0  0  0  0  0  0  0
   38.4640   29.4770   41.2520 C   0  0  2  0  0  0  0  0  0  0  0  0
   34.2800   27.8780   37.6350 H   0  0  0  0  0  0  0  0  0  0  0  0
   35.4620   29.3380   35.9710 H   0  0  0  0  0  0  0  0  0  0  0  0
   37.6150   30.4630   36.6430 H   0  0  0  0  0  0  0  0  0  0  0  0
   37.1770   26.5770   41.0950 H   0  0  0  0  0  0  0  0  0  0  0  0
   35.7360   27.5330   41.4480 H   0  0  0  0  0  0  0  0  0  0  0  0
   36.3650   28.1750   43.5390 H   0  0  0  0  0  0  0  0  0  0  0  0
   37.0820   26.5470   43.4330 H   0  0  0  0  0  0  0  0  0  0  0  0
   38.8520   28.1020   44.2970 H   0  0  0  0  0  0  0  0  0  0  0  0
   39.2370   27.5890   42.6170 H   0  0  0  0  0  0  0  0  0  0  0  0
   37.6070   30.0530   43.1690 H   0  0  0  0  0  0  0  0  0  0  0  0
   39.3790   30.1400   43.0480 H   0  0  0  0  0  0  0  0  0  0  0  0
   39.4160   28.9820   40.9180 H   0  0  0  0  0  0  0  0  0  0  0  0
   40.6570   30.5140   39.7100 F   0  0  0  0  0  0  0  0  0  0  0  0
   39.5680   31.3120   39.8680 C   0  0  0  0  0  0  0  0  0  0  0  0
   38.4900   30.8170   40.6160 C   0  0  0  0  0  0  0  0  0  0  0  0
   37.4070   31.6730   40.7430 C   0  0  0  0  0  0  0  0  0  0  0  0
   37.3670   32.9290   40.1820 C   0  0  0  0  0  0  0  0  0  0  0  0
   38.4310   33.3940   39.4550 C   0  0  0  0  0  0  0  0  0  0  0  0
   39.5280   32.5740   39.3040 C   0  0  0  0  0  0  0  0  0  0  0  0
   36.5790   31.3090   41.3090 H   0  0  0  0  0  0  0  0  0  0  0  0
   36.5260   33.6020   40.2760 H   0  0  0  0  0  0  0  0  0  0  0  0
   38.4740   34.3770   38.9800 H   0  0  0  0  0  0  0  0  0  0  0  0
   40.6980   33.0060   38.5410 C   0  0  0  0  0  0  0  0  0  0  0  0
   41.0690   32.5590   37.2880 C   0  0  0  0  0  0  0  0  0  0  0  0
   40.5490   31.8210   36.6860 H   0  0  0  0  0  0  0  0  0  0  0  0
   42.1990   33.1670   36.8820 N   0  0  0  0  0  0  0  0  0  0  0  0
   42.7760   33.0990   36.0170 H   0  0  0  0  0  0  0  0  0  0  0  0
   42.5630   34.0170   37.8770 C   0  0  0  0  0  0  0  0  0  0  0  0
   43.4140   34.6850   37.9330 H   0  0  0  0  0  0  0  0  0  0  0  0
   41.6460   33.9080   38.8730 N   0  0  0  0  0  0  0  0  0  0  0  0
  1  6  1  0  0  0  0
  2  3  1  0  0  0  0
  2  1  2  0  0  0  0
  3  4  2  0  0  0  0
  4  5  1  0  0  0  0
  5  7  1  0  0  0  0
  6  5  2  0  0  0  0
  7 12  1  0  0  0  0
  7  8  1  0  0  0  0
  8  9  1  0  0  0  0
  9 10  1  0  0  0  0
  9 19  1  0  0  0  0
  9 18  1  0  0  0  0
 10 20  1  0  0  0  0
 11 23  1  0  0  0  0
 11 22  1  0  0  0  0
 11 10  1  0  0  0  0
 12 24  1  6  0  0  0
 12 11  1  0  0  0  0
 13  1  1  0  0  0  0
 14  2  1  0  0  0  0
 15  3  1  0  0  0  0
 16  8  1  0  0  0  0
 17  8  1  0  0  0  0
 21 10  1  0  0  0  0
 25 26  1  0  0  0  0
 26 27  1  0  0  0  0
 27 28  2  0  0  0  0
 27 12  1  0  0  0  0
 28 32  1  0  0  0  0
 29 33  1  0  0  0  0
 29 28  1  0  0  0  0
 30 29  2  0  0  0  0
 31 30  1  0  0  0  0
 31 26  2  0  0  0  0
 34 30  1  0  0  0  0
 35 42  1  0  0  0  0
 35 31  1  0  0  0  0
 36 35  2  0  0  0  0
 37 36  1  0  0  0  0
 38 36  1  0  0  0  0
 38 40  1  0  0  0  0
 39 38  1  0  0  0  0
 40 41  1  0  0  0  0
 40 42  2  0  0  0  0
M  END
>  <minimizedAffinity>
-6.18558025

$$$$

 OpenBabel03242517243D

 42 45  0  0  1  0  0  0  0  0999 V2000
   38.8730   32.6390   40.6470 C   0  0  0  0  0  0  0  0  0  0  0  0
   38.0600   32.9930   39.5520 C   0  0  0  0  0  0  0  0  0  0  0  0
   36.9820   32.1530   39.2070 C   0  0  0  0  0  0  0  0  0  0  0  0
   36.7920   31.0430   39.9580 N   0  0  0  0  0  0  0  0  0  0  0  0
   37.5930   30.7260   41.0090 C   0  0  0  0  0  0  0  0  0  0  0  0
   38.6390   31.5240   41.3570 N   0  0  0  0  0  0  0  0  0  0  0  0
   37.3110   29.5310   41.7410 N   0  0  0  0  0  0  0  0  0  0  0  0
   37.9870   29.3820   43.0250 C   0  0  0  0  0  0  0  0  0  0  0  0
   37.9880   28.0190   43.5890 C   0  0  0  0  0  0  0  0  0  0  0  0
   36.7170   27.3090   43.2460 C   0  0  0  0  0  0  0  0  0  0  0  0
   36.6790   27.1930   41.7500 C   0  0  0  0  0  0  0  0  0  0  0  0
   36.4010   28.5490   41.2060 C   0  0  2  0  0  0  0  0  0  0  0  0
   39.7190   33.2480   40.9590 H   0  0  0  0  0  0  0  0  0  0  0  0
   38.2790   33.8930   39.0070 H   0  0  0  0  0  0  0  0  0  0  0  0
   36.3450   32.4080   38.3700 H   0  0  0  0  0  0  0  0  0  0  0  0
   37.5280   30.1390   43.7150 H   0  0  0  0  0  0  0  0  0  0  0  0
   39.0430   29.7130   42.9150 H   0  0  0  0  0  0  0  0  0  0  0  0
   38.8680   27.4650   43.2230 H   0  0  0  0  0  0  0  0  0  0  0  0
   38.0880   28.0900   44.6990 H   0  0  0  0  0  0  0  0  0  0  0  0
   36.5820   26.3320   43.7290 H   0  0  0  0  0  0  0  0  0  0  0  0
   35.8510   27.9620   43.5250 H   0  0  0  0  0  0  0  0  0  0  0  0
   37.6440   26.7750   41.4260 H   0  0  0  0  0  0  0  0  0  0  0  0
   35.8880   26.4980   41.3880 H   0  0  0  0  0  0  0  0  0  0  0  0
   35.3840   28.8640   41.5680 H   0  0  0  0  0  0  0  0  0  0  0  0
   33.9840   29.0730   39.7410 F   0  0  0  0  0  0  0  0  0  0  0  0
   35.1080   28.8120   39.0240 C   0  0  0  0  0  0  0  0  0  0  0  0
   36.2950   28.5560   39.7270 C   0  0  0  0  0  0  0  0  0  0  0  0
   37.4090   28.2970   38.9440 C   0  0  0  0  0  0  0  0  0  0  0  0
   37.3800   28.2860   37.5680 C   0  0  0  0  0  0  0  0  0  0  0  0
   36.2110   28.5370   36.9010 C   0  0  0  0  0  0  0  0  0  0  0  0
   35.0780   28.7990   37.6420 C   0  0  0  0  0  0  0  0  0  0  0  0
   38.3190   28.1030   39.4660 H   0  0  0  0  0  0  0  0  0  0  0  0
   38.2450   28.0850   36.9510 H   0  0  0  0  0  0  0  0  0  0  0  0
   36.1080   28.5450   35.8130 H   0  0  0  0  0  0  0  0  0  0  0  0
   33.7970   29.0760   36.9950 C   0  0  0  0  0  0  0  0  0  0  0  0
   33.5820   29.2420   35.6410 C   0  0  0  0  0  0  0  0  0  0  0  0
   34.3310   29.1920   34.8570 H   0  0  0  0  0  0  0  0  0  0  0  0
   32.2810   29.4840   35.3920 N   0  0  0  0  0  0  0  0  0  0  0  0
   31.7410   29.6580   34.5190 H   0  0  0  0  0  0  0  0  0  0  0  0
   31.6470   29.4740   36.5930 C   0  0  0  0  0  0  0  0  0  0  0  0
   30.5980   29.6280   36.8180 H   0  0  0  0  0  0  0  0  0  0  0  0
   32.5760   29.2260   37.5530 N   0  0  0  0  0  0  0  0  0  0  0  0
  1 13  1  0  0  0  0
  1  6  1  0  0  0  0
  2  1  2  0  0  0  0
  3  2  1  0  0  0  0
  3  4  2  0  0  0  0
  4  5  1  0  0  0  0
  5  6  2  0  0  0  0
  5  7  1  0  0  0  0
  7  8  1  0  0  0  0
  8  9  1  0  0  0  0
  8 16  1  0  0  0  0
  9 19  1  0  0  0  0
 10 21  1  0  0  0  0
 10  9  1  0  0  0  0
 10 20  1  0  0  0  0
 11 10  1  0  0  0  0
 12 24  1  1  0  0  0
 12  7  1  0  0  0  0
 12 11  1  0  0  0  0
 14  2  1  0  0  0  0
 15  3  1  0  0  0  0
 17  8  1  0  0  0  0
 18  9  1  0  0  0  0
 22 11  1  0  0  0  0
 23 11  1  0  0  0  0
 26 27  1  0  0  0  0
 26 25  1  0  0  0  0
 27 12  1  0  0  0  0
 28 32  1  0  0  0  0
 28 27  2  0  0  0  0
 29 28  1  0  0  0  0
 30 29  2  0  0  0  0
 30 31  1  0  0  0  0
 31 26  2  0  0  0  0
 33 29  1  0  0  0  0
 34 30  1  0  0  0  0
 35 42  1  0  0  0  0
 35 31  1  0  0  0  0
 36 35  2  0  0  0  0
 37 36  1  0  0  0  0
 38 36  1  0  0  0  0
 38 40  1  0  0  0  0
 39 38  1  0  0  0  0
 40 41  1  0  0  0  0
 40 42  2  0  0  0  0
M  END
>  <minimizedAffinity>
-6.16682005

$$$$

 OpenBabel03242517243D

 42 45  0  0  1  0  0  0  0  0999 V2000
   37.9930   25.1620   37.7550 C   0  0  0  0  0  0  0  0  0  0  0  0
   37.7790   26.4090   37.1340 C   0  0  0  0  0  0  0  0  0  0  0  0
   37.9940   27.5850   37.8790 C   0  0  0  0  0  0  0  0  0  0  0  0
   38.3980   27.4440   39.1630 N   0  0  0  0  0  0  0  0  0  0  0  0
   38.5970   26.2280   39.7370 C   0  0  0  0  0  0  0  0  0  0  0  0
   38.3940   25.0810   39.0340 N   0  0  0  0  0  0  0  0  0  0  0  0
   39.0240   26.1830   41.1010 N   0  0  0  0  0  0  0  0  0  0  0  0
   39.5150   24.8970   41.5840 C   0  0  0  0  0  0  0  0  0  0  0  0
   39.5990   24.7590   43.0510 C   0  0  0  0  0  0  0  0  0  0  0  0
   39.9680   26.0660   43.6790 C   0  0  0  0  0  0  0  0  0  0  0  0
   38.8560   27.0240   43.3660 C   0  0  0  0  0  0  0  0  0  0  0  0
   38.9590   27.3660   41.9210 C   0  0  2  0  0  0  0  0  0  0  0  0
   37.8430   24.2220   37.2300 H   0  0  0  0  0  0  0  0  0  0  0  0
   37.4580   26.4340   36.1080 H   0  0  0  0  0  0  0  0  0  0  0  0
   37.8360   28.5530   37.4200 H   0  0  0  0  0  0  0  0  0  0  0  0
   40.4970   24.7200   41.0720 H   0  0  0  0  0  0  0  0  0  0  0  0
   38.8520   24.0920   41.1980 H   0  0  0  0  0  0  0  0  0  0  0  0
   38.6410   24.3820   43.4450 H   0  0  0  0  0  0  0  0  0  0  0  0
   40.3740   23.9950   43.2950 H   0  0  0  0  0  0  0  0  0  0  0  0
   40.1720   26.0240   44.7570 H   0  0  0  0  0  0  0  0  0  0  0  0
   40.8770   26.4710   43.1640 H   0  0  0  0  0  0  0  0  0  0  0  0
   37.9100   26.5340   43.6380 H   0  0  0  0  0  0  0  0  0  0  0  0
   38.9150   27.9660   43.9560 H   0  0  0  0  0  0  0  0  0  0  0  0
   39.9410   27.8900   41.7600 H   0  0  0  0  0  0  0  0  0  0  0  0
   39.5150   30.0660   41.1080 F   0  0  0  0  0  0  0  0  0  0  0  0
   38.2170   29.6650   41.1040 C   0  0  0  0  0  0  0  0  0  0  0  0
   37.9320   28.3490   41.4970 C   0  0  0  0  0  0  0  0  0  0  0  0
   36.5920   27.9950   41.4730 C   0  0  0  0  0  0  0  0  0  0  0  0
   35.5900   28.8570   41.0930 C   0  0  0  0  0  0  0  0  0  0  0  0
   35.8890   30.1390   40.7130 C   0  0  0  0  0  0  0  0  0  0  0  0
   37.2100   30.5320   40.7230 C   0  0  0  0  0  0  0  0  0  0  0  0
   36.3610   26.9960   41.7680 H   0  0  0  0  0  0  0  0  0  0  0  0
   34.5420   28.5880   41.0710 H   0  0  0  0  0  0  0  0  0  0  0  0
   35.1500   30.8800   40.3990 H   0  0  0  0  0  0  0  0  0  0  0  0
   37.6010   31.8850   40.3290 C   0  0  0  0  0  0  0  0  0  0  0  0
   37.1680   32.5690   39.2110 C   0  0  0  0  0  0  0  0  0  0  0  0
   36.4750   32.2060   38.4590 H   0  0  0  0  0  0  0  0  0  0  0  0
   37.7280   33.7920   39.1570 N   0  0  0  0  0  0  0  0  0  0  0  0
   37.6520   34.5830   38.4830 H   0  0  0  0  0  0  0  0  0  0  0  0
   38.5290   33.9030   40.2480 C   0  0  0  0  0  0  0  0  0  0  0  0
   39.1510   34.7330   40.5630 H   0  0  0  0  0  0  0  0  0  0  0  0
   38.4420   32.7420   40.9480 N   0  0  0  0  0  0  0  0  0  0  0  0
  1  6  1  0  0  0  0
  2  1  2  0  0  0  0
  2  3  1  0  0  0  0
  3  4  2  0  0  0  0
  4  5  1  0  0  0  0
  5  7  1  0  0  0  0
  6  5  2  0  0  0  0
  7  8  1  0  0  0  0
  7 12  1  0  0  0  0
  8  9  1  0  0  0  0
  9 19  1  0  0  0  0
  9 18  1  0  0  0  0
  9 10  1  0  0  0  0
 10 20  1  0  0  0  0
 11 22  1  0  0  0  0
 11 10  1  0  0  0  0
 11 23  1  0  0  0  0
 12 24  1  6  0  0  0
 12 11  1  0  0  0  0
 13  1  1  0  0  0  0
 14  2  1  0  0  0  0
 15  3  1  0  0  0  0
 16  8  1  0  0  0  0
 17  8  1  0  0  0  0
 21 10  1  0  0  0  0
 26 25  1  0  0  0  0
 26 27  1  0  0  0  0
 27 12  1  0  0  0  0
 28 27  2  0  0  0  0
 28 32  1  0  0  0  0
 29 28  1  0  0  0  0
 30 31  1  0  0  0  0
 30 29  2  0  0  0  0
 31 26  2  0  0  0  0
 33 29  1  0  0  0  0
 34 30  1  0  0  0  0
 35 31  1  0  0  0  0
 35 42  1  0  0  0  0
 36 35  2  0  0  0  0
 37 36  1  0  0  0  0
 38 36  1  0  0  0  0
 38 40  1  0  0  0  0
 39 38  1  0  0  0  0
 40 41  1  0  0  0  0
 40 42  2  0  0  0  0
M  END
>  <minimizedAffinity>
-6.02876854

$$$$

 OpenBabel03242517243D

 42 45  0  0  1  0  0  0  0  0999 V2000
   37.7970   32.5190   40.3460 C   0  0  0  0  0  0  0  0  0  0  0  0
   38.9220   32.2390   41.1480 C   0  0  0  0  0  0  0  0  0  0  0  0
   39.3530   30.9040   41.2720 C   0  0  0  0  0  0  0  0  0  0  0  0
   38.6520   29.9580   40.6050 N   0  0  0  0  0  0  0  0  0  0  0  0
   37.5700   30.2560   39.8380 C   0  0  0  0  0  0  0  0  0  0  0  0
   37.1380   31.5400   39.7060 N   0  0  0  0  0  0  0  0  0  0  0  0
   36.8940   29.1860   39.1720 N   0  0  0  0  0  0  0  0  0  0  0  0
   35.9440   29.5660   38.1320 C   0  0  0  0  0  0  0  0  0  0  0  0
   34.9980   28.5120   37.7190 C   0  0  0  0  0  0  0  0  0  0  0  0
   35.6540   27.1680   37.7780 C   0  0  0  0  0  0  0  0  0  0  0  0
   36.0160   26.9290   39.2150 C   0  0  0  0  0  0  0  0  0  0  0  0
   37.1650   27.8180   39.5370 C   0  0  2  0  0  0  0  0  0  0  0  0
   37.4190   33.5290   40.2130 H   0  0  0  0  0  0  0  0  0  0  0  0
   39.4240   33.0500   41.6450 H   0  0  0  0  0  0  0  0  0  0  0  0
   40.2150   30.6690   41.8830 H   0  0  0  0  0  0  0  0  0  0  0  0
   36.5520   29.9660   37.2790 H   0  0  0  0  0  0  0  0  0  0  0  0
   35.3550   30.4410   38.4870 H   0  0  0  0  0  0  0  0  0  0  0  0
   34.0990   28.5480   38.3550 H   0  0  0  0  0  0  0  0  0  0  0  0
   34.6660   28.7190   36.6740 H   0  0  0  0  0  0  0  0  0  0  0  0
   35.0590   26.3400   37.3700 H   0  0  0  0  0  0  0  0  0  0  0  0
   36.6230   27.2140   37.2200 H   0  0  0  0  0  0  0  0  0  0  0  0
   35.1200   27.1280   39.8200 H   0  0  0  0  0  0  0  0  0  0  0  0
   36.3170   25.8770   39.4170 H   0  0  0  0  0  0  0  0  0  0  0  0
   38.0320   27.5080   38.8900 H   0  0  0  0  0  0  0  0  0  0  0  0
   39.7080   26.6860   40.2540 F   0  0  0  0  0  0  0  0  0  0  0  0
   38.8910   27.0840   41.2650 C   0  0  0  0  0  0  0  0  0  0  0  0
   37.6480   27.6400   40.9280 C   0  0  0  0  0  0  0  0  0  0  0  0
   36.8570   28.0280   41.9980 C   0  0  0  0  0  0  0  0  0  0  0  0
   37.2420   27.8890   43.3110 C   0  0  0  0  0  0  0  0  0  0  0  0
   38.4600   27.3440   43.6190 C   0  0  0  0  0  0  0  0  0  0  0  0
   39.2780   26.9440   42.5850 C   0  0  0  0  0  0  0  0  0  0  0  0
   35.9090   28.4540   41.7560 H   0  0  0  0  0  0  0  0  0  0  0  0
   36.6310   28.1900   44.1520 H   0  0  0  0  0  0  0  0  0  0  0  0
   38.8350   27.2010   44.6350 H   0  0  0  0  0  0  0  0  0  0  0  0
   40.5910   26.3540   42.8410 C   0  0  0  0  0  0  0  0  0  0  0  0
   40.9150   25.0130   42.7670 C   0  0  0  0  0  0  0  0  0  0  0  0
   40.2440   24.2000   42.5100 H   0  0  0  0  0  0  0  0  0  0  0  0
   42.2140   24.8220   43.0650 N   0  0  0  0  0  0  0  0  0  0  0  0
   42.8170   23.9740   43.1170 H   0  0  0  0  0  0  0  0  0  0  0  0
   42.7370   26.0460   43.3320 C   0  0  0  0  0  0  0  0  0  0  0  0
   43.7490   26.3160   43.6120 H   0  0  0  0  0  0  0  0  0  0  0  0
   41.7440   26.9630   43.1920 N   0  0  0  0  0  0  0  0  0  0  0  0
  1  2  1  0  0  0  0
  2  3  2  0  0  0  0
  2 14  1  0  0  0  0
  3 15  1  0  0  0  0
  4  3  1  0  0  0  0
  5  4  2  0  0  0  0
  6  5  1  0  0  0  0
  6  1  2  0  0  0  0
  7 12  1  0  0  0  0
  7  5  1  0  0  0  0
  8 17  1  0  0  0  0
  8  7  1  0  0  0  0
  9 10  1  0  0  0  0
  9  8  1  0  0  0  0
  9 18  1  0  0  0  0
 10 11  1  0  0  0  0
 11 23  1  0  0  0  0
 11 12  1  0  0  0  0
 11 22  1  0  0  0  0
 12 24  1  6  0  0  0
 12 27  1  0  0  0  0
 13  1  1  0  0  0  0
 16  8  1  0  0  0  0
 19  9  1  0  0  0  0
 20 10  1  0  0  0  0
 21 10  1  0  0  0  0
 25 26  1  0  0  0  0
 26 31  1  0  0  0  0
 27 26  2  0  0  0  0
 27 28  1  0  0  0  0
 28 29  2  0  0  0  0
 29 30  1  0  0  0  0
 29 33  1  0  0  0  0
 30 34  1  0  0  0  0
 31 35  1  0  0  0  0
 31 30  2  0  0  0  0
 32 28  1  0  0  0  0
 35 42  1  0  0  0  0
 36 35  2  0  0  0  0
 36 38  1  0  0  0  0
 37 36  1  0  0  0  0
 38 39  1  0  0  0  0
 38 40  1  0  0  0  0
 40 41  1  0  0  0  0
 42 40  2  0  0  0  0
M  END
>  <minimizedAffinity>
-6.020051

$$$$

 OpenBabel03242517243D

 42 45  0  0  1  0  0  0  0  0999 V2000
   40.6210   26.9300   42.4480 C   0  0  0  0  0  0  0  0  0  0  0  0
   40.1660   28.0920   43.1020 C   0  0  0  0  0  0  0  0  0  0  0  0
   38.8700   28.5660   42.8220 C   0  0  0  0  0  0  0  0  0  0  0  0
   38.1310   27.8680   41.9290 N   0  0  0  0  0  0  0  0  0  0  0  0
   38.5950   26.7490   41.3120 C   0  0  0  0  0  0  0  0  0  0  0  0
   39.8440   26.2760   41.5700 N   0  0  0  0  0  0  0  0  0  0  0  0
   37.7370   26.0810   40.3830 N   0  0  0  0  0  0  0  0  0  0  0  0
   38.1410   24.7390   39.9780 C   0  0  0  0  0  0  0  0  0  0  0  0
   37.4790   24.2140   38.7690 C   0  0  0  0  0  0  0  0  0  0  0  0
   36.0670   24.7030   38.6910 C   0  0  0  0  0  0  0  0  0  0  0  0
   36.1350   26.1980   38.5710 C   0  0  0  0  0  0  0  0  0  0  0  0
   36.5460   26.7320   39.8970 C   0  0  2  0  0  0  0  0  0  0  0  0
   41.6120   26.5170   42.6240 H   0  0  0  0  0  0  0  0  0  0  0  0
   40.8180   28.5880   43.7990 H   0  0  0  0  0  0  0  0  0  0  0  0
   38.5020   29.4570   43.3150 H   0  0  0  0  0  0  0  0  0  0  0  0
   37.9980   24.0810   40.8750 H   0  0  0  0  0  0  0  0  0  0  0  0
   39.2390   24.7330   39.8020 H   0  0  0  0  0  0  0  0  0  0  0  0
   38.0530   24.5030   37.8740 H   0  0  0  0  0  0  0  0  0  0  0  0
   37.4850   23.0990   38.8130 H   0  0  0  0  0  0  0  0  0  0  0  0
   35.4630   24.2620   37.8870 H   0  0  0  0  0  0  0  0  0  0  0  0
   35.5580   24.4960   39.6670 H   0  0  0  0  0  0  0  0  0  0  0  0
   36.8410   26.4330   37.7610 H   0  0  0  0  0  0  0  0  0  0  0  0
   35.1590   26.6560   38.2930 H   0  0  0  0  0  0  0  0  0  0  0  0
   35.7440   26.4670   40.6390 H   0  0  0  0  0  0  0  0  0  0  0  0
   38.3740   28.3180   38.3460 F   0  0  0  0  0  0  0  0  0  0  0  0
   37.5050   28.9760   39.1570 C   0  0  0  0  0  0  0  0  0  0  0  0
   36.6070   28.2130   39.9180 C   0  0  0  0  0  0  0  0  0  0  0  0
   35.7430   28.9370   40.7260 C   0  0  0  0  0  0  0  0  0  0  0  0
   35.7470   30.3110   40.7960 C   0  0  0  0  0  0  0  0  0  0  0  0
   36.6330   31.0380   40.0450 C   0  0  0  0  0  0  0  0  0  0  0  0
   37.5090   30.3570   39.2270 C   0  0  0  0  0  0  0  0  0  0  0  0
   35.0540   28.3700   41.3100 H   0  0  0  0  0  0  0  0  0  0  0  0
   35.0770   30.8830   41.4230 H   0  0  0  0  0  0  0  0  0  0  0  0
   36.6970   32.1280   40.0460 H   0  0  0  0  0  0  0  0  0  0  0  0
   38.4810   31.0680   38.3980 C   0  0  0  0  0  0  0  0  0  0  0  0
   38.2230   31.7100   37.2030 C   0  0  0  0  0  0  0  0  0  0  0  0
   37.2640   31.7810   36.7020 H   0  0  0  0  0  0  0  0  0  0  0  0
   39.3470   32.2610   36.7080 N   0  0  0  0  0  0  0  0  0  0  0  0
   39.5540   32.8130   35.8490 H   0  0  0  0  0  0  0  0  0  0  0  0
   40.3420   31.9760   37.5880 C   0  0  0  0  0  0  0  0  0  0  0  0
   41.3910   32.2420   37.5500 H   0  0  0  0  0  0  0  0  0  0  0  0
   39.8020   31.2540   38.6060 N   0  0  0  0  0  0  0  0  0  0  0  0
  1 13  1  0  0  0  0
  1  2  1  0  0  0  0
  2 14  1  0  0  0  0
  3  2  2  0  0  0  0
  3 15  1  0  0  0  0
  4  3  1  0  0  0  0
  5  6  1  0  0  0  0
  5  4  2  0  0  0  0
  6  1  2  0  0  0  0
  7  5  1  0  0  0  0
  8  7  1  0  0  0  0
  8 16  1  0  0  0  0
  9 19  1  0  0  0  0
  9  8  1  0  0  0  0
 10  9  1  0  0  0  0
 10 21  1  0  0  0  0
 11 10  1  0  0  0  0
 11 12  1  0  0  0  0
 12 27  1  0  0  0  0
 12  7  1  0  0  0  0
 12 24  1  1  0  0  0
 17  8  1  0  0  0  0
 18  9  1  0  0  0  0
 20 10  1  0  0  0  0
 22 11  1  0  0  0  0
 23 11  1  0  0  0  0
 25 26  1  0  0  0  0
 26 31  2  0  0  0  0
 26 27  1  0  0  0  0
 27 28  2  0  0  0  0
 28 29  1  0  0  0  0
 28 32  1  0  0  0  0
 29 33  1  0  0  0  0
 30 34  1  0  0  0  0
 30 29  2  0  0  0  0
 31 30  1  0  0  0  0
 35 42  1  0  0  0  0
 35 31  1  0  0  0  0
 36 35  2  0  0  0  0
 37 36  1  0  0  0  0
 38 36  1  0  0  0  0
 38 40  1  0  0  0  0
 39 38  1  0  0  0  0
 40 42  2  0  0  0  0
 41 40  1  0  0  0  0
M  END
>  <minimizedAffinity>
-6.01464224

$$$$

 OpenBabel03242517243D

 42 45  0  0  1  0  0  0  0  0999 V2000
   35.3650   29.2860   37.8430 C   0  0  0  0  0  0  0  0  0  0  0  0
   34.5260   29.0590   38.9530 C   0  0  0  0  0  0  0  0  0  0  0  0
   35.0590   29.2050   40.2480 C   0  0  0  0  0  0  0  0  0  0  0  0
   36.3610   29.5590   40.3500 N   0  0  0  0  0  0  0  0  0  0  0  0
   37.1480   29.7720   39.2630 C   0  0  0  0  0  0  0  0  0  0  0  0
   36.6520   29.6350   38.0030 N   0  0  0  0  0  0  0  0  0  0  0  0
   38.5130   30.1420   39.4740 N   0  0  0  0  0  0  0  0  0  0  0  0
   39.2330   30.6530   38.3130 C   0  0  0  0  0  0  0  0  0  0  0  0
   40.7030   30.6800   38.4370 C   0  0  0  0  0  0  0  0  0  0  0  0
   41.1030   30.9810   39.8470 C   0  0  0  0  0  0  0  0  0  0  0  0
   40.5860   29.8530   40.6920 C   0  0  0  0  0  0  0  0  0  0  0  0
   39.1090   30.0060   40.7790 C   0  0  2  0  0  0  0  0  0  0  0  0
   35.0100   29.1880   36.8200 H   0  0  0  0  0  0  0  0  0  0  0  0
   33.5020   28.7800   38.7840 H   0  0  0  0  0  0  0  0  0  0  0  0
   34.4310   29.0360   41.1130 H   0  0  0  0  0  0  0  0  0  0  0  0
   38.7960   31.6610   38.0870 H   0  0  0  0  0  0  0  0  0  0  0  0
   38.9720   30.0330   37.4270 H   0  0  0  0  0  0  0  0  0  0  0  0
   41.1230   29.7200   38.0980 H   0  0  0  0  0  0  0  0  0  0  0  0
   41.1060   31.4690   37.7580 H   0  0  0  0  0  0  0  0  0  0  0  0
   42.1780   31.1410   40.0030 H   0  0  0  0  0  0  0  0  0  0  0  0
   40.5580   31.8970   40.1900 H   0  0  0  0  0  0  0  0  0  0  0  0
   40.9070   28.9130   40.2210 H   0  0  0  0  0  0  0  0  0  0  0  0
   41.0030   29.8580   41.7240 H   0  0  0  0  0  0  0  0  0  0  0  0
   38.8930   30.9760   41.3040 H   0  0  0  0  0  0  0  0  0  0  0  0
   38.9790   27.2100   40.1260 F   0  0  0  0  0  0  0  0  0  0  0  0
   38.4230   27.6050   41.3010 C   0  0  0  0  0  0  0  0  0  0  0  0
   38.4810   28.9670   41.6320 C   0  0  0  0  0  0  0  0  0  0  0  0
   37.8990   29.3130   42.8420 C   0  0  0  0  0  0  0  0  0  0  0  0
   37.2980   28.4020   43.6790 C   0  0  0  0  0  0  0  0  0  0  0  0
   37.2510   27.0770   43.3370 C   0  0  0  0  0  0  0  0  0  0  0  0
   37.8190   26.6890   42.1420 C   0  0  0  0  0  0  0  0  0  0  0  0
   37.9370   30.3460   43.1070 H   0  0  0  0  0  0  0  0  0  0  0  0
   36.8420   28.6640   44.6240 H   0  0  0  0  0  0  0  0  0  0  0  0
   36.7930   26.2950   43.9480 H   0  0  0  0  0  0  0  0  0  0  0  0
   37.8050   25.2920   41.7140 C   0  0  0  0  0  0  0  0  0  0  0  0
   38.7050   24.3130   42.0870 C   0  0  0  0  0  0  0  0  0  0  0  0
   39.5550   24.4360   42.7500 H   0  0  0  0  0  0  0  0  0  0  0  0
   38.3960   23.1380   41.5070 N   0  0  0  0  0  0  0  0  0  0  0  0
   38.8260   22.1890   41.5410 H   0  0  0  0  0  0  0  0  0  0  0  0
   37.2870   23.3540   40.7540 C   0  0  0  0  0  0  0  0  0  0  0  0
   36.7290   22.6610   40.1350 H   0  0  0  0  0  0  0  0  0  0  0  0
   36.9410   24.6620   40.8890 N   0  0  0  0  0  0  0  0  0  0  0  0
  1  6  2  0  0  0  0
  1  2  1  0  0  0  0
  2  3  2  0  0  0  0
  3  4  1  0  0  0  0
  3 15  1  0  0  0  0
  5  7  1  0  0  0  0
  5  4  2  0  0  0  0
  6  5  1  0  0  0  0
  7 12  1  0  0  0  0
  8  9  1  0  0  0  0
  8  7  1  0  0  0  0
  9 10  1  0  0  0  0
 10 20  1  0  0  0  0
 10 21  1  0  0  0  0
 10 11  1  0  0  0  0
 11 12  1  0  0  0  0
 11 23  1  0  0  0  0
 12 24  1  1  0  0  0
 12 27  1  0  0  0  0
 13  1  1  0  0  0  0
 14  2  1  0  0  0  0
 16  8  1  0  0  0  0
 17  8  1  0  0  0  0
 18  9  1  0  0  0  0
 19  9  1  0  0  0  0
 22 11  1  0  0  0  0
 25 26  1  0  0  0  0
 26 27  2  0  0  0  0
 26 31  1  0  0  0  0
 27 28  1  0  0  0  0
 28 32  1  0  0  0  0
 28 29  2  0  0  0  0
 29 33  1  0  0  0  0
 30 29  1  0  0  0  0
 30 34  1  0  0  0  0
 31 30  2  0  0  0  0
 35 36  2  0  0  0  0
 35 31  1  0  0  0  0
 36 37  1  0  0  0  0
 38 39  1  0  0  0  0
 38 36  1  0  0  0  0
 40 42  2  0  0  0  0
 40 38  1  0  0  0  0
 41 40  1  0  0  0  0
 42 35  1  0  0  0  0
M  END
>  <minimizedAffinity>
-5.92761326

$$$$

 OpenBabel03242517243D

 42 45  0  0  1  0  0  0  0  0999 V2000
   37.9320   27.6500   37.5260 C   0  0  0  0  0  0  0  0  0  0  0  0
   37.1370   26.8080   38.3300 C   0  0  0  0  0  0  0  0  0  0  0  0
   36.8550   27.2000   39.6530 C   0  0  0  0  0  0  0  0  0  0  0  0
   37.3730   28.3760   40.0780 N   0  0  0  0  0  0  0  0  0  0  0  0
   38.1370   29.1690   39.2820 C   0  0  0  0  0  0  0  0  0  0  0  0
   38.4200   28.8080   38.0010 N   0  0  0  0  0  0  0  0  0  0  0  0
   38.6380   30.3930   39.8230 N   0  0  0  0  0  0  0  0  0  0  0  0
   39.1870   31.3490   38.8670 C   0  0  0  0  0  0  0  0  0  0  0  0
   40.0220   32.4190   39.4450 C   0  0  0  0  0  0  0  0  0  0  0  0
   39.5090   32.8130   40.7930 C   0  0  0  0  0  0  0  0  0  0  0  0
   39.6320   31.6030   41.6720 C   0  0  0  0  0  0  0  0  0  0  0  0
   38.5860   30.6350   41.2430 C   0  0  2  0  0  0  0  0  0  0  0  0
   38.1830   27.4000   36.4980 H   0  0  0  0  0  0  0  0  0  0  0  0
   36.7650   25.8890   37.9140 H   0  0  0  0  0  0  0  0  0  0  0  0
   36.2460   26.5680   40.2860 H   0  0  0  0  0  0  0  0  0  0  0  0
   38.3170   31.7440   38.2790 H   0  0  0  0  0  0  0  0  0  0  0  0
   39.7990   30.7970   38.1190 H   0  0  0  0  0  0  0  0  0  0  0  0
   41.0710   32.0850   39.4970 H   0  0  0  0  0  0  0  0  0  0  0  0
   39.9960   33.3020   38.7620 H   0  0  0  0  0  0  0  0  0  0  0  0
   39.9980   33.6880   41.2420 H   0  0  0  0  0  0  0  0  0  0  0  0
   38.4120   33.0260   40.7140 H   0  0  0  0  0  0  0  0  0  0  0  0
   40.6570   31.2200   41.5670 H   0  0  0  0  0  0  0  0  0  0  0  0
   39.4790   31.8320   42.7500 H   0  0  0  0  0  0  0  0  0  0  0  0
   37.5830   31.1100   41.4230 H   0  0  0  0  0  0  0  0  0  0  0  0
   40.8200   28.8540   41.5550 F   0  0  0  0  0  0  0  0  0  0  0  0
   39.6740   28.5440   42.2150 C   0  0  0  0  0  0  0  0  0  0  0  0
   38.5760   29.4060   42.0730 C   0  0  0  0  0  0  0  0  0  0  0  0
   37.4350   29.0400   42.7690 C   0  0  0  0  0  0  0  0  0  0  0  0
   37.3570   27.9120   43.5540 C   0  0  0  0  0  0  0  0  0  0  0  0
   38.4400   27.0830   43.6790 C   0  0  0  0  0  0  0  0  0  0  0  0
   39.5960   27.4100   43.0030 C   0  0  0  0  0  0  0  0  0  0  0  0
   36.5920   29.6880   42.6700 H   0  0  0  0  0  0  0  0  0  0  0  0
   36.4700   27.6210   44.1000 H   0  0  0  0  0  0  0  0  0  0  0  0
   38.4550   26.1720   44.2820 H   0  0  0  0  0  0  0  0  0  0  0  0
   40.7890   26.5710   43.0930 C   0  0  0  0  0  0  0  0  0  0  0  0
   40.9050   25.2640   42.6620 C   0  0  0  0  0  0  0  0  0  0  0  0
   40.1280   24.6660   42.1960 H   0  0  0  0  0  0  0  0  0  0  0  0
   42.1440   24.7940   42.8990 N   0  0  0  0  0  0  0  0  0  0  0  0
   42.6060   23.8770   42.7220 H   0  0  0  0  0  0  0  0  0  0  0  0
   42.8380   25.8030   43.4850 C   0  0  0  0  0  0  0  0  0  0  0  0
   43.8660   25.8230   43.8280 H   0  0  0  0  0  0  0  0  0  0  0  0
   42.0060   26.8710   43.5960 N   0  0  0  0  0  0  0  0  0  0  0  0
  1  6  2  0  0  0  0
  1  2  1  0  0  0  0
  2  3  2  0  0  0  0
  3  4  1  0  0  0  0
  3 15  1  0  0  0  0
  5  7  1  0  0  0  0
  5  4  2  0  0  0  0
  6  5  1  0  0  0  0
  7 12  1  0  0  0  0
  8  9  1  0  0  0  0
  8  7  1  0  0  0  0
  9 18  1  0  0  0  0
  9 10  1  0  0  0  0
 10 20  1  0  0  0  0
 10 11  1  0  0  0  0
 11 23  1  0  0  0  0
 12 24  1  1  0  0  0
 12 11  1  0  0  0  0
 12 27  1  0  0  0  0
 13  1  1  0  0  0  0
 14  2  1  0  0  0  0
 16  8  1  0  0  0  0
 17  8  1  0  0  0  0
 19  9  1  0  0  0  0
 21 10  1  0  0  0  0
 22 11  1  0  0  0  0
 25 26  1  0  0  0  0
 26 31  1  0  0  0  0
 27 26  2  0  0  0  0
 27 28  1  0  0  0  0
 28 29  2  0  0  0  0
 29 30  1  0  0  0  0
 29 33  1  0  0  0  0
 30 34  1  0  0  0  0
 31 35  1  0  0  0  0
 31 30  2  0  0  0  0
 32 28  1  0  0  0  0
 35 42  1  0  0  0  0
 36 38  1  0  0  0  0
 36 35  2  0  0  0  0
 37 36  1  0  0  0  0
 38 40  1  0  0  0  0
 39 38  1  0  0  0  0
 40 42  2  0  0  0  0
 40 41  1  0  0  0  0
M  END
>  <minimizedAffinity>
-5.79109669

$$$$

 OpenBabel03242517243D

 42 45  0  0  1  0  0  0  0  0999 V2000
   37.4160   30.2440   38.0000 C   0  0  0  0  0  0  0  0  0  0  0  0
   36.1830   30.0340   38.6480 C   0  0  0  0  0  0  0  0  0  0  0  0
   36.1730   29.8390   40.0430 C   0  0  0  0  0  0  0  0  0  0  0  0
   37.3640   29.8650   40.6840 N   0  0  0  0  0  0  0  0  0  0  0  0
   38.5400   30.0700   40.0340 C   0  0  0  0  0  0  0  0  0  0  0  0
   38.5700   30.2600   38.6860 N   0  0  0  0  0  0  0  0  0  0  0  0
   39.7470   30.0800   40.8000 N   0  0  0  0  0  0  0  0  0  0  0  0
   40.9360   30.5980   40.1310 C   0  0  0  0  0  0  0  0  0  0  0  0
   42.2220   30.2680   40.7730 C   0  0  0  0  0  0  0  0  0  0  0  0
   42.0700   30.2330   42.2610 C   0  0  0  0  0  0  0  0  0  0  0  0
   41.1000   29.1290   42.5690 C   0  0  0  0  0  0  0  0  0  0  0  0
   39.7490   29.5970   42.1580 C   0  0  2  0  0  0  0  0  0  0  0  0
   37.4860   30.4000   36.9260 H   0  0  0  0  0  0  0  0  0  0  0  0
   35.2800   30.0280   38.0640 H   0  0  0  0  0  0  0  0  0  0  0  0
   35.2360   29.6770   40.5600 H   0  0  0  0  0  0  0  0  0  0  0  0
   40.7770   31.7020   40.0120 H   0  0  0  0  0  0  0  0  0  0  0  0
   40.9590   30.2090   39.0890 H   0  0  0  0  0  0  0  0  0  0  0  0
   42.5960   29.3070   40.3860 H   0  0  0  0  0  0  0  0  0  0  0  0
   42.9720   31.0450   40.4930 H   0  0  0  0  0  0  0  0  0  0  0  0
   43.0050   30.1160   42.8240 H   0  0  0  0  0  0  0  0  0  0  0  0
   41.5740   31.1800   42.5960 H   0  0  0  0  0  0  0  0  0  0  0  0
   41.4400   28.2310   42.0320 H   0  0  0  0  0  0  0  0  0  0  0  0
   41.0690   28.8680   43.6510 H   0  0  0  0  0  0  0  0  0  0  0  0
   39.4880   30.4920   42.7870 H   0  0  0  0  0  0  0  0  0  0  0  0
   39.5810   26.9830   40.9770 F   0  0  0  0  0  0  0  0  0  0  0  0
   38.6180   27.3300   41.8700 C   0  0  0  0  0  0  0  0  0  0  0  0
   38.6900   28.6030   42.4550 C   0  0  0  0  0  0  0  0  0  0  0  0
   37.6830   28.9030   43.3590 C   0  0  0  0  0  0  0  0  0  0  0  0
   36.6690   28.0290   43.6790 C   0  0  0  0  0  0  0  0  0  0  0  0
   36.6170   26.7910   43.0960 C   0  0  0  0  0  0  0  0  0  0  0  0
   37.5990   26.4520   42.1910 C   0  0  0  0  0  0  0  0  0  0  0  0
   37.7260   29.8680   43.8130 H   0  0  0  0  0  0  0  0  0  0  0  0
   35.8800   28.2550   44.3830 H   0  0  0  0  0  0  0  0  0  0  0  0
   35.8460   26.0440   43.2980 H   0  0  0  0  0  0  0  0  0  0  0  0
   37.6050   25.1470   41.5310 C   0  0  0  0  0  0  0  0  0  0  0  0
   38.3150   24.0320   41.9300 C   0  0  0  0  0  0  0  0  0  0  0  0
   38.9730   23.9580   42.7890 H   0  0  0  0  0  0  0  0  0  0  0  0
   38.0880   23.0010   41.0940 N   0  0  0  0  0  0  0  0  0  0  0  0
   38.4330   22.0180   41.0610 H   0  0  0  0  0  0  0  0  0  0  0  0
   37.2240   23.4500   40.1470 C   0  0  0  0  0  0  0  0  0  0  0  0
   36.8000   22.9250   39.2990 H   0  0  0  0  0  0  0  0  0  0  0  0
   36.9410   24.7500   40.4250 N   0  0  0  0  0  0  0  0  0  0  0  0
  1  2  2  0  0  0  0
  1  6  1  0  0  0  0
  2  3  1  0  0  0  0
  3 15  1  0  0  0  0
  3  4  2  0  0  0  0
  5  4  1  0  0  0  0
  5  7  1  0  0  0  0
  6  5  2  0  0  0  0
  7 12  1  0  0  0  0
  8  9  1  0  0  0  0
  8  7  1  0  0  0  0
  9 10  1  0  0  0  0
 10 11  1  0  0  0  0
 10 21  1  0  0  0  0
 10 20  1  0  0  0  0
 11 23  1  0  0  0  0
 12 27  1  0  0  0  0
 12 11  1  0  0  0  0
 12 24  1  1  0  0  0
 13  1  1  0  0  0  0
 14  2  1  0  0  0  0
 16  8  1  0  0  0  0
 17  8  1  0  0  0  0
 18  9  1  0  0  0  0
 19  9  1  0  0  0  0
 22 11  1  0  0  0  0
 25 26  1  0  0  0  0
 26 31  2  0  0  0  0
 26 27  1  0  0  0  0
 27 28  2  0  0  0  0
 28 29  1  0  0  0  0
 28 32  1  0  0  0  0
 29 33  1  0  0  0  0
 30 34  1  0  0  0  0
 30 29  2  0  0  0  0
 31 30  1  0  0  0  0
 35 36  2  0  0  0  0
 35 31  1  0  0  0  0
 36 37  1  0  0  0  0
 38 36  1  0  0  0  0
 39 38  1  0  0  0  0
 40 42  2  0  0  0  0
 40 38  1  0  0  0  0
 41 40  1  0  0  0  0
 42 35  1  0  0  0  0
M  END
>  <minimizedAffinity>
-5.78098154

$$$$
