
 OpenBabel03252509233D

 26 28  0  0  1  0  0  0  0  0999 V2000
   46.5140   34.7550   41.9940 C   0  0  1  0  0  0  0  0  0  0  0  0
   47.9770   35.2700   41.9850 C   0  0  0  0  0  0  0  0  0  0  0  0
   47.5190   33.8200   41.6410 C   0  0  2  0  0  0  0  0  0  0  0  0
   45.8530   35.2890   41.2930 H   0  0  0  0  0  0  0  0  0  0  0  0
   48.1880   35.9230   41.1430 H   0  0  0  0  0  0  0  0  0  0  0  0
   48.5030   35.4130   42.9250 H   0  0  0  0  0  0  0  0  0  0  0  0
   47.8950   33.0700   42.3660 H   0  0  0  0  0  0  0  0  0  0  0  0
   44.5350   35.6010   45.0550 C   0  0  0  0  0  0  0  0  0  0  0  0
   45.0480   35.7080   43.7370 C   0  0  0  0  0  0  0  0  0  0  0  0
   45.9740   34.7510   43.4140 C   0  0  0  0  0  0  0  0  0  0  0  0
   46.3700   33.7680   44.3020 N   0  0  0  0  0  0  0  0  0  0  0  0
   45.8490   33.7170   45.5360 C   0  0  0  0  0  0  0  0  0  0  0  0
   44.9290   34.6300   45.9240 N   0  0  0  0  0  0  0  0  0  0  0  0
   43.8070   36.3090   45.3890 H   0  0  0  0  0  0  0  0  0  0  0  0
   46.1330   32.9650   46.2570 H   0  0  0  0  0  0  0  0  0  0  0  0
   44.6460   36.7330   42.8500 N   0  0  0  0  0  0  0  0  0  0  0  0
   44.2390   36.7060   41.9030 H   0  0  0  0  0  0  0  0  0  0  0  0
   44.8430   37.6290   43.3490 H   0  0  0  0  0  0  0  0  0  0  0  0
   47.6420   33.4520   40.1850 C   0  0  0  0  0  0  0  0  0  0  0  0
   48.7210   32.9260   39.4960 C   0  0  0  0  0  0  0  0  0  0  0  0
   49.6740   32.6970   39.9480 H   0  0  0  0  0  0  0  0  0  0  0  0
   48.3270   32.7750   38.2090 N   0  0  0  0  0  0  0  0  0  0  0  0
   48.9190   32.3990   37.4400 H   0  0  0  0  0  0  0  0  0  0  0  0
   47.0340   33.1900   38.0630 C   0  0  0  0  0  0  0  0  0  0  0  0
   46.4300   33.1990   37.1620 H   0  0  0  0  0  0  0  0  0  0  0  0
   46.6480   33.5980   39.2900 N   0  0  0  0  0  0  0  0  0  0  0  0
  1  4  1  6  0  0  0
  1 10  1  0  0  0  0
  2  1  1  0  0  0  0
  2  6  1  0  0  0  0
  3  2  1  0  0  0  0
  3  1  1  0  0  0  0
  3  7  1  1  0  0  0
  5  2  1  0  0  0  0
  8 14  1  0  0  0  0
  8 13  1  0  0  0  0
  9  8  2  0  0  0  0
 10  9  1  0  0  0  0
 10 11  2  0  0  0  0
 11 12  1  0  0  0  0
 12 13  2  0  0  0  0
 12 15  1  0  0  0  0
 16 18  1  0  0  0  0
 16  9  1  0  0  0  0
 17 16  1  0  0  0  0
 19  3  1  0  0  0  0
 20 21  1  0  0  0  0
 20 19  2  0  0  0  0
 22 20  1  0  0  0  0
 23 22  1  0  0  0  0
 24 22  1  0  0  0  0
 24 26  2  0  0  0  0
 25 24  1  0  0  0  0
 26 19  1  0  0  0  0
M  END
>  <minimizedAffinity>
-4.53077459

>  <minimizedRMSD>
0.459201187

$$$$
