
 OpenBabel03252504503D

 23 24  0  0  0  0  0  0  0  0999 V2000
   37.2060   26.6320   40.6780 C   0  0  0  0  0  0  0  0  0  0  0  0
   37.0840   26.1540   41.9790 C   0  0  0  0  0  0  0  0  0  0  0  0
   37.0250   27.0890   43.0120 C   0  0  0  0  0  0  0  0  0  0  0  0
   37.0880   28.4140   42.6900 N   0  0  0  0  0  0  0  0  0  0  0  0
   37.2050   28.8480   41.4140 C   0  0  0  0  0  0  0  0  0  0  0  0
   37.2650   27.9520   40.4030 N   0  0  0  0  0  0  0  0  0  0  0  0
   37.2570   25.9450   39.8310 H   0  0  0  0  0  0  0  0  0  0  0  0
   36.9320   26.7520   44.0310 H   0  0  0  0  0  0  0  0  0  0  0  0
   37.2720   30.2610   41.0740 C   0  0  0  0  0  0  0  0  0  0  0  0
   36.2870   31.1800   40.7650 C   0  0  0  0  0  0  0  0  0  0  0  0
   35.2380   30.8770   40.7500 H   0  0  0  0  0  0  0  0  0  0  0  0
   36.8610   32.3590   40.5260 N   0  0  0  0  0  0  0  0  0  0  0  0
   36.3140   33.2280   40.2670 H   0  0  0  0  0  0  0  0  0  0  0  0
   38.1950   32.2420   40.6680 C   0  0  0  0  0  0  0  0  0  0  0  0
   38.8960   33.0560   40.5290 H   0  0  0  0  0  0  0  0  0  0  0  0
   38.4190   30.9500   41.0030 N   0  0  0  0  0  0  0  0  0  0  0  0
   37.0210   24.7300   42.1900 C   0  0  0  0  0  0  0  0  0  0  0  0
   38.0700   24.3690   42.3910 H   0  0  0  0  0  0  0  0  0  0  0  0
   36.3830   24.4730   43.0440 H   0  0  0  0  0  0  0  0  0  0  0  0
   36.5540   24.0610   40.9130 C   0  0  0  0  0  0  0  0  0  0  0  0
   37.3350   23.3730   40.5060 H   0  0  0  0  0  0  0  0  0  0  0  0
   35.6970   23.3850   41.1780 H   0  0  0  0  0  0  0  0  0  0  0  0
   36.1740   24.7840   40.1710 H   0  0  0  0  0  0  0  0  0  0  0  0
  1  2  1  0  0  0  0
  2 17  1  0  0  0  0
  2  3  2  0  0  0  0
  3  8  1  0  0  0  0
  4  3  1  0  0  0  0
  5  4  2  0  0  0  0
  6  1  2  0  0  0  0
  6  5  1  0  0  0  0
  7  1  1  0  0  0  0
  9  5  1  0  0  0  0
 10  9  2  0  0  0  0
 11 10  1  0  0  0  0
 12 14  1  0  0  0  0
 12 10  1  0  0  0  0
 13 12  1  0  0  0  0
 14 16  2  0  0  0  0
 15 14  1  0  0  0  0
 16  9  1  0  0  0  0
 17 18  1  0  0  0  0
 17 19  1  0  0  0  0
 20 22  1  0  0  0  0
 20 17  1  0  0  0  0
 21 20  1  0  0  0  0
 23 20  1  0  0  0  0
M  END
>  <minimizedAffinity>
-4.37687016

$$$$

 OpenBabel03252504503D

 23 24  0  0  0  0  0  0  0  0999 V2000
   38.0100   29.0590   42.6440 C   0  0  0  0  0  0  0  0  0  0  0  0
   36.9330   28.2520   42.2920 C   0  0  0  0  0  0  0  0  0  0  0  0
   36.0680   28.7170   41.3020 C   0  0  0  0  0  0  0  0  0  0  0  0
   36.3270   29.9320   40.7360 N   0  0  0  0  0  0  0  0  0  0  0  0
   37.3840   30.6940   41.0990 C   0  0  0  0  0  0  0  0  0  0  0  0
   38.2300   30.2540   42.0580 N   0  0  0  0  0  0  0  0  0  0  0  0
   38.7180   28.7430   43.4130 H   0  0  0  0  0  0  0  0  0  0  0  0
   35.2240   28.1180   41.0060 H   0  0  0  0  0  0  0  0  0  0  0  0
   37.6580   31.9880   40.4940 C   0  0  0  0  0  0  0  0  0  0  0  0
   37.1010   32.6290   39.4030 C   0  0  0  0  0  0  0  0  0  0  0  0
   36.3040   32.1500   38.8310 H   0  0  0  0  0  0  0  0  0  0  0  0
   37.7000   33.8110   39.2500 N   0  0  0  0  0  0  0  0  0  0  0  0
   37.4480   34.4930   38.4790 H   0  0  0  0  0  0  0  0  0  0  0  0
   38.6330   33.9650   40.2090 C   0  0  0  0  0  0  0  0  0  0  0  0
   39.2640   34.8400   40.3090 H   0  0  0  0  0  0  0  0  0  0  0  0
   38.5870   32.8370   40.9540 N   0  0  0  0  0  0  0  0  0  0  0  0
   36.7700   26.9850   42.9590 C   0  0  0  0  0  0  0  0  0  0  0  0
   37.4700   26.9730   43.8430 H   0  0  0  0  0  0  0  0  0  0  0  0
   35.7420   26.8400   43.3120 H   0  0  0  0  0  0  0  0  0  0  0  0
   37.2090   25.8750   42.0250 C   0  0  0  0  0  0  0  0  0  0  0  0
   38.0820   25.3150   42.4420 H   0  0  0  0  0  0  0  0  0  0  0  0
   36.3820   25.1150   41.9890 H   0  0  0  0  0  0  0  0  0  0  0  0
   37.3640   26.2280   40.9920 H   0  0  0  0  0  0  0  0  0  0  0  0
  1  7  1  0  0  0  0
  2  1  1  0  0  0  0
  2 17  1  0  0  0  0
  3  2  2  0  0  0  0
  4  5  2  0  0  0  0
  4  3  1  0  0  0  0
  5  6  1  0  0  0  0
  6  1  2  0  0  0  0
  8  3  1  0  0  0  0
  9 16  1  0  0  0  0
  9  5  1  0  0  0  0
 10  9  2  0  0  0  0
 11 10  1  0  0  0  0
 12 10  1  0  0  0  0
 12 14  1  0  0  0  0
 13 12  1  0  0  0  0
 14 15  1  0  0  0  0
 14 16  2  0  0  0  0
 17 19  1  0  0  0  0
 17 18  1  0  0  0  0
 20 21  1  0  0  0  0
 20 17  1  0  0  0  0
 22 20  1  0  0  0  0
 23 20  1  0  0  0  0
M  END
>  <minimizedAffinity>
-4.33456278

$$$$

 OpenBabel03252504503D

 23 24  0  0  0  0  0  0  0  0999 V2000
   39.1960   26.9100   41.6650 C   0  0  0  0  0  0  0  0  0  0  0  0
   38.2350   26.0700   42.2190 C   0  0  0  0  0  0  0  0  0  0  0  0
   36.9580   26.5920   42.4280 C   0  0  0  0  0  0  0  0  0  0  0  0
   36.7260   27.8910   42.0790 N   0  0  0  0  0  0  0  0  0  0  0  0
   37.6810   28.6820   41.5420 C   0  0  0  0  0  0  0  0  0  0  0  0
   38.9230   28.1890   41.3340 N   0  0  0  0  0  0  0  0  0  0  0  0
   40.2110   26.5540   41.4800 H   0  0  0  0  0  0  0  0  0  0  0  0
   36.1910   25.9680   42.8550 H   0  0  0  0  0  0  0  0  0  0  0  0
   37.4300   30.0670   41.1710 C   0  0  0  0  0  0  0  0  0  0  0  0
   36.2550   30.7780   41.0160 C   0  0  0  0  0  0  0  0  0  0  0  0
   35.2910   30.2920   41.1820 H   0  0  0  0  0  0  0  0  0  0  0  0
   36.5550   32.0290   40.6630 N   0  0  0  0  0  0  0  0  0  0  0  0
   35.8220   32.7720   40.4850 H   0  0  0  0  0  0  0  0  0  0  0  0
   37.8930   32.1590   40.5820 C   0  0  0  0  0  0  0  0  0  0  0  0
   38.3990   33.0780   40.3120 H   0  0  0  0  0  0  0  0  0  0  0  0
   38.4020   30.9460   40.8960 N   0  0  0  0  0  0  0  0  0  0  0  0
   38.6020   24.7140   42.5390 C   0  0  0  0  0  0  0  0  0  0  0  0
   37.8240   24.3090   43.2470 H   0  0  0  0  0  0  0  0  0  0  0  0
   38.6390   24.0800   41.6450 H   0  0  0  0  0  0  0  0  0  0  0  0
   39.9230   24.7220   43.2820 C   0  0  0  0  0  0  0  0  0  0  0  0
   39.8090   24.3120   44.3160 H   0  0  0  0  0  0  0  0  0  0  0  0
   40.6060   23.9930   42.7670 H   0  0  0  0  0  0  0  0  0  0  0  0
   40.4200   25.7060   43.2490 H   0  0  0  0  0  0  0  0  0  0  0  0
  1  2  1  0  0  0  0
  2  3  2  0  0  0  0
  2 17  1  0  0  0  0
  3  8  1  0  0  0  0
  4  3  1  0  0  0  0
  5  4  2  0  0  0  0
  6  5  1  0  0  0  0
  6  1  2  0  0  0  0
  7  1  1  0  0  0  0
  9  5  1  0  0  0  0
 10  9  2  0  0  0  0
 10 11  1  0  0  0  0
 12 10  1  0  0  0  0
 13 12  1  0  0  0  0
 14 12  1  0  0  0  0
 14 16  2  0  0  0  0
 15 14  1  0  0  0  0
 16  9  1  0  0  0  0
 17 18  1  0  0  0  0
 17 20  1  0  0  0  0
 19 17  1  0  0  0  0
 20 21  1  0  0  0  0
 22 20  1  0  0  0  0
 23 20  1  0  0  0  0
M  END
>  <minimizedAffinity>
-4.03085423

$$$$

 OpenBabel03252504503D

 23 24  0  0  0  0  0  0  0  0999 V2000
   38.0320   28.7660   41.0750 C   0  0  0  0  0  0  0  0  0  0  0  0
   38.3840   29.2060   42.3470 C   0  0  0  0  0  0  0  0  0  0  0  0
   39.1510   30.3670   42.4450 C   0  0  0  0  0  0  0  0  0  0  0  0
   39.5110   31.0020   41.2920 N   0  0  0  0  0  0  0  0  0  0  0  0
   39.1530   30.5500   40.0690 C   0  0  0  0  0  0  0  0  0  0  0  0
   38.4100   29.4260   39.9600 N   0  0  0  0  0  0  0  0  0  0  0  0
   37.4330   27.8630   40.9400 H   0  0  0  0  0  0  0  0  0  0  0  0
   39.4410   30.7330   43.4150 H   0  0  0  0  0  0  0  0  0  0  0  0
   39.5390   31.2310   38.8410 C   0  0  0  0  0  0  0  0  0  0  0  0
   38.7990   31.6480   37.7510 C   0  0  0  0  0  0  0  0  0  0  0  0
   37.7210   31.4770   37.7200 H   0  0  0  0  0  0  0  0  0  0  0  0
   39.6190   32.2290   36.8740 N   0  0  0  0  0  0  0  0  0  0  0  0
   39.2900   32.6330   35.9530 H   0  0  0  0  0  0  0  0  0  0  0  0
   40.8760   32.2050   37.3580 C   0  0  0  0  0  0  0  0  0  0  0  0
   41.7350   32.6130   36.8390 H   0  0  0  0  0  0  0  0  0  0  0  0
   40.7980   31.5900   38.5600 N   0  0  0  0  0  0  0  0  0  0  0  0
   37.9360   28.4500   43.4890 C   0  0  0  0  0  0  0  0  0  0  0  0
   38.7490   27.7120   43.7480 H   0  0  0  0  0  0  0  0  0  0  0  0
   37.7470   29.0950   44.3550 H   0  0  0  0  0  0  0  0  0  0  0  0
   36.7100   27.6470   43.1020 C   0  0  0  0  0  0  0  0  0  0  0  0
   36.8990   26.5500   43.1890 H   0  0  0  0  0  0  0  0  0  0  0  0
   35.9140   27.8550   43.8660 H   0  0  0  0  0  0  0  0  0  0  0  0
   36.3000   27.9490   42.1230 H   0  0  0  0  0  0  0  0  0  0  0  0
  1  2  1  0  0  0  0
  2  3  2  0  0  0  0
  2 17  1  0  0  0  0
  3  8  1  0  0  0  0
  4  3  1  0  0  0  0
  5  4  2  0  0  0  0
  6  5  1  0  0  0  0
  6  1  2  0  0  0  0
  7  1  1  0  0  0  0
  9  5  1  0  0  0  0
 10  9  2  0  0  0  0
 11 10  1  0  0  0  0
 12 14  1  0  0  0  0
 12 10  1  0  0  0  0
 13 12  1  0  0  0  0
 14 16  2  0  0  0  0
 15 14  1  0  0  0  0
 16  9  1  0  0  0  0
 17 18  1  0  0  0  0
 17 19  1  0  0  0  0
 20 21  1  0  0  0  0
 20 17  1  0  0  0  0
 20 22  1  0  0  0  0
 23 20  1  0  0  0  0
M  END
>  <minimizedAffinity>
-4.01022148

$$$$

 OpenBabel03252504503D

 23 24  0  0  0  0  0  0  0  0999 V2000
   36.4540   28.4010   40.4510 C   0  0  0  0  0  0  0  0  0  0  0  0
   36.6870   29.5640   41.1780 C   0  0  0  0  0  0  0  0  0  0  0  0
   37.4920   29.4700   42.3140 C   0  0  0  0  0  0  0  0  0  0  0  0
   38.0030   28.2490   42.6440 N   0  0  0  0  0  0  0  0  0  0  0  0
   37.7600   27.1360   41.9160 C   0  0  0  0  0  0  0  0  0  0  0  0
   36.9810   27.2130   40.8130 N   0  0  0  0  0  0  0  0  0  0  0  0
   35.8320   28.4170   39.5540 H   0  0  0  0  0  0  0  0  0  0  0  0
   37.6910   30.3510   42.9000 H   0  0  0  0  0  0  0  0  0  0  0  0
   38.3070   25.8350   42.2710 C   0  0  0  0  0  0  0  0  0  0  0  0
   37.8470   24.5520   42.0450 C   0  0  0  0  0  0  0  0  0  0  0  0
   36.9090   24.3900   41.5090 H   0  0  0  0  0  0  0  0  0  0  0  0
   38.7160   23.6870   42.5700 N   0  0  0  0  0  0  0  0  0  0  0  0
   38.5850   22.6370   42.5270 H   0  0  0  0  0  0  0  0  0  0  0  0
   39.7330   24.3660   43.1350 C   0  0  0  0  0  0  0  0  0  0  0  0
   40.5730   23.8980   43.6330 H   0  0  0  0  0  0  0  0  0  0  0  0
   39.4580   25.6750   42.9380 N   0  0  0  0  0  0  0  0  0  0  0  0
   36.0940   30.7960   40.7230 C   0  0  0  0  0  0  0  0  0  0  0  0
   35.0380   30.5670   40.4000 H   0  0  0  0  0  0  0  0  0  0  0  0
   36.0720   31.5540   41.5150 H   0  0  0  0  0  0  0  0  0  0  0  0
   36.8410   31.2800   39.4960 C   0  0  0  0  0  0  0  0  0  0  0  0
   36.1740   31.3130   38.6010 H   0  0  0  0  0  0  0  0  0  0  0  0
   37.1250   32.3530   39.6730 H   0  0  0  0  0  0  0  0  0  0  0  0
   37.7800   30.7250   39.3270 H   0  0  0  0  0  0  0  0  0  0  0  0
  1  6  2  0  0  0  0
  1  2  1  0  0  0  0
  2  3  2  0  0  0  0
  3  4  1  0  0  0  0
  3  8  1  0  0  0  0
  5  9  1  0  0  0  0
  5  4  2  0  0  0  0
  6  5  1  0  0  0  0
  7  1  1  0  0  0  0
  9 16  1  0  0  0  0
 10  9  2  0  0  0  0
 10 12  1  0  0  0  0
 11 10  1  0  0  0  0
 12 14  1  0  0  0  0
 13 12  1  0  0  0  0
 14 15  1  0  0  0  0
 16 14  2  0  0  0  0
 17  2  1  0  0  0  0
 17 19  1  0  0  0  0
 18 17  1  0  0  0  0
 20 22  1  0  0  0  0
 20 17  1  0  0  0  0
 21 20  1  0  0  0  0
 23 20  1  0  0  0  0
M  END
>  <minimizedAffinity>
-3.93450212

$$$$

 OpenBabel03252504503D

 23 24  0  0  0  0  0  0  0  0999 V2000
   37.6880   26.9850   41.0240 C   0  0  0  0  0  0  0  0  0  0  0  0
   37.2310   26.5170   42.2520 C   0  0  0  0  0  0  0  0  0  0  0  0
   37.2430   27.4010   43.3310 C   0  0  0  0  0  0  0  0  0  0  0  0
   37.7010   28.6700   43.1210 N   0  0  0  0  0  0  0  0  0  0  0  0
   38.1390   29.0960   41.9140 C   0  0  0  0  0  0  0  0  0  0  0  0
   38.1330   28.2480   40.8610 N   0  0  0  0  0  0  0  0  0  0  0  0
   37.7000   26.3350   40.1470 H   0  0  0  0  0  0  0  0  0  0  0  0
   36.8960   27.0710   44.2950 H   0  0  0  0  0  0  0  0  0  0  0  0
   38.6260   30.4490   41.6940 C   0  0  0  0  0  0  0  0  0  0  0  0
   39.7080   31.1320   42.2150 C   0  0  0  0  0  0  0  0  0  0  0  0
   40.3740   30.6450   42.9310 H   0  0  0  0  0  0  0  0  0  0  0  0
   39.7300   32.3600   41.6950 N   0  0  0  0  0  0  0  0  0  0  0  0
   40.4670   33.0800   41.9400 H   0  0  0  0  0  0  0  0  0  0  0  0
   38.6930   32.5030   40.8480 C   0  0  0  0  0  0  0  0  0  0  0  0
   38.4810   33.4090   40.2930 H   0  0  0  0  0  0  0  0  0  0  0  0
   38.0350   31.3210   40.8660 N   0  0  0  0  0  0  0  0  0  0  0  0
   36.7650   25.1560   42.3450 C   0  0  0  0  0  0  0  0  0  0  0  0
   37.4580   24.6070   43.0450 H   0  0  0  0  0  0  0  0  0  0  0  0
   35.7420   25.1010   42.7350 H   0  0  0  0  0  0  0  0  0  0  0  0
   36.8880   24.4970   40.9860 C   0  0  0  0  0  0  0  0  0  0  0  0
   37.5990   23.6360   41.0150 H   0  0  0  0  0  0  0  0  0  0  0  0
   35.8950   24.0320   40.7430 H   0  0  0  0  0  0  0  0  0  0  0  0
   37.1070   25.2220   40.1830 H   0  0  0  0  0  0  0  0  0  0  0  0
  1  2  1  0  0  0  0
  2 17  1  0  0  0  0
  2  3  2  0  0  0  0
  3  8  1  0  0  0  0
  4  3  1  0  0  0  0
  5  4  2  0  0  0  0
  6  1  2  0  0  0  0
  6  5  1  0  0  0  0
  7  1  1  0  0  0  0
  9  5  1  0  0  0  0
  9 10  2  0  0  0  0
 10 11  1  0  0  0  0
 12 13  1  0  0  0  0
 12 10  1  0  0  0  0
 14 16  2  0  0  0  0
 14 12  1  0  0  0  0
 15 14  1  0  0  0  0
 16  9  1  0  0  0  0
 17 19  1  0  0  0  0
 17 18  1  0  0  0  0
 20 21  1  0  0  0  0
 20 17  1  0  0  0  0
 22 20  1  0  0  0  0
 23 20  1  0  0  0  0
M  END
>  <minimizedAffinity>
-3.87730312

$$$$

 OpenBabel03252504503D

 23 24  0  0  0  0  0  0  0  0999 V2000
   39.8490   26.4690   41.3710 C   0  0  0  0  0  0  0  0  0  0  0  0
   40.2120   26.2630   42.6980 C   0  0  0  0  0  0  0  0  0  0  0  0
   39.5420   26.9960   43.6770 C   0  0  0  0  0  0  0  0  0  0  0  0
   38.5720   27.8700   43.2790 N   0  0  0  0  0  0  0  0  0  0  0  0
   38.2400   28.0470   41.9800 C   0  0  0  0  0  0  0  0  0  0  0  0
   38.8820   27.3430   41.0220 N   0  0  0  0  0  0  0  0  0  0  0  0
   40.3410   25.9220   40.5640 H   0  0  0  0  0  0  0  0  0  0  0  0
   39.8000   26.8610   44.7140 H   0  0  0  0  0  0  0  0  0  0  0  0
   37.2040   28.9790   41.5590 C   0  0  0  0  0  0  0  0  0  0  0  0
   35.9080   28.7760   41.1230 C   0  0  0  0  0  0  0  0  0  0  0  0
   35.5040   27.7640   41.0490 H   0  0  0  0  0  0  0  0  0  0  0  0
   35.3570   29.9610   40.8540 N   0  0  0  0  0  0  0  0  0  0  0  0
   34.3650   30.0720   40.5020 H   0  0  0  0  0  0  0  0  0  0  0  0
   36.2540   30.9350   41.1010 C   0  0  0  0  0  0  0  0  0  0  0  0
   36.0580   31.9910   40.9640 H   0  0  0  0  0  0  0  0  0  0  0  0
   37.3730   30.3070   41.5300 N   0  0  0  0  0  0  0  0  0  0  0  0
   41.2500   25.3070   42.9920 C   0  0  0  0  0  0  0  0  0  0  0  0
   41.8150   25.6840   43.8920 H   0  0  0  0  0  0  0  0  0  0  0  0
   40.8380   24.3150   43.2150 H   0  0  0  0  0  0  0  0  0  0  0  0
   42.2280   25.2670   41.8350 C   0  0  0  0  0  0  0  0  0  0  0  0
   43.2490   25.5900   42.1550 H   0  0  0  0  0  0  0  0  0  0  0  0
   42.3560   24.1920   41.5360 H   0  0  0  0  0  0  0  0  0  0  0  0
   41.8530   25.8040   40.9460 H   0  0  0  0  0  0  0  0  0  0  0  0
  1  2  1  0  0  0  0
  2 17  1  0  0  0  0
  2  3  2  0  0  0  0
  3  8  1  0  0  0  0
  4  3  1  0  0  0  0
  5  4  2  0  0  0  0
  6  1  2  0  0  0  0
  6  5  1  0  0  0  0
  7  1  1  0  0  0  0
  9  5  1  0  0  0  0
 10  9  2  0  0  0  0
 11 10  1  0  0  0  0
 12 14  1  0  0  0  0
 12 10  1  0  0  0  0
 13 12  1  0  0  0  0
 14 16  2  0  0  0  0
 15 14  1  0  0  0  0
 16  9  1  0  0  0  0
 17 19  1  0  0  0  0
 17 18  1  0  0  0  0
 20 21  1  0  0  0  0
 20 17  1  0  0  0  0
 22 20  1  0  0  0  0
 23 20  1  0  0  0  0
M  END
>  <minimizedAffinity>
-3.79252553

$$$$

 OpenBabel03252504503D

 23 24  0  0  0  0  0  0  0  0999 V2000
   40.6460   29.3330   42.4470 C   0  0  0  0  0  0  0  0  0  0  0  0
   39.8440   28.3420   43.0040 C   0  0  0  0  0  0  0  0  0  0  0  0
   38.4610   28.4890   42.8970 C   0  0  0  0  0  0  0  0  0  0  0  0
   37.9760   29.5910   42.2550 N   0  0  0  0  0  0  0  0  0  0  0  0
   38.7820   30.5380   41.7230 C   0  0  0  0  0  0  0  0  0  0  0  0
   40.1240   30.4080   41.8200 N   0  0  0  0  0  0  0  0  0  0  0  0
   41.7350   29.2690   42.5020 H   0  0  0  0  0  0  0  0  0  0  0  0
   37.8120   27.7400   43.3180 H   0  0  0  0  0  0  0  0  0  0  0  0
   38.2620   31.7120   41.0390 C   0  0  0  0  0  0  0  0  0  0  0  0
   37.0440   31.9580   40.4320 C   0  0  0  0  0  0  0  0  0  0  0  0
   36.2720   31.1860   40.4160 H   0  0  0  0  0  0  0  0  0  0  0  0
   37.0530   33.1990   39.9430 N   0  0  0  0  0  0  0  0  0  0  0  0
   36.2300   33.6240   39.4300 H   0  0  0  0  0  0  0  0  0  0  0  0
   38.2410   33.7740   40.2110 C   0  0  0  0  0  0  0  0  0  0  0  0
   38.5060   34.7830   39.9210 H   0  0  0  0  0  0  0  0  0  0  0  0
   38.9590   32.8440   40.8800 N   0  0  0  0  0  0  0  0  0  0  0  0
   40.4770   27.2210   43.6520 C   0  0  0  0  0  0  0  0  0  0  0  0
   41.2590   27.6310   44.3530 H   0  0  0  0  0  0  0  0  0  0  0  0
   39.7580   26.6230   44.2250 H   0  0  0  0  0  0  0  0  0  0  0  0
   41.2000   26.3920   42.6100 C   0  0  0  0  0  0  0  0  0  0  0  0
   42.3010   26.3700   42.8010 H   0  0  0  0  0  0  0  0  0  0  0  0
   40.8740   25.3250   42.7390 H   0  0  0  0  0  0  0  0  0  0  0  0
   40.9370   26.6840   41.5790 H   0  0  0  0  0  0  0  0  0  0  0  0
  1  7  1  0  0  0  0
  1  2  1  0  0  0  0
  2 17  1  0  0  0  0
  3  2  2  0  0  0  0
  3  8  1  0  0  0  0
  4  3  1  0  0  0  0
  5  6  1  0  0  0  0
  5  4  2  0  0  0  0
  6  1  2  0  0  0  0
  9  5  1  0  0  0  0
 10  9  2  0  0  0  0
 11 10  1  0  0  0  0
 12 14  1  0  0  0  0
 12 10  1  0  0  0  0
 13 12  1  0  0  0  0
 14 16  2  0  0  0  0
 15 14  1  0  0  0  0
 16  9  1  0  0  0  0
 17 19  1  0  0  0  0
 17 18  1  0  0  0  0
 20 22  1  0  0  0  0
 20 21  1  0  0  0  0
 20 17  1  0  0  0  0
 23 20  1  0  0  0  0
M  END
>  <minimizedAffinity>
-3.77751756

$$$$

 OpenBabel03252504503D

 23 24  0  0  0  0  0  0  0  0999 V2000
   37.4420   25.2460   42.0930 C   0  0  0  0  0  0  0  0  0  0  0  0
   37.9380   24.6340   40.9470 C   0  0  0  0  0  0  0  0  0  0  0  0
   37.9700   25.3840   39.7710 C   0  0  0  0  0  0  0  0  0  0  0  0
   37.5150   26.6700   39.8120 N   0  0  0  0  0  0  0  0  0  0  0  0
   37.0390   27.2380   40.9430 C   0  0  0  0  0  0  0  0  0  0  0  0
   37.0020   26.5220   42.0890 N   0  0  0  0  0  0  0  0  0  0  0  0
   37.3940   24.7060   43.0410 H   0  0  0  0  0  0  0  0  0  0  0  0
   38.3470   24.9390   38.8660 H   0  0  0  0  0  0  0  0  0  0  0  0
   36.5550   28.6100   40.9840 C   0  0  0  0  0  0  0  0  0  0  0  0
   35.3260   29.1600   40.6720 C   0  0  0  0  0  0  0  0  0  0  0  0
   34.5100   28.5230   40.3240 H   0  0  0  0  0  0  0  0  0  0  0  0
   35.3830   30.4770   40.8780 N   0  0  0  0  0  0  0  0  0  0  0  0
   34.5620   31.1250   40.7100 H   0  0  0  0  0  0  0  0  0  0  0  0
   36.6130   30.8060   41.3150 C   0  0  0  0  0  0  0  0  0  0  0  0
   36.9220   31.8160   41.5560 H   0  0  0  0  0  0  0  0  0  0  0  0
   37.3080   29.6480   41.3700 N   0  0  0  0  0  0  0  0  0  0  0  0
   38.3950   23.2700   41.0330 C   0  0  0  0  0  0  0  0  0  0  0  0
   39.4640   23.2460   40.6740 H   0  0  0  0  0  0  0  0  0  0  0  0
   38.3530   22.8910   42.0610 H   0  0  0  0  0  0  0  0  0  0  0  0
   37.5840   22.4150   40.0800 C   0  0  0  0  0  0  0  0  0  0  0  0
   38.2310   21.9630   39.2890 H   0  0  0  0  0  0  0  0  0  0  0  0
   37.1960   21.5350   40.6600 H   0  0  0  0  0  0  0  0  0  0  0  0
   36.7040   22.9470   39.6790 H   0  0  0  0  0  0  0  0  0  0  0  0
  1  7  1  0  0  0  0
  2 17  1  0  0  0  0
  2  1  2  0  0  0  0
  3  4  2  0  0  0  0
  3  2  1  0  0  0  0
  4  5  1  0  0  0  0
  5  9  1  0  0  0  0
  5  6  2  0  0  0  0
  6  1  1  0  0  0  0
  8  3  1  0  0  0  0
  9 16  1  0  0  0  0
 10 12  1  0  0  0  0
 10  9  2  0  0  0  0
 11 10  1  0  0  0  0
 12 14  1  0  0  0  0
 13 12  1  0  0  0  0
 14 16  2  0  0  0  0
 14 15  1  0  0  0  0
 17 19  1  0  0  0  0
 18 17  1  0  0  0  0
 20 22  1  0  0  0  0
 20 17  1  0  0  0  0
 21 20  1  0  0  0  0
 23 20  1  0  0  0  0
M  END
>  <minimizedAffinity>
-3.74461341

$$$$
