
 OpenBabel03242513153D

 29 31  0  0  0  0  0  0  0  0999 V2000
   38.7330   29.7040   42.9260 Cl  0  0  0  0  0  0  0  0  0  0  0  0
   37.4670   29.6640   41.6940 C   0  0  0  0  0  0  0  0  0  0  0  0
   36.6220   28.6020   41.6360 C   0  0  0  0  0  0  0  0  0  0  0  0
   35.6300   28.6320   40.6900 C   0  0  0  0  0  0  0  0  0  0  0  0
   35.5000   29.6970   39.8340 C   0  0  0  0  0  0  0  0  0  0  0  0
   36.3780   30.7870   39.9000 C   0  0  0  0  0  0  0  0  0  0  0  0
   37.3630   30.7350   40.8560 C   0  0  0  0  0  0  0  0  0  0  0  0
   34.8730   27.8960   40.5170 H   0  0  0  0  0  0  0  0  0  0  0  0
   34.7140   29.7530   39.0620 H   0  0  0  0  0  0  0  0  0  0  0  0
   36.2090   31.5950   39.1840 H   0  0  0  0  0  0  0  0  0  0  0  0
   38.2230   31.9130   40.8420 C   0  0  0  0  0  0  0  0  0  0  0  0
   39.5120   32.1530   41.2530 C   0  0  0  0  0  0  0  0  0  0  0  0
   40.1910   31.4570   41.7030 H   0  0  0  0  0  0  0  0  0  0  0  0
   39.9240   33.4100   41.0480 N   0  0  0  0  0  0  0  0  0  0  0  0
   40.8390   33.8550   41.2610 H   0  0  0  0  0  0  0  0  0  0  0  0
   38.8850   34.0130   40.4900 C   0  0  0  0  0  0  0  0  0  0  0  0
   38.7300   35.0180   40.1460 H   0  0  0  0  0  0  0  0  0  0  0  0
   37.8880   33.1270   40.3720 N   0  0  0  0  0  0  0  0  0  0  0  0
   36.8130   27.4790   42.5380 C   0  0  0  0  0  0  0  0  0  0  0  0
   36.2810   27.5690   43.6800 O   0  0  0  0  0  0  0  0  0  0  0  0
   37.6460   24.0360   41.7880 C   0  0  0  0  0  0  0  0  0  0  0  0
   38.9840   24.0350   41.4110 C   0  0  0  0  0  0  0  0  0  0  0  0
   39.5850   25.2860   41.4310 C   0  0  0  0  0  0  0  0  0  0  0  0
   38.8610   26.3890   41.8000 N   0  0  0  0  0  0  0  0  0  0  0  0
   37.5750   26.3170   42.1510 C   0  0  0  0  0  0  0  0  0  0  0  0
   36.9800   25.1200   42.1380 N   0  0  0  0  0  0  0  0  0  0  0  0
   37.1280   23.0750   41.7890 H   0  0  0  0  0  0  0  0  0  0  0  0
   39.5420   23.1550   41.1220 H   0  0  0  0  0  0  0  0  0  0  0  0
   40.6310   25.3700   41.1480 H   0  0  0  0  0  0  0  0  0  0  0  0
  2  1  1  0  0  0  0
  3  2  1  0  0  0  0
  3 19  1  0  0  0  0
  4  3  2  0  0  0  0
  5  6  2  0  0  0  0
  5  4  1  0  0  0  0
  6  7  1  0  0  0  0
  7  2  2  0  0  0  0
  8  4  1  0  0  0  0
  9  5  1  0  0  0  0
 10  6  1  0  0  0  0
 11  7  1  0  0  0  0
 11 12  2  0  0  0  0
 12 13  1  0  0  0  0
 14 12  1  0  0  0  0
 14 15  1  0  0  0  0
 16 14  1  0  0  0  0
 17 16  1  0  0  0  0
 18 16  2  0  0  0  0
 18 11  1  0  0  0  0
 19 20  2  0  0  0  0
 21 27  1  0  0  0  0
 21 26  1  0  0  0  0
 22 23  1  0  0  0  0
 22 21  2  0  0  0  0
 23 24  2  0  0  0  0
 24 25  1  0  0  0  0
 25 19  1  0  0  0  0
 26 25  2  0  0  0  0
 28 22  1  0  0  0  0
 29 23  1  0  0  0  0
M  END
>  <minimizedAffinity>
-5.81059504

$$$$

 OpenBabel03242513153D

 29 31  0  0  0  0  0  0  0  0999 V2000
   39.3120   27.2570   39.9710 Cl  0  0  0  0  0  0  0  0  0  0  0  0
   38.3910   27.5400   41.4520 C   0  0  0  0  0  0  0  0  0  0  0  0
   38.3470   28.7880   41.9850 C   0  0  0  0  0  0  0  0  0  0  0  0
   37.5880   28.9690   43.1120 C   0  0  0  0  0  0  0  0  0  0  0  0
   36.9020   27.9240   43.6800 C   0  0  0  0  0  0  0  0  0  0  0  0
   36.9560   26.6400   43.1240 C   0  0  0  0  0  0  0  0  0  0  0  0
   37.7220   26.4830   41.9940 C   0  0  0  0  0  0  0  0  0  0  0  0
   37.4270   29.8810   43.6500 H   0  0  0  0  0  0  0  0  0  0  0  0
   36.2820   28.0350   44.5860 H   0  0  0  0  0  0  0  0  0  0  0  0
   36.3830   25.8610   43.6330 H   0  0  0  0  0  0  0  0  0  0  0  0
   37.7130   25.1110   41.4950 C   0  0  0  0  0  0  0  0  0  0  0  0
   38.4830   24.0030   41.7540 C   0  0  0  0  0  0  0  0  0  0  0  0
   39.3090   23.9280   42.4320 H   0  0  0  0  0  0  0  0  0  0  0  0
   38.1220   22.9160   41.0600 N   0  0  0  0  0  0  0  0  0  0  0  0
   38.5260   21.9580   41.0630 H   0  0  0  0  0  0  0  0  0  0  0  0
   37.0940   23.3160   40.3280 C   0  0  0  0  0  0  0  0  0  0  0  0
   36.4700   22.8080   39.6160 H   0  0  0  0  0  0  0  0  0  0  0  0
   36.8590   24.6080   40.5880 N   0  0  0  0  0  0  0  0  0  0  0  0
   39.1130   29.8600   41.3750 C   0  0  0  0  0  0  0  0  0  0  0  0
   40.3650   29.8340   41.5460 O   0  0  0  0  0  0  0  0  0  0  0  0
   38.0850   33.1610   40.2980 C   0  0  0  0  0  0  0  0  0  0  0  0
   37.2890   32.9710   39.1760 C   0  0  0  0  0  0  0  0  0  0  0  0
   37.1230   31.6420   38.8100 C   0  0  0  0  0  0  0  0  0  0  0  0
   37.7230   30.6500   39.5380 N   0  0  0  0  0  0  0  0  0  0  0  0
   38.4790   30.9050   40.6100 C   0  0  0  0  0  0  0  0  0  0  0  0
   38.6500   32.1790   40.9770 N   0  0  0  0  0  0  0  0  0  0  0  0
   38.2470   34.1900   40.6270 H   0  0  0  0  0  0  0  0  0  0  0  0
   36.8200   33.7650   38.6100 H   0  0  0  0  0  0  0  0  0  0  0  0
   36.5130   31.4100   37.9410 H   0  0  0  0  0  0  0  0  0  0  0  0
  1  2  1  0  0  0  0
  2  3  2  0  0  0  0
  2  7  1  0  0  0  0
  3  4  1  0  0  0  0
  4  8  1  0  0  0  0
  4  5  2  0  0  0  0
  5  9  1  0  0  0  0
  6 10  1  0  0  0  0
  6  5  1  0  0  0  0
  7  6  2  0  0  0  0
 11 12  2  0  0  0  0
 11  7  1  0  0  0  0
 12 13  1  0  0  0  0
 14 15  1  0  0  0  0
 14 12  1  0  0  0  0
 16 18  2  0  0  0  0
 16 14  1  0  0  0  0
 17 16  1  0  0  0  0
 18 11  1  0  0  0  0
 19 20  2  0  0  0  0
 19  3  1  0  0  0  0
 21 27  1  0  0  0  0
 21 26  1  0  0  0  0
 22 21  2  0  0  0  0
 23 22  1  0  0  0  0
 23 24  2  0  0  0  0
 24 25  1  0  0  0  0
 25 26  2  0  0  0  0
 25 19  1  0  0  0  0
 28 22  1  0  0  0  0
 29 23  1  0  0  0  0
M  END
>  <minimizedAffinity>
-5.29149532

$$$$

 OpenBabel03242513153D

 29 31  0  0  0  0  0  0  0  0999 V2000
   39.2550   28.0720   38.9520 Cl  0  0  0  0  0  0  0  0  0  0  0  0
   37.8540   28.8980   39.6410 C   0  0  0  0  0  0  0  0  0  0  0  0
   37.0270   28.2270   40.4850 C   0  0  0  0  0  0  0  0  0  0  0  0
   35.9760   28.9200   41.0270 C   0  0  0  0  0  0  0  0  0  0  0  0
   35.7670   30.2420   40.7240 C   0  0  0  0  0  0  0  0  0  0  0  0
   36.6230   30.9250   39.8510 C   0  0  0  0  0  0  0  0  0  0  0  0
   37.6710   30.2110   39.3210 C   0  0  0  0  0  0  0  0  0  0  0  0
   35.2440   28.5560   41.7180 H   0  0  0  0  0  0  0  0  0  0  0  0
   34.9310   30.8280   41.1430 H   0  0  0  0  0  0  0  0  0  0  0  0
   36.3910   31.9760   39.6600 H   0  0  0  0  0  0  0  0  0  0  0  0
   38.5000   31.0110   38.4260 C   0  0  0  0  0  0  0  0  0  0  0  0
   38.2840   31.5980   37.2030 C   0  0  0  0  0  0  0  0  0  0  0  0
   37.3840   31.5780   36.6220 H   0  0  0  0  0  0  0  0  0  0  0  0
   39.3430   32.2600   36.7220 N   0  0  0  0  0  0  0  0  0  0  0  0
   39.4530   32.7880   35.8330 H   0  0  0  0  0  0  0  0  0  0  0  0
   40.2790   32.1070   37.6470 C   0  0  0  0  0  0  0  0  0  0  0  0
   41.2940   32.4520   37.7150 H   0  0  0  0  0  0  0  0  0  0  0  0
   39.7760   31.3710   38.6460 N   0  0  0  0  0  0  0  0  0  0  0  0
   37.2620   26.8190   40.7540 C   0  0  0  0  0  0  0  0  0  0  0  0
   36.6060   25.9900   40.0630 O   0  0  0  0  0  0  0  0  0  0  0  0
   39.5050   24.6970   42.6440 C   0  0  0  0  0  0  0  0  0  0  0  0
   40.0110   25.4850   43.6710 C   0  0  0  0  0  0  0  0  0  0  0  0
   39.5360   26.7890   43.6770 C   0  0  0  0  0  0  0  0  0  0  0  0
   38.6440   27.1990   42.7220 N   0  0  0  0  0  0  0  0  0  0  0  0
   38.1990   26.3860   41.7610 C   0  0  0  0  0  0  0  0  0  0  0  0
   38.6460   25.1260   41.7390 N   0  0  0  0  0  0  0  0  0  0  0  0
   39.8490   23.6610   42.5960 H   0  0  0  0  0  0  0  0  0  0  0  0
   40.7150   25.1470   44.4190 H   0  0  0  0  0  0  0  0  0  0  0  0
   39.8840   27.4700   44.4490 H   0  0  0  0  0  0  0  0  0  0  0  0
  1  2  1  0  0  0  0
  2  3  1  0  0  0  0
  3 19  1  0  0  0  0
  3  4  2  0  0  0  0
  4  8  1  0  0  0  0
  5  4  1  0  0  0  0
  5  9  1  0  0  0  0
  6  5  2  0  0  0  0
  7  2  2  0  0  0  0
  7  6  1  0  0  0  0
 10  6  1  0  0  0  0
 11 18  1  0  0  0  0
 11  7  1  0  0  0  0
 12 11  2  0  0  0  0
 13 12  1  0  0  0  0
 14 12  1  0  0  0  0
 14 16  1  0  0  0  0
 15 14  1  0  0  0  0
 16 17  1  0  0  0  0
 16 18  2  0  0  0  0
 19 25  1  0  0  0  0
 20 19  2  0  0  0  0
 21 22  1  0  0  0  0
 22 23  2  0  0  0  0
 22 28  1  0  0  0  0
 23 29  1  0  0  0  0
 24 23  1  0  0  0  0
 25 24  2  0  0  0  0
 26 25  1  0  0  0  0
 26 21  2  0  0  0  0
 27 21  1  0  0  0  0
M  END
>  <minimizedAffinity>
-5.28672886

$$$$

 OpenBabel03242513153D

 29 31  0  0  0  0  0  0  0  0999 V2000
   40.2050   29.0470   40.2090 Cl  0  0  0  0  0  0  0  0  0  0  0  0
   38.6360   29.8200   40.4620 C   0  0  0  0  0  0  0  0  0  0  0  0
   37.7600   29.2820   41.3490 C   0  0  0  0  0  0  0  0  0  0  0  0
   36.5720   29.9380   41.5430 C   0  0  0  0  0  0  0  0  0  0  0  0
   36.2810   31.0940   40.8620 C   0  0  0  0  0  0  0  0  0  0  0  0
   37.1900   31.6390   39.9470 C   0  0  0  0  0  0  0  0  0  0  0  0
   38.3750   30.9660   39.7710 C   0  0  0  0  0  0  0  0  0  0  0  0
   35.7800   29.6670   42.2110 H   0  0  0  0  0  0  0  0  0  0  0  0
   35.3340   31.6450   40.9940 H   0  0  0  0  0  0  0  0  0  0  0  0
   36.8860   32.5610   39.4450 H   0  0  0  0  0  0  0  0  0  0  0  0
   39.2500   31.6130   38.7990 C   0  0  0  0  0  0  0  0  0  0  0  0
   39.2780   31.6540   37.4260 C   0  0  0  0  0  0  0  0  0  0  0  0
   38.6030   31.1740   36.7470 H   0  0  0  0  0  0  0  0  0  0  0  0
   40.2790   32.3870   36.9240 N   0  0  0  0  0  0  0  0  0  0  0  0
   40.5310   32.5850   35.9350 H   0  0  0  0  0  0  0  0  0  0  0  0
   40.9250   32.8410   37.9880 C   0  0  0  0  0  0  0  0  0  0  0  0
   41.7900   33.4670   38.0970 H   0  0  0  0  0  0  0  0  0  0  0  0
   40.3150   32.3810   39.0870 N   0  0  0  0  0  0  0  0  0  0  0  0
   38.0900   28.0400   42.0250 C   0  0  0  0  0  0  0  0  0  0  0  0
   38.8490   28.1230   43.0320 O   0  0  0  0  0  0  0  0  0  0  0  0
   37.0960   24.5580   42.0340 C   0  0  0  0  0  0  0  0  0  0  0  0
   36.6020   24.2940   40.7620 C   0  0  0  0  0  0  0  0  0  0  0  0
   36.6320   25.3810   39.8990 C   0  0  0  0  0  0  0  0  0  0  0  0
   37.1200   26.5860   40.3310 N   0  0  0  0  0  0  0  0  0  0  0  0
   37.5790   26.7700   41.5710 C   0  0  0  0  0  0  0  0  0  0  0  0
   37.5580   25.7340   42.4160 N   0  0  0  0  0  0  0  0  0  0  0  0
   37.0940   23.7340   42.7510 H   0  0  0  0  0  0  0  0  0  0  0  0
   36.2200   23.3360   40.4350 H   0  0  0  0  0  0  0  0  0  0  0  0
   36.2620   25.2550   38.8850 H   0  0  0  0  0  0  0  0  0  0  0  0
  1  2  1  0  0  0  0
  2  3  1  0  0  0  0
  3  4  2  0  0  0  0
  3 19  1  0  0  0  0
  4  8  1  0  0  0  0
  5  9  1  0  0  0  0
  5  4  1  0  0  0  0
  6  5  2  0  0  0  0
  7  6  1  0  0  0  0
  7  2  2  0  0  0  0
 10  6  1  0  0  0  0
 11 18  1  0  0  0  0
 11  7  1  0  0  0  0
 12 11  2  0  0  0  0
 13 12  1  0  0  0  0
 14 12  1  0  0  0  0
 14 16  1  0  0  0  0
 15 14  1  0  0  0  0
 16 17  1  0  0  0  0
 16 18  2  0  0  0  0
 19 20  2  0  0  0  0
 21 26  1  0  0  0  0
 21 27  1  0  0  0  0
 22 21  2  0  0  0  0
 23 24  2  0  0  0  0
 23 22  1  0  0  0  0
 24 25  1  0  0  0  0
 25 19  1  0  0  0  0
 25 26  2  0  0  0  0
 28 22  1  0  0  0  0
 29 23  1  0  0  0  0
M  END
>  <minimizedAffinity>
-5.25808048

$$$$

 OpenBabel03242513153D

 29 31  0  0  0  0  0  0  0  0999 V2000
   36.2490   26.7510   38.8340 Cl  0  0  0  0  0  0  0  0  0  0  0  0
   36.6590   26.9980   40.5350 C   0  0  0  0  0  0  0  0  0  0  0  0
   36.2850   28.1480   41.1540 C   0  0  0  0  0  0  0  0  0  0  0  0
   36.5890   28.2800   42.4840 C   0  0  0  0  0  0  0  0  0  0  0  0
   37.2500   27.2850   43.1620 C   0  0  0  0  0  0  0  0  0  0  0  0
   37.6340   26.1040   42.5140 C   0  0  0  0  0  0  0  0  0  0  0  0
   37.3170   25.9940   41.1820 C   0  0  0  0  0  0  0  0  0  0  0  0
   36.3560   29.1030   43.1270 H   0  0  0  0  0  0  0  0  0  0  0  0
   37.5100   27.3600   44.2320 H   0  0  0  0  0  0  0  0  0  0  0  0
   38.1550   25.3610   43.1220 H   0  0  0  0  0  0  0  0  0  0  0  0
   37.7600   24.7310   40.6010 C   0  0  0  0  0  0  0  0  0  0  0  0
   38.8650   24.3560   39.8760 C   0  0  0  0  0  0  0  0  0  0  0  0
   39.6840   24.9750   39.5700 H   0  0  0  0  0  0  0  0  0  0  0  0
   38.8770   23.0610   39.5340 N   0  0  0  0  0  0  0  0  0  0  0  0
   39.5820   22.5200   38.9940 H   0  0  0  0  0  0  0  0  0  0  0  0
   37.7580   22.5720   40.0450 C   0  0  0  0  0  0  0  0  0  0  0  0
   37.3270   21.5880   40.0370 H   0  0  0  0  0  0  0  0  0  0  0  0
   37.1050   23.5590   40.6710 N   0  0  0  0  0  0  0  0  0  0  0  0
   35.6180   29.1910   40.3940 C   0  0  0  0  0  0  0  0  0  0  0  0
   34.3730   29.0610   40.2200 O   0  0  0  0  0  0  0  0  0  0  0  0
   37.3270   32.3780   40.2240 C   0  0  0  0  0  0  0  0  0  0  0  0
   37.7320   32.5290   38.9030 C   0  0  0  0  0  0  0  0  0  0  0  0
   37.3820   31.4740   38.0730 C   0  0  0  0  0  0  0  0  0  0  0  0
   36.6960   30.4020   38.5780 N   0  0  0  0  0  0  0  0  0  0  0  0
   36.3380   30.3210   39.8620 C   0  0  0  0  0  0  0  0  0  0  0  0
   36.6670   31.3290   40.6770 N   0  0  0  0  0  0  0  0  0  0  0  0
   37.5790   33.1830   40.9180 H   0  0  0  0  0  0  0  0  0  0  0  0
   38.2740   33.3820   38.5180 H   0  0  0  0  0  0  0  0  0  0  0  0
   37.6630   31.5160   37.0240 H   0  0  0  0  0  0  0  0  0  0  0  0
  1  2  1  0  0  0  0
  2  3  2  0  0  0  0
  2  7  1  0  0  0  0
  3  4  1  0  0  0  0
  4  8  1  0  0  0  0
  4  5  2  0  0  0  0
  5  9  1  0  0  0  0
  6 10  1  0  0  0  0
  6  5  1  0  0  0  0
  7  6  2  0  0  0  0
 11 18  1  0  0  0  0
 11  7  1  0  0  0  0
 12 11  2  0  0  0  0
 13 12  1  0  0  0  0
 14 12  1  0  0  0  0
 14 16  1  0  0  0  0
 15 14  1  0  0  0  0
 16 18  2  0  0  0  0
 17 16  1  0  0  0  0
 19  3  1  0  0  0  0
 20 19  2  0  0  0  0
 21 26  1  0  0  0  0
 21 27  1  0  0  0  0
 22 21  2  0  0  0  0
 23 24  2  0  0  0  0
 23 22  1  0  0  0  0
 24 25  1  0  0  0  0
 25 19  1  0  0  0  0
 25 26  2  0  0  0  0
 28 22  1  0  0  0  0
 29 23  1  0  0  0  0
M  END
>  <minimizedAffinity>
-5.20446205

$$$$

 OpenBabel03242513153D

 29 31  0  0  0  0  0  0  0  0999 V2000
   39.2740   26.7450   39.8100 Cl  0  0  0  0  0  0  0  0  0  0  0  0
   38.4370   27.1970   41.2990 C   0  0  0  0  0  0  0  0  0  0  0  0
   37.2260   27.8080   41.2290 C   0  0  0  0  0  0  0  0  0  0  0  0
   36.5950   28.1040   42.4090 C   0  0  0  0  0  0  0  0  0  0  0  0
   37.1710   27.7950   43.6170 C   0  0  0  0  0  0  0  0  0  0  0  0
   38.4210   27.1670   43.6800 C   0  0  0  0  0  0  0  0  0  0  0  0
   39.0330   26.8790   42.4840 C   0  0  0  0  0  0  0  0  0  0  0  0
   35.6370   28.5640   42.5380 H   0  0  0  0  0  0  0  0  0  0  0  0
   36.6900   28.0200   44.5840 H   0  0  0  0  0  0  0  0  0  0  0  0
   38.8120   26.9550   44.6770 H   0  0  0  0  0  0  0  0  0  0  0  0
   40.3280   26.2290   42.6580 C   0  0  0  0  0  0  0  0  0  0  0  0
   40.7210   24.9200   42.8050 C   0  0  0  0  0  0  0  0  0  0  0  0
   40.0950   24.0510   42.8240 H   0  0  0  0  0  0  0  0  0  0  0  0
   42.0440   24.7610   42.9370 N   0  0  0  0  0  0  0  0  0  0  0  0
   42.6020   23.8930   43.0620 H   0  0  0  0  0  0  0  0  0  0  0  0
   42.5340   25.9900   42.8750 C   0  0  0  0  0  0  0  0  0  0  0  0
   43.5360   26.3740   42.9310 H   0  0  0  0  0  0  0  0  0  0  0  0
   41.5200   26.8480   42.7110 N   0  0  0  0  0  0  0  0  0  0  0  0
   36.6660   28.1480   39.9320 C   0  0  0  0  0  0  0  0  0  0  0  0
   35.9330   27.2780   39.3820 O   0  0  0  0  0  0  0  0  0  0  0  0
   37.0070   31.7210   39.4560 C   0  0  0  0  0  0  0  0  0  0  0  0
   37.4330   31.8970   38.1450 C   0  0  0  0  0  0  0  0  0  0  0  0
   37.5950   30.7180   37.4320 C   0  0  0  0  0  0  0  0  0  0  0  0
   37.3390   29.5130   38.0320 N   0  0  0  0  0  0  0  0  0  0  0  0
   36.9320   29.4160   39.3010 C   0  0  0  0  0  0  0  0  0  0  0  0
   36.7700   30.5430   40.0020 N   0  0  0  0  0  0  0  0  0  0  0  0
   36.8640   32.6200   40.0590 H   0  0  0  0  0  0  0  0  0  0  0  0
   37.6310   32.8560   37.6840 H   0  0  0  0  0  0  0  0  0  0  0  0
   37.9260   30.7710   36.3990 H   0  0  0  0  0  0  0  0  0  0  0  0
  1  2  1  0  0  0  0
  2  7  1  0  0  0  0
  3  2  2  0  0  0  0
  3  4  1  0  0  0  0
  4  8  1  0  0  0  0
  4  5  2  0  0  0  0
  5  6  1  0  0  0  0
  5  9  1  0  0  0  0
  6 10  1  0  0  0  0
  7 11  1  0  0  0  0
  7  6  2  0  0  0  0
 11 18  1  0  0  0  0
 11 12  2  0  0  0  0
 12 13  1  0  0  0  0
 12 14  1  0  0  0  0
 14 15  1  0  0  0  0
 16 17  1  0  0  0  0
 16 14  1  0  0  0  0
 18 16  2  0  0  0  0
 19  3  1  0  0  0  0
 20 19  2  0  0  0  0
 21 26  1  0  0  0  0
 21 27  1  0  0  0  0
 22 21  2  0  0  0  0
 23 24  2  0  0  0  0
 23 22  1  0  0  0  0
 24 25  1  0  0  0  0
 25 19  1  0  0  0  0
 25 26  2  0  0  0  0
 28 22  1  0  0  0  0
 29 23  1  0  0  0  0
M  END
>  <minimizedAffinity>
-5.07913446

$$$$

 OpenBabel03242513153D

 29 31  0  0  0  0  0  0  0  0999 V2000
   36.6130   27.6430   39.4220 Cl  0  0  0  0  0  0  0  0  0  0  0  0
   37.1660   27.7880   41.0940 C   0  0  0  0  0  0  0  0  0  0  0  0
   37.1480   29.0030   41.7020 C   0  0  0  0  0  0  0  0  0  0  0  0
   37.5490   29.0610   43.0120 C   0  0  0  0  0  0  0  0  0  0  0  0
   37.9550   27.9320   43.6800 C   0  0  0  0  0  0  0  0  0  0  0  0
   37.9730   26.6850   43.0430 C   0  0  0  0  0  0  0  0  0  0  0  0
   37.5660   26.6510   41.7310 C   0  0  0  0  0  0  0  0  0  0  0  0
   37.5800   29.9230   43.6450 H   0  0  0  0  0  0  0  0  0  0  0  0
   38.2830   27.9450   44.7330 H   0  0  0  0  0  0  0  0  0  0  0  0
   38.3090   25.8350   43.6410 H   0  0  0  0  0  0  0  0  0  0  0  0
   37.6220   25.3090   41.1600 C   0  0  0  0  0  0  0  0  0  0  0  0
   36.7860   24.2200   41.2120 C   0  0  0  0  0  0  0  0  0  0  0  0
   35.8510   24.1410   41.7290 H   0  0  0  0  0  0  0  0  0  0  0  0
   37.2300   23.1600   40.5250 N   0  0  0  0  0  0  0  0  0  0  0  0
   36.8030   22.2210   40.3970 H   0  0  0  0  0  0  0  0  0  0  0  0
   38.3830   23.5590   40.0070 C   0  0  0  0  0  0  0  0  0  0  0  0
   39.1060   23.0670   39.3840 H   0  0  0  0  0  0  0  0  0  0  0  0
   38.6070   24.8240   40.3850 N   0  0  0  0  0  0  0  0  0  0  0  0
   36.7440   30.1780   40.9520 C   0  0  0  0  0  0  0  0  0  0  0  0
   35.5070   30.3190   40.7350 O   0  0  0  0  0  0  0  0  0  0  0  0
   38.2030   33.3320   39.9350 C   0  0  0  0  0  0  0  0  0  0  0  0
   39.5120   33.0510   39.5630 C   0  0  0  0  0  0  0  0  0  0  0  0
   39.8650   31.7140   39.6800 C   0  0  0  0  0  0  0  0  0  0  0  0
   38.9500   30.8000   40.1320 N   0  0  0  0  0  0  0  0  0  0  0  0
   37.7050   31.1410   40.4740 C   0  0  0  0  0  0  0  0  0  0  0  0
   37.3480   32.4250   40.3670 N   0  0  0  0  0  0  0  0  0  0  0  0
   37.8760   34.3720   39.8610 H   0  0  0  0  0  0  0  0  0  0  0  0
   40.2230   33.7840   39.2080 H   0  0  0  0  0  0  0  0  0  0  0  0
   40.8730   31.4120   39.4080 H   0  0  0  0  0  0  0  0  0  0  0  0
  1  2  1  0  0  0  0
  2  3  2  0  0  0  0
  2  7  1  0  0  0  0
  3  4  1  0  0  0  0
  4  8  1  0  0  0  0
  4  5  2  0  0  0  0
  5  9  1  0  0  0  0
  6 10  1  0  0  0  0
  6  5  1  0  0  0  0
  7  6  2  0  0  0  0
 11 12  2  0  0  0  0
 11  7  1  0  0  0  0
 12 13  1  0  0  0  0
 14 12  1  0  0  0  0
 15 14  1  0  0  0  0
 16 18  2  0  0  0  0
 16 14  1  0  0  0  0
 17 16  1  0  0  0  0
 18 11  1  0  0  0  0
 19  3  1  0  0  0  0
 20 19  2  0  0  0  0
 21 26  1  0  0  0  0
 22 23  1  0  0  0  0
 22 21  2  0  0  0  0
 23 24  2  0  0  0  0
 24 25  1  0  0  0  0
 25 19  1  0  0  0  0
 26 25  2  0  0  0  0
 27 21  1  0  0  0  0
 28 22  1  0  0  0  0
 29 23  1  0  0  0  0
M  END
>  <minimizedAffinity>
-4.98898983

$$$$

 OpenBabel03242513153D

 29 31  0  0  0  0  0  0  0  0999 V2000
   40.2100   28.0150   40.1170 Cl  0  0  0  0  0  0  0  0  0  0  0  0
   39.1010   28.1900   41.4820 C   0  0  0  0  0  0  0  0  0  0  0  0
   38.0350   29.0250   41.3760 C   0  0  0  0  0  0  0  0  0  0  0  0
   37.1790   29.0980   42.4440 C   0  0  0  0  0  0  0  0  0  0  0  0
   37.3960   28.3570   43.5780 C   0  0  0  0  0  0  0  0  0  0  0  0
   38.5000   27.5010   43.6790 C   0  0  0  0  0  0  0  0  0  0  0  0
   39.3430   27.4420   42.5960 C   0  0  0  0  0  0  0  0  0  0  0  0
   36.2870   29.6850   42.5250 H   0  0  0  0  0  0  0  0  0  0  0  0
   36.7280   28.3930   44.4560 H   0  0  0  0  0  0  0  0  0  0  0  0
   38.6050   26.9450   44.6140 H   0  0  0  0  0  0  0  0  0  0  0  0
   40.4600   26.5260   42.8010 C   0  0  0  0  0  0  0  0  0  0  0  0
   40.8090   25.3170   42.2500 C   0  0  0  0  0  0  0  0  0  0  0  0
   40.2800   24.7680   41.4970 H   0  0  0  0  0  0  0  0  0  0  0  0
   41.9460   24.8040   42.7370 N   0  0  0  0  0  0  0  0  0  0  0  0
   42.4330   23.9170   42.5000 H   0  0  0  0  0  0  0  0  0  0  0  0
   42.3560   25.6940   43.6280 C   0  0  0  0  0  0  0  0  0  0  0  0
   43.2120   25.7290   44.2750 H   0  0  0  0  0  0  0  0  0  0  0  0
   41.4770   26.7040   43.6610 N   0  0  0  0  0  0  0  0  0  0  0  0
   37.8580   29.8180   40.1720 C   0  0  0  0  0  0  0  0  0  0  0  0
   37.3310   29.2390   39.1800 O   0  0  0  0  0  0  0  0  0  0  0  0
   39.9740   32.7530   40.0410 C   0  0  0  0  0  0  0  0  0  0  0  0
   39.1180   33.8450   39.9810 C   0  0  0  0  0  0  0  0  0  0  0  0
   37.7690   33.5160   39.9900 C   0  0  0  0  0  0  0  0  0  0  0  0
   37.3840   32.2030   40.0530 N   0  0  0  0  0  0  0  0  0  0  0  0
   38.2640   31.2000   40.1080 C   0  0  0  0  0  0  0  0  0  0  0  0
   39.5680   31.4990   40.1010 N   0  0  0  0  0  0  0  0  0  0  0  0
   41.0470   32.9590   40.0370 H   0  0  0  0  0  0  0  0  0  0  0  0
   39.4370   34.8770   39.9310 H   0  0  0  0  0  0  0  0  0  0  0  0
   37.0340   34.3150   39.9450 H   0  0  0  0  0  0  0  0  0  0  0  0
  1  2  1  0  0  0  0
  2  7  1  0  0  0  0
  3  2  2  0  0  0  0
  3  4  1  0  0  0  0
  4  8  1  0  0  0  0
  4  5  2  0  0  0  0
  5  6  1  0  0  0  0
  5  9  1  0  0  0  0
  6 10  1  0  0  0  0
  7 11  1  0  0  0  0
  7  6  2  0  0  0  0
 11 18  1  0  0  0  0
 12 14  1  0  0  0  0
 12 11  2  0  0  0  0
 13 12  1  0  0  0  0
 14 16  1  0  0  0  0
 15 14  1  0  0  0  0
 16 18  2  0  0  0  0
 16 17  1  0  0  0  0
 19  3  1  0  0  0  0
 20 19  2  0  0  0  0
 21 26  1  0  0  0  0
 22 23  1  0  0  0  0
 22 21  2  0  0  0  0
 23 24  2  0  0  0  0
 24 25  1  0  0  0  0
 25 19  1  0  0  0  0
 26 25  2  0  0  0  0
 27 21  1  0  0  0  0
 28 22  1  0  0  0  0
 29 23  1  0  0  0  0
M  END
>  <minimizedAffinity>
-4.96861267

$$$$

 OpenBabel03242513153D

 29 31  0  0  0  0  0  0  0  0999 V2000
   37.5570   28.0870   42.2880 Cl  0  0  0  0  0  0  0  0  0  0  0  0
   37.2240   27.1820   40.8070 C   0  0  0  0  0  0  0  0  0  0  0  0
   36.4260   27.7280   39.8530 C   0  0  0  0  0  0  0  0  0  0  0  0
   36.2290   27.0070   38.7040 C   0  0  0  0  0  0  0  0  0  0  0  0
   36.8150   25.7790   38.5280 C   0  0  0  0  0  0  0  0  0  0  0  0
   37.6340   25.2230   39.5190 C   0  0  0  0  0  0  0  0  0  0  0  0
   37.8190   25.9640   40.6610 C   0  0  0  0  0  0  0  0  0  0  0  0
   35.6500   27.2910   37.8490 H   0  0  0  0  0  0  0  0  0  0  0  0
   36.6760   25.1730   37.6160 H   0  0  0  0  0  0  0  0  0  0  0  0
   38.0630   24.2410   39.3050 H   0  0  0  0  0  0  0  0  0  0  0  0
   38.6850   25.2980   41.6290 C   0  0  0  0  0  0  0  0  0  0  0  0
   38.5270   24.2110   42.4530 C   0  0  0  0  0  0  0  0  0  0  0  0
   37.6600   23.5890   42.5520 H   0  0  0  0  0  0  0  0  0  0  0  0
   39.6030   23.9320   43.1990 N   0  0  0  0  0  0  0  0  0  0  0  0
   39.7550   23.1760   43.8960 H   0  0  0  0  0  0  0  0  0  0  0  0
   40.4910   24.8550   42.8590 C   0  0  0  0  0  0  0  0  0  0  0  0
   41.4970   25.0460   43.1820 H   0  0  0  0  0  0  0  0  0  0  0  0
   39.9440   25.6550   41.9350 N   0  0  0  0  0  0  0  0  0  0  0  0
   35.7980   29.0160   40.0900 C   0  0  0  0  0  0  0  0  0  0  0  0
   34.6540   29.0020   40.6260 O   0  0  0  0  0  0  0  0  0  0  0  0
   37.3280   32.2830   40.3970 C   0  0  0  0  0  0  0  0  0  0  0  0
   37.7000   32.6580   39.1120 C   0  0  0  0  0  0  0  0  0  0  0  0
   37.3930   31.7250   38.1320 C   0  0  0  0  0  0  0  0  0  0  0  0
   36.7750   30.5510   38.4720 N   0  0  0  0  0  0  0  0  0  0  0  0
   36.4460   30.2530   39.7320 C   0  0  0  0  0  0  0  0  0  0  0  0
   36.7340   31.1410   40.6900 N   0  0  0  0  0  0  0  0  0  0  0  0
   37.5490   32.9840   41.2050 H   0  0  0  0  0  0  0  0  0  0  0  0
   38.1870   33.5900   38.8580 H   0  0  0  0  0  0  0  0  0  0  0  0
   37.6510   31.9440   37.1000 H   0  0  0  0  0  0  0  0  0  0  0  0
  2  1  1  0  0  0  0
  3 19  1  0  0  0  0
  3  2  2  0  0  0  0
  4  3  1  0  0  0  0
  5  4  2  0  0  0  0
  5  6  1  0  0  0  0
  6  7  2  0  0  0  0
  7  2  1  0  0  0  0
  7 11  1  0  0  0  0
  8  4  1  0  0  0  0
  9  5  1  0  0  0  0
 10  6  1  0  0  0  0
 11 18  1  0  0  0  0
 11 12  2  0  0  0  0
 12 13  1  0  0  0  0
 12 14  1  0  0  0  0
 14 15  1  0  0  0  0
 16 17  1  0  0  0  0
 16 14  1  0  0  0  0
 18 16  2  0  0  0  0
 19 20  2  0  0  0  0
 21 26  1  0  0  0  0
 21 27  1  0  0  0  0
 22 21  2  0  0  0  0
 23 24  2  0  0  0  0
 23 22  1  0  0  0  0
 24 25  1  0  0  0  0
 25 19  1  0  0  0  0
 25 26  2  0  0  0  0
 28 22  1  0  0  0  0
 29 23  1  0  0  0  0
M  END
>  <minimizedAffinity>
-4.92434788

$$$$
