
 OpenBabel03252505203D

 33 36  0  0  0  0  0  0  0  0999 V2000
   37.5380   28.7050   41.5650 C   0  0  0  0  0  0  0  0  0  0  0  0
   36.2400   28.3720   41.2290 C   0  0  0  0  0  0  0  0  0  0  0  0
   35.4240   29.2970   40.6180 C   0  0  0  0  0  0  0  0  0  0  0  0
   35.9590   30.5410   40.3670 C   0  0  0  0  0  0  0  0  0  0  0  0
   37.2730   30.8370   40.7210 C   0  0  0  0  0  0  0  0  0  0  0  0
   38.0680   29.9190   41.3230 N   0  0  0  0  0  0  0  0  0  0  0  0
   35.8230   27.3870   41.4320 H   0  0  0  0  0  0  0  0  0  0  0  0
   34.4050   29.0450   40.3510 H   0  0  0  0  0  0  0  0  0  0  0  0
   35.3220   31.2720   39.8860 H   0  0  0  0  0  0  0  0  0  0  0  0
   40.0670   27.0420   43.6780 C   0  0  0  0  0  0  0  0  0  0  0  0
   39.9110   25.6800   43.3800 C   0  0  0  0  0  0  0  0  0  0  0  0
   38.9310   25.3830   42.4610 C   0  0  0  0  0  0  0  0  0  0  0  0
   38.1780   26.3790   41.8950 N   0  0  0  0  0  0  0  0  0  0  0  0
   38.3660   27.6860   42.2160 C   0  0  0  0  0  0  0  0  0  0  0  0
   39.3100   28.0060   43.1050 N   0  0  0  0  0  0  0  0  0  0  0  0
   40.8170   27.3150   44.3880 H   0  0  0  0  0  0  0  0  0  0  0  0
   40.5120   24.9200   43.8360 H   0  0  0  0  0  0  0  0  0  0  0  0
   38.6900   23.9590   42.0370 C   0  0  0  0  0  0  0  0  0  0  0  0
   37.3390   23.7620   41.3490 C   0  0  0  0  0  0  0  0  0  0  0  0
   38.7270   23.6150   40.6410 C   0  0  0  0  0  0  0  0  0  0  0  0
   38.9300   23.2170   42.8360 H   0  0  0  0  0  0  0  0  0  0  0  0
   36.8160   22.8550   41.6350 H   0  0  0  0  0  0  0  0  0  0  0  0
   36.7770   24.6650   41.0430 H   0  0  0  0  0  0  0  0  0  0  0  0
   38.9490   22.5340   40.4030 H   0  0  0  0  0  0  0  0  0  0  0  0
   38.9330   24.3200   39.8290 H   0  0  0  0  0  0  0  0  0  0  0  0
   37.8280   32.1700   40.4460 C   0  0  0  0  0  0  0  0  0  0  0  0
   37.3390   33.0500   39.5030 C   0  0  0  0  0  0  0  0  0  0  0  0
   36.4750   32.8290   38.8620 H   0  0  0  0  0  0  0  0  0  0  0  0
   38.1150   34.1610   39.5530 N   0  0  0  0  0  0  0  0  0  0  0  0
   37.8780   34.9400   38.8930 H   0  0  0  0  0  0  0  0  0  0  0  0
   39.0560   33.9810   40.4950 C   0  0  0  0  0  0  0  0  0  0  0  0
   39.8030   34.7590   40.7120 H   0  0  0  0  0  0  0  0  0  0  0  0
   38.8950   32.7520   41.0610 N   0  0  0  0  0  0  0  0  0  0  0  0
  1 14  1  0  0  0  0
  2  7  1  0  0  0  0
  2  1  2  0  0  0  0
  3  2  1  0  0  0  0
  4  3  2  0  0  0  0
  4  5  1  0  0  0  0
  5  6  2  0  0  0  0
  6  1  1  0  0  0  0
  8  3  1  0  0  0  0
  9  4  1  0  0  0  0
 10 16  1  0  0  0  0
 11 10  1  0  0  0  0
 11 17  1  0  0  0  0
 12 11  2  0  0  0  0
 13 14  2  0  0  0  0
 13 12  1  0  0  0  0
 14 15  1  0  0  0  0
 15 10  2  0  0  0  0
 18 12  1  0  0  0  0
 18 21  1  0  0  0  0
 19 22  1  0  0  0  0
 19 18  1  0  0  0  0
 20 19  1  0  0  0  0
 20 18  1  0  0  0  0
 23 19  1  0  0  0  0
 24 20  1  0  0  0  0
 25 20  1  0  0  0  0
 26  5  1  0  0  0  0
 26 33  1  0  0  0  0
 27 29  1  0  0  0  0
 27 26  2  0  0  0  0
 28 27  1  0  0  0  0
 29 31  1  0  0  0  0
 30 29  1  0  0  0  0
 31 32  1  0  0  0  0
 31 33  2  0  0  0  0
M  END
>  <minimizedAffinity>
-5.7869935

$$$$

 OpenBabel03252505203D

 33 36  0  0  0  0  0  0  0  0999 V2000
   38.1910   29.1980   41.4190 C   0  0  0  0  0  0  0  0  0  0  0  0
   36.9220   29.6290   41.7510 C   0  0  0  0  0  0  0  0  0  0  0  0
   36.3550   30.6910   41.0810 C   0  0  0  0  0  0  0  0  0  0  0  0
   37.1040   31.2830   40.0890 C   0  0  0  0  0  0  0  0  0  0  0  0
   38.3810   30.8170   39.7850 C   0  0  0  0  0  0  0  0  0  0  0  0
   38.9300   29.7710   40.4510 N   0  0  0  0  0  0  0  0  0  0  0  0
   36.3360   29.1580   42.5360 H   0  0  0  0  0  0  0  0  0  0  0  0
   35.3600   31.0370   41.3340 H   0  0  0  0  0  0  0  0  0  0  0  0
   36.6630   32.1180   39.5600 H   0  0  0  0  0  0  0  0  0  0  0  0
   40.2710   27.1440   43.6750 C   0  0  0  0  0  0  0  0  0  0  0  0
   39.7680   25.8460   43.5070 C   0  0  0  0  0  0  0  0  0  0  0  0
   38.7210   25.7250   42.6210 C   0  0  0  0  0  0  0  0  0  0  0  0
   38.2310   26.8250   41.9650 N   0  0  0  0  0  0  0  0  0  0  0  0
   38.7520   28.0650   42.1610 C   0  0  0  0  0  0  0  0  0  0  0  0
   39.7670   28.2130   43.0150 N   0  0  0  0  0  0  0  0  0  0  0  0
   41.0830   27.2810   44.3550 H   0  0  0  0  0  0  0  0  0  0  0  0
   40.1690   25.0020   44.0310 H   0  0  0  0  0  0  0  0  0  0  0  0
   38.1180   24.3770   42.3330 C   0  0  0  0  0  0  0  0  0  0  0  0
   36.7980   24.4660   41.5660 C   0  0  0  0  0  0  0  0  0  0  0  0
   38.1230   23.8660   40.9880 C   0  0  0  0  0  0  0  0  0  0  0  0
   38.1060   23.7030   43.2230 H   0  0  0  0  0  0  0  0  0  0  0  0
   36.0320   23.7750   41.9050 H   0  0  0  0  0  0  0  0  0  0  0  0
   36.5210   25.4420   41.1230 H   0  0  0  0  0  0  0  0  0  0  0  0
   38.0490   22.7440   40.8850 H   0  0  0  0  0  0  0  0  0  0  0  0
   38.5520   24.3840   40.1250 H   0  0  0  0  0  0  0  0  0  0  0  0
   39.1670   31.4610   38.7230 C   0  0  0  0  0  0  0  0  0  0  0  0
   38.7130   31.7110   37.4450 C   0  0  0  0  0  0  0  0  0  0  0  0
   37.7040   31.4470   37.1010 H   0  0  0  0  0  0  0  0  0  0  0  0
   39.7250   32.3130   36.7720 N   0  0  0  0  0  0  0  0  0  0  0  0
   39.5460   32.5740   35.7730 H   0  0  0  0  0  0  0  0  0  0  0  0
   40.7750   32.4340   37.6010 C   0  0  0  0  0  0  0  0  0  0  0  0
   41.7150   32.8970   37.2670 H   0  0  0  0  0  0  0  0  0  0  0  0
   40.4490   31.9110   38.8170 N   0  0  0  0  0  0  0  0  0  0  0  0
  1  2  1  0  0  0  0
  1 14  1  0  0  0  0
  2  7  1  0  0  0  0
  3  8  1  0  0  0  0
  3  2  2  0  0  0  0
  4  3  1  0  0  0  0
  5  4  2  0  0  0  0
  5  6  1  0  0  0  0
  6  1  2  0  0  0  0
  9  4  1  0  0  0  0
 10 16  1  0  0  0  0
 11 10  1  0  0  0  0
 11 17  1  0  0  0  0
 12 11  2  0  0  0  0
 13 14  2  0  0  0  0
 13 12  1  0  0  0  0
 14 15  1  0  0  0  0
 15 10  2  0  0  0  0
 18 12  1  0  0  0  0
 18 21  1  0  0  0  0
 19 22  1  0  0  0  0
 19 18  1  0  0  0  0
 20 19  1  0  0  0  0
 20 18  1  0  0  0  0
 23 19  1  0  0  0  0
 24 20  1  0  0  0  0
 25 20  1  0  0  0  0
 26 33  1  0  0  0  0
 26  5  1  0  0  0  0
 27 26  2  0  0  0  0
 28 27  1  0  0  0  0
 29 27  1  0  0  0  0
 29 31  1  0  0  0  0
 30 29  1  0  0  0  0
 31 33  2  0  0  0  0
 32 31  1  0  0  0  0
M  END
>  <minimizedAffinity>
-5.75242376

$$$$

 OpenBabel03252505203D

 33 36  0  0  0  0  0  0  0  0999 V2000
   37.4710   29.6430   40.0370 C   0  0  0  0  0  0  0  0  0  0  0  0
   36.4630   29.4470   39.1130 C   0  0  0  0  0  0  0  0  0  0  0  0
   36.4710   30.1400   37.9230 C   0  0  0  0  0  0  0  0  0  0  0  0
   37.5120   31.0150   37.7100 C   0  0  0  0  0  0  0  0  0  0  0  0
   38.5100   31.1840   38.6670 C   0  0  0  0  0  0  0  0  0  0  0  0
   38.4920   30.4970   39.8360 N   0  0  0  0  0  0  0  0  0  0  0  0
   35.6430   28.7550   39.2880 H   0  0  0  0  0  0  0  0  0  0  0  0
   35.6850   29.9930   37.1920 H   0  0  0  0  0  0  0  0  0  0  0  0
   37.5230   31.5620   36.7750 H   0  0  0  0  0  0  0  0  0  0  0  0
   37.5940   28.7280   43.6110 C   0  0  0  0  0  0  0  0  0  0  0  0
   37.3210   27.3520   43.6160 C   0  0  0  0  0  0  0  0  0  0  0  0
   37.0980   26.7880   42.3800 C   0  0  0  0  0  0  0  0  0  0  0  0
   37.1490   27.5520   41.2430 N   0  0  0  0  0  0  0  0  0  0  0  0
   37.4180   28.8840   41.2890 C   0  0  0  0  0  0  0  0  0  0  0  0
   37.6370   29.4600   42.4740 N   0  0  0  0  0  0  0  0  0  0  0  0
   37.7710   29.2050   44.5500 H   0  0  0  0  0  0  0  0  0  0  0  0
   37.2870   26.7760   44.5180 H   0  0  0  0  0  0  0  0  0  0  0  0
   36.8260   25.3130   42.2530 C   0  0  0  0  0  0  0  0  0  0  0  0
   37.0350   24.7880   40.8330 C   0  0  0  0  0  0  0  0  0  0  0  0
   37.9210   24.4000   42.0630 C   0  0  0  0  0  0  0  0  0  0  0  0
   35.8710   25.0000   42.7400 H   0  0  0  0  0  0  0  0  0  0  0  0
   36.2870   24.0760   40.5000 H   0  0  0  0  0  0  0  0  0  0  0  0
   37.5480   25.4480   40.1070 H   0  0  0  0  0  0  0  0  0  0  0  0
   37.7350   23.3310   42.3770 H   0  0  0  0  0  0  0  0  0  0  0  0
   38.9750   24.6910   42.0120 H   0  0  0  0  0  0  0  0  0  0  0  0
   39.6140   32.1230   38.4240 C   0  0  0  0  0  0  0  0  0  0  0  0
   40.3600   32.1820   37.2640 C   0  0  0  0  0  0  0  0  0  0  0  0
   40.1920   31.5200   36.4040 H   0  0  0  0  0  0  0  0  0  0  0  0
   41.2730   33.1710   37.4270 N   0  0  0  0  0  0  0  0  0  0  0  0
   41.9300   33.3520   36.6300 H   0  0  0  0  0  0  0  0  0  0  0  0
   41.1040   33.7110   38.6460 C   0  0  0  0  0  0  0  0  0  0  0  0
   41.7390   34.5370   38.9980 H   0  0  0  0  0  0  0  0  0  0  0  0
   40.0790   33.0740   39.2800 N   0  0  0  0  0  0  0  0  0  0  0  0
  1 14  1  0  0  0  0
  2  7  1  0  0  0  0
  2  1  2  0  0  0  0
  3  2  1  0  0  0  0
  4  3  2  0  0  0  0
  4  5  1  0  0  0  0
  5  6  2  0  0  0  0
  6  1  1  0  0  0  0
  8  3  1  0  0  0  0
  9  4  1  0  0  0  0
 10 11  1  0  0  0  0
 10 16  1  0  0  0  0
 11 17  1  0  0  0  0
 12 11  2  0  0  0  0
 13 14  2  0  0  0  0
 13 12  1  0  0  0  0
 14 15  1  0  0  0  0
 15 10  2  0  0  0  0
 18 12  1  0  0  0  0
 18 21  1  0  0  0  0
 19 20  1  0  0  0  0
 19 18  1  0  0  0  0
 20 18  1  0  0  0  0
 20 24  1  0  0  0  0
 22 19  1  0  0  0  0
 23 19  1  0  0  0  0
 25 20  1  0  0  0  0
 26  5  1  0  0  0  0
 26 33  1  0  0  0  0
 27 29  1  0  0  0  0
 27 26  2  0  0  0  0
 28 27  1  0  0  0  0
 29 31  1  0  0  0  0
 30 29  1  0  0  0  0
 31 32  1  0  0  0  0
 31 33  2  0  0  0  0
M  END
>  <minimizedAffinity>
-5.59477568

$$$$

 OpenBabel03252505203D

 33 36  0  0  0  0  0  0  0  0999 V2000
   38.5820   31.8390   40.0360 C   0  0  0  0  0  0  0  0  0  0  0  0
   38.4210   33.0870   40.6050 C   0  0  0  0  0  0  0  0  0  0  0  0
   39.3080   34.1000   40.3130 C   0  0  0  0  0  0  0  0  0  0  0  0
   40.3360   33.8060   39.4470 C   0  0  0  0  0  0  0  0  0  0  0  0
   40.4630   32.5340   38.8940 C   0  0  0  0  0  0  0  0  0  0  0  0
   39.5850   31.5450   39.1880 N   0  0  0  0  0  0  0  0  0  0  0  0
   37.6060   33.3120   41.2900 H   0  0  0  0  0  0  0  0  0  0  0  0
   39.1900   35.0820   40.7550 H   0  0  0  0  0  0  0  0  0  0  0  0
   41.0360   34.5990   39.2140 H   0  0  0  0  0  0  0  0  0  0  0  0
   35.5160   29.7870   40.1870 C   0  0  0  0  0  0  0  0  0  0  0  0
   35.8300   28.7810   41.1120 C   0  0  0  0  0  0  0  0  0  0  0  0
   37.0960   28.8440   41.6500 C   0  0  0  0  0  0  0  0  0  0  0  0
   37.9630   29.8390   41.2810 N   0  0  0  0  0  0  0  0  0  0  0  0
   37.6130   30.7930   40.3780 C   0  0  0  0  0  0  0  0  0  0  0  0
   36.3920   30.7580   39.8390 N   0  0  0  0  0  0  0  0  0  0  0  0
   34.5440   29.7740   39.7450 H   0  0  0  0  0  0  0  0  0  0  0  0
   35.1350   28.0140   41.3840 H   0  0  0  0  0  0  0  0  0  0  0  0
   37.5380   27.8380   42.6780 C   0  0  0  0  0  0  0  0  0  0  0  0
   36.4120   27.4140   43.6220 C   0  0  0  0  0  0  0  0  0  0  0  0
   37.0960   26.4730   42.5760 C   0  0  0  0  0  0  0  0  0  0  0  0
   38.4980   28.1140   43.1770 H   0  0  0  0  0  0  0  0  0  0  0  0
   36.7070   27.3190   44.6610 H   0  0  0  0  0  0  0  0  0  0  0  0
   35.3770   27.6990   43.3520 H   0  0  0  0  0  0  0  0  0  0  0  0
   37.7450   25.7030   43.0860 H   0  0  0  0  0  0  0  0  0  0  0  0
   36.4530   26.0820   41.7810 H   0  0  0  0  0  0  0  0  0  0  0  0
   41.5680   32.2380   37.9700 C   0  0  0  0  0  0  0  0  0  0  0  0
   42.5480   33.1350   37.5990 C   0  0  0  0  0  0  0  0  0  0  0  0
   42.5920   34.1690   37.9660 H   0  0  0  0  0  0  0  0  0  0  0  0
   43.3770   32.4880   36.7430 N   0  0  0  0  0  0  0  0  0  0  0  0
   44.1880   33.0310   36.3590 H   0  0  0  0  0  0  0  0  0  0  0  0
   42.9300   31.2300   36.5850 C   0  0  0  0  0  0  0  0  0  0  0  0
   43.4510   30.5170   35.9290 H   0  0  0  0  0  0  0  0  0  0  0  0
   41.8080   31.0550   37.3390 N   0  0  0  0  0  0  0  0  0  0  0  0
  1 14  1  0  0  0  0
  1  2  1  0  0  0  0
  2  7  1  0  0  0  0
  3  2  2  0  0  0  0
  3  8  1  0  0  0  0
  4  3  1  0  0  0  0
  5  6  1  0  0  0  0
  5  4  2  0  0  0  0
  6  1  2  0  0  0  0
  9  4  1  0  0  0  0
 10 11  1  0  0  0  0
 11 17  1  0  0  0  0
 11 12  2  0  0  0  0
 12 18  1  0  0  0  0
 13 12  1  0  0  0  0
 14 13  2  0  0  0  0
 15 10  2  0  0  0  0
 15 14  1  0  0  0  0
 16 10  1  0  0  0  0
 18 21  1  0  0  0  0
 18 19  1  0  0  0  0
 19 22  1  0  0  0  0
 20 18  1  0  0  0  0
 20 24  1  0  0  0  0
 20 19  1  0  0  0  0
 23 19  1  0  0  0  0
 25 20  1  0  0  0  0
 26  5  1  0  0  0  0
 27 28  1  0  0  0  0
 27 26  2  0  0  0  0
 29 27  1  0  0  0  0
 30 29  1  0  0  0  0
 31 29  1  0  0  0  0
 31 33  2  0  0  0  0
 32 31  1  0  0  0  0
 33 26  1  0  0  0  0
M  END
>  <minimizedAffinity>
-5.44229126

$$$$

 OpenBabel03252505203D

 33 36  0  0  0  0  0  0  0  0999 V2000
   37.9990   28.7530   41.8300 C   0  0  0  0  0  0  0  0  0  0  0  0
   36.7260   28.2710   41.6010 C   0  0  0  0  0  0  0  0  0  0  0  0
   35.7760   29.0770   41.0130 C   0  0  0  0  0  0  0  0  0  0  0  0
   36.1560   30.3560   40.6760 C   0  0  0  0  0  0  0  0  0  0  0  0
   37.4520   30.8040   40.9240 C   0  0  0  0  0  0  0  0  0  0  0  0
   38.3790   30.0030   41.5030 N   0  0  0  0  0  0  0  0  0  0  0  0
   36.4310   27.2590   41.8710 H   0  0  0  0  0  0  0  0  0  0  0  0
   34.7740   28.7070   40.8300 H   0  0  0  0  0  0  0  0  0  0  0  0
   35.4140   30.9940   40.2140 H   0  0  0  0  0  0  0  0  0  0  0  0
   39.5960   25.7950   43.3560 C   0  0  0  0  0  0  0  0  0  0  0  0
   40.8870   26.2390   43.6800 C   0  0  0  0  0  0  0  0  0  0  0  0
   41.1630   27.5480   43.3540 C   0  0  0  0  0  0  0  0  0  0  0  0
   40.2140   28.3330   42.7540 N   0  0  0  0  0  0  0  0  0  0  0  0
   38.9740   27.8580   42.4590 C   0  0  0  0  0  0  0  0  0  0  0  0
   38.6780   26.5920   42.7630 N   0  0  0  0  0  0  0  0  0  0  0  0
   39.3420   24.7850   43.5920 H   0  0  0  0  0  0  0  0  0  0  0  0
   41.6120   25.6050   44.1480 H   0  0  0  0  0  0  0  0  0  0  0  0
   42.5040   28.1480   43.6800 C   0  0  0  0  0  0  0  0  0  0  0  0
   43.3930   28.3250   42.4480 C   0  0  0  0  0  0  0  0  0  0  0  0
   42.7940   29.5010   43.2880 C   0  0  0  0  0  0  0  0  0  0  0  0
   42.9980   27.6660   44.5580 H   0  0  0  0  0  0  0  0  0  0  0  0
   44.4360   28.0680   42.6050 H   0  0  0  0  0  0  0  0  0  0  0  0
   42.9260   28.2080   41.4520 H   0  0  0  0  0  0  0  0  0  0  0  0
   43.5970   30.0270   43.8820 H   0  0  0  0  0  0  0  0  0  0  0  0
   42.0960   30.1630   42.7650 H   0  0  0  0  0  0  0  0  0  0  0  0
   37.8410   32.1730   40.5580 C   0  0  0  0  0  0  0  0  0  0  0  0
   37.2430   32.9270   39.5690 C   0  0  0  0  0  0  0  0  0  0  0  0
   36.4070   32.5640   38.9560 H   0  0  0  0  0  0  0  0  0  0  0  0
   37.8800   34.1240   39.5380 N   0  0  0  0  0  0  0  0  0  0  0  0
   37.5470   34.8250   38.8340 H   0  0  0  0  0  0  0  0  0  0  0  0
   38.8430   34.1180   40.4760 C   0  0  0  0  0  0  0  0  0  0  0  0
   39.4930   34.9910   40.6320 H   0  0  0  0  0  0  0  0  0  0  0  0
   38.8350   32.9160   41.1190 N   0  0  0  0  0  0  0  0  0  0  0  0
  1 14  1  0  0  0  0
  2  1  1  0  0  0  0
  2  7  1  0  0  0  0
  3  2  2  0  0  0  0
  4  5  2  0  0  0  0
  4  3  1  0  0  0  0
  5  6  1  0  0  0  0
  6  1  2  0  0  0  0
  8  3  1  0  0  0  0
  9  4  1  0  0  0  0
 10 16  1  0  0  0  0
 10 11  1  0  0  0  0
 11 17  1  0  0  0  0
 12 11  2  0  0  0  0
 12 18  1  0  0  0  0
 13 12  1  0  0  0  0
 14 13  2  0  0  0  0
 14 15  1  0  0  0  0
 15 10  2  0  0  0  0
 18 21  1  0  0  0  0
 19 22  1  0  0  0  0
 19 20  1  0  0  0  0
 19 18  1  0  0  0  0
 20 18  1  0  0  0  0
 20 24  1  0  0  0  0
 23 19  1  0  0  0  0
 25 20  1  0  0  0  0
 26  5  1  0  0  0  0
 26 33  1  0  0  0  0
 27 26  2  0  0  0  0
 28 27  1  0  0  0  0
 29 27  1  0  0  0  0
 29 31  1  0  0  0  0
 30 29  1  0  0  0  0
 31 32  1  0  0  0  0
 31 33  2  0  0  0  0
M  END
>  <minimizedAffinity>
-5.30683994

$$$$

 OpenBabel03252505203D

 33 36  0  0  0  0  0  0  0  0999 V2000
   37.8860   30.3580   40.5280 C   0  0  0  0  0  0  0  0  0  0  0  0
   36.8880   31.3110   40.4790 C   0  0  0  0  0  0  0  0  0  0  0  0
   37.0000   32.3880   39.6280 C   0  0  0  0  0  0  0  0  0  0  0  0
   38.1330   32.4600   38.8490 C   0  0  0  0  0  0  0  0  0  0  0  0
   39.1170   31.4770   38.9280 C   0  0  0  0  0  0  0  0  0  0  0  0
   38.9960   30.4220   39.7700 N   0  0  0  0  0  0  0  0  0  0  0  0
   35.9950   31.2490   41.0980 H   0  0  0  0  0  0  0  0  0  0  0  0
   36.2220   33.1410   39.5820 H   0  0  0  0  0  0  0  0  0  0  0  0
   38.2260   33.3040   38.1780 H   0  0  0  0  0  0  0  0  0  0  0  0
   37.4580   28.3480   43.5950 C   0  0  0  0  0  0  0  0  0  0  0  0
   37.4390   27.0240   43.1300 C   0  0  0  0  0  0  0  0  0  0  0  0
   37.5700   26.8730   41.7680 C   0  0  0  0  0  0  0  0  0  0  0  0
   37.7080   27.9670   40.9530 N   0  0  0  0  0  0  0  0  0  0  0  0
   37.7210   29.2320   41.4510 C   0  0  0  0  0  0  0  0  0  0  0  0
   37.5950   29.4100   42.7680 N   0  0  0  0  0  0  0  0  0  0  0  0
   37.3580   28.5090   44.6460 H   0  0  0  0  0  0  0  0  0  0  0  0
   37.3290   26.1860   43.7870 H   0  0  0  0  0  0  0  0  0  0  0  0
   37.5950   25.5000   41.1530 C   0  0  0  0  0  0  0  0  0  0  0  0
   38.3030   24.4660   42.0300 C   0  0  0  0  0  0  0  0  0  0  0  0
   36.7730   24.4560   41.7030 C   0  0  0  0  0  0  0  0  0  0  0  0
   37.9060   25.5050   40.0800 H   0  0  0  0  0  0  0  0  0  0  0  0
   38.9430   23.7780   41.4880 H   0  0  0  0  0  0  0  0  0  0  0  0
   38.5320   24.7460   43.0760 H   0  0  0  0  0  0  0  0  0  0  0  0
   36.5120   23.6100   41.0030 H   0  0  0  0  0  0  0  0  0  0  0  0
   36.0950   24.5790   42.5550 H   0  0  0  0  0  0  0  0  0  0  0  0
   40.3210   31.5700   38.0900 C   0  0  0  0  0  0  0  0  0  0  0  0
   40.8960   32.7490   37.6620 C   0  0  0  0  0  0  0  0  0  0  0  0
   40.4990   33.7410   37.9140 H   0  0  0  0  0  0  0  0  0  0  0  0
   41.9800   32.4160   36.9180 N   0  0  0  0  0  0  0  0  0  0  0  0
   42.5400   33.2030   36.5100 H   0  0  0  0  0  0  0  0  0  0  0  0
   42.0780   31.0770   36.8830 C   0  0  0  0  0  0  0  0  0  0  0  0
   42.8900   30.5780   36.3320 H   0  0  0  0  0  0  0  0  0  0  0  0
   41.0580   30.5330   37.6040 N   0  0  0  0  0  0  0  0  0  0  0  0
  1 14  1  0  0  0  0
  2  1  1  0  0  0  0
  2  7  1  0  0  0  0
  3  2  2  0  0  0  0
  4  5  2  0  0  0  0
  4  3  1  0  0  0  0
  5  6  1  0  0  0  0
  6  1  2  0  0  0  0
  8  3  1  0  0  0  0
  9  4  1  0  0  0  0
 10 16  1  0  0  0  0
 11 10  1  0  0  0  0
 11 17  1  0  0  0  0
 12 11  2  0  0  0  0
 13 14  2  0  0  0  0
 13 12  1  0  0  0  0
 14 15  1  0  0  0  0
 15 10  2  0  0  0  0
 18 20  1  0  0  0  0
 18 12  1  0  0  0  0
 18 19  1  0  0  0  0
 19 23  1  0  0  0  0
 20 19  1  0  0  0  0
 20 25  1  0  0  0  0
 21 18  1  0  0  0  0
 22 19  1  0  0  0  0
 24 20  1  0  0  0  0
 26  5  1  0  0  0  0
 27 28  1  0  0  0  0
 27 26  2  0  0  0  0
 29 27  1  0  0  0  0
 30 29  1  0  0  0  0
 31 29  1  0  0  0  0
 31 33  2  0  0  0  0
 32 31  1  0  0  0  0
 33 26  1  0  0  0  0
M  END
>  <minimizedAffinity>
-5.30025148

$$$$

 OpenBabel03252505203D

 33 36  0  0  0  0  0  0  0  0999 V2000
   37.4980   28.9970   41.3850 C   0  0  0  0  0  0  0  0  0  0  0  0
   37.5540   29.3280   42.7240 C   0  0  0  0  0  0  0  0  0  0  0  0
   37.6430   28.3390   43.6780 C   0  0  0  0  0  0  0  0  0  0  0  0
   37.6730   27.0370   43.2350 C   0  0  0  0  0  0  0  0  0  0  0  0
   37.6150   26.7440   41.8740 C   0  0  0  0  0  0  0  0  0  0  0  0
   37.5270   27.7260   40.9430 N   0  0  0  0  0  0  0  0  0  0  0  0
   37.5290   30.3600   43.0680 H   0  0  0  0  0  0  0  0  0  0  0  0
   37.6870   28.5890   44.7320 H   0  0  0  0  0  0  0  0  0  0  0  0
   37.7440   26.2550   43.9800 H   0  0  0  0  0  0  0  0  0  0  0  0
   37.2620   32.3480   39.8520 C   0  0  0  0  0  0  0  0  0  0  0  0
   37.1920   32.0840   38.4760 C   0  0  0  0  0  0  0  0  0  0  0  0
   37.2340   30.7530   38.1240 C   0  0  0  0  0  0  0  0  0  0  0  0
   37.3370   29.7800   39.0840 N   0  0  0  0  0  0  0  0  0  0  0  0
   37.4020   30.0850   40.4070 C   0  0  0  0  0  0  0  0  0  0  0  0
   37.3650   31.3670   40.7790 N   0  0  0  0  0  0  0  0  0  0  0  0
   37.2330   33.3670   40.1670 H   0  0  0  0  0  0  0  0  0  0  0  0
   37.1110   32.8620   37.7450 H   0  0  0  0  0  0  0  0  0  0  0  0
   37.1350   30.3430   36.6800 C   0  0  0  0  0  0  0  0  0  0  0  0
   37.5510   28.8910   36.4420 C   0  0  0  0  0  0  0  0  0  0  0  0
   36.0960   29.4390   36.2650 C   0  0  0  0  0  0  0  0  0  0  0  0
   37.5860   31.0880   35.9810 H   0  0  0  0  0  0  0  0  0  0  0  0
   38.1470   28.7340   35.5490 H   0  0  0  0  0  0  0  0  0  0  0  0
   37.6750   28.2370   37.3260 H   0  0  0  0  0  0  0  0  0  0  0  0
   35.8080   29.4830   35.1740 H   0  0  0  0  0  0  0  0  0  0  0  0
   35.3350   29.0160   36.9280 H   0  0  0  0  0  0  0  0  0  0  0  0
   37.6480   25.3480   41.4170 C   0  0  0  0  0  0  0  0  0  0  0  0
   37.9960   24.2680   42.2030 C   0  0  0  0  0  0  0  0  0  0  0  0
   38.2860   24.3580   43.2580 H   0  0  0  0  0  0  0  0  0  0  0  0
   37.9030   23.1620   41.4240 N   0  0  0  0  0  0  0  0  0  0  0  0
   38.1370   22.2420   41.8700 H   0  0  0  0  0  0  0  0  0  0  0  0
   37.5090   23.5370   40.1960 C   0  0  0  0  0  0  0  0  0  0  0  0
   37.3660   22.8000   39.3920 H   0  0  0  0  0  0  0  0  0  0  0  0
   37.3460   24.8900   40.1710 N   0  0  0  0  0  0  0  0  0  0  0  0
  1  2  1  0  0  0  0
  2  7  1  0  0  0  0
  2  3  2  0  0  0  0
  3  8  1  0  0  0  0
  4  3  1  0  0  0  0
  4  9  1  0  0  0  0
  5  4  2  0  0  0  0
  6  1  2  0  0  0  0
  6  5  1  0  0  0  0
 10 16  1  0  0  0  0
 10 15  1  0  0  0  0
 11 10  2  0  0  0  0
 12 11  1  0  0  0  0
 12 13  2  0  0  0  0
 13 14  1  0  0  0  0
 14 15  2  0  0  0  0
 14  1  1  0  0  0  0
 17 11  1  0  0  0  0
 18 12  1  0  0  0  0
 19 18  1  0  0  0  0
 19 23  1  0  0  0  0
 20 19  1  0  0  0  0
 20 18  1  0  0  0  0
 20 25  1  0  0  0  0
 21 18  1  0  0  0  0
 22 19  1  0  0  0  0
 24 20  1  0  0  0  0
 26  5  1  0  0  0  0
 26 27  2  0  0  0  0
 27 28  1  0  0  0  0
 29 30  1  0  0  0  0
 29 27  1  0  0  0  0
 31 29  1  0  0  0  0
 32 31  1  0  0  0  0
 33 31  2  0  0  0  0
 33 26  1  0  0  0  0
M  END
>  <minimizedAffinity>
-5.27259541

$$$$

 OpenBabel03252505203D

 33 36  0  0  0  0  0  0  0  0999 V2000
   37.2810   27.0440   41.5380 C   0  0  0  0  0  0  0  0  0  0  0  0
   37.7160   26.7890   42.8230 C   0  0  0  0  0  0  0  0  0  0  0  0
   38.1320   27.8250   43.6310 C   0  0  0  0  0  0  0  0  0  0  0  0
   38.0900   29.0940   43.0990 C   0  0  0  0  0  0  0  0  0  0  0  0
   37.6430   29.3080   41.7980 C   0  0  0  0  0  0  0  0  0  0  0  0
   37.2370   28.2820   41.0110 N   0  0  0  0  0  0  0  0  0  0  0  0
   37.7480   25.7830   43.2370 H   0  0  0  0  0  0  0  0  0  0  0  0
   38.4750   27.6350   44.6410 H   0  0  0  0  0  0  0  0  0  0  0  0
   38.4150   29.9120   43.7300 H   0  0  0  0  0  0  0  0  0  0  0  0
   36.5350   23.6220   40.3670 C   0  0  0  0  0  0  0  0  0  0  0  0
   36.0330   23.8130   39.0710 C   0  0  0  0  0  0  0  0  0  0  0  0
   35.9650   25.1200   38.6480 C   0  0  0  0  0  0  0  0  0  0  0  0
   36.3700   26.1420   39.4660 N   0  0  0  0  0  0  0  0  0  0  0  0
   36.8510   25.9080   40.7170 C   0  0  0  0  0  0  0  0  0  0  0  0
   36.9280   24.6500   41.1550 N   0  0  0  0  0  0  0  0  0  0  0  0
   36.6030   22.6220   40.7350 H   0  0  0  0  0  0  0  0  0  0  0  0
   35.7220   22.9970   38.4500 H   0  0  0  0  0  0  0  0  0  0  0  0
   35.4730   25.4490   37.2640 C   0  0  0  0  0  0  0  0  0  0  0  0
   34.4820   26.6130   37.2440 C   0  0  0  0  0  0  0  0  0  0  0  0
   35.9150   26.6550   36.6170 C   0  0  0  0  0  0  0  0  0  0  0  0
   35.1580   24.5470   36.6850 H   0  0  0  0  0  0  0  0  0  0  0  0
   33.6380   26.4760   36.5750 H   0  0  0  0  0  0  0  0  0  0  0  0
   34.3810   27.2220   38.1630 H   0  0  0  0  0  0  0  0  0  0  0  0
   35.8650   26.6590   35.4890 H   0  0  0  0  0  0  0  0  0  0  0  0
   36.6130   27.3770   37.0530 H   0  0  0  0  0  0  0  0  0  0  0  0
   37.6050   30.6700   41.2460 C   0  0  0  0  0  0  0  0  0  0  0  0
   36.4740   31.2960   40.7650 C   0  0  0  0  0  0  0  0  0  0  0  0
   35.4820   30.8240   40.7520 H   0  0  0  0  0  0  0  0  0  0  0  0
   36.8470   32.5310   40.3490 N   0  0  0  0  0  0  0  0  0  0  0  0
   36.1000   33.1480   39.9490 H   0  0  0  0  0  0  0  0  0  0  0  0
   38.1670   32.6720   40.5620 C   0  0  0  0  0  0  0  0  0  0  0  0
   38.6920   33.6020   40.2980 H   0  0  0  0  0  0  0  0  0  0  0  0
   38.6550   31.5280   41.1180 N   0  0  0  0  0  0  0  0  0  0  0  0
  1  2  1  0  0  0  0
  2  7  1  0  0  0  0
  2  3  2  0  0  0  0
  3  8  1  0  0  0  0
  4  3  1  0  0  0  0
  4  9  1  0  0  0  0
  5  4  2  0  0  0  0
  6  1  2  0  0  0  0
  6  5  1  0  0  0  0
 10 16  1  0  0  0  0
 10 15  1  0  0  0  0
 11 10  2  0  0  0  0
 12 11  1  0  0  0  0
 12 13  2  0  0  0  0
 13 14  1  0  0  0  0
 14 15  2  0  0  0  0
 14  1  1  0  0  0  0
 17 11  1  0  0  0  0
 18 12  1  0  0  0  0
 19 18  1  0  0  0  0
 19 23  1  0  0  0  0
 20 25  1  0  0  0  0
 20 19  1  0  0  0  0
 20 18  1  0  0  0  0
 21 18  1  0  0  0  0
 22 19  1  0  0  0  0
 24 20  1  0  0  0  0
 26  5  1  0  0  0  0
 27 26  2  0  0  0  0
 28 27  1  0  0  0  0
 29 31  1  0  0  0  0
 29 27  1  0  0  0  0
 30 29  1  0  0  0  0
 31 33  2  0  0  0  0
 32 31  1  0  0  0  0
 33 26  1  0  0  0  0
M  END
>  <minimizedAffinity>
-5.26085758

$$$$

 OpenBabel03252505203D

 33 36  0  0  0  0  0  0  0  0999 V2000
   37.9540   30.7100   41.1330 C   0  0  0  0  0  0  0  0  0  0  0  0
   36.9060   31.3730   40.5270 C   0  0  0  0  0  0  0  0  0  0  0  0
   37.1200   32.5830   39.9050 C   0  0  0  0  0  0  0  0  0  0  0  0
   38.4030   33.0810   39.9210 C   0  0  0  0  0  0  0  0  0  0  0  0
   39.4330   32.3800   40.5440 C   0  0  0  0  0  0  0  0  0  0  0  0
   39.2110   31.1900   41.1530 N   0  0  0  0  0  0  0  0  0  0  0  0
   35.8940   30.9740   40.5180 H   0  0  0  0  0  0  0  0  0  0  0  0
   36.3040   33.1120   39.4260 H   0  0  0  0  0  0  0  0  0  0  0  0
   38.5780   34.0320   39.4340 H   0  0  0  0  0  0  0  0  0  0  0  0
   37.4330   28.0870   43.6790 C   0  0  0  0  0  0  0  0  0  0  0  0
   37.1590   26.9360   42.9260 C   0  0  0  0  0  0  0  0  0  0  0  0
   37.1600   27.1080   41.5600 C   0  0  0  0  0  0  0  0  0  0  0  0
   37.4150   28.3370   41.0100 N   0  0  0  0  0  0  0  0  0  0  0  0
   37.6750   29.4260   41.7830 C   0  0  0  0  0  0  0  0  0  0  0  0
   37.6810   29.2900   43.1110 N   0  0  0  0  0  0  0  0  0  0  0  0
   37.4410   27.9970   44.7430 H   0  0  0  0  0  0  0  0  0  0  0  0
   36.9630   25.9860   43.3790 H   0  0  0  0  0  0  0  0  0  0  0  0
   36.9110   25.9390   40.6450 C   0  0  0  0  0  0  0  0  0  0  0  0
   38.1500   25.0690   40.4380 C   0  0  0  0  0  0  0  0  0  0  0  0
   36.8560   24.6080   41.1870 C   0  0  0  0  0  0  0  0  0  0  0  0
   36.3670   26.2220   39.7110 H   0  0  0  0  0  0  0  0  0  0  0  0
   38.2970   24.7270   39.4190 H   0  0  0  0  0  0  0  0  0  0  0  0
   39.0160   25.2340   41.1080 H   0  0  0  0  0  0  0  0  0  0  0  0
   36.2830   23.8490   40.5780 H   0  0  0  0  0  0  0  0  0  0  0  0
   36.9710   24.3600   42.2470 H   0  0  0  0  0  0  0  0  0  0  0  0
   40.7970   32.9270   40.5530 C   0  0  0  0  0  0  0  0  0  0  0  0
   41.8130   32.5020   41.3840 C   0  0  0  0  0  0  0  0  0  0  0  0
   41.6910   31.7030   42.1280 H   0  0  0  0  0  0  0  0  0  0  0  0
   42.9080   33.2450   41.0890 N   0  0  0  0  0  0  0  0  0  0  0  0
   43.7810   33.0500   41.6360 H   0  0  0  0  0  0  0  0  0  0  0  0
   42.5880   34.1040   40.1060 C   0  0  0  0  0  0  0  0  0  0  0  0
   43.3270   34.8120   39.7020 H   0  0  0  0  0  0  0  0  0  0  0  0
   41.2820   33.9230   39.7600 N   0  0  0  0  0  0  0  0  0  0  0  0
  1  6  1  0  0  0  0
  1 14  1  0  0  0  0
  2  1  2  0  0  0  0
  3  4  2  0  0  0  0
  3  2  1  0  0  0  0
  4  5  1  0  0  0  0
  5 26  1  0  0  0  0
  5  6  2  0  0  0  0
  7  2  1  0  0  0  0
  8  3  1  0  0  0  0
  9  4  1  0  0  0  0
 10 16  1  0  0  0  0
 11 17  1  0  0  0  0
 11 10  2  0  0  0  0
 12 11  1  0  0  0  0
 13 12  2  0  0  0  0
 13 14  1  0  0  0  0
 14 15  2  0  0  0  0
 15 10  1  0  0  0  0
 18 20  1  0  0  0  0
 18 12  1  0  0  0  0
 19 18  1  0  0  0  0
 19 23  1  0  0  0  0
 19 20  1  0  0  0  0
 20 25  1  0  0  0  0
 21 18  1  0  0  0  0
 22 19  1  0  0  0  0
 24 20  1  0  0  0  0
 26 27  2  0  0  0  0
 27 28  1  0  0  0  0
 29 27  1  0  0  0  0
 29 30  1  0  0  0  0
 31 29  1  0  0  0  0
 32 31  1  0  0  0  0
 33 31  2  0  0  0  0
 33 26  1  0  0  0  0
M  END
>  <minimizedAffinity>
-5.24574566

$$$$
