
 OpenBabel03242516223D

 28 30  0  0  0  0  0  0  0  0999 V2000
   46.0660   32.7140   46.9560 C   0  0  0  0  0  0  0  0  0  0  0  0
   47.2100   31.9630   47.1090 C   0  0  0  0  0  0  0  0  0  0  0  0
   47.3780   31.1360   48.2090 C   0  0  0  0  0  0  0  0  0  0  0  0
   46.4070   31.0400   49.1850 C   0  0  0  0  0  0  0  0  0  0  0  0
   45.2760   31.7730   49.0470 C   0  0  0  0  0  0  0  0  0  0  0  0
   45.1100   32.6000   47.9440 C   0  0  0  0  0  0  0  0  0  0  0  0
   47.9790   32.0390   46.3360 H   0  0  0  0  0  0  0  0  0  0  0  0
   46.6230   30.3700   50.0100 H   0  0  0  0  0  0  0  0  0  0  0  0
   44.5350   31.6750   49.8290 H   0  0  0  0  0  0  0  0  0  0  0  0
   44.1900   33.1820   47.8540 H   0  0  0  0  0  0  0  0  0  0  0  0
   44.7210   35.3740   44.8400 C   0  0  0  0  0  0  0  0  0  0  0  0
   45.4540   35.2830   43.6700 C   0  0  0  0  0  0  0  0  0  0  0  0
   46.4270   34.2910   43.6090 C   0  0  0  0  0  0  0  0  0  0  0  0
   46.6480   33.4390   44.6680 N   0  0  0  0  0  0  0  0  0  0  0  0
   45.8820   33.5850   45.7990 C   0  0  0  0  0  0  0  0  0  0  0  0
   44.9270   34.5470   45.8800 N   0  0  0  0  0  0  0  0  0  0  0  0
   43.9800   36.1620   44.8330 H   0  0  0  0  0  0  0  0  0  0  0  0
   45.3720   35.8850   42.7900 H   0  0  0  0  0  0  0  0  0  0  0  0
   47.1010   34.0520   42.7970 H   0  0  0  0  0  0  0  0  0  0  0  0
   48.8980   30.1940   48.3300 S   0  0  0  0  0  0  0  0  0  0  0  0
   49.7930   30.6370   49.8220 C   0  0  0  0  0  0  0  0  0  0  0  0
   50.1170   29.8740   50.9090 C   0  0  0  0  0  0  0  0  0  0  0  0
   49.8130   28.8190   50.9400 H   0  0  0  0  0  0  0  0  0  0  0  0
   50.8010   30.6470   51.7900 N   0  0  0  0  0  0  0  0  0  0  0  0
   51.1450   30.2630   52.6900 H   0  0  0  0  0  0  0  0  0  0  0  0
   50.9030   31.8890   51.2510 C   0  0  0  0  0  0  0  0  0  0  0  0
   51.4140   32.7160   51.7610 H   0  0  0  0  0  0  0  0  0  0  0  0
   50.2830   31.8870   50.0380 N   0  0  0  0  0  0  0  0  0  0  0  0
  1  2  2  0  0  0  0
  1  6  1  0  0  0  0
  2  3  1  0  0  0  0
  3 20  1  0  0  0  0
  3  4  2  0  0  0  0
  4  8  1  0  0  0  0
  5  4  1  0  0  0  0
  5  9  1  0  0  0  0
  6  5  2  0  0  0  0
  7  2  1  0  0  0  0
 10  6  1  0  0  0  0
 11 16  1  0  0  0  0
 12 11  2  0  0  0  0
 13 12  1  0  0  0  0
 13 14  2  0  0  0  0
 14 15  1  0  0  0  0
 15 16  2  0  0  0  0
 15  1  1  0  0  0  0
 17 11  1  0  0  0  0
 18 12  1  0  0  0  0
 19 13  1  0  0  0  0
 20 21  1  0  0  0  0
 21 28  1  0  0  0  0
 21 22  2  0  0  0  0
 22 23  1  0  0  0  0
 22 24  1  0  0  0  0
 24 25  1  0  0  0  0
 26 27  1  0  0  0  0
 26 24  1  0  0  0  0
 28 26  2  0  0  0  0
M  END
>  <minimizedAffinity>
-5.8284235

>  <minimizedRMSD>
1.33606052

$$$$
