
 OpenBabel03252509213D

 24 26  0  0  0  0  0  0  0  0999 V2000
   36.2930   27.7960   39.2450 C   0  0  0  0  0  0  0  0  0  0  0  0
   36.9020   28.4300   40.3380 C   0  0  0  0  0  0  0  0  0  0  0  0
   37.4480   27.5770   41.2740 C   0  0  0  0  0  0  0  0  0  0  0  0
   37.3640   26.2090   41.0930 N   0  0  0  0  0  0  0  0  0  0  0  0
   36.7680   25.6530   40.0280 C   0  0  0  0  0  0  0  0  0  0  0  0
   36.2390   26.4740   39.1160 N   0  0  0  0  0  0  0  0  0  0  0  0
   35.8150   28.3140   38.4150 H   0  0  0  0  0  0  0  0  0  0  0  0
   36.8120   24.5860   40.0790 H   0  0  0  0  0  0  0  0  0  0  0  0
   38.2540   28.1450   42.4220 C   0  0  0  0  0  0  0  0  0  0  0  0
   37.3840   28.2230   43.6790 C   0  0  0  0  0  0  0  0  0  0  0  0
   38.5910   27.2590   43.5190 C   0  0  0  0  0  0  0  0  0  0  0  0
   38.6350   29.1690   42.2300 H   0  0  0  0  0  0  0  0  0  0  0  0
   36.4250   27.6720   43.7180 H   0  0  0  0  0  0  0  0  0  0  0  0
   37.4970   29.0520   44.3700 H   0  0  0  0  0  0  0  0  0  0  0  0
   39.4790   27.5790   44.1340 H   0  0  0  0  0  0  0  0  0  0  0  0
   38.3980   26.1870   43.4530 H   0  0  0  0  0  0  0  0  0  0  0  0
   36.8770   29.8740   40.3570 C   0  0  0  0  0  0  0  0  0  0  0  0
   36.2120   30.8500   41.0210 C   0  0  0  0  0  0  0  0  0  0  0  0
   35.4850   30.7340   41.7770 H   0  0  0  0  0  0  0  0  0  0  0  0
   36.5360   32.0750   40.5960 N   0  0  0  0  0  0  0  0  0  0  0  0
   36.1910   33.0020   40.9160 H   0  0  0  0  0  0  0  0  0  0  0  0
   37.4370   31.9070   39.6280 C   0  0  0  0  0  0  0  0  0  0  0  0
   37.9620   32.6260   39.0140 H   0  0  0  0  0  0  0  0  0  0  0  0
   37.6240   30.5970   39.5020 N   0  0  0  0  0  0  0  0  0  0  0  0
  1  2  1  0  0  0  0
  2 17  1  0  0  0  0
  2  3  2  0  0  0  0
  3  9  1  0  0  0  0
  4  3  1  0  0  0  0
  5  8  1  0  0  0  0
  5  4  2  0  0  0  0
  6  1  2  0  0  0  0
  6  5  1  0  0  0  0
  7  1  1  0  0  0  0
  9 11  1  0  0  0  0
  9 10  1  0  0  0  0
 10 13  1  0  0  0  0
 10 14  1  0  0  0  0
 11 10  1  0  0  0  0
 11 15  1  0  0  0  0
 12  9  1  0  0  0  0
 16 11  1  0  0  0  0
 17 18  2  0  0  0  0
 18 19  1  0  0  0  0
 20 21  1  0  0  0  0
 20 18  1  0  0  0  0
 22 20  1  0  0  0  0
 23 22  1  0  0  0  0
 24 22  2  0  0  0  0
 24 17  1  0  0  0  0
M  END
>  <minimizedAffinity>
-4.24219704

$$$$

 OpenBabel03252509213D

 24 26  0  0  0  0  0  0  0  0999 V2000
   37.9150   28.9980   43.0560 C   0  0  0  0  0  0  0  0  0  0  0  0
   37.6530   29.1590   41.6880 C   0  0  0  0  0  0  0  0  0  0  0  0
   37.6430   27.9900   40.9570 C   0  0  0  0  0  0  0  0  0  0  0  0
   37.8840   26.7810   41.5840 N   0  0  0  0  0  0  0  0  0  0  0  0
   38.1300   26.6820   42.8990 C   0  0  0  0  0  0  0  0  0  0  0  0
   38.1390   27.8120   43.6130 N   0  0  0  0  0  0  0  0  0  0  0  0
   37.9580   29.8110   43.7790 H   0  0  0  0  0  0  0  0  0  0  0  0
   38.2890   25.6640   43.1830 H   0  0  0  0  0  0  0  0  0  0  0  0
   37.2330   28.0220   39.5000 C   0  0  0  0  0  0  0  0  0  0  0  0
   36.7520   26.6360   39.0640 C   0  0  0  0  0  0  0  0  0  0  0  0
   35.8250   27.8760   39.1880 C   0  0  0  0  0  0  0  0  0  0  0  0
   38.0580   28.3070   38.8150 H   0  0  0  0  0  0  0  0  0  0  0  0
   36.5150   25.8720   39.8290 H   0  0  0  0  0  0  0  0  0  0  0  0
   36.9680   26.2740   38.0650 H   0  0  0  0  0  0  0  0  0  0  0  0
   35.5150   28.2810   38.1830 H   0  0  0  0  0  0  0  0  0  0  0  0
   35.0710   27.8870   39.9770 H   0  0  0  0  0  0  0  0  0  0  0  0
   37.4390   30.5070   41.2140 C   0  0  0  0  0  0  0  0  0  0  0  0
   36.3940   31.2590   40.7910 C   0  0  0  0  0  0  0  0  0  0  0  0
   35.3800   30.9750   40.7290 H   0  0  0  0  0  0  0  0  0  0  0  0
   36.7670   32.4770   40.3880 N   0  0  0  0  0  0  0  0  0  0  0  0
   36.1910   33.2600   40.0190 H   0  0  0  0  0  0  0  0  0  0  0  0
   38.0890   32.5340   40.5480 C   0  0  0  0  0  0  0  0  0  0  0  0
   38.7950   33.3280   40.3480 H   0  0  0  0  0  0  0  0  0  0  0  0
   38.4670   31.3570   41.0360 N   0  0  0  0  0  0  0  0  0  0  0  0
  1  6  1  0  0  0  0
  1  7  1  0  0  0  0
  2  1  2  0  0  0  0
  3  4  2  0  0  0  0
  3  2  1  0  0  0  0
  4  5  1  0  0  0  0
  5  8  1  0  0  0  0
  5  6  2  0  0  0  0
  9  3  1  0  0  0  0
 10 11  1  0  0  0  0
 10  9  1  0  0  0  0
 10 13  1  0  0  0  0
 11  9  1  0  0  0  0
 11 16  1  0  0  0  0
 12  9  1  0  0  0  0
 14 10  1  0  0  0  0
 15 11  1  0  0  0  0
 17  2  1  0  0  0  0
 18 17  2  0  0  0  0
 19 18  1  0  0  0  0
 20 22  1  0  0  0  0
 20 18  1  0  0  0  0
 21 20  1  0  0  0  0
 22 24  2  0  0  0  0
 23 22  1  0  0  0  0
 24 17  1  0  0  0  0
M  END
>  <minimizedAffinity>
-4.17069054

$$$$

 OpenBabel03252509213D

 24 26  0  0  0  0  0  0  0  0999 V2000
   39.0450   30.2120   42.3150 C   0  0  0  0  0  0  0  0  0  0  0  0
   38.1450   30.5870   41.3060 C   0  0  0  0  0  0  0  0  0  0  0  0
   36.9970   29.8260   41.2400 C   0  0  0  0  0  0  0  0  0  0  0  0
   36.8090   28.7820   42.1270 N   0  0  0  0  0  0  0  0  0  0  0  0
   37.7040   28.4640   43.0740 C   0  0  0  0  0  0  0  0  0  0  0  0
   38.8170   29.2000   43.1450 N   0  0  0  0  0  0  0  0  0  0  0  0
   39.9970   30.7050   42.5100 H   0  0  0  0  0  0  0  0  0  0  0  0
   37.3690   27.6300   43.6530 H   0  0  0  0  0  0  0  0  0  0  0  0
   35.8910   30.2240   40.2870 C   0  0  0  0  0  0  0  0  0  0  0  0
   36.0000   29.4110   38.9950 C   0  0  0  0  0  0  0  0  0  0  0  0
   34.8440   29.2570   40.0210 C   0  0  0  0  0  0  0  0  0  0  0  0
   35.9210   31.2940   39.9980 H   0  0  0  0  0  0  0  0  0  0  0  0
   36.6410   28.5090   38.9670 H   0  0  0  0  0  0  0  0  0  0  0  0
   35.7620   29.8680   38.0410 H   0  0  0  0  0  0  0  0  0  0  0  0
   33.8760   29.6940   39.6440 H   0  0  0  0  0  0  0  0  0  0  0  0
   34.7750   28.3320   40.5960 H   0  0  0  0  0  0  0  0  0  0  0  0
   38.5250   31.7000   40.4670 C   0  0  0  0  0  0  0  0  0  0  0  0
   38.9760   31.8850   39.2030 C   0  0  0  0  0  0  0  0  0  0  0  0
   39.1500   31.1490   38.4670 H   0  0  0  0  0  0  0  0  0  0  0  0
   39.2430   33.1670   38.9350 N   0  0  0  0  0  0  0  0  0  0  0  0
   39.5970   33.6020   38.0590 H   0  0  0  0  0  0  0  0  0  0  0  0
   38.9630   33.8460   40.0460 C   0  0  0  0  0  0  0  0  0  0  0  0
   39.0340   34.9020   40.2700 H   0  0  0  0  0  0  0  0  0  0  0  0
   38.5410   32.9600   40.9410 N   0  0  0  0  0  0  0  0  0  0  0  0
  1  7  1  0  0  0  0
  1  6  1  0  0  0  0
  2  1  2  0  0  0  0
  3  2  1  0  0  0  0
  3  4  2  0  0  0  0
  4  5  1  0  0  0  0
  5  6  2  0  0  0  0
  5  8  1  0  0  0  0
  9  3  1  0  0  0  0
 10 11  1  0  0  0  0
 10  9  1  0  0  0  0
 11  9  1  0  0  0  0
 11 16  1  0  0  0  0
 12  9  1  0  0  0  0
 13 10  1  0  0  0  0
 14 10  1  0  0  0  0
 15 11  1  0  0  0  0
 17 24  1  0  0  0  0
 17  2  1  0  0  0  0
 18 17  2  0  0  0  0
 19 18  1  0  0  0  0
 20 18  1  0  0  0  0
 20 22  1  0  0  0  0
 21 20  1  0  0  0  0
 22 23  1  0  0  0  0
 22 24  2  0  0  0  0
M  END
>  <minimizedAffinity>
-4.1584897

$$$$

 OpenBabel03252509213D

 24 26  0  0  0  0  0  0  0  0999 V2000
   36.8480   30.6490   39.6220 C   0  0  0  0  0  0  0  0  0  0  0  0
   37.6230   30.6010   40.7900 C   0  0  0  0  0  0  0  0  0  0  0  0
   37.2390   29.6410   41.7020 C   0  0  0  0  0  0  0  0  0  0  0  0
   36.1590   28.8220   41.4290 N   0  0  0  0  0  0  0  0  0  0  0  0
   35.4500   28.9110   40.2940 C   0  0  0  0  0  0  0  0  0  0  0  0
   35.8190   29.8380   39.4040 N   0  0  0  0  0  0  0  0  0  0  0  0
   37.0130   31.3420   38.7970 H   0  0  0  0  0  0  0  0  0  0  0  0
   34.6600   28.1900   40.2780 H   0  0  0  0  0  0  0  0  0  0  0  0
   38.0840   29.4000   42.9340 C   0  0  0  0  0  0  0  0  0  0  0  0
   37.5760   28.1640   43.6800 C   0  0  0  0  0  0  0  0  0  0  0  0
   38.9450   28.2330   42.9500 C   0  0  0  0  0  0  0  0  0  0  0  0
   38.0640   30.2420   43.6560 H   0  0  0  0  0  0  0  0  0  0  0  0
   36.8800   27.4660   43.1750 H   0  0  0  0  0  0  0  0  0  0  0  0
   37.5900   28.1360   44.7640 H   0  0  0  0  0  0  0  0  0  0  0  0
   39.8110   28.2890   43.6680 H   0  0  0  0  0  0  0  0  0  0  0  0
   39.0880   27.6310   42.0500 H   0  0  0  0  0  0  0  0  0  0  0  0
   38.7060   31.5510   40.9000 C   0  0  0  0  0  0  0  0  0  0  0  0
   38.8440   32.8900   41.0550 C   0  0  0  0  0  0  0  0  0  0  0  0
   38.0790   33.6080   41.1570 H   0  0  0  0  0  0  0  0  0  0  0  0
   40.1220   33.2810   41.0330 N   0  0  0  0  0  0  0  0  0  0  0  0
   40.5260   34.2340   41.1280 H   0  0  0  0  0  0  0  0  0  0  0  0
   40.8470   32.1760   40.8600 C   0  0  0  0  0  0  0  0  0  0  0  0
   41.9170   32.0330   40.7840 H   0  0  0  0  0  0  0  0  0  0  0  0
   39.9900   31.1640   40.7820 N   0  0  0  0  0  0  0  0  0  0  0  0
  1  2  1  0  0  0  0
  2 17  1  0  0  0  0
  2  3  2  0  0  0  0
  3  9  1  0  0  0  0
  4  3  1  0  0  0  0
  5  4  2  0  0  0  0
  6  1  2  0  0  0  0
  6  5  1  0  0  0  0
  7  1  1  0  0  0  0
  8  5  1  0  0  0  0
  9 11  1  0  0  0  0
  9 12  1  0  0  0  0
  9 10  1  0  0  0  0
 10 14  1  0  0  0  0
 11 15  1  0  0  0  0
 11 10  1  0  0  0  0
 13 10  1  0  0  0  0
 16 11  1  0  0  0  0
 17 18  2  0  0  0  0
 18 19  1  0  0  0  0
 20 18  1  0  0  0  0
 20 21  1  0  0  0  0
 22 20  1  0  0  0  0
 23 22  1  0  0  0  0
 24 22  2  0  0  0  0
 24 17  1  0  0  0  0
M  END
>  <minimizedAffinity>
-4.0983367

$$$$

 OpenBabel03252509213D

 24 26  0  0  0  0  0  0  0  0999 V2000
   37.6780   25.4480   42.1460 C   0  0  0  0  0  0  0  0  0  0  0  0
   38.2330   26.7030   42.4340 C   0  0  0  0  0  0  0  0  0  0  0  0
   39.4740   26.6650   43.0340 C   0  0  0  0  0  0  0  0  0  0  0  0
   40.0710   25.4490   43.3090 N   0  0  0  0  0  0  0  0  0  0  0  0
   39.4960   24.2740   43.0130 C   0  0  0  0  0  0  0  0  0  0  0  0
   38.2930   24.3040   42.4290 N   0  0  0  0  0  0  0  0  0  0  0  0
   36.7090   25.2920   41.6730 H   0  0  0  0  0  0  0  0  0  0  0  0
   40.1190   23.4570   43.3060 H   0  0  0  0  0  0  0  0  0  0  0  0
   40.2340   27.9540   43.2620 C   0  0  0  0  0  0  0  0  0  0  0  0
   41.6870   27.6440   43.6270 C   0  0  0  0  0  0  0  0  0  0  0  0
   41.2530   28.3220   42.2990 C   0  0  0  0  0  0  0  0  0  0  0  0
   39.8190   28.5710   44.0860 H   0  0  0  0  0  0  0  0  0  0  0  0
   42.0920   26.6280   43.4530 H   0  0  0  0  0  0  0  0  0  0  0  0
   42.2110   28.2580   44.3520 H   0  0  0  0  0  0  0  0  0  0  0  0
   41.5110   29.4180   42.2740 H   0  0  0  0  0  0  0  0  0  0  0  0
   41.3700   27.7660   41.3670 H   0  0  0  0  0  0  0  0  0  0  0  0
   37.4500   27.8650   42.0830 C   0  0  0  0  0  0  0  0  0  0  0  0
   37.2990   29.1350   42.5280 C   0  0  0  0  0  0  0  0  0  0  0  0
   37.8070   29.6030   43.3250 H   0  0  0  0  0  0  0  0  0  0  0  0
   36.3560   29.8060   41.8580 N   0  0  0  0  0  0  0  0  0  0  0  0
   36.0280   30.7850   41.9770 H   0  0  0  0  0  0  0  0  0  0  0  0
   35.8720   28.9610   40.9490 C   0  0  0  0  0  0  0  0  0  0  0  0
   35.1010   29.0870   40.2010 H   0  0  0  0  0  0  0  0  0  0  0  0
   36.5320   27.8170   41.1000 N   0  0  0  0  0  0  0  0  0  0  0  0
  1  6  2  0  0  0  0
  1  2  1  0  0  0  0
  2  3  2  0  0  0  0
  3  9  1  0  0  0  0
  3  4  1  0  0  0  0
  5  8  1  0  0  0  0
  5  4  2  0  0  0  0
  6  5  1  0  0  0  0
  7  1  1  0  0  0  0
  9 10  1  0  0  0  0
  9 12  1  0  0  0  0
 10 14  1  0  0  0  0
 11  9  1  0  0  0  0
 11 10  1  0  0  0  0
 13 10  1  0  0  0  0
 15 11  1  0  0  0  0
 16 11  1  0  0  0  0
 17  2  1  0  0  0  0
 17 18  2  0  0  0  0
 18 19  1  0  0  0  0
 20 21  1  0  0  0  0
 20 18  1  0  0  0  0
 22 24  2  0  0  0  0
 22 20  1  0  0  0  0
 23 22  1  0  0  0  0
 24 17  1  0  0  0  0
M  END
>  <minimizedAffinity>
-4.09796572

$$$$

 OpenBabel03252509213D

 24 26  0  0  0  0  0  0  0  0999 V2000
   40.8040   27.2650   43.2460 C   0  0  0  0  0  0  0  0  0  0  0  0
   39.5030   26.9230   42.8470 C   0  0  0  0  0  0  0  0  0  0  0  0
   39.3240   25.5930   42.5300 C   0  0  0  0  0  0  0  0  0  0  0  0
   40.3870   24.7140   42.6130 N   0  0  0  0  0  0  0  0  0  0  0  0
   41.6140   25.0940   43.0000 C   0  0  0  0  0  0  0  0  0  0  0  0
   41.7940   26.3810   43.3120 N   0  0  0  0  0  0  0  0  0  0  0  0
   41.1210   28.2670   43.5330 H   0  0  0  0  0  0  0  0  0  0  0  0
   42.2900   24.2660   42.9970 H   0  0  0  0  0  0  0  0  0  0  0  0
   37.9330   25.0790   42.2240 C   0  0  0  0  0  0  0  0  0  0  0  0
   37.6830   25.1220   40.7150 C   0  0  0  0  0  0  0  0  0  0  0  0
   37.8150   23.8100   41.5340 C   0  0  0  0  0  0  0  0  0  0  0  0
   37.1270   25.6740   42.7010 H   0  0  0  0  0  0  0  0  0  0  0  0
   38.5350   25.2570   40.0210 H   0  0  0  0  0  0  0  0  0  0  0  0
   36.7000   25.3740   40.3320 H   0  0  0  0  0  0  0  0  0  0  0  0
   36.8260   23.2860   41.6660 H   0  0  0  0  0  0  0  0  0  0  0  0
   38.6900   23.1770   41.3700 H   0  0  0  0  0  0  0  0  0  0  0  0
   38.5260   27.9870   42.8100 C   0  0  0  0  0  0  0  0  0  0  0  0
   37.5930   28.5110   43.6400 C   0  0  0  0  0  0  0  0  0  0  0  0
   37.3710   28.2160   44.6290 H   0  0  0  0  0  0  0  0  0  0  0  0
   36.8840   29.4880   43.0660 N   0  0  0  0  0  0  0  0  0  0  0  0
   36.1130   30.0660   43.4560 H   0  0  0  0  0  0  0  0  0  0  0  0
   37.3590   29.6140   41.8270 C   0  0  0  0  0  0  0  0  0  0  0  0
   37.0760   30.2790   41.0230 H   0  0  0  0  0  0  0  0  0  0  0  0
   38.3290   28.7160   41.6960 N   0  0  0  0  0  0  0  0  0  0  0  0
  1  6  1  0  0  0  0
  1  7  1  0  0  0  0
  2  1  2  0  0  0  0
  3  4  2  0  0  0  0
  3  2  1  0  0  0  0
  4  5  1  0  0  0  0
  5  6  2  0  0  0  0
  8  5  1  0  0  0  0
  9  3  1  0  0  0  0
  9 12  1  0  0  0  0
 10 11  1  0  0  0  0
 10  9  1  0  0  0  0
 11 15  1  0  0  0  0
 11  9  1  0  0  0  0
 13 10  1  0  0  0  0
 14 10  1  0  0  0  0
 16 11  1  0  0  0  0
 17  2  1  0  0  0  0
 17 18  2  0  0  0  0
 18 19  1  0  0  0  0
 20 21  1  0  0  0  0
 20 18  1  0  0  0  0
 22 20  1  0  0  0  0
 23 22  1  0  0  0  0
 24 22  2  0  0  0  0
 24 17  1  0  0  0  0
M  END
>  <minimizedAffinity>
-4.02660704

$$$$

 OpenBabel03252509213D

 24 26  0  0  0  0  0  0  0  0999 V2000
   36.2470   26.9300   39.2040 C   0  0  0  0  0  0  0  0  0  0  0  0
   36.7460   26.6080   40.4750 C   0  0  0  0  0  0  0  0  0  0  0  0
   36.6730   27.6260   41.4030 C   0  0  0  0  0  0  0  0  0  0  0  0
   36.1430   28.8510   41.0430 N   0  0  0  0  0  0  0  0  0  0  0  0
   35.6800   29.1080   39.8110 C   0  0  0  0  0  0  0  0  0  0  0  0
   35.7440   28.1240   38.9080 N   0  0  0  0  0  0  0  0  0  0  0  0
   36.2240   26.2480   38.3560 H   0  0  0  0  0  0  0  0  0  0  0  0
   35.3130   30.1100   39.7410 H   0  0  0  0  0  0  0  0  0  0  0  0
   37.0490   27.3520   42.8430 C   0  0  0  0  0  0  0  0  0  0  0  0
   38.5410   27.6210   43.0520 C   0  0  0  0  0  0  0  0  0  0  0  0
   37.4090   28.4810   43.6780 C   0  0  0  0  0  0  0  0  0  0  0  0
   36.8640   26.3030   43.1560 H   0  0  0  0  0  0  0  0  0  0  0  0
   39.1080   28.1880   42.2880 H   0  0  0  0  0  0  0  0  0  0  0  0
   39.1200   26.9950   43.7220 H   0  0  0  0  0  0  0  0  0  0  0  0
   37.3020   28.3080   44.7860 H   0  0  0  0  0  0  0  0  0  0  0  0
   37.2750   29.5050   43.3240 H   0  0  0  0  0  0  0  0  0  0  0  0
   37.2730   25.2750   40.6550 C   0  0  0  0  0  0  0  0  0  0  0  0
   36.8120   24.0690   41.0640 C   0  0  0  0  0  0  0  0  0  0  0  0
   35.8300   23.8210   41.3620 H   0  0  0  0  0  0  0  0  0  0  0  0
   37.7710   23.1390   41.1060 N   0  0  0  0  0  0  0  0  0  0  0  0
   37.7130   22.1370   41.3780 H   0  0  0  0  0  0  0  0  0  0  0  0
   38.8930   23.7430   40.7160 C   0  0  0  0  0  0  0  0  0  0  0  0
   39.9010   23.3660   40.6040 H   0  0  0  0  0  0  0  0  0  0  0  0
   38.5770   25.0070   40.4550 N   0  0  0  0  0  0  0  0  0  0  0  0
  1  2  1  0  0  0  0
  2 17  1  0  0  0  0
  2  3  2  0  0  0  0
  3  9  1  0  0  0  0
  4  3  1  0  0  0  0
  5  4  2  0  0  0  0
  6  1  2  0  0  0  0
  6  5  1  0  0  0  0
  7  1  1  0  0  0  0
  8  5  1  0  0  0  0
  9 10  1  0  0  0  0
  9 12  1  0  0  0  0
  9 11  1  0  0  0  0
 10 11  1  0  0  0  0
 10 14  1  0  0  0  0
 11 15  1  0  0  0  0
 13 10  1  0  0  0  0
 16 11  1  0  0  0  0
 17 18  2  0  0  0  0
 18 20  1  0  0  0  0
 18 19  1  0  0  0  0
 20 21  1  0  0  0  0
 22 20  1  0  0  0  0
 23 22  1  0  0  0  0
 24 17  1  0  0  0  0
 24 22  2  0  0  0  0
M  END
>  <minimizedAffinity>
-3.96411729

$$$$

 OpenBabel03252509213D

 24 26  0  0  0  0  0  0  0  0999 V2000
   39.4140   29.4700   39.2630 C   0  0  0  0  0  0  0  0  0  0  0  0
   38.7910   30.4060   40.1020 C   0  0  0  0  0  0  0  0  0  0  0  0
   38.8920   31.7170   39.6860 C   0  0  0  0  0  0  0  0  0  0  0  0
   39.5740   32.0210   38.5220 N   0  0  0  0  0  0  0  0  0  0  0  0
   40.1540   31.0860   37.7550 C   0  0  0  0  0  0  0  0  0  0  0  0
   40.0570   29.8130   38.1520 N   0  0  0  0  0  0  0  0  0  0  0  0
   39.4310   28.3950   39.4380 H   0  0  0  0  0  0  0  0  0  0  0  0
   40.6260   31.5280   36.9040 H   0  0  0  0  0  0  0  0  0  0  0  0
   38.1400   32.7970   40.4320 C   0  0  0  0  0  0  0  0  0  0  0  0
   38.7850   34.1590   40.1640 C   0  0  0  0  0  0  0  0  0  0  0  0
   37.3750   33.7530   39.6550 C   0  0  0  0  0  0  0  0  0  0  0  0
   38.1360   32.6530   41.5320 H   0  0  0  0  0  0  0  0  0  0  0  0
   39.5030   34.2710   39.3300 H   0  0  0  0  0  0  0  0  0  0  0  0
   38.8350   34.9030   40.9520 H   0  0  0  0  0  0  0  0  0  0  0  0
   36.5500   34.2730   40.2180 H   0  0  0  0  0  0  0  0  0  0  0  0
   37.2280   33.6130   38.5820 H   0  0  0  0  0  0  0  0  0  0  0  0
   38.1370   29.8950   41.2850 C   0  0  0  0  0  0  0  0  0  0  0  0
   36.8670   29.7030   41.7160 C   0  0  0  0  0  0  0  0  0  0  0  0
   35.9730   29.9030   41.1930 H   0  0  0  0  0  0  0  0  0  0  0  0
   36.8140   29.2390   42.9680 N   0  0  0  0  0  0  0  0  0  0  0  0
   35.9880   29.0010   43.5530 H   0  0  0  0  0  0  0  0  0  0  0  0
   38.0780   29.1210   43.3760 C   0  0  0  0  0  0  0  0  0  0  0  0
   38.4910   28.7840   44.3170 H   0  0  0  0  0  0  0  0  0  0  0  0
   38.8440   29.5150   42.3650 N   0  0  0  0  0  0  0  0  0  0  0  0
  1  7  1  0  0  0  0
  1  2  1  0  0  0  0
  2 17  1  0  0  0  0
  3  2  2  0  0  0  0
  3  9  1  0  0  0  0
  4  3  1  0  0  0  0
  5  6  1  0  0  0  0
  5  4  2  0  0  0  0
  6  1  2  0  0  0  0
  8  5  1  0  0  0  0
  9 12  1  0  0  0  0
 10  9  1  0  0  0  0
 10 14  1  0  0  0  0
 11 10  1  0  0  0  0
 11 15  1  0  0  0  0
 11  9  1  0  0  0  0
 13 10  1  0  0  0  0
 16 11  1  0  0  0  0
 17 18  2  0  0  0  0
 17 24  1  0  0  0  0
 18 20  1  0  0  0  0
 19 18  1  0  0  0  0
 20 22  1  0  0  0  0
 20 21  1  0  0  0  0
 22 23  1  0  0  0  0
 24 22  2  0  0  0  0
M  END
>  <minimizedAffinity>
-3.9622674

$$$$

 OpenBabel03252509213D

 24 26  0  0  0  0  0  0  0  0999 V2000
   37.5490   28.9350   38.7750 C   0  0  0  0  0  0  0  0  0  0  0  0
   37.4800   29.9930   39.6950 C   0  0  0  0  0  0  0  0  0  0  0  0
   37.3490   31.2440   39.1310 C   0  0  0  0  0  0  0  0  0  0  0  0
   37.3000   31.3800   37.7560 N   0  0  0  0  0  0  0  0  0  0  0  0
   37.3710   30.3340   36.9200 C   0  0  0  0  0  0  0  0  0  0  0  0
   37.4950   29.1180   37.4600 N   0  0  0  0  0  0  0  0  0  0  0  0
   37.6500   27.8850   39.0460 H   0  0  0  0  0  0  0  0  0  0  0  0
   37.3140   30.6530   35.9010 H   0  0  0  0  0  0  0  0  0  0  0  0
   37.1220   32.4460   40.0230 C   0  0  0  0  0  0  0  0  0  0  0  0
   38.4400   33.1970   40.2270 C   0  0  0  0  0  0  0  0  0  0  0  0
   37.2330   33.7630   39.4290 C   0  0  0  0  0  0  0  0  0  0  0  0
   36.7430   32.1810   41.0310 H   0  0  0  0  0  0  0  0  0  0  0  0
   39.3010   32.9840   39.5660 H   0  0  0  0  0  0  0  0  0  0  0  0
   38.6630   33.6560   41.1840 H   0  0  0  0  0  0  0  0  0  0  0  0
   36.6990   34.5840   39.9860 H   0  0  0  0  0  0  0  0  0  0  0  0
   37.3330   33.8850   38.3490 H   0  0  0  0  0  0  0  0  0  0  0  0
   37.5620   29.6520   41.0960 C   0  0  0  0  0  0  0  0  0  0  0  0
   36.7080   29.2930   42.0850 C   0  0  0  0  0  0  0  0  0  0  0  0
   35.6640   29.1550   42.0150 H   0  0  0  0  0  0  0  0  0  0  0  0
   37.3190   29.1460   43.2640 N   0  0  0  0  0  0  0  0  0  0  0  0
   36.9240   28.8790   44.1880 H   0  0  0  0  0  0  0  0  0  0  0  0
   38.6070   29.4140   43.0520 C   0  0  0  0  0  0  0  0  0  0  0  0
   39.4520   29.4170   43.7270 H   0  0  0  0  0  0  0  0  0  0  0  0
   38.7290   29.7120   41.7630 N   0  0  0  0  0  0  0  0  0  0  0  0
  1  7  1  0  0  0  0
  1  2  1  0  0  0  0
  2 17  1  0  0  0  0
  3  2  2  0  0  0  0
  3  9  1  0  0  0  0
  4  3  1  0  0  0  0
  5  6  1  0  0  0  0
  5  4  2  0  0  0  0
  6  1  2  0  0  0  0
  8  5  1  0  0  0  0
  9 10  1  0  0  0  0
  9 12  1  0  0  0  0
 10 14  1  0  0  0  0
 11 15  1  0  0  0  0
 11  9  1  0  0  0  0
 11 10  1  0  0  0  0
 13 10  1  0  0  0  0
 16 11  1  0  0  0  0
 17 24  1  0  0  0  0
 17 18  2  0  0  0  0
 18 20  1  0  0  0  0
 19 18  1  0  0  0  0
 20 21  1  0  0  0  0
 22 20  1  0  0  0  0
 22 23  1  0  0  0  0
 24 22  2  0  0  0  0
M  END
>  <minimizedAffinity>
-3.95274663

$$$$
