
 OpenBabel03252508593D

 44 46  0  0  1  0  0  0  0  0999 V2000
   46.7420   34.4970   43.5060 N   0  0  0  0  0  0  0  0  0  0  0  0
   46.2800   35.5970   42.7270 C   0  0  0  0  0  0  0  0  0  0  0  0
   44.7850   35.8150   42.7580 C   0  0  0  0  0  0  0  0  0  0  0  0
   44.1160   35.4350   44.0510 C   0  0  0  0  0  0  0  0  0  0  0  0
   45.1260   35.0230   45.0960 C   0  0  0  0  0  0  0  0  0  0  0  0
   45.9080   33.8490   44.4000 C   0  0  2  0  0  0  0  0  0  0  0  0
   46.5760   35.6010   41.6780 H   0  0  0  0  0  0  0  0  0  0  0  0
   46.7230   36.5200   43.1720 H   0  0  0  0  0  0  0  0  0  0  0  0
   44.5700   36.8920   42.5900 H   0  0  0  0  0  0  0  0  0  0  0  0
   44.3210   35.2820   41.8770 H   0  0  0  0  0  0  0  0  0  0  0  0
   43.4950   34.5270   43.8430 H   0  0  0  0  0  0  0  0  0  0  0  0
   43.4010   36.1990   44.4160 H   0  0  0  0  0  0  0  0  0  0  0  0
   44.6010   34.6490   45.9800 H   0  0  0  0  0  0  0  0  0  0  0  0
   45.8200   35.8510   45.2630 H   0  0  0  0  0  0  0  0  0  0  0  0
   45.1530   33.1650   43.9640 H   0  0  0  0  0  0  0  0  0  0  0  0
   47.8170   33.7640   42.9030 C   0  0  0  0  0  0  0  0  0  0  0  0
   48.4430   34.4670   42.3500 H   0  0  0  0  0  0  0  0  0  0  0  0
   48.4540   33.2830   43.6770 H   0  0  0  0  0  0  0  0  0  0  0  0
   47.2310   32.7270   41.9890 C   0  0  0  0  0  0  0  0  0  0  0  0
   47.4230   31.7070   42.3420 H   0  0  0  0  0  0  0  0  0  0  0  0
   46.1260   32.8240   41.9190 H   0  0  0  0  0  0  0  0  0  0  0  0
   49.1220   32.0750   38.8060 C   0  0  0  0  0  0  0  0  0  0  0  0
   48.5840   31.9100   40.0950 C   0  0  0  0  0  0  0  0  0  0  0  0
   47.7960   32.9080   40.6240 C   0  0  0  0  0  0  0  0  0  0  0  0
   47.5800   33.9970   39.8770 N   0  0  0  0  0  0  0  0  0  0  0  0
   48.1010   34.1440   38.6410 C   0  0  0  0  0  0  0  0  0  0  0  0
   48.8740   33.1900   38.0970 N   0  0  0  0  0  0  0  0  0  0  0  0
   49.7180   31.2370   38.4950 H   0  0  0  0  0  0  0  0  0  0  0  0
   48.7630   31.0250   40.6980 H   0  0  0  0  0  0  0  0  0  0  0  0
   47.9350   35.0180   38.0270 H   0  0  0  0  0  0  0  0  0  0  0  0
   46.6110   33.3130   45.4680 O   0  0  0  0  0  0  0  0  0  0  0  0
   45.5450   31.0620   44.5290 O   0  0  0  0  0  0  0  0  0  0  0  0
   46.2460   31.6940   45.7400 P   0  0  2  0  0  0  0  0  0  0  0  0
   45.0630   31.6760   46.9770 O   0  0  0  0  0  0  0  0  0  0  0  0
   45.3740   32.2350   47.7440 H   0  0  0  0  0  0  0  0  0  0  0  0
   47.5530   30.8050   46.2550 O   0  0  0  0  0  0  0  0  0  0  0  0
   47.3800   29.5540   46.8380 C   0  0  0  0  0  0  0  0  0  0  0  0
   48.2950   28.7960   47.5710 C   0  0  0  0  0  0  0  0  0  0  0  0
   49.3020   29.0800   47.8000 H   0  0  0  0  0  0  0  0  0  0  0  0
   47.7440   27.6410   47.9630 N   0  0  0  0  0  0  0  0  0  0  0  0
   48.2010   26.8880   48.5240 H   0  0  0  0  0  0  0  0  0  0  0  0
   46.4900   27.6700   47.4810 C   0  0  0  0  0  0  0  0  0  0  0  0
   45.7830   26.8630   47.6360 H   0  0  0  0  0  0  0  0  0  0  0  0
   46.2450   28.8070   46.8010 N   0  0  0  0  0  0  0  0  0  0  0  0
  1  6  1  0  0  0  0
  2  3  1  0  0  0  0
  2  8  1  0  0  0  0
  2  1  1  0  0  0  0
  3  4  1  0  0  0  0
  4 12  1  0  0  0  0
  4  5  1  0  0  0  0
  5 14  1  0  0  0  0
  5 13  1  0  0  0  0
  6 15  1  6  0  0  0
  6  5  1  0  0  0  0
  6 31  1  0  0  0  0
  7  2  1  0  0  0  0
  9  3  1  0  0  0  0
 10  3  1  0  0  0  0
 11  4  1  0  0  0  0
 16  1  1  0  0  0  0
 16 18  1  0  0  0  0
 17 16  1  0  0  0  0
 19 20  1  0  0  0  0
 19 16  1  0  0  0  0
 21 19  1  0  0  0  0
 22 23  1  0  0  0  0
 23 24  2  0  0  0  0
 23 29  1  0  0  0  0
 24 19  1  0  0  0  0
 25 24  1  0  0  0  0
 26 25  2  0  0  0  0
 27 26  1  0  0  0  0
 27 22  2  0  0  0  0
 28 22  1  0  0  0  0
 30 26  1  0  0  0  0
 31 33  1  0  0  0  0
 33 32  2  6  0  0  0
 33 36  1  0  0  0  0
 33 34  1  0  0  0  0
 34 35  1  0  0  0  0
 36 37  1  0  0  0  0
 37 38  2  0  0  0  0
 38 39  1  0  0  0  0
 38 40  1  0  0  0  0
 40 41  1  0  0  0  0
 42 43  1  0  0  0  0
 42 40  1  0  0  0  0
 44 37  1  0  0  0  0
 44 42  2  0  0  0  0
M  END
>  <minimizedAffinity>
-4.32818747

>  <minimizedRMSD>
1.15320945

$$$$
