
 OpenBabel03242511263D

 27 29  0  0  0  0  0  0  0  0999 V2000
   37.5850   28.3260   39.2770 Cl  0  0  0  0  0  0  0  0  0  0  0  0
   37.5240   28.0310   40.9900 C   0  0  0  0  0  0  0  0  0  0  0  0
   37.5300   26.7590   41.4730 C   0  0  0  0  0  0  0  0  0  0  0  0
   37.4780   26.4790   42.8480 C   0  0  0  0  0  0  0  0  0  0  0  0
   37.4220   27.5770   43.6790 C   0  0  0  0  0  0  0  0  0  0  0  0
   37.4180   28.8540   43.1990 C   0  0  0  0  0  0  0  0  0  0  0  0
   37.4680   29.1070   41.8460 C   0  0  0  0  0  0  0  0  0  0  0  0
   37.4850   25.4390   43.1650 H   0  0  0  0  0  0  0  0  0  0  0  0
   37.3830   27.3580   44.7390 H   0  0  0  0  0  0  0  0  0  0  0  0
   37.3730   29.7140   43.8700 H   0  0  0  0  0  0  0  0  0  0  0  0
   38.8620   24.0810   39.3230 C   0  0  0  0  0  0  0  0  0  0  0  0
   37.7040   23.5070   38.7820 C   0  0  0  0  0  0  0  0  0  0  0  0
   36.4690   24.0500   39.1630 C   0  0  0  0  0  0  0  0  0  0  0  0
   36.4640   25.0940   40.0300 N   0  0  0  0  0  0  0  0  0  0  0  0
   37.5920   25.6220   40.5320 C   0  0  0  0  0  0  0  0  0  0  0  0
   38.8060   25.1190   40.1820 N   0  0  0  0  0  0  0  0  0  0  0  0
   39.8150   23.6550   39.0220 H   0  0  0  0  0  0  0  0  0  0  0  0
   37.7090   22.6770   38.0910 H   0  0  0  0  0  0  0  0  0  0  0  0
   35.5290   23.6690   38.7950 H   0  0  0  0  0  0  0  0  0  0  0  0
   37.4660   30.4580   41.2900 C   0  0  0  0  0  0  0  0  0  0  0  0
   36.3510   31.1820   40.9050 C   0  0  0  0  0  0  0  0  0  0  0  0
   35.3180   30.9020   40.9380 H   0  0  0  0  0  0  0  0  0  0  0  0
   36.7530   32.3780   40.4450 N   0  0  0  0  0  0  0  0  0  0  0  0
   36.1880   33.1770   40.0710 H   0  0  0  0  0  0  0  0  0  0  0  0
   38.1000   32.3850   40.5480 C   0  0  0  0  0  0  0  0  0  0  0  0
   38.8280   33.1380   40.2950 H   0  0  0  0  0  0  0  0  0  0  0  0
   38.5600   31.2420   41.0540 N   0  0  0  0  0  0  0  0  0  0  0  0
  1  2  1  0  0  0  0
  2  3  2  0  0  0  0
  2  7  1  0  0  0  0
  3  4  1  0  0  0  0
  4  8  1  0  0  0  0
  4  5  2  0  0  0  0
  5  9  1  0  0  0  0
  6  5  1  0  0  0  0
  6 10  1  0  0  0  0
  7  6  2  0  0  0  0
 11 16  1  0  0  0  0
 12 13  1  0  0  0  0
 12 11  2  0  0  0  0
 13 14  2  0  0  0  0
 14 15  1  0  0  0  0
 15  3  1  0  0  0  0
 16 15  2  0  0  0  0
 17 11  1  0  0  0  0
 18 12  1  0  0  0  0
 19 13  1  0  0  0  0
 20  7  1  0  0  0  0
 21 22  1  0  0  0  0
 21 20  2  0  0  0  0
 23 25  1  0  0  0  0
 23 21  1  0  0  0  0
 24 23  1  0  0  0  0
 25 27  2  0  0  0  0
 26 25  1  0  0  0  0
 27 20  1  0  0  0  0
M  END
>  <minimizedAffinity>
-4.96649408

$$$$

 OpenBabel03242511263D

 27 29  0  0  0  0  0  0  0  0999 V2000
   40.3980   29.2520   39.9840 Cl  0  0  0  0  0  0  0  0  0  0  0  0
   38.8340   29.8930   40.3940 C   0  0  0  0  0  0  0  0  0  0  0  0
   38.0330   29.2460   41.2840 C   0  0  0  0  0  0  0  0  0  0  0  0
   36.7630   29.7290   41.6380 C   0  0  0  0  0  0  0  0  0  0  0  0
   36.3790   30.9030   41.0250 C   0  0  0  0  0  0  0  0  0  0  0  0
   37.1800   31.5550   40.1340 C   0  0  0  0  0  0  0  0  0  0  0  0
   38.4220   31.0640   39.7990 C   0  0  0  0  0  0  0  0  0  0  0  0
   36.1750   29.1620   42.3550 H   0  0  0  0  0  0  0  0  0  0  0  0
   35.3990   31.2730   41.3010 H   0  0  0  0  0  0  0  0  0  0  0  0
   36.8600   32.4840   39.6570 H   0  0  0  0  0  0  0  0  0  0  0  0
   38.6680   25.6650   41.8610 C   0  0  0  0  0  0  0  0  0  0  0  0
   39.3760   25.6610   43.0700 C   0  0  0  0  0  0  0  0  0  0  0  0
   39.6300   26.8980   43.6790 C   0  0  0  0  0  0  0  0  0  0  0  0
   39.1790   28.0230   43.0680 N   0  0  0  0  0  0  0  0  0  0  0  0
   38.5020   27.9920   41.9080 C   0  0  0  0  0  0  0  0  0  0  0  0
   38.2400   26.8090   41.2920 N   0  0  0  0  0  0  0  0  0  0  0  0
   38.4750   24.7020   41.3970 H   0  0  0  0  0  0  0  0  0  0  0  0
   39.7350   24.7670   43.5570 H   0  0  0  0  0  0  0  0  0  0  0  0
   40.1680   26.9880   44.6100 H   0  0  0  0  0  0  0  0  0  0  0  0
   39.3100   31.7310   38.8500 C   0  0  0  0  0  0  0  0  0  0  0  0
   39.2200   31.6790   37.4710 C   0  0  0  0  0  0  0  0  0  0  0  0
   38.5110   31.1600   36.8580 H   0  0  0  0  0  0  0  0  0  0  0  0
   40.2110   32.4170   36.9470 N   0  0  0  0  0  0  0  0  0  0  0  0
   40.4510   32.6040   35.9440 H   0  0  0  0  0  0  0  0  0  0  0  0
   40.9010   32.9160   37.9950 C   0  0  0  0  0  0  0  0  0  0  0  0
   41.7670   33.5550   38.0380 H   0  0  0  0  0  0  0  0  0  0  0  0
   40.3820   32.5200   39.1570 N   0  0  0  0  0  0  0  0  0  0  0  0
  1  2  1  0  0  0  0
  2  3  1  0  0  0  0
  3  4  2  0  0  0  0
  3 15  1  0  0  0  0
  4  8  1  0  0  0  0
  5  9  1  0  0  0  0
  5  4  1  0  0  0  0
  6  5  2  0  0  0  0
  7  6  1  0  0  0  0
  7  2  2  0  0  0  0
 10  6  1  0  0  0  0
 11 12  1  0  0  0  0
 12 18  1  0  0  0  0
 12 13  2  0  0  0  0
 13 19  1  0  0  0  0
 14 13  1  0  0  0  0
 15 14  2  0  0  0  0
 16 11  2  0  0  0  0
 16 15  1  0  0  0  0
 17 11  1  0  0  0  0
 20 27  1  0  0  0  0
 20  7  1  0  0  0  0
 21 20  2  0  0  0  0
 22 21  1  0  0  0  0
 23 21  1  0  0  0  0
 23 25  1  0  0  0  0
 24 23  1  0  0  0  0
 25 26  1  0  0  0  0
 25 27  2  0  0  0  0
M  END
>  <minimizedAffinity>
-4.95750427

$$$$

 OpenBabel03242511263D

 27 29  0  0  0  0  0  0  0  0999 V2000
   37.7480   30.9960   37.0960 Cl  0  0  0  0  0  0  0  0  0  0  0  0
   36.6440   30.2940   38.2420 C   0  0  0  0  0  0  0  0  0  0  0  0
   36.5980   30.7470   39.5250 C   0  0  0  0  0  0  0  0  0  0  0  0
   35.7240   30.2050   40.4800 C   0  0  0  0  0  0  0  0  0  0  0  0
   34.9130   29.1830   40.0350 C   0  0  0  0  0  0  0  0  0  0  0  0
   34.9550   28.7270   38.7500 C   0  0  0  0  0  0  0  0  0  0  0  0
   35.8210   29.2720   37.8280 C   0  0  0  0  0  0  0  0  0  0  0  0
   35.7400   30.6140   41.4880 H   0  0  0  0  0  0  0  0  0  0  0  0
   34.2400   28.7670   40.7740 H   0  0  0  0  0  0  0  0  0  0  0  0
   34.3060   27.9160   38.4130 H   0  0  0  0  0  0  0  0  0  0  0  0
   39.4300   32.5570   41.0320 C   0  0  0  0  0  0  0  0  0  0  0  0
   39.1550   33.8940   40.7130 C   0  0  0  0  0  0  0  0  0  0  0  0
   37.9910   34.1610   39.9780 C   0  0  0  0  0  0  0  0  0  0  0  0
   37.2010   33.1180   39.6190 N   0  0  0  0  0  0  0  0  0  0  0  0
   37.4930   31.8460   39.9410 C   0  0  0  0  0  0  0  0  0  0  0  0
   38.6140   31.5540   40.6530 N   0  0  0  0  0  0  0  0  0  0  0  0
   40.3330   32.3600   41.6020 H   0  0  0  0  0  0  0  0  0  0  0  0
   39.7830   34.7240   40.9990 H   0  0  0  0  0  0  0  0  0  0  0  0
   37.7040   35.1600   39.6900 H   0  0  0  0  0  0  0  0  0  0  0  0
   35.8980   28.8140   36.4430 C   0  0  0  0  0  0  0  0  0  0  0  0
   36.6980   27.7930   35.9620 C   0  0  0  0  0  0  0  0  0  0  0  0
   37.3890   27.1680   36.4920 H   0  0  0  0  0  0  0  0  0  0  0  0
   36.4910   27.6690   34.6420 N   0  0  0  0  0  0  0  0  0  0  0  0
   36.9210   27.0050   33.9540 H   0  0  0  0  0  0  0  0  0  0  0  0
   35.5710   28.6040   34.3180 C   0  0  0  0  0  0  0  0  0  0  0  0
   35.1160   28.8570   33.3750 H   0  0  0  0  0  0  0  0  0  0  0  0
   35.1940   29.3110   35.3820 N   0  0  0  0  0  0  0  0  0  0  0  0
  1  2  1  0  0  0  0
  2  3  1  0  0  0  0
  3 15  1  0  0  0  0
  3  4  2  0  0  0  0
  4  8  1  0  0  0  0
  5  4  1  0  0  0  0
  5  9  1  0  0  0  0
  6  5  2  0  0  0  0
  7  2  2  0  0  0  0
  7  6  1  0  0  0  0
 10  6  1  0  0  0  0
 11 17  1  0  0  0  0
 12 18  1  0  0  0  0
 12 11  1  0  0  0  0
 13 12  2  0  0  0  0
 14 15  2  0  0  0  0
 14 13  1  0  0  0  0
 15 16  1  0  0  0  0
 16 11  2  0  0  0  0
 19 13  1  0  0  0  0
 20  7  1  0  0  0  0
 21 20  2  0  0  0  0
 21 22  1  0  0  0  0
 23 21  1  0  0  0  0
 24 23  1  0  0  0  0
 25 23  1  0  0  0  0
 25 27  2  0  0  0  0
 26 25  1  0  0  0  0
 27 20  1  0  0  0  0
M  END
>  <minimizedAffinity>
-4.93227434

$$$$

 OpenBabel03242511263D

 27 29  0  0  0  0  0  0  0  0999 V2000
   40.4630   30.6890   40.6750 Cl  0  0  0  0  0  0  0  0  0  0  0  0
   38.9980   30.7040   39.7390 C   0  0  0  0  0  0  0  0  0  0  0  0
   37.9470   29.9120   40.0870 C   0  0  0  0  0  0  0  0  0  0  0  0
   36.7490   29.8930   39.3550 C   0  0  0  0  0  0  0  0  0  0  0  0
   36.7050   30.7290   38.2600 C   0  0  0  0  0  0  0  0  0  0  0  0
   37.7550   31.5250   37.9100 C   0  0  0  0  0  0  0  0  0  0  0  0
   38.9230   31.5290   38.6400 C   0  0  0  0  0  0  0  0  0  0  0  0
   35.9500   29.2350   39.6890 H   0  0  0  0  0  0  0  0  0  0  0  0
   35.7790   30.7120   37.6980 H   0  0  0  0  0  0  0  0  0  0  0  0
   37.7050   32.1820   37.0390 H   0  0  0  0  0  0  0  0  0  0  0  0
   38.6970   27.0020   42.2150 C   0  0  0  0  0  0  0  0  0  0  0  0
   38.2560   27.4140   43.4800 C   0  0  0  0  0  0  0  0  0  0  0  0
   37.7030   28.6970   43.5890 C   0  0  0  0  0  0  0  0  0  0  0  0
   37.6240   29.4630   42.4710 N   0  0  0  0  0  0  0  0  0  0  0  0
   38.0550   29.0380   41.2720 C   0  0  0  0  0  0  0  0  0  0  0  0
   38.5980   27.7990   41.1330 N   0  0  0  0  0  0  0  0  0  0  0  0
   39.1250   26.0060   42.1400 H   0  0  0  0  0  0  0  0  0  0  0  0
   38.3190   26.8050   44.3690 H   0  0  0  0  0  0  0  0  0  0  0  0
   37.3390   29.0950   44.5240 H   0  0  0  0  0  0  0  0  0  0  0  0
   40.0700   32.3660   38.2990 C   0  0  0  0  0  0  0  0  0  0  0  0
   40.9120   32.1980   37.2140 C   0  0  0  0  0  0  0  0  0  0  0  0
   40.8850   31.4510   36.4460 H   0  0  0  0  0  0  0  0  0  0  0  0
   41.8450   33.1620   37.2390 N   0  0  0  0  0  0  0  0  0  0  0  0
   42.6400   33.3450   36.5810 H   0  0  0  0  0  0  0  0  0  0  0  0
   41.5770   33.9140   38.3300 C   0  0  0  0  0  0  0  0  0  0  0  0
   42.0690   34.7840   38.7320 H   0  0  0  0  0  0  0  0  0  0  0  0
   40.5130   33.4590   38.9900 N   0  0  0  0  0  0  0  0  0  0  0  0
  2  3  1  0  0  0  0
  2  1  1  0  0  0  0
  3 15  1  0  0  0  0
  4  8  1  0  0  0  0
  4  3  2  0  0  0  0
  5  4  1  0  0  0  0
  6  5  2  0  0  0  0
  6  7  1  0  0  0  0
  7  2  2  0  0  0  0
  9  5  1  0  0  0  0
 10  6  1  0  0  0  0
 11 12  1  0  0  0  0
 12 13  2  0  0  0  0
 12 18  1  0  0  0  0
 13 19  1  0  0  0  0
 14 13  1  0  0  0  0
 15 14  2  0  0  0  0
 16 15  1  0  0  0  0
 16 11  2  0  0  0  0
 17 11  1  0  0  0  0
 20  7  1  0  0  0  0
 20 27  1  0  0  0  0
 21 23  1  0  0  0  0
 21 20  2  0  0  0  0
 22 21  1  0  0  0  0
 23 25  1  0  0  0  0
 24 23  1  0  0  0  0
 25 26  1  0  0  0  0
 25 27  2  0  0  0  0
M  END
>  <minimizedAffinity>
-4.82364893

$$$$

 OpenBabel03242511263D

 27 29  0  0  0  0  0  0  0  0999 V2000
   38.1050   27.1270   39.3760 Cl  0  0  0  0  0  0  0  0  0  0  0  0
   37.8200   27.6170   41.0200 C   0  0  0  0  0  0  0  0  0  0  0  0
   37.7640   28.9370   41.3480 C   0  0  0  0  0  0  0  0  0  0  0  0
   37.5410   29.3730   42.6640 C   0  0  0  0  0  0  0  0  0  0  0  0
   37.3800   28.3780   43.6030 C   0  0  0  0  0  0  0  0  0  0  0  0
   37.4330   27.0540   43.2780 C   0  0  0  0  0  0  0  0  0  0  0  0
   37.6560   26.6470   41.9820 C   0  0  0  0  0  0  0  0  0  0  0  0
   37.5090   30.4430   42.8560 H   0  0  0  0  0  0  0  0  0  0  0  0
   37.2070   28.7170   44.6170 H   0  0  0  0  0  0  0  0  0  0  0  0
   37.3050   26.2770   44.0350 H   0  0  0  0  0  0  0  0  0  0  0  0
   39.3590   31.3390   39.0560 C   0  0  0  0  0  0  0  0  0  0  0  0
   38.2730   31.8540   38.3350 C   0  0  0  0  0  0  0  0  0  0  0  0
   36.9960   31.3680   38.6460 C   0  0  0  0  0  0  0  0  0  0  0  0
   36.8820   30.4310   39.6220 N   0  0  0  0  0  0  0  0  0  0  0  0
   37.9430   29.9570   40.2950 C   0  0  0  0  0  0  0  0  0  0  0  0
   39.1960   30.4080   40.0170 N   0  0  0  0  0  0  0  0  0  0  0  0
   40.3450   31.7220   38.8080 H   0  0  0  0  0  0  0  0  0  0  0  0
   38.3630   32.6000   37.5590 H   0  0  0  0  0  0  0  0  0  0  0  0
   36.1060   31.7100   38.1410 H   0  0  0  0  0  0  0  0  0  0  0  0
   37.7200   25.2400   41.5910 C   0  0  0  0  0  0  0  0  0  0  0  0
   38.7830   24.3800   41.8030 C   0  0  0  0  0  0  0  0  0  0  0  0
   39.7250   24.5730   42.2750 H   0  0  0  0  0  0  0  0  0  0  0  0
   38.4670   23.1750   41.3050 N   0  0  0  0  0  0  0  0  0  0  0  0
   39.0270   22.2890   41.2860 H   0  0  0  0  0  0  0  0  0  0  0  0
   37.2230   23.2960   40.7920 C   0  0  0  0  0  0  0  0  0  0  0  0
   36.5850   22.5820   40.2980 H   0  0  0  0  0  0  0  0  0  0  0  0
   36.7450   24.5290   40.9490 N   0  0  0  0  0  0  0  0  0  0  0  0
  1  2  1  0  0  0  0
  2  3  2  0  0  0  0
  2  7  1  0  0  0  0
  3  4  1  0  0  0  0
  4  8  1  0  0  0  0
  4  5  2  0  0  0  0
  5  9  1  0  0  0  0
  6  5  1  0  0  0  0
  6 10  1  0  0  0  0
  7  6  2  0  0  0  0
 11 16  1  0  0  0  0
 12 13  1  0  0  0  0
 12 11  2  0  0  0  0
 13 14  2  0  0  0  0
 14 15  1  0  0  0  0
 15  3  1  0  0  0  0
 16 15  2  0  0  0  0
 17 11  1  0  0  0  0
 18 12  1  0  0  0  0
 19 13  1  0  0  0  0
 20 21  2  0  0  0  0
 20  7  1  0  0  0  0
 21 22  1  0  0  0  0
 23 21  1  0  0  0  0
 24 23  1  0  0  0  0
 25 27  2  0  0  0  0
 25 23  1  0  0  0  0
 26 25  1  0  0  0  0
 27 20  1  0  0  0  0
M  END
>  <minimizedAffinity>
-4.80960226

$$$$

 OpenBabel03242511263D

 27 29  0  0  0  0  0  0  0  0999 V2000
   40.0970   29.7490   41.1760 Cl  0  0  0  0  0  0  0  0  0  0  0  0
   38.3700   29.6110   41.0360 C   0  0  0  0  0  0  0  0  0  0  0  0
   37.7370   28.4590   41.3900 C   0  0  0  0  0  0  0  0  0  0  0  0
   36.3450   28.3070   41.2870 C   0  0  0  0  0  0  0  0  0  0  0  0
   35.6580   29.4010   40.8060 C   0  0  0  0  0  0  0  0  0  0  0  0
   36.2890   30.5580   40.4520 C   0  0  0  0  0  0  0  0  0  0  0  0
   37.6550   30.6870   40.5580 C   0  0  0  0  0  0  0  0  0  0  0  0
   35.9050   27.3590   41.5870 H   0  0  0  0  0  0  0  0  0  0  0  0
   34.5850   29.2800   40.7290 H   0  0  0  0  0  0  0  0  0  0  0  0
   35.7300   31.4160   40.0720 H   0  0  0  0  0  0  0  0  0  0  0  0
   39.5990   26.2550   43.6790 C   0  0  0  0  0  0  0  0  0  0  0  0
   39.9980   25.2020   42.8460 C   0  0  0  0  0  0  0  0  0  0  0  0
   39.6200   25.2590   41.4980 C   0  0  0  0  0  0  0  0  0  0  0  0
   38.8940   26.3250   41.0760 N   0  0  0  0  0  0  0  0  0  0  0  0
   38.5280   27.3210   41.9000 C   0  0  0  0  0  0  0  0  0  0  0  0
   38.8780   27.2950   43.2140 N   0  0  0  0  0  0  0  0  0  0  0  0
   39.8960   26.2030   44.7230 H   0  0  0  0  0  0  0  0  0  0  0  0
   40.5760   24.3530   43.1820 H   0  0  0  0  0  0  0  0  0  0  0  0
   39.8840   24.4910   40.7880 H   0  0  0  0  0  0  0  0  0  0  0  0
   38.3690   31.9070   40.1910 C   0  0  0  0  0  0  0  0  0  0  0  0
   38.8470   32.2280   38.9330 C   0  0  0  0  0  0  0  0  0  0  0  0
   38.7880   31.6650   38.0230 H   0  0  0  0  0  0  0  0  0  0  0  0
   39.4440   33.4280   38.9920 N   0  0  0  0  0  0  0  0  0  0  0  0
   39.9150   33.9820   38.2370 H   0  0  0  0  0  0  0  0  0  0  0  0
   39.3330   33.8390   40.2750 C   0  0  0  0  0  0  0  0  0  0  0  0
   39.6680   34.7370   40.7660 H   0  0  0  0  0  0  0  0  0  0  0  0
   38.6890   32.9430   41.0220 N   0  0  0  0  0  0  0  0  0  0  0  0
  2  1  1  0  0  0  0
  2  3  1  0  0  0  0
  3 15  1  0  0  0  0
  4  3  2  0  0  0  0
  4  8  1  0  0  0  0
  5  4  1  0  0  0  0
  6  7  1  0  0  0  0
  6  5  2  0  0  0  0
  7  2  2  0  0  0  0
  9  5  1  0  0  0  0
 10  6  1  0  0  0  0
 11 17  1  0  0  0  0
 12 18  1  0  0  0  0
 12 11  2  0  0  0  0
 13 12  1  0  0  0  0
 14 13  2  0  0  0  0
 14 15  1  0  0  0  0
 15 16  2  0  0  0  0
 16 11  1  0  0  0  0
 19 13  1  0  0  0  0
 20  7  1  0  0  0  0
 20 27  1  0  0  0  0
 21 23  1  0  0  0  0
 21 20  2  0  0  0  0
 22 21  1  0  0  0  0
 23 25  1  0  0  0  0
 24 23  1  0  0  0  0
 25 26  1  0  0  0  0
 25 27  2  0  0  0  0
M  END
>  <minimizedAffinity>
-4.78773928

$$$$

 OpenBabel03242511263D

 27 29  0  0  0  0  0  0  0  0999 V2000
   40.9190   28.7440   41.1530 Cl  0  0  0  0  0  0  0  0  0  0  0  0
   39.5000   28.3950   42.0960 C   0  0  0  0  0  0  0  0  0  0  0  0
   38.3960   29.1850   42.0050 C   0  0  0  0  0  0  0  0  0  0  0  0
   37.2340   28.9390   42.7520 C   0  0  0  0  0  0  0  0  0  0  0  0
   37.2810   27.8430   43.5860 C   0  0  0  0  0  0  0  0  0  0  0  0
   38.3850   27.0470   43.6800 C   0  0  0  0  0  0  0  0  0  0  0  0
   39.5170   27.3060   42.9390 C   0  0  0  0  0  0  0  0  0  0  0  0
   36.3880   29.6120   42.6300 H   0  0  0  0  0  0  0  0  0  0  0  0
   36.3830   27.6550   44.1610 H   0  0  0  0  0  0  0  0  0  0  0  0
   38.4080   26.1810   44.3460 H   0  0  0  0  0  0  0  0  0  0  0  0
   37.8500   31.2850   39.0280 C   0  0  0  0  0  0  0  0  0  0  0  0
   38.4250   32.5090   39.3970 C   0  0  0  0  0  0  0  0  0  0  0  0
   38.9970   32.6010   40.6730 C   0  0  0  0  0  0  0  0  0  0  0  0
   38.9640   31.5070   41.4750 N   0  0  0  0  0  0  0  0  0  0  0  0
   38.4060   30.3460   41.0920 C   0  0  0  0  0  0  0  0  0  0  0  0
   37.8420   30.2250   39.8600 N   0  0  0  0  0  0  0  0  0  0  0  0
   37.4090   31.2230   38.0370 H   0  0  0  0  0  0  0  0  0  0  0  0
   38.4510   33.3790   38.7580 H   0  0  0  0  0  0  0  0  0  0  0  0
   39.4610   33.5040   41.0370 H   0  0  0  0  0  0  0  0  0  0  0  0
   40.7190   26.4800   43.0090 C   0  0  0  0  0  0  0  0  0  0  0  0
   40.9010   25.2480   42.4070 C   0  0  0  0  0  0  0  0  0  0  0  0
   40.2220   24.6850   41.7980 H   0  0  0  0  0  0  0  0  0  0  0  0
   42.1330   24.8030   42.7010 N   0  0  0  0  0  0  0  0  0  0  0  0
   42.6110   23.9130   42.4180 H   0  0  0  0  0  0  0  0  0  0  0  0
   42.7000   25.7540   43.4750 C   0  0  0  0  0  0  0  0  0  0  0  0
   43.6730   25.8100   43.9340 H   0  0  0  0  0  0  0  0  0  0  0  0
   41.8720   26.7780   43.6790 N   0  0  0  0  0  0  0  0  0  0  0  0
  1  2  1  0  0  0  0
  2  7  1  0  0  0  0
  3  2  2  0  0  0  0
  3  4  1  0  0  0  0
  4  5  2  0  0  0  0
  5  6  1  0  0  0  0
  5  9  1  0  0  0  0
  6 10  1  0  0  0  0
  7 20  1  0  0  0  0
  7  6  2  0  0  0  0
  8  4  1  0  0  0  0
 11 12  2  0  0  0  0
 11 16  1  0  0  0  0
 12 13  1  0  0  0  0
 13 19  1  0  0  0  0
 13 14  2  0  0  0  0
 15 14  1  0  0  0  0
 15  3  1  0  0  0  0
 16 15  2  0  0  0  0
 17 11  1  0  0  0  0
 18 12  1  0  0  0  0
 20 27  1  0  0  0  0
 21 23  1  0  0  0  0
 21 20  2  0  0  0  0
 22 21  1  0  0  0  0
 23 25  1  0  0  0  0
 24 23  1  0  0  0  0
 25 27  2  0  0  0  0
 25 26  1  0  0  0  0
M  END
>  <minimizedAffinity>
-4.71668863

$$$$

 OpenBabel03242511263D

 27 29  0  0  0  0  0  0  0  0999 V2000
   38.4320   28.1780   37.8710 Cl  0  0  0  0  0  0  0  0  0  0  0  0
   37.3720   28.9770   38.9930 C   0  0  0  0  0  0  0  0  0  0  0  0
   36.4840   28.2610   39.7360 C   0  0  0  0  0  0  0  0  0  0  0  0
   35.6080   28.8700   40.6490 C   0  0  0  0  0  0  0  0  0  0  0  0
   35.7060   30.2410   40.7470 C   0  0  0  0  0  0  0  0  0  0  0  0
   36.5960   30.9620   40.0050 C   0  0  0  0  0  0  0  0  0  0  0  0
   37.4450   30.3460   39.1130 C   0  0  0  0  0  0  0  0  0  0  0  0
   34.9240   28.2370   41.2100 H   0  0  0  0  0  0  0  0  0  0  0  0
   35.0300   30.7080   41.4520 H   0  0  0  0  0  0  0  0  0  0  0  0
   36.6610   32.0490   40.0940 H   0  0  0  0  0  0  0  0  0  0  0  0
   35.7320   24.9210   38.3790 C   0  0  0  0  0  0  0  0  0  0  0  0
   36.3250   24.0610   39.3120 C   0  0  0  0  0  0  0  0  0  0  0  0
   36.9830   24.6420   40.4060 C   0  0  0  0  0  0  0  0  0  0  0  0
   37.0070   25.9950   40.4990 N   0  0  0  0  0  0  0  0  0  0  0  0
   36.4270   26.7930   39.5870 C   0  0  0  0  0  0  0  0  0  0  0  0
   35.7820   26.2610   38.5140 N   0  0  0  0  0  0  0  0  0  0  0  0
   35.2240   24.4620   37.5350 H   0  0  0  0  0  0  0  0  0  0  0  0
   36.3050   22.9840   39.2380 H   0  0  0  0  0  0  0  0  0  0  0  0
   37.4670   24.0540   41.1710 H   0  0  0  0  0  0  0  0  0  0  0  0
   38.4120   31.0810   38.3010 C   0  0  0  0  0  0  0  0  0  0  0  0
   38.1570   31.7110   37.0960 C   0  0  0  0  0  0  0  0  0  0  0  0
   37.2380   31.7780   36.5490 H   0  0  0  0  0  0  0  0  0  0  0  0
   39.2920   32.2750   36.6560 N   0  0  0  0  0  0  0  0  0  0  0  0
   39.4730   32.8290   35.7850 H   0  0  0  0  0  0  0  0  0  0  0  0
   40.2340   31.9920   37.5830 C   0  0  0  0  0  0  0  0  0  0  0  0
   41.2800   32.2460   37.6340 H   0  0  0  0  0  0  0  0  0  0  0  0
   39.7340   31.2730   38.5870 N   0  0  0  0  0  0  0  0  0  0  0  0
  1  2  1  0  0  0  0
  2  7  2  0  0  0  0
  2  3  1  0  0  0  0
  3  4  2  0  0  0  0
  4  5  1  0  0  0  0
  4  8  1  0  0  0  0
  5  9  1  0  0  0  0
  6 10  1  0  0  0  0
  6  5  2  0  0  0  0
  7  6  1  0  0  0  0
 11 16  2  0  0  0  0
 11 12  1  0  0  0  0
 12 13  2  0  0  0  0
 13 14  1  0  0  0  0
 13 19  1  0  0  0  0
 15  3  1  0  0  0  0
 15 14  2  0  0  0  0
 16 15  1  0  0  0  0
 17 11  1  0  0  0  0
 18 12  1  0  0  0  0
 20 27  1  0  0  0  0
 20  7  1  0  0  0  0
 21 20  2  0  0  0  0
 22 21  1  0  0  0  0
 23 21  1  0  0  0  0
 23 25  1  0  0  0  0
 24 23  1  0  0  0  0
 25 26  1  0  0  0  0
 25 27  2  0  0  0  0
M  END
>  <minimizedAffinity>
-4.64184999

$$$$

 OpenBabel03242511263D

 27 29  0  0  0  0  0  0  0  0999 V2000
   37.4940   26.8780   39.6950 Cl  0  0  0  0  0  0  0  0  0  0  0  0
   38.2770   26.8490   41.2470 C   0  0  0  0  0  0  0  0  0  0  0  0
   38.4580   27.9990   41.9530 C   0  0  0  0  0  0  0  0  0  0  0  0
   39.0890   28.0180   43.2070 C   0  0  0  0  0  0  0  0  0  0  0  0
   39.5140   26.7950   43.6800 C   0  0  0  0  0  0  0  0  0  0  0  0
   39.3330   25.6400   42.9770 C   0  0  0  0  0  0  0  0  0  0  0  0
   38.7130   25.6430   41.7470 C   0  0  0  0  0  0  0  0  0  0  0  0
   39.2000   28.9730   43.7150 H   0  0  0  0  0  0  0  0  0  0  0  0
   40.0000   26.8130   44.6470 H   0  0  0  0  0  0  0  0  0  0  0  0
   39.6760   24.6790   43.3650 H   0  0  0  0  0  0  0  0  0  0  0  0
   38.4170   31.2480   40.2180 C   0  0  0  0  0  0  0  0  0  0  0  0
   37.0850   31.6600   40.3510 C   0  0  0  0  0  0  0  0  0  0  0  0
   36.2070   30.8100   41.0400 C   0  0  0  0  0  0  0  0  0  0  0  0
   36.6940   29.6450   41.5370 N   0  0  0  0  0  0  0  0  0  0  0  0
   37.9790   29.2790   41.3930 C   0  0  0  0  0  0  0  0  0  0  0  0
   38.8550   30.0800   40.7300 N   0  0  0  0  0  0  0  0  0  0  0  0
   39.0900   31.9130   39.6830 H   0  0  0  0  0  0  0  0  0  0  0  0
   36.6970   32.5870   39.9560 H   0  0  0  0  0  0  0  0  0  0  0  0
   35.1650   31.0490   41.1880 H   0  0  0  0  0  0  0  0  0  0  0  0
   38.5000   24.4300   40.9620 C   0  0  0  0  0  0  0  0  0  0  0  0
   37.4280   23.5610   41.0730 C   0  0  0  0  0  0  0  0  0  0  0  0
   36.5840   23.6100   41.7310 H   0  0  0  0  0  0  0  0  0  0  0  0
   37.5860   22.5670   40.1860 N   0  0  0  0  0  0  0  0  0  0  0  0
   36.9760   21.7380   39.9910 H   0  0  0  0  0  0  0  0  0  0  0  0
   38.7430   22.8240   39.5370 C   0  0  0  0  0  0  0  0  0  0  0  0
   39.2520   22.2910   38.7510 H   0  0  0  0  0  0  0  0  0  0  0  0
   39.3180   23.9410   39.9830 N   0  0  0  0  0  0  0  0  0  0  0  0
  1  2  1  0  0  0  0
  2  7  2  0  0  0  0
  2  3  1  0  0  0  0
  3  4  2  0  0  0  0
  4  5  1  0  0  0  0
  4  8  1  0  0  0  0
  5  9  1  0  0  0  0
  6 10  1  0  0  0  0
  6  5  2  0  0  0  0
  7  6  1  0  0  0  0
 11 12  2  0  0  0  0
 11 16  1  0  0  0  0
 12 13  1  0  0  0  0
 13 19  1  0  0  0  0
 13 14  2  0  0  0  0
 15 14  1  0  0  0  0
 15  3  1  0  0  0  0
 16 15  2  0  0  0  0
 17 11  1  0  0  0  0
 18 12  1  0  0  0  0
 20 21  2  0  0  0  0
 20  7  1  0  0  0  0
 21 22  1  0  0  0  0
 23 21  1  0  0  0  0
 24 23  1  0  0  0  0
 25 27  2  0  0  0  0
 25 23  1  0  0  0  0
 26 25  1  0  0  0  0
 27 20  1  0  0  0  0
M  END
>  <minimizedAffinity>
-4.63496208

$$$$
