
 OpenBabel03252508593D

 44 46  0  0  1  0  0  0  0  0999 V2000
   46.7310   34.4660   43.5900 N   0  0  0  0  0  0  0  0  0  0  0  0
   46.2670   35.5470   42.7860 C   0  0  0  0  0  0  0  0  0  0  0  0
   44.7730   35.7710   42.8220 C   0  0  0  0  0  0  0  0  0  0  0  0
   44.1120   35.4260   44.1280 C   0  0  0  0  0  0  0  0  0  0  0  0
   45.1270   35.0370   45.1760 C   0  0  0  0  0  0  0  0  0  0  0  0
   45.9010   33.8430   44.5050 C   0  0  2  0  0  0  0  0  0  0  0  0
   46.5560   35.5240   41.7360 H   0  0  0  0  0  0  0  0  0  0  0  0
   46.7160   36.4790   43.2050 H   0  0  0  0  0  0  0  0  0  0  0  0
   44.5610   36.8440   42.6290 H   0  0  0  0  0  0  0  0  0  0  0  0
   44.3010   35.2180   41.9580 H   0  0  0  0  0  0  0  0  0  0  0  0
   43.4860   34.5150   43.9470 H   0  0  0  0  0  0  0  0  0  0  0  0
   43.4020   36.2020   44.4800 H   0  0  0  0  0  0  0  0  0  0  0  0
   44.6060   34.6870   46.0740 H   0  0  0  0  0  0  0  0  0  0  0  0
   45.8250   35.8660   45.3180 H   0  0  0  0  0  0  0  0  0  0  0  0
   45.1400   33.1500   44.0910 H   0  0  0  0  0  0  0  0  0  0  0  0
   47.7990   33.7130   42.9980 C   0  0  0  0  0  0  0  0  0  0  0  0
   48.4330   34.4030   42.4370 H   0  0  0  0  0  0  0  0  0  0  0  0
   48.4300   33.2360   43.7790 H   0  0  0  0  0  0  0  0  0  0  0  0
   47.2030   32.6710   42.0970 C   0  0  0  0  0  0  0  0  0  0  0  0
   47.3990   31.6530   42.4540 H   0  0  0  0  0  0  0  0  0  0  0  0
   46.0980   32.7680   42.0360 H   0  0  0  0  0  0  0  0  0  0  0  0
   49.0620   31.9960   38.8990 C   0  0  0  0  0  0  0  0  0  0  0  0
   48.5360   31.8400   40.1940 C   0  0  0  0  0  0  0  0  0  0  0  0
   47.7560   32.8430   40.7250 C   0  0  0  0  0  0  0  0  0  0  0  0
   47.5350   33.9280   39.9740 N   0  0  0  0  0  0  0  0  0  0  0  0
   48.0450   34.0670   38.7320 C   0  0  0  0  0  0  0  0  0  0  0  0
   48.8100   33.1080   38.1860 N   0  0  0  0  0  0  0  0  0  0  0  0
   49.6530   31.1550   38.5870 H   0  0  0  0  0  0  0  0  0  0  0  0
   48.7190   30.9580   40.8000 H   0  0  0  0  0  0  0  0  0  0  0  0
   47.8750   34.9380   38.1150 H   0  0  0  0  0  0  0  0  0  0  0  0
   46.6080   33.3310   45.5820 O   0  0  0  0  0  0  0  0  0  0  0  0
   45.5440   31.0470   44.7230 O   0  0  0  0  0  0  0  0  0  0  0  0
   46.2060   31.7350   45.9260 P   0  0  2  0  0  0  0  0  0  0  0  0
   44.9730   31.8020   47.1120 O   0  0  0  0  0  0  0  0  0  0  0  0
   45.2630   32.3980   47.8590 H   0  0  0  0  0  0  0  0  0  0  0  0
   47.4750   30.8560   46.5410 O   0  0  0  0  0  0  0  0  0  0  0  0
   47.3130   29.5230   46.9010 C   0  0  0  0  0  0  0  0  0  0  0  0
   48.2800   28.5210   47.0100 C   0  0  0  0  0  0  0  0  0  0  0  0
   49.3270   28.6400   46.8250 H   0  0  0  0  0  0  0  0  0  0  0  0
   47.7200   27.3650   47.3840 N   0  0  0  0  0  0  0  0  0  0  0  0
   48.2090   26.4560   47.5410 H   0  0  0  0  0  0  0  0  0  0  0  0
   46.4090   27.6340   47.5100 C   0  0  0  0  0  0  0  0  0  0  0  0
   45.6820   26.8860   47.8060 H   0  0  0  0  0  0  0  0  0  0  0  0
   46.1370   28.9230   47.2260 N   0  0  0  0  0  0  0  0  0  0  0  0
  1  6  1  0  0  0  0
  2  3  1  0  0  0  0
  2  8  1  0  0  0  0
  2  1  1  0  0  0  0
  3  4  1  0  0  0  0
  4 12  1  0  0  0  0
  4  5  1  0  0  0  0
  5 14  1  0  0  0  0
  5 13  1  0  0  0  0
  6 15  1  6  0  0  0
  6  5  1  0  0  0  0
  6 31  1  0  0  0  0
  7  2  1  0  0  0  0
  9  3  1  0  0  0  0
 10  3  1  0  0  0  0
 11  4  1  0  0  0  0
 16  1  1  0  0  0  0
 16 18  1  0  0  0  0
 17 16  1  0  0  0  0
 19 20  1  0  0  0  0
 19 16  1  0  0  0  0
 21 19  1  0  0  0  0
 22 23  1  0  0  0  0
 23 24  2  0  0  0  0
 23 29  1  0  0  0  0
 24 19  1  0  0  0  0
 25 24  1  0  0  0  0
 26 25  2  0  0  0  0
 27 26  1  0  0  0  0
 27 22  2  0  0  0  0
 28 22  1  0  0  0  0
 30 26  1  0  0  0  0
 31 33  1  0  0  0  0
 33 32  2  6  0  0  0
 33 36  1  0  0  0  0
 33 34  1  0  0  0  0
 34 35  1  0  0  0  0
 36 37  1  0  0  0  0
 37 38  2  0  0  0  0
 37 44  1  0  0  0  0
 38 40  1  0  0  0  0
 39 38  1  0  0  0  0
 40 42  1  0  0  0  0
 40 41  1  0  0  0  0
 42 43  1  0  0  0  0
 44 42  2  0  0  0  0
M  END
>  <minimizedAffinity>
-4.16729546

>  <minimizedRMSD>
1.14930761

$$$$
