
 OpenBabel03252500313D

 42 45  0  0  1  0  0  0  0  0999 V2000
   45.8150   31.6940   46.8010 N   0  0  0  0  0  0  0  0  0  0  0  0
   46.3040   32.5990   47.7660 C   0  0  0  0  0  0  0  0  0  0  0  0
   47.7090   32.2300   48.2510 C   0  0  0  0  0  0  0  0  0  0  0  0
   47.5600   30.9200   48.9920 C   0  0  0  0  0  0  0  0  0  0  0  0
   47.0960   29.9160   47.9530 C   0  0  0  0  0  0  0  0  0  0  0  0
   45.8800   30.3500   47.1980 C   0  0  2  0  0  0  0  0  0  0  0  0
   45.6650   32.3830   48.6820 H   0  0  0  0  0  0  0  0  0  0  0  0
   46.1350   33.6560   47.6260 H   0  0  0  0  0  0  0  0  0  0  0  0
   48.1230   33.0360   48.8700 H   0  0  0  0  0  0  0  0  0  0  0  0
   48.3840   32.0180   47.3790 H   0  0  0  0  0  0  0  0  0  0  0  0
   46.8210   31.0450   49.7860 H   0  0  0  0  0  0  0  0  0  0  0  0
   48.5280   30.5500   49.3740 H   0  0  0  0  0  0  0  0  0  0  0  0
   46.8220   28.9940   48.5290 H   0  0  0  0  0  0  0  0  0  0  0  0
   47.9350   29.6620   47.2900 H   0  0  0  0  0  0  0  0  0  0  0  0
   45.0200   30.2000   47.9120 H   0  0  0  0  0  0  0  0  0  0  0  0
   45.6690   29.3940   46.0890 C   0  0  0  0  0  0  0  0  0  0  0  0
   44.4460   28.9130   45.6070 C   0  0  0  0  0  0  0  0  0  0  0  0
   43.4600   29.1930   46.0050 H   0  0  0  0  0  0  0  0  0  0  0  0
   44.6570   28.0500   44.5800 N   0  0  0  0  0  0  0  0  0  0  0  0
   43.9140   27.5440   44.0360 H   0  0  0  0  0  0  0  0  0  0  0  0
   45.9910   27.9950   44.4210 C   0  0  0  0  0  0  0  0  0  0  0  0
   46.5340   27.3950   43.6790 H   0  0  0  0  0  0  0  0  0  0  0  0
   46.5960   28.7940   45.3190 N   0  0  0  0  0  0  0  0  0  0  0  0
   46.0710   32.0290   45.4380 C   0  0  0  0  0  0  0  0  0  0  0  0
   45.2930   31.6420   44.7570 H   0  0  0  0  0  0  0  0  0  0  0  0
   47.0680   31.6220   45.1270 H   0  0  0  0  0  0  0  0  0  0  0  0
   46.5300   34.1740   44.0210 C   0  0  1  0  0  0  0  0  0  0  0  0
   45.1690   34.1960   44.4080 C   0  0  0  0  0  0  0  0  0  0  0  0
   46.1030   33.5110   45.3460 C   0  0  1  0  0  0  0  0  0  0  0  0
   47.1470   35.1040   44.1060 H   0  0  0  0  0  0  0  0  0  0  0  0
   44.4440   33.5160   43.8920 H   0  0  0  0  0  0  0  0  0  0  0  0
   44.6730   35.1070   44.7660 H   0  0  0  0  0  0  0  0  0  0  0  0
   46.5960   34.0320   46.1810 H   0  0  0  0  0  0  0  0  0  0  0  0
   46.2460   32.7560   41.9880 C   0  0  0  0  0  0  0  0  0  0  0  0
   47.1180   33.2810   42.9850 C   0  0  0  0  0  0  0  0  0  0  0  0
   48.4480   32.9440   42.9530 C   0  0  0  0  0  0  0  0  0  0  0  0
   48.8710   32.1130   41.9550 N   0  0  0  0  0  0  0  0  0  0  0  0
   48.0180   31.6220   41.0090 C   0  0  0  0  0  0  0  0  0  0  0  0
   46.6850   31.9350   41.0090 N   0  0  0  0  0  0  0  0  0  0  0  0
   45.1980   33.0170   42.0060 H   0  0  0  0  0  0  0  0  0  0  0  0
   49.0900   33.3410   43.7020 H   0  0  0  0  0  0  0  0  0  0  0  0
   48.3950   30.9620   40.2300 H   0  0  0  0  0  0  0  0  0  0  0  0
  1  6  1  0  0  0  0
  1  2  1  0  0  0  0
  2  3  1  0  0  0  0
  2  7  1  0  0  0  0
  3  9  1  0  0  0  0
  3  4  1  0  0  0  0
  4 12  1  0  0  0  0
  4 11  1  0  0  0  0
  5 13  1  0  0  0  0
  5  4  1  0  0  0  0
  6 15  1  1  0  0  0
  6  5  1  0  0  0  0
  8  2  1  0  0  0  0
 10  3  1  0  0  0  0
 14  5  1  0  0  0  0
 16  6  1  0  0  0  0
 17 18  1  0  0  0  0
 17 16  2  0  0  0  0
 19 17  1  0  0  0  0
 20 19  1  0  0  0  0
 21 19  1  0  0  0  0
 21 23  2  0  0  0  0
 22 21  1  0  0  0  0
 23 16  1  0  0  0  0
 24  1  1  0  0  0  0
 25 24  1  0  0  0  0
 26 24  1  0  0  0  0
 27 30  1  1  0  0  0
 27 28  1  0  0  0  0
 27 29  1  0  0  0  0
 28 32  1  0  0  0  0
 28 29  1  0  0  0  0
 29 24  1  0  0  0  0
 29 33  1  1  0  0  0
 31 28  1  0  0  0  0
 34 40  1  0  0  0  0
 34 35  1  0  0  0  0
 35 27  1  0  0  0  0
 36 35  2  0  0  0  0
 36 41  1  0  0  0  0
 37 36  1  0  0  0  0
 38 37  2  0  0  0  0
 39 38  1  0  0  0  0
 39 34  2  0  0  0  0
 42 38  1  0  0  0  0
M  END
>  <minimizedAffinity>
-3.87984467

>  <minimizedRMSD>
1.28979433

$$$$
