
 OpenBabel03242517333D

 46 49  0  0  1  0  0  0  0  0999 V2000
   36.6910   25.1370   38.2940 C   0  0  0  0  0  0  0  0  0  0  0  0
   35.7860   24.0720   38.5590 C   0  0  0  0  0  0  0  0  0  0  0  0
   35.7950   23.5000   39.8240 C   0  0  0  0  0  0  0  0  0  0  0  0
   36.6690   23.9880   40.7440 N   0  0  0  0  0  0  0  0  0  0  0  0
   37.5130   24.9820   40.4920 C   0  0  0  0  0  0  0  0  0  0  0  0
   37.4970   25.5270   39.2700 N   0  0  0  0  0  0  0  0  0  0  0  0
   38.3750   25.4250   41.4820 N   0  0  0  0  0  0  0  0  0  0  0  0
   39.3160   24.5160   42.1010 C   0  0  0  0  0  0  0  0  0  0  0  0
   39.8910   25.0270   43.3800 C   0  0  0  0  0  0  0  0  0  0  0  0
   40.0450   26.4290   43.5160 N   0  0  0  0  0  0  0  0  0  0  0  0
   39.7390   27.1500   42.3070 C   0  0  0  0  0  0  0  0  0  0  0  0
   38.3360   26.8380   41.9110 C   0  0  2  0  0  0  0  0  0  0  0  0
   36.7550   25.6390   37.3460 H   0  0  0  0  0  0  0  0  0  0  0  0
   35.1400   23.7650   37.7610 H   0  0  0  0  0  0  0  0  0  0  0  0
   35.1140   22.6970   40.0230 H   0  0  0  0  0  0  0  0  0  0  0  0
   40.1450   24.2170   41.4230 H   0  0  0  0  0  0  0  0  0  0  0  0
   38.7360   23.5770   42.2930 H   0  0  0  0  0  0  0  0  0  0  0  0
   39.2190   24.6730   44.2060 H   0  0  0  0  0  0  0  0  0  0  0  0
   40.8650   24.5080   43.5570 H   0  0  0  0  0  0  0  0  0  0  0  0
   40.9710   26.7370   43.8890 H   0  0  0  0  0  0  0  0  0  0  0  0
   40.3960   26.6770   41.5140 H   0  0  0  0  0  0  0  0  0  0  0  0
   40.0250   28.1940   42.3570 H   0  0  0  0  0  0  0  0  0  0  0  0
   38.0250   27.4440   41.0530 H   0  0  0  0  0  0  0  0  0  0  0  0
   37.3450   27.0340   43.0340 C   0  0  0  0  0  0  0  0  0  0  0  0
   37.8150   27.3330   43.9740 H   0  0  0  0  0  0  0  0  0  0  0  0
   36.7160   26.1270   43.1300 H   0  0  0  0  0  0  0  0  0  0  0  0
   36.4080   28.1260   42.5570 C   0  0  0  0  0  3  0  0  0  0  0  0
   36.2930   28.3630   41.2500 C   0  0  0  0  0  3  0  0  0  0  0  0
   35.4130   29.4080   40.6540 C   0  0  0  0  0  0  0  0  0  0  0  0
   34.7490   28.9720   39.8640 H   0  0  0  0  0  0  0  0  0  0  0  0
   34.8040   29.8350   41.4720 H   0  0  0  0  0  0  0  0  0  0  0  0
   36.2860   30.5280   40.1180 C   0  0  2  0  0  0  0  0  0  0  0  0
   37.3790   30.1490   39.1660 C   0  0  0  0  0  0  0  0  0  0  0  0
   37.6790   30.6490   40.5690 C   0  0  1  0  0  0  0  0  0  0  0  0
   35.7450   31.4920   39.8910 H   0  0  0  0  0  0  0  0  0  0  0  0
   37.5210   29.0650   38.9480 H   0  0  0  0  0  0  0  0  0  0  0  0
   37.5670   30.8520   38.3250 H   0  0  0  0  0  0  0  0  0  0  0  0
   38.0360   29.8720   41.2680 H   0  0  0  0  0  0  0  0  0  0  0  0
   38.3380   31.9880   40.6420 C   0  0  0  0  0  0  0  0  0  0  0  0
   39.6300   32.2580   41.0970 C   0  0  0  0  0  0  0  0  0  0  0  0
   40.3550   31.5290   41.4680 H   0  0  0  0  0  0  0  0  0  0  0  0
   39.8410   33.5970   40.9990 N   0  0  0  0  0  0  0  0  0  0  0  0
   40.6990   34.1510   41.2500 H   0  0  0  0  0  0  0  0  0  0  0  0
   38.7250   34.1600   40.5000 C   0  0  0  0  0  0  0  0  0  0  0  0
   38.5060   35.1980   40.2800 H   0  0  0  0  0  0  0  0  0  0  0  0
   37.8330   33.1910   40.2920 N   0  0  0  0  0  0  0  0  0  0  0  0
  1  2  2  0  0  0  0
  1  6  1  0  0  0  0
  2  3  1  0  0  0  0
  3 15  1  0  0  0  0
  3  4  2  0  0  0  0
  5  4  1  0  0  0  0
  5  7  1  0  0  0  0
  6  5  2  0  0  0  0
  7 12  1  0  0  0  0
  7  8  1  0  0  0  0
  8 17  1  0  0  0  0
  8  9  1  0  0  0  0
  9 10  1  0  0  0  0
  9 19  1  0  0  0  0
  9 18  1  0  0  0  0
 10 20  1  0  0  0  0
 11 22  1  0  0  0  0
 11 10  1  0  0  0  0
 12 23  1  6  0  0  0
 12 11  1  0  0  0  0
 12 24  1  0  0  0  0
 13  1  1  0  0  0  0
 14  2  1  0  0  0  0
 16  8  1  0  0  0  0
 21 11  1  0  0  0  0
 24 26  1  0  0  0  0
 24 25  1  0  0  0  0
 27 24  1  0  0  0  0
 28 27  2  0  0  0  0
 29 28  1  0  0  0  0
 29 31  1  0  0  0  0
 30 29  1  0  0  0  0
 32 35  1  6  0  0  0
 32 34  1  0  0  0  0
 32 29  1  0  0  0  0
 33 32  1  0  0  0  0
 33 34  1  0  0  0  0
 34 39  1  0  0  0  0
 34 38  1  1  0  0  0
 36 33  1  0  0  0  0
 37 33  1  0  0  0  0
 39 40  2  0  0  0  0
 40 41  1  0  0  0  0
 42 40  1  0  0  0  0
 42 43  1  0  0  0  0
 44 42  1  0  0  0  0
 45 44  1  0  0  0  0
 46 44  2  0  0  0  0
 46 39  1  0  0  0  0
M  END
>  <minimizedAffinity>
-5.5201745

$$$$

 OpenBabel03242517333D

 46 49  0  0  1  0  0  0  0  0999 V2000
   39.5300   28.2830   37.8250 C   0  0  0  0  0  0  0  0  0  0  0  0
   38.5560   27.7670   36.9260 C   0  0  0  0  0  0  0  0  0  0  0  0
   37.3030   27.4430   37.4280 C   0  0  0  0  0  0  0  0  0  0  0  0
   37.0720   27.6360   38.7530 N   0  0  0  0  0  0  0  0  0  0  0  0
   37.9840   28.1180   39.5900 C   0  0  0  0  0  0  0  0  0  0  0  0
   39.1890   28.4270   39.0970 N   0  0  0  0  0  0  0  0  0  0  0  0
   37.6740   28.2870   40.9290 N   0  0  0  0  0  0  0  0  0  0  0  0
   37.2400   27.1640   41.7330 C   0  0  0  0  0  0  0  0  0  0  0  0
   36.5900   27.5610   43.0160 C   0  0  0  0  0  0  0  0  0  0  0  0
   37.0260   28.7610   43.6290 N   0  0  0  0  0  0  0  0  0  0  0  0
   38.1590   29.3540   42.9650 C   0  0  0  0  0  0  0  0  0  0  0  0
   37.7880   29.6240   41.5460 C   0  0  2  0  0  0  0  0  0  0  0  0
   40.5250   28.5600   37.5260 H   0  0  0  0  0  0  0  0  0  0  0  0
   38.8440   27.6540   35.9000 H   0  0  0  0  0  0  0  0  0  0  0  0
   36.5690   27.0530   36.7510 H   0  0  0  0  0  0  0  0  0  0  0  0
   38.0550   26.4380   41.9460 H   0  0  0  0  0  0  0  0  0  0  0  0
   36.5080   26.6090   41.0920 H   0  0  0  0  0  0  0  0  0  0  0  0
   35.4910   27.6600   42.8110 H   0  0  0  0  0  0  0  0  0  0  0  0
   36.6740   26.7050   43.7300 H   0  0  0  0  0  0  0  0  0  0  0  0
   37.2130   28.6910   44.6540 H   0  0  0  0  0  0  0  0  0  0  0  0
   38.9360   28.5320   42.9290 H   0  0  0  0  0  0  0  0  0  0  0  0
   38.5990   30.1670   43.5300 H   0  0  0  0  0  0  0  0  0  0  0  0
   38.5850   30.1690   41.0280 H   0  0  0  0  0  0  0  0  0  0  0  0
   36.4970   30.3950   41.4060 C   0  0  0  0  0  0  0  0  0  0  0  0
   36.0910   30.7280   42.3650 H   0  0  0  0  0  0  0  0  0  0  0  0
   35.7770   29.7990   40.8110 H   0  0  0  0  0  0  0  0  0  0  0  0
   36.8360   31.5950   40.5460 C   0  0  0  0  0  3  0  0  0  0  0  0
   38.0530   32.1340   40.6260 C   0  0  0  0  0  3  0  0  0  0  0  0
   38.5090   33.3150   39.8400 C   0  0  0  0  0  0  0  0  0  0  0  0
   37.7090   33.6630   39.1370 H   0  0  0  0  0  0  0  0  0  0  0  0
   38.7590   34.1160   40.5600 H   0  0  0  0  0  0  0  0  0  0  0  0
   39.7920   32.9500   39.1170 C   0  0  2  0  0  0  0  0  0  0  0  0
   40.6660   31.9130   39.7540 C   0  0  0  0  0  0  0  0  0  0  0  0
   41.0870   33.3700   39.6690 C   0  0  1  0  0  0  0  0  0  0  0  0
   39.7140   32.9080   37.9930 H   0  0  0  0  0  0  0  0  0  0  0  0
   40.3510   31.5080   40.7440 H   0  0  0  0  0  0  0  0  0  0  0  0
   41.1660   31.1980   39.0650 H   0  0  0  0  0  0  0  0  0  0  0  0
   41.0560   33.9140   40.6300 H   0  0  0  0  0  0  0  0  0  0  0  0
   42.2420   33.6490   38.7640 C   0  0  0  0  0  0  0  0  0  0  0  0
   42.1790   33.9940   37.4130 C   0  0  0  0  0  0  0  0  0  0  0  0
   41.2730   34.1130   36.8140 H   0  0  0  0  0  0  0  0  0  0  0  0
   43.4500   34.1610   36.9600 N   0  0  0  0  0  0  0  0  0  0  0  0
   43.7780   34.4240   35.9960 H   0  0  0  0  0  0  0  0  0  0  0  0
   44.2910   33.9310   37.9840 C   0  0  0  0  0  0  0  0  0  0  0  0
   45.3740   33.9650   38.0170 H   0  0  0  0  0  0  0  0  0  0  0  0
   43.5610   33.6250   39.0560 N   0  0  0  0  0  0  0  0  0  0  0  0
  1  6  1  0  0  0  0
  2  3  1  0  0  0  0
  2  1  2  0  0  0  0
  3  4  2  0  0  0  0
  4  5  1  0  0  0  0
  5  7  1  0  0  0  0
  6  5  2  0  0  0  0
  7 12  1  0  0  0  0
  7  8  1  0  0  0  0
  8 16  1  0  0  0  0
  8  9  1  0  0  0  0
  9 10  1  0  0  0  0
  9 19  1  0  0  0  0
 10 20  1  0  0  0  0
 11 22  1  0  0  0  0
 11 10  1  0  0  0  0
 12 23  1  6  0  0  0
 12 11  1  0  0  0  0
 13  1  1  0  0  0  0
 14  2  1  0  0  0  0
 15  3  1  0  0  0  0
 17  8  1  0  0  0  0
 18  9  1  0  0  0  0
 21 11  1  0  0  0  0
 24 12  1  0  0  0  0
 24 25  1  0  0  0  0
 26 24  1  0  0  0  0
 27 28  2  0  0  0  0
 27 24  1  0  0  0  0
 29 31  1  0  0  0  0
 29 28  1  0  0  0  0
 30 29  1  0  0  0  0
 32 35  1  6  0  0  0
 32 34  1  0  0  0  0
 32 33  1  0  0  0  0
 32 29  1  0  0  0  0
 33 36  1  0  0  0  0
 34 33  1  0  0  0  0
 34 38  1  1  0  0  0
 37 33  1  0  0  0  0
 39 46  1  0  0  0  0
 39 34  1  0  0  0  0
 40 39  2  0  0  0  0
 41 40  1  0  0  0  0
 42 40  1  0  0  0  0
 42 44  1  0  0  0  0
 43 42  1  0  0  0  0
 44 45  1  0  0  0  0
 44 46  2  0  0  0  0
M  END
>  <minimizedAffinity>
-5.51224327

$$$$

 OpenBabel03242517333D

 46 49  0  0  1  0  0  0  0  0999 V2000
   38.7470   28.4750   36.9260 C   0  0  0  0  0  0  0  0  0  0  0  0
   39.6150   27.5960   37.6310 C   0  0  0  0  0  0  0  0  0  0  0  0
   40.0700   27.9850   38.8830 C   0  0  0  0  0  0  0  0  0  0  0  0
   39.6620   29.1860   39.3710 N   0  0  0  0  0  0  0  0  0  0  0  0
   38.8520   30.0050   38.7100 C   0  0  0  0  0  0  0  0  0  0  0  0
   38.4180   29.6210   37.5030 N   0  0  0  0  0  0  0  0  0  0  0  0
   38.4800   31.2140   39.2730 N   0  0  0  0  0  0  0  0  0  0  0  0
   39.4800   32.1890   39.6530 C   0  0  0  0  0  0  0  0  0  0  0  0
   38.9670   33.2460   40.5730 C   0  0  0  0  0  0  0  0  0  0  0  0
   37.6070   33.6190   40.4510 N   0  0  0  0  0  0  0  0  0  0  0  0
   36.9490   32.9950   39.3310 C   0  0  0  0  0  0  0  0  0  0  0  0
   37.0500   31.5160   39.4860 C   0  0  2  0  0  0  0  0  0  0  0  0
   38.3460   28.2580   35.9530 H   0  0  0  0  0  0  0  0  0  0  0  0
   39.8730   26.6720   37.1540 H   0  0  0  0  0  0  0  0  0  0  0  0
   40.7250   27.3230   39.4140 H   0  0  0  0  0  0  0  0  0  0  0  0
   39.9740   32.6730   38.7810 H   0  0  0  0  0  0  0  0  0  0  0  0
   40.2860   31.6000   40.1620 H   0  0  0  0  0  0  0  0  0  0  0  0
   39.1300   32.8770   41.6210 H   0  0  0  0  0  0  0  0  0  0  0  0
   39.6280   34.1430   40.4780 H   0  0  0  0  0  0  0  0  0  0  0  0
   37.4300   34.6490   40.4380 H   0  0  0  0  0  0  0  0  0  0  0  0
   37.5930   33.2560   38.4360 H   0  0  0  0  0  0  0  0  0  0  0  0
   35.9690   33.4120   39.1340 H   0  0  0  0  0  0  0  0  0  0  0  0
   36.4750   30.9990   38.7100 H   0  0  0  0  0  0  0  0  0  0  0  0
   36.5920   31.0290   40.8410 C   0  0  0  0  0  0  0  0  0  0  0  0
   35.6570   31.4900   41.1690 H   0  0  0  0  0  0  0  0  0  0  0  0
   37.4170   31.1480   41.5710 H   0  0  0  0  0  0  0  0  0  0  0  0
   36.4010   29.5340   40.6870 C   0  0  0  0  0  3  0  0  0  0  0  0
   36.9630   28.7090   41.5720 C   0  0  0  0  0  3  0  0  0  0  0  0
   36.8560   27.2230   41.5300 C   0  0  0  0  0  0  0  0  0  0  0  0
   35.8220   26.8870   41.8020 H   0  0  0  0  0  0  0  0  0  0  0  0
   37.1020   26.9010   40.5010 H   0  0  0  0  0  0  0  0  0  0  0  0
   37.9130   26.6340   42.4460 C   0  0  2  0  0  0  0  0  0  0  0  0
   38.2590   27.4110   43.6800 C   0  0  0  0  0  0  0  0  0  0  0  0
   39.2390   27.2610   42.5290 C   0  0  1  0  0  0  0  0  0  0  0  0
   37.8770   25.5130   42.5610 H   0  0  0  0  0  0  0  0  0  0  0  0
   37.7600   28.3970   43.8270 H   0  0  0  0  0  0  0  0  0  0  0  0
   38.4580   26.8160   44.5980 H   0  0  0  0  0  0  0  0  0  0  0  0
   39.3860   28.1770   41.9280 H   0  0  0  0  0  0  0  0  0  0  0  0
   40.4490   26.4370   42.8250 C   0  0  0  0  0  0  0  0  0  0  0  0
   40.6470   25.0970   42.4900 C   0  0  0  0  0  0  0  0  0  0  0  0
   39.9460   24.4470   41.9600 H   0  0  0  0  0  0  0  0  0  0  0  0
   41.8760   24.7260   42.9390 N   0  0  0  0  0  0  0  0  0  0  0  0
   42.3550   23.7930   42.8610 H   0  0  0  0  0  0  0  0  0  0  0  0
   42.4400   25.7920   43.5360 C   0  0  0  0  0  0  0  0  0  0  0  0
   43.4070   25.8920   44.0140 H   0  0  0  0  0  0  0  0  0  0  0  0
   41.5800   26.8080   43.4640 N   0  0  0  0  0  0  0  0  0  0  0  0
  1  6  2  0  0  0  0
  1  2  1  0  0  0  0
  2  3  2  0  0  0  0
  3  4  1  0  0  0  0
  3 15  1  0  0  0  0
  5  7  1  0  0  0  0
  5  4  2  0  0  0  0
  6  5  1  0  0  0  0
  7 12  1  0  0  0  0
  7  8  1  0  0  0  0
  8 17  1  0  0  0  0
  8  9  1  0  0  0  0
  9 18  1  0  0  0  0
 10  9  1  0  0  0  0
 11 12  1  0  0  0  0
 11 10  1  0  0  0  0
 12 23  1  6  0  0  0
 12 24  1  0  0  0  0
 13  1  1  0  0  0  0
 14  2  1  0  0  0  0
 16  8  1  0  0  0  0
 19  9  1  0  0  0  0
 20 10  1  0  0  0  0
 21 11  1  0  0  0  0
 22 11  1  0  0  0  0
 24 25  1  0  0  0  0
 24 26  1  0  0  0  0
 27 24  1  0  0  0  0
 27 28  2  0  0  0  0
 29 28  1  0  0  0  0
 29 30  1  0  0  0  0
 29 32  1  0  0  0  0
 31 29  1  0  0  0  0
 32 34  1  0  0  0  0
 32 35  1  1  0  0  0
 32 33  1  0  0  0  0
 33 36  1  0  0  0  0
 33 37  1  0  0  0  0
 34 38  1  6  0  0  0
 34 39  1  0  0  0  0
 34 33  1  0  0  0  0
 39 46  1  0  0  0  0
 40 39  2  0  0  0  0
 40 42  1  0  0  0  0
 41 40  1  0  0  0  0
 42 44  1  0  0  0  0
 43 42  1  0  0  0  0
 44 45  1  0  0  0  0
 46 44  2  0  0  0  0
M  END
>  <minimizedAffinity>
-5.40709591

$$$$

 OpenBabel03242517333D

 46 49  0  0  1  0  0  0  0  0999 V2000
   37.2610   29.3580   37.9980 C   0  0  0  0  0  0  0  0  0  0  0  0
   35.8690   29.6280   37.8870 C   0  0  0  0  0  0  0  0  0  0  0  0
   34.9930   28.9160   38.6940 C   0  0  0  0  0  0  0  0  0  0  0  0
   35.5130   27.9970   39.5510 N   0  0  0  0  0  0  0  0  0  0  0  0
   36.8130   27.7470   39.6520 C   0  0  0  0  0  0  0  0  0  0  0  0
   37.6490   28.4390   38.8690 N   0  0  0  0  0  0  0  0  0  0  0  0
   37.2660   26.7940   40.5490 N   0  0  0  0  0  0  0  0  0  0  0  0
   36.8070   25.4240   40.4660 C   0  0  0  0  0  0  0  0  0  0  0  0
   37.0740   24.6260   41.6980 C   0  0  0  0  0  0  0  0  0  0  0  0
   38.2230   24.9560   42.4570 N   0  0  0  0  0  0  0  0  0  0  0  0
   39.0500   25.9520   41.8250 C   0  0  0  0  0  0  0  0  0  0  0  0
   38.2300   27.1760   41.6010 C   0  0  2  0  0  0  0  0  0  0  0  0
   38.0110   29.8600   37.4140 H   0  0  0  0  0  0  0  0  0  0  0  0
   35.5670   30.3740   37.1780 H   0  0  0  0  0  0  0  0  0  0  0  0
   33.9440   29.1180   38.6100 H   0  0  0  0  0  0  0  0  0  0  0  0
   37.2110   24.8800   39.5840 H   0  0  0  0  0  0  0  0  0  0  0  0
   35.7030   25.4950   40.2910 H   0  0  0  0  0  0  0  0  0  0  0  0
   36.1780   24.7390   42.3630 H   0  0  0  0  0  0  0  0  0  0  0  0
   37.0890   23.5440   41.4160 H   0  0  0  0  0  0  0  0  0  0  0  0
   38.8090   24.1410   42.7490 H   0  0  0  0  0  0  0  0  0  0  0  0
   39.2680   25.5350   40.7940 H   0  0  0  0  0  0  0  0  0  0  0  0
   40.0090   26.0730   42.3140 H   0  0  0  0  0  0  0  0  0  0  0  0
   38.8460   27.9970   41.2150 H   0  0  0  0  0  0  0  0  0  0  0  0
   37.5130   27.6460   42.8450 C   0  0  0  0  0  0  0  0  0  0  0  0
   37.5180   26.9040   43.6480 H   0  0  0  0  0  0  0  0  0  0  0  0
   36.4950   27.9890   42.5740 H   0  0  0  0  0  0  0  0  0  0  0  0
   38.2540   28.8900   43.2910 C   0  0  0  0  0  3  0  0  0  0  0  0
   38.9640   29.5820   42.3990 C   0  0  0  0  0  3  0  0  0  0  0  0
   39.7390   30.8170   42.7100 C   0  0  0  0  0  0  0  0  0  0  0  0
   39.3570   31.3080   43.6420 H   0  0  0  0  0  0  0  0  0  0  0  0
   40.7960   30.5210   42.8420 H   0  0  0  0  0  0  0  0  0  0  0  0
   39.6830   31.7400   41.5080 C   0  0  2  0  0  0  0  0  0  0  0  0
   38.3830   31.8190   40.7650 C   0  0  0  0  0  0  0  0  0  0  0  0
   39.6150   31.1740   40.1540 C   0  0  1  0  0  0  0  0  0  0  0  0
   40.2470   32.7100   41.6210 H   0  0  0  0  0  0  0  0  0  0  0  0
   37.5520   31.1580   41.1060 H   0  0  0  0  0  0  0  0  0  0  0  0
   38.0920   32.8220   40.3850 H   0  0  0  0  0  0  0  0  0  0  0  0
   39.5720   30.0720   40.0860 H   0  0  0  0  0  0  0  0  0  0  0  0
   40.2100   31.9070   38.9960 C   0  0  0  0  0  0  0  0  0  0  0  0
   39.8340   31.7960   37.6560 C   0  0  0  0  0  0  0  0  0  0  0  0
   39.0460   31.1560   37.2530 H   0  0  0  0  0  0  0  0  0  0  0  0
   40.6220   32.6300   36.9260 N   0  0  0  0  0  0  0  0  0  0  0  0
   40.6170   32.8040   35.8890 H   0  0  0  0  0  0  0  0  0  0  0  0
   41.4680   33.2490   37.7690 C   0  0  0  0  0  0  0  0  0  0  0  0
   42.2420   33.9790   37.5680 H   0  0  0  0  0  0  0  0  0  0  0  0
   41.2150   32.8100   39.0020 N   0  0  0  0  0  0  0  0  0  0  0  0
  1  6  1  0  0  0  0
  2  1  2  0  0  0  0
  2  3  1  0  0  0  0
  3  4  2  0  0  0  0
  4  5  1  0  0  0  0
  5  7  1  0  0  0  0
  6  5  2  0  0  0  0
  7 12  1  0  0  0  0
  8  7  1  0  0  0  0
  8  9  1  0  0  0  0
  9 18  1  0  0  0  0
  9 10  1  0  0  0  0
 10 20  1  0  0  0  0
 11 22  1  0  0  0  0
 11 10  1  0  0  0  0
 12 23  1  6  0  0  0
 12 11  1  0  0  0  0
 12 24  1  0  0  0  0
 13  1  1  0  0  0  0
 14  2  1  0  0  0  0
 15  3  1  0  0  0  0
 16  8  1  0  0  0  0
 17  8  1  0  0  0  0
 19  9  1  0  0  0  0
 21 11  1  0  0  0  0
 24 27  1  0  0  0  0
 24 25  1  0  0  0  0
 26 24  1  0  0  0  0
 28 29  1  0  0  0  0
 28 27  2  0  0  0  0
 29 31  1  0  0  0  0
 29 30  1  0  0  0  0
 32 35  1  1  0  0  0
 32 29  1  0  0  0  0
 33 36  1  0  0  0  0
 33 32  1  0  0  0  0
 34 38  1  6  0  0  0
 34 33  1  0  0  0  0
 34 32  1  0  0  0  0
 37 33  1  0  0  0  0
 39 46  1  0  0  0  0
 39 34  1  0  0  0  0
 40 39  2  0  0  0  0
 41 40  1  0  0  0  0
 42 40  1  0  0  0  0
 42 44  1  0  0  0  0
 43 42  1  0  0  0  0
 44 46  2  0  0  0  0
 45 44  1  0  0  0  0
M  END
>  <minimizedAffinity>
-5.40155649

$$$$

 OpenBabel03242517333D

 46 49  0  0  1  0  0  0  0  0999 V2000
   39.2990   28.7700   37.2690 C   0  0  0  0  0  0  0  0  0  0  0  0
   40.6120   28.3870   36.8790 C   0  0  0  0  0  0  0  0  0  0  0  0
   41.6810   29.1490   37.3300 C   0  0  0  0  0  0  0  0  0  0  0  0
   41.4180   30.2210   38.1220 N   0  0  0  0  0  0  0  0  0  0  0  0
   40.1910   30.5760   38.4850 C   0  0  0  0  0  0  0  0  0  0  0  0
   39.1660   29.8360   38.0450 N   0  0  0  0  0  0  0  0  0  0  0  0
   40.0020   31.6830   39.2950 N   0  0  0  0  0  0  0  0  0  0  0  0
   40.4720   32.9880   38.8830 C   0  0  0  0  0  0  0  0  0  0  0  0
   40.5400   33.9800   39.9950 C   0  0  0  0  0  0  0  0  0  0  0  0
   39.6010   33.8510   41.0480 N   0  0  0  0  0  0  0  0  0  0  0  0
   38.6120   32.8340   40.8000 C   0  0  0  0  0  0  0  0  0  0  0  0
   39.3120   31.5340   40.5920 C   0  0  2  0  0  0  0  0  0  0  0  0
   38.4130   28.2410   36.9690 H   0  0  0  0  0  0  0  0  0  0  0  0
   40.7070   27.5240   36.2510 H   0  0  0  0  0  0  0  0  0  0  0  0
   42.6710   28.8610   37.0340 H   0  0  0  0  0  0  0  0  0  0  0  0
   39.8830   33.4200   38.0440 H   0  0  0  0  0  0  0  0  0  0  0  0
   41.4970   32.8130   38.4660 H   0  0  0  0  0  0  0  0  0  0  0  0
   41.5680   33.9040   40.4410 H   0  0  0  0  0  0  0  0  0  0  0  0
   40.4930   35.0050   39.5530 H   0  0  0  0  0  0  0  0  0  0  0  0
   39.1320   34.7410   41.3320 H   0  0  0  0  0  0  0  0  0  0  0  0
   38.1630   33.1050   39.7960 H   0  0  0  0  0  0  0  0  0  0  0  0
   37.7980   32.8560   41.5140 H   0  0  0  0  0  0  0  0  0  0  0  0
   38.5940   30.7100   40.5020 H   0  0  0  0  0  0  0  0  0  0  0  0
   40.2950   31.2070   41.6920 C   0  0  0  0  0  0  0  0  0  0  0  0
   40.8250   32.0860   42.0680 H   0  0  0  0  0  0  0  0  0  0  0  0
   40.9740   30.4010   41.3490 H   0  0  0  0  0  0  0  0  0  0  0  0
   39.4670   30.5920   42.8020 C   0  0  0  0  0  3  0  0  0  0  0  0
   38.6980   29.5350   42.5350 C   0  0  0  0  0  3  0  0  0  0  0  0
   37.8350   28.8430   43.5340 C   0  0  0  0  0  0  0  0  0  0  0  0
   38.0000   29.2560   44.5630 H   0  0  0  0  0  0  0  0  0  0  0  0
   36.7840   28.9950   43.2270 H   0  0  0  0  0  0  0  0  0  0  0  0
   38.1090   27.3520   43.4620 C   0  0  2  0  0  0  0  0  0  0  0  0
   39.5230   26.9050   43.6800 C   0  0  0  0  0  0  0  0  0  0  0  0
   38.8520   26.8000   42.3210 C   0  0  1  0  0  0  0  0  0  0  0  0
   37.3080   26.6950   43.9070 H   0  0  0  0  0  0  0  0  0  0  0  0
   40.2970   27.6920   43.8300 H   0  0  0  0  0  0  0  0  0  0  0  0
   39.6590   25.9620   44.2530 H   0  0  0  0  0  0  0  0  0  0  0  0
   39.2130   27.5290   41.5730 H   0  0  0  0  0  0  0  0  0  0  0  0
   38.5860   25.4090   41.8450 C   0  0  0  0  0  0  0  0  0  0  0  0
   37.4740   24.6230   42.1480 C   0  0  0  0  0  0  0  0  0  0  0  0
   36.6280   24.9070   42.7780 H   0  0  0  0  0  0  0  0  0  0  0  0
   37.6180   23.4270   41.5180 N   0  0  0  0  0  0  0  0  0  0  0  0
   36.9730   22.5960   41.5210 H   0  0  0  0  0  0  0  0  0  0  0  0
   38.7790   23.4510   40.8390 C   0  0  0  0  0  0  0  0  0  0  0  0
   39.2400   22.6900   40.2200 H   0  0  0  0  0  0  0  0  0  0  0  0
   39.3500   24.6380   41.0420 N   0  0  0  0  0  0  0  0  0  0  0  0
  1  6  1  0  0  0  0
  2  1  2  0  0  0  0
  2  3  1  0  0  0  0
  3  4  2  0  0  0  0
  4  5  1  0  0  0  0
  5  7  1  0  0  0  0
  6  5  2  0  0  0  0
  7 12  1  0  0  0  0
  8  7  1  0  0  0  0
  8  9  1  0  0  0  0
  9 18  1  0  0  0  0
  9 10  1  0  0  0  0
 10 20  1  0  0  0  0
 11 10  1  0  0  0  0
 11 22  1  0  0  0  0
 12 23  1  6  0  0  0
 12 11  1  0  0  0  0
 12 24  1  0  0  0  0
 13  1  1  0  0  0  0
 14  2  1  0  0  0  0
 15  3  1  0  0  0  0
 16  8  1  0  0  0  0
 17  8  1  0  0  0  0
 19  9  1  0  0  0  0
 21 11  1  0  0  0  0
 24 25  1  0  0  0  0
 24 27  1  0  0  0  0
 26 24  1  0  0  0  0
 28 27  2  0  0  0  0
 28 29  1  0  0  0  0
 29 30  1  0  0  0  0
 31 29  1  0  0  0  0
 32 29  1  0  0  0  0
 32 33  1  0  0  0  0
 32 35  1  1  0  0  0
 33 36  1  0  0  0  0
 33 37  1  0  0  0  0
 34 38  1  6  0  0  0
 34 32  1  0  0  0  0
 34 33  1  0  0  0  0
 39 40  2  0  0  0  0
 39 34  1  0  0  0  0
 40 41  1  0  0  0  0
 42 43  1  0  0  0  0
 42 40  1  0  0  0  0
 44 46  2  0  0  0  0
 44 42  1  0  0  0  0
 45 44  1  0  0  0  0
 46 39  1  0  0  0  0
M  END
>  <minimizedAffinity>
-5.39840984

$$$$

 OpenBabel03242517333D

 46 49  0  0  1  0  0  0  0  0999 V2000
   39.5190   32.1780   40.7080 C   0  0  0  0  0  0  0  0  0  0  0  0
   38.8500   33.4330   40.7250 C   0  0  0  0  0  0  0  0  0  0  0  0
   37.7230   33.5900   39.9300 C   0  0  0  0  0  0  0  0  0  0  0  0
   37.3180   32.5350   39.1750 N   0  0  0  0  0  0  0  0  0  0  0  0
   37.9450   31.3640   39.1600 C   0  0  0  0  0  0  0  0  0  0  0  0
   39.0300   31.2230   39.9310 N   0  0  0  0  0  0  0  0  0  0  0  0
   37.4710   30.3350   38.3640 N   0  0  0  0  0  0  0  0  0  0  0  0
   37.3420   30.5090   36.9330 C   0  0  0  0  0  0  0  0  0  0  0  0
   36.4800   29.4820   36.2790 C   0  0  0  0  0  0  0  0  0  0  0  0
   36.4520   28.1880   36.8530 N   0  0  0  0  0  0  0  0  0  0  0  0
   37.3940   28.0270   37.9310 C   0  0  0  0  0  0  0  0  0  0  0  0
   37.0950   29.0460   38.9780 C   0  0  2  0  0  0  0  0  0  0  0  0
   40.3970   31.9660   41.2900 H   0  0  0  0  0  0  0  0  0  0  0  0
   39.2550   34.1980   41.3570 H   0  0  0  0  0  0  0  0  0  0  0  0
   37.2200   34.5360   39.9430 H   0  0  0  0  0  0  0  0  0  0  0  0
   38.3210   30.5520   36.4080 H   0  0  0  0  0  0  0  0  0  0  0  0
   36.8890   31.5260   36.8000 H   0  0  0  0  0  0  0  0  0  0  0  0
   35.4320   29.8820   36.2820 H   0  0  0  0  0  0  0  0  0  0  0  0
   36.7640   29.4240   35.1990 H   0  0  0  0  0  0  0  0  0  0  0  0
   36.5530   27.4000   36.1740 H   0  0  0  0  0  0  0  0  0  0  0  0
   38.3930   28.3260   37.4880 H   0  0  0  0  0  0  0  0  0  0  0  0
   37.4980   26.9970   38.2490 H   0  0  0  0  0  0  0  0  0  0  0  0
   37.7220   28.8960   39.8640 H   0  0  0  0  0  0  0  0  0  0  0  0
   35.6440   29.0520   39.4010 C   0  0  0  0  0  0  0  0  0  0  0  0
   35.0620   28.2450   38.9490 H   0  0  0  0  0  0  0  0  0  0  0  0
   35.2130   30.0560   39.2160 H   0  0  0  0  0  0  0  0  0  0  0  0
   35.6640   28.8920   40.9070 C   0  0  0  0  0  3  0  0  0  0  0  0
   36.4650   27.9790   41.4570 C   0  0  0  0  0  3  0  0  0  0  0  0
   36.5740   27.7200   42.9210 C   0  0  0  0  0  0  0  0  0  0  0  0
   35.7870   28.2800   43.4870 H   0  0  0  0  0  0  0  0  0  0  0  0
   36.4510   26.6320   43.0750 H   0  0  0  0  0  0  0  0  0  0  0  0
   37.9760   28.0790   43.3740 C   0  0  2  0  0  0  0  0  0  0  0  0
   38.4520   29.4710   43.0900 C   0  0  0  0  0  0  0  0  0  0  0  0
   39.0410   28.2650   42.3790 C   0  0  1  0  0  0  0  0  0  0  0  0
   38.2860   27.6440   44.3680 H   0  0  0  0  0  0  0  0  0  0  0  0
   37.7710   30.1440   42.5180 H   0  0  0  0  0  0  0  0  0  0  0  0
   39.0730   29.9510   43.8780 H   0  0  0  0  0  0  0  0  0  0  0  0
   38.7440   28.1650   41.3200 H   0  0  0  0  0  0  0  0  0  0  0  0
   40.4610   27.9530   42.7220 C   0  0  0  0  0  0  0  0  0  0  0  0
   40.9070   27.0400   43.6800 C   0  0  0  0  0  0  0  0  0  0  0  0
   40.2830   26.4150   44.3230 H   0  0  0  0  0  0  0  0  0  0  0  0
   42.2660   27.0570   43.6790 N   0  0  0  0  0  0  0  0  0  0  0  0
   42.9340   26.4980   44.2680 H   0  0  0  0  0  0  0  0  0  0  0  0
   42.6710   27.9470   42.7550 C   0  0  0  0  0  0  0  0  0  0  0  0
   43.6720   28.2400   42.4610 H   0  0  0  0  0  0  0  0  0  0  0  0
   41.5870   28.4770   42.1900 N   0  0  0  0  0  0  0  0  0  0  0  0
  1  2  1  0  0  0  0
  1 13  1  0  0  0  0
  2 14  1  0  0  0  0
  3 15  1  0  0  0  0
  3  2  2  0  0  0  0
  4  3  1  0  0  0  0
  5  4  2  0  0  0  0
  5  6  1  0  0  0  0
  6  1  2  0  0  0  0
  7 12  1  0  0  0  0
  7  5  1  0  0  0  0
  8  7  1  0  0  0  0
  9 18  1  0  0  0  0
  9 10  1  0  0  0  0
  9  8  1  0  0  0  0
 10 11  1  0  0  0  0
 11 22  1  0  0  0  0
 11 12  1  0  0  0  0
 12 24  1  0  0  0  0
 12 23  1  1  0  0  0
 16  8  1  0  0  0  0
 17  8  1  0  0  0  0
 19  9  1  0  0  0  0
 20 10  1  0  0  0  0
 21 11  1  0  0  0  0
 24 27  1  0  0  0  0
 25 24  1  0  0  0  0
 26 24  1  0  0  0  0
 27 28  2  0  0  0  0
 28 29  1  0  0  0  0
 29 31  1  0  0  0  0
 29 32  1  0  0  0  0
 29 30  1  0  0  0  0
 32 35  1  1  0  0  0
 33 32  1  0  0  0  0
 33 37  1  0  0  0  0
 34 38  1  6  0  0  0
 34 39  1  0  0  0  0
 34 33  1  0  0  0  0
 34 32  1  0  0  0  0
 36 33  1  0  0  0  0
 39 40  2  0  0  0  0
 40 41  1  0  0  0  0
 42 40  1  0  0  0  0
 42 43  1  0  0  0  0
 44 42  1  0  0  0  0
 45 44  1  0  0  0  0
 46 39  1  0  0  0  0
 46 44  2  0  0  0  0
M  END
>  <minimizedAffinity>
-5.28801107

$$$$

 OpenBabel03242517333D

 46 49  0  0  1  0  0  0  0  0999 V2000
   37.8560   29.8650   42.5170 C   0  0  0  0  0  0  0  0  0  0  0  0
   39.0570   30.4290   42.0050 C   0  0  0  0  0  0  0  0  0  0  0  0
   40.0170   29.5730   41.4840 C   0  0  0  0  0  0  0  0  0  0  0  0
   39.7600   28.2380   41.4910 N   0  0  0  0  0  0  0  0  0  0  0  0
   38.6380   27.7140   41.9700 C   0  0  0  0  0  0  0  0  0  0  0  0
   37.7180   28.5480   42.4690 N   0  0  0  0  0  0  0  0  0  0  0  0
   38.4470   26.3430   41.9420 N   0  0  0  0  0  0  0  0  0  0  0  0
   39.3800   25.4550   42.6040 C   0  0  0  0  0  0  0  0  0  0  0  0
   39.2610   24.0310   42.1730 C   0  0  0  0  0  0  0  0  0  0  0  0
   37.9820   23.5700   41.7780 N   0  0  0  0  0  0  0  0  0  0  0  0
   36.9400   24.5420   41.9920 C   0  0  0  0  0  0  0  0  0  0  0  0
   37.2820   25.7780   41.2330 C   0  0  2  0  0  0  0  0  0  0  0  0
   37.0590   30.4490   42.9380 H   0  0  0  0  0  0  0  0  0  0  0  0
   39.1580   31.4950   42.0490 H   0  0  0  0  0  0  0  0  0  0  0  0
   40.9230   29.9980   41.1000 H   0  0  0  0  0  0  0  0  0  0  0  0
   39.3190   25.5060   43.7130 H   0  0  0  0  0  0  0  0  0  0  0  0
   40.3950   25.8480   42.3430 H   0  0  0  0  0  0  0  0  0  0  0  0
   39.9600   23.8920   41.3050 H   0  0  0  0  0  0  0  0  0  0  0  0
   39.6760   23.3850   42.9840 H   0  0  0  0  0  0  0  0  0  0  0  0
   37.6990   22.6500   42.1850 H   0  0  0  0  0  0  0  0  0  0  0  0
   37.0250   24.8200   43.0870 H   0  0  0  0  0  0  0  0  0  0  0  0
   35.9470   24.1300   41.8590 H   0  0  0  0  0  0  0  0  0  0  0  0
   36.4670   26.5090   41.2830 H   0  0  0  0  0  0  0  0  0  0  0  0
   37.6100   25.5110   39.7820 C   0  0  0  0  0  0  0  0  0  0  0  0
   37.6330   24.4470   39.5360 H   0  0  0  0  0  0  0  0  0  0  0  0
   38.5460   26.0410   39.5150 H   0  0  0  0  0  0  0  0  0  0  0  0
   36.5160   26.1980   38.9890 C   0  0  0  0  0  3  0  0  0  0  0  0
   36.2100   27.4670   39.2630 C   0  0  0  0  0  3  0  0  0  0  0  0
   35.1550   28.2520   38.5620 C   0  0  0  0  0  0  0  0  0  0  0  0
   34.8120   27.7260   37.6340 H   0  0  0  0  0  0  0  0  0  0  0  0
   34.3100   28.3740   39.2640 H   0  0  0  0  0  0  0  0  0  0  0  0
   35.6960   29.6400   38.2710 C   0  0  2  0  0  0  0  0  0  0  0  0
   36.5660   29.7960   37.0610 C   0  0  0  0  0  0  0  0  0  0  0  0
   37.1240   29.9240   38.4680 C   0  0  1  0  0  0  0  0  0  0  0  0
   34.9800   30.4870   38.4780 H   0  0  0  0  0  0  0  0  0  0  0  0
   36.8070   28.8780   36.4750 H   0  0  0  0  0  0  0  0  0  0  0  0
   36.4370   30.7340   36.4780 H   0  0  0  0  0  0  0  0  0  0  0  0
   37.7510   29.0740   38.7920 H   0  0  0  0  0  0  0  0  0  0  0  0
   37.5780   31.2940   38.8520 C   0  0  0  0  0  0  0  0  0  0  0  0
   38.8020   31.8850   38.5390 C   0  0  0  0  0  0  0  0  0  0  0  0
   39.6150   31.4340   37.9640 H   0  0  0  0  0  0  0  0  0  0  0  0
   38.8170   33.1350   39.0740 N   0  0  0  0  0  0  0  0  0  0  0  0
   39.5770   33.8620   39.0350 H   0  0  0  0  0  0  0  0  0  0  0  0
   37.6450   33.3320   39.7050 C   0  0  0  0  0  0  0  0  0  0  0  0
   37.2840   34.1970   40.2490 H   0  0  0  0  0  0  0  0  0  0  0  0
   36.9120   32.2280   39.5670 N   0  0  0  0  0  0  0  0  0  0  0  0
  1 13  1  0  0  0  0
  2 14  1  0  0  0  0
  2  1  2  0  0  0  0
  3  4  2  0  0  0  0
  3  2  1  0  0  0  0
  4  5  1  0  0  0  0
  5  6  2  0  0  0  0
  6  1  1  0  0  0  0
  7  5  1  0  0  0  0
  7  8  1  0  0  0  0
  8 16  1  0  0  0  0
  9  8  1  0  0  0  0
  9 19  1  0  0  0  0
 10 11  1  0  0  0  0
 10  9  1  0  0  0  0
 10 20  1  0  0  0  0
 11 21  1  0  0  0  0
 12 23  1  1  0  0  0
 12  7  1  0  0  0  0
 12 11  1  0  0  0  0
 15  3  1  0  0  0  0
 17  8  1  0  0  0  0
 18  9  1  0  0  0  0
 22 11  1  0  0  0  0
 24 12  1  0  0  0  0
 25 24  1  0  0  0  0
 26 24  1  0  0  0  0
 27 28  2  0  0  0  0
 27 24  1  0  0  0  0
 29 28  1  0  0  0  0
 29 31  1  0  0  0  0
 30 29  1  0  0  0  0
 32 34  1  0  0  0  0
 32 35  1  1  0  0  0
 32 29  1  0  0  0  0
 33 32  1  0  0  0  0
 33 34  1  0  0  0  0
 34 38  1  1  0  0  0
 34 39  1  0  0  0  0
 36 33  1  0  0  0  0
 37 33  1  0  0  0  0
 39 46  1  0  0  0  0
 40 39  2  0  0  0  0
 40 42  1  0  0  0  0
 41 40  1  0  0  0  0
 42 44  1  0  0  0  0
 43 42  1  0  0  0  0
 44 45  1  0  0  0  0
 46 44  2  0  0  0  0
M  END
>  <minimizedAffinity>
-5.28779554

$$$$

 OpenBabel03242517333D

 46 49  0  0  1  0  0  0  0  0999 V2000
   36.9420   25.2780   38.8370 C   0  0  0  0  0  0  0  0  0  0  0  0
   36.0390   24.2930   39.3240 C   0  0  0  0  0  0  0  0  0  0  0  0
   36.1200   23.9290   40.6610 C   0  0  0  0  0  0  0  0  0  0  0  0
   37.0600   24.5340   41.4360 N   0  0  0  0  0  0  0  0  0  0  0  0
   37.9020   25.4530   40.9770 C   0  0  0  0  0  0  0  0  0  0  0  0
   37.8150   25.7970   39.6870 N   0  0  0  0  0  0  0  0  0  0  0  0
   38.8330   26.0240   41.8290 N   0  0  0  0  0  0  0  0  0  0  0  0
   39.7970   25.2010   42.5270 C   0  0  0  0  0  0  0  0  0  0  0  0
   40.4620   25.8940   43.6690 C   0  0  0  0  0  0  0  0  0  0  0  0
   40.6460   27.2940   43.5690 N   0  0  0  0  0  0  0  0  0  0  0  0
   40.2750   27.8230   42.2820 C   0  0  0  0  0  0  0  0  0  0  0  0
   38.8450   27.4880   42.0270 C   0  0  2  0  0  0  0  0  0  0  0  0
   36.9520   25.6210   37.8180 H   0  0  0  0  0  0  0  0  0  0  0  0
   35.3380   23.8810   38.6270 H   0  0  0  0  0  0  0  0  0  0  0  0
   35.4410   23.1860   41.0280 H   0  0  0  0  0  0  0  0  0  0  0  0
   40.5760   24.7760   41.8550 H   0  0  0  0  0  0  0  0  0  0  0  0
   39.2150   24.3210   42.9020 H   0  0  0  0  0  0  0  0  0  0  0  0
   39.8390   25.6930   44.5810 H   0  0  0  0  0  0  0  0  0  0  0  0
   41.4360   25.3840   43.8670 H   0  0  0  0  0  0  0  0  0  0  0  0
   41.5990   27.6340   43.8310 H   0  0  0  0  0  0  0  0  0  0  0  0
   40.8710   27.2130   41.5360 H   0  0  0  0  0  0  0  0  0  0  0  0
   40.5800   28.8530   42.1460 H   0  0  0  0  0  0  0  0  0  0  0  0
   38.4890   27.9580   41.1030 H   0  0  0  0  0  0  0  0  0  0  0  0
   37.9310   27.8860   43.1620 C   0  0  0  0  0  0  0  0  0  0  0  0
   38.4430   27.9390   44.1270 H   0  0  0  0  0  0  0  0  0  0  0  0
   37.0480   27.2170   43.1740 H   0  0  0  0  0  0  0  0  0  0  0  0
   37.3970   29.2540   42.7880 C   0  0  0  0  0  3  0  0  0  0  0  0
   36.8520   29.4360   41.5850 C   0  0  0  0  0  3  0  0  0  0  0  0
   36.2960   30.7290   41.0940 C   0  0  0  0  0  0  0  0  0  0  0  0
   35.1830   30.6730   40.9860 H   0  0  0  0  0  0  0  0  0  0  0  0
   36.5680   31.5080   41.8310 H   0  0  0  0  0  0  0  0  0  0  0  0
   36.9850   31.0890   39.7910 C   0  0  2  0  0  0  0  0  0  0  0  0
   36.6500   30.2590   38.5880 C   0  0  0  0  0  0  0  0  0  0  0  0
   38.0200   30.2030   39.2420 C   0  0  1  0  0  0  0  0  0  0  0  0
   37.1190   32.1940   39.6080 H   0  0  0  0  0  0  0  0  0  0  0  0
   35.9580   29.3980   38.7310 H   0  0  0  0  0  0  0  0  0  0  0  0
   36.5700   30.8020   37.6210 H   0  0  0  0  0  0  0  0  0  0  0  0
   38.2210   29.2750   39.8080 H   0  0  0  0  0  0  0  0  0  0  0  0
   39.1400   30.7610   38.4260 C   0  0  0  0  0  0  0  0  0  0  0  0
   40.0900   30.0350   37.7060 C   0  0  0  0  0  0  0  0  0  0  0  0
   40.1580   28.9460   37.6310 H   0  0  0  0  0  0  0  0  0  0  0  0
   40.9300   30.9180   37.1050 N   0  0  0  0  0  0  0  0  0  0  0  0
   41.7590   30.7260   36.4860 H   0  0  0  0  0  0  0  0  0  0  0  0
   40.5300   32.1610   37.4290 C   0  0  0  0  0  0  0  0  0  0  0  0
   40.9420   33.1220   37.1460 H   0  0  0  0  0  0  0  0  0  0  0  0
   39.4610   32.0570   38.2180 N   0  0  0  0  0  0  0  0  0  0  0  0
  1  2  2  0  0  0  0
  1  6  1  0  0  0  0
  2  3  1  0  0  0  0
  3 15  1  0  0  0  0
  3  4  2  0  0  0  0
  5  4  1  0  0  0  0
  5  7  1  0  0  0  0
  6  5  2  0  0  0  0
  7 12  1  0  0  0  0
  7  8  1  0  0  0  0
  8 17  1  0  0  0  0
  8  9  1  0  0  0  0
  9 19  1  0  0  0  0
  9 18  1  0  0  0  0
 10  9  1  0  0  0  0
 10 20  1  0  0  0  0
 11 10  1  0  0  0  0
 12 23  1  6  0  0  0
 12 11  1  0  0  0  0
 12 24  1  0  0  0  0
 13  1  1  0  0  0  0
 14  2  1  0  0  0  0
 16  8  1  0  0  0  0
 21 11  1  0  0  0  0
 22 11  1  0  0  0  0
 24 26  1  0  0  0  0
 24 25  1  0  0  0  0
 27 24  1  0  0  0  0
 28 27  2  0  0  0  0
 29 28  1  0  0  0  0
 29 31  1  0  0  0  0
 30 29  1  0  0  0  0
 32 35  1  6  0  0  0
 32 29  1  0  0  0  0
 33 36  1  0  0  0  0
 33 34  1  0  0  0  0
 33 32  1  0  0  0  0
 34 32  1  0  0  0  0
 34 38  1  1  0  0  0
 37 33  1  0  0  0  0
 39 34  1  0  0  0  0
 40 39  2  0  0  0  0
 41 40  1  0  0  0  0
 42 44  1  0  0  0  0
 42 40  1  0  0  0  0
 43 42  1  0  0  0  0
 44 46  2  0  0  0  0
 45 44  1  0  0  0  0
 46 39  1  0  0  0  0
M  END
>  <minimizedAffinity>
-5.24031544

$$$$

 OpenBabel03242517333D

 46 49  0  0  1  0  0  0  0  0999 V2000
   37.6960   27.9260   37.6480 C   0  0  0  0  0  0  0  0  0  0  0  0
   36.3560   28.1510   37.2280 C   0  0  0  0  0  0  0  0  0  0  0  0
   35.4000   27.1930   37.5360 C   0  0  0  0  0  0  0  0  0  0  0  0
   35.7950   26.0880   38.2230 N   0  0  0  0  0  0  0  0  0  0  0  0
   37.0480   25.8810   38.6120 C   0  0  0  0  0  0  0  0  0  0  0  0
   37.9620   26.8110   38.3120 N   0  0  0  0  0  0  0  0  0  0  0  0
   37.3740   24.7300   39.3090 N   0  0  0  0  0  0  0  0  0  0  0  0
   37.1260   23.4240   38.7350 C   0  0  0  0  0  0  0  0  0  0  0  0
   37.1690   22.3130   39.7290 C   0  0  0  0  0  0  0  0  0  0  0  0
   38.0360   22.4600   40.8390 N   0  0  0  0  0  0  0  0  0  0  0  0
   38.8650   23.6350   40.7570 C   0  0  0  0  0  0  0  0  0  0  0  0
   37.9820   24.8310   40.6510 C   0  0  2  0  0  0  0  0  0  0  0  0
   38.5010   28.6120   37.4550 H   0  0  0  0  0  0  0  0  0  0  0  0
   36.1540   29.0570   36.6920 H   0  0  0  0  0  0  0  0  0  0  0  0
   34.3910   27.3620   37.2180 H   0  0  0  0  0  0  0  0  0  0  0  0
   37.8070   23.1830   37.8880 H   0  0  0  0  0  0  0  0  0  0  0  0
   36.1030   23.4920   38.2830 H   0  0  0  0  0  0  0  0  0  0  0  0
   36.1260   22.1840   40.1230 H   0  0  0  0  0  0  0  0  0  0  0  0
   37.3910   21.3640   39.1830 H   0  0  0  0  0  0  0  0  0  0  0  0
   38.6250   21.6230   41.0530 H   0  0  0  0  0  0  0  0  0  0  0  0
   39.3890   23.5490   39.7560 H   0  0  0  0  0  0  0  0  0  0  0  0
   39.6450   23.6520   41.5090 H   0  0  0  0  0  0  0  0  0  0  0  0
   38.5680   25.7570   40.6890 H   0  0  0  0  0  0  0  0  0  0  0  0
   36.9190   24.8800   41.7240 C   0  0  0  0  0  0  0  0  0  0  0  0
   36.9160   23.9960   42.3660 H   0  0  0  0  0  0  0  0  0  0  0  0
   35.9360   25.0830   41.2550 H   0  0  0  0  0  0  0  0  0  0  0  0
   37.2350   26.1120   42.5470 C   0  0  0  0  0  3  0  0  0  0  0  0
   36.9990   27.3200   42.0330 C   0  0  0  0  0  3  0  0  0  0  0  0
   37.2700   28.6060   42.7360 C   0  0  0  0  0  0  0  0  0  0  0  0
   36.8190   28.6070   43.7610 H   0  0  0  0  0  0  0  0  0  0  0  0
   38.3680   28.7230   42.8040 H   0  0  0  0  0  0  0  0  0  0  0  0
   36.7530   29.7460   41.8780 C   0  0  2  0  0  0  0  0  0  0  0  0
   35.8790   29.3850   40.7160 C   0  0  0  0  0  0  0  0  0  0  0  0
   37.2810   29.9360   40.5200 C   0  0  1  0  0  0  0  0  0  0  0  0
   36.4660   30.6790   42.4420 H   0  0  0  0  0  0  0  0  0  0  0  0
   35.7010   28.3030   40.5180 H   0  0  0  0  0  0  0  0  0  0  0  0
   35.0290   30.0720   40.5060 H   0  0  0  0  0  0  0  0  0  0  0  0
   38.0220   29.1940   40.1750 H   0  0  0  0  0  0  0  0  0  0  0  0
   37.3520   31.3020   39.9200 C   0  0  0  0  0  0  0  0  0  0  0  0
   37.2020   31.6300   38.5710 C   0  0  0  0  0  0  0  0  0  0  0  0
   37.0100   30.9340   37.7500 H   0  0  0  0  0  0  0  0  0  0  0  0
   37.3360   32.9770   38.4460 N   0  0  0  0  0  0  0  0  0  0  0  0
   37.2820   33.5680   37.5780 H   0  0  0  0  0  0  0  0  0  0  0  0
   37.5630   33.4890   39.6690 C   0  0  0  0  0  0  0  0  0  0  0  0
   37.7210   34.5150   39.9770 H   0  0  0  0  0  0  0  0  0  0  0  0
   37.5710   32.4810   40.5420 N   0  0  0  0  0  0  0  0  0  0  0  0
  1  6  1  0  0  0  0
  2  3  1  0  0  0  0
  2  1  2  0  0  0  0
  3  4  2  0  0  0  0
  4  5  1  0  0  0  0
  5  7  1  0  0  0  0
  6  5  2  0  0  0  0
  7 12  1  0  0  0  0
  8  7  1  0  0  0  0
  8  9  1  0  0  0  0
  9 18  1  0  0  0  0
  9 10  1  0  0  0  0
 10 20  1  0  0  0  0
 11 10  1  0  0  0  0
 11 22  1  0  0  0  0
 12 23  1  1  0  0  0
 12 11  1  0  0  0  0
 12 24  1  0  0  0  0
 13  1  1  0  0  0  0
 14  2  1  0  0  0  0
 15  3  1  0  0  0  0
 16  8  1  0  0  0  0
 17  8  1  0  0  0  0
 19  9  1  0  0  0  0
 21 11  1  0  0  0  0
 24 25  1  0  0  0  0
 24 27  1  0  0  0  0
 26 24  1  0  0  0  0
 28 27  2  0  0  0  0
 28 29  1  0  0  0  0
 29 31  1  0  0  0  0
 29 30  1  0  0  0  0
 32 35  1  1  0  0  0
 32 29  1  0  0  0  0
 33 32  1  0  0  0  0
 34 38  1  6  0  0  0
 34 33  1  0  0  0  0
 34 32  1  0  0  0  0
 36 33  1  0  0  0  0
 37 33  1  0  0  0  0
 39 34  1  0  0  0  0
 39 46  1  0  0  0  0
 40 39  2  0  0  0  0
 41 40  1  0  0  0  0
 42 40  1  0  0  0  0
 42 44  1  0  0  0  0
 43 42  1  0  0  0  0
 44 45  1  0  0  0  0
 44 46  2  0  0  0  0
M  END
>  <minimizedAffinity>
-5.23381948

$$$$
