
 OpenBabel03252504483D

 23 24  0  0  0  0  0  0  0  0999 V2000
   46.4570   33.5190   39.9530 C   0  0  0  0  0  0  0  0  0  0  0  0
   47.7590   33.9340   39.6900 C   0  0  0  0  0  0  0  0  0  0  0  0
   48.3850   34.7500   40.6320 C   0  0  0  0  0  0  0  0  0  0  0  0
   47.6870   35.0950   41.7530 N   0  0  0  0  0  0  0  0  0  0  0  0
   46.4220   34.6750   41.9810 C   0  0  0  0  0  0  0  0  0  0  0  0
   45.8040   33.8840   41.0760 N   0  0  0  0  0  0  0  0  0  0  0  0
   45.9210   32.8790   39.2500 H   0  0  0  0  0  0  0  0  0  0  0  0
   49.3920   35.0890   40.4580 H   0  0  0  0  0  0  0  0  0  0  0  0
   45.6810   35.0440   43.1780 C   0  0  0  0  0  0  0  0  0  0  0  0
   45.3180   34.3160   44.2950 C   0  0  0  0  0  0  0  0  0  0  0  0
   45.5970   33.2630   44.3800 H   0  0  0  0  0  0  0  0  0  0  0  0
   44.6400   35.1120   45.1240 N   0  0  0  0  0  0  0  0  0  0  0  0
   44.2530   34.7850   46.0530 H   0  0  0  0  0  0  0  0  0  0  0  0
   44.5470   36.3410   44.5820 C   0  0  0  0  0  0  0  0  0  0  0  0
   44.0430   37.1760   45.0530 H   0  0  0  0  0  0  0  0  0  0  0  0
   45.1900   36.2720   43.3940 N   0  0  0  0  0  0  0  0  0  0  0  0
   48.3920   33.4970   38.4710 C   0  0  0  0  0  0  0  0  0  0  0  0
   49.4590   33.2300   38.7180 H   0  0  0  0  0  0  0  0  0  0  0  0
   47.8920   32.6190   38.0450 H   0  0  0  0  0  0  0  0  0  0  0  0
   48.4350   34.6540   37.4930 C   0  0  0  0  0  0  0  0  0  0  0  0
   49.4870   34.9370   37.2450 H   0  0  0  0  0  0  0  0  0  0  0  0
   48.0060   34.2910   36.5200 H   0  0  0  0  0  0  0  0  0  0  0  0
   47.8140   35.5060   37.8190 H   0  0  0  0  0  0  0  0  0  0  0  0
  1  6  1  0  0  0  0
  2  1  2  0  0  0  0
  2  3  1  0  0  0  0
  3  4  2  0  0  0  0
  4  5  1  0  0  0  0
  5  9  1  0  0  0  0
  6  5  2  0  0  0  0
  7  1  1  0  0  0  0
  8  3  1  0  0  0  0
  9 16  1  0  0  0  0
  9 10  2  0  0  0  0
 10 11  1  0  0  0  0
 10 12  1  0  0  0  0
 12 13  1  0  0  0  0
 14 15  1  0  0  0  0
 14 12  1  0  0  0  0
 16 14  2  0  0  0  0
 17 18  1  0  0  0  0
 17  2  1  0  0  0  0
 19 17  1  0  0  0  0
 20 23  1  0  0  0  0
 20 17  1  0  0  0  0
 21 20  1  0  0  0  0
 22 20  1  0  0  0  0
M  END
>  <minimizedAffinity>
-4.25976133

>  <minimizedRMSD>
4.5095253

$$$$
