
 OpenBabel03242517303D

 46 49  0  0  1  0  0  0  0  0999 V2000
   45.0110   34.7260   44.9890 C   0  0  0  0  0  0  0  0  0  0  0  0
   45.8700   34.5730   43.8660 C   0  0  0  0  0  0  0  0  0  0  0  0
   46.9040   33.6510   43.9490 C   0  0  0  0  0  0  0  0  0  0  0  0
   47.0420   32.9410   45.1000 N   0  0  0  0  0  0  0  0  0  0  0  0
   46.2380   33.0860   46.1470 C   0  0  0  0  0  0  0  0  0  0  0  0
   45.2440   33.9770   46.0580 N   0  0  0  0  0  0  0  0  0  0  0  0
   46.4420   32.3250   47.2860 N   0  0  0  0  0  0  0  0  0  0  0  0
   47.7030   32.3810   47.9940 C   0  0  0  0  0  0  0  0  0  0  0  0
   47.9050   31.2520   48.9480 C   0  0  0  0  0  0  0  0  0  0  0  0
   46.7560   30.6990   49.5640 N   0  0  0  0  0  0  0  0  0  0  0  0
   45.5500   31.4280   49.2660 C   0  0  0  0  0  0  0  0  0  0  0  0
   45.3630   31.4500   47.7870 C   0  0  2  0  0  0  0  0  0  0  0  0
   44.1860   35.4140   45.0160 H   0  0  0  0  0  0  0  0  0  0  0  0
   45.6720   35.1840   43.0090 H   0  0  0  0  0  0  0  0  0  0  0  0
   47.5530   33.5370   43.1030 H   0  0  0  0  0  0  0  0  0  0  0  0
   47.8610   33.3430   48.5300 H   0  0  0  0  0  0  0  0  0  0  0  0
   48.4890   32.3510   47.1970 H   0  0  0  0  0  0  0  0  0  0  0  0
   48.4200   30.4310   48.3810 H   0  0  0  0  0  0  0  0  0  0  0  0
   48.6450   31.5760   49.7210 H   0  0  0  0  0  0  0  0  0  0  0  0
   46.8360   30.5510   50.5950 H   0  0  0  0  0  0  0  0  0  0  0  0
   45.7780   32.4970   49.5630 H   0  0  0  0  0  0  0  0  0  0  0  0
   44.7090   31.1150   49.8720 H   0  0  0  0  0  0  0  0  0  0  0  0
   44.4040   31.9060   47.5180 H   0  0  0  0  0  0  0  0  0  0  0  0
   45.4460   30.0780   47.1580 C   0  0  0  0  0  0  0  0  0  0  0  0
   46.4680   29.7810   46.9100 H   0  0  0  0  0  0  0  0  0  0  0  0
   44.7550   30.0290   46.2930 H   0  0  0  0  0  0  0  0  0  0  0  0
   44.8710   29.1280   48.1890 C   0  0  0  0  0  0  0  0  0  0  0  0
   44.9700   27.8130   47.9930 C   0  0  0  0  0  0  0  0  0  0  0  0
   44.4430   26.7760   48.9250 C   0  0  0  0  0  0  0  0  0  0  0  0
   45.2790   26.2300   49.4340 H   0  0  0  0  0  0  0  0  0  0  0  0
   43.8140   27.2920   49.6740 H   0  0  0  0  0  0  0  0  0  0  0  0
   43.5340   25.8420   48.1470 C   0  0  2  0  0  0  0  0  0  0  0  0
   44.1850   24.9050   47.1760 C   0  0  0  0  0  0  0  0  0  0  0  0
   43.3170   26.0620   46.7110 C   0  0  1  0  0  0  0  0  0  0  0  0
   42.6640   25.4240   48.7300 H   0  0  0  0  0  0  0  0  0  0  0  0
   45.2890   24.9830   47.0440 H   0  0  0  0  0  0  0  0  0  0  0  0
   43.7510   23.8840   47.1090 H   0  0  0  0  0  0  0  0  0  0  0  0
   43.8740   26.8990   46.2540 H   0  0  0  0  0  0  0  0  0  0  0  0
   42.0240   25.6720   46.0720 C   0  0  0  0  0  0  0  0  0  0  0  0
   40.7500   25.7900   46.6290 C   0  0  0  0  0  0  0  0  0  0  0  0
   40.5060   26.1870   47.6170 H   0  0  0  0  0  0  0  0  0  0  0  0
   39.8490   25.3240   45.7240 N   0  0  0  0  0  0  0  0  0  0  0  0
   38.8020   25.2640   45.8050 H   0  0  0  0  0  0  0  0  0  0  0  0
   40.5240   24.9250   44.6310 C   0  0  0  0  0  0  0  0  0  0  0  0
   40.1600   24.4990   43.7040 H   0  0  0  0  0  0  0  0  0  0  0  0
   41.8220   25.1360   44.8490 N   0  0  0  0  0  0  0  0  0  0  0  0
  1 13  1  0  0  0  0
  1  6  1  0  0  0  0
  2  3  1  0  0  0  0
  2  1  2  0  0  0  0
  3  4  2  0  0  0  0
  4  5  1  0  0  0  0
  5  7  1  0  0  0  0
  6  5  2  0  0  0  0
  7 12  1  0  0  0  0
  7  8  1  0  0  0  0
  8 16  1  0  0  0  0
  8  9  1  0  0  0  0
  9 10  1  0  0  0  0
  9 19  1  0  0  0  0
 10 20  1  0  0  0  0
 11 21  1  0  0  0  0
 11 10  1  0  0  0  0
 11 22  1  0  0  0  0
 12 23  1  6  0  0  0
 12 11  1  0  0  0  0
 14  2  1  0  0  0  0
 15  3  1  0  0  0  0
 17  8  1  0  0  0  0
 18  9  1  0  0  0  0
 24 12  1  0  0  0  0
 24 27  1  0  0  0  0
 25 24  1  0  0  0  0
 26 24  1  0  0  0  0
 28 27  2  0  0  0  0
 28 29  1  0  0  0  0
 29 30  1  0  0  0  0
 29 31  1  0  0  0  0
 32 35  1  1  0  0  0
 32 29  1  0  0  0  0
 33 32  1  0  0  0  0
 34 38  1  6  0  0  0
 34 33  1  0  0  0  0
 34 32  1  0  0  0  0
 36 33  1  0  0  0  0
 37 33  1  0  0  0  0
 39 40  2  0  0  0  0
 39 34  1  0  0  0  0
 40 41  1  0  0  0  0
 42 43  1  0  0  0  0
 42 40  1  0  0  0  0
 44 46  2  0  0  0  0
 44 42  1  0  0  0  0
 45 44  1  0  0  0  0
 46 39  1  0  0  0  0
M  END
>  <minimizedAffinity>
-6.15945673

>  <minimizedRMSD>
0.281772912

$$$$
