
 OpenBabel03252500413D

 27 29  0  0  1  0  0  0  0  0999 V2000
   47.3640   34.4990   41.4330 C   0  0  1  0  0  0  0  0  0  0  0  0
   48.5870   35.2830   40.9720 C   0  0  0  0  0  0  0  0  0  0  0  0
   48.2690   33.9390   40.3850 C   0  0  2  0  0  0  0  0  0  0  0  0
   46.3700   34.6790   41.0180 H   0  0  0  0  0  0  0  0  0  0  0  0
   49.4040   35.4400   41.6740 H   0  0  0  0  0  0  0  0  0  0  0  0
   48.2830   36.2040   40.4090 H   0  0  0  0  0  0  0  0  0  0  0  0
   49.0200   33.1640   40.6730 H   0  0  0  0  0  0  0  0  0  0  0  0
   47.8980   33.9950   38.9560 C   0  0  0  0  0  0  0  0  0  0  0  0
   46.7760   33.4450   38.3780 C   0  0  0  0  0  0  0  0  0  0  0  0
   45.9960   32.8870   38.8810 H   0  0  0  0  0  0  0  0  0  0  0  0
   46.8470   33.7430   37.0490 N   0  0  0  0  0  0  0  0  0  0  0  0
   46.0870   33.4220   36.3900 H   0  0  0  0  0  0  0  0  0  0  0  0
   47.9730   34.4550   36.8030 C   0  0  0  0  0  0  0  0  0  0  0  0
   48.2280   34.8010   35.7920 H   0  0  0  0  0  0  0  0  0  0  0  0
   48.6040   34.5990   37.9850 N   0  0  0  0  0  0  0  0  0  0  0  0
   47.4890   33.9420   42.8070 C   0  0  0  0  0  0  0  0  0  0  0  0
   47.4450   32.8150   42.7500 H   0  0  0  0  0  0  0  0  0  0  0  0
   48.4710   34.1460   43.2770 H   0  0  0  0  0  0  0  0  0  0  0  0
   46.4440   34.4230   43.7220 C   0  0  0  0  0  0  0  0  0  0  0  0
   45.7070   35.5040   43.2850 C   0  0  0  0  0  0  0  0  0  0  0  0
   44.6730   36.0160   44.1090 C   0  0  0  0  0  0  0  0  0  0  0  0
   44.4810   35.3880   45.3050 N   0  0  0  0  0  0  0  0  0  0  0  0
   45.2420   34.3250   45.6820 C   0  0  0  0  0  0  0  0  0  0  0  0
   46.2170   33.8420   44.9020 N   0  0  0  0  0  0  0  0  0  0  0  0
   45.7140   36.1180   42.4020 H   0  0  0  0  0  0  0  0  0  0  0  0
   44.0150   36.8340   43.9300 H   0  0  0  0  0  0  0  0  0  0  0  0
   45.0530   33.8590   46.6380 H   0  0  0  0  0  0  0  0  0  0  0  0
  1  4  1  6  0  0  0
  1 16  1  0  0  0  0
  2  1  1  0  0  0  0
  2  5  1  0  0  0  0
  3  7  1  1  0  0  0
  3  2  1  0  0  0  0
  3  1  1  0  0  0  0
  6  2  1  0  0  0  0
  8  3  1  0  0  0  0
  9 10  1  0  0  0  0
  9  8  2  0  0  0  0
 11  9  1  0  0  0  0
 12 11  1  0  0  0  0
 13 11  1  0  0  0  0
 13 15  2  0  0  0  0
 14 13  1  0  0  0  0
 15  8  1  0  0  0  0
 16 18  1  0  0  0  0
 16 19  1  0  0  0  0
 17 16  1  0  0  0  0
 19 24  1  0  0  0  0
 20 19  2  0  0  0  0
 20 21  1  0  0  0  0
 21 22  2  0  0  0  0
 22 23  1  0  0  0  0
 23 27  1  0  0  0  0
 24 23  2  0  0  0  0
 25 20  1  0  0  0  0
 26 21  1  0  0  0  0
M  END
>  <minimizedAffinity>
-4.78535223

>  <minimizedRMSD>
1.2373395

$$$$
