
 OpenBabel03242522143D

 31 33  0  0  0  0  0  0  0  0999 V2000
   44.9450   34.3530   42.0910 C   0  0  0  0  0  0  0  0  0  0  0  0
   46.2450   34.3810   41.6940 C   0  0  0  0  0  0  0  0  0  0  0  0
   47.1650   34.1920   43.2810 S   0  0  0  0  0  0  0  0  0  0  0  0
   45.5530   34.1060   44.2290 C   0  0  0  0  0  0  0  0  0  0  0  0
   44.8120   34.2110   43.3690 N   0  0  0  0  0  0  0  0  0  0  0  0
   46.6410   34.4910   40.6720 H   0  0  0  0  0  0  0  0  0  0  0  0
   41.5990   35.1460   40.5740 C   0  0  0  0  0  0  0  0  0  0  0  0
   42.6290   35.0730   41.5320 C   0  0  0  0  0  0  0  0  0  0  0  0
   43.8090   34.4710   41.1560 C   0  0  0  0  0  0  0  0  0  0  0  0
   43.8840   33.9900   39.8720 N   0  0  0  0  0  0  0  0  0  0  0  0
   42.8760   34.0810   38.9910 C   0  0  0  0  0  0  0  0  0  0  0  0
   41.7310   34.6630   39.3500 N   0  0  0  0  0  0  0  0  0  0  0  0
   40.6500   35.6050   40.8080 H   0  0  0  0  0  0  0  0  0  0  0  0
   43.1930   33.6260   38.0540 H   0  0  0  0  0  0  0  0  0  0  0  0
   42.3650   35.6230   42.8090 N   0  0  0  0  0  0  0  0  0  0  0  0
   43.0760   36.3110   43.0810 H   0  0  0  0  0  0  0  0  0  0  0  0
   41.4810   35.2140   43.2290 H   0  0  0  0  0  0  0  0  0  0  0  0
   45.4700   33.9420   45.7230 C   0  0  0  0  0  0  0  0  0  0  0  0
   44.4010   33.6330   45.9230 H   0  0  0  0  0  0  0  0  0  0  0  0
   45.5710   34.9210   46.2200 H   0  0  0  0  0  0  0  0  0  0  0  0
   46.4280   32.9150   46.2250 C   0  0  0  0  0  0  0  0  0  0  0  0
   47.3930   33.4430   46.4090 H   0  0  0  0  0  0  0  0  0  0  0  0
   46.6460   32.2300   45.3630 H   0  0  0  0  0  0  0  0  0  0  0  0
   45.9680   32.1510   47.3940 C   0  0  0  0  0  0  0  0  0  0  0  0
   45.8270   32.3500   48.7430 C   0  0  0  0  0  0  0  0  0  0  0  0
   46.1030   33.2920   49.1820 H   0  0  0  0  0  0  0  0  0  0  0  0
   45.3290   31.2730   49.3520 N   0  0  0  0  0  0  0  0  0  0  0  0
   45.1200   31.1460   50.3680 H   0  0  0  0  0  0  0  0  0  0  0  0
   45.1460   30.3650   48.3820 C   0  0  0  0  0  0  0  0  0  0  0  0
   44.7520   29.3520   48.4870 H   0  0  0  0  0  0  0  0  0  0  0  0
   45.5240   30.8790   47.2090 N   0  0  0  0  0  0  0  0  0  0  0  0
  1  5  1  0  0  0  0
  2  1  2  0  0  0  0
  2  3  1  0  0  0  0
  3  4  1  0  0  0  0
  4 18  1  0  0  0  0
  5  4  2  0  0  0  0
  6  2  1  0  0  0  0
  7 13  1  0  0  0  0
  7  8  1  0  0  0  0
  8 15  1  0  0  0  0
  9  8  2  0  0  0  0
  9  1  1  0  0  0  0
 10  9  1  0  0  0  0
 11 12  1  0  0  0  0
 11 10  2  0  0  0  0
 12  7  2  0  0  0  0
 14 11  1  0  0  0  0
 15 16  1  0  0  0  0
 15 17  1  0  0  0  0
 18 19  1  0  0  0  0
 18 20  1  0  0  0  0
 18 21  1  0  0  0  0
 21 22  1  0  0  0  0
 21 24  1  0  0  0  0
 23 21  1  0  0  0  0
 24 25  2  0  0  0  0
 25 26  1  0  0  0  0
 25 27  1  0  0  0  0
 27 28  1  0  0  0  0
 29 30  1  0  0  0  0
 29 27  1  0  0  0  0
 31 24  1  0  0  0  0
 31 29  2  0  0  0  0
M  END
>  <minimizedAffinity>
-5.26693964

>  <minimizedRMSD>
6.30849028

$$$$
