
 OpenBabel03252505513D

 24 25  0  0  0  0  0  0  0  0999 V2000
   44.7310   35.4300   44.9690 C   0  0  0  0  0  0  0  0  0  0  0  0
   45.6050   34.9820   43.9740 C   0  0  0  0  0  0  0  0  0  0  0  0
   46.3470   33.8340   44.2490 C   0  0  0  0  0  0  0  0  0  0  0  0
   46.2070   33.2040   45.4290 N   0  0  0  0  0  0  0  0  0  0  0  0
   45.3530   33.6650   46.3630 C   0  0  0  0  0  0  0  0  0  0  0  0
   44.6100   34.7720   46.1510 N   0  0  0  0  0  0  0  0  0  0  0  0
   44.1180   36.3150   44.8340 H   0  0  0  0  0  0  0  0  0  0  0  0
   47.0090   33.5150   43.4690 H   0  0  0  0  0  0  0  0  0  0  0  0
   45.6710   35.7670   42.7130 C   0  0  0  0  0  0  0  0  0  0  0  0
   45.2680   37.0460   43.0450 F   0  0  0  0  0  0  0  0  0  0  0  0
   44.7770   35.2000   41.8320 F   0  0  0  0  0  0  0  0  0  0  0  0
   46.9750   35.7070   42.2400 F   0  0  0  0  0  0  0  0  0  0  0  0
   45.1620   33.0630   47.5950 O   0  0  0  0  0  0  0  0  0  0  0  0
   46.1910   32.3700   48.2540 C   0  0  0  0  0  0  0  0  0  0  0  0
   46.2110   32.6410   49.3150 H   0  0  0  0  0  0  0  0  0  0  0  0
   47.1590   32.7150   47.7990 H   0  0  0  0  0  0  0  0  0  0  0  0
   46.0230   30.9090   48.0730 C   0  0  0  0  0  0  0  0  0  0  0  0
   45.1260   30.1970   48.8700 C   0  0  0  0  0  0  0  0  0  0  0  0
   44.4670   30.5330   49.6670 H   0  0  0  0  0  0  0  0  0  0  0  0
   45.1830   28.9160   48.4920 N   0  0  0  0  0  0  0  0  0  0  0  0
   44.7010   28.0460   48.7990 H   0  0  0  0  0  0  0  0  0  0  0  0
   46.0770   28.8040   47.4960 C   0  0  0  0  0  0  0  0  0  0  0  0
   46.4720   28.0120   46.8710 H   0  0  0  0  0  0  0  0  0  0  0  0
   46.5790   30.0200   47.2510 N   0  0  0  0  0  0  0  0  0  0  0  0
  1  6  1  0  0  0  0
  2  3  1  0  0  0  0
  2  1  2  0  0  0  0
  3  4  2  0  0  0  0
  4  5  1  0  0  0  0
  5 13  1  0  0  0  0
  6  5  2  0  0  0  0
  7  1  1  0  0  0  0
  8  3  1  0  0  0  0
  9 10  1  0  0  0  0
  9  2  1  0  0  0  0
 11  9  1  0  0  0  0
 12  9  1  0  0  0  0
 13 14  1  0  0  0  0
 14 15  1  0  0  0  0
 16 14  1  0  0  0  0
 17 14  1  0  0  0  0
 17 18  2  0  0  0  0
 18 19  1  0  0  0  0
 20 21  1  0  0  0  0
 20 18  1  0  0  0  0
 22 20  1  0  0  0  0
 23 22  1  0  0  0  0
 24 22  2  0  0  0  0
 24 17  1  0  0  0  0
M  END
>  <minimizedAffinity>
-4.86361933

>  <minimizedRMSD>
0.873510718

$$$$
