
 OpenBabel03252507553D

 43 46  0  0  1  0  0  0  0  0999 V2000
   47.1270   34.8210   42.1010 C   0  0  2  0  0  0  0  0  0  0  0  0
   46.3400   34.3380   40.8830 C   0  0  0  0  0  0  0  0  0  0  0  0
   47.5240   34.1700   39.9130 C   0  0  0  0  0  0  0  0  0  0  0  0
   48.6560   33.6860   40.7650 C   0  0  1  0  0  0  0  0  0  0  0  0
   48.1540   33.7270   42.1790 C   0  0  0  0  0  0  0  0  0  0  0  0
   47.5140   35.8000   41.8280 H   0  0  0  0  0  0  0  0  0  0  0  0
   45.7080   35.1750   40.5360 H   0  0  0  0  0  0  0  0  0  0  0  0
   45.8120   33.3980   41.0690 H   0  0  0  0  0  0  0  0  0  0  0  0
   47.7290   35.1210   39.3950 H   0  0  0  0  0  0  0  0  0  0  0  0
   47.2560   33.3480   39.1930 H   0  0  0  0  0  0  0  0  0  0  0  0
   49.5610   34.3380   40.6640 H   0  0  0  0  0  0  0  0  0  0  0  0
   47.6870   32.7960   42.5000 H   0  0  0  0  0  0  0  0  0  0  0  0
   48.9940   34.0140   42.8520 H   0  0  0  0  0  0  0  0  0  0  0  0
   44.5430   35.7810   44.6670 C   0  0  0  0  0  0  0  0  0  0  0  0
   45.2750   35.8310   43.4860 C   0  0  0  0  0  0  0  0  0  0  0  0
   46.2610   34.8590   43.3140 C   0  0  0  0  0  0  0  0  0  0  0  0
   46.4820   33.8870   44.3020 N   0  0  0  0  0  0  0  0  0  0  0  0
   45.7310   33.8960   45.4330 C   0  0  0  0  0  0  0  0  0  0  0  0
   44.7730   34.8370   45.6060 N   0  0  0  0  0  0  0  0  0  0  0  0
   43.7750   36.5300   44.8120 H   0  0  0  0  0  0  0  0  0  0  0  0
   45.1200   36.5640   42.7210 H   0  0  0  0  0  0  0  0  0  0  0  0
   45.9580   33.1230   46.1440 H   0  0  0  0  0  0  0  0  0  0  0  0
   49.0850   32.2620   40.4870 C   0  0  2  0  0  0  0  0  0  0  0  0
   49.8790   31.6230   41.5270 C   0  0  0  0  0  0  0  0  0  0  0  0
   50.4800   31.9310   40.1930 C   0  0  1  0  0  0  0  0  0  0  0  0
   48.3060   31.6600   39.9860 H   0  0  0  0  0  0  0  0  0  0  0  0
   50.2650   32.2440   42.3810 H   0  0  0  0  0  0  0  0  0  0  0  0
   49.7430   30.5680   41.8380 H   0  0  0  0  0  0  0  0  0  0  0  0
   51.1430   32.7840   39.9980 H   0  0  0  0  0  0  0  0  0  0  0  0
   50.7200   30.8340   39.3280 O   0  0  0  0  0  0  0  0  0  0  0  0
   51.3190   30.3510   36.8370 O   0  0  0  0  0  0  0  0  0  0  0  0
   51.3600   31.4290   37.8920 P   0  0  1  0  0  0  0  0  0  0  0  0
   50.4040   32.7370   37.3240 O   0  0  0  0  0  0  0  0  0  0  0  0
   49.4610   32.5510   37.5490 H   0  0  0  0  0  0  0  0  0  0  0  0
   52.9180   31.9930   38.0110 O   0  0  0  0  0  0  0  0  0  0  0  0
   54.0200   31.1390   37.9930 C   0  0  0  0  0  0  0  0  0  0  0  0
   54.1450   30.2870   39.0930 C   0  0  0  0  0  0  0  0  0  0  0  0
   53.5950   30.0880   40.0150 H   0  0  0  0  0  0  0  0  0  0  0  0
   55.2710   29.5610   38.8600 N   0  0  0  0  0  0  0  0  0  0  0  0
   55.7310   28.8050   39.4350 H   0  0  0  0  0  0  0  0  0  0  0  0
   55.8260   29.9260   37.6910 C   0  0  0  0  0  0  0  0  0  0  0  0
   56.7100   29.5840   37.1750 H   0  0  0  0  0  0  0  0  0  0  0  0
   55.0530   30.8920   37.1660 N   0  0  0  0  0  0  0  0  0  0  0  0
  1  6  1  6  0  0  0
  1  5  1  0  0  0  0
  1 16  1  0  0  0  0
  2  8  1  0  0  0  0
  2  1  1  0  0  0  0
  3  4  1  0  0  0  0
  3  2  1  0  0  0  0
  4 11  1  6  0  0  0
  4  5  1  0  0  0  0
  5 12  1  0  0  0  0
  5 13  1  0  0  0  0
  7  2  1  0  0  0  0
  9  3  1  0  0  0  0
 10  3  1  0  0  0  0
 14 20  1  0  0  0  0
 14 19  1  0  0  0  0
 15 14  2  0  0  0  0
 16 15  1  0  0  0  0
 16 17  2  0  0  0  0
 17 18  1  0  0  0  0
 18 19  2  0  0  0  0
 18 22  1  0  0  0  0
 21 15  1  0  0  0  0
 23 26  1  6  0  0  0
 23  4  1  0  0  0  0
 23 24  1  0  0  0  0
 24 28  1  0  0  0  0
 24 27  1  0  0  0  0
 25 29  1  6  0  0  0
 25 23  1  0  0  0  0
 25 24  1  0  0  0  0
 30 25  1  0  0  0  0
 32 31  2  6  0  0  0
 32 35  1  0  0  0  0
 32 30  1  0  0  0  0
 33 34  1  0  0  0  0
 33 32  1  0  0  0  0
 36 35  1  0  0  0  0
 36 37  2  0  0  0  0
 37 38  1  0  0  0  0
 39 37  1  0  0  0  0
 39 40  1  0  0  0  0
 41 39  1  0  0  0  0
 42 41  1  0  0  0  0
 43 41  2  0  0  0  0
 43 36  1  0  0  0  0
M  END
>  <minimizedAffinity>
-5.34560061

>  <minimizedRMSD>
1.19226074

$$$$
