
 OpenBabel03252508203D

 33 35  0  0  0  0  0  0  0  0999 V2000
   44.1050   34.0320   40.1850 C   0  0  0  0  0  0  0  0  0  0  0  0
   43.1490   34.5860   41.0310 C   0  0  0  0  0  0  0  0  0  0  0  0
   41.8290   34.8490   40.7020 C   0  0  0  0  0  0  0  0  0  0  0  0
   41.4700   34.5180   39.4090 C   0  0  0  0  0  0  0  0  0  0  0  0
   42.3940   33.9710   38.5570 C   0  0  0  0  0  0  0  0  0  0  0  0
   43.7130   33.7110   38.8970 C   0  0  0  0  0  0  0  0  0  0  0  0
   43.5130   34.8220   42.0420 H   0  0  0  0  0  0  0  0  0  0  0  0
   41.2240   35.2800   41.4790 H   0  0  0  0  0  0  0  0  0  0  0  0
   40.4450   34.7190   39.1460 H   0  0  0  0  0  0  0  0  0  0  0  0
   41.9510   33.7710   37.5830 H   0  0  0  0  0  0  0  0  0  0  0  0
   44.5040   33.1340   37.8290 C   0  0  0  0  0  0  0  0  0  0  0  0
   45.3640   33.6190   36.8840 C   0  0  0  0  0  0  0  0  0  0  0  0
   45.6300   34.6440   36.7440 H   0  0  0  0  0  0  0  0  0  0  0  0
   45.9000   32.7060   36.1030 N   0  0  0  0  0  0  0  0  0  0  0  0
   46.5670   32.7860   35.3200 H   0  0  0  0  0  0  0  0  0  0  0  0
   45.3790   31.5520   36.5420 C   0  0  0  0  0  0  0  0  0  0  0  0
   45.5160   30.5240   36.2190 H   0  0  0  0  0  0  0  0  0  0  0  0
   44.5600   31.8280   37.5600 N   0  0  0  0  0  0  0  0  0  0  0  0
   45.4880   33.7940   40.5790 C   0  0  0  0  0  0  0  0  0  0  0  0
   46.1410   34.1910   39.7700 H   0  0  0  0  0  0  0  0  0  0  0  0
   45.7330   32.7480   40.7790 H   0  0  0  0  0  0  0  0  0  0  0  0
   45.8880   34.6590   41.7920 C   0  0  0  0  0  0  0  0  0  0  0  0
   45.7410   35.7020   41.5070 H   0  0  0  0  0  0  0  0  0  0  0  0
   45.3300   34.3540   42.6930 H   0  0  0  0  0  0  0  0  0  0  0  0
   49.6180   35.1560   42.1760 C   0  0  0  0  0  0  0  0  0  0  0  0
   48.2540   35.4580   41.9240 C   0  0  0  0  0  0  0  0  0  0  0  0
   47.3380   34.4210   42.0390 C   0  0  0  0  0  0  0  0  0  0  0  0
   47.8300   33.1830   42.3870 N   0  0  0  0  0  0  0  0  0  0  0  0
   49.1110   32.9350   42.6160 C   0  0  0  0  0  0  0  0  0  0  0  0
   50.0150   33.9140   42.5130 N   0  0  0  0  0  0  0  0  0  0  0  0
   50.2690   36.0260   42.0640 H   0  0  0  0  0  0  0  0  0  0  0  0
   47.9350   36.4560   41.6530 H   0  0  0  0  0  0  0  0  0  0  0  0
   49.3950   31.9300   42.8830 H   0  0  0  0  0  0  0  0  0  0  0  0
  1 19  1  0  0  0  0
  1  2  1  0  0  0  0
  2  7  1  0  0  0  0
  3  2  2  0  0  0  0
  3  8  1  0  0  0  0
  4  3  1  0  0  0  0
  5  6  1  0  0  0  0
  5  4  2  0  0  0  0
  6  1  2  0  0  0  0
  9  4  1  0  0  0  0
 10  5  1  0  0  0  0
 11  6  1  0  0  0  0
 12 11  2  0  0  0  0
 13 12  1  0  0  0  0
 14 16  1  0  0  0  0
 14 12  1  0  0  0  0
 15 14  1  0  0  0  0
 16 18  2  0  0  0  0
 17 16  1  0  0  0  0
 18 11  1  0  0  0  0
 19 21  1  0  0  0  0
 19 22  1  0  0  0  0
 20 19  1  0  0  0  0
 22 27  1  0  0  0  0
 22 24  1  0  0  0  0
 23 22  1  0  0  0  0
 25 30  1  0  0  0  0
 26 27  1  0  0  0  0
 26 25  2  0  0  0  0
 27 28  2  0  0  0  0
 28 29  1  0  0  0  0
 29 33  1  0  0  0  0
 30 29  2  0  0  0  0
 31 25  1  0  0  0  0
 32 26  1  0  0  0  0
M  END
>  <minimizedAffinity>
-4.15820837

>  <minimizedRMSD>
7.06968069

$$$$
