
 OpenBabel03252500423D

 27 29  0  0  1  0  0  0  0  0999 V2000
   37.3700   28.1430   42.3240 C   0  0  1  0  0  0  0  0  0  0  0  0
   36.5480   27.4080   43.3770 C   0  0  0  0  0  0  0  0  0  0  0  0
   37.0380   26.6970   42.1500 C   0  0  2  0  0  0  0  0  0  0  0  0
   38.4490   28.2750   42.4190 H   0  0  0  0  0  0  0  0  0  0  0  0
   35.5060   27.6890   43.5190 H   0  0  0  0  0  0  0  0  0  0  0  0
   37.1280   27.3000   44.3310 H   0  0  0  0  0  0  0  0  0  0  0  0
   36.2020   26.4090   41.4670 H   0  0  0  0  0  0  0  0  0  0  0  0
   38.0410   25.6510   42.4380 C   0  0  0  0  0  0  0  0  0  0  0  0
   37.9240   24.3060   42.1670 C   0  0  0  0  0  0  0  0  0  0  0  0
   37.0790   23.8100   41.7030 H   0  0  0  0  0  0  0  0  0  0  0  0
   39.0800   23.7270   42.6010 N   0  0  0  0  0  0  0  0  0  0  0  0
   39.2250   22.6870   42.4990 H   0  0  0  0  0  0  0  0  0  0  0  0
   39.8930   24.6760   43.1250 C   0  0  0  0  0  0  0  0  0  0  0  0
   40.8810   24.4270   43.5340 H   0  0  0  0  0  0  0  0  0  0  0  0
   39.2370   25.8480   43.0150 N   0  0  0  0  0  0  0  0  0  0  0  0
   36.5850   29.1200   41.5230 C   0  0  0  0  0  0  0  0  0  0  0  0
   36.2900   28.6400   40.5450 H   0  0  0  0  0  0  0  0  0  0  0  0
   35.6160   29.3940   41.9880 H   0  0  0  0  0  0  0  0  0  0  0  0
   37.3190   30.3650   41.2510 C   0  0  0  0  0  0  0  0  0  0  0  0
   38.6090   30.4260   41.7350 C   0  0  0  0  0  0  0  0  0  0  0  0
   39.3830   31.5900   41.5010 C   0  0  0  0  0  0  0  0  0  0  0  0
   38.7790   32.5910   40.7980 N   0  0  0  0  0  0  0  0  0  0  0  0
   37.5010   32.4730   40.3450 C   0  0  0  0  0  0  0  0  0  0  0  0
   36.7720   31.3720   40.5670 N   0  0  0  0  0  0  0  0  0  0  0  0
   39.2380   29.7600   42.2990 H   0  0  0  0  0  0  0  0  0  0  0  0
   40.3830   31.8030   41.8000 H   0  0  0  0  0  0  0  0  0  0  0  0
   37.0640   33.2920   39.7930 H   0  0  0  0  0  0  0  0  0  0  0  0
  1  4  1  1  0  0  0
  1  2  1  0  0  0  0
  2  5  1  0  0  0  0
  2  6  1  0  0  0  0
  3  7  1  6  0  0  0
  3  1  1  0  0  0  0
  3  8  1  0  0  0  0
  3  2  1  0  0  0  0
  8 15  1  0  0  0  0
  9  8  2  0  0  0  0
  9 11  1  0  0  0  0
 10  9  1  0  0  0  0
 11 13  1  0  0  0  0
 12 11  1  0  0  0  0
 13 14  1  0  0  0  0
 15 13  2  0  0  0  0
 16 18  1  0  0  0  0
 16  1  1  0  0  0  0
 17 16  1  0  0  0  0
 19 16  1  0  0  0  0
 19 20  1  0  0  0  0
 20 25  1  0  0  0  0
 21 20  2  0  0  0  0
 21 26  1  0  0  0  0
 22 21  1  0  0  0  0
 23 24  1  0  0  0  0
 23 22  2  0  0  0  0
 24 19  2  0  0  0  0
 27 23  1  0  0  0  0
M  END
>  <minimizedAffinity>
-4.66447687

$$$$

 OpenBabel03252500423D

 27 29  0  0  1  0  0  0  0  0999 V2000
   36.9990   31.5640   39.7710 C   0  0  1  0  0  0  0  0  0  0  0  0
   37.0550   33.0860   39.6920 C   0  0  0  0  0  0  0  0  0  0  0  0
   38.2990   32.2810   39.9370 C   0  0  2  0  0  0  0  0  0  0  0  0
   37.0240   30.9360   38.8790 H   0  0  0  0  0  0  0  0  0  0  0  0
   36.5690   33.6700   40.4710 H   0  0  0  0  0  0  0  0  0  0  0  0
   36.8380   33.4400   38.6510 H   0  0  0  0  0  0  0  0  0  0  0  0
   38.7060   32.4370   40.9660 H   0  0  0  0  0  0  0  0  0  0  0  0
   39.2710   32.3510   38.8280 C   0  0  0  0  0  0  0  0  0  0  0  0
   39.0850   31.8890   37.5440 C   0  0  0  0  0  0  0  0  0  0  0  0
   38.1990   31.4050   37.1530 H   0  0  0  0  0  0  0  0  0  0  0  0
   40.2380   32.1640   36.8690 N   0  0  0  0  0  0  0  0  0  0  0  0
   40.3350   31.8990   35.8510 H   0  0  0  0  0  0  0  0  0  0  0  0
   41.1160   32.7760   37.7000 C   0  0  0  0  0  0  0  0  0  0  0  0
   42.1120   33.0860   37.3600 H   0  0  0  0  0  0  0  0  0  0  0  0
   40.5040   32.8810   38.8960 N   0  0  0  0  0  0  0  0  0  0  0  0
   36.3450   31.0500   41.0050 C   0  0  0  0  0  0  0  0  0  0  0  0
   36.4770   31.8070   41.8320 H   0  0  0  0  0  0  0  0  0  0  0  0
   35.2450   30.9480   40.9110 H   0  0  0  0  0  0  0  0  0  0  0  0
   36.8800   29.7530   41.4440 C   0  0  0  0  0  0  0  0  0  0  0  0
   36.3860   28.6420   40.7930 C   0  0  0  0  0  0  0  0  0  0  0  0
   36.8640   27.3570   41.1530 C   0  0  0  0  0  0  0  0  0  0  0  0
   37.7990   27.3130   42.1450 N   0  0  0  0  0  0  0  0  0  0  0  0
   38.2480   28.4450   42.7520 C   0  0  0  0  0  0  0  0  0  0  0  0
   37.7960   29.6570   42.4090 N   0  0  0  0  0  0  0  0  0  0  0  0
   35.6640   28.4810   40.0120 H   0  0  0  0  0  0  0  0  0  0  0  0
   36.5940   26.4050   40.7590 H   0  0  0  0  0  0  0  0  0  0  0  0
   38.9900   28.3610   43.5330 H   0  0  0  0  0  0  0  0  0  0  0  0
  1  4  1  6  0  0  0
  1  3  1  0  0  0  0
  1 16  1  0  0  0  0
  2  1  1  0  0  0  0
  2  3  1  0  0  0  0
  2  5  1  0  0  0  0
  3  7  1  1  0  0  0
  6  2  1  0  0  0  0
  8 15  1  0  0  0  0
  8  3  1  0  0  0  0
  9  8  2  0  0  0  0
 10  9  1  0  0  0  0
 11  9  1  0  0  0  0
 11 13  1  0  0  0  0
 12 11  1  0  0  0  0
 13 15  2  0  0  0  0
 14 13  1  0  0  0  0
 16 19  1  0  0  0  0
 16 17  1  0  0  0  0
 18 16  1  0  0  0  0
 19 24  1  0  0  0  0
 20 21  1  0  0  0  0
 20 19  2  0  0  0  0
 21 22  2  0  0  0  0
 22 23  1  0  0  0  0
 23 27  1  0  0  0  0
 24 23  2  0  0  0  0
 25 20  1  0  0  0  0
 26 21  1  0  0  0  0
M  END
>  <minimizedAffinity>
-4.54672718

$$$$

 OpenBabel03252500423D

 27 29  0  0  1  0  0  0  0  0999 V2000
   37.2790   26.5340   42.5280 C   0  0  1  0  0  0  0  0  0  0  0  0
   37.6170   27.5600   43.6030 C   0  0  0  0  0  0  0  0  0  0  0  0
   37.8560   27.8600   42.1510 C   0  0  2  0  0  0  0  0  0  0  0  0
   36.2720   26.4300   42.1210 H   0  0  0  0  0  0  0  0  0  0  0  0
   38.4250   27.3440   44.3000 H   0  0  0  0  0  0  0  0  0  0  0  0
   36.6860   27.9520   44.0880 H   0  0  0  0  0  0  0  0  0  0  0  0
   38.9440   27.9300   41.9090 H   0  0  0  0  0  0  0  0  0  0  0  0
   36.9940   28.9370   41.6250 C   0  0  0  0  0  0  0  0  0  0  0  0
   35.7350   28.7920   41.0870 C   0  0  0  0  0  0  0  0  0  0  0  0
   35.1860   27.8660   40.9680 H   0  0  0  0  0  0  0  0  0  0  0  0
   35.3230   30.0430   40.7360 N   0  0  0  0  0  0  0  0  0  0  0  0
   34.3740   30.1880   40.2970 H   0  0  0  0  0  0  0  0  0  0  0  0
   36.2890   30.9420   41.0430 C   0  0  0  0  0  0  0  0  0  0  0  0
   36.1640   32.0150   40.8440 H   0  0  0  0  0  0  0  0  0  0  0  0
   37.3050   30.2440   41.5870 N   0  0  0  0  0  0  0  0  0  0  0  0
   38.1970   25.3630   42.5040 C   0  0  0  0  0  0  0  0  0  0  0  0
   39.2430   25.7230   42.2780 H   0  0  0  0  0  0  0  0  0  0  0  0
   38.2950   24.8600   43.4870 H   0  0  0  0  0  0  0  0  0  0  0  0
   37.8100   24.3460   41.5160 C   0  0  0  0  0  0  0  0  0  0  0  0
   36.5180   24.4270   41.0380 C   0  0  0  0  0  0  0  0  0  0  0  0
   36.0760   23.4870   40.0730 C   0  0  0  0  0  0  0  0  0  0  0  0
   36.9830   22.5460   39.6810 N   0  0  0  0  0  0  0  0  0  0  0  0
   38.2450   22.5170   40.1900 C   0  0  0  0  0  0  0  0  0  0  0  0
   38.6600   23.4060   41.1000 N   0  0  0  0  0  0  0  0  0  0  0  0
   35.6810   25.0760   41.2250 H   0  0  0  0  0  0  0  0  0  0  0  0
   35.1240   23.4050   39.6030 H   0  0  0  0  0  0  0  0  0  0  0  0
   38.9290   21.7520   39.8490 H   0  0  0  0  0  0  0  0  0  0  0  0
  1  4  1  6  0  0  0
  1  2  1  0  0  0  0
  2  6  1  0  0  0  0
  2  5  1  0  0  0  0
  3  7  1  6  0  0  0
  3  1  1  0  0  0  0
  3  2  1  0  0  0  0
  8  3  1  0  0  0  0
  9  8  2  0  0  0  0
 10  9  1  0  0  0  0
 11 13  1  0  0  0  0
 11  9  1  0  0  0  0
 12 11  1  0  0  0  0
 13 15  2  0  0  0  0
 14 13  1  0  0  0  0
 15  8  1  0  0  0  0
 16  1  1  0  0  0  0
 16 18  1  0  0  0  0
 17 16  1  0  0  0  0
 19 16  1  0  0  0  0
 20 25  1  0  0  0  0
 20 19  2  0  0  0  0
 21 20  1  0  0  0  0
 22 21  2  0  0  0  0
 22 23  1  0  0  0  0
 23 24  2  0  0  0  0
 24 19  1  0  0  0  0
 26 21  1  0  0  0  0
 27 23  1  0  0  0  0
M  END
>  <minimizedAffinity>
-4.53463936

$$$$

 OpenBabel03252500423D

 27 29  0  0  1  0  0  0  0  0999 V2000
   36.9320   27.9560   42.3270 C   0  0  1  0  0  0  0  0  0  0  0  0
   37.5370   28.8130   43.4330 C   0  0  0  0  0  0  0  0  0  0  0  0
   37.9830   28.9690   42.0080 C   0  0  2  0  0  0  0  0  0  0  0  0
   35.9920   28.2200   41.8380 H   0  0  0  0  0  0  0  0  0  0  0  0
   38.1510   28.3320   44.1930 H   0  0  0  0  0  0  0  0  0  0  0  0
   36.7790   29.5310   43.8430 H   0  0  0  0  0  0  0  0  0  0  0  0
   39.0370   28.6300   41.8570 H   0  0  0  0  0  0  0  0  0  0  0  0
   37.6220   30.2740   41.4190 C   0  0  0  0  0  0  0  0  0  0  0  0
   36.3520   30.7190   41.1260 C   0  0  0  0  0  0  0  0  0  0  0  0
   35.4260   30.1780   41.2810 H   0  0  0  0  0  0  0  0  0  0  0  0
   36.4970   31.9690   40.6020 N   0  0  0  0  0  0  0  0  0  0  0  0
   35.6500   32.5200   40.2970 H   0  0  0  0  0  0  0  0  0  0  0  0
   37.8110   32.2980   40.5690 C   0  0  0  0  0  0  0  0  0  0  0  0
   38.1540   33.2670   40.1820 H   0  0  0  0  0  0  0  0  0  0  0  0
   38.4840   31.2450   41.0740 N   0  0  0  0  0  0  0  0  0  0  0  0
   37.3540   26.5310   42.3720 C   0  0  0  0  0  0  0  0  0  0  0  0
   38.4780   26.4850   42.4690 H   0  0  0  0  0  0  0  0  0  0  0  0
   36.9880   25.9900   43.2670 H   0  0  0  0  0  0  0  0  0  0  0  0
   36.9380   25.7680   41.1860 C   0  0  0  0  0  0  0  0  0  0  0  0
   36.8180   24.4040   41.3530 C   0  0  0  0  0  0  0  0  0  0  0  0
   36.4090   23.6040   40.2570 C   0  0  0  0  0  0  0  0  0  0  0  0
   36.1600   24.2590   39.0860 N   0  0  0  0  0  0  0  0  0  0  0  0
   36.2980   25.6090   38.9810 C   0  0  0  0  0  0  0  0  0  0  0  0
   36.6830   26.3620   40.0180 N   0  0  0  0  0  0  0  0  0  0  0  0
   36.9700   23.7260   42.1750 H   0  0  0  0  0  0  0  0  0  0  0  0
   36.2660   22.5500   40.2110 H   0  0  0  0  0  0  0  0  0  0  0  0
   36.0900   26.0840   38.0330 H   0  0  0  0  0  0  0  0  0  0  0  0
  1  4  1  6  0  0  0
  1 16  1  0  0  0  0
  1  2  1  0  0  0  0
  2  6  1  0  0  0  0
  2  5  1  0  0  0  0
  3  7  1  6  0  0  0
  3  1  1  0  0  0  0
  3  2  1  0  0  0  0
  8  3  1  0  0  0  0
  9 10  1  0  0  0  0
  9  8  2  0  0  0  0
 11  9  1  0  0  0  0
 12 11  1  0  0  0  0
 13 11  1  0  0  0  0
 13 15  2  0  0  0  0
 14 13  1  0  0  0  0
 15  8  1  0  0  0  0
 16 17  1  0  0  0  0
 16 18  1  0  0  0  0
 19 20  1  0  0  0  0
 19 16  1  0  0  0  0
 20 25  1  0  0  0  0
 21 20  2  0  0  0  0
 22 21  1  0  0  0  0
 23 22  2  0  0  0  0
 23 24  1  0  0  0  0
 24 19  2  0  0  0  0
 26 21  1  0  0  0  0
 27 23  1  0  0  0  0
M  END
>  <minimizedAffinity>
-4.52362251

$$$$

 OpenBabel03252500423D

 27 29  0  0  1  0  0  0  0  0999 V2000
   36.6800   29.0830   39.1500 C   0  0  1  0  0  0  0  0  0  0  0  0
   35.8340   29.7010   38.0420 C   0  0  0  0  0  0  0  0  0  0  0  0
   36.7150   30.5560   38.9060 C   0  0  2  0  0  0  0  0  0  0  0  0
   37.6590   28.6430   38.9540 H   0  0  0  0  0  0  0  0  0  0  0  0
   34.7500   29.6860   38.1390 H   0  0  0  0  0  0  0  0  0  0  0  0
   36.2080   29.3890   37.0320 H   0  0  0  0  0  0  0  0  0  0  0  0
   36.1240   31.2320   39.5730 H   0  0  0  0  0  0  0  0  0  0  0  0
   37.8360   31.1750   38.1710 C   0  0  0  0  0  0  0  0  0  0  0  0
   37.7790   31.7520   36.9220 C   0  0  0  0  0  0  0  0  0  0  0  0
   36.9050   31.8390   36.2890 H   0  0  0  0  0  0  0  0  0  0  0  0
   39.0410   32.1880   36.6460 N   0  0  0  0  0  0  0  0  0  0  0  0
   39.2490   32.6720   35.7300 H   0  0  0  0  0  0  0  0  0  0  0  0
   39.8610   31.8960   37.6850 C   0  0  0  0  0  0  0  0  0  0  0  0
   40.9260   32.1610   37.6720 H   0  0  0  0  0  0  0  0  0  0  0  0
   39.1020   31.2750   38.6100 N   0  0  0  0  0  0  0  0  0  0  0  0
   35.8880   28.6060   40.3150 C   0  0  0  0  0  0  0  0  0  0  0  0
   35.1340   29.3980   40.5940 H   0  0  0  0  0  0  0  0  0  0  0  0
   35.2670   27.7150   40.0920 H   0  0  0  0  0  0  0  0  0  0  0  0
   36.7180   28.2920   41.4870 C   0  0  0  0  0  0  0  0  0  0  0  0
   37.0300   26.9600   41.6700 C   0  0  0  0  0  0  0  0  0  0  0  0
   37.8380   26.5820   42.7720 C   0  0  0  0  0  0  0  0  0  0  0  0
   38.2550   27.5890   43.5930 N   0  0  0  0  0  0  0  0  0  0  0  0
   37.9140   28.8850   43.3610 C   0  0  0  0  0  0  0  0  0  0  0  0
   37.1520   29.2400   42.3200 N   0  0  0  0  0  0  0  0  0  0  0  0
   36.7970   26.0500   41.1470 H   0  0  0  0  0  0  0  0  0  0  0  0
   38.1700   25.6120   43.0590 H   0  0  0  0  0  0  0  0  0  0  0  0
   38.2680   29.6490   44.0390 H   0  0  0  0  0  0  0  0  0  0  0  0
  1  4  1  6  0  0  0
  1 16  1  0  0  0  0
  2  5  1  0  0  0  0
  2  3  1  0  0  0  0
  2  1  1  0  0  0  0
  3  1  1  0  0  0  0
  3  7  1  1  0  0  0
  6  2  1  0  0  0  0
  8 15  1  0  0  0  0
  8  3  1  0  0  0  0
  9  8  2  0  0  0  0
 10  9  1  0  0  0  0
 11  9  1  0  0  0  0
 11 13  1  0  0  0  0
 12 11  1  0  0  0  0
 13 15  2  0  0  0  0
 14 13  1  0  0  0  0
 16 17  1  0  0  0  0
 16 19  1  0  0  0  0
 18 16  1  0  0  0  0
 19 20  2  0  0  0  0
 19 24  1  0  0  0  0
 20 21  1  0  0  0  0
 21 26  1  0  0  0  0
 21 22  2  0  0  0  0
 23 22  1  0  0  0  0
 23 27  1  0  0  0  0
 24 23  2  0  0  0  0
 25 20  1  0  0  0  0
M  END
>  <minimizedAffinity>
-4.51596928

$$$$

 OpenBabel03252500423D

 27 29  0  0  1  0  0  0  0  0999 V2000
   36.6280   28.6550   41.1390 C   0  0  1  0  0  0  0  0  0  0  0  0
   35.2950   28.9650   40.4670 C   0  0  0  0  0  0  0  0  0  0  0  0
   36.1190   30.0590   41.0820 C   0  0  2  0  0  0  0  0  0  0  0  0
   37.5560   28.5660   40.5720 H   0  0  0  0  0  0  0  0  0  0  0  0
   34.3790   28.5920   40.9220 H   0  0  0  0  0  0  0  0  0  0  0  0
   35.3570   28.7990   39.3600 H   0  0  0  0  0  0  0  0  0  0  0  0
   35.6310   30.4980   41.9860 H   0  0  0  0  0  0  0  0  0  0  0  0
   36.6530   31.0170   40.0930 C   0  0  0  0  0  0  0  0  0  0  0  0
   36.7910   30.8080   38.7390 C   0  0  0  0  0  0  0  0  0  0  0  0
   36.5310   29.9080   38.1940 H   0  0  0  0  0  0  0  0  0  0  0  0
   37.3220   31.9550   38.2270 N   0  0  0  0  0  0  0  0  0  0  0  0
   37.5200   32.0340   37.1930 H   0  0  0  0  0  0  0  0  0  0  0  0
   37.5090   32.8530   39.2240 C   0  0  0  0  0  0  0  0  0  0  0  0
   37.9280   33.8490   39.0320 H   0  0  0  0  0  0  0  0  0  0  0  0
   37.0930   32.2580   40.3600 N   0  0  0  0  0  0  0  0  0  0  0  0
   36.4950   27.9380   42.4360 C   0  0  0  0  0  0  0  0  0  0  0  0
   36.4040   28.6970   43.2660 H   0  0  0  0  0  0  0  0  0  0  0  0
   35.5650   27.3410   42.5160 H   0  0  0  0  0  0  0  0  0  0  0  0
   37.6270   27.0440   42.7180 C   0  0  0  0  0  0  0  0  0  0  0  0
   37.5640   25.7880   42.1510 C   0  0  0  0  0  0  0  0  0  0  0  0
   38.6260   24.8740   42.3700 C   0  0  0  0  0  0  0  0  0  0  0  0
   39.6570   25.3150   43.1460 N   0  0  0  0  0  0  0  0  0  0  0  0
   39.6630   26.5670   43.6790 C   0  0  0  0  0  0  0  0  0  0  0  0
   38.6610   27.4280   43.4710 N   0  0  0  0  0  0  0  0  0  0  0  0
   36.8520   25.2720   41.5310 H   0  0  0  0  0  0  0  0  0  0  0  0
   38.7380   23.8770   42.0120 H   0  0  0  0  0  0  0  0  0  0  0  0
   40.5020   26.8720   44.2890 H   0  0  0  0  0  0  0  0  0  0  0  0
  1  4  1  6  0  0  0
  1 16  1  0  0  0  0
  2  5  1  0  0  0  0
  2  3  1  0  0  0  0
  2  1  1  0  0  0  0
  3  1  1  0  0  0  0
  3  7  1  1  0  0  0
  6  2  1  0  0  0  0
  8 15  1  0  0  0  0
  8  3  1  0  0  0  0
  9  8  2  0  0  0  0
 10  9  1  0  0  0  0
 11  9  1  0  0  0  0
 11 13  1  0  0  0  0
 12 11  1  0  0  0  0
 13 15  2  0  0  0  0
 14 13  1  0  0  0  0
 16 18  1  0  0  0  0
 16 19  1  0  0  0  0
 16 17  1  0  0  0  0
 19 24  1  0  0  0  0
 20 21  1  0  0  0  0
 20 19  2  0  0  0  0
 21 22  2  0  0  0  0
 22 23  1  0  0  0  0
 23 27  1  0  0  0  0
 24 23  2  0  0  0  0
 25 20  1  0  0  0  0
 26 21  1  0  0  0  0
M  END
>  <minimizedAffinity>
-4.50479412

$$$$

 OpenBabel03252500423D

 27 29  0  0  1  0  0  0  0  0999 V2000
   39.3020   30.0630   42.5970 C   0  0  1  0  0  0  0  0  0  0  0  0
   40.3580   31.1580   42.7000 C   0  0  0  0  0  0  0  0  0  0  0  0
   39.7000   30.8440   41.3870 C   0  0  2  0  0  0  0  0  0  0  0  0
   38.2530   30.2440   42.8370 H   0  0  0  0  0  0  0  0  0  0  0  0
   41.3850   30.8780   42.9260 H   0  0  0  0  0  0  0  0  0  0  0  0
   39.9760   32.0250   43.3010 H   0  0  0  0  0  0  0  0  0  0  0  0
   40.4130   30.3900   40.6570 H   0  0  0  0  0  0  0  0  0  0  0  0
   38.8480   31.9390   40.8800 C   0  0  0  0  0  0  0  0  0  0  0  0
   37.4860   31.8940   40.6820 C   0  0  0  0  0  0  0  0  0  0  0  0
   36.8330   31.0490   40.8670 H   0  0  0  0  0  0  0  0  0  0  0  0
   37.1290   33.1210   40.2080 N   0  0  0  0  0  0  0  0  0  0  0  0
   36.1200   33.3300   39.9780 H   0  0  0  0  0  0  0  0  0  0  0  0
   38.2280   33.9080   40.1120 C   0  0  0  0  0  0  0  0  0  0  0  0
   38.1670   34.9430   39.7500 H   0  0  0  0  0  0  0  0  0  0  0  0
   39.2710   33.1640   40.5290 N   0  0  0  0  0  0  0  0  0  0  0  0
   39.8510   28.6860   42.7270 C   0  0  0  0  0  0  0  0  0  0  0  0
   40.5920   28.5070   41.8940 H   0  0  0  0  0  0  0  0  0  0  0  0
   40.4450   28.5330   43.6500 H   0  0  0  0  0  0  0  0  0  0  0  0
   38.8140   27.6450   42.6840 C   0  0  0  0  0  0  0  0  0  0  0  0
   37.5880   27.9880   43.2170 C   0  0  0  0  0  0  0  0  0  0  0  0
   36.5350   27.0400   43.2010 C   0  0  0  0  0  0  0  0  0  0  0  0
   36.8180   25.8260   42.6460 N   0  0  0  0  0  0  0  0  0  0  0  0
   38.0480   25.5450   42.1360 C   0  0  0  0  0  0  0  0  0  0  0  0
   39.0410   26.4420   42.1520 N   0  0  0  0  0  0  0  0  0  0  0  0
   37.1880   28.8680   43.6880 H   0  0  0  0  0  0  0  0  0  0  0  0
   35.5380   27.1370   43.5650 H   0  0  0  0  0  0  0  0  0  0  0  0
   38.2260   24.5700   41.7070 H   0  0  0  0  0  0  0  0  0  0  0  0
  1  2  1  0  0  0  0
  1 16  1  0  0  0  0
  1  4  1  1  0  0  0
  2  5  1  0  0  0  0
  2  6  1  0  0  0  0
  3  7  1  6  0  0  0
  3  1  1  0  0  0  0
  3  2  1  0  0  0  0
  8  3  1  0  0  0  0
  9 10  1  0  0  0  0
  9  8  2  0  0  0  0
 11  9  1  0  0  0  0
 12 11  1  0  0  0  0
 13 11  1  0  0  0  0
 13 15  2  0  0  0  0
 14 13  1  0  0  0  0
 15  8  1  0  0  0  0
 16 18  1  0  0  0  0
 17 16  1  0  0  0  0
 19 16  1  0  0  0  0
 19 20  1  0  0  0  0
 20 25  1  0  0  0  0
 21 20  2  0  0  0  0
 21 26  1  0  0  0  0
 22 21  1  0  0  0  0
 23 24  1  0  0  0  0
 23 22  2  0  0  0  0
 24 19  2  0  0  0  0
 27 23  1  0  0  0  0
M  END
>  <minimizedAffinity>
-4.42709112

$$$$

 OpenBabel03252500423D

 27 29  0  0  1  0  0  0  0  0999 V2000
   35.5720   28.5770   39.1710 C   0  0  1  0  0  0  0  0  0  0  0  0
   34.3320   28.6860   38.2920 C   0  0  0  0  0  0  0  0  0  0  0  0
   35.5430   29.5320   38.0230 C   0  0  2  0  0  0  0  0  0  0  0  0
   36.3340   27.8120   39.0080 H   0  0  0  0  0  0  0  0  0  0  0  0
   33.4170   29.0880   38.7230 H   0  0  0  0  0  0  0  0  0  0  0  0
   34.1840   27.7500   37.6920 H   0  0  0  0  0  0  0  0  0  0  0  0
   35.3530   30.6150   38.2220 H   0  0  0  0  0  0  0  0  0  0  0  0
   36.2170   29.2060   36.7500 C   0  0  0  0  0  0  0  0  0  0  0  0
   37.4540   28.6190   36.6040 C   0  0  0  0  0  0  0  0  0  0  0  0
   38.1210   28.3100   37.3990 H   0  0  0  0  0  0  0  0  0  0  0  0
   37.6690   28.5100   35.2620 N   0  0  0  0  0  0  0  0  0  0  0  0
   38.5640   28.0840   34.8990 H   0  0  0  0  0  0  0  0  0  0  0  0
   36.6030   29.0100   34.5900 C   0  0  0  0  0  0  0  0  0  0  0  0
   36.5660   29.0200   33.4930 H   0  0  0  0  0  0  0  0  0  0  0  0
   35.7240   29.4310   35.5210 N   0  0  0  0  0  0  0  0  0  0  0  0
   35.3950   29.1470   40.5340 C   0  0  0  0  0  0  0  0  0  0  0  0
   35.3140   30.2700   40.4530 H   0  0  0  0  0  0  0  0  0  0  0  0
   34.4440   28.8460   41.0180 H   0  0  0  0  0  0  0  0  0  0  0  0
   36.4920   28.8040   41.4500 C   0  0  0  0  0  0  0  0  0  0  0  0
   36.7450   27.4580   41.6160 C   0  0  0  0  0  0  0  0  0  0  0  0
   37.7970   27.0510   42.4750 C   0  0  0  0  0  0  0  0  0  0  0  0
   38.4970   28.0460   43.0930 N   0  0  0  0  0  0  0  0  0  0  0  0
   38.2000   29.3580   42.8900 C   0  0  0  0  0  0  0  0  0  0  0  0
   37.2080   29.7400   42.0770 N   0  0  0  0  0  0  0  0  0  0  0  0
   36.3110   26.5530   41.2300 H   0  0  0  0  0  0  0  0  0  0  0  0
   38.1250   26.0660   42.7150 H   0  0  0  0  0  0  0  0  0  0  0  0
   38.7830   30.1110   43.4000 H   0  0  0  0  0  0  0  0  0  0  0  0
  1  4  1  6  0  0  0
  1 16  1  0  0  0  0
  2  5  1  0  0  0  0
  2  1  1  0  0  0  0
  3  7  1  1  0  0  0
  3  2  1  0  0  0  0
  3  1  1  0  0  0  0
  6  2  1  0  0  0  0
  8  3  1  0  0  0  0
  9  8  2  0  0  0  0
  9 10  1  0  0  0  0
 11  9  1  0  0  0  0
 12 11  1  0  0  0  0
 13 11  1  0  0  0  0
 13 15  2  0  0  0  0
 14 13  1  0  0  0  0
 15  8  1  0  0  0  0
 16 18  1  0  0  0  0
 16 19  1  0  0  0  0
 17 16  1  0  0  0  0
 19 20  2  0  0  0  0
 19 24  1  0  0  0  0
 20 21  1  0  0  0  0
 21 26  1  0  0  0  0
 21 22  2  0  0  0  0
 23 22  1  0  0  0  0
 23 27  1  0  0  0  0
 24 23  2  0  0  0  0
 25 20  1  0  0  0  0
M  END
>  <minimizedAffinity>
-4.36884785

$$$$

 OpenBabel03252500423D

 27 29  0  0  1  0  0  0  0  0999 V2000
   37.1490   29.8990   39.4370 C   0  0  1  0  0  0  0  0  0  0  0  0
   36.8080   30.9550   38.3920 C   0  0  0  0  0  0  0  0  0  0  0  0
   36.7570   31.2780   39.8580 C   0  0  2  0  0  0  0  0  0  0  0  0
   38.1780   29.6900   39.7370 H   0  0  0  0  0  0  0  0  0  0  0  0
   35.9140   30.8240   37.7870 H   0  0  0  0  0  0  0  0  0  0  0  0
   37.7190   31.2470   37.8070 H   0  0  0  0  0  0  0  0  0  0  0  0
   35.7140   31.4620   40.2130 H   0  0  0  0  0  0  0  0  0  0  0  0
   37.7770   32.2590   40.2790 C   0  0  0  0  0  0  0  0  0  0  0  0
   38.8720   32.0130   41.0760 C   0  0  0  0  0  0  0  0  0  0  0  0
   39.1510   31.0630   41.5160 H   0  0  0  0  0  0  0  0  0  0  0  0
   39.5290   33.2010   41.2000 N   0  0  0  0  0  0  0  0  0  0  0  0
   40.4130   33.2640   41.7740 H   0  0  0  0  0  0  0  0  0  0  0  0
   38.8700   34.1590   40.5040 C   0  0  0  0  0  0  0  0  0  0  0  0
   39.2280   35.1960   40.4680 H   0  0  0  0  0  0  0  0  0  0  0  0
   37.7980   33.5610   39.9470 N   0  0  0  0  0  0  0  0  0  0  0  0
   36.1220   28.8310   39.5700 C   0  0  0  0  0  0  0  0  0  0  0  0
   35.1420   29.3010   39.8750 H   0  0  0  0  0  0  0  0  0  0  0  0
   35.8880   28.3230   38.6130 H   0  0  0  0  0  0  0  0  0  0  0  0
   36.4890   27.7960   40.5470 C   0  0  0  0  0  0  0  0  0  0  0  0
   36.4530   28.1750   41.8730 C   0  0  0  0  0  0  0  0  0  0  0  0
   36.7830   27.2270   42.8750 C   0  0  0  0  0  0  0  0  0  0  0  0
   37.1230   25.9780   42.4410 N   0  0  0  0  0  0  0  0  0  0  0  0
   37.1410   25.6640   41.1180 C   0  0  0  0  0  0  0  0  0  0  0  0
   36.8280   26.5600   40.1740 N   0  0  0  0  0  0  0  0  0  0  0  0
   36.2210   29.0870   42.3940 H   0  0  0  0  0  0  0  0  0  0  0  0
   36.8070   27.3480   43.9330 H   0  0  0  0  0  0  0  0  0  0  0  0
   37.4170   24.6620   40.8220 H   0  0  0  0  0  0  0  0  0  0  0  0
  1 16  1  0  0  0  0
  1  4  1  1  0  0  0
  1  3  1  0  0  0  0
  2  1  1  0  0  0  0
  2  3  1  0  0  0  0
  3  7  1  1  0  0  0
  3  8  1  0  0  0  0
  5  2  1  0  0  0  0
  6  2  1  0  0  0  0
  8  9  2  0  0  0  0
  9 11  1  0  0  0  0
  9 10  1  0  0  0  0
 11 12  1  0  0  0  0
 13 11  1  0  0  0  0
 14 13  1  0  0  0  0
 15  8  1  0  0  0  0
 15 13  2  0  0  0  0
 16 17  1  0  0  0  0
 16 19  1  0  0  0  0
 18 16  1  0  0  0  0
 19 20  1  0  0  0  0
 20 25  1  0  0  0  0
 20 21  2  0  0  0  0
 21 26  1  0  0  0  0
 22 21  1  0  0  0  0
 23 22  2  0  0  0  0
 24 19  2  0  0  0  0
 24 23  1  0  0  0  0
 27 23  1  0  0  0  0
M  END
>  <minimizedAffinity>
-4.35862923

$$$$
