
 OpenBabel03242518573D

 24 26  0  0  1  0  0  0  0  0999 V2000
   46.2600   32.6770   41.8450 C   0  0  1  0  0  0  0  0  0  0  0  0
   45.9260   32.0460   43.2280 C   0  0  0  0  0  0  0  0  0  0  0  0
   44.9940   32.9270   42.5110 C   0  0  1  0  0  0  0  0  0  0  0  0
   46.4220   31.9040   41.0330 H   0  0  0  0  0  0  0  0  0  0  0  0
   45.7340   30.9540   43.2080 H   0  0  0  0  0  0  0  0  0  0  0  0
   46.5120   32.3870   44.0930 H   0  0  0  0  0  0  0  0  0  0  0  0
   44.1110   32.4710   42.0170 H   0  0  0  0  0  0  0  0  0  0  0  0
   47.4140   33.6120   41.8990 C   0  0  0  0  0  0  0  0  0  0  0  0
   47.5540   34.5280   40.8260 C   0  0  0  0  0  0  0  0  0  0  0  0
   48.6270   35.4280   40.8640 C   0  0  0  0  0  0  0  0  0  0  0  0
   49.4790   35.3690   41.9410 N   0  0  0  0  0  0  0  0  0  0  0  0
   49.2950   34.4710   42.9380 C   0  0  0  0  0  0  0  0  0  0  0  0
   48.2710   33.5980   42.9180 N   0  0  0  0  0  0  0  0  0  0  0  0
   46.9000   34.5880   39.9670 H   0  0  0  0  0  0  0  0  0  0  0  0
   48.7570   36.1370   40.0610 H   0  0  0  0  0  0  0  0  0  0  0  0
   50.0420   34.5360   43.7240 H   0  0  0  0  0  0  0  0  0  0  0  0
   44.7970   34.2780   43.1260 C   0  0  0  0  0  0  0  0  0  0  0  0
   44.4050   35.4950   42.5630 C   0  0  0  0  0  0  0  0  0  0  0  0
   44.1800   35.6060   41.5110 H   0  0  0  0  0  0  0  0  0  0  0  0
   44.3630   36.4400   43.5130 N   0  0  0  0  0  0  0  0  0  0  0  0
   44.0890   37.4180   43.2830 H   0  0  0  0  0  0  0  0  0  0  0  0
   44.7190   35.8390   44.6490 C   0  0  0  0  0  0  0  0  0  0  0  0
   44.7550   36.4280   45.5650 H   0  0  0  0  0  0  0  0  0  0  0  0
   44.9880   34.5370   44.4530 N   0  0  0  0  0  0  0  0  0  0  0  0
  1  4  1  6  0  0  0
  1  8  1  0  0  0  0
  1  3  1  0  0  0  0
  1  2  1  0  0  0  0
  2  6  1  0  0  0  0
  3  7  1  6  0  0  0
  3 17  1  0  0  0  0
  3  2  1  0  0  0  0
  5  2  1  0  0  0  0
  8 13  1  0  0  0  0
  9 10  1  0  0  0  0
  9  8  2  0  0  0  0
 10 11  2  0  0  0  0
 11 12  1  0  0  0  0
 12 16  1  0  0  0  0
 13 12  2  0  0  0  0
 14  9  1  0  0  0  0
 15 10  1  0  0  0  0
 17 24  1  0  0  0  0
 18 17  2  0  0  0  0
 18 20  1  0  0  0  0
 19 18  1  0  0  0  0
 20 22  1  0  0  0  0
 21 20  1  0  0  0  0
 22 23  1  0  0  0  0
 24 22  2  0  0  0  0
M  END
>  <minimizedAffinity>
-4.06494045

>  <minimizedRMSD>
4.2043829

$$$$
