
 OpenBabel03252507033D

 46 49  0  0  0  0  0  0  0  0999 V2000
   41.8680   32.5870   41.5340 C   0  0  0  0  0  0  0  0  0  0  0  0
   41.9350   31.9710   42.4550 H   0  0  0  0  0  0  0  0  0  0  0  0
   41.7710   33.6520   41.9390 H   0  0  0  0  0  0  0  0  0  0  0  0
   40.8530   32.2250   40.7370 N   0  0  0  0  0  0  0  0  0  0  0  0
   40.6310   30.9410   40.1530 C   0  0  0  0  0  0  0  0  0  0  0  0
   39.4920   30.4640   41.0480 C   0  0  0  0  0  0  0  0  0  0  0  0
   38.3140   31.3140   41.0120 C   0  0  0  0  0  0  0  0  0  0  0  0
   38.4630   32.7030   40.6350 C   0  0  0  0  0  0  0  0  0  0  0  0
   39.8500   33.2840   40.4770 C   0  0  0  0  0  0  0  0  0  0  0  0
   41.5090   30.2950   40.3810 H   0  0  0  0  0  0  0  0  0  0  0  0
   40.4480   30.8640   39.0970 H   0  0  0  0  0  0  0  0  0  0  0  0
   39.2550   29.4110   40.7220 H   0  0  0  0  0  0  0  0  0  0  0  0
   39.9610   30.3520   42.0590 H   0  0  0  0  0  0  0  0  0  0  0  0
   37.7980   31.2870   42.0150 H   0  0  0  0  0  0  0  0  0  0  0  0
   37.5570   30.8650   40.3040 H   0  0  0  0  0  0  0  0  0  0  0  0
   37.6860   33.3920   40.4640 H   0  0  0  0  0  0  0  0  0  0  0  0
   40.1860   34.9210   40.0770 S   0  0  0  0  0  0  0  0  0  0  0  0
   41.3760   35.2830   38.8530 C   0  0  0  0  0  0  0  0  0  0  0  0
   42.6170   35.1330   38.3080 C   0  0  0  0  0  0  0  0  0  0  0  0
   43.1850   34.4490   38.8800 H   0  0  0  0  0  0  0  0  0  0  0  0
   42.7100   35.9000   37.2190 N   0  0  0  0  0  0  0  0  0  0  0  0
   43.6460   35.8340   36.7410 H   0  0  0  0  0  0  0  0  0  0  0  0
   41.5510   36.5480   37.0450 C   0  0  0  0  0  0  0  0  0  0  0  0
   41.5850   37.1870   36.1620 H   0  0  0  0  0  0  0  0  0  0  0  0
   40.7080   36.1760   38.0550 N   0  0  0  0  0  0  0  0  0  0  0  0
   43.1900   32.5720   40.8560 C   0  0  0  0  0  0  0  0  0  0  0  0
   43.6560   31.5750   41.0670 H   0  0  0  0  0  0  0  0  0  0  0  0
   43.0670   32.7320   39.7600 H   0  0  0  0  0  0  0  0  0  0  0  0
   44.0360   33.6120   41.4650 C   0  0  0  0  0  0  0  0  0  0  0  0
   43.4750   34.7730   41.9450 C   0  0  0  0  0  0  0  0  0  0  0  0
   44.3130   35.7310   42.5010 C   0  0  0  0  0  0  0  0  0  0  0  0
   45.6550   35.4670   42.5440 N   0  0  0  0  0  0  0  0  0  0  0  0
   46.1590   34.3320   42.0720 C   0  0  0  0  0  0  0  0  0  0  0  0
   45.3350   33.4250   41.5400 N   0  0  0  0  0  0  0  0  0  0  0  0
   42.4720   35.1540   42.0180 H   0  0  0  0  0  0  0  0  0  0  0  0
   44.0530   36.7050   42.9280 H   0  0  0  0  0  0  0  0  0  0  0  0
   47.6000   34.1240   42.1850 C   0  0  0  0  0  0  0  0  0  0  0  0
   48.1280   32.8370   42.2450 C   0  0  0  0  0  0  0  0  0  0  0  0
   49.4870   32.6550   42.3610 C   0  0  0  0  0  0  0  0  0  0  0  0
   50.2220   33.8140   42.4090 C   0  0  0  0  0  0  0  0  0  0  0  0
   49.7460   35.1180   42.3530 C   0  0  0  0  0  0  0  0  0  0  0  0
   48.3950   35.2020   42.2390 N   0  0  0  0  0  0  0  0  0  0  0  0
   47.4850   31.9550   42.2020 H   0  0  0  0  0  0  0  0  0  0  0  0
   49.9810   31.6950   42.4150 H   0  0  0  0  0  0  0  0  0  0  0  0
   51.3060   33.7210   42.5010 H   0  0  0  0  0  0  0  0  0  0  0  0
   50.4020   35.9680   42.3970 H   0  0  0  0  0  0  0  0  0  0  0  0
  1  3  1  0  0  0  0
  1  2  1  0  0  0  0
  4  1  1  0  0  0  0
  5 10  1  0  0  0  0
  5  4  1  0  0  0  0
  5  6  1  0  0  0  0
  6 13  1  0  0  0  0
  7  6  1  0  0  0  0
  7 14  1  0  0  0  0
  8  7  1  0  0  0  0
  9  8  2  0  0  0  0
  9  4  1  0  0  0  0
 11  5  1  0  0  0  0
 12  6  1  0  0  0  0
 15  7  1  0  0  0  0
 16  8  1  0  0  0  0
 17  9  1  0  0  0  0
 18 17  1  0  0  0  0
 19 18  2  0  0  0  0
 19 20  1  0  0  0  0
 21 19  1  0  0  0  0
 22 21  1  0  0  0  0
 23 21  1  0  0  0  0
 23 25  2  0  0  0  0
 24 23  1  0  0  0  0
 25 18  1  0  0  0  0
 26 27  1  0  0  0  0
 26 29  1  0  0  0  0
 26  1  1  0  0  0  0
 28 26  1  0  0  0  0
 29 34  2  0  0  0  0
 29 30  1  0  0  0  0
 30 35  1  0  0  0  0
 30 31  2  0  0  0  0
 31 32  1  0  0  0  0
 31 36  1  0  0  0  0
 33 37  1  0  0  0  0
 33 32  2  0  0  0  0
 34 33  1  0  0  0  0
 37 42  2  0  0  0  0
 37 38  1  0  0  0  0
 38 39  2  0  0  0  0
 39 40  1  0  0  0  0
 39 44  1  0  0  0  0
 40 45  1  0  0  0  0
 41 46  1  0  0  0  0
 41 40  2  0  0  0  0
 42 41  1  0  0  0  0
 43 38  1  0  0  0  0
M  END
>  <minimizedAffinity>
-5.51429176

>  <minimizedRMSD>
1.6858865

$$$$
