
 OpenBabel03252508203D

 33 35  0  0  0  0  0  0  0  0999 V2000
   45.0470   32.6150   38.7690 C   0  0  0  0  0  0  0  0  0  0  0  0
   44.4800   31.5900   38.0190 C   0  0  0  0  0  0  0  0  0  0  0  0
   45.1730   30.5920   37.3520 C   0  0  0  0  0  0  0  0  0  0  0  0
   46.5490   30.6580   37.4660 C   0  0  0  0  0  0  0  0  0  0  0  0
   47.1310   31.6590   38.2000 C   0  0  0  0  0  0  0  0  0  0  0  0
   46.4270   32.6520   38.8640 C   0  0  0  0  0  0  0  0  0  0  0  0
   43.3800   31.6070   37.9770 H   0  0  0  0  0  0  0  0  0  0  0  0
   44.5760   29.8760   36.8190 H   0  0  0  0  0  0  0  0  0  0  0  0
   47.0940   29.8860   36.9500 H   0  0  0  0  0  0  0  0  0  0  0  0
   48.2160   31.5670   38.1870 H   0  0  0  0  0  0  0  0  0  0  0  0
   47.2590   33.6050   39.5710 C   0  0  0  0  0  0  0  0  0  0  0  0
   48.1980   34.5310   39.2120 C   0  0  0  0  0  0  0  0  0  0  0  0
   48.5320   34.7350   38.2170 H   0  0  0  0  0  0  0  0  0  0  0  0
   48.7030   35.2220   40.2110 N   0  0  0  0  0  0  0  0  0  0  0  0
   49.4140   35.9700   40.2310 H   0  0  0  0  0  0  0  0  0  0  0  0
   48.0760   34.7430   41.2930 C   0  0  0  0  0  0  0  0  0  0  0  0
   48.1500   34.9920   42.3480 H   0  0  0  0  0  0  0  0  0  0  0  0
   47.2290   33.7910   40.8920 N   0  0  0  0  0  0  0  0  0  0  0  0
   44.2680   33.6510   39.4360 C   0  0  0  0  0  0  0  0  0  0  0  0
   44.8710   34.5870   39.4210 H   0  0  0  0  0  0  0  0  0  0  0  0
   43.9720   33.4130   40.4600 H   0  0  0  0  0  0  0  0  0  0  0  0
   43.0210   34.0380   38.6150 C   0  0  0  0  0  0  0  0  0  0  0  0
   43.2180   35.0150   38.1700 H   0  0  0  0  0  0  0  0  0  0  0  0
   42.7720   33.2510   37.8840 H   0  0  0  0  0  0  0  0  0  0  0  0
   40.0110   35.3260   40.5100 C   0  0  0  0  0  0  0  0  0  0  0  0
   41.0720   35.2830   39.5680 C   0  0  0  0  0  0  0  0  0  0  0  0
   41.8870   34.1590   39.5740 C   0  0  0  0  0  0  0  0  0  0  0  0
   41.5970   33.1770   40.4950 N   0  0  0  0  0  0  0  0  0  0  0  0
   40.5980   33.2490   41.3620 C   0  0  0  0  0  0  0  0  0  0  0  0
   39.7970   34.3190   41.3790 N   0  0  0  0  0  0  0  0  0  0  0  0
   39.4210   36.2420   40.4370 H   0  0  0  0  0  0  0  0  0  0  0  0
   41.2450   36.0910   38.8700 H   0  0  0  0  0  0  0  0  0  0  0  0
   40.4550   32.4260   42.0430 H   0  0  0  0  0  0  0  0  0  0  0  0
  1  6  1  0  0  0  0
  1 19  1  0  0  0  0
  2  1  2  0  0  0  0
  3  4  2  0  0  0  0
  3  2  1  0  0  0  0
  4  5  1  0  0  0  0
  5  6  2  0  0  0  0
  6 11  1  0  0  0  0
  7  2  1  0  0  0  0
  8  3  1  0  0  0  0
  9  4  1  0  0  0  0
 10  5  1  0  0  0  0
 11 18  1  0  0  0  0
 12 11  2  0  0  0  0
 12 14  1  0  0  0  0
 13 12  1  0  0  0  0
 14 15  1  0  0  0  0
 14 16  1  0  0  0  0
 16 17  1  0  0  0  0
 18 16  2  0  0  0  0
 19 21  1  0  0  0  0
 20 19  1  0  0  0  0
 22 19  1  0  0  0  0
 22 27  1  0  0  0  0
 23 22  1  0  0  0  0
 24 22  1  0  0  0  0
 25 30  1  0  0  0  0
 26 27  1  0  0  0  0
 26 25  2  0  0  0  0
 27 28  2  0  0  0  0
 28 29  1  0  0  0  0
 29 30  2  0  0  0  0
 29 33  1  0  0  0  0
 31 25  1  0  0  0  0
 32 26  1  0  0  0  0
M  END
>  <minimizedAffinity>
-3.90014172

>  <minimizedRMSD>
3.95220852

$$$$
