
 OpenBabel03252508203D

 33 35  0  0  0  0  0  0  0  0999 V2000
   45.9360   34.1170   41.0450 C   0  0  0  0  0  0  0  0  0  0  0  0
   46.8400   33.9140   40.0070 C   0  0  0  0  0  0  0  0  0  0  0  0
   48.1350   34.4040   39.9520 C   0  0  0  0  0  0  0  0  0  0  0  0
   48.5240   35.1560   41.0440 C   0  0  0  0  0  0  0  0  0  0  0  0
   47.6510   35.3690   42.0790 C   0  0  0  0  0  0  0  0  0  0  0  0
   46.3570   34.8730   42.1240 C   0  0  0  0  0  0  0  0  0  0  0  0
   46.4550   33.3060   39.1750 H   0  0  0  0  0  0  0  0  0  0  0  0
   48.7000   34.1510   39.0730 H   0  0  0  0  0  0  0  0  0  0  0  0
   49.5300   35.5400   41.0080 H   0  0  0  0  0  0  0  0  0  0  0  0
   48.1130   35.9780   42.8550 H   0  0  0  0  0  0  0  0  0  0  0  0
   45.6200   35.2330   43.3190 C   0  0  0  0  0  0  0  0  0  0  0  0
   44.8220   36.2780   43.6930 C   0  0  0  0  0  0  0  0  0  0  0  0
   44.5780   37.1270   43.0930 H   0  0  0  0  0  0  0  0  0  0  0  0
   44.3190   36.1840   44.9050 N   0  0  0  0  0  0  0  0  0  0  0  0
   43.6980   36.8130   45.4370 H   0  0  0  0  0  0  0  0  0  0  0  0
   44.7970   35.0230   45.3690 C   0  0  0  0  0  0  0  0  0  0  0  0
   44.6660   34.5090   46.3180 H   0  0  0  0  0  0  0  0  0  0  0  0
   45.5620   34.4780   44.4180 N   0  0  0  0  0  0  0  0  0  0  0  0
   44.5760   33.5920   41.0430 C   0  0  0  0  0  0  0  0  0  0  0  0
   43.9830   34.1910   41.7700 H   0  0  0  0  0  0  0  0  0  0  0  0
   44.4950   32.5290   41.2810 H   0  0  0  0  0  0  0  0  0  0  0  0
   43.8620   33.8780   39.7060 C   0  0  0  0  0  0  0  0  0  0  0  0
   44.5050   34.5470   39.1320 H   0  0  0  0  0  0  0  0  0  0  0  0
   43.6100   32.9380   39.1860 H   0  0  0  0  0  0  0  0  0  0  0  0
   41.0720   35.6220   41.5730 C   0  0  0  0  0  0  0  0  0  0  0  0
   42.3010   34.9500   41.3390 C   0  0  0  0  0  0  0  0  0  0  0  0
   42.5910   34.5850   40.0320 C   0  0  0  0  0  0  0  0  0  0  0  0
   41.6610   34.9060   39.0680 N   0  0  0  0  0  0  0  0  0  0  0  0
   40.5230   35.5340   39.3200 C   0  0  0  0  0  0  0  0  0  0  0  0
   40.2170   35.8980   40.5700 N   0  0  0  0  0  0  0  0  0  0  0  0
   40.9230   35.8720   42.6260 H   0  0  0  0  0  0  0  0  0  0  0  0
   42.9880   34.7270   42.1450 H   0  0  0  0  0  0  0  0  0  0  0  0
   39.8610   35.7390   38.4950 H   0  0  0  0  0  0  0  0  0  0  0  0
  1  6  1  0  0  0  0
  2  1  2  0  0  0  0
  3  2  1  0  0  0  0
  3  4  2  0  0  0  0
  4  5  1  0  0  0  0
  5  6  2  0  0  0  0
  5 10  1  0  0  0  0
  6 11  1  0  0  0  0
  7  2  1  0  0  0  0
  8  3  1  0  0  0  0
  9  4  1  0  0  0  0
 11 12  2  0  0  0  0
 11 18  1  0  0  0  0
 12 14  1  0  0  0  0
 13 12  1  0  0  0  0
 14 16  1  0  0  0  0
 14 15  1  0  0  0  0
 16 17  1  0  0  0  0
 18 16  2  0  0  0  0
 19  1  1  0  0  0  0
 19 21  1  0  0  0  0
 19 20  1  0  0  0  0
 22 27  1  0  0  0  0
 22 19  1  0  0  0  0
 23 22  1  0  0  0  0
 24 22  1  0  0  0  0
 25 31  1  0  0  0  0
 26 25  1  0  0  0  0
 26 32  1  0  0  0  0
 27 26  2  0  0  0  0
 28 29  2  0  0  0  0
 28 27  1  0  0  0  0
 29 30  1  0  0  0  0
 30 25  2  0  0  0  0
 33 29  1  0  0  0  0
M  END
>  <minimizedAffinity>
-5.86822987

>  <minimizedRMSD>
1.60584033

$$$$
