
 OpenBabel03242519573D

 27 29  0  0  0  0  0  0  0  0999 V2000
   44.6760   32.9530   41.2380 Br  0  0  0  0  0  0  0  0  0  0  0  0
   46.3130   33.9160   41.0130 C   0  0  0  0  0  0  0  0  0  0  0  0
   46.8440   34.7250   42.0070 C   0  0  0  0  0  0  0  0  0  0  0  0
   48.0300   35.3660   41.7240 C   0  0  0  0  0  0  0  0  0  0  0  0
   48.7000   35.2480   40.5330 C   0  0  0  0  0  0  0  0  0  0  0  0
   48.1740   34.4440   39.5440 C   0  0  0  0  0  0  0  0  0  0  0  0
   46.9760   33.7890   39.8170 C   0  0  0  0  0  0  0  0  0  0  0  0
   48.4380   36.0020   42.5140 H   0  0  0  0  0  0  0  0  0  0  0  0
   49.6290   35.7630   40.3380 H   0  0  0  0  0  0  0  0  0  0  0  0
   48.6880   34.3370   38.5970 H   0  0  0  0  0  0  0  0  0  0  0  0
   44.4810   35.9510   44.6940 C   0  0  0  0  0  0  0  0  0  0  0  0
   45.1880   35.8490   43.5000 C   0  0  0  0  0  0  0  0  0  0  0  0
   46.1080   34.8270   43.2540 C   0  0  0  0  0  0  0  0  0  0  0  0
   46.2520   33.9500   44.2640 N   0  0  0  0  0  0  0  0  0  0  0  0
   45.5810   34.0260   45.4240 C   0  0  0  0  0  0  0  0  0  0  0  0
   44.7040   35.0170   45.6350 N   0  0  0  0  0  0  0  0  0  0  0  0
   43.7790   36.7620   44.8330 H   0  0  0  0  0  0  0  0  0  0  0  0
   45.0330   36.5890   42.7100 H   0  0  0  0  0  0  0  0  0  0  0  0
   45.8330   33.2290   46.1140 H   0  0  0  0  0  0  0  0  0  0  0  0
   46.4120   32.9270   38.7580 C   0  0  0  0  0  0  0  0  0  0  0  0
   46.6890   31.6210   38.5080 C   0  0  0  0  0  0  0  0  0  0  0  0
   47.3870   31.0410   39.0860 H   0  0  0  0  0  0  0  0  0  0  0  0
   45.9700   31.1880   37.4550 N   0  0  0  0  0  0  0  0  0  0  0  0
   45.9980   30.2120   37.0540 H   0  0  0  0  0  0  0  0  0  0  0  0
   45.2380   32.2090   37.0320 C   0  0  0  0  0  0  0  0  0  0  0  0
   44.5350   32.2570   36.2110 H   0  0  0  0  0  0  0  0  0  0  0  0
   45.4910   33.2950   37.8190 N   0  0  0  0  0  0  0  0  0  0  0  0
  2  1  1  0  0  0  0
  2  3  1  0  0  0  0
  3 13  1  0  0  0  0
  4  3  2  0  0  0  0
  4  8  1  0  0  0  0
  5  4  1  0  0  0  0
  6  7  1  0  0  0  0
  6  5  2  0  0  0  0
  7  2  2  0  0  0  0
  9  5  1  0  0  0  0
 10  6  1  0  0  0  0
 11 17  1  0  0  0  0
 11 16  1  0  0  0  0
 12 11  2  0  0  0  0
 13 12  1  0  0  0  0
 13 14  2  0  0  0  0
 14 15  1  0  0  0  0
 15 16  2  0  0  0  0
 15 19  1  0  0  0  0
 18 12  1  0  0  0  0
 20  7  1  0  0  0  0
 21 20  2  0  0  0  0
 21 22  1  0  0  0  0
 23 21  1  0  0  0  0
 24 23  1  0  0  0  0
 25 23  1  0  0  0  0
 25 27  2  0  0  0  0
 26 25  1  0  0  0  0
 27 20  1  0  0  0  0
M  END
>  <minimizedAffinity>
-5.36605501

>  <minimizedRMSD>
0.43236506

$$$$
