
 OpenBabel03252507553D

 43 46  0  0  1  0  0  0  0  0999 V2000
   46.9920   34.8000   42.0250 C   0  0  2  0  0  0  0  0  0  0  0  0
   46.1680   34.2560   40.8580 C   0  0  0  0  0  0  0  0  0  0  0  0
   47.3170   34.0720   39.8490 C   0  0  0  0  0  0  0  0  0  0  0  0
   48.4910   33.6430   40.6740 C   0  0  1  0  0  0  0  0  0  0  0  0
   48.0430   33.7300   42.1040 C   0  0  0  0  0  0  0  0  0  0  0  0
   47.3470   35.7750   41.6990 H   0  0  0  0  0  0  0  0  0  0  0  0
   45.5060   35.0660   40.5040 H   0  0  0  0  0  0  0  0  0  0  0  0
   45.6670   33.3140   41.1010 H   0  0  0  0  0  0  0  0  0  0  0  0
   47.4810   35.0060   39.2880 H   0  0  0  0  0  0  0  0  0  0  0  0
   47.0370   33.2180   39.1720 H   0  0  0  0  0  0  0  0  0  0  0  0
   49.3770   34.3080   40.5120 H   0  0  0  0  0  0  0  0  0  0  0  0
   47.6080   32.8040   42.4780 H   0  0  0  0  0  0  0  0  0  0  0  0
   48.9020   34.0590   42.7310 H   0  0  0  0  0  0  0  0  0  0  0  0
   44.5330   35.8470   44.6790 C   0  0  0  0  0  0  0  0  0  0  0  0
   45.2210   35.8700   43.4710 C   0  0  0  0  0  0  0  0  0  0  0  0
   46.1720   34.8690   43.2680 C   0  0  0  0  0  0  0  0  0  0  0  0
   46.4030   33.8970   44.2530 N   0  0  0  0  0  0  0  0  0  0  0  0
   45.6950   33.9330   45.4120 C   0  0  0  0  0  0  0  0  0  0  0  0
   44.7710   34.9020   45.6150 N   0  0  0  0  0  0  0  0  0  0  0  0
   43.7920   36.6180   44.8470 H   0  0  0  0  0  0  0  0  0  0  0  0
   45.0590   36.6030   42.7070 H   0  0  0  0  0  0  0  0  0  0  0  0
   45.9270   33.1580   46.1180 H   0  0  0  0  0  0  0  0  0  0  0  0
   48.9370   32.2180   40.4330 C   0  0  2  0  0  0  0  0  0  0  0  0
   49.6350   31.5770   41.5390 C   0  0  0  0  0  0  0  0  0  0  0  0
   50.3510   31.8820   40.2610 C   0  0  1  0  0  0  0  0  0  0  0  0
   48.2030   31.6190   39.8660 H   0  0  0  0  0  0  0  0  0  0  0  0
   49.9480   32.1960   42.4230 H   0  0  0  0  0  0  0  0  0  0  0  0
   49.4690   30.5210   41.8360 H   0  0  0  0  0  0  0  0  0  0  0  0
   51.0320   32.7320   40.1260 H   0  0  0  0  0  0  0  0  0  0  0  0
   50.6610   30.7840   39.4200 O   0  0  0  0  0  0  0  0  0  0  0  0
   52.5660   29.8690   37.8940 O   0  0  0  0  0  0  0  0  0  0  0  0
   52.1910   31.0380   38.7710 P   0  0  1  0  0  0  0  0  0  0  0  0
   52.1800   32.4380   37.7780 O   0  0  0  0  0  0  0  0  0  0  0  0
   51.3020   32.4920   37.3290 H   0  0  0  0  0  0  0  0  0  0  0  0
   53.3920   31.2610   39.8970 O   0  0  0  0  0  0  0  0  0  0  0  0
   53.9080   30.2080   40.6500 C   0  0  0  0  0  0  0  0  0  0  0  0
   53.1130   29.7740   41.7120 C   0  0  0  0  0  0  0  0  0  0  0  0
   52.1450   30.0400   42.1470 H   0  0  0  0  0  0  0  0  0  0  0  0
   53.8060   28.7590   42.2920 N   0  0  0  0  0  0  0  0  0  0  0  0
   53.5710   28.1530   43.1230 H   0  0  0  0  0  0  0  0  0  0  0  0
   54.9660   28.5590   41.6430 C   0  0  0  0  0  0  0  0  0  0  0  0
   55.7710   27.8560   41.8030 H   0  0  0  0  0  0  0  0  0  0  0  0
   55.0210   29.4510   40.6380 N   0  0  0  0  0  0  0  0  0  0  0  0
  1  6  1  6  0  0  0
  1  5  1  0  0  0  0
  1 16  1  0  0  0  0
  2  8  1  0  0  0  0
  2  1  1  0  0  0  0
  3  4  1  0  0  0  0
  3  2  1  0  0  0  0
  4 11  1  6  0  0  0
  4  5  1  0  0  0  0
  5 12  1  0  0  0  0
  5 13  1  0  0  0  0
  7  2  1  0  0  0  0
  9  3  1  0  0  0  0
 10  3  1  0  0  0  0
 14 20  1  0  0  0  0
 14 19  1  0  0  0  0
 15 14  2  0  0  0  0
 16 15  1  0  0  0  0
 16 17  2  0  0  0  0
 17 18  1  0  0  0  0
 18 19  2  0  0  0  0
 18 22  1  0  0  0  0
 21 15  1  0  0  0  0
 23 26  1  6  0  0  0
 23  4  1  0  0  0  0
 23 24  1  0  0  0  0
 24 28  1  0  0  0  0
 24 27  1  0  0  0  0
 25 29  1  1  0  0  0
 25 23  1  0  0  0  0
 25 24  1  0  0  0  0
 30 25  1  0  0  0  0
 32 31  2  6  0  0  0
 32 30  1  0  0  0  0
 32 35  1  0  0  0  0
 33 32  1  0  0  0  0
 34 33  1  0  0  0  0
 35 36  1  0  0  0  0
 36 37  2  0  0  0  0
 37 38  1  0  0  0  0
 37 39  1  0  0  0  0
 39 40  1  0  0  0  0
 41 42  1  0  0  0  0
 41 39  1  0  0  0  0
 43 36  1  0  0  0  0
 43 41  2  0  0  0  0
M  END
>  <minimizedAffinity>
-5.14145136

>  <minimizedRMSD>
0.887263358

$$$$
