
 OpenBabel03242512293D

 37 39  0  0  1  0  0  0  0  0999 V2000
   47.2050   31.8670   47.2750 C   0  0  1  0  0  0  0  0  0  0  0  0
   47.8470   32.3600   48.5600 C   0  0  0  0  0  0  0  0  0  0  0  0
   49.0270   31.4980   48.8990 C   0  0  0  0  0  0  0  0  0  0  0  0
   48.5980   30.0700   48.9920 C   0  0  0  0  0  0  0  0  0  0  0  0
   47.8840   29.5890   47.7670 C   0  0  0  0  0  0  0  0  0  0  0  0
   46.6480   30.4540   47.5920 C   0  0  2  0  0  0  0  0  0  0  0  0
   47.9270   31.6810   46.4790 H   0  0  0  0  0  0  0  0  0  0  0  0
   48.0880   33.4370   48.5150 H   0  0  0  0  0  0  0  0  0  0  0  0
   47.0910   32.1960   49.3780 H   0  0  0  0  0  0  0  0  0  0  0  0
   49.7870   31.6410   48.1160 H   0  0  0  0  0  0  0  0  0  0  0  0
   49.4520   31.8060   49.8700 H   0  0  0  0  0  0  0  0  0  0  0  0
   47.9450   29.9210   49.8690 H   0  0  0  0  0  0  0  0  0  0  0  0
   49.5020   29.4390   49.1320 H   0  0  0  0  0  0  0  0  0  0  0  0
   47.5760   28.5390   47.9360 H   0  0  0  0  0  0  0  0  0  0  0  0
   48.5290   29.5970   46.8750 H   0  0  0  0  0  0  0  0  0  0  0  0
   46.1900   30.5520   48.6260 H   0  0  0  0  0  0  0  0  0  0  0  0
   45.7130   29.9370   46.6190 C   0  0  0  0  0  0  0  0  0  0  0  0
   45.5960   29.9250   45.2340 C   0  0  0  0  0  0  0  0  0  0  0  0
   46.3780   30.4150   44.6340 H   0  0  0  0  0  0  0  0  0  0  0  0
   44.4990   29.2890   44.8090 N   0  0  0  0  0  0  0  0  0  0  0  0
   44.2690   29.1940   43.7870 H   0  0  0  0  0  0  0  0  0  0  0  0
   43.8850   28.8780   45.9150 C   0  0  0  0  0  0  0  0  0  0  0  0
   42.9520   28.3230   45.9200 H   0  0  0  0  0  0  0  0  0  0  0  0
   44.5930   29.2550   46.9920 N   0  0  0  0  0  0  0  0  0  0  0  0
   46.1030   32.7900   46.9280 C   0  0  0  0  0  0  0  0  0  0  0  0
   45.2320   32.8550   47.8400 O   0  0  0  0  0  0  0  0  0  0  0  0
   44.8780   35.0880   44.4060 C   0  0  0  0  0  0  0  0  0  0  0  0
   45.7950   34.9680   43.3650 C   0  0  0  0  0  0  0  0  0  0  0  0
   46.8670   34.0830   43.5260 C   0  0  0  0  0  0  0  0  0  0  0  0
   46.9160   33.4130   44.6960 N   0  0  0  0  0  0  0  0  0  0  0  0
   46.0370   33.5320   45.6880 C   0  0  0  0  0  0  0  0  0  0  0  0
   44.9950   34.3850   45.5470 N   0  0  0  0  0  0  0  0  0  0  0  0
   43.7870   35.9830   44.2510 N   0  0  0  0  0  0  0  0  0  0  0  0
   45.6530   35.5540   42.4770 H   0  0  0  0  0  0  0  0  0  0  0  0
   47.5830   33.9800   42.7310 H   0  0  0  0  0  0  0  0  0  0  0  0
   42.9540   35.9200   43.6260 H   0  0  0  0  0  0  0  0  0  0  0  0
   43.7590   36.8560   44.8230 H   0  0  0  0  0  0  0  0  0  0  0  0
  1  7  1  6  0  0  0
  1  6  1  0  0  0  0
  1  2  1  0  0  0  0
  2  3  1  0  0  0  0
  2  9  1  0  0  0  0
  3  4  1  0  0  0  0
  3 11  1  0  0  0  0
  4 13  1  0  0  0  0
  4 12  1  0  0  0  0
  5 14  1  0  0  0  0
  5  4  1  0  0  0  0
  6  5  1  0  0  0  0
  6 16  1  1  0  0  0
  8  2  1  0  0  0  0
 10  3  1  0  0  0  0
 15  5  1  0  0  0  0
 17 24  1  0  0  0  0
 17  6  1  0  0  0  0
 18 17  2  0  0  0  0
 19 18  1  0  0  0  0
 20 18  1  0  0  0  0
 20 22  1  0  0  0  0
 21 20  1  0  0  0  0
 22 23  1  0  0  0  0
 22 24  2  0  0  0  0
 25  1  1  0  0  0  0
 25 26  2  0  0  0  0
 27 32  1  0  0  0  0
 28 29  1  0  0  0  0
 28 27  2  0  0  0  0
 29 30  2  0  0  0  0
 30 31  1  0  0  0  0
 31 25  1  0  0  0  0
 32 31  2  0  0  0  0
 33 27  1  0  0  0  0
 33 37  1  0  0  0  0
 34 28  1  0  0  0  0
 35 29  1  0  0  0  0
 36 33  1  0  0  0  0
M  END
>  <minimizedAffinity>
-5.58361101

>  <minimizedRMSD>
1.39801562

$$$$
