
 OpenBabel03252505523D

 24 25  0  0  0  0  0  0  0  0999 V2000
   36.9090   27.0530   40.8080 C   0  0  0  0  0  0  0  0  0  0  0  0
   37.3640   26.4830   42.0010 C   0  0  0  0  0  0  0  0  0  0  0  0
   37.5420   27.3390   43.0870 C   0  0  0  0  0  0  0  0  0  0  0  0
   37.2790   28.6520   42.9640 N   0  0  0  0  0  0  0  0  0  0  0  0
   36.8410   29.1650   41.7980 C   0  0  0  0  0  0  0  0  0  0  0  0
   36.6510   28.3830   40.7140 N   0  0  0  0  0  0  0  0  0  0  0  0
   36.7440   26.4560   39.9170 H   0  0  0  0  0  0  0  0  0  0  0  0
   37.8910   26.8740   43.9870 H   0  0  0  0  0  0  0  0  0  0  0  0
   37.6190   25.0180   42.0090 C   0  0  0  0  0  0  0  0  0  0  0  0
   38.6550   24.8230   42.9010 F   0  0  0  0  0  0  0  0  0  0  0  0
   38.0130   24.6650   40.7370 F   0  0  0  0  0  0  0  0  0  0  0  0
   36.4440   24.3820   42.3840 F   0  0  0  0  0  0  0  0  0  0  0  0
   36.5530   30.5060   41.6070 O   0  0  0  0  0  0  0  0  0  0  0  0
   36.5360   31.0910   40.3310 C   0  0  0  0  0  0  0  0  0  0  0  0
   35.5200   31.4050   40.0710 H   0  0  0  0  0  0  0  0  0  0  0  0
   36.8390   30.2910   39.6020 H   0  0  0  0  0  0  0  0  0  0  0  0
   37.4840   32.2290   40.2760 C   0  0  0  0  0  0  0  0  0  0  0  0
   37.2680   33.2860   39.3900 C   0  0  0  0  0  0  0  0  0  0  0  0
   36.4710   33.4520   38.6690 H   0  0  0  0  0  0  0  0  0  0  0  0
   38.2680   34.1580   39.5530 N   0  0  0  0  0  0  0  0  0  0  0  0
   38.5140   35.0700   39.1180 H   0  0  0  0  0  0  0  0  0  0  0  0
   39.0930   33.6880   40.5030 C   0  0  0  0  0  0  0  0  0  0  0  0
   40.0090   34.0060   40.9850 H   0  0  0  0  0  0  0  0  0  0  0  0
   38.6050   32.5180   40.9340 N   0  0  0  0  0  0  0  0  0  0  0  0
  1  2  1  0  0  0  0
  2  9  1  0  0  0  0
  2  3  2  0  0  0  0
  3  8  1  0  0  0  0
  4  3  1  0  0  0  0
  5  4  2  0  0  0  0
  6  1  2  0  0  0  0
  6  5  1  0  0  0  0
  7  1  1  0  0  0  0
  9 12  1  0  0  0  0
  9 10  1  0  0  0  0
 11  9  1  0  0  0  0
 13  5  1  0  0  0  0
 14 13  1  0  0  0  0
 15 14  1  0  0  0  0
 16 14  1  0  0  0  0
 17 14  1  0  0  0  0
 17 24  1  0  0  0  0
 18 20  1  0  0  0  0
 18 17  2  0  0  0  0
 19 18  1  0  0  0  0
 20 22  1  0  0  0  0
 21 20  1  0  0  0  0
 22 24  2  0  0  0  0
 22 23  1  0  0  0  0
M  END
>  <minimizedAffinity>
-4.80308533

$$$$

 OpenBabel03252505523D

 24 25  0  0  0  0  0  0  0  0999 V2000
   38.8010   26.9350   41.5850 C   0  0  0  0  0  0  0  0  0  0  0  0
   37.6290   26.4340   42.1600 C   0  0  0  0  0  0  0  0  0  0  0  0
   36.8330   27.3350   42.8670 C   0  0  0  0  0  0  0  0  0  0  0  0
   37.2000   28.6230   42.9740 N   0  0  0  0  0  0  0  0  0  0  0  0
   38.3370   29.0700   42.4050 C   0  0  0  0  0  0  0  0  0  0  0  0
   39.1450   28.2430   41.7100 N   0  0  0  0  0  0  0  0  0  0  0  0
   39.4750   26.3000   41.0180 H   0  0  0  0  0  0  0  0  0  0  0  0
   35.9410   26.9220   43.2970 H   0  0  0  0  0  0  0  0  0  0  0  0
   37.3340   24.9890   41.9710 C   0  0  0  0  0  0  0  0  0  0  0  0
   36.2340   24.7240   42.7630 F   0  0  0  0  0  0  0  0  0  0  0  0
   38.4280   24.2860   42.4240 F   0  0  0  0  0  0  0  0  0  0  0  0
   37.1020   24.7740   40.6190 F   0  0  0  0  0  0  0  0  0  0  0  0
   38.7700   30.3830   42.4790 O   0  0  0  0  0  0  0  0  0  0  0  0
   39.5230   30.9790   41.4550 C   0  0  0  0  0  0  0  0  0  0  0  0
   39.7440   30.2470   40.6710 H   0  0  0  0  0  0  0  0  0  0  0  0
   40.5020   31.2910   41.9120 H   0  0  0  0  0  0  0  0  0  0  0  0
   38.8070   32.1560   40.9100 C   0  0  0  0  0  0  0  0  0  0  0  0
   37.4690   32.0540   40.5260 C   0  0  0  0  0  0  0  0  0  0  0  0
   36.7900   31.2060   40.5520 H   0  0  0  0  0  0  0  0  0  0  0  0
   37.0880   33.2530   40.0750 N   0  0  0  0  0  0  0  0  0  0  0  0
   36.1980   33.6370   39.6960 H   0  0  0  0  0  0  0  0  0  0  0  0
   38.1310   34.0940   40.1640 C   0  0  0  0  0  0  0  0  0  0  0  0
   38.3320   35.1340   39.9380 H   0  0  0  0  0  0  0  0  0  0  0  0
   39.1680   33.4160   40.6720 N   0  0  0  0  0  0  0  0  0  0  0  0
  1  6  2  0  0  0  0
  1  2  1  0  0  0  0
  2  3  2  0  0  0  0
  3  4  1  0  0  0  0
  3  8  1  0  0  0  0
  5 13  1  0  0  0  0
  5  4  2  0  0  0  0
  6  5  1  0  0  0  0
  7  1  1  0  0  0  0
  9  2  1  0  0  0  0
  9 11  1  0  0  0  0
  9 10  1  0  0  0  0
 12  9  1  0  0  0  0
 14 16  1  0  0  0  0
 14 13  1  0  0  0  0
 15 14  1  0  0  0  0
 17 14  1  0  0  0  0
 18 19  1  0  0  0  0
 18 17  2  0  0  0  0
 20 22  1  0  0  0  0
 20 18  1  0  0  0  0
 21 20  1  0  0  0  0
 22 24  2  0  0  0  0
 23 22  1  0  0  0  0
 24 17  1  0  0  0  0
M  END
>  <minimizedAffinity>
-4.79648399

$$$$

 OpenBabel03252505523D

 24 25  0  0  0  0  0  0  0  0999 V2000
   36.7870   28.9590   41.7050 C   0  0  0  0  0  0  0  0  0  0  0  0
   37.6940   28.1010   42.3340 C   0  0  0  0  0  0  0  0  0  0  0  0
   38.9750   28.5980   42.5770 C   0  0  0  0  0  0  0  0  0  0  0  0
   39.2950   29.8510   42.2120 N   0  0  0  0  0  0  0  0  0  0  0  0
   38.3940   30.6490   41.6080 C   0  0  0  0  0  0  0  0  0  0  0  0
   37.1400   30.2210   41.3480 N   0  0  0  0  0  0  0  0  0  0  0  0
   35.7710   28.6500   41.4810 H   0  0  0  0  0  0  0  0  0  0  0  0
   39.6480   27.9180   43.0600 H   0  0  0  0  0  0  0  0  0  0  0  0
   37.2190   26.7380   42.6880 C   0  0  0  0  0  0  0  0  0  0  0  0
   36.7350   26.1930   41.5150 F   0  0  0  0  0  0  0  0  0  0  0  0
   36.1990   26.8850   43.6020 F   0  0  0  0  0  0  0  0  0  0  0  0
   38.2920   26.0350   43.2180 F   0  0  0  0  0  0  0  0  0  0  0  0
   38.6610   31.9470   41.2080 O   0  0  0  0  0  0  0  0  0  0  0  0
   39.6850   32.2520   40.2970 C   0  0  0  0  0  0  0  0  0  0  0  0
   40.5490   31.6010   40.4650 H   0  0  0  0  0  0  0  0  0  0  0  0
   40.0090   33.3060   40.5130 H   0  0  0  0  0  0  0  0  0  0  0  0
   39.1860   32.1370   38.9060 C   0  0  0  0  0  0  0  0  0  0  0  0
   40.0670   32.2380   37.8280 C   0  0  0  0  0  0  0  0  0  0  0  0
   41.1420   32.3990   37.8070 H   0  0  0  0  0  0  0  0  0  0  0  0
   39.3500   32.1000   36.7090 N   0  0  0  0  0  0  0  0  0  0  0  0
   39.5800   32.1050   35.6940 H   0  0  0  0  0  0  0  0  0  0  0  0
   38.0630   31.9170   37.0460 C   0  0  0  0  0  0  0  0  0  0  0  0
   37.1230   31.7610   36.5310 H   0  0  0  0  0  0  0  0  0  0  0  0
   37.9770   31.9410   38.3810 N   0  0  0  0  0  0  0  0  0  0  0  0
  1  2  1  0  0  0  0
  2  3  2  0  0  0  0
  2  9  1  0  0  0  0
  3  8  1  0  0  0  0
  4  3  1  0  0  0  0
  5  4  2  0  0  0  0
  6  5  1  0  0  0  0
  6  1  2  0  0  0  0
  7  1  1  0  0  0  0
  9 12  1  0  0  0  0
  9 11  1  0  0  0  0
 10  9  1  0  0  0  0
 13  5  1  0  0  0  0
 14 15  1  0  0  0  0
 14 16  1  0  0  0  0
 14 13  1  0  0  0  0
 17 14  1  0  0  0  0
 18 17  2  0  0  0  0
 19 18  1  0  0  0  0
 20 22  1  0  0  0  0
 20 18  1  0  0  0  0
 21 20  1  0  0  0  0
 22 24  2  0  0  0  0
 23 22  1  0  0  0  0
 24 17  1  0  0  0  0
M  END
>  <minimizedAffinity>
-4.52548027

$$$$

 OpenBabel03252505523D

 24 25  0  0  0  0  0  0  0  0999 V2000
   39.2870   27.2960   42.3350 C   0  0  0  0  0  0  0  0  0  0  0  0
   38.3650   26.2450   42.3490 C   0  0  0  0  0  0  0  0  0  0  0  0
   37.0190   26.5780   42.1970 C   0  0  0  0  0  0  0  0  0  0  0  0
   36.6530   27.8630   42.0450 N   0  0  0  0  0  0  0  0  0  0  0  0
   37.5710   28.8490   42.0360 C   0  0  0  0  0  0  0  0  0  0  0  0
   38.8870   28.5840   42.1790 N   0  0  0  0  0  0  0  0  0  0  0  0
   40.3530   27.1220   42.4470 H   0  0  0  0  0  0  0  0  0  0  0  0
   36.3360   25.7520   42.2110 H   0  0  0  0  0  0  0  0  0  0  0  0
   38.8960   24.8680   42.5250 C   0  0  0  0  0  0  0  0  0  0  0  0
   39.6200   24.5950   41.3810 F   0  0  0  0  0  0  0  0  0  0  0  0
   37.8130   24.0210   42.6160 F   0  0  0  0  0  0  0  0  0  0  0  0
   39.6660   24.8510   43.6790 F   0  0  0  0  0  0  0  0  0  0  0  0
   37.2590   30.1890   41.8840 O   0  0  0  0  0  0  0  0  0  0  0  0
   36.2230   30.6230   41.0410 C   0  0  0  0  0  0  0  0  0  0  0  0
   35.5990   31.3620   41.5560 H   0  0  0  0  0  0  0  0  0  0  0  0
   35.5790   29.7260   40.8290 H   0  0  0  0  0  0  0  0  0  0  0  0
   36.7810   31.1720   39.7820 C   0  0  0  0  0  0  0  0  0  0  0  0
   37.2220   32.4940   39.7220 C   0  0  0  0  0  0  0  0  0  0  0  0
   37.2390   33.2690   40.4840 H   0  0  0  0  0  0  0  0  0  0  0  0
   37.6670   32.7130   38.4810 N   0  0  0  0  0  0  0  0  0  0  0  0
   38.0790   33.5330   37.9910 H   0  0  0  0  0  0  0  0  0  0  0  0
   37.5210   31.5820   37.7700 C   0  0  0  0  0  0  0  0  0  0  0  0
   37.7220   31.2510   36.7580 H   0  0  0  0  0  0  0  0  0  0  0  0
   36.9830   30.6550   38.5710 N   0  0  0  0  0  0  0  0  0  0  0  0
  1  2  1  0  0  0  0
  1  7  1  0  0  0  0
  2  9  1  0  0  0  0
  3  8  1  0  0  0  0
  3  2  2  0  0  0  0
  4  3  1  0  0  0  0
  5  4  2  0  0  0  0
  5  6  1  0  0  0  0
  6  1  2  0  0  0  0
  9 11  1  0  0  0  0
  9 12  1  0  0  0  0
 10  9  1  0  0  0  0
 13  5  1  0  0  0  0
 14 15  1  0  0  0  0
 14 13  1  0  0  0  0
 16 14  1  0  0  0  0
 17 14  1  0  0  0  0
 18 17  2  0  0  0  0
 18 19  1  0  0  0  0
 20 18  1  0  0  0  0
 21 20  1  0  0  0  0
 22 20  1  0  0  0  0
 22 24  2  0  0  0  0
 23 22  1  0  0  0  0
 24 17  1  0  0  0  0
M  END
>  <minimizedAffinity>
-4.49155474

$$$$

 OpenBabel03252505523D

 24 25  0  0  0  0  0  0  0  0999 V2000
   38.9440   31.3790   41.4170 C   0  0  0  0  0  0  0  0  0  0  0  0
   37.8970   31.8620   40.6270 C   0  0  0  0  0  0  0  0  0  0  0  0
   36.6910   31.1640   40.6730 C   0  0  0  0  0  0  0  0  0  0  0  0
   36.5680   30.0760   41.4540 N   0  0  0  0  0  0  0  0  0  0  0  0
   37.6000   29.6400   42.2030 C   0  0  0  0  0  0  0  0  0  0  0  0
   38.7900   30.2770   42.1960 N   0  0  0  0  0  0  0  0  0  0  0  0
   39.9140   31.8640   41.4380 H   0  0  0  0  0  0  0  0  0  0  0  0
   35.9070   31.5570   40.0570 H   0  0  0  0  0  0  0  0  0  0  0  0
   38.1580   33.0730   39.8050 C   0  0  0  0  0  0  0  0  0  0  0  0
   36.9170   33.5370   39.4150 F   0  0  0  0  0  0  0  0  0  0  0  0
   38.8850   32.6730   38.7060 F   0  0  0  0  0  0  0  0  0  0  0  0
   38.8600   33.9780   40.5900 F   0  0  0  0  0  0  0  0  0  0  0  0
   37.5370   28.5290   43.0270 O   0  0  0  0  0  0  0  0  0  0  0  0
   37.1920   27.2580   42.5400 C   0  0  0  0  0  0  0  0  0  0  0  0
   36.9510   27.3120   41.4740 H   0  0  0  0  0  0  0  0  0  0  0  0
   36.2570   26.9460   43.0820 H   0  0  0  0  0  0  0  0  0  0  0  0
   38.2880   26.2940   42.7990 C   0  0  0  0  0  0  0  0  0  0  0  0
   39.3540   26.6430   43.6290 C   0  0  0  0  0  0  0  0  0  0  0  0
   39.5560   27.5630   44.1710 H   0  0  0  0  0  0  0  0  0  0  0  0
   40.1830   25.5960   43.6790 N   0  0  0  0  0  0  0  0  0  0  0  0
   41.0840   25.4050   44.1630 H   0  0  0  0  0  0  0  0  0  0  0  0
   39.6750   24.6130   42.9160 C   0  0  0  0  0  0  0  0  0  0  0  0
   39.9530   23.6040   42.6370 H   0  0  0  0  0  0  0  0  0  0  0  0
   38.5260   25.0500   42.3890 N   0  0  0  0  0  0  0  0  0  0  0  0
  1  7  1  0  0  0  0
  1  6  1  0  0  0  0
  2  3  1  0  0  0  0
  2  1  2  0  0  0  0
  3  4  2  0  0  0  0
  4  5  1  0  0  0  0
  5 13  1  0  0  0  0
  6  5  2  0  0  0  0
  8  3  1  0  0  0  0
  9 12  1  0  0  0  0
  9  2  1  0  0  0  0
 10  9  1  0  0  0  0
 11  9  1  0  0  0  0
 14 17  1  0  0  0  0
 14 13  1  0  0  0  0
 14 16  1  0  0  0  0
 15 14  1  0  0  0  0
 17 18  2  0  0  0  0
 18 20  1  0  0  0  0
 18 19  1  0  0  0  0
 20 21  1  0  0  0  0
 22 20  1  0  0  0  0
 23 22  1  0  0  0  0
 24 17  1  0  0  0  0
 24 22  2  0  0  0  0
M  END
>  <minimizedAffinity>
-4.48960447

$$$$

 OpenBabel03252505523D

 24 25  0  0  0  0  0  0  0  0999 V2000
   38.5000   27.8730   41.0110 C   0  0  0  0  0  0  0  0  0  0  0  0
   37.3040   27.9560   41.7320 C   0  0  0  0  0  0  0  0  0  0  0  0
   36.3610   28.8850   41.2940 C   0  0  0  0  0  0  0  0  0  0  0  0
   36.6160   29.6540   40.2210 N   0  0  0  0  0  0  0  0  0  0  0  0
   37.7800   29.5450   39.5510 C   0  0  0  0  0  0  0  0  0  0  0  0
   38.7280   28.6640   39.9310 N   0  0  0  0  0  0  0  0  0  0  0  0
   39.2850   27.1760   41.2860 H   0  0  0  0  0  0  0  0  0  0  0  0
   35.4550   28.9260   41.8660 H   0  0  0  0  0  0  0  0  0  0  0  0
   37.1420   27.0510   42.9000 C   0  0  0  0  0  0  0  0  0  0  0  0
   38.2810   27.2160   43.6630 F   0  0  0  0  0  0  0  0  0  0  0  0
   37.0760   25.7640   42.4140 F   0  0  0  0  0  0  0  0  0  0  0  0
   35.9790   27.4160   43.5650 F   0  0  0  0  0  0  0  0  0  0  0  0
   38.1020   30.3070   38.4410 O   0  0  0  0  0  0  0  0  0  0  0  0
   37.5660   31.5880   38.2330 C   0  0  0  0  0  0  0  0  0  0  0  0
   36.4850   31.5790   38.4040 H   0  0  0  0  0  0  0  0  0  0  0  0
   37.7340   31.8380   37.1490 H   0  0  0  0  0  0  0  0  0  0  0  0
   38.2440   32.5760   39.1050 C   0  0  0  0  0  0  0  0  0  0  0  0
   37.5200   33.2840   40.0650 C   0  0  0  0  0  0  0  0  0  0  0  0
   36.4640   33.2500   40.3220 H   0  0  0  0  0  0  0  0  0  0  0  0
   38.3750   34.0950   40.6950 N   0  0  0  0  0  0  0  0  0  0  0  0
   38.2840   34.7890   41.4650 H   0  0  0  0  0  0  0  0  0  0  0  0
   39.5970   33.9200   40.1670 C   0  0  0  0  0  0  0  0  0  0  0  0
   40.5910   34.3210   40.3210 H   0  0  0  0  0  0  0  0  0  0  0  0
   39.5040   32.9960   39.2040 N   0  0  0  0  0  0  0  0  0  0  0  0
  1  7  1  0  0  0  0
  1  2  1  0  0  0  0
  2  9  1  0  0  0  0
  3  2  2  0  0  0  0
  3  8  1  0  0  0  0
  4  3  1  0  0  0  0
  5  6  1  0  0  0  0
  5  4  2  0  0  0  0
  6  1  2  0  0  0  0
  9 12  1  0  0  0  0
  9 10  1  0  0  0  0
 11  9  1  0  0  0  0
 13  5  1  0  0  0  0
 14 15  1  0  0  0  0
 14 13  1  0  0  0  0
 14 17  1  0  0  0  0
 16 14  1  0  0  0  0
 17 24  1  0  0  0  0
 17 18  2  0  0  0  0
 18 19  1  0  0  0  0
 18 20  1  0  0  0  0
 20 21  1  0  0  0  0
 22 23  1  0  0  0  0
 22 20  1  0  0  0  0
 24 22  2  0  0  0  0
M  END
>  <minimizedAffinity>
-4.47929478

$$$$

 OpenBabel03252505523D

 24 25  0  0  0  0  0  0  0  0999 V2000
   36.4570   31.0230   40.5250 C   0  0  0  0  0  0  0  0  0  0  0  0
   37.6730   31.6780   40.3090 C   0  0  0  0  0  0  0  0  0  0  0  0
   38.7580   31.2800   41.0890 C   0  0  0  0  0  0  0  0  0  0  0  0
   38.6130   30.3040   42.0020 N   0  0  0  0  0  0  0  0  0  0  0  0
   37.4260   29.6940   42.1820 C   0  0  0  0  0  0  0  0  0  0  0  0
   36.3420   30.0400   41.4550 N   0  0  0  0  0  0  0  0  0  0  0  0
   35.5650   31.2730   39.9600 H   0  0  0  0  0  0  0  0  0  0  0  0
   39.6760   31.8010   40.9000 H   0  0  0  0  0  0  0  0  0  0  0  0
   37.7050   32.7420   39.2700 C   0  0  0  0  0  0  0  0  0  0  0  0
   37.1030   32.1950   38.1540 F   0  0  0  0  0  0  0  0  0  0  0  0
   39.0280   33.0190   39.0090 F   0  0  0  0  0  0  0  0  0  0  0  0
   37.0310   33.8480   39.7700 F   0  0  0  0  0  0  0  0  0  0  0  0
   37.2110   28.6840   43.1040 O   0  0  0  0  0  0  0  0  0  0  0  0
   38.2020   27.7430   43.4240 C   0  0  0  0  0  0  0  0  0  0  0  0
   38.1670   27.5010   44.4910 H   0  0  0  0  0  0  0  0  0  0  0  0
   39.1940   28.2330   43.2210 H   0  0  0  0  0  0  0  0  0  0  0  0
   38.0440   26.5280   42.5890 C   0  0  0  0  0  0  0  0  0  0  0  0
   39.1160   26.0420   41.8390 C   0  0  0  0  0  0  0  0  0  0  0  0
   40.1330   26.4120   41.7380 H   0  0  0  0  0  0  0  0  0  0  0  0
   38.6920   24.9530   41.1910 N   0  0  0  0  0  0  0  0  0  0  0  0
   39.1360   24.2790   40.5340 H   0  0  0  0  0  0  0  0  0  0  0  0
   37.4040   24.7420   41.5090 C   0  0  0  0  0  0  0  0  0  0  0  0
   36.6350   24.0210   41.2610 H   0  0  0  0  0  0  0  0  0  0  0  0
   37.0240   25.7040   42.3580 N   0  0  0  0  0  0  0  0  0  0  0  0
  1  6  1  0  0  0  0
  2  1  2  0  0  0  0
  2  3  1  0  0  0  0
  3  4  2  0  0  0  0
  4  5  1  0  0  0  0
  5 13  1  0  0  0  0
  6  5  2  0  0  0  0
  7  1  1  0  0  0  0
  8  3  1  0  0  0  0
  9 12  1  0  0  0  0
  9  2  1  0  0  0  0
 10  9  1  0  0  0  0
 11  9  1  0  0  0  0
 13 14  1  0  0  0  0
 14 15  1  0  0  0  0
 16 14  1  0  0  0  0
 17 14  1  0  0  0  0
 18 17  2  0  0  0  0
 19 18  1  0  0  0  0
 20 22  1  0  0  0  0
 20 18  1  0  0  0  0
 21 20  1  0  0  0  0
 22 24  2  0  0  0  0
 23 22  1  0  0  0  0
 24 17  1  0  0  0  0
M  END
>  <minimizedAffinity>
-4.32432318

$$$$

 OpenBabel03252505523D

 24 25  0  0  0  0  0  0  0  0999 V2000
   38.7720   30.0540   41.2580 C   0  0  0  0  0  0  0  0  0  0  0  0
   37.4180   29.8540   41.5470 C   0  0  0  0  0  0  0  0  0  0  0  0
   36.5240   30.8330   41.1150 C   0  0  0  0  0  0  0  0  0  0  0  0
   36.9720   31.9130   40.4510 N   0  0  0  0  0  0  0  0  0  0  0  0
   38.2850   32.0710   40.1900 C   0  0  0  0  0  0  0  0  0  0  0  0
   39.1940   31.1550   40.5850 N   0  0  0  0  0  0  0  0  0  0  0  0
   39.5310   29.3390   41.5600 H   0  0  0  0  0  0  0  0  0  0  0  0
   35.4940   30.6520   41.3500 H   0  0  0  0  0  0  0  0  0  0  0  0
   37.0490   28.6190   42.2880 C   0  0  0  0  0  0  0  0  0  0  0  0
   37.2070   28.9230   43.6260 F   0  0  0  0  0  0  0  0  0  0  0  0
   37.9390   27.6360   41.9150 F   0  0  0  0  0  0  0  0  0  0  0  0
   35.7430   28.2920   41.9500 F   0  0  0  0  0  0  0  0  0  0  0  0
   38.8090   33.1580   39.5120 O   0  0  0  0  0  0  0  0  0  0  0  0
   39.5460   34.1600   40.1640 C   0  0  0  0  0  0  0  0  0  0  0  0
   39.4960   34.0230   41.2490 H   0  0  0  0  0  0  0  0  0  0  0  0
   39.0480   35.1380   39.9230 H   0  0  0  0  0  0  0  0  0  0  0  0
   40.9490   34.1590   39.6840 C   0  0  0  0  0  0  0  0  0  0  0  0
   42.0060   34.1600   40.5950 C   0  0  0  0  0  0  0  0  0  0  0  0
   42.0030   34.1610   41.6820 H   0  0  0  0  0  0  0  0  0  0  0  0
   43.1420   34.1610   39.8900 N   0  0  0  0  0  0  0  0  0  0  0  0
   44.1520   34.1600   40.1410 H   0  0  0  0  0  0  0  0  0  0  0  0
   42.8340   34.1590   38.5830 C   0  0  0  0  0  0  0  0  0  0  0  0
   43.3710   34.1590   37.6420 H   0  0  0  0  0  0  0  0  0  0  0  0
   41.5000   34.1580   38.4720 N   0  0  0  0  0  0  0  0  0  0  0  0
  1  2  1  0  0  0  0
  1  7  1  0  0  0  0
  2  9  1  0  0  0  0
  3  8  1  0  0  0  0
  3  2  2  0  0  0  0
  4  3  1  0  0  0  0
  5  4  2  0  0  0  0
  5  6  1  0  0  0  0
  6  1  2  0  0  0  0
  9 10  1  0  0  0  0
 11  9  1  0  0  0  0
 12  9  1  0  0  0  0
 13 14  1  0  0  0  0
 13  5  1  0  0  0  0
 14 15  1  0  0  0  0
 16 14  1  0  0  0  0
 17 14  1  0  0  0  0
 17 18  2  0  0  0  0
 18 19  1  0  0  0  0
 20 21  1  0  0  0  0
 20 18  1  0  0  0  0
 22 20  1  0  0  0  0
 23 22  1  0  0  0  0
 24 22  2  0  0  0  0
 24 17  1  0  0  0  0
M  END
>  <minimizedAffinity>
-4.21317196

$$$$

 OpenBabel03252505523D

 24 25  0  0  0  0  0  0  0  0999 V2000
   37.6870   26.2560   39.6390 C   0  0  0  0  0  0  0  0  0  0  0  0
   37.2160   26.0220   40.9340 C   0  0  0  0  0  0  0  0  0  0  0  0
   37.0570   27.1320   41.7630 C   0  0  0  0  0  0  0  0  0  0  0  0
   37.3520   28.3630   41.3100 N   0  0  0  0  0  0  0  0  0  0  0  0
   37.8030   28.5500   40.0540 C   0  0  0  0  0  0  0  0  0  0  0  0
   37.9760   27.5110   39.2090 N   0  0  0  0  0  0  0  0  0  0  0  0
   37.8370   25.4470   38.9310 H   0  0  0  0  0  0  0  0  0  0  0  0
   36.6950   26.9210   42.7500 H   0  0  0  0  0  0  0  0  0  0  0  0
   36.9270   24.6140   41.3160 C   0  0  0  0  0  0  0  0  0  0  0  0
   36.4360   24.6690   42.6060 F   0  0  0  0  0  0  0  0  0  0  0  0
   38.1220   23.9300   41.2900 F   0  0  0  0  0  0  0  0  0  0  0  0
   36.0150   24.1030   40.4030 F   0  0  0  0  0  0  0  0  0  0  0  0
   38.1240   29.7890   39.5290 O   0  0  0  0  0  0  0  0  0  0  0  0
   39.2760   30.4900   39.9180 C   0  0  0  0  0  0  0  0  0  0  0  0
   40.0070   29.8040   40.3580 H   0  0  0  0  0  0  0  0  0  0  0  0
   38.9630   31.2110   40.7210 H   0  0  0  0  0  0  0  0  0  0  0  0
   39.8490   31.2190   38.7610 C   0  0  0  0  0  0  0  0  0  0  0  0
   39.0250   31.6550   37.7230 C   0  0  0  0  0  0  0  0  0  0  0  0
   37.9510   31.5560   37.5830 H   0  0  0  0  0  0  0  0  0  0  0  0
   39.8000   32.2720   36.8270 N   0  0  0  0  0  0  0  0  0  0  0  0
   39.6240   32.7450   35.9160 H   0  0  0  0  0  0  0  0  0  0  0  0
   41.0690   32.2390   37.2660 C   0  0  0  0  0  0  0  0  0  0  0  0
   42.0360   32.5860   36.9220 H   0  0  0  0  0  0  0  0  0  0  0  0
   41.0850   31.5980   38.4400 N   0  0  0  0  0  0  0  0  0  0  0  0
  1  2  1  0  0  0  0
  2  9  1  0  0  0  0
  2  3  2  0  0  0  0
  3  8  1  0  0  0  0
  4  3  1  0  0  0  0
  5  4  2  0  0  0  0
  6  1  2  0  0  0  0
  6  5  1  0  0  0  0
  7  1  1  0  0  0  0
  9 10  1  0  0  0  0
 11  9  1  0  0  0  0
 12  9  1  0  0  0  0
 13 14  1  0  0  0  0
 13  5  1  0  0  0  0
 14 15  1  0  0  0  0
 14 16  1  0  0  0  0
 17 14  1  0  0  0  0
 18 17  2  0  0  0  0
 19 18  1  0  0  0  0
 20 22  1  0  0  0  0
 20 18  1  0  0  0  0
 21 20  1  0  0  0  0
 22 24  2  0  0  0  0
 23 22  1  0  0  0  0
 24 17  1  0  0  0  0
M  END
>  <minimizedAffinity>
-4.21201277

$$$$
