
 OpenBabel03252504373D

 29 31  0  0  0  0  0  0  0  0999 V2000
   45.2800   34.5900   43.0690 C   0  0  0  0  0  0  0  0  0  0  0  0
   44.1870   34.9330   42.3200 C   0  0  0  0  0  0  0  0  0  0  0  0
   44.0640   36.2580   42.5240 N   0  0  0  0  0  0  0  0  0  0  0  0
   45.0050   36.7480   43.3470 C   0  0  0  0  0  0  0  0  0  0  0  0
   45.7510   35.6860   43.6720 N   0  0  0  0  0  0  0  0  0  0  0  0
   43.5640   34.2990   41.7060 H   0  0  0  0  0  0  0  0  0  0  0  0
   43.3220   36.8740   42.1030 H   0  0  0  0  0  0  0  0  0  0  0  0
   45.1800   38.1260   43.7890 C   0  0  0  0  0  0  0  0  0  0  0  0
   45.4140   39.1950   42.9500 C   0  0  0  0  0  0  0  0  0  0  0  0
   45.5130   39.2510   41.8750 H   0  0  0  0  0  0  0  0  0  0  0  0
   45.5050   40.2430   43.7870 N   0  0  0  0  0  0  0  0  0  0  0  0
   45.6810   41.2440   43.5110 H   0  0  0  0  0  0  0  0  0  0  0  0
   45.3380   39.8790   45.0920 C   0  0  0  0  0  0  0  0  0  0  0  0
   45.3710   40.5580   45.9350 H   0  0  0  0  0  0  0  0  0  0  0  0
   45.1370   38.5500   45.0640 N   0  0  0  0  0  0  0  0  0  0  0  0
   45.8650   33.1980   43.1960 C   0  0  0  0  0  0  0  0  0  0  0  0
   46.9310   33.2390   42.9430 H   0  0  0  0  0  0  0  0  0  0  0  0
   45.3710   32.5250   42.4910 H   0  0  0  0  0  0  0  0  0  0  0  0
   46.8320   32.7040   45.4030 C   0  0  0  0  0  0  0  0  0  0  0  0
   45.7770   32.7470   44.6020 C   0  0  0  0  0  0  0  0  0  0  0  0
   46.5960   32.2360   46.7740 C   0  0  0  0  0  0  0  0  0  0  0  0
   47.5860   31.4750   47.4540 C   0  0  0  0  0  0  0  0  0  0  0  0
   47.3190   31.0610   48.7400 C   0  0  0  0  0  0  0  0  0  0  0  0
   46.1370   31.3910   49.2980 N   0  0  0  0  0  0  0  0  0  0  0  0
   45.2100   32.1160   48.6340 C   0  0  0  0  0  0  0  0  0  0  0  0
   45.4500   32.5230   47.3980 N   0  0  0  0  0  0  0  0  0  0  0  0
   48.5220   31.2430   46.9440 H   0  0  0  0  0  0  0  0  0  0  0  0
   48.0710   30.4750   49.2750 H   0  0  0  0  0  0  0  0  0  0  0  0
   44.2580   32.3890   49.0680 H   0  0  0  0  0  0  0  0  0  0  0  0
  1 16  1  0  0  0  0
  1  5  1  0  0  0  0
  2  3  1  0  0  0  0
  2  1  2  0  0  0  0
  3  4  1  0  0  0  0
  4  5  2  0  0  0  0
  4  8  1  0  0  0  0
  6  2  1  0  0  0  0
  7  3  1  0  0  0  0
  8 15  1  0  0  0  0
  9 11  1  0  0  0  0
  9  8  2  0  0  0  0
 10  9  1  0  0  0  0
 11 13  1  0  0  0  0
 12 11  1  0  0  0  0
 13 14  1  0  0  0  0
 15 13  2  0  0  0  0
 16 20  1  0  0  0  0
 17 16  1  0  0  0  0
 18 16  1  0  0  0  0
 19 21  1  0  0  0  0
 20 19  2  0  0  0  0
 21 26  2  0  0  0  0
 21 22  1  0  0  0  0
 22 23  2  0  0  0  0
 23 28  1  0  0  0  0
 23 24  1  0  0  0  0
 25 29  1  0  0  0  0
 25 24  2  0  0  0  0
 26 25  1  0  0  0  0
 27 22  1  0  0  0  0
M  END
>  <minimizedAffinity>
-3.74076915

>  <minimizedRMSD>
1.96170604

$$$$
