
 OpenBabel03252502413D

 23 24  0  0  0  0  0  0  0  0999 V2000
   47.2100   35.2790   42.3920 C   0  0  0  0  0  0  0  0  0  0  0  0
   47.6250   35.2310   43.4140 H   0  0  0  0  0  0  0  0  0  0  0  0
   47.3920   36.2880   42.0020 H   0  0  0  0  0  0  0  0  0  0  0  0
   48.1960   33.3930   39.2740 C   0  0  0  0  0  0  0  0  0  0  0  0
   47.5630   34.3390   40.1240 C   0  0  0  0  0  0  0  0  0  0  0  0
   47.8530   34.3060   41.4800 C   0  0  0  0  0  0  0  0  0  0  0  0
   48.7350   33.3630   41.9200 N   0  0  0  0  0  0  0  0  0  0  0  0
   49.3180   32.4780   41.0780 C   0  0  0  0  0  0  0  0  0  0  0  0
   49.0560   32.4870   39.7660 N   0  0  0  0  0  0  0  0  0  0  0  0
   47.9930   33.3880   38.2070 H   0  0  0  0  0  0  0  0  0  0  0  0
   46.8840   35.0440   39.6940 H   0  0  0  0  0  0  0  0  0  0  0  0
   49.9860   31.8070   41.6030 H   0  0  0  0  0  0  0  0  0  0  0  0
   45.7130   34.9900   42.4380 C   0  0  0  0  0  0  0  0  0  0  0  0
   45.4630   34.0560   41.9270 H   0  0  0  0  0  0  0  0  0  0  0  0
   45.2160   35.8110   41.8920 H   0  0  0  0  0  0  0  0  0  0  0  0
   45.3310   34.9520   43.8740 C   0  0  0  0  0  0  0  0  0  0  0  0
   44.5660   35.7930   44.6560 C   0  0  0  0  0  0  0  0  0  0  0  0
   44.1150   36.6720   44.2420 H   0  0  0  0  0  0  0  0  0  0  0  0
   44.5130   35.3240   45.9150 N   0  0  0  0  0  0  0  0  0  0  0  0
   44.0150   35.7390   46.7250 H   0  0  0  0  0  0  0  0  0  0  0  0
   45.2540   34.1810   45.9010 C   0  0  0  0  0  0  0  0  0  0  0  0
   45.4220   33.5350   46.7770 H   0  0  0  0  0  0  0  0  0  0  0  0
   45.7610   33.9350   44.6710 N   0  0  0  0  0  0  0  0  0  0  0  0
  1 13  1  0  0  0  0
  1  2  1  0  0  0  0
  3  1  1  0  0  0  0
  4  9  2  0  0  0  0
  4  5  1  0  0  0  0
  5  6  2  0  0  0  0
  6  7  1  0  0  0  0
  6  1  1  0  0  0  0
  8 12  1  0  0  0  0
  8  7  2  0  0  0  0
  9  8  1  0  0  0  0
 10  4  1  0  0  0  0
 11  5  1  0  0  0  0
 13 16  1  0  0  0  0
 14 13  1  0  0  0  0
 15 13  1  0  0  0  0
 16 17  2  0  0  0  0
 16 23  1  0  0  0  0
 17 19  1  0  0  0  0
 18 17  1  0  0  0  0
 19 20  1  0  0  0  0
 21 19  1  0  0  0  0
 21 22  1  0  0  0  0
 23 21  2  0  0  0  0
M  END
>  <minimizedAffinity>
-4.13011408

>  <minimizedRMSD>
5.79361153

$$$$
