
 OpenBabel03252508203D

 33 35  0  0  0  0  0  0  0  0999 V2000
   40.7330   32.7920   39.4730 C   0  0  0  0  0  0  0  0  0  0  0  0
   40.9360   34.0530   40.0250 C   0  0  0  0  0  0  0  0  0  0  0  0
   39.9690   35.0320   40.1920 C   0  0  0  0  0  0  0  0  0  0  0  0
   38.7040   34.6850   39.7570 C   0  0  0  0  0  0  0  0  0  0  0  0
   38.4790   33.4480   39.2100 C   0  0  0  0  0  0  0  0  0  0  0  0
   39.4540   32.4770   39.0490 C   0  0  0  0  0  0  0  0  0  0  0  0
   41.9700   34.2530   40.3460 H   0  0  0  0  0  0  0  0  0  0  0  0
   40.2990   35.9520   40.6380 H   0  0  0  0  0  0  0  0  0  0  0  0
   37.9470   35.4410   39.8840 H   0  0  0  0  0  0  0  0  0  0  0  0
   37.4350   33.3380   38.9210 H   0  0  0  0  0  0  0  0  0  0  0  0
   38.9810   31.2480   38.4420 C   0  0  0  0  0  0  0  0  0  0  0  0
   38.3800   30.1080   38.8960 C   0  0  0  0  0  0  0  0  0  0  0  0
   38.1260   29.8940   39.9120 H   0  0  0  0  0  0  0  0  0  0  0  0
   38.0900   29.2260   37.9650 N   0  0  0  0  0  0  0  0  0  0  0  0
   37.6440   28.2970   38.0190 H   0  0  0  0  0  0  0  0  0  0  0  0
   38.5150   29.7970   36.8290 C   0  0  0  0  0  0  0  0  0  0  0  0
   38.4980   29.4620   35.7960 H   0  0  0  0  0  0  0  0  0  0  0  0
   39.0370   30.9890   37.1350 N   0  0  0  0  0  0  0  0  0  0  0  0
   41.7930   31.8070   39.3040 C   0  0  0  0  0  0  0  0  0  0  0  0
   41.5510   31.2040   38.4010 H   0  0  0  0  0  0  0  0  0  0  0  0
   41.9470   31.1480   40.1630 H   0  0  0  0  0  0  0  0  0  0  0  0
   43.1300   32.4730   38.9180 C   0  0  0  0  0  0  0  0  0  0  0  0
   42.9400   33.5440   38.8200 H   0  0  0  0  0  0  0  0  0  0  0  0
   43.9200   32.2190   39.6440 H   0  0  0  0  0  0  0  0  0  0  0  0
   43.1240   30.5770   35.6450 C   0  0  0  0  0  0  0  0  0  0  0  0
   42.6820   31.0570   36.9060 C   0  0  0  0  0  0  0  0  0  0  0  0
   43.5230   31.9250   37.5900 C   0  0  0  0  0  0  0  0  0  0  0  0
   44.7180   32.2480   36.9860 N   0  0  0  0  0  0  0  0  0  0  0  0
   45.1010   31.7820   35.8070 C   0  0  0  0  0  0  0  0  0  0  0  0
   44.3120   30.9450   35.1260 N   0  0  0  0  0  0  0  0  0  0  0  0
   42.4050   29.9010   35.1770 H   0  0  0  0  0  0  0  0  0  0  0  0
   41.7290   30.7620   37.3230 H   0  0  0  0  0  0  0  0  0  0  0  0
   46.0570   32.0960   35.4210 H   0  0  0  0  0  0  0  0  0  0  0  0
  1  2  1  0  0  0  0
  2  3  2  0  0  0  0
  2  7  1  0  0  0  0
  3  8  1  0  0  0  0
  4  9  1  0  0  0  0
  4  3  1  0  0  0  0
  5  4  2  0  0  0  0
  6  5  1  0  0  0  0
  6  1  2  0  0  0  0
 10  5  1  0  0  0  0
 11 12  2  0  0  0  0
 11  6  1  0  0  0  0
 12 13  1  0  0  0  0
 14 15  1  0  0  0  0
 14 12  1  0  0  0  0
 16 18  2  0  0  0  0
 16 14  1  0  0  0  0
 17 16  1  0  0  0  0
 18 11  1  0  0  0  0
 19  1  1  0  0  0  0
 19 21  1  0  0  0  0
 20 19  1  0  0  0  0
 22 19  1  0  0  0  0
 22 24  1  0  0  0  0
 23 22  1  0  0  0  0
 25 26  1  0  0  0  0
 26 32  1  0  0  0  0
 26 27  2  0  0  0  0
 27 22  1  0  0  0  0
 28 27  1  0  0  0  0
 29 28  2  0  0  0  0
 30 25  2  0  0  0  0
 30 29  1  0  0  0  0
 31 25  1  0  0  0  0
 33 29  1  0  0  0  0
M  END
>  <minimizedAffinity>
-3.56280255

>  <minimizedRMSD>
8.60414886

$$$$
