
 OpenBabel03252507563D

 43 46  0  0  1  0  0  0  0  0999 V2000
   37.4950   28.6830   42.4590 C   0  0  2  0  0  0  0  0  0  0  0  0
   36.8360   27.6850   41.5070 C   0  0  0  0  0  0  0  0  0  0  0  0
   35.6440   28.5570   41.0700 C   0  0  0  0  0  0  0  0  0  0  0  0
   36.1860   29.9520   41.0150 C   0  0  1  0  0  0  0  0  0  0  0  0
   37.5880   29.8710   41.5440 C   0  0  0  0  0  0  0  0  0  0  0  0
   36.8020   28.7920   43.2910 H   0  0  0  0  0  0  0  0  0  0  0  0
   36.4600   26.8400   42.1100 H   0  0  0  0  0  0  0  0  0  0  0  0
   37.4850   27.4110   40.6700 H   0  0  0  0  0  0  0  0  0  0  0  0
   34.8040   28.4310   41.7730 H   0  0  0  0  0  0  0  0  0  0  0  0
   35.3670   28.2500   40.0240 H   0  0  0  0  0  0  0  0  0  0  0  0
   35.5840   30.6570   41.6410 H   0  0  0  0  0  0  0  0  0  0  0  0
   38.3330   29.6900   40.7700 H   0  0  0  0  0  0  0  0  0  0  0  0
   37.8120   30.7990   42.1160 H   0  0  0  0  0  0  0  0  0  0  0  0
   41.2080   28.3250   42.9760 C   0  0  0  0  0  0  0  0  0  0  0  0
   40.0100   28.8790   42.5410 C   0  0  0  0  0  0  0  0  0  0  0  0
   38.8400   28.2020   42.8860 C   0  0  0  0  0  0  0  0  0  0  0  0
   38.8990   27.0190   43.6380 N   0  0  0  0  0  0  0  0  0  0  0  0
   40.1030   26.5310   44.0310 C   0  0  0  0  0  0  0  0  0  0  0  0
   41.2420   27.1840   43.6990 N   0  0  0  0  0  0  0  0  0  0  0  0
   42.1230   28.8420   42.7140 H   0  0  0  0  0  0  0  0  0  0  0  0
   39.9450   29.7810   41.9660 H   0  0  0  0  0  0  0  0  0  0  0  0
   40.0690   25.6220   44.6030 H   0  0  0  0  0  0  0  0  0  0  0  0
   36.2700   30.5360   39.6220 C   0  0  2  0  0  0  0  0  0  0  0  0
   35.8550   29.6550   38.5390 C   0  0  0  0  0  0  0  0  0  0  0  0
   37.2820   30.0850   38.6660 C   0  0  1  0  0  0  0  0  0  0  0  0
   35.9660   31.5970   39.5720 H   0  0  0  0  0  0  0  0  0  0  0  0
   35.6590   28.5710   38.7580 H   0  0  0  0  0  0  0  0  0  0  0  0
   35.2550   29.9950   37.6700 H   0  0  0  0  0  0  0  0  0  0  0  0
   38.0800   29.4530   39.0780 H   0  0  0  0  0  0  0  0  0  0  0  0
   37.7550   31.0310   37.7230 O   0  0  0  0  0  0  0  0  0  0  0  0
   40.0920   29.8830   37.5960 O   0  0  0  0  0  0  0  0  0  0  0  0
   39.4160   31.1900   37.9290 P   0  0  1  0  0  0  0  0  0  0  0  0
   40.0290   32.3730   36.8460 O   0  0  0  0  0  0  0  0  0  0  0  0
   39.5130   32.3190   36.0050 H   0  0  0  0  0  0  0  0  0  0  0  0
   39.8830   31.6540   39.4540 O   0  0  0  0  0  0  0  0  0  0  0  0
   39.7310   32.9620   39.9120 C   0  0  0  0  0  0  0  0  0  0  0  0
   38.8120   33.1400   40.9480 C   0  0  0  0  0  0  0  0  0  0  0  0
   38.1410   32.5100   41.5370 H   0  0  0  0  0  0  0  0  0  0  0  0
   38.8320   34.4700   41.2230 N   0  0  0  0  0  0  0  0  0  0  0  0
   38.2920   35.0330   41.9350 H   0  0  0  0  0  0  0  0  0  0  0  0
   39.7050   35.0980   40.4160 C   0  0  0  0  0  0  0  0  0  0  0  0
   39.9920   36.1370   40.3350 H   0  0  0  0  0  0  0  0  0  0  0  0
   40.2500   34.1680   39.6160 N   0  0  0  0  0  0  0  0  0  0  0  0
  1 16  1  0  0  0  0
  1  6  1  1  0  0  0
  2  7  1  0  0  0  0
  2  1  1  0  0  0  0
  3  2  1  0  0  0  0
  3  9  1  0  0  0  0
  4  3  1  0  0  0  0
  4  5  1  0  0  0  0
  4 11  1  1  0  0  0
  5 13  1  0  0  0  0
  5  1  1  0  0  0  0
  8  2  1  0  0  0  0
 10  3  1  0  0  0  0
 12  5  1  0  0  0  0
 14 19  1  0  0  0  0
 15 16  1  0  0  0  0
 15 14  2  0  0  0  0
 16 17  2  0  0  0  0
 17 18  1  0  0  0  0
 18 22  1  0  0  0  0
 19 18  2  0  0  0  0
 20 14  1  0  0  0  0
 21 15  1  0  0  0  0
 23 26  1  6  0  0  0
 23  4  1  0  0  0  0
 24 25  1  0  0  0  0
 24 27  1  0  0  0  0
 24 23  1  0  0  0  0
 25 29  1  1  0  0  0
 25 23  1  0  0  0  0
 28 24  1  0  0  0  0
 30 32  1  0  0  0  0
 30 25  1  0  0  0  0
 32 31  2  6  0  0  0
 32 35  1  0  0  0  0
 33 32  1  0  0  0  0
 34 33  1  0  0  0  0
 35 36  1  0  0  0  0
 36 37  2  0  0  0  0
 37 39  1  0  0  0  0
 37 38  1  0  0  0  0
 39 40  1  0  0  0  0
 41 39  1  0  0  0  0
 42 41  1  0  0  0  0
 43 36  1  0  0  0  0
 43 41  2  0  0  0  0
M  END
>  <minimizedAffinity>
-6.29855728

$$$$

 OpenBabel03252507563D

 43 46  0  0  1  0  0  0  0  0999 V2000
   36.6790   28.5930   41.9700 C   0  0  2  0  0  0  0  0  0  0  0  0
   36.0640   28.1640   40.6370 C   0  0  0  0  0  0  0  0  0  0  0  0
   35.3190   29.4710   40.3120 C   0  0  0  0  0  0  0  0  0  0  0  0
   36.2090   30.5620   40.8240 C   0  0  1  0  0  0  0  0  0  0  0  0
   37.3360   29.8730   41.5360 C   0  0  0  0  0  0  0  0  0  0  0  0
   35.8410   28.7110   42.6520 H   0  0  0  0  0  0  0  0  0  0  0  0
   35.3250   27.3710   40.8470 H   0  0  0  0  0  0  0  0  0  0  0  0
   36.8200   27.9130   39.8870 H   0  0  0  0  0  0  0  0  0  0  0  0
   34.3160   29.4600   40.7710 H   0  0  0  0  0  0  0  0  0  0  0  0
   35.2680   29.5610   39.1920 H   0  0  0  0  0  0  0  0  0  0  0  0
   35.6700   31.2400   41.5320 H   0  0  0  0  0  0  0  0  0  0  0  0
   38.1880   29.6580   40.8920 H   0  0  0  0  0  0  0  0  0  0  0  0
   37.6350   30.4870   42.4160 H   0  0  0  0  0  0  0  0  0  0  0  0
   39.5890   26.9160   43.6750 C   0  0  0  0  0  0  0  0  0  0  0  0
   38.7060   27.9300   43.3190 C   0  0  0  0  0  0  0  0  0  0  0  0
   37.6750   27.5890   42.4440 C   0  0  0  0  0  0  0  0  0  0  0  0
   37.5550   26.2770   41.9620 N   0  0  0  0  0  0  0  0  0  0  0  0
   38.4520   25.3340   42.3500 C   0  0  0  0  0  0  0  0  0  0  0  0
   39.4560   25.6590   43.1980 N   0  0  0  0  0  0  0  0  0  0  0  0
   40.3940   27.1690   44.3540 H   0  0  0  0  0  0  0  0  0  0  0  0
   38.7820   28.9370   43.6760 H   0  0  0  0  0  0  0  0  0  0  0  0
   38.2970   24.3530   41.9390 H   0  0  0  0  0  0  0  0  0  0  0  0
   36.8260   31.4240   39.7440 C   0  0  2  0  0  0  0  0  0  0  0  0
   37.5240   30.7100   38.6840 C   0  0  0  0  0  0  0  0  0  0  0  0
   38.2760   31.5860   39.6360 C   0  0  1  0  0  0  0  0  0  0  0  0
   36.1980   32.2870   39.4600 H   0  0  0  0  0  0  0  0  0  0  0  0
   37.7130   29.6080   38.7970 H   0  0  0  0  0  0  0  0  0  0  0  0
   37.4600   30.9900   37.6130 H   0  0  0  0  0  0  0  0  0  0  0  0
   38.8640   31.2120   40.4840 H   0  0  0  0  0  0  0  0  0  0  0  0
   38.7570   32.8200   39.1300 O   0  0  0  0  0  0  0  0  0  0  0  0
   38.7340   34.8720   40.7380 O   0  0  0  0  0  0  0  0  0  0  0  0
   39.5240   33.6360   40.3830 P   0  0  1  0  0  0  0  0  0  0  0  0
   39.5750   32.6430   41.7830 O   0  0  0  0  0  0  0  0  0  0  0  0
   38.7460   32.1070   41.8110 H   0  0  0  0  0  0  0  0  0  0  0  0
   41.0910   34.0840   40.0600 O   0  0  0  0  0  0  0  0  0  0  0  0
   41.7160   33.7790   38.8510 C   0  0  0  0  0  0  0  0  0  0  0  0
   42.0940   34.8730   38.0700 C   0  0  0  0  0  0  0  0  0  0  0  0
   42.0370   35.9620   38.1400 H   0  0  0  0  0  0  0  0  0  0  0  0
   42.6720   34.3410   36.9620 N   0  0  0  0  0  0  0  0  0  0  0  0
   43.0960   34.8090   36.1160 H   0  0  0  0  0  0  0  0  0  0  0  0
   42.6640   32.9980   37.0320 C   0  0  0  0  0  0  0  0  0  0  0  0
   43.0250   32.2380   36.3540 H   0  0  0  0  0  0  0  0  0  0  0  0
   42.0760   32.6620   38.1910 N   0  0  0  0  0  0  0  0  0  0  0  0
  1 16  1  0  0  0  0
  1  6  1  1  0  0  0
  2  7  1  0  0  0  0
  2  1  1  0  0  0  0
  3  2  1  0  0  0  0
  3  9  1  0  0  0  0
  3  4  1  0  0  0  0
  4 11  1  1  0  0  0
  4  5  1  0  0  0  0
  5  1  1  0  0  0  0
  5 13  1  0  0  0  0
  8  2  1  0  0  0  0
 10  3  1  0  0  0  0
 12  5  1  0  0  0  0
 14 20  1  0  0  0  0
 15 14  1  0  0  0  0
 15 21  1  0  0  0  0
 16 15  2  0  0  0  0
 17 18  2  0  0  0  0
 17 16  1  0  0  0  0
 18 19  1  0  0  0  0
 19 14  2  0  0  0  0
 22 18  1  0  0  0  0
 23 26  1  6  0  0  0
 23  4  1  0  0  0  0
 24 27  1  0  0  0  0
 24 25  1  0  0  0  0
 24 23  1  0  0  0  0
 25 23  1  0  0  0  0
 25 29  1  1  0  0  0
 28 24  1  0  0  0  0
 30 25  1  0  0  0  0
 30 32  1  0  0  0  0
 32 31  2  1  0  0  0
 32 33  1  0  0  0  0
 33 34  1  0  0  0  0
 35 32  1  0  0  0  0
 36 35  1  0  0  0  0
 37 38  1  0  0  0  0
 37 36  2  0  0  0  0
 39 41  1  0  0  0  0
 39 37  1  0  0  0  0
 40 39  1  0  0  0  0
 41 43  2  0  0  0  0
 42 41  1  0  0  0  0
 43 36  1  0  0  0  0
M  END
>  <minimizedAffinity>
-6.29172039

$$$$

 OpenBabel03252507563D

 43 46  0  0  1  0  0  0  0  0999 V2000
   36.6630   28.4680   41.9090 C   0  0  2  0  0  0  0  0  0  0  0  0
   36.2070   28.1820   40.4780 C   0  0  0  0  0  0  0  0  0  0  0  0
   35.3790   29.4610   40.2550 C   0  0  0  0  0  0  0  0  0  0  0  0
   36.1210   30.5350   40.9900 C   0  0  1  0  0  0  0  0  0  0  0  0
   37.2380   29.8420   41.7130 C   0  0  0  0  0  0  0  0  0  0  0  0
   35.7610   28.4260   42.5160 H   0  0  0  0  0  0  0  0  0  0  0  0
   35.5250   27.3140   40.5080 H   0  0  0  0  0  0  0  0  0  0  0  0
   37.0440   28.0960   39.7800 H   0  0  0  0  0  0  0  0  0  0  0  0
   34.3450   29.3100   40.6070 H   0  0  0  0  0  0  0  0  0  0  0  0
   35.4180   29.7010   39.1570 H   0  0  0  0  0  0  0  0  0  0  0  0
   35.4640   31.0660   41.7240 H   0  0  0  0  0  0  0  0  0  0  0  0
   38.1590   29.7840   41.1340 H   0  0  0  0  0  0  0  0  0  0  0  0
   37.4040   30.3490   42.6910 H   0  0  0  0  0  0  0  0  0  0  0  0
   38.6650   25.3220   42.4350 C   0  0  0  0  0  0  0  0  0  0  0  0
   37.6590   26.1500   41.9500 C   0  0  0  0  0  0  0  0  0  0  0  0
   37.6980   27.4870   42.3440 C   0  0  0  0  0  0  0  0  0  0  0  0
   38.7160   27.9500   43.1910 N   0  0  0  0  0  0  0  0  0  0  0  0
   39.6690   27.0870   43.6300 C   0  0  0  0  0  0  0  0  0  0  0  0
   39.6360   25.7880   43.2510 N   0  0  0  0  0  0  0  0  0  0  0  0
   38.6450   24.2820   42.1360 H   0  0  0  0  0  0  0  0  0  0  0  0
   36.8740   25.8150   41.3030 H   0  0  0  0  0  0  0  0  0  0  0  0
   40.4150   27.5130   44.2750 H   0  0  0  0  0  0  0  0  0  0  0  0
   36.7500   31.5830   40.0980 C   0  0  2  0  0  0  0  0  0  0  0  0
   36.8580   31.2340   38.6890 C   0  0  0  0  0  0  0  0  0  0  0  0
   38.0850   31.3960   39.5290 C   0  0  1  0  0  0  0  0  0  0  0  0
   36.4500   32.6140   40.3550 H   0  0  0  0  0  0  0  0  0  0  0  0
   36.6340   30.1820   38.3650 H   0  0  0  0  0  0  0  0  0  0  0  0
   36.6590   31.9500   37.8650 H   0  0  0  0  0  0  0  0  0  0  0  0
   38.6660   30.5580   39.9370 H   0  0  0  0  0  0  0  0  0  0  0  0
   38.8670   32.5570   39.3080 O   0  0  0  0  0  0  0  0  0  0  0  0
   40.4960   30.6140   38.7060 O   0  0  0  0  0  0  0  0  0  0  0  0
   40.2800   32.0960   38.5240 P   0  0  1  0  0  0  0  0  0  0  0  0
   40.1340   32.3860   36.8380 O   0  0  0  0  0  0  0  0  0  0  0  0
   39.1980   32.2160   36.5740 H   0  0  0  0  0  0  0  0  0  0  0  0
   41.6450   32.8960   39.0290 O   0  0  0  0  0  0  0  0  0  0  0  0
   42.8320   32.8730   38.2980 C   0  0  0  0  0  0  0  0  0  0  0  0
   43.1650   34.0630   37.6450 C   0  0  0  0  0  0  0  0  0  0  0  0
   42.7370   35.0620   37.5400 H   0  0  0  0  0  0  0  0  0  0  0  0
   44.3390   33.8080   37.0100 N   0  0  0  0  0  0  0  0  0  0  0  0
   44.9400   34.4280   36.4030 H   0  0  0  0  0  0  0  0  0  0  0  0
   44.7270   32.5410   37.2410 C   0  0  0  0  0  0  0  0  0  0  0  0
   45.5900   31.9800   36.9120 H   0  0  0  0  0  0  0  0  0  0  0  0
   43.7990   31.9760   38.0300 N   0  0  0  0  0  0  0  0  0  0  0  0
  1 16  1  0  0  0  0
  1  6  1  1  0  0  0
  2  7  1  0  0  0  0
  2  1  1  0  0  0  0
  3  2  1  0  0  0  0
  3  9  1  0  0  0  0
  3  4  1  0  0  0  0
  4  5  1  0  0  0  0
  4 11  1  1  0  0  0
  5  1  1  0  0  0  0
  5 13  1  0  0  0  0
  8  2  1  0  0  0  0
 10  3  1  0  0  0  0
 12  5  1  0  0  0  0
 14 19  1  0  0  0  0
 15 16  1  0  0  0  0
 15 14  2  0  0  0  0
 16 17  2  0  0  0  0
 17 18  1  0  0  0  0
 18 22  1  0  0  0  0
 19 18  2  0  0  0  0
 20 14  1  0  0  0  0
 21 15  1  0  0  0  0
 23 26  1  1  0  0  0
 23  4  1  0  0  0  0
 24 25  1  0  0  0  0
 24 23  1  0  0  0  0
 25 29  1  1  0  0  0
 25 23  1  0  0  0  0
 27 24  1  0  0  0  0
 28 24  1  0  0  0  0
 30 25  1  0  0  0  0
 32 31  2  1  0  0  0
 32 35  1  0  0  0  0
 32 30  1  0  0  0  0
 33 32  1  0  0  0  0
 34 33  1  0  0  0  0
 36 35  1  0  0  0  0
 37 36  2  0  0  0  0
 38 37  1  0  0  0  0
 39 41  1  0  0  0  0
 39 37  1  0  0  0  0
 40 39  1  0  0  0  0
 41 43  2  0  0  0  0
 42 41  1  0  0  0  0
 43 36  1  0  0  0  0
M  END
>  <minimizedAffinity>
-6.06534481

$$$$

 OpenBabel03252507563D

 43 46  0  0  1  0  0  0  0  0999 V2000
   39.0760   26.9060   43.5450 C   0  0  2  0  0  0  0  0  0  0  0  0
   38.7990   26.0710   42.2950 C   0  0  0  0  0  0  0  0  0  0  0  0
   37.2610   26.0610   42.3780 C   0  0  0  0  0  0  0  0  0  0  0  0
   36.8950   27.4100   42.9150 C   0  0  1  0  0  0  0  0  0  0  0  0
   38.1920   28.0850   43.2540 C   0  0  0  0  0  0  0  0  0  0  0  0
   38.7630   26.2880   44.3830 H   0  0  0  0  0  0  0  0  0  0  0  0
   39.1750   25.0490   42.4810 H   0  0  0  0  0  0  0  0  0  0  0  0
   39.1680   26.5460   41.3810 H   0  0  0  0  0  0  0  0  0  0  0  0
   36.9210   25.2220   43.0060 H   0  0  0  0  0  0  0  0  0  0  0  0
   36.8670   25.9870   41.3270 H   0  0  0  0  0  0  0  0  0  0  0  0
   36.2560   27.3330   43.8310 H   0  0  0  0  0  0  0  0  0  0  0  0
   38.6030   28.6690   42.4310 H   0  0  0  0  0  0  0  0  0  0  0  0
   38.0460   28.7100   44.1640 H   0  0  0  0  0  0  0  0  0  0  0  0
   42.3710   28.6730   43.0860 C   0  0  0  0  0  0  0  0  0  0  0  0
   41.0080   28.4240   42.9660 C   0  0  0  0  0  0  0  0  0  0  0  0
   40.5140   27.2930   43.6180 C   0  0  0  0  0  0  0  0  0  0  0  0
   41.3750   26.4640   44.3530 N   0  0  0  0  0  0  0  0  0  0  0  0
   42.6960   26.7660   44.4290 C   0  0  0  0  0  0  0  0  0  0  0  0
   43.1820   27.8610   43.7990 N   0  0  0  0  0  0  0  0  0  0  0  0
   42.7650   29.5480   42.5840 H   0  0  0  0  0  0  0  0  0  0  0  0
   40.3360   29.0450   42.4090 H   0  0  0  0  0  0  0  0  0  0  0  0
   43.2920   26.0850   45.0090 H   0  0  0  0  0  0  0  0  0  0  0  0
   36.1740   28.3020   41.9280 C   0  0  2  0  0  0  0  0  0  0  0  0
   36.4680   28.0600   40.5230 C   0  0  0  0  0  0  0  0  0  0  0  0
   36.8840   29.3380   41.1780 C   0  0  1  0  0  0  0  0  0  0  0  0
   35.1260   28.5100   42.2100 H   0  0  0  0  0  0  0  0  0  0  0  0
   37.3080   27.3660   40.2500 H   0  0  0  0  0  0  0  0  0  0  0  0
   35.6970   28.0780   39.7250 H   0  0  0  0  0  0  0  0  0  0  0  0
   37.9070   29.5540   41.5120 H   0  0  0  0  0  0  0  0  0  0  0  0
   36.1570   30.5050   40.8320 O   0  0  0  0  0  0  0  0  0  0  0  0
   36.8580   31.3240   38.4590 O   0  0  0  0  0  0  0  0  0  0  0  0
   37.1640   31.4990   39.9260 P   0  0  1  0  0  0  0  0  0  0  0  0
   36.8660   33.1450   40.3160 O   0  0  0  0  0  0  0  0  0  0  0  0
   35.9030   33.2480   40.5040 H   0  0  0  0  0  0  0  0  0  0  0  0
   38.7880   31.2400   40.1610 O   0  0  0  0  0  0  0  0  0  0  0  0
   39.6860   32.2890   40.3540 C   0  0  0  0  0  0  0  0  0  0  0  0
   40.7560   32.0220   41.2120 C   0  0  0  0  0  0  0  0  0  0  0  0
   41.1090   31.1780   41.8090 H   0  0  0  0  0  0  0  0  0  0  0  0
   41.4850   33.1680   41.2450 N   0  0  0  0  0  0  0  0  0  0  0  0
   42.3720   33.4030   41.7670 H   0  0  0  0  0  0  0  0  0  0  0  0
   40.9190   34.1030   40.4610 C   0  0  0  0  0  0  0  0  0  0  0  0
   41.2000   35.1210   40.2360 H   0  0  0  0  0  0  0  0  0  0  0  0
   39.8180   33.5560   39.9200 N   0  0  0  0  0  0  0  0  0  0  0  0
  1 16  1  0  0  0  0
  1  6  1  1  0  0  0
  2  3  1  0  0  0  0
  2  7  1  0  0  0  0
  2  1  1  0  0  0  0
  3  4  1  0  0  0  0
  3  9  1  0  0  0  0
  4  5  1  0  0  0  0
  4 11  1  1  0  0  0
  5  1  1  0  0  0  0
  5 13  1  0  0  0  0
  8  2  1  0  0  0  0
 10  3  1  0  0  0  0
 12  5  1  0  0  0  0
 14 19  1  0  0  0  0
 15 14  2  0  0  0  0
 15 16  1  0  0  0  0
 16 17  2  0  0  0  0
 17 18  1  0  0  0  0
 18 22  1  0  0  0  0
 19 18  2  0  0  0  0
 20 14  1  0  0  0  0
 21 15  1  0  0  0  0
 23 26  1  1  0  0  0
 23  4  1  0  0  0  0
 24 25  1  0  0  0  0
 24 23  1  0  0  0  0
 25 29  1  1  0  0  0
 25 23  1  0  0  0  0
 27 24  1  0  0  0  0
 28 24  1  0  0  0  0
 30 25  1  0  0  0  0
 32 31  2  6  0  0  0
 32 35  1  0  0  0  0
 32 33  1  0  0  0  0
 32 30  1  0  0  0  0
 33 34  1  0  0  0  0
 35 36  1  0  0  0  0
 36 37  2  0  0  0  0
 37 39  1  0  0  0  0
 37 38  1  0  0  0  0
 39 40  1  0  0  0  0
 41 39  1  0  0  0  0
 42 41  1  0  0  0  0
 43 36  1  0  0  0  0
 43 41  2  0  0  0  0
M  END
>  <minimizedAffinity>
-6.05412054

$$$$

 OpenBabel03252507563D

 43 46  0  0  1  0  0  0  0  0999 V2000
   39.1890   27.4750   43.5860 C   0  0  2  0  0  0  0  0  0  0  0  0
   37.9390   26.6700   43.2290 C   0  0  0  0  0  0  0  0  0  0  0  0
   36.8940   27.7750   43.4730 C   0  0  0  0  0  0  0  0  0  0  0  0
   37.5600   29.0420   43.0340 C   0  0  1  0  0  0  0  0  0  0  0  0
   38.9750   28.6680   42.6980 C   0  0  0  0  0  0  0  0  0  0  0  0
   39.1120   27.6730   44.6530 H   0  0  0  0  0  0  0  0  0  0  0  0
   37.8140   25.8830   43.9940 H   0  0  0  0  0  0  0  0  0  0  0  0
   37.9470   26.3200   42.1930 H   0  0  0  0  0  0  0  0  0  0  0  0
   36.5830   27.7750   44.5300 H   0  0  0  0  0  0  0  0  0  0  0  0
   36.0290   27.5790   42.7800 H   0  0  0  0  0  0  0  0  0  0  0  0
   37.5530   29.8160   43.8420 H   0  0  0  0  0  0  0  0  0  0  0  0
   39.1120   28.3880   41.6540 H   0  0  0  0  0  0  0  0  0  0  0  0
   39.6470   29.5070   42.9860 H   0  0  0  0  0  0  0  0  0  0  0  0
   42.5870   25.8540   43.6720 C   0  0  0  0  0  0  0  0  0  0  0  0
   41.4730   26.5500   44.1290 C   0  0  0  0  0  0  0  0  0  0  0  0
   40.4260   26.7260   43.2240 C   0  0  0  0  0  0  0  0  0  0  0  0
   40.5170   26.2130   41.9210 N   0  0  0  0  0  0  0  0  0  0  0  0
   41.6350   25.5420   41.5400 C   0  0  0  0  0  0  0  0  0  0  0  0
   42.6550   25.3690   42.4130 N   0  0  0  0  0  0  0  0  0  0  0  0
   43.4060   25.7110   44.3650 H   0  0  0  0  0  0  0  0  0  0  0  0
   41.3860   26.9490   45.1190 H   0  0  0  0  0  0  0  0  0  0  0  0
   41.6330   25.1800   40.5280 H   0  0  0  0  0  0  0  0  0  0  0  0
   36.9600   29.6680   41.7940 C   0  0  2  0  0  0  0  0  0  0  0  0
   37.6210   29.3470   40.5370 C   0  0  0  0  0  0  0  0  0  0  0  0
   37.6450   30.7420   41.0760 C   0  0  1  0  0  0  0  0  0  0  0  0
   35.8560   29.6930   41.8070 H   0  0  0  0  0  0  0  0  0  0  0  0
   38.6070   28.8090   40.5580 H   0  0  0  0  0  0  0  0  0  0  0  0
   37.0740   29.1310   39.5970 H   0  0  0  0  0  0  0  0  0  0  0  0
   38.5060   31.1890   41.5900 H   0  0  0  0  0  0  0  0  0  0  0  0
   36.8380   31.7010   40.4140 O   0  0  0  0  0  0  0  0  0  0  0  0
   38.6250   32.3130   38.6170 O   0  0  0  0  0  0  0  0  0  0  0  0
   37.8460   32.8850   39.7760 P   0  0  1  0  0  0  0  0  0  0  0  0
   36.9070   34.1870   39.1670 O   0  0  0  0  0  0  0  0  0  0  0  0
   36.0740   33.8170   38.7890 H   0  0  0  0  0  0  0  0  0  0  0  0
   38.9200   33.5380   40.8620 O   0  0  0  0  0  0  0  0  0  0  0  0
   40.2470   33.8010   40.5270 C   0  0  0  0  0  0  0  0  0  0  0  0
   40.5010   35.0710   40.0030 C   0  0  0  0  0  0  0  0  0  0  0  0
   39.9230   35.9680   39.7680 H   0  0  0  0  0  0  0  0  0  0  0  0
   41.8360   35.0980   39.7560 N   0  0  0  0  0  0  0  0  0  0  0  0
   42.4460   35.8630   39.3590 H   0  0  0  0  0  0  0  0  0  0  0  0
   42.3970   33.9250   40.0980 C   0  0  0  0  0  0  0  0  0  0  0  0
   43.4170   33.5710   40.0490 H   0  0  0  0  0  0  0  0  0  0  0  0
   41.4170   33.1370   40.5690 N   0  0  0  0  0  0  0  0  0  0  0  0
  1  6  1  1  0  0  0
  2  3  1  0  0  0  0
  2  1  1  0  0  0  0
  2  7  1  0  0  0  0
  3  9  1  0  0  0  0
  4  3  1  0  0  0  0
  4 11  1  1  0  0  0
  5 13  1  0  0  0  0
  5  4  1  0  0  0  0
  5  1  1  0  0  0  0
  8  2  1  0  0  0  0
 10  3  1  0  0  0  0
 12  5  1  0  0  0  0
 14 15  1  0  0  0  0
 14 20  1  0  0  0  0
 15 21  1  0  0  0  0
 16  1  1  0  0  0  0
 16 15  2  0  0  0  0
 17 16  1  0  0  0  0
 18 17  2  0  0  0  0
 18 19  1  0  0  0  0
 19 14  2  0  0  0  0
 22 18  1  0  0  0  0
 23 26  1  6  0  0  0
 23  4  1  0  0  0  0
 24 27  1  0  0  0  0
 24 25  1  0  0  0  0
 24 23  1  0  0  0  0
 25 29  1  1  0  0  0
 25 23  1  0  0  0  0
 28 24  1  0  0  0  0
 30 25  1  0  0  0  0
 32 31  2  6  0  0  0
 32 30  1  0  0  0  0
 32 35  1  0  0  0  0
 33 32  1  0  0  0  0
 34 33  1  0  0  0  0
 36 43  1  0  0  0  0
 36 35  1  0  0  0  0
 37 36  2  0  0  0  0
 38 37  1  0  0  0  0
 39 37  1  0  0  0  0
 39 41  1  0  0  0  0
 40 39  1  0  0  0  0
 41 43  2  0  0  0  0
 42 41  1  0  0  0  0
M  END
>  <minimizedAffinity>
-5.91546249

$$$$

 OpenBabel03252507563D

 43 46  0  0  1  0  0  0  0  0999 V2000
   36.7890   28.4870   41.9990 C   0  0  2  0  0  0  0  0  0  0  0  0
   36.1890   28.1970   40.6230 C   0  0  0  0  0  0  0  0  0  0  0  0
   35.4360   29.5260   40.4320 C   0  0  0  0  0  0  0  0  0  0  0  0
   36.3120   30.5620   41.0640 C   0  0  1  0  0  0  0  0  0  0  0  0
   37.4390   29.8100   41.7100 C   0  0  0  0  0  0  0  0  0  0  0  0
   35.9440   28.5250   42.6820 H   0  0  0  0  0  0  0  0  0  0  0  0
   35.4550   27.3810   40.7400 H   0  0  0  0  0  0  0  0  0  0  0  0
   36.9540   28.0330   39.8580 H   0  0  0  0  0  0  0  0  0  0  0  0
   34.4290   29.4580   40.8760 H   0  0  0  0  0  0  0  0  0  0  0  0
   35.3940   29.7330   39.3260 H   0  0  0  0  0  0  0  0  0  0  0  0
   35.7610   31.1580   41.8350 H   0  0  0  0  0  0  0  0  0  0  0  0
   38.2980   29.6710   41.0560 H   0  0  0  0  0  0  0  0  0  0  0  0
   37.7250   30.3290   42.6530 H   0  0  0  0  0  0  0  0  0  0  0  0
   39.5550   26.5800   43.7020 C   0  0  0  0  0  0  0  0  0  0  0  0
   38.6490   27.6060   43.4610 C   0  0  0  0  0  0  0  0  0  0  0  0
   37.7890   27.4460   42.3740 C   0  0  0  0  0  0  0  0  0  0  0  0
   37.8560   26.2920   41.5790 N   0  0  0  0  0  0  0  0  0  0  0  0
   38.7650   25.3270   41.8700 C   0  0  0  0  0  0  0  0  0  0  0  0
   39.6030   25.4770   42.9220 N   0  0  0  0  0  0  0  0  0  0  0  0
   40.2280   26.6930   44.5420 H   0  0  0  0  0  0  0  0  0  0  0  0
   38.5830   28.4940   44.0560 H   0  0  0  0  0  0  0  0  0  0  0  0
   38.7580   24.4740   41.2160 H   0  0  0  0  0  0  0  0  0  0  0  0
   36.9310   31.5390   40.0880 C   0  0  2  0  0  0  0  0  0  0  0  0
   36.8560   31.1640   38.6830 C   0  0  0  0  0  0  0  0  0  0  0  0
   38.1760   31.2260   39.3850 C   0  0  1  0  0  0  0  0  0  0  0  0
   36.7520   32.5960   40.3530 H   0  0  0  0  0  0  0  0  0  0  0  0
   36.5080   30.1320   38.4080 H   0  0  0  0  0  0  0  0  0  0  0  0
   36.6320   31.8840   37.8700 H   0  0  0  0  0  0  0  0  0  0  0  0
   38.7220   30.3460   39.7470 H   0  0  0  0  0  0  0  0  0  0  0  0
   39.0280   32.3110   39.0570 O   0  0  0  0  0  0  0  0  0  0  0  0
   40.1070   30.2410   37.8970 O   0  0  0  0  0  0  0  0  0  0  0  0
   40.3220   31.7090   38.1690 P   0  0  1  0  0  0  0  0  0  0  0  0
   40.4070   32.5030   36.6490 O   0  0  0  0  0  0  0  0  0  0  0  0
   39.4860   32.6930   36.3470 H   0  0  0  0  0  0  0  0  0  0  0  0
   41.8050   31.9020   38.8910 O   0  0  0  0  0  0  0  0  0  0  0  0
   42.0930   32.9870   39.7170 C   0  0  0  0  0  0  0  0  0  0  0  0
   42.3180   34.2030   39.0670 C   0  0  0  0  0  0  0  0  0  0  0  0
   42.3320   34.5660   38.0370 H   0  0  0  0  0  0  0  0  0  0  0  0
   42.5740   35.0990   40.0560 N   0  0  0  0  0  0  0  0  0  0  0  0
   42.7950   36.1300   40.0090 H   0  0  0  0  0  0  0  0  0  0  0  0
   42.5160   34.4950   41.2560 C   0  0  0  0  0  0  0  0  0  0  0  0
   42.6600   34.8700   42.2590 H   0  0  0  0  0  0  0  0  0  0  0  0
   42.2220   33.2030   41.0400 N   0  0  0  0  0  0  0  0  0  0  0  0
  1 16  1  0  0  0  0
  1  6  1  1  0  0  0
  2  7  1  0  0  0  0
  2  1  1  0  0  0  0
  3  2  1  0  0  0  0
  3  9  1  0  0  0  0
  3  4  1  0  0  0  0
  4  5  1  0  0  0  0
  4 11  1  1  0  0  0
  5  1  1  0  0  0  0
  5 13  1  0  0  0  0
  8  2  1  0  0  0  0
 10  3  1  0  0  0  0
 12  5  1  0  0  0  0
 14 20  1  0  0  0  0
 15 14  1  0  0  0  0
 15 21  1  0  0  0  0
 16 15  2  0  0  0  0
 17 18  2  0  0  0  0
 17 16  1  0  0  0  0
 18 19  1  0  0  0  0
 19 14  2  0  0  0  0
 22 18  1  0  0  0  0
 23 26  1  1  0  0  0
 23  4  1  0  0  0  0
 24 25  1  0  0  0  0
 24 23  1  0  0  0  0
 25 29  1  1  0  0  0
 25 23  1  0  0  0  0
 27 24  1  0  0  0  0
 28 24  1  0  0  0  0
 30 25  1  0  0  0  0
 32 31  2  6  0  0  0
 32 35  1  0  0  0  0
 32 30  1  0  0  0  0
 33 32  1  0  0  0  0
 34 33  1  0  0  0  0
 35 36  1  0  0  0  0
 36 43  1  0  0  0  0
 37 36  2  0  0  0  0
 37 39  1  0  0  0  0
 38 37  1  0  0  0  0
 39 41  1  0  0  0  0
 40 39  1  0  0  0  0
 41 42  1  0  0  0  0
 43 41  2  0  0  0  0
M  END
>  <minimizedAffinity>
-5.88987494

$$$$

 OpenBabel03252507563D

 43 46  0  0  1  0  0  0  0  0999 V2000
   37.8030   26.4080   42.0570 C   0  0  2  0  0  0  0  0  0  0  0  0
   36.7330   26.7120   43.1060 C   0  0  0  0  0  0  0  0  0  0  0  0
   37.3650   27.9880   43.6940 C   0  0  0  0  0  0  0  0  0  0  0  0
   38.0030   28.6770   42.5280 C   0  0  1  0  0  0  0  0  0  0  0  0
   37.8540   27.7410   41.3650 C   0  0  0  0  0  0  0  0  0  0  0  0
   38.6950   26.1440   42.6190 H   0  0  0  0  0  0  0  0  0  0  0  0
   36.7680   25.9120   43.8660 H   0  0  0  0  0  0  0  0  0  0  0  0
   35.7500   26.8960   42.6630 H   0  0  0  0  0  0  0  0  0  0  0  0
   38.0700   27.7250   44.5000 H   0  0  0  0  0  0  0  0  0  0  0  0
   36.5260   28.6390   44.0660 H   0  0  0  0  0  0  0  0  0  0  0  0
   39.0870   28.8870   42.7120 H   0  0  0  0  0  0  0  0  0  0  0  0
   36.9410   27.9020   40.7930 H   0  0  0  0  0  0  0  0  0  0  0  0
   38.7580   27.8220   40.7190 H   0  0  0  0  0  0  0  0  0  0  0  0
   37.2370   23.0620   40.4240 C   0  0  0  0  0  0  0  0  0  0  0  0
   37.6930   23.9850   41.3580 C   0  0  0  0  0  0  0  0  0  0  0  0
   37.3540   25.3210   41.1400 C   0  0  0  0  0  0  0  0  0  0  0  0
   36.5890   25.6880   40.0220 N   0  0  0  0  0  0  0  0  0  0  0  0
   36.1760   24.7340   39.1480 C   0  0  0  0  0  0  0  0  0  0  0  0
   36.5020   23.4360   39.3540 N   0  0  0  0  0  0  0  0  0  0  0  0
   37.4940   22.0220   40.5830 H   0  0  0  0  0  0  0  0  0  0  0  0
   38.2780   23.7250   42.2160 H   0  0  0  0  0  0  0  0  0  0  0  0
   35.5960   25.0900   38.3170 H   0  0  0  0  0  0  0  0  0  0  0  0
   37.3450   29.9820   42.1360 C   0  0  2  0  0  0  0  0  0  0  0  0
   36.3750   29.9030   41.0530 C   0  0  0  0  0  0  0  0  0  0  0  0
   37.6610   30.6440   40.8700 C   0  0  1  0  0  0  0  0  0  0  0  0
   37.1060   30.6290   42.9990 H   0  0  0  0  0  0  0  0  0  0  0  0
   36.2840   28.9490   40.4670 H   0  0  0  0  0  0  0  0  0  0  0  0
   35.4160   30.4590   41.0500 H   0  0  0  0  0  0  0  0  0  0  0  0
   38.5280   30.2460   40.3260 H   0  0  0  0  0  0  0  0  0  0  0  0
   37.5890   32.0590   40.8400 O   0  0  0  0  0  0  0  0  0  0  0  0
   37.4480   32.1080   38.2370 O   0  0  0  0  0  0  0  0  0  0  0  0
   38.2800   32.5880   39.4010 P   0  0  1  0  0  0  0  0  0  0  0  0
   38.2850   34.3040   39.3520 O   0  0  0  0  0  0  0  0  0  0  0  0
   37.4670   34.6290   39.8000 H   0  0  0  0  0  0  0  0  0  0  0  0
   39.8500   32.0990   39.1670 O   0  0  0  0  0  0  0  0  0  0  0  0
   40.8030   32.9250   38.5710 C   0  0  0  0  0  0  0  0  0  0  0  0
   41.2580   32.5180   37.3150 C   0  0  0  0  0  0  0  0  0  0  0  0
   41.0700   31.6910   36.6270 H   0  0  0  0  0  0  0  0  0  0  0  0
   42.1630   33.4590   36.9380 N   0  0  0  0  0  0  0  0  0  0  0  0
   42.7450   33.5410   36.0610 H   0  0  0  0  0  0  0  0  0  0  0  0
   42.2770   34.4020   37.8900 C   0  0  0  0  0  0  0  0  0  0  0  0
   42.8850   35.2930   37.9530 H   0  0  0  0  0  0  0  0  0  0  0  0
   41.4410   34.0670   38.8860 N   0  0  0  0  0  0  0  0  0  0  0  0
  1  6  1  1  0  0  0
  1  2  1  0  0  0  0
  2  3  1  0  0  0  0
  2  7  1  0  0  0  0
  3 10  1  0  0  0  0
  3  9  1  0  0  0  0
  4 11  1  1  0  0  0
  4  3  1  0  0  0  0
  5  1  1  0  0  0  0
  5  4  1  0  0  0  0
  8  2  1  0  0  0  0
 12  5  1  0  0  0  0
 13  5  1  0  0  0  0
 14 20  1  0  0  0  0
 14 15  1  0  0  0  0
 15 21  1  0  0  0  0
 16 15  2  0  0  0  0
 16  1  1  0  0  0  0
 17 16  1  0  0  0  0
 18 19  1  0  0  0  0
 18 17  2  0  0  0  0
 19 14  2  0  0  0  0
 22 18  1  0  0  0  0
 23  4  1  0  0  0  0
 23 26  1  1  0  0  0
 24 23  1  0  0  0  0
 25 29  1  6  0  0  0
 25 24  1  0  0  0  0
 25 23  1  0  0  0  0
 27 24  1  0  0  0  0
 28 24  1  0  0  0  0
 30 25  1  0  0  0  0
 32 31  2  6  0  0  0
 32 30  1  0  0  0  0
 33 32  1  0  0  0  0
 33 34  1  0  0  0  0
 35 32  1  0  0  0  0
 36 43  1  0  0  0  0
 36 35  1  0  0  0  0
 37 36  2  0  0  0  0
 38 37  1  0  0  0  0
 39 37  1  0  0  0  0
 39 41  1  0  0  0  0
 40 39  1  0  0  0  0
 41 42  1  0  0  0  0
 41 43  2  0  0  0  0
M  END
>  <minimizedAffinity>
-5.80756617

$$$$

 OpenBabel03252507563D

 43 46  0  0  1  0  0  0  0  0999 V2000
   39.1530   24.4780   41.3950 C   0  0  2  0  0  0  0  0  0  0  0  0
   39.0090   24.2900   42.9060 C   0  0  0  0  0  0  0  0  0  0  0  0
   39.9950   25.3850   43.3550 C   0  0  0  0  0  0  0  0  0  0  0  0
   39.8320   26.4860   42.3530 C   0  0  1  0  0  0  0  0  0  0  0  0
   38.8970   25.9560   41.3060 C   0  0  0  0  0  0  0  0  0  0  0  0
   40.1690   24.1700   41.1600 H   0  0  0  0  0  0  0  0  0  0  0  0
   39.4280   23.3020   43.1640 H   0  0  0  0  0  0  0  0  0  0  0  0
   37.9890   24.4730   43.2560 H   0  0  0  0  0  0  0  0  0  0  0  0
   41.0170   24.9760   43.4080 H   0  0  0  0  0  0  0  0  0  0  0  0
   39.6420   25.7680   44.3520 H   0  0  0  0  0  0  0  0  0  0  0  0
   40.8090   26.7680   41.8830 H   0  0  0  0  0  0  0  0  0  0  0  0
   37.8490   26.1680   41.5140 H   0  0  0  0  0  0  0  0  0  0  0  0
   39.2030   26.3560   40.3130 H   0  0  0  0  0  0  0  0  0  0  0  0
   35.9610   23.3570   39.7400 C   0  0  0  0  0  0  0  0  0  0  0  0
   36.8450   24.1910   40.4150 C   0  0  0  0  0  0  0  0  0  0  0  0
   38.1240   23.6890   40.6600 C   0  0  0  0  0  0  0  0  0  0  0  0
   38.4750   22.3990   40.2340 N   0  0  0  0  0  0  0  0  0  0  0  0
   37.5620   21.6360   39.5790 C   0  0  0  0  0  0  0  0  0  0  0  0
   36.3200   22.1170   39.3390 N   0  0  0  0  0  0  0  0  0  0  0  0
   34.9660   23.7360   39.5450 H   0  0  0  0  0  0  0  0  0  0  0  0
   36.5950   25.1780   40.7490 H   0  0  0  0  0  0  0  0  0  0  0  0
   37.9030   20.6600   39.2850 H   0  0  0  0  0  0  0  0  0  0  0  0
   39.2100   27.7490   42.9070 C   0  0  2  0  0  0  0  0  0  0  0  0
   38.1100   27.5570   43.8410 C   0  0  0  0  0  0  0  0  0  0  0  0
   37.8720   28.1800   42.5020 C   0  0  1  0  0  0  0  0  0  0  0  0
   39.9490   28.5390   43.1320 H   0  0  0  0  0  0  0  0  0  0  0  0
   37.6770   26.5290   43.9750 H   0  0  0  0  0  0  0  0  0  0  0  0
   37.9750   28.1640   44.7600 H   0  0  0  0  0  0  0  0  0  0  0  0
   37.4380   27.6490   41.6450 H   0  0  0  0  0  0  0  0  0  0  0  0
   37.6160   29.5740   42.4770 O   0  0  0  0  0  0  0  0  0  0  0  0
   36.0740   28.6850   40.5730 O   0  0  0  0  0  0  0  0  0  0  0  0
   36.7740   29.9270   41.0660 P   0  0  1  0  0  0  0  0  0  0  0  0
   35.5630   31.1020   41.3870 O   0  0  0  0  0  0  0  0  0  0  0  0
   35.2080   30.9400   42.2940 H   0  0  0  0  0  0  0  0  0  0  0  0
   37.7100   30.5310   39.8340 O   0  0  0  0  0  0  0  0  0  0  0  0
   38.2090   31.8330   39.8510 C   0  0  0  0  0  0  0  0  0  0  0  0
   39.1590   32.1320   38.8720 C   0  0  0  0  0  0  0  0  0  0  0  0
   39.6490   31.6070   38.0490 H   0  0  0  0  0  0  0  0  0  0  0  0
   39.4940   33.4320   39.0800 N   0  0  0  0  0  0  0  0  0  0  0  0
   40.1740   34.0570   38.5690 H   0  0  0  0  0  0  0  0  0  0  0  0
   38.8040   33.9280   40.1220 C   0  0  0  0  0  0  0  0  0  0  0  0
   38.7990   34.9060   40.5840 H   0  0  0  0  0  0  0  0  0  0  0  0
   38.0200   32.9430   40.5890 N   0  0  0  0  0  0  0  0  0  0  0  0
  1  6  1  6  0  0  0
  1  2  1  0  0  0  0
  2  7  1  0  0  0  0
  2  8  1  0  0  0  0
  2  3  1  0  0  0  0
  3  9  1  0  0  0  0
  3 10  1  0  0  0  0
  4 11  1  6  0  0  0
  4 23  1  0  0  0  0
  4  3  1  0  0  0  0
  5  1  1  0  0  0  0
  5 12  1  0  0  0  0
  5  4  1  0  0  0  0
 13  5  1  0  0  0  0
 14 15  1  0  0  0  0
 15 16  2  0  0  0  0
 15 21  1  0  0  0  0
 16  1  1  0  0  0  0
 17 16  1  0  0  0  0
 18 17  2  0  0  0  0
 19 18  1  0  0  0  0
 19 14  2  0  0  0  0
 20 14  1  0  0  0  0
 22 18  1  0  0  0  0
 23 26  1  1  0  0  0
 23 24  1  0  0  0  0
 24 27  1  0  0  0  0
 24 28  1  0  0  0  0
 25 29  1  6  0  0  0
 25 23  1  0  0  0  0
 25 24  1  0  0  0  0
 30 25  1  0  0  0  0
 32 31  2  6  0  0  0
 32 33  1  0  0  0  0
 32 30  1  0  0  0  0
 33 34  1  0  0  0  0
 35 36  1  0  0  0  0
 35 32  1  0  0  0  0
 36 43  1  0  0  0  0
 37 39  1  0  0  0  0
 37 36  2  0  0  0  0
 38 37  1  0  0  0  0
 39 41  1  0  0  0  0
 40 39  1  0  0  0  0
 41 42  1  0  0  0  0
 41 43  2  0  0  0  0
M  END
>  <minimizedAffinity>
-5.78423738

$$$$

 OpenBabel03252507563D

 43 46  0  0  1  0  0  0  0  0999 V2000
   36.2890   30.8650   39.3950 C   0  0  2  0  0  0  0  0  0  0  0  0
   35.8330   29.9400   40.5230 C   0  0  0  0  0  0  0  0  0  0  0  0
   35.0430   28.9310   39.6700 C   0  0  0  0  0  0  0  0  0  0  0  0
   35.8120   28.8230   38.3890 C   0  0  1  0  0  0  0  0  0  0  0  0
   36.9050   29.8470   38.4770 C   0  0  0  0  0  0  0  0  0  0  0  0
   35.3840   31.3370   39.0210 H   0  0  0  0  0  0  0  0  0  0  0  0
   35.1260   30.5040   41.1570 H   0  0  0  0  0  0  0  0  0  0  0  0
   36.6710   29.4780   41.0530 H   0  0  0  0  0  0  0  0  0  0  0  0
   34.0040   29.2750   39.5400 H   0  0  0  0  0  0  0  0  0  0  0  0
   35.0950   27.9350   40.1910 H   0  0  0  0  0  0  0  0  0  0  0  0
   35.1660   29.0310   37.4980 H   0  0  0  0  0  0  0  0  0  0  0  0
   37.8260   29.4600   38.9100 H   0  0  0  0  0  0  0  0  0  0  0  0
   37.0800   30.2750   37.4650 H   0  0  0  0  0  0  0  0  0  0  0  0
   38.2610   34.0140   40.0130 C   0  0  0  0  0  0  0  0  0  0  0  0
   37.2590   33.1920   39.5090 C   0  0  0  0  0  0  0  0  0  0  0  0
   37.2940   31.8500   39.8880 C   0  0  0  0  0  0  0  0  0  0  0  0
   38.3040   31.3780   40.7390 N   0  0  0  0  0  0  0  0  0  0  0  0
   39.2530   32.2350   41.1960 C   0  0  0  0  0  0  0  0  0  0  0  0
   39.2250   33.5380   40.8310 N   0  0  0  0  0  0  0  0  0  0  0  0
   38.2430   35.0580   39.7260 H   0  0  0  0  0  0  0  0  0  0  0  0
   36.4800   33.5340   38.8580 H   0  0  0  0  0  0  0  0  0  0  0  0
   39.9940   31.8010   41.8420 H   0  0  0  0  0  0  0  0  0  0  0  0
   36.4750   27.4810   38.1690 C   0  0  2  0  0  0  0  0  0  0  0  0
   35.5770   26.3410   38.0470 C   0  0  0  0  0  0  0  0  0  0  0  0
   36.4990   26.4620   39.2190 C   0  0  1  0  0  0  0  0  0  0  0  0
   37.3460   27.5290   37.4910 H   0  0  0  0  0  0  0  0  0  0  0  0
   34.4860   26.4750   38.2800 H   0  0  0  0  0  0  0  0  0  0  0  0
   35.7250   25.5220   37.3140 H   0  0  0  0  0  0  0  0  0  0  0  0
   36.1860   26.7960   40.2160 H   0  0  0  0  0  0  0  0  0  0  0  0
   37.6140   25.5870   39.2510 O   0  0  0  0  0  0  0  0  0  0  0  0
   37.8200   23.7130   41.0510 O   0  0  0  0  0  0  0  0  0  0  0  0
   37.9320   25.2050   40.8570 P   0  0  1  0  0  0  0  0  0  0  0  0
   39.5410   25.6520   41.2560 O   0  0  0  0  0  0  0  0  0  0  0  0
   40.1090   25.5040   40.4630 H   0  0  0  0  0  0  0  0  0  0  0  0
   36.9410   25.9570   41.9570 O   0  0  0  0  0  0  0  0  0  0  0  0
   37.3030   27.1460   42.5900 C   0  0  0  0  0  0  0  0  0  0  0  0
   36.4670   27.5580   43.6310 C   0  0  0  0  0  0  0  0  0  0  0  0
   35.5600   27.1940   44.1180 H   0  0  0  0  0  0  0  0  0  0  0  0
   37.0080   28.7180   44.0880 N   0  0  0  0  0  0  0  0  0  0  0  0
   36.6960   29.3620   44.8650 H   0  0  0  0  0  0  0  0  0  0  0  0
   38.1130   29.0240   43.3870 C   0  0  0  0  0  0  0  0  0  0  0  0
   38.8030   29.8530   43.4530 H   0  0  0  0  0  0  0  0  0  0  0  0
   38.2870   28.0570   42.4710 N   0  0  0  0  0  0  0  0  0  0  0  0
  1  6  1  6  0  0  0
  1 16  1  0  0  0  0
  1  2  1  0  0  0  0
  2  8  1  0  0  0  0
  2  7  1  0  0  0  0
  3 10  1  0  0  0  0
  3  2  1  0  0  0  0
  4 11  1  6  0  0  0
  4  5  1  0  0  0  0
  4  3  1  0  0  0  0
  5 12  1  0  0  0  0
  5  1  1  0  0  0  0
  9  3  1  0  0  0  0
 13  5  1  0  0  0  0
 14 19  1  0  0  0  0
 15 16  1  0  0  0  0
 15 14  2  0  0  0  0
 16 17  2  0  0  0  0
 17 18  1  0  0  0  0
 18 22  1  0  0  0  0
 19 18  2  0  0  0  0
 20 14  1  0  0  0  0
 21 15  1  0  0  0  0
 23 26  1  6  0  0  0
 23  4  1  0  0  0  0
 23 25  1  0  0  0  0
 24 23  1  0  0  0  0
 24 27  1  0  0  0  0
 24 25  1  0  0  0  0
 25 30  1  0  0  0  0
 25 29  1  1  0  0  0
 28 24  1  0  0  0  0
 30 32  1  0  0  0  0
 32 31  2  1  0  0  0
 32 33  1  0  0  0  0
 32 35  1  0  0  0  0
 34 33  1  0  0  0  0
 35 36  1  0  0  0  0
 36 37  2  0  0  0  0
 37 39  1  0  0  0  0
 37 38  1  0  0  0  0
 39 40  1  0  0  0  0
 41 42  1  0  0  0  0
 41 39  1  0  0  0  0
 43 36  1  0  0  0  0
 43 41  2  0  0  0  0
M  END
>  <minimizedAffinity>
-5.67858791

$$$$
