
 OpenBabel03252508203D

 33 35  0  0  0  0  0  0  0  0999 V2000
   41.0620   34.0100   38.9610 C   0  0  0  0  0  0  0  0  0  0  0  0
   39.8520   34.6950   39.0210 C   0  0  0  0  0  0  0  0  0  0  0  0
   38.6090   34.1750   38.6980 C   0  0  0  0  0  0  0  0  0  0  0  0
   38.6150   32.8560   38.2840 C   0  0  0  0  0  0  0  0  0  0  0  0
   39.7940   32.1610   38.2180 C   0  0  0  0  0  0  0  0  0  0  0  0
   41.0330   32.6910   38.5440 C   0  0  0  0  0  0  0  0  0  0  0  0
   39.9320   35.7390   39.3590 H   0  0  0  0  0  0  0  0  0  0  0  0
   37.7740   34.8440   38.8020 H   0  0  0  0  0  0  0  0  0  0  0  0
   37.6510   32.4460   38.0320 H   0  0  0  0  0  0  0  0  0  0  0  0
   39.6230   31.1420   37.8740 H   0  0  0  0  0  0  0  0  0  0  0  0
   42.1390   31.7670   38.3910 C   0  0  0  0  0  0  0  0  0  0  0  0
   42.8380   30.9410   39.2260 C   0  0  0  0  0  0  0  0  0  0  0  0
   42.6740   30.8230   40.2750 H   0  0  0  0  0  0  0  0  0  0  0  0
   43.7820   30.2350   38.6410 N   0  0  0  0  0  0  0  0  0  0  0  0
   44.4510   29.5460   39.0180 H   0  0  0  0  0  0  0  0  0  0  0  0
   43.7160   30.6010   37.3540 C   0  0  0  0  0  0  0  0  0  0  0  0
   44.2880   30.2960   36.4810 H   0  0  0  0  0  0  0  0  0  0  0  0
   42.7400   31.5050   37.2290 N   0  0  0  0  0  0  0  0  0  0  0  0
   42.3460   34.6140   39.2960 C   0  0  0  0  0  0  0  0  0  0  0  0
   42.5460   35.4140   38.5490 H   0  0  0  0  0  0  0  0  0  0  0  0
   43.1860   33.9150   39.3290 H   0  0  0  0  0  0  0  0  0  0  0  0
   42.2740   35.3980   40.6220 C   0  0  0  0  0  0  0  0  0  0  0  0
   42.5040   36.4400   40.3950 H   0  0  0  0  0  0  0  0  0  0  0  0
   41.3000   35.2470   41.1150 H   0  0  0  0  0  0  0  0  0  0  0  0
   45.2020   35.0990   42.9990 C   0  0  0  0  0  0  0  0  0  0  0  0
   44.2190   35.6960   42.1670 C   0  0  0  0  0  0  0  0  0  0  0  0
   43.3360   34.8480   41.5120 C   0  0  0  0  0  0  0  0  0  0  0  0
   43.4880   33.4960   41.7260 N   0  0  0  0  0  0  0  0  0  0  0  0
   44.4170   32.9710   42.5100 C   0  0  0  0  0  0  0  0  0  0  0  0
   45.2810   33.7630   43.1530 N   0  0  0  0  0  0  0  0  0  0  0  0
   45.8540   35.8360   43.4750 H   0  0  0  0  0  0  0  0  0  0  0  0
   44.1550   36.7680   42.0430 H   0  0  0  0  0  0  0  0  0  0  0  0
   44.4530   31.8980   42.6100 H   0  0  0  0  0  0  0  0  0  0  0  0
  1  2  1  0  0  0  0
  1 19  1  0  0  0  0
  2  7  1  0  0  0  0
  3  8  1  0  0  0  0
  3  2  2  0  0  0  0
  4  3  1  0  0  0  0
  5  4  2  0  0  0  0
  5  6  1  0  0  0  0
  6  1  2  0  0  0  0
  9  4  1  0  0  0  0
 10  5  1  0  0  0  0
 11  6  1  0  0  0  0
 11 12  2  0  0  0  0
 12 13  1  0  0  0  0
 14 15  1  0  0  0  0
 14 12  1  0  0  0  0
 16 14  1  0  0  0  0
 17 16  1  0  0  0  0
 18 16  2  0  0  0  0
 18 11  1  0  0  0  0
 19 21  1  0  0  0  0
 19 22  1  0  0  0  0
 20 19  1  0  0  0  0
 22 24  1  0  0  0  0
 22 27  1  0  0  0  0
 23 22  1  0  0  0  0
 25 30  1  0  0  0  0
 25 31  1  0  0  0  0
 26 25  2  0  0  0  0
 27 28  2  0  0  0  0
 27 26  1  0  0  0  0
 28 29  1  0  0  0  0
 29 33  1  0  0  0  0
 29 30  2  0  0  0  0
 32 26  1  0  0  0  0
M  END
>  <minimizedAffinity>
-4.15250492

>  <minimizedRMSD>
7.04014397

$$$$
