
 OpenBabel03242516103D

 24 26  0  0  0  0  0  0  0  0999 V2000
   36.9160   27.6280   42.3850 C   0  0  0  0  0  0  0  0  0  0  0  0
   36.2660   27.2960   43.6790 C   0  0  0  0  0  0  0  0  0  0  0  0
   37.5740   27.9730   43.6740 C   0  0  0  0  0  0  0  0  0  0  0  0
   36.1810   26.2440   43.9640 H   0  0  0  0  0  0  0  0  0  0  0  0
   35.3990   27.9170   43.9390 H   0  0  0  0  0  0  0  0  0  0  0  0
   38.5100   27.4290   43.9730 H   0  0  0  0  0  0  0  0  0  0  0  0
   37.6270   29.0430   44.0130 H   0  0  0  0  0  0  0  0  0  0  0  0
   37.0960   25.1850   41.8080 C   0  0  0  0  0  0  0  0  0  0  0  0
   37.4670   26.5100   41.5720 C   0  0  0  0  0  0  0  0  0  0  0  0
   38.3890   26.7400   40.5270 C   0  0  0  0  0  0  0  0  0  0  0  0
   38.8620   25.6800   39.8100 N   0  0  0  0  0  0  0  0  0  0  0  0
   38.4750   24.4210   40.0740 C   0  0  0  0  0  0  0  0  0  0  0  0
   37.5990   24.1890   41.0660 N   0  0  0  0  0  0  0  0  0  0  0  0
   36.3990   24.9390   42.5880 H   0  0  0  0  0  0  0  0  0  0  0  0
   38.7060   27.7520   40.3070 H   0  0  0  0  0  0  0  0  0  0  0  0
   38.9520   23.7190   39.4070 H   0  0  0  0  0  0  0  0  0  0  0  0
   36.4510   28.8020   41.5970 C   0  0  0  0  0  0  0  0  0  0  0  0
   35.3890   28.9350   40.7510 C   0  0  0  0  0  0  0  0  0  0  0  0
   34.6860   28.1580   40.5170 H   0  0  0  0  0  0  0  0  0  0  0  0
   35.3600   30.1860   40.2600 N   0  0  0  0  0  0  0  0  0  0  0  0
   34.6870   30.6380   39.5870 H   0  0  0  0  0  0  0  0  0  0  0  0
   36.4120   30.8690   40.7910 C   0  0  0  0  0  0  0  0  0  0  0  0
   36.7660   31.8740   40.6800 H   0  0  0  0  0  0  0  0  0  0  0  0
   37.0520   30.0240   41.5880 N   0  0  0  0  0  0  0  0  0  0  0  0
  1  3  1  0  0  0  0
  1  2  1  0  0  0  0
  2  5  1  0  0  0  0
  2  4  1  0  0  0  0
  3  2  1  0  0  0  0
  3  6  1  0  0  0  0
  3  7  1  0  0  0  0
  8 14  1  0  0  0  0
  9  8  1  0  0  0  0
  9  1  1  0  0  0  0
 10  9  2  0  0  0  0
 11 12  2  0  0  0  0
 11 10  1  0  0  0  0
 12 13  1  0  0  0  0
 13  8  2  0  0  0  0
 15 10  1  0  0  0  0
 16 12  1  0  0  0  0
 17  1  1  0  0  0  0
 18 17  2  0  0  0  0
 19 18  1  0  0  0  0
 20 18  1  0  0  0  0
 20 22  1  0  0  0  0
 21 20  1  0  0  0  0
 22 24  2  0  0  0  0
 23 22  1  0  0  0  0
 24 17  1  0  0  0  0
M  END
>  <minimizedAffinity>
-4.46021366

$$$$

 OpenBabel03242516103D

 24 26  0  0  0  0  0  0  0  0999 V2000
   35.8950   29.2310   39.6350 C   0  0  0  0  0  0  0  0  0  0  0  0
   35.2750   28.7550   38.3710 C   0  0  0  0  0  0  0  0  0  0  0  0
   34.4160   29.1290   39.5070 C   0  0  0  0  0  0  0  0  0  0  0  0
   35.4050   27.7060   38.0900 H   0  0  0  0  0  0  0  0  0  0  0  0
   35.3120   29.4660   37.5360 H   0  0  0  0  0  0  0  0  0  0  0  0
   33.8680   28.3500   40.1020 H   0  0  0  0  0  0  0  0  0  0  0  0
   33.7910   30.0590   39.4260 H   0  0  0  0  0  0  0  0  0  0  0  0
   36.3610   28.1230   41.8460 C   0  0  0  0  0  0  0  0  0  0  0  0
   36.6140   28.2380   40.4780 C   0  0  0  0  0  0  0  0  0  0  0  0
   37.5830   27.3670   39.9310 C   0  0  0  0  0  0  0  0  0  0  0  0
   38.2120   26.4730   40.7460 N   0  0  0  0  0  0  0  0  0  0  0  0
   37.9350   26.3990   42.0590 C   0  0  0  0  0  0  0  0  0  0  0  0
   37.0150   27.2220   42.5910 N   0  0  0  0  0  0  0  0  0  0  0  0
   35.6360   28.7540   42.3260 H   0  0  0  0  0  0  0  0  0  0  0  0
   37.8120   27.4190   38.8740 H   0  0  0  0  0  0  0  0  0  0  0  0
   38.5280   25.6370   42.5400 H   0  0  0  0  0  0  0  0  0  0  0  0
   36.4110   30.6230   39.7330 C   0  0  0  0  0  0  0  0  0  0  0  0
   36.5290   31.4500   40.8120 C   0  0  0  0  0  0  0  0  0  0  0  0
   36.2470   31.1960   41.8170 H   0  0  0  0  0  0  0  0  0  0  0  0
   37.0520   32.6250   40.4230 N   0  0  0  0  0  0  0  0  0  0  0  0
   37.2800   33.4870   40.9840 H   0  0  0  0  0  0  0  0  0  0  0  0
   37.2740   32.5610   39.0820 C   0  0  0  0  0  0  0  0  0  0  0  0
   37.6720   33.2550   38.3700 H   0  0  0  0  0  0  0  0  0  0  0  0
   36.8850   31.3560   38.6880 N   0  0  0  0  0  0  0  0  0  0  0  0
  1 17  1  0  0  0  0
  1  9  1  0  0  0  0
  2  3  1  0  0  0  0
  2  1  1  0  0  0  0
  3  1  1  0  0  0  0
  3  6  1  0  0  0  0
  4  2  1  0  0  0  0
  5  2  1  0  0  0  0
  7  3  1  0  0  0  0
  8 14  1  0  0  0  0
  8 13  1  0  0  0  0
  9  8  2  0  0  0  0
 10  9  1  0  0  0  0
 10 11  2  0  0  0  0
 11 12  1  0  0  0  0
 12 16  1  0  0  0  0
 12 13  2  0  0  0  0
 15 10  1  0  0  0  0
 17 18  2  0  0  0  0
 18 19  1  0  0  0  0
 20 18  1  0  0  0  0
 20 21  1  0  0  0  0
 22 20  1  0  0  0  0
 23 22  1  0  0  0  0
 24 22  2  0  0  0  0
 24 17  1  0  0  0  0
M  END
>  <minimizedAffinity>
-4.2790761

$$$$

 OpenBabel03242516103D

 24 26  0  0  0  0  0  0  0  0999 V2000
   35.9260   29.2370   39.6190 C   0  0  0  0  0  0  0  0  0  0  0  0
   35.3030   28.7710   38.3530 C   0  0  0  0  0  0  0  0  0  0  0  0
   34.4480   29.1240   39.4980 C   0  0  0  0  0  0  0  0  0  0  0  0
   35.4420   27.7260   38.0590 H   0  0  0  0  0  0  0  0  0  0  0  0
   35.3300   29.4910   37.5260 H   0  0  0  0  0  0  0  0  0  0  0  0
   33.9100   28.3330   40.0870 H   0  0  0  0  0  0  0  0  0  0  0  0
   33.8140   30.0500   39.4310 H   0  0  0  0  0  0  0  0  0  0  0  0
   37.6500   27.4260   39.8980 C   0  0  0  0  0  0  0  0  0  0  0  0
   36.6590   28.2410   40.4470 C   0  0  0  0  0  0  0  0  0  0  0  0
   36.3850   28.0790   41.8230 C   0  0  0  0  0  0  0  0  0  0  0  0
   37.0870   27.1530   42.5370 N   0  0  0  0  0  0  0  0  0  0  0  0
   38.0340   26.3900   41.9650 C   0  0  0  0  0  0  0  0  0  0  0  0
   38.3040   26.5350   40.6570 N   0  0  0  0  0  0  0  0  0  0  0  0
   37.9090   27.4980   38.8580 H   0  0  0  0  0  0  0  0  0  0  0  0
   35.6240   28.6890   42.2920 H   0  0  0  0  0  0  0  0  0  0  0  0
   38.4800   25.7180   42.6830 H   0  0  0  0  0  0  0  0  0  0  0  0
   36.4310   30.6330   39.7300 C   0  0  0  0  0  0  0  0  0  0  0  0
   36.6070   31.4260   40.8270 C   0  0  0  0  0  0  0  0  0  0  0  0
   36.3920   31.1360   41.8380 H   0  0  0  0  0  0  0  0  0  0  0  0
   37.0900   32.6210   40.4450 N   0  0  0  0  0  0  0  0  0  0  0  0
   37.3420   33.4680   41.0180 H   0  0  0  0  0  0  0  0  0  0  0  0
   37.2270   32.6030   39.0900 C   0  0  0  0  0  0  0  0  0  0  0  0
   37.5700   33.3260   38.3780 H   0  0  0  0  0  0  0  0  0  0  0  0
   36.8280   31.4060   38.6820 N   0  0  0  0  0  0  0  0  0  0  0  0
  1 17  1  0  0  0  0
  1  9  1  0  0  0  0
  2  3  1  0  0  0  0
  2  1  1  0  0  0  0
  3  1  1  0  0  0  0
  3  6  1  0  0  0  0
  4  2  1  0  0  0  0
  5  2  1  0  0  0  0
  7  3  1  0  0  0  0
  8  9  2  0  0  0  0
  8 13  1  0  0  0  0
  9 10  1  0  0  0  0
 10 15  1  0  0  0  0
 10 11  2  0  0  0  0
 12 11  1  0  0  0  0
 12 16  1  0  0  0  0
 13 12  2  0  0  0  0
 14  8  1  0  0  0  0
 17 18  2  0  0  0  0
 18 19  1  0  0  0  0
 20 18  1  0  0  0  0
 20 21  1  0  0  0  0
 22 20  1  0  0  0  0
 23 22  1  0  0  0  0
 24 22  2  0  0  0  0
 24 17  1  0  0  0  0
M  END
>  <minimizedAffinity>
-4.25401068

$$$$

 OpenBabel03242516103D

 24 26  0  0  0  0  0  0  0  0999 V2000
   38.5780   32.7530   39.8340 C   0  0  0  0  0  0  0  0  0  0  0  0
   37.3080   33.4790   39.5710 C   0  0  0  0  0  0  0  0  0  0  0  0
   38.4020   34.1600   40.2820 C   0  0  0  0  0  0  0  0  0  0  0  0
   36.4070   33.1600   40.1020 H   0  0  0  0  0  0  0  0  0  0  0  0
   37.1480   33.7770   38.5270 H   0  0  0  0  0  0  0  0  0  0  0  0
   38.3320   34.3790   41.3820 H   0  0  0  0  0  0  0  0  0  0  0  0
   38.9480   34.9930   39.7600 H   0  0  0  0  0  0  0  0  0  0  0  0
   37.4440   30.8570   41.0380 C   0  0  0  0  0  0  0  0  0  0  0  0
   38.5660   31.6670   40.8500 C   0  0  0  0  0  0  0  0  0  0  0  0
   39.6880   31.4060   41.6680 C   0  0  0  0  0  0  0  0  0  0  0  0
   39.6250   30.3960   42.5830 N   0  0  0  0  0  0  0  0  0  0  0  0
   38.5230   29.6430   42.7270 C   0  0  0  0  0  0  0  0  0  0  0  0
   37.4480   29.8810   41.9560 N   0  0  0  0  0  0  0  0  0  0  0  0
   36.5560   31.0010   40.4500 H   0  0  0  0  0  0  0  0  0  0  0  0
   40.5810   32.0080   41.5580 H   0  0  0  0  0  0  0  0  0  0  0  0
   38.6580   28.8970   43.4960 H   0  0  0  0  0  0  0  0  0  0  0  0
   39.5740   32.5740   38.7420 C   0  0  0  0  0  0  0  0  0  0  0  0
   39.4950   31.8630   37.5800 C   0  0  0  0  0  0  0  0  0  0  0  0
   38.6430   31.2910   37.2640 H   0  0  0  0  0  0  0  0  0  0  0  0
   40.6450   31.9920   36.8960 N   0  0  0  0  0  0  0  0  0  0  0  0
   40.9340   31.5850   35.9680 H   0  0  0  0  0  0  0  0  0  0  0  0
   41.4760   32.7900   37.6200 C   0  0  0  0  0  0  0  0  0  0  0  0
   42.4720   33.1510   37.4580 H   0  0  0  0  0  0  0  0  0  0  0  0
   40.8170   33.1290   38.7200 N   0  0  0  0  0  0  0  0  0  0  0  0
  1  3  1  0  0  0  0
  1  9  1  0  0  0  0
  2  1  1  0  0  0  0
  2  4  1  0  0  0  0
  2  3  1  0  0  0  0
  3  6  1  0  0  0  0
  5  2  1  0  0  0  0
  7  3  1  0  0  0  0
  8 13  1  0  0  0  0
  9  8  2  0  0  0  0
  9 10  1  0  0  0  0
 10 11  2  0  0  0  0
 11 12  1  0  0  0  0
 12 16  1  0  0  0  0
 13 12  2  0  0  0  0
 14  8  1  0  0  0  0
 15 10  1  0  0  0  0
 17  1  1  0  0  0  0
 18 17  2  0  0  0  0
 19 18  1  0  0  0  0
 20 18  1  0  0  0  0
 20 22  1  0  0  0  0
 21 20  1  0  0  0  0
 22 24  2  0  0  0  0
 23 22  1  0  0  0  0
 24 17  1  0  0  0  0
M  END
>  <minimizedAffinity>
-4.23150969

$$$$

 OpenBabel03242516103D

 24 26  0  0  0  0  0  0  0  0999 V2000
   37.5130   27.2050   42.5180 C   0  0  0  0  0  0  0  0  0  0  0  0
   37.6000   28.1280   43.6790 C   0  0  0  0  0  0  0  0  0  0  0  0
   36.3670   27.3540   43.4550 C   0  0  0  0  0  0  0  0  0  0  0  0
   37.6280   29.2050   43.4870 H   0  0  0  0  0  0  0  0  0  0  0  0
   38.2440   27.7880   44.5000 H   0  0  0  0  0  0  0  0  0  0  0  0
   35.4270   27.8520   43.0940 H   0  0  0  0  0  0  0  0  0  0  0  0
   36.1130   26.5280   44.1730 H   0  0  0  0  0  0  0  0  0  0  0  0
   36.5200   27.3000   40.2080 C   0  0  0  0  0  0  0  0  0  0  0  0
   37.4130   27.7990   41.1580 C   0  0  0  0  0  0  0  0  0  0  0  0
   38.2150   28.8950   40.7690 C   0  0  0  0  0  0  0  0  0  0  0  0
   38.0820   29.4050   39.5100 N   0  0  0  0  0  0  0  0  0  0  0  0
   37.2080   28.8900   38.6300 C   0  0  0  0  0  0  0  0  0  0  0  0
   36.4390   27.8480   38.9880 N   0  0  0  0  0  0  0  0  0  0  0  0
   35.8800   26.4680   40.4380 H   0  0  0  0  0  0  0  0  0  0  0  0
   38.9220   29.3160   41.4720 H   0  0  0  0  0  0  0  0  0  0  0  0
   37.2440   29.4210   37.6900 H   0  0  0  0  0  0  0  0  0  0  0  0
   38.1830   25.8770   42.5710 C   0  0  0  0  0  0  0  0  0  0  0  0
   37.7600   24.6540   42.1400 C   0  0  0  0  0  0  0  0  0  0  0  0
   36.8160   24.4600   41.6670 H   0  0  0  0  0  0  0  0  0  0  0  0
   38.7050   23.7340   42.3980 N   0  0  0  0  0  0  0  0  0  0  0  0
   38.7190   22.6990   42.2050 H   0  0  0  0  0  0  0  0  0  0  0  0
   39.7490   24.3650   43.0030 C   0  0  0  0  0  0  0  0  0  0  0  0
   40.6960   24.0270   43.3730 H   0  0  0  0  0  0  0  0  0  0  0  0
   39.4180   25.6460   43.0960 N   0  0  0  0  0  0  0  0  0  0  0  0
  1 17  1  0  0  0  0
  1  3  1  0  0  0  0
  1  2  1  0  0  0  0
  2  5  1  0  0  0  0
  3  2  1  0  0  0  0
  3  7  1  0  0  0  0
  4  2  1  0  0  0  0
  6  3  1  0  0  0  0
  8 14  1  0  0  0  0
  8  9  1  0  0  0  0
  9  1  1  0  0  0  0
 10  9  2  0  0  0  0
 10 15  1  0  0  0  0
 11 10  1  0  0  0  0
 12 13  1  0  0  0  0
 12 11  2  0  0  0  0
 13  8  2  0  0  0  0
 16 12  1  0  0  0  0
 17 24  1  0  0  0  0
 18 20  1  0  0  0  0
 18 17  2  0  0  0  0
 19 18  1  0  0  0  0
 20 22  1  0  0  0  0
 21 20  1  0  0  0  0
 22 24  2  0  0  0  0
 22 23  1  0  0  0  0
M  END
>  <minimizedAffinity>
-4.21660328

$$$$

 OpenBabel03242516103D

 24 26  0  0  0  0  0  0  0  0999 V2000
   39.2600   30.5840   41.6040 C   0  0  0  0  0  0  0  0  0  0  0  0
   40.5160   30.8190   42.3630 C   0  0  0  0  0  0  0  0  0  0  0  0
   40.5840   30.3150   40.9820 C   0  0  0  0  0  0  0  0  0  0  0  0
   40.7430   30.1660   43.2100 H   0  0  0  0  0  0  0  0  0  0  0  0
   40.7830   31.8740   42.5090 H   0  0  0  0  0  0  0  0  0  0  0  0
   40.8810   29.2540   40.7650 H   0  0  0  0  0  0  0  0  0  0  0  0
   40.9800   30.9950   40.1790 H   0  0  0  0  0  0  0  0  0  0  0  0
   38.0300   29.2330   43.3340 C   0  0  0  0  0  0  0  0  0  0  0  0
   38.4060   29.4330   42.0050 C   0  0  0  0  0  0  0  0  0  0  0  0
   37.9390   28.4940   41.0590 C   0  0  0  0  0  0  0  0  0  0  0  0
   37.1560   27.4580   41.4780 N   0  0  0  0  0  0  0  0  0  0  0  0
   36.8190   27.3070   42.7700 C   0  0  0  0  0  0  0  0  0  0  0  0
   37.2580   28.1930   43.6800 N   0  0  0  0  0  0  0  0  0  0  0  0
   38.3510   29.9090   44.1050 H   0  0  0  0  0  0  0  0  0  0  0  0
   38.2050   28.6090   40.0160 H   0  0  0  0  0  0  0  0  0  0  0  0
   36.1990   26.4350   42.9110 H   0  0  0  0  0  0  0  0  0  0  0  0
   38.5220   31.7320   41.0110 C   0  0  0  0  0  0  0  0  0  0  0  0
   37.2350   31.8220   40.5680 C   0  0  0  0  0  0  0  0  0  0  0  0
   36.5190   31.0220   40.5850 H   0  0  0  0  0  0  0  0  0  0  0  0
   37.0040   33.0650   40.1100 N   0  0  0  0  0  0  0  0  0  0  0  0
   36.1310   33.4870   39.6980 H   0  0  0  0  0  0  0  0  0  0  0  0
   38.1500   33.7850   40.2550 C   0  0  0  0  0  0  0  0  0  0  0  0
   38.4140   34.7980   40.0280 H   0  0  0  0  0  0  0  0  0  0  0  0
   39.0450   32.9710   40.7970 N   0  0  0  0  0  0  0  0  0  0  0  0
  1  9  1  0  0  0  0
  1  2  1  0  0  0  0
  2  5  1  0  0  0  0
  2  4  1  0  0  0  0
  3  1  1  0  0  0  0
  3  2  1  0  0  0  0
  6  3  1  0  0  0  0
  7  3  1  0  0  0  0
  8 13  1  0  0  0  0
  8 14  1  0  0  0  0
  9  8  2  0  0  0  0
 10 11  2  0  0  0  0
 10  9  1  0  0  0  0
 11 12  1  0  0  0  0
 12 16  1  0  0  0  0
 12 13  2  0  0  0  0
 15 10  1  0  0  0  0
 17  1  1  0  0  0  0
 18 19  1  0  0  0  0
 18 17  2  0  0  0  0
 20 22  1  0  0  0  0
 20 18  1  0  0  0  0
 21 20  1  0  0  0  0
 22 24  2  0  0  0  0
 23 22  1  0  0  0  0
 24 17  1  0  0  0  0
M  END
>  <minimizedAffinity>
-4.18575811

$$$$

 OpenBabel03242516103D

 24 26  0  0  0  0  0  0  0  0999 V2000
   37.2840   27.1370   42.4240 C   0  0  0  0  0  0  0  0  0  0  0  0
   37.8540   27.6910   43.6800 C   0  0  0  0  0  0  0  0  0  0  0  0
   36.4300   27.3210   43.6280 C   0  0  0  0  0  0  0  0  0  0  0  0
   38.1600   28.7410   43.6940 H   0  0  0  0  0  0  0  0  0  0  0  0
   38.5130   27.0100   44.2340 H   0  0  0  0  0  0  0  0  0  0  0  0
   35.6260   28.1050   43.6130 H   0  0  0  0  0  0  0  0  0  0  0  0
   36.0840   26.4280   44.2170 H   0  0  0  0  0  0  0  0  0  0  0  0
   38.1960   28.4850   40.5050 C   0  0  0  0  0  0  0  0  0  0  0  0
   37.1090   28.0590   41.2690 C   0  0  0  0  0  0  0  0  0  0  0  0
   35.8350   28.5410   40.8950 C   0  0  0  0  0  0  0  0  0  0  0  0
   35.7280   29.3820   39.8260 N   0  0  0  0  0  0  0  0  0  0  0  0
   36.8050   29.7650   39.1200 C   0  0  0  0  0  0  0  0  0  0  0  0
   38.0220   29.3130   39.4660 N   0  0  0  0  0  0  0  0  0  0  0  0
   39.1930   28.1560   40.7350 H   0  0  0  0  0  0  0  0  0  0  0  0
   34.9620   28.2370   41.4580 H   0  0  0  0  0  0  0  0  0  0  0  0
   36.5270   30.4290   38.3150 H   0  0  0  0  0  0  0  0  0  0  0  0
   37.5340   25.7160   42.0560 C   0  0  0  0  0  0  0  0  0  0  0  0
   38.5060   24.8520   42.4690 C   0  0  0  0  0  0  0  0  0  0  0  0
   39.2840   25.0900   43.1690 H   0  0  0  0  0  0  0  0  0  0  0  0
   38.3350   23.6630   41.8670 N   0  0  0  0  0  0  0  0  0  0  0  0
   38.8930   22.7730   41.9480 H   0  0  0  0  0  0  0  0  0  0  0  0
   37.2460   23.7570   41.0550 C   0  0  0  0  0  0  0  0  0  0  0  0
   36.7560   23.0640   40.4010 H   0  0  0  0  0  0  0  0  0  0  0  0
   36.7810   24.9920   41.1830 N   0  0  0  0  0  0  0  0  0  0  0  0
  1  3  1  0  0  0  0
  1  2  1  0  0  0  0
  2  4  1  0  0  0  0
  2  5  1  0  0  0  0
  3  2  1  0  0  0  0
  3  7  1  0  0  0  0
  6  3  1  0  0  0  0
  8 14  1  0  0  0  0
  8  9  1  0  0  0  0
  9  1  1  0  0  0  0
 10  9  2  0  0  0  0
 10 15  1  0  0  0  0
 11 10  1  0  0  0  0
 12 13  1  0  0  0  0
 12 11  2  0  0  0  0
 13  8  2  0  0  0  0
 16 12  1  0  0  0  0
 17  1  1  0  0  0  0
 17 18  2  0  0  0  0
 18 19  1  0  0  0  0
 20 21  1  0  0  0  0
 20 18  1  0  0  0  0
 22 24  2  0  0  0  0
 22 20  1  0  0  0  0
 23 22  1  0  0  0  0
 24 17  1  0  0  0  0
M  END
>  <minimizedAffinity>
-4.18371582

$$$$

 OpenBabel03242516103D

 24 26  0  0  0  0  0  0  0  0999 V2000
   37.9620   26.0180   41.8950 C   0  0  0  0  0  0  0  0  0  0  0  0
   37.2850   25.2340   40.8300 C   0  0  0  0  0  0  0  0  0  0  0  0
   36.9510   24.9840   42.2420 C   0  0  0  0  0  0  0  0  0  0  0  0
   37.8770   24.5140   40.2580 H   0  0  0  0  0  0  0  0  0  0  0  0
   36.5390   25.7870   40.2450 H   0  0  0  0  0  0  0  0  0  0  0  0
   37.2850   24.0440   42.7600 H   0  0  0  0  0  0  0  0  0  0  0  0
   35.9360   25.2880   42.6170 H   0  0  0  0  0  0  0  0  0  0  0  0
   40.2960   25.4790   41.1270 C   0  0  0  0  0  0  0  0  0  0  0  0
   39.3990   25.7390   42.1630 C   0  0  0  0  0  0  0  0  0  0  0  0
   39.9170   25.7280   43.4770 C   0  0  0  0  0  0  0  0  0  0  0  0
   41.2430   25.4690   43.6690 N   0  0  0  0  0  0  0  0  0  0  0  0
   42.0690   25.2240   42.6380 C   0  0  0  0  0  0  0  0  0  0  0  0
   41.5880   25.2320   41.3830 N   0  0  0  0  0  0  0  0  0  0  0  0
   39.9690   25.4720   40.1030 H   0  0  0  0  0  0  0  0  0  0  0  0
   39.2580   25.9250   44.3130 H   0  0  0  0  0  0  0  0  0  0  0  0
   43.0760   25.0410   42.9810 H   0  0  0  0  0  0  0  0  0  0  0  0
   37.5350   27.4160   42.1770 C   0  0  0  0  0  0  0  0  0  0  0  0
   37.2890   28.0450   43.3630 C   0  0  0  0  0  0  0  0  0  0  0  0
   37.3760   27.5900   44.3310 H   0  0  0  0  0  0  0  0  0  0  0  0
   36.9250   29.3180   43.1290 N   0  0  0  0  0  0  0  0  0  0  0  0
   36.6650   30.0850   43.8020 H   0  0  0  0  0  0  0  0  0  0  0  0
   36.9330   29.5150   41.7820 C   0  0  0  0  0  0  0  0  0  0  0  0
   36.7140   30.3620   41.1630 H   0  0  0  0  0  0  0  0  0  0  0  0
   37.3010   28.3670   41.2310 N   0  0  0  0  0  0  0  0  0  0  0  0
  1  9  1  0  0  0  0
  1 17  1  0  0  0  0
  1  3  1  0  0  0  0
  2  1  1  0  0  0  0
  2  3  1  0  0  0  0
  3  7  1  0  0  0  0
  3  6  1  0  0  0  0
  4  2  1  0  0  0  0
  5  2  1  0  0  0  0
  8 13  2  0  0  0  0
  8  9  1  0  0  0  0
  9 10  2  0  0  0  0
 10 11  1  0  0  0  0
 10 15  1  0  0  0  0
 12 16  1  0  0  0  0
 12 11  2  0  0  0  0
 13 12  1  0  0  0  0
 14  8  1  0  0  0  0
 17 18  2  0  0  0  0
 18 19  1  0  0  0  0
 20 18  1  0  0  0  0
 20 21  1  0  0  0  0
 22 20  1  0  0  0  0
 23 22  1  0  0  0  0
 24 22  2  0  0  0  0
 24 17  1  0  0  0  0
M  END
>  <minimizedAffinity>
-4.07354784

$$$$

 OpenBabel03242516103D

 24 26  0  0  0  0  0  0  0  0999 V2000
   39.0970   26.4200   42.5280 C   0  0  0  0  0  0  0  0  0  0  0  0
   39.8790   25.8990   43.6800 C   0  0  0  0  0  0  0  0  0  0  0  0
   40.5700   26.6150   42.5950 C   0  0  0  0  0  0  0  0  0  0  0  0
   39.9820   24.8160   43.7900 H   0  0  0  0  0  0  0  0  0  0  0  0
   39.7490   26.4490   44.6200 H   0  0  0  0  0  0  0  0  0  0  0  0
   41.2280   26.0700   41.8660 H   0  0  0  0  0  0  0  0  0  0  0  0
   40.9970   27.6330   42.8090 H   0  0  0  0  0  0  0  0  0  0  0  0
   38.1980   24.1440   41.9450 C   0  0  0  0  0  0  0  0  0  0  0  0
   38.5440   25.4390   41.5560 C   0  0  0  0  0  0  0  0  0  0  0  0
   38.3440   25.7750   40.1990 C   0  0  0  0  0  0  0  0  0  0  0  0
   37.8320   24.8390   39.3490 N   0  0  0  0  0  0  0  0  0  0  0  0
   37.5130   23.6040   39.7700 C   0  0  0  0  0  0  0  0  0  0  0  0
   37.6980   23.2720   41.0580 N   0  0  0  0  0  0  0  0  0  0  0  0
   38.3240   23.8220   42.9620 H   0  0  0  0  0  0  0  0  0  0  0  0
   38.5980   26.7690   39.8510 H   0  0  0  0  0  0  0  0  0  0  0  0
   37.1240   23.0050   38.9600 H   0  0  0  0  0  0  0  0  0  0  0  0
   38.3030   27.6710   42.6730 C   0  0  0  0  0  0  0  0  0  0  0  0
   37.4460   28.0660   43.6580 C   0  0  0  0  0  0  0  0  0  0  0  0
   37.2060   27.4930   44.5330 H   0  0  0  0  0  0  0  0  0  0  0  0
   36.9540   29.2820   43.3640 N   0  0  0  0  0  0  0  0  0  0  0  0
   36.2730   29.8870   43.8940 H   0  0  0  0  0  0  0  0  0  0  0  0
   37.4940   29.6770   42.1780 C   0  0  0  0  0  0  0  0  0  0  0  0
   37.3850   30.5590   41.5800 H   0  0  0  0  0  0  0  0  0  0  0  0
   38.2980   28.7000   41.7820 N   0  0  0  0  0  0  0  0  0  0  0  0
  1  3  1  0  0  0  0
  1 17  1  0  0  0  0
  1  2  1  0  0  0  0
  2  4  1  0  0  0  0
  2  5  1  0  0  0  0
  3  7  1  0  0  0  0
  3  2  1  0  0  0  0
  6  3  1  0  0  0  0
  8 14  1  0  0  0  0
  9  8  1  0  0  0  0
  9  1  1  0  0  0  0
 10  9  2  0  0  0  0
 11 12  2  0  0  0  0
 11 10  1  0  0  0  0
 12 13  1  0  0  0  0
 13  8  2  0  0  0  0
 15 10  1  0  0  0  0
 16 12  1  0  0  0  0
 17 18  2  0  0  0  0
 18 19  1  0  0  0  0
 20 18  1  0  0  0  0
 20 21  1  0  0  0  0
 22 20  1  0  0  0  0
 23 22  1  0  0  0  0
 24 22  2  0  0  0  0
 24 17  1  0  0  0  0
M  END
>  <minimizedAffinity>
-3.96238518

$$$$
