
 OpenBabel03242512323D

 37 39  0  0  1  0  0  0  0  0999 V2000
   37.7010   29.2470   41.3950 C   0  0  1  0  0  0  0  0  0  0  0  0
   37.5600   29.1590   42.9040 C   0  0  0  0  0  0  0  0  0  0  0  0
   37.8610   27.7630   43.3610 C   0  0  0  0  0  0  0  0  0  0  0  0
   36.9690   26.7970   42.6510 C   0  0  0  0  0  0  0  0  0  0  0  0
   37.0290   26.9260   41.1600 C   0  0  0  0  0  0  0  0  0  0  0  0
   36.5900   28.3370   40.8080 C   0  0  2  0  0  0  0  0  0  0  0  0
   38.6210   28.7920   41.0230 H   0  0  0  0  0  0  0  0  0  0  0  0
   38.1590   29.9290   43.4200 H   0  0  0  0  0  0  0  0  0  0  0  0
   36.4720   29.3380   43.1340 H   0  0  0  0  0  0  0  0  0  0  0  0
   38.9230   27.5600   43.1520 H   0  0  0  0  0  0  0  0  0  0  0  0
   37.6880   27.6750   44.4460 H   0  0  0  0  0  0  0  0  0  0  0  0
   35.9240   26.9250   42.9800 H   0  0  0  0  0  0  0  0  0  0  0  0
   37.2840   25.7650   42.9180 H   0  0  0  0  0  0  0  0  0  0  0  0
   36.3170   26.2000   40.7220 H   0  0  0  0  0  0  0  0  0  0  0  0
   38.0240   26.6860   40.7580 H   0  0  0  0  0  0  0  0  0  0  0  0
   35.6790   28.5470   41.4530 H   0  0  0  0  0  0  0  0  0  0  0  0
   36.3280   28.5270   39.4000 C   0  0  0  0  0  0  0  0  0  0  0  0
   35.2860   29.0160   38.6220 C   0  0  0  0  0  0  0  0  0  0  0  0
   34.3750   29.3780   39.1250 H   0  0  0  0  0  0  0  0  0  0  0  0
   35.5500   28.9760   37.3120 N   0  0  0  0  0  0  0  0  0  0  0  0
   34.8600   29.3110   36.5910 H   0  0  0  0  0  0  0  0  0  0  0  0
   36.7710   28.4580   37.2190 C   0  0  0  0  0  0  0  0  0  0  0  0
   37.2880   28.2870   36.2800 H   0  0  0  0  0  0  0  0  0  0  0  0
   37.2420   28.1880   38.4480 N   0  0  0  0  0  0  0  0  0  0  0  0
   37.4820   30.6520   40.9930 C   0  0  0  0  0  0  0  0  0  0  0  0
   36.3200   31.0540   41.2810 O   0  0  0  0  0  0  0  0  0  0  0  0
   39.4230   32.1900   38.3450 C   0  0  0  0  0  0  0  0  0  0  0  0
   40.3680   32.9580   39.0200 C   0  0  0  0  0  0  0  0  0  0  0  0
   40.3430   32.9590   40.4200 C   0  0  0  0  0  0  0  0  0  0  0  0
   39.3880   32.2010   40.9980 N   0  0  0  0  0  0  0  0  0  0  0  0
   38.4870   31.4700   40.3480 C   0  0  0  0  0  0  0  0  0  0  0  0
   38.4990   31.4600   38.9940 N   0  0  0  0  0  0  0  0  0  0  0  0
   39.4420   32.1830   36.9260 N   0  0  0  0  0  0  0  0  0  0  0  0
   41.0830   33.5220   38.4510 H   0  0  0  0  0  0  0  0  0  0  0  0
   41.0660   33.5470   40.9550 H   0  0  0  0  0  0  0  0  0  0  0  0
   40.1380   31.7680   36.2680 H   0  0  0  0  0  0  0  0  0  0  0  0
   38.6680   32.6500   36.4030 H   0  0  0  0  0  0  0  0  0  0  0  0
  1  7  1  6  0  0  0
  1  2  1  0  0  0  0
  2  9  1  0  0  0  0
  2  3  1  0  0  0  0
  2  8  1  0  0  0  0
  3 11  1  0  0  0  0
  4 13  1  0  0  0  0
  4 12  1  0  0  0  0
  4  3  1  0  0  0  0
  5  4  1  0  0  0  0
  6  5  1  0  0  0  0
  6  1  1  0  0  0  0
  6 16  1  1  0  0  0
 10  3  1  0  0  0  0
 14  5  1  0  0  0  0
 15  5  1  0  0  0  0
 17  6  1  0  0  0  0
 18 19  1  0  0  0  0
 18 17  2  0  0  0  0
 20 18  1  0  0  0  0
 21 20  1  0  0  0  0
 22 20  1  0  0  0  0
 22 24  2  0  0  0  0
 23 22  1  0  0  0  0
 24 17  1  0  0  0  0
 25 26  2  0  0  0  0
 25  1  1  0  0  0  0
 27 32  2  0  0  0  0
 27 28  1  0  0  0  0
 28 29  2  0  0  0  0
 29 35  1  0  0  0  0
 29 30  1  0  0  0  0
 31 25  1  0  0  0  0
 31 30  2  0  0  0  0
 32 31  1  0  0  0  0
 33 27  1  0  0  0  0
 34 28  1  0  0  0  0
 36 33  1  0  0  0  0
 37 33  1  0  0  0  0
M  END
>  <minimizedAffinity>
-5.39604902

$$$$

 OpenBabel03242512323D

 37 39  0  0  1  0  0  0  0  0999 V2000
   37.5230   30.4740   38.9970 C   0  0  1  0  0  0  0  0  0  0  0  0
   36.8610   31.2130   40.1460 C   0  0  0  0  0  0  0  0  0  0  0  0
   36.2120   30.2300   41.0740 C   0  0  0  0  0  0  0  0  0  0  0  0
   35.2450   29.3820   40.3140 C   0  0  0  0  0  0  0  0  0  0  0  0
   35.8590   28.7110   39.1230 C   0  0  0  0  0  0  0  0  0  0  0  0
   36.3720   29.8030   38.2010 C   0  0  2  0  0  0  0  0  0  0  0  0
   38.1300   29.6270   39.3240 H   0  0  0  0  0  0  0  0  0  0  0  0
   37.5610   31.9000   40.6530 H   0  0  0  0  0  0  0  0  0  0  0  0
   36.0260   31.8200   39.6960 H   0  0  0  0  0  0  0  0  0  0  0  0
   37.0070   29.6220   41.5340 H   0  0  0  0  0  0  0  0  0  0  0  0
   35.6660   30.7650   41.8690 H   0  0  0  0  0  0  0  0  0  0  0  0
   34.3830   29.9850   39.9800 H   0  0  0  0  0  0  0  0  0  0  0  0
   34.8600   28.5900   40.9930 H   0  0  0  0  0  0  0  0  0  0  0  0
   35.0680   28.1350   38.6060 H   0  0  0  0  0  0  0  0  0  0  0  0
   36.6470   27.9970   39.4050 H   0  0  0  0  0  0  0  0  0  0  0  0
   35.5530   30.5890   38.1660 H   0  0  0  0  0  0  0  0  0  0  0  0
   36.7390   29.3260   36.8870 C   0  0  0  0  0  0  0  0  0  0  0  0
   37.6300   28.4000   36.3590 C   0  0  0  0  0  0  0  0  0  0  0  0
   38.2690   27.8280   37.0510 H   0  0  0  0  0  0  0  0  0  0  0  0
   37.5810   28.3310   35.0250 N   0  0  0  0  0  0  0  0  0  0  0  0
   38.1940   27.6760   34.4750 H   0  0  0  0  0  0  0  0  0  0  0  0
   36.6540   29.2150   34.6650 C   0  0  0  0  0  0  0  0  0  0  0  0
   36.3680   29.4090   33.6360 H   0  0  0  0  0  0  0  0  0  0  0  0
   36.1490   29.8110   35.7580 N   0  0  0  0  0  0  0  0  0  0  0  0
   38.2230   31.4660   38.1540 C   0  0  0  0  0  0  0  0  0  0  0  0
   37.4540   32.3900   37.7700 O   0  0  0  0  0  0  0  0  0  0  0  0
   41.5510   32.5280   37.1810 C   0  0  0  0  0  0  0  0  0  0  0  0
   42.2810   31.3430   37.1270 C   0  0  0  0  0  0  0  0  0  0  0  0
   41.6250   30.1460   37.4340 C   0  0  0  0  0  0  0  0  0  0  0  0
   40.3200   30.2490   37.7620 N   0  0  0  0  0  0  0  0  0  0  0  0
   39.6270   31.3830   37.8140 C   0  0  0  0  0  0  0  0  0  0  0  0
   40.2490   32.5500   37.5190 N   0  0  0  0  0  0  0  0  0  0  0  0
   42.2070   33.7460   36.8700 N   0  0  0  0  0  0  0  0  0  0  0  0
   43.3180   31.3840   36.8510 H   0  0  0  0  0  0  0  0  0  0  0  0
   42.1760   29.2240   37.3950 H   0  0  0  0  0  0  0  0  0  0  0  0
   42.5650   34.0990   35.9550 H   0  0  0  0  0  0  0  0  0  0  0  0
   42.3900   34.4360   37.6320 H   0  0  0  0  0  0  0  0  0  0  0  0
  1  7  1  1  0  0  0
  1  2  1  0  0  0  0
  2  8  1  0  0  0  0
  2  3  1  0  0  0  0
  3 10  1  0  0  0  0
  3 11  1  0  0  0  0
  4 13  1  0  0  0  0
  4  3  1  0  0  0  0
  5 15  1  0  0  0  0
  5  4  1  0  0  0  0
  6 16  1  6  0  0  0
  6  1  1  0  0  0  0
  6  5  1  0  0  0  0
  9  2  1  0  0  0  0
 12  4  1  0  0  0  0
 14  5  1  0  0  0  0
 17  6  1  0  0  0  0
 18 17  2  0  0  0  0
 18 19  1  0  0  0  0
 20 18  1  0  0  0  0
 21 20  1  0  0  0  0
 22 20  1  0  0  0  0
 22 24  2  0  0  0  0
 23 22  1  0  0  0  0
 24 17  1  0  0  0  0
 25  1  1  0  0  0  0
 26 25  2  0  0  0  0
 27 32  1  0  0  0  0
 28 27  2  0  0  0  0
 28 29  1  0  0  0  0
 29 30  2  0  0  0  0
 30 31  1  0  0  0  0
 31 25  1  0  0  0  0
 32 31  2  0  0  0  0
 33 27  1  0  0  0  0
 33 37  1  0  0  0  0
 34 28  1  0  0  0  0
 35 29  1  0  0  0  0
 36 33  1  0  0  0  0
M  END
>  <minimizedAffinity>
-5.36268616

$$$$

 OpenBabel03242512323D

 37 39  0  0  1  0  0  0  0  0999 V2000
   37.0020   27.5290   40.4350 C   0  0  1  0  0  0  0  0  0  0  0  0
   37.6250   26.2030   40.8340 C   0  0  0  0  0  0  0  0  0  0  0  0
   37.0520   25.7480   42.1430 C   0  0  0  0  0  0  0  0  0  0  0  0
   37.2570   26.8050   43.1790 C   0  0  0  0  0  0  0  0  0  0  0  0
   36.7250   28.1440   42.7670 C   0  0  0  0  0  0  0  0  0  0  0  0
   37.4600   28.5560   41.5040 C   0  0  2  0  0  0  0  0  0  0  0  0
   35.9140   27.5370   40.5290 H   0  0  0  0  0  0  0  0  0  0  0  0
   37.5420   25.4500   40.0320 H   0  0  0  0  0  0  0  0  0  0  0  0
   38.7160   26.4080   41.0220 H   0  0  0  0  0  0  0  0  0  0  0  0
   35.9820   25.5360   41.9890 H   0  0  0  0  0  0  0  0  0  0  0  0
   37.5550   24.8240   42.4740 H   0  0  0  0  0  0  0  0  0  0  0  0
   38.3300   26.9050   43.4200 H   0  0  0  0  0  0  0  0  0  0  0  0
   36.7290   26.4970   44.1060 H   0  0  0  0  0  0  0  0  0  0  0  0
   36.9490   28.8670   43.5750 H   0  0  0  0  0  0  0  0  0  0  0  0
   35.6340   28.1370   42.6320 H   0  0  0  0  0  0  0  0  0  0  0  0
   38.5530   28.3080   41.6870 H   0  0  0  0  0  0  0  0  0  0  0  0
   37.2590   29.9410   41.1430 C   0  0  0  0  0  0  0  0  0  0  0  0
   36.1750   30.7820   40.9230 C   0  0  0  0  0  0  0  0  0  0  0  0
   35.1590   30.3720   41.0310 H   0  0  0  0  0  0  0  0  0  0  0  0
   36.5390   32.0270   40.5990 N   0  0  0  0  0  0  0  0  0  0  0  0
   35.8340   32.7820   40.4020 H   0  0  0  0  0  0  0  0  0  0  0  0
   37.8690   32.0130   40.6030 C   0  0  0  0  0  0  0  0  0  0  0  0
   38.4850   32.8770   40.3760 H   0  0  0  0  0  0  0  0  0  0  0  0
   38.3070   30.7840   40.9220 N   0  0  0  0  0  0  0  0  0  0  0  0
   37.5250   27.9020   39.1040 C   0  0  0  0  0  0  0  0  0  0  0  0
   38.7840   27.8190   39.0480 O   0  0  0  0  0  0  0  0  0  0  0  0
   36.5610   28.8090   35.7280 C   0  0  0  0  0  0  0  0  0  0  0  0
   35.2040   29.1030   35.8320 C   0  0  0  0  0  0  0  0  0  0  0  0
   34.5950   28.9850   37.0870 C   0  0  0  0  0  0  0  0  0  0  0  0
   35.3920   28.5890   38.1010 N   0  0  0  0  0  0  0  0  0  0  0  0
   36.6880   28.3090   37.9960 C   0  0  0  0  0  0  0  0  0  0  0  0
   37.2910   28.4190   36.7890 N   0  0  0  0  0  0  0  0  0  0  0  0
   37.1880   28.9280   34.4610 N   0  0  0  0  0  0  0  0  0  0  0  0
   34.6700   29.4110   34.9520 H   0  0  0  0  0  0  0  0  0  0  0  0
   33.5470   29.2090   37.1810 H   0  0  0  0  0  0  0  0  0  0  0  0
   37.4080   29.7800   33.9000 H   0  0  0  0  0  0  0  0  0  0  0  0
   37.4970   28.0640   33.9620 H   0  0  0  0  0  0  0  0  0  0  0  0
  1  7  1  6  0  0  0
  1  2  1  0  0  0  0
  1  6  1  0  0  0  0
  2  9  1  0  0  0  0
  2  3  1  0  0  0  0
  3 11  1  0  0  0  0
  3  4  1  0  0  0  0
  4 12  1  0  0  0  0
  4 13  1  0  0  0  0
  5  4  1  0  0  0  0
  5 14  1  0  0  0  0
  6 16  1  1  0  0  0
  6  5  1  0  0  0  0
  8  2  1  0  0  0  0
 10  3  1  0  0  0  0
 15  5  1  0  0  0  0
 17  6  1  0  0  0  0
 18 19  1  0  0  0  0
 18 17  2  0  0  0  0
 20 22  1  0  0  0  0
 20 18  1  0  0  0  0
 21 20  1  0  0  0  0
 22 24  2  0  0  0  0
 23 22  1  0  0  0  0
 24 17  1  0  0  0  0
 25  1  1  0  0  0  0
 26 25  2  0  0  0  0
 27 28  2  0  0  0  0
 27 32  1  0  0  0  0
 28 29  1  0  0  0  0
 29 35  1  0  0  0  0
 29 30  2  0  0  0  0
 31 30  1  0  0  0  0
 31 25  1  0  0  0  0
 32 31  2  0  0  0  0
 33 27  1  0  0  0  0
 34 28  1  0  0  0  0
 36 33  1  0  0  0  0
 37 33  1  0  0  0  0
M  END
>  <minimizedAffinity>
-5.31367874

$$$$

 OpenBabel03242512323D

 37 39  0  0  1  0  0  0  0  0999 V2000
   37.1870   29.3140   41.9680 C   0  0  1  0  0  0  0  0  0  0  0  0
   36.4830   27.9780   41.8110 C   0  0  0  0  0  0  0  0  0  0  0  0
   36.8510   27.0740   42.9490 C   0  0  0  0  0  0  0  0  0  0  0  0
   38.3360   26.9270   43.0160 C   0  0  0  0  0  0  0  0  0  0  0  0
   39.0560   28.2390   43.0840 C   0  0  0  0  0  0  0  0  0  0  0  0
   38.7040   29.0160   41.8280 C   0  0  2  0  0  0  0  0  0  0  0  0
   37.1040   29.7270   42.9750 H   0  0  0  0  0  0  0  0  0  0  0  0
   35.3930   28.0990   41.6800 H   0  0  0  0  0  0  0  0  0  0  0  0
   36.9040   27.5030   40.8810 H   0  0  0  0  0  0  0  0  0  0  0  0
   36.4470   27.5130   43.8750 H   0  0  0  0  0  0  0  0  0  0  0  0
   36.4010   26.0780   42.8000 H   0  0  0  0  0  0  0  0  0  0  0  0
   38.7060   26.3600   42.1440 H   0  0  0  0  0  0  0  0  0  0  0  0
   38.5920   26.3480   43.9290 H   0  0  0  0  0  0  0  0  0  0  0  0
   40.1440   28.0350   43.0970 H   0  0  0  0  0  0  0  0  0  0  0  0
   38.8200   28.7990   44.0020 H   0  0  0  0  0  0  0  0  0  0  0  0
   38.7700   28.2710   40.9740 H   0  0  0  0  0  0  0  0  0  0  0  0
   39.5350   30.1790   41.6150 C   0  0  0  0  0  0  0  0  0  0  0  0
   39.7860   31.3780   42.2710 C   0  0  0  0  0  0  0  0  0  0  0  0
   39.2560   31.5840   43.2150 H   0  0  0  0  0  0  0  0  0  0  0  0
   40.6780   32.1440   41.6350 N   0  0  0  0  0  0  0  0  0  0  0  0
   40.9740   33.0830   42.0050 H   0  0  0  0  0  0  0  0  0  0  0  0
   41.0190   31.4530   40.5510 C   0  0  0  0  0  0  0  0  0  0  0  0
   41.7340   31.7990   39.8110 H   0  0  0  0  0  0  0  0  0  0  0  0
   40.3500   30.2890   40.5280 N   0  0  0  0  0  0  0  0  0  0  0  0
   36.7340   30.2050   40.8790 C   0  0  0  0  0  0  0  0  0  0  0  0
   36.1100   31.2120   41.3180 O   0  0  0  0  0  0  0  0  0  0  0  0
   37.6530   30.8180   37.4260 C   0  0  0  0  0  0  0  0  0  0  0  0
   37.4550   29.5890   36.8010 C   0  0  0  0  0  0  0  0  0  0  0  0
   37.0000   28.5170   37.5760 C   0  0  0  0  0  0  0  0  0  0  0  0
   36.7900   28.7750   38.8840 N   0  0  0  0  0  0  0  0  0  0  0  0
   36.9820   29.9500   39.4770 C   0  0  0  0  0  0  0  0  0  0  0  0
   37.4220   30.9970   38.7390 N   0  0  0  0  0  0  0  0  0  0  0  0
   38.1130   31.9110   36.6470 N   0  0  0  0  0  0  0  0  0  0  0  0
   37.6550   29.5030   35.7490 H   0  0  0  0  0  0  0  0  0  0  0  0
   36.8420   27.5630   37.1070 H   0  0  0  0  0  0  0  0  0  0  0  0
   37.6240   32.4550   35.9030 H   0  0  0  0  0  0  0  0  0  0  0  0
   39.0830   32.2700   36.7950 H   0  0  0  0  0  0  0  0  0  0  0  0
  1  7  1  1  0  0  0
  2  1  1  0  0  0  0
  2  3  1  0  0  0  0
  3  4  1  0  0  0  0
  3 10  1  0  0  0  0
  4  5  1  0  0  0  0
  4 13  1  0  0  0  0
  5 14  1  0  0  0  0
  5 15  1  0  0  0  0
  6 16  1  6  0  0  0
  6  1  1  0  0  0  0
  6  5  1  0  0  0  0
  8  2  1  0  0  0  0
  9  2  1  0  0  0  0
 11  3  1  0  0  0  0
 12  4  1  0  0  0  0
 17  6  1  0  0  0  0
 17 18  2  0  0  0  0
 18 19  1  0  0  0  0
 20 21  1  0  0  0  0
 20 18  1  0  0  0  0
 22 20  1  0  0  0  0
 23 22  1  0  0  0  0
 24 22  2  0  0  0  0
 24 17  1  0  0  0  0
 25 26  2  0  0  0  0
 25  1  1  0  0  0  0
 27 32  1  0  0  0  0
 28 27  2  0  0  0  0
 28 29  1  0  0  0  0
 29 30  2  0  0  0  0
 30 31  1  0  0  0  0
 31 25  1  0  0  0  0
 32 31  2  0  0  0  0
 33 37  1  0  0  0  0
 33 27  1  0  0  0  0
 34 28  1  0  0  0  0
 35 29  1  0  0  0  0
 36 33  1  0  0  0  0
M  END
>  <minimizedAffinity>
-5.25525379

$$$$

 OpenBabel03242512323D

 37 39  0  0  1  0  0  0  0  0999 V2000
   38.7630   29.2430   42.8790 C   0  0  1  0  0  0  0  0  0  0  0  0
   37.3000   29.0330   42.5280 C   0  0  0  0  0  0  0  0  0  0  0  0
   36.7770   27.8220   43.2390 C   0  0  0  0  0  0  0  0  0  0  0  0
   37.6180   26.6340   42.8990 C   0  0  0  0  0  0  0  0  0  0  0  0
   39.0770   26.8520   43.1570 C   0  0  0  0  0  0  0  0  0  0  0  0
   39.5220   28.0220   42.2970 C   0  0  2  0  0  0  0  0  0  0  0  0
   38.9600   29.1750   43.9510 H   0  0  0  0  0  0  0  0  0  0  0  0
   36.6980   29.9420   42.7050 H   0  0  0  0  0  0  0  0  0  0  0  0
   37.2690   28.7920   41.4280 H   0  0  0  0  0  0  0  0  0  0  0  0
   36.7930   28.0300   44.3200 H   0  0  0  0  0  0  0  0  0  0  0  0
   35.7380   27.6210   42.9290 H   0  0  0  0  0  0  0  0  0  0  0  0
   37.4800   26.3560   41.8400 H   0  0  0  0  0  0  0  0  0  0  0  0
   37.2840   25.7760   43.5210 H   0  0  0  0  0  0  0  0  0  0  0  0
   39.6220   25.9410   42.8480 H   0  0  0  0  0  0  0  0  0  0  0  0
   39.2940   27.0130   44.2240 H   0  0  0  0  0  0  0  0  0  0  0  0
   39.0500   27.8520   41.2780 H   0  0  0  0  0  0  0  0  0  0  0  0
   40.9570   28.1750   42.2250 C   0  0  0  0  0  0  0  0  0  0  0  0
   41.9040   28.3790   41.2300 C   0  0  0  0  0  0  0  0  0  0  0  0
   41.5640   28.4590   40.1850 H   0  0  0  0  0  0  0  0  0  0  0  0
   43.1520   28.4540   41.7040 N   0  0  0  0  0  0  0  0  0  0  0  0
   43.9810   28.6060   41.0760 H   0  0  0  0  0  0  0  0  0  0  0  0
   43.0330   28.2980   43.0200 C   0  0  0  0  0  0  0  0  0  0  0  0
   43.8710   28.3070   43.7100 H   0  0  0  0  0  0  0  0  0  0  0  0
   41.7390   28.1320   43.3400 N   0  0  0  0  0  0  0  0  0  0  0  0
   39.2180   30.4910   42.2300 C   0  0  0  0  0  0  0  0  0  0  0  0
   40.0450   31.1230   42.9440 O   0  0  0  0  0  0  0  0  0  0  0  0
   37.6130   32.5360   39.7020 C   0  0  0  0  0  0  0  0  0  0  0  0
   37.8370   31.8420   38.5160 C   0  0  0  0  0  0  0  0  0  0  0  0
   38.5590   30.6450   38.5740 C   0  0  0  0  0  0  0  0  0  0  0  0
   38.9820   30.2640   39.7970 N   0  0  0  0  0  0  0  0  0  0  0  0
   38.7660   30.9300   40.9270 C   0  0  0  0  0  0  0  0  0  0  0  0
   38.0690   32.0910   40.8870 N   0  0  0  0  0  0  0  0  0  0  0  0
   36.8810   33.7500   39.6530 N   0  0  0  0  0  0  0  0  0  0  0  0
   37.4490   32.2450   37.5980 H   0  0  0  0  0  0  0  0  0  0  0  0
   38.7380   30.0990   37.6650 H   0  0  0  0  0  0  0  0  0  0  0  0
   35.8690   33.9140   39.4570 H   0  0  0  0  0  0  0  0  0  0  0  0
   37.3760   34.6520   39.8300 H   0  0  0  0  0  0  0  0  0  0  0  0
  1  7  1  1  0  0  0
  2  8  1  0  0  0  0
  2  1  1  0  0  0  0
  2  3  1  0  0  0  0
  3 10  1  0  0  0  0
  4  5  1  0  0  0  0
  4  3  1  0  0  0  0
  4 13  1  0  0  0  0
  5 15  1  0  0  0  0
  6 16  1  6  0  0  0
  6  1  1  0  0  0  0
  6  5  1  0  0  0  0
  9  2  1  0  0  0  0
 11  3  1  0  0  0  0
 12  4  1  0  0  0  0
 14  5  1  0  0  0  0
 17  6  1  0  0  0  0
 17 24  1  0  0  0  0
 18 20  1  0  0  0  0
 18 17  2  0  0  0  0
 19 18  1  0  0  0  0
 20 22  1  0  0  0  0
 21 20  1  0  0  0  0
 22 24  2  0  0  0  0
 22 23  1  0  0  0  0
 25  1  1  0  0  0  0
 25 26  2  0  0  0  0
 27 32  1  0  0  0  0
 28 29  1  0  0  0  0
 28 27  2  0  0  0  0
 29 30  2  0  0  0  0
 30 31  1  0  0  0  0
 31 25  1  0  0  0  0
 32 31  2  0  0  0  0
 33 27  1  0  0  0  0
 33 37  1  0  0  0  0
 34 28  1  0  0  0  0
 35 29  1  0  0  0  0
 36 33  1  0  0  0  0
M  END
>  <minimizedAffinity>
-5.2198658

$$$$

 OpenBabel03242512323D

 37 39  0  0  1  0  0  0  0  0999 V2000
   38.3940   27.6970   41.9050 C   0  0  1  0  0  0  0  0  0  0  0  0
   38.7840   26.8870   43.1290 C   0  0  0  0  0  0  0  0  0  0  0  0
   38.9600   25.4470   42.7480 C   0  0  0  0  0  0  0  0  0  0  0  0
   37.7100   24.9380   42.1060 C   0  0  0  0  0  0  0  0  0  0  0  0
   37.2600   25.7760   40.9480 C   0  0  0  0  0  0  0  0  0  0  0  0
   36.9970   27.1750   41.4750 C   0  0  2  0  0  0  0  0  0  0  0  0
   39.0200   27.4880   41.0350 H   0  0  0  0  0  0  0  0  0  0  0  0
   39.6600   27.3150   43.6460 H   0  0  0  0  0  0  0  0  0  0  0  0
   37.9020   26.9230   43.8280 H   0  0  0  0  0  0  0  0  0  0  0  0
   39.8210   25.3800   42.0640 H   0  0  0  0  0  0  0  0  0  0  0  0
   39.1700   24.8420   43.6460 H   0  0  0  0  0  0  0  0  0  0  0  0
   36.8930   24.8810   42.8460 H   0  0  0  0  0  0  0  0  0  0  0  0
   37.9000   23.9090   41.7320 H   0  0  0  0  0  0  0  0  0  0  0  0
   36.3170   25.3470   40.5590 H   0  0  0  0  0  0  0  0  0  0  0  0
   37.9840   25.7700   40.1200 H   0  0  0  0  0  0  0  0  0  0  0  0
   36.4310   27.0380   42.4490 H   0  0  0  0  0  0  0  0  0  0  0  0
   36.2930   28.0230   40.5390 C   0  0  0  0  0  0  0  0  0  0  0  0
   35.1870   28.8630   40.5690 C   0  0  0  0  0  0  0  0  0  0  0  0
   34.6370   28.9780   41.5170 H   0  0  0  0  0  0  0  0  0  0  0  0
   34.9380   29.4400   39.3900 N   0  0  0  0  0  0  0  0  0  0  0  0
   34.1340   30.1040   39.2500 H   0  0  0  0  0  0  0  0  0  0  0  0
   35.8810   28.9810   38.5720 C   0  0  0  0  0  0  0  0  0  0  0  0
   35.9640   29.2570   37.5250 H   0  0  0  0  0  0  0  0  0  0  0  0
   36.6890   28.1410   39.2400 N   0  0  0  0  0  0  0  0  0  0  0  0
   38.3140   29.1190   42.3000 C   0  0  0  0  0  0  0  0  0  0  0  0
   37.8640   29.2620   43.4720 O   0  0  0  0  0  0  0  0  0  0  0  0
   38.0930   32.2110   40.4200 C   0  0  0  0  0  0  0  0  0  0  0  0
   39.3390   32.3250   39.8090 C   0  0  0  0  0  0  0  0  0  0  0  0
   40.2870   31.3230   40.0460 C   0  0  0  0  0  0  0  0  0  0  0  0
   39.9010   30.3190   40.8610 N   0  0  0  0  0  0  0  0  0  0  0  0
   38.7090   30.2150   41.4420 C   0  0  0  0  0  0  0  0  0  0  0  0
   37.7810   31.1770   41.2220 N   0  0  0  0  0  0  0  0  0  0  0  0
   37.1250   33.2210   40.1830 N   0  0  0  0  0  0  0  0  0  0  0  0
   39.5320   33.1710   39.1770 H   0  0  0  0  0  0  0  0  0  0  0  0
   41.2530   31.3980   39.5810 H   0  0  0  0  0  0  0  0  0  0  0  0
   36.5930   33.4480   39.3140 H   0  0  0  0  0  0  0  0  0  0  0  0
   36.8640   33.8690   40.9600 H   0  0  0  0  0  0  0  0  0  0  0  0
  1  7  1  6  0  0  0
  1 25  1  0  0  0  0
  1  2  1  0  0  0  0
  2  8  1  0  0  0  0
  2  9  1  0  0  0  0
  3  2  1  0  0  0  0
  3 11  1  0  0  0  0
  4  3  1  0  0  0  0
  4 12  1  0  0  0  0
  5  6  1  0  0  0  0
  5  4  1  0  0  0  0
  6  1  1  0  0  0  0
  6 16  1  1  0  0  0
 10  3  1  0  0  0  0
 13  4  1  0  0  0  0
 14  5  1  0  0  0  0
 15  5  1  0  0  0  0
 17 18  2  0  0  0  0
 17  6  1  0  0  0  0
 18 19  1  0  0  0  0
 20 18  1  0  0  0  0
 21 20  1  0  0  0  0
 22 24  2  0  0  0  0
 22 20  1  0  0  0  0
 23 22  1  0  0  0  0
 24 17  1  0  0  0  0
 25 26  2  0  0  0  0
 27 32  1  0  0  0  0
 28 29  1  0  0  0  0
 28 27  2  0  0  0  0
 29 30  2  0  0  0  0
 30 31  1  0  0  0  0
 31 25  1  0  0  0  0
 32 31  2  0  0  0  0
 33 27  1  0  0  0  0
 33 37  1  0  0  0  0
 34 28  1  0  0  0  0
 35 29  1  0  0  0  0
 36 33  1  0  0  0  0
M  END
>  <minimizedAffinity>
-5.1678772

$$$$

 OpenBabel03242512323D

 37 39  0  0  1  0  0  0  0  0999 V2000
   37.0320   26.2900   39.6940 C   0  0  1  0  0  0  0  0  0  0  0  0
   36.8340   25.2790   38.5790 C   0  0  0  0  0  0  0  0  0  0  0  0
   35.8720   24.2170   39.0220 C   0  0  0  0  0  0  0  0  0  0  0  0
   36.3670   23.5820   40.2810 C   0  0  0  0  0  0  0  0  0  0  0  0
   36.6520   24.5730   41.3680 C   0  0  0  0  0  0  0  0  0  0  0  0
   37.7210   25.5190   40.8520 C   0  0  2  0  0  0  0  0  0  0  0  0
   36.0940   26.6260   40.1400 H   0  0  0  0  0  0  0  0  0  0  0  0
   36.5480   25.7630   37.6290 H   0  0  0  0  0  0  0  0  0  0  0  0
   37.8260   24.7660   38.4340 H   0  0  0  0  0  0  0  0  0  0  0  0
   34.8890   24.6910   39.1690 H   0  0  0  0  0  0  0  0  0  0  0  0
   35.7830   23.4410   38.2440 H   0  0  0  0  0  0  0  0  0  0  0  0
   37.2810   22.9950   40.0830 H   0  0  0  0  0  0  0  0  0  0  0  0
   35.5890   22.8810   40.6520 H   0  0  0  0  0  0  0  0  0  0  0  0
   37.0420   24.0210   42.2440 H   0  0  0  0  0  0  0  0  0  0  0  0
   35.7470   25.1050   41.6970 H   0  0  0  0  0  0  0  0  0  0  0  0
   38.4930   24.8630   40.3380 H   0  0  0  0  0  0  0  0  0  0  0  0
   38.3000   26.3550   41.8790 C   0  0  0  0  0  0  0  0  0  0  0  0
   39.5740   26.7640   42.2520 C   0  0  0  0  0  0  0  0  0  0  0  0
   40.4360   26.4070   41.6660 H   0  0  0  0  0  0  0  0  0  0  0  0
   39.5720   27.5710   43.3190 N   0  0  0  0  0  0  0  0  0  0  0  0
   40.4590   27.9650   43.7230 H   0  0  0  0  0  0  0  0  0  0  0  0
   38.2910   27.6970   43.6550 C   0  0  0  0  0  0  0  0  0  0  0  0
   37.9400   28.2930   44.4920 H   0  0  0  0  0  0  0  0  0  0  0  0
   37.5290   26.9820   42.8120 N   0  0  0  0  0  0  0  0  0  0  0  0
   37.9160   27.3630   39.1920 C   0  0  0  0  0  0  0  0  0  0  0  0
   39.0060   26.9100   38.7440 O   0  0  0  0  0  0  0  0  0  0  0  0
   36.4380   30.4810   40.3060 C   0  0  0  0  0  0  0  0  0  0  0  0
   36.8160   31.4010   39.3320 C   0  0  0  0  0  0  0  0  0  0  0  0
   37.6020   30.9510   38.2650 C   0  0  0  0  0  0  0  0  0  0  0  0
   37.9280   29.6420   38.2770 N   0  0  0  0  0  0  0  0  0  0  0  0
   37.5650   28.7670   39.2100 C   0  0  0  0  0  0  0  0  0  0  0  0
   36.8050   29.1880   40.2490 N   0  0  0  0  0  0  0  0  0  0  0  0
   35.6400   30.9280   41.3910 N   0  0  0  0  0  0  0  0  0  0  0  0
   36.4950   32.4210   39.4280 H   0  0  0  0  0  0  0  0  0  0  0  0
   37.9010   31.6500   37.5050 H   0  0  0  0  0  0  0  0  0  0  0  0
   34.6440   31.2380   41.4060 H   0  0  0  0  0  0  0  0  0  0  0  0
   36.0600   30.9790   42.3460 H   0  0  0  0  0  0  0  0  0  0  0  0
  1  7  1  1  0  0  0
  1  6  1  0  0  0  0
  2  3  1  0  0  0  0
  2  1  1  0  0  0  0
  3 10  1  0  0  0  0
  3  4  1  0  0  0  0
  4 13  1  0  0  0  0
  4  5  1  0  0  0  0
  5 15  1  0  0  0  0
  5 14  1  0  0  0  0
  6 16  1  6  0  0  0
  6  5  1  0  0  0  0
  6 17  1  0  0  0  0
  8  2  1  0  0  0  0
  9  2  1  0  0  0  0
 11  3  1  0  0  0  0
 12  4  1  0  0  0  0
 17 18  2  0  0  0  0
 17 24  1  0  0  0  0
 18 20  1  0  0  0  0
 19 18  1  0  0  0  0
 20 22  1  0  0  0  0
 20 21  1  0  0  0  0
 22 23  1  0  0  0  0
 24 22  2  0  0  0  0
 25 31  1  0  0  0  0
 25  1  1  0  0  0  0
 26 25  2  0  0  0  0
 27 33  1  0  0  0  0
 28 34  1  0  0  0  0
 28 27  2  0  0  0  0
 29 30  2  0  0  0  0
 29 28  1  0  0  0  0
 30 31  1  0  0  0  0
 31 32  2  0  0  0  0
 32 27  1  0  0  0  0
 33 36  1  0  0  0  0
 33 37  1  0  0  0  0
 35 29  1  0  0  0  0
M  END
>  <minimizedAffinity>
-5.16043711

$$$$

 OpenBabel03242512323D

 37 39  0  0  1  0  0  0  0  0999 V2000
   36.4230   28.9450   38.7660 C   0  0  1  0  0  0  0  0  0  0  0  0
   35.3810   28.3130   37.8600 C   0  0  0  0  0  0  0  0  0  0  0  0
   35.9020   28.2540   36.4550 C   0  0  0  0  0  0  0  0  0  0  0  0
   36.2900   29.6230   36.0020 C   0  0  0  0  0  0  0  0  0  0  0  0
   37.2520   30.2990   36.9300 C   0  0  0  0  0  0  0  0  0  0  0  0
   36.5740   30.4120   38.2840 C   0  0  2  0  0  0  0  0  0  0  0  0
   37.4220   28.5290   38.6250 H   0  0  0  0  0  0  0  0  0  0  0  0
   35.0380   27.3360   38.2430 H   0  0  0  0  0  0  0  0  0  0  0  0
   34.5040   29.0190   37.8420 H   0  0  0  0  0  0  0  0  0  0  0  0
   36.7610   27.5650   36.4400 H   0  0  0  0  0  0  0  0  0  0  0  0
   35.1210   27.8640   35.7790 H   0  0  0  0  0  0  0  0  0  0  0  0
   35.3950   30.2590   35.8880 H   0  0  0  0  0  0  0  0  0  0  0  0
   36.7750   29.5410   35.0060 H   0  0  0  0  0  0  0  0  0  0  0  0
   37.4560   31.3130   36.5370 H   0  0  0  0  0  0  0  0  0  0  0  0
   38.2170   29.7740   36.9890 H   0  0  0  0  0  0  0  0  0  0  0  0
   35.5130   30.7530   38.0710 H   0  0  0  0  0  0  0  0  0  0  0  0
   37.2630   31.2870   39.2060 C   0  0  0  0  0  0  0  0  0  0  0  0
   36.9490   32.4080   39.9640 C   0  0  0  0  0  0  0  0  0  0  0  0
   35.9240   32.8080   39.9150 H   0  0  0  0  0  0  0  0  0  0  0  0
   37.9840   32.8600   40.6800 N   0  0  0  0  0  0  0  0  0  0  0  0
   37.9060   33.7020   41.3050 H   0  0  0  0  0  0  0  0  0  0  0  0
   38.9890   32.0370   40.3950 C   0  0  0  0  0  0  0  0  0  0  0  0
   39.9860   32.1300   40.8150 H   0  0  0  0  0  0  0  0  0  0  0  0
   38.5760   31.1030   39.5240 N   0  0  0  0  0  0  0  0  0  0  0  0
   35.9110   28.9070   40.1520 C   0  0  0  0  0  0  0  0  0  0  0  0
   34.7100   29.2920   40.2260 O   0  0  0  0  0  0  0  0  0  0  0  0
   37.6630   26.6930   42.4260 C   0  0  0  0  0  0  0  0  0  0  0  0
   38.1520   27.5420   43.4150 C   0  0  0  0  0  0  0  0  0  0  0  0
   37.8820   28.9110   43.3050 C   0  0  0  0  0  0  0  0  0  0  0  0
   37.1600   29.2910   42.2310 N   0  0  0  0  0  0  0  0  0  0  0  0
   36.6970   28.4760   41.2880 C   0  0  0  0  0  0  0  0  0  0  0  0
   36.9500   27.1480   41.3810 N   0  0  0  0  0  0  0  0  0  0  0  0
   37.9300   25.3030   42.5300 N   0  0  0  0  0  0  0  0  0  0  0  0
   38.7150   27.1230   44.2280 H   0  0  0  0  0  0  0  0  0  0  0  0
   38.2530   29.5790   44.0620 H   0  0  0  0  0  0  0  0  0  0  0  0
   37.5630   24.6000   43.2080 H   0  0  0  0  0  0  0  0  0  0  0  0
   38.5900   24.8590   41.8540 H   0  0  0  0  0  0  0  0  0  0  0  0
  1  7  1  6  0  0  0
  1 25  1  0  0  0  0
  2  8  1  0  0  0  0
  2  1  1  0  0  0  0
  3  2  1  0  0  0  0
  4  3  1  0  0  0  0
  4  5  1  0  0  0  0
  5 15  1  0  0  0  0
  5  6  1  0  0  0  0
  6 16  1  6  0  0  0
  6  1  1  0  0  0  0
  6 17  1  0  0  0  0
  9  2  1  0  0  0  0
 10  3  1  0  0  0  0
 11  3  1  0  0  0  0
 12  4  1  0  0  0  0
 13  4  1  0  0  0  0
 14  5  1  0  0  0  0
 17 24  1  0  0  0  0
 17 18  2  0  0  0  0
 18 20  1  0  0  0  0
 19 18  1  0  0  0  0
 20 21  1  0  0  0  0
 22 20  1  0  0  0  0
 22 23  1  0  0  0  0
 24 22  2  0  0  0  0
 25 26  2  0  0  0  0
 25 31  1  0  0  0  0
 27 33  1  0  0  0  0
 27 28  1  0  0  0  0
 28 34  1  0  0  0  0
 29 28  2  0  0  0  0
 29 35  1  0  0  0  0
 30 29  1  0  0  0  0
 31 32  1  0  0  0  0
 31 30  2  0  0  0  0
 32 27  2  0  0  0  0
 33 36  1  0  0  0  0
 37 33  1  0  0  0  0
M  END
>  <minimizedAffinity>
-5.15347815

$$$$

 OpenBabel03242512323D

 37 39  0  0  1  0  0  0  0  0999 V2000
   37.0480   28.0920   38.2110 C   0  0  1  0  0  0  0  0  0  0  0  0
   36.2720   26.8330   38.5560 C   0  0  0  0  0  0  0  0  0  0  0  0
   35.1420   26.6530   37.5870 C   0  0  0  0  0  0  0  0  0  0  0  0
   34.2760   27.8710   37.5900 C   0  0  0  0  0  0  0  0  0  0  0  0
   35.0380   29.1360   37.3380 C   0  0  0  0  0  0  0  0  0  0  0  0
   36.0700   29.2730   38.4440 C   0  0  2  0  0  0  0  0  0  0  0  0
   37.2890   28.1700   37.1490 H   0  0  0  0  0  0  0  0  0  0  0  0
   36.9310   25.9500   38.6320 H   0  0  0  0  0  0  0  0  0  0  0  0
   35.8000   27.0150   39.5610 H   0  0  0  0  0  0  0  0  0  0  0  0
   35.5750   26.4690   36.5910 H   0  0  0  0  0  0  0  0  0  0  0  0
   34.5310   25.7820   37.8770 H   0  0  0  0  0  0  0  0  0  0  0  0
   33.7420   27.9600   38.5520 H   0  0  0  0  0  0  0  0  0  0  0  0
   33.5140   27.7640   36.7890 H   0  0  0  0  0  0  0  0  0  0  0  0
   34.3280   29.9830   37.3910 H   0  0  0  0  0  0  0  0  0  0  0  0
   35.4930   29.1580   36.3370 H   0  0  0  0  0  0  0  0  0  0  0  0
   35.5280   29.0100   39.4060 H   0  0  0  0  0  0  0  0  0  0  0  0
   36.6910   30.5770   38.4960 C   0  0  0  0  0  0  0  0  0  0  0  0
   37.4170   31.3880   37.6320 C   0  0  0  0  0  0  0  0  0  0  0  0
   37.6210   31.0230   36.6130 H   0  0  0  0  0  0  0  0  0  0  0  0
   37.7790   32.5490   38.1870 N   0  0  0  0  0  0  0  0  0  0  0  0
   38.3330   33.2710   37.6600 H   0  0  0  0  0  0  0  0  0  0  0  0
   37.2930   32.5090   39.4240 C   0  0  0  0  0  0  0  0  0  0  0  0
   37.4150   33.3080   40.1490 H   0  0  0  0  0  0  0  0  0  0  0  0
   36.6480   31.3470   39.6200 N   0  0  0  0  0  0  0  0  0  0  0  0
   38.2010   28.1880   39.1310 C   0  0  0  0  0  0  0  0  0  0  0  0
   39.2080   28.7120   38.5770 O   0  0  0  0  0  0  0  0  0  0  0  0
   37.6460   28.2410   42.7130 C   0  0  0  0  0  0  0  0  0  0  0  0
   38.1000   26.9970   43.1440 C   0  0  0  0  0  0  0  0  0  0  0  0
   38.6060   26.1100   42.1880 C   0  0  0  0  0  0  0  0  0  0  0  0
   38.6090   26.5470   40.9110 N   0  0  0  0  0  0  0  0  0  0  0  0
   38.1730   27.7360   40.5050 C   0  0  0  0  0  0  0  0  0  0  0  0
   37.6800   28.6060   41.4190 N   0  0  0  0  0  0  0  0  0  0  0  0
   37.1320   29.1480   43.6760 N   0  0  0  0  0  0  0  0  0  0  0  0
   38.0490   26.7590   44.1900 H   0  0  0  0  0  0  0  0  0  0  0  0
   38.9600   25.1460   42.5060 H   0  0  0  0  0  0  0  0  0  0  0  0
   37.6260   29.6750   44.4300 H   0  0  0  0  0  0  0  0  0  0  0  0
   36.1100   29.3600   43.6820 H   0  0  0  0  0  0  0  0  0  0  0  0
  1  7  1  6  0  0  0
  1  6  1  0  0  0  0
  1  2  1  0  0  0  0
  1 25  1  0  0  0  0
  2  8  1  0  0  0  0
  2  9  1  0  0  0  0
  3  4  1  0  0  0  0
  3 11  1  0  0  0  0
  3  2  1  0  0  0  0
  4 12  1  0  0  0  0
  5 14  1  0  0  0  0
  5  4  1  0  0  0  0
  5  6  1  0  0  0  0
  6 17  1  0  0  0  0
  6 16  1  1  0  0  0
 10  3  1  0  0  0  0
 13  4  1  0  0  0  0
 15  5  1  0  0  0  0
 17 24  1  0  0  0  0
 18 20  1  0  0  0  0
 18 17  2  0  0  0  0
 19 18  1  0  0  0  0
 20 22  1  0  0  0  0
 21 20  1  0  0  0  0
 22 24  2  0  0  0  0
 22 23  1  0  0  0  0
 25 31  1  0  0  0  0
 26 25  2  0  0  0  0
 27 28  1  0  0  0  0
 27 33  1  0  0  0  0
 28 34  1  0  0  0  0
 29 35  1  0  0  0  0
 29 28  2  0  0  0  0
 30 29  1  0  0  0  0
 31 30  2  0  0  0  0
 31 32  1  0  0  0  0
 32 27  2  0  0  0  0
 33 37  1  0  0  0  0
 33 36  1  0  0  0  0
M  END
>  <minimizedAffinity>
-5.13294268

$$$$
