
 OpenBabel03252506223D

 38 41  0  0  0  0  0  0  0  0999 V2000
   44.9110   35.6940   42.5540 C   0  0  0  0  0  0  0  0  0  0  0  0
   43.7300   35.7790   41.7960 C   0  0  0  0  0  0  0  0  0  0  0  0
   43.6140   34.9480   40.6740 C   0  0  0  0  0  0  0  0  0  0  0  0
   44.6410   34.1110   40.3790 N   0  0  0  0  0  0  0  0  0  0  0  0
   45.7630   34.0630   41.1390 C   0  0  0  0  0  0  0  0  0  0  0  0
   45.8950   34.8550   42.2260 N   0  0  0  0  0  0  0  0  0  0  0  0
   42.9260   36.4360   42.0300 H   0  0  0  0  0  0  0  0  0  0  0  0
   42.7260   34.9760   40.0590 H   0  0  0  0  0  0  0  0  0  0  0  0
   48.4730   35.3150   40.6470 Cl  0  0  0  0  0  0  0  0  0  0  0  0
   48.0890   33.6320   40.4980 C   0  0  0  0  0  0  0  0  0  0  0  0
   46.8210   33.1250   40.7400 C   0  0  0  0  0  0  0  0  0  0  0  0
   46.4950   31.8030   40.6300 C   0  0  0  0  0  0  0  0  0  0  0  0
   47.5000   30.9380   40.2540 C   0  0  0  0  0  0  0  0  0  0  0  0
   48.8020   31.3360   39.9870 C   0  0  0  0  0  0  0  0  0  0  0  0
   49.0280   32.6980   40.1290 C   0  0  0  0  0  0  0  0  0  0  0  0
   45.5050   31.4170   40.8200 H   0  0  0  0  0  0  0  0  0  0  0  0
   47.3040   29.8730   40.1480 H   0  0  0  0  0  0  0  0  0  0  0  0
   49.5910   30.6800   39.6960 H   0  0  0  0  0  0  0  0  0  0  0  0
   50.0350   33.0700   39.9330 H   0  0  0  0  0  0  0  0  0  0  0  0
   45.0240   36.5670   43.7280 C   0  0  0  0  0  3  0  0  0  0  0  0
   45.1620   37.8520   43.5490 C   0  0  0  0  0  3  0  0  0  0  0  0
   45.2780   38.7600   44.7200 C   0  0  0  0  0  0  0  0  0  0  0  0
   46.3350   38.9670   44.9850 H   0  0  0  0  0  0  0  0  0  0  0  0
   44.8050   38.3300   45.6230 H   0  0  0  0  0  0  0  0  0  0  0  0
   44.6540   40.0310   44.3550 N   0  0  0  0  0  0  0  0  0  0  0  0
   44.0880   40.1350   43.4630 H   0  0  0  0  0  0  0  0  0  0  0  0
   44.5990   41.1800   46.5380 C   0  0  0  0  0  3  0  0  0  0  0  0
   44.7650   41.2020   45.1650 C   0  0  0  0  0  0  0  0  0  0  0  0
   45.0470   42.4290   44.6000 C   0  0  0  0  0  0  0  0  0  0  0  0
   45.1920   42.5480   43.5390 H   0  0  0  0  0  0  0  0  0  0  0  0
   45.1700   43.6060   45.3100 C   0  0  0  0  0  0  0  0  0  0  0  0
   45.4330   44.8880   44.9960 N   0  0  0  0  0  0  0  0  0  0  0  0
   45.6100   45.2690   44.0570 H   0  0  0  0  0  0  0  0  0  0  0  0
   45.4330   45.6400   46.1200 C   0  0  0  0  0  0  0  0  0  0  0  0
   45.6020   46.7000   46.2680 H   0  0  0  0  0  0  0  0  0  0  0  0
   45.1620   44.8150   47.1940 C   0  0  0  0  0  3  0  0  0  0  0  0
   44.9960   43.5380   46.6960 C   0  0  0  0  0  0  0  0  0  0  0  0
   44.7130   42.3270   47.2940 C   0  0  0  0  0  3  0  0  0  0  0  0
  1 20  1  0  0  0  0
  2  7  1  0  0  0  0
  2  1  2  0  0  0  0
  3  2  1  0  0  0  0
  4  3  2  0  0  0  0
  4  5  1  0  0  0  0
  5  6  2  0  0  0  0
  6  1  1  0  0  0  0
  8  3  1  0  0  0  0
 10  9  1  0  0  0  0
 10 11  1  0  0  0  0
 11  5  1  0  0  0  0
 12 11  2  0  0  0  0
 12 16  1  0  0  0  0
 13 12  1  0  0  0  0
 14 15  1  0  0  0  0
 14 13  2  0  0  0  0
 15 10  2  0  0  0  0
 17 13  1  0  0  0  0
 18 14  1  0  0  0  0
 19 15  1  0  0  0  0
 21 20  2  0  0  0  0
 21 22  1  0  0  0  0
 22 23  1  0  0  0  0
 22 24  1  0  0  0  0
 25 22  1  0  0  0  0
 25 28  1  0  0  0  0
 26 25  1  0  0  0  0
 27 38  1  0  0  0  0
 28 27  2  0  0  0  0
 29 28  1  0  0  0  0
 29 31  2  0  0  0  0
 30 29  1  0  0  0  0
 31 37  1  0  0  0  0
 32 31  1  0  0  0  0
 32 34  1  0  0  0  0
 33 32  1  0  0  0  0
 34 35  1  0  0  0  0
 34 36  2  0  0  0  0
 37 36  1  0  0  0  0
 37 38  2  0  0  0  0
M  END
>  <minimizedAffinity>
-1.36871648

>  <minimizedRMSD>
1.39046538

$$$$
