
 OpenBabel03242522423D

 50 54  0  0  0  0  0  0  0  0999 V2000
   46.6110   32.5420   44.4710 C   0  0  0  0  0  0  0  0  0  0  0  0
   46.2950   31.9900   43.5260 H   0  0  0  0  0  0  0  0  0  0  0  0
   47.6700   32.6300   44.6270 H   0  0  0  0  0  0  0  0  0  0  0  0
   46.1460   34.4320   43.0020 C   0  0  0  0  0  0  0  0  0  0  0  0
   45.9790   33.8510   44.2570 C   0  0  0  0  0  0  0  0  0  0  0  0
   45.2650   34.3760   45.2660 C   0  0  0  0  0  0  0  0  0  0  0  0
   44.6380   35.5860   45.0640 C   0  0  0  0  0  0  0  0  0  0  0  0
   44.7290   36.2450   43.8770 C   0  0  0  0  0  0  0  0  0  0  0  0
   45.4790   35.6560   42.8730 C   0  0  0  0  0  0  0  0  0  0  0  0
   45.0610   34.0310   46.2370 H   0  0  0  0  0  0  0  0  0  0  0  0
   44.0290   36.1290   45.7910 H   0  0  0  0  0  0  0  0  0  0  0  0
   44.2620   37.2050   43.6360 H   0  0  0  0  0  0  0  0  0  0  0  0
   45.5670   36.1630   41.9130 H   0  0  0  0  0  0  0  0  0  0  0  0
   47.0160   33.7930   41.6760 S   0  0  0  0  0  0  0  0  0  0  0  0
   47.6340   34.9920   40.8690 O   0  0  0  0  0  0  0  0  0  0  0  0
   46.0800   33.1930   40.6780 O   0  0  0  0  0  0  0  0  0  0  0  0
   49.7650   33.5130   42.1190 C   0  0  0  0  0  3  0  0  0  0  0  0
   48.4870   32.9410   41.9360 C   0  0  0  0  0  0  0  0  0  0  0  0
   48.6200   31.5410   42.0180 C   0  0  0  0  0  0  0  0  0  0  0  0
   47.6780   30.9810   41.8890 H   0  0  0  0  0  0  0  0  0  0  0  0
   49.7790   30.8390   42.2370 C   0  0  0  0  0  0  0  0  0  0  0  0
   49.9630   29.5090   42.3250 N   0  0  0  0  0  0  0  0  0  0  0  0
   49.2750   28.7230   42.2470 H   0  0  0  0  0  0  0  0  0  0  0  0
   51.2760   29.3280   42.5460 C   0  0  0  0  0  0  0  0  0  0  0  0
   51.8290   28.4070   42.6750 H   0  0  0  0  0  0  0  0  0  0  0  0
   51.9070   30.5710   42.5950 C   0  0  0  0  0  3  0  0  0  0  0  0
   50.9350   31.5280   42.3960 C   0  0  0  0  0  0  0  0  0  0  0  0
   50.9550   32.8910   42.3390 C   0  0  0  0  0  3  0  0  0  0  0  0
   45.9730   31.6690   45.5040 C   0  0  0  0  0  0  0  0  0  0  0  0
   44.9570   32.0090   45.8410 H   0  0  0  0  0  0  0  0  0  0  0  0
   45.7180   30.6270   45.1400 H   0  0  0  0  0  0  0  0  0  0  0  0
   47.1120   32.4530   47.5570 C   0  0  0  0  0  0  0  0  0  0  0  0
   46.9330   31.4480   46.5810 C   0  0  0  0  0  0  0  0  0  0  0  0
   47.6540   30.2780   46.7170 C   0  0  0  0  0  0  0  0  0  0  0  0
   48.4880   30.1540   47.7740 N   0  0  0  0  0  0  0  0  0  0  0  0
   48.6340   31.1170   48.6820 C   0  0  0  0  0  0  0  0  0  0  0  0
   47.9520   32.2810   48.5920 N   0  0  0  0  0  0  0  0  0  0  0  0
   46.6550   33.4220   47.6260 H   0  0  0  0  0  0  0  0  0  0  0  0
   47.5140   29.5140   45.9640 H   0  0  0  0  0  0  0  0  0  0  0  0
   49.5740   30.8870   49.8310 C   0  0  0  0  0  0  0  0  0  0  0  0
   49.0680   31.1700   50.7960 H   0  0  0  0  0  0  0  0  0  0  0  0
   49.7660   29.8010   49.9350 H   0  0  0  0  0  0  0  0  0  0  0  0
   50.8400   31.5860   49.6900 C   0  0  0  0  0  0  0  0  0  0  0  0
   51.9850   31.0760   49.1090 C   0  0  0  0  0  0  0  0  0  0  0  0
   52.9730   32.0210   49.1600 C   0  0  0  0  0  0  0  0  0  0  0  0
   52.3900   33.0920   49.7800 N   0  0  0  0  0  0  0  0  0  0  0  0
   51.1230   32.8400   50.0980 N   0  0  0  0  0  0  0  0  0  0  0  0
   52.1690   30.1000   48.6580 H   0  0  0  0  0  0  0  0  0  0  0  0
   54.0040   32.0790   48.8430 H   0  0  0  0  0  0  0  0  0  0  0  0
   52.7700   34.0450   50.0360 H   0  0  0  0  0  0  0  0  0  0  0  0
  1  3  1  0  0  0  0
  1 29  1  0  0  0  0
  2  1  1  0  0  0  0
  4  5  1  0  0  0  0
  5  1  1  0  0  0  0
  5  6  2  0  0  0  0
  6 10  1  0  0  0  0
  7  6  1  0  0  0  0
  7 11  1  0  0  0  0
  8  7  2  0  0  0  0
  9  4  2  0  0  0  0
  9  8  1  0  0  0  0
 12  8  1  0  0  0  0
 13  9  1  0  0  0  0
 14 18  1  0  0  0  0
 14  4  1  0  0  0  0
 15 14  2  0  0  0  0
 16 14  2  0  0  0  0
 17 28  1  0  0  0  0
 18 19  1  0  0  0  0
 18 17  2  0  0  0  0
 19 21  2  0  0  0  0
 20 19  1  0  0  0  0
 21 22  1  0  0  0  0
 21 27  1  0  0  0  0
 22 24  1  0  0  0  0
 23 22  1  0  0  0  0
 24 26  2  0  0  0  0
 24 25  1  0  0  0  0
 27 26  1  0  0  0  0
 28 27  2  0  0  0  0
 29 30  1  0  0  0  0
 29 33  1  0  0  0  0
 31 29  1  0  0  0  0
 32 38  1  0  0  0  0
 32 37  1  0  0  0  0
 33 34  1  0  0  0  0
 33 32  2  0  0  0  0
 34 35  2  0  0  0  0
 35 36  1  0  0  0  0
 36 40  1  0  0  0  0
 37 36  2  0  0  0  0
 39 34  1  0  0  0  0
 40 42  1  0  0  0  0
 40 41  1  0  0  0  0
 43 40  1  0  0  0  0
 43 47  2  0  0  0  0
 44 45  2  0  0  0  0
 44 43  1  0  0  0  0
 45 46  1  0  0  0  0
 46 50  1  0  0  0  0
 46 47  1  0  0  0  0
 48 44  1  0  0  0  0
 49 45  1  0  0  0  0
M  END
>  <minimizedAffinity>
-6.46543598

>  <minimizedRMSD>
0.855169952

$$$$
