
 OpenBabel03252502523D

 34 37  0  0  0  0  0  0  0  0999 V2000
   47.2320   31.2830   45.3290 Br  0  0  0  0  0  0  0  0  0  0  0  0
   48.4620   30.0450   44.5100 C   0  0  0  0  0  0  0  0  0  0  0  0
   48.5810   28.8090   45.1270 C   0  0  0  0  0  0  0  0  0  0  0  0
   49.4790   27.9530   44.4990 C   0  0  0  0  0  0  0  0  0  0  0  0
   50.2030   28.2680   43.3670 C   0  0  0  0  0  0  0  0  0  0  0  0
   50.0270   29.5130   42.8190 C   0  0  0  0  0  0  0  0  0  0  0  0
   49.1440   30.4330   43.3870 C   0  0  0  0  0  0  0  0  0  0  0  0
   49.6360   26.9630   44.9140 H   0  0  0  0  0  0  0  0  0  0  0  0
   50.8760   27.5550   42.9420 H   0  0  0  0  0  0  0  0  0  0  0  0
   50.6080   29.7310   41.9320 H   0  0  0  0  0  0  0  0  0  0  0  0
   48.1600   31.7490   41.6720 C   0  0  0  0  0  3  0  0  0  0  0  0
   49.0010   31.7240   42.7650 C   0  0  0  0  0  0  0  0  0  0  0  0
   49.5950   32.9080   43.1290 C   0  0  0  0  0  0  0  0  0  0  0  0
   50.2470   32.8550   43.9880 H   0  0  0  0  0  0  0  0  0  0  0  0
   49.3890   34.0840   42.4650 C   0  0  0  0  0  0  0  0  0  0  0  0
   49.9010   35.2880   42.7170 N   0  0  0  0  0  0  0  0  0  0  0  0
   50.5640   35.5410   43.4850 H   0  0  0  0  0  0  0  0  0  0  0  0
   49.4170   36.1350   41.8050 C   0  0  0  0  0  0  0  0  0  0  0  0
   49.6650   37.1910   41.7660 H   0  0  0  0  0  0  0  0  0  0  0  0
   48.5730   35.4320   40.9560 C   0  0  0  0  0  3  0  0  0  0  0  0
   48.5490   34.1170   41.3700 C   0  0  0  0  0  0  0  0  0  0  0  0
   47.9460   32.9350   40.9940 C   0  0  0  0  0  3  0  0  0  0  0  0
   47.8730   28.3660   46.3210 C   0  0  0  0  0  0  0  0  0  0  0  0
   48.4550   27.6000   46.8670 H   0  0  0  0  0  0  0  0  0  0  0  0
   47.7580   29.2620   46.9960 H   0  0  0  0  0  0  0  0  0  0  0  0
   44.8240   26.9450   44.6760 C   0  0  0  0  0  0  0  0  0  0  0  0
   43.8580   27.1230   45.6740 C   0  0  0  0  0  0  0  0  0  0  0  0
   44.2530   27.7110   46.8640 C   0  0  0  0  0  0  0  0  0  0  0  0
   45.5540   28.0950   47.0270 N   0  0  0  0  0  0  0  0  0  0  0  0
   46.4760   27.9070   46.0330 C   0  0  0  0  0  0  0  0  0  0  0  0
   46.0800   27.3330   44.8740 N   0  0  0  0  0  0  0  0  0  0  0  0
   44.5370   26.4920   43.7470 H   0  0  0  0  0  0  0  0  0  0  0  0
   42.8260   26.8210   45.5510 H   0  0  0  0  0  0  0  0  0  0  0  0
   43.5790   27.8910   47.6980 H   0  0  0  0  0  0  0  0  0  0  0  0
  2  3  1  0  0  0  0
  2  1  1  0  0  0  0
  3 23  1  0  0  0  0
  4  8  1  0  0  0  0
  4  3  2  0  0  0  0
  5  4  1  0  0  0  0
  6  5  2  0  0  0  0
  6  7  1  0  0  0  0
  7  2  2  0  0  0  0
  9  5  1  0  0  0  0
 10  6  1  0  0  0  0
 11 12  1  0  0  0  0
 12 13  2  0  0  0  0
 12  7  1  0  0  0  0
 13 14  1  0  0  0  0
 15 16  1  0  0  0  0
 15 13  1  0  0  0  0
 16 17  1  0  0  0  0
 18 16  1  0  0  0  0
 19 18  1  0  0  0  0
 20 21  1  0  0  0  0
 20 18  2  0  0  0  0
 21 15  2  0  0  0  0
 22 21  1  0  0  0  0
 22 11  2  0  0  0  0
 23 24  1  0  0  0  0
 23 25  1  0  0  0  0
 26 31  2  0  0  0  0
 26 27  1  0  0  0  0
 27 28  2  0  0  0  0
 28 29  1  0  0  0  0
 28 34  1  0  0  0  0
 30 23  1  0  0  0  0
 30 29  2  0  0  0  0
 31 30  1  0  0  0  0
 32 26  1  0  0  0  0
 33 27  1  0  0  0  0
M  END
>  <minimizedAffinity>
-3.84448481

>  <minimizedRMSD>
8.73954105

$$$$
