
 OpenBabel03252505103D

 47 51  0  0  1  0  0  0  0  0999 V2000
   44.5510   35.5410   44.6060 C   0  0  0  0  0  0  0  0  0  0  0  0
   45.2590   35.6080   43.3820 C   0  0  0  0  0  0  0  0  0  0  0  0
   46.3910   34.7410   43.2200 C   0  0  0  0  0  0  0  0  0  0  0  0
   46.7230   33.9050   44.2490 N   0  0  0  0  0  0  0  0  0  0  0  0
   46.0220   33.8780   45.3880 C   0  0  0  0  0  0  0  0  0  0  0  0
   44.9310   34.6940   45.5780 N   0  0  0  0  0  0  0  0  0  0  0  0
   43.7040   36.2100   44.6870 H   0  0  0  0  0  0  0  0  0  0  0  0
   44.9880   36.2750   42.5720 H   0  0  0  0  0  0  0  0  0  0  0  0
   46.4280   32.9500   46.4790 C   0  0  2  0  0  0  0  0  0  0  0  0
   46.9420   31.7160   45.7700 C   0  0  0  0  0  0  0  0  0  0  0  0
   46.0510   30.5450   45.7750 C   0  0  0  0  0  0  0  0  0  0  0  0
   45.7670   30.2710   47.2480 C   0  0  0  0  0  0  0  0  0  0  0  0
   44.9850   31.3520   47.8690 C   0  0  0  0  0  0  0  0  0  0  0  0
   45.3770   32.7170   47.4270 C   0  0  0  0  0  0  0  0  0  0  0  0
   47.2840   33.4650   46.9840 H   0  0  0  0  0  0  0  0  0  0  0  0
   47.8800   31.4130   46.2860 H   0  0  0  0  0  0  0  0  0  0  0  0
   47.2680   31.9290   44.7240 H   0  0  0  0  0  0  0  0  0  0  0  0
   45.1020   30.7830   45.2840 H   0  0  0  0  0  0  0  0  0  0  0  0
   46.5870   29.6940   45.3610 H   0  0  0  0  0  0  0  0  0  0  0  0
   45.0580   29.4010   47.2170 H   0  0  0  0  0  0  0  0  0  0  0  0
   46.6480   29.9560   47.8080 H   0  0  0  0  0  0  0  0  0  0  0  0
   44.1930   31.4070   48.5680 H   0  0  0  0  0  0  0  0  0  0  0  0
   44.6980   33.8550   47.9470 N   0  0  0  0  0  0  0  0  0  0  0  0
   45.1720   34.4750   48.6590 H   0  0  0  0  0  0  0  0  0  0  0  0
   43.7420   34.2350   47.7500 H   0  0  0  0  0  0  0  0  0  0  0  0
   47.1350   34.7810   41.9860 C   0  0  0  0  0  0  0  0  0  0  0  0
   48.2450   35.5440   41.9110 C   0  0  0  0  0  0  0  0  0  0  0  0
   48.9270   35.5440   40.6820 C   0  0  0  0  0  0  0  0  0  0  0  0
   48.3900   34.7600   39.6700 C   0  0  0  0  0  0  0  0  0  0  0  0
   47.2630   33.9850   39.7480 C   0  0  0  0  0  0  0  0  0  0  0  0
   46.6630   34.0420   40.9710 N   0  0  0  0  0  0  0  0  0  0  0  0
   48.6200   36.1350   42.7270 H   0  0  0  0  0  0  0  0  0  0  0  0
   49.8280   36.1250   40.5260 H   0  0  0  0  0  0  0  0  0  0  0  0
   48.9420   34.7820   38.7320 H   0  0  0  0  0  0  0  0  0  0  0  0
   46.7970   33.2390   38.6970 O   0  0  0  0  0  0  0  0  0  0  0  0
   48.1930   31.3510   37.9200 C   0  0  0  0  0  3  0  0  0  0  0  0
   47.5630   32.5620   37.7950 C   0  0  0  0  0  0  0  0  0  0  0  0
   47.7050   33.2300   36.5770 C   0  0  0  0  0  0  0  0  0  0  0  0
   47.2650   34.1980   36.3260 H   0  0  0  0  0  0  0  0  0  0  0  0
   48.4480   32.7000   35.5350 C   0  0  0  0  0  0  0  0  0  0  0  0
   48.7570   33.1000   34.2790 N   0  0  0  0  0  0  0  0  0  0  0  0
   48.4350   33.9980   33.8440 H   0  0  0  0  0  0  0  0  0  0  0  0
   49.5230   32.1960   33.6790 C   0  0  0  0  0  0  0  0  0  0  0  0
   49.9260   32.2490   32.6620 H   0  0  0  0  0  0  0  0  0  0  0  0
   49.7490   31.1500   34.5340 C   0  0  0  0  0  3  0  0  0  0  0  0
   49.0740   31.4710   35.6940 C   0  0  0  0  0  0  0  0  0  0  0  0
   48.9420   30.8040   36.8890 C   0  0  0  0  0  3  0  0  0  0  0  0
  1  7  1  0  0  0  0
  1  6  1  0  0  0  0
  2  1  2  0  0  0  0
  3  2  1  0  0  0  0
  3  4  2  0  0  0  0
  4  5  1  0  0  0  0
  5  6  2  0  0  0  0
  5  9  1  0  0  0  0
  8  2  1  0  0  0  0
  9 15  1  1  0  0  0
  9 14  1  0  0  0  0
 10 11  1  0  0  0  0
 10 16  1  0  0  0  0
 10  9  1  0  0  0  0
 11 12  1  0  0  0  0
 12 21  1  0  0  0  0
 12 13  1  0  0  0  0
 13 22  1  0  0  0  0
 14 13  2  0  0  0  0
 14 23  1  0  0  0  0
 17 10  1  0  0  0  0
 18 11  1  0  0  0  0
 19 11  1  0  0  0  0
 20 12  1  0  0  0  0
 23 24  1  0  0  0  0
 25 23  1  0  0  0  0
 26  3  1  0  0  0  0
 27 26  1  0  0  0  0
 27 32  1  0  0  0  0
 28 27  2  0  0  0  0
 29 30  2  0  0  0  0
 29 28  1  0  0  0  0
 30 31  1  0  0  0  0
 31 26  2  0  0  0  0
 33 28  1  0  0  0  0
 34 29  1  0  0  0  0
 35 30  1  0  0  0  0
 37 36  1  0  0  0  0
 37 35  1  0  0  0  0
 38 37  2  0  0  0  0
 39 38  1  0  0  0  0
 40 46  2  0  0  0  0
 40 38  1  0  0  0  0
 41 40  1  0  0  0  0
 42 41  1  0  0  0  0
 43 41  1  0  0  0  0
 43 45  2  0  0  0  0
 44 43  1  0  0  0  0
 45 46  1  0  0  0  0
 46 47  1  0  0  0  0
 47 36  2  0  0  0  0
M  END
>  <minimizedAffinity>
-7.84679699

>  <minimizedRMSD>
1.13185251

$$$$
