
 OpenBabel03242516483D

 46 50  0  0  1  0  0  0  0  0999 V2000
   47.2390   32.2000   40.8400 C   0  0  1  0  0  0  0  0  0  0  0  0
   46.3700   31.6590   39.7740 C   0  0  0  0  0  0  0  0  0  0  0  0
   47.1300   31.8750   38.4640 C   0  0  0  0  0  0  0  0  0  0  0  0
   47.1320   33.3720   38.2140 C   0  0  0  0  0  0  0  0  0  0  0  0
   47.6770   34.1790   39.3460 C   0  0  0  0  0  0  0  0  0  0  0  0
   47.4340   33.6960   40.7120 C   0  0  1  0  0  0  0  0  0  0  0  0
   48.2830   31.7900   40.6970 H   0  0  0  0  0  0  0  0  0  0  0  0
   46.1950   30.5790   39.9430 H   0  0  0  0  0  0  0  0  0  0  0  0
   45.4010   32.1670   39.6750 H   0  0  0  0  0  0  0  0  0  0  0  0
   48.1330   31.4490   38.4940 H   0  0  0  0  0  0  0  0  0  0  0  0
   46.4860   31.4160   37.6810 H   0  0  0  0  0  0  0  0  0  0  0  0
   47.7550   33.5260   37.2950 H   0  0  0  0  0  0  0  0  0  0  0  0
   46.1020   33.6580   37.9170 H   0  0  0  0  0  0  0  0  0  0  0  0
   48.7740   34.3320   39.1390 H   0  0  0  0  0  0  0  0  0  0  0  0
   47.2480   35.2120   39.2570 H   0  0  0  0  0  0  0  0  0  0  0  0
   48.3580   33.9170   41.3320 H   0  0  0  0  0  0  0  0  0  0  0  0
   45.1820   31.0130   43.7760 C   0  0  0  0  0  0  0  0  0  0  0  0
   45.5980   31.3560   42.4910 C   0  0  0  0  0  0  0  0  0  0  0  0
   46.8620   31.8510   42.2050 C   0  0  0  0  0  0  0  0  0  0  0  0
   47.6920   31.9900   43.2510 N   0  0  0  0  0  0  0  0  0  0  0  0
   47.3040   31.6620   44.5090 C   0  0  0  0  0  0  0  0  0  0  0  0
   46.0920   31.1870   44.7830 N   0  0  0  0  0  0  0  0  0  0  0  0
   44.2150   30.6340   43.9950 H   0  0  0  0  0  0  0  0  0  0  0  0
   44.8630   31.2100   41.7150 H   0  0  0  0  0  0  0  0  0  0  0  0
   48.1000   31.8360   45.2430 H   0  0  0  0  0  0  0  0  0  0  0  0
   46.3630   34.4350   41.4040 C   0  0  0  0  0  0  0  0  0  0  0  0
   46.4890   35.1730   42.5890 C   0  0  0  0  0  0  0  0  0  0  0  0
   45.3250   35.8080   43.0340 C   0  0  0  0  0  0  0  0  0  0  0  0
   44.1740   35.6600   42.2850 C   0  0  0  0  0  0  0  0  0  0  0  0
   44.0700   34.9360   41.1310 C   0  0  0  0  0  0  0  0  0  0  0  0
   45.1960   34.3210   40.7000 N   0  0  0  0  0  0  0  0  0  0  0  0
   47.4470   35.1740   43.0250 H   0  0  0  0  0  0  0  0  0  0  0  0
   45.4210   36.3690   43.9330 H   0  0  0  0  0  0  0  0  0  0  0  0
   43.3280   36.1850   42.7050 H   0  0  0  0  0  0  0  0  0  0  0  0
   42.6990   35.1650   39.0530 C   0  0  0  0  0  0  0  0  0  0  0  0
   42.8200   34.8150   40.3790 C   0  0  0  0  0  0  0  0  0  0  0  0
   41.7010   34.3240   41.0220 C   0  0  0  0  0  0  0  0  0  0  0  0
   41.7680   34.0390   42.0690 H   0  0  0  0  0  0  0  0  0  0  0  0
   40.4710   34.1640   40.4190 C   0  0  0  0  0  0  0  0  0  0  0  0
   39.2630   33.7190   40.8200 N   0  0  0  0  0  0  0  0  0  0  0  0
   39.0960   33.3940   41.7870 H   0  0  0  0  0  0  0  0  0  0  0  0
   38.3870   33.7780   39.7960 C   0  0  0  0  0  0  0  0  0  0  0  0
   37.3460   33.4920   39.8060 H   0  0  0  0  0  0  0  0  0  0  0  0
   39.0850   34.2870   38.6970 C   0  0  0  0  0  0  0  0  0  0  0  0
   40.3860   34.5260   39.0890 C   0  0  0  0  0  0  0  0  0  0  0  0
   41.4750   35.0230   38.3990 C   0  0  0  0  0  0  0  0  0  0  0  0
  1  7  1  6  0  0  0
  1 19  1  0  0  0  0
  2  8  1  0  0  0  0
  2  1  1  0  0  0  0
  3 10  1  0  0  0  0
  3  2  1  0  0  0  0
  4  3  1  0  0  0  0
  4  5  1  0  0  0  0
  5  6  1  0  0  0  0
  6  1  1  0  0  0  0
  6 16  1  1  0  0  0
  6 26  1  0  0  0  0
  9  2  1  0  0  0  0
 11  3  1  0  0  0  0
 12  4  1  0  0  0  0
 13  4  1  0  0  0  0
 14  5  1  0  0  0  0
 15  5  1  0  0  0  0
 17 23  1  0  0  0  0
 17 22  1  0  0  0  0
 18 17  2  0  0  0  0
 19 18  1  0  0  0  0
 19 20  2  0  0  0  0
 20 21  1  0  0  0  0
 21 22  2  0  0  0  0
 21 25  1  0  0  0  0
 24 18  1  0  0  0  0
 26 27  1  0  0  0  0
 27 32  1  0  0  0  0
 27 28  2  0  0  0  0
 28 33  1  0  0  0  0
 29 34  1  0  0  0  0
 29 28  1  0  0  0  0
 30 29  2  0  0  0  0
 31 30  1  0  0  0  0
 31 26  2  0  0  0  0
 35 36  1  0  0  0  0
 36 37  2  0  0  0  0
 36 30  1  0  0  0  0
 37 38  1  0  0  0  0
 39 40  1  0  0  0  0
 39 37  1  0  0  0  0
 40 41  1  0  0  0  0
 42 43  1  0  0  0  0
 42 40  1  0  0  0  0
 44 45  1  0  0  0  0
 44 42  2  0  0  0  0
 45 39  2  0  0  0  0
 46 35  2  0  0  0  0
 46 45  1  0  0  0  0
M  END
>  <minimizedAffinity>
-6.53187466

>  <minimizedRMSD>
1.52877688

$$$$
