
 OpenBabel03242522423D

 50 54  0  0  0  0  0  0  0  0999 V2000
   46.6610   32.6450   44.3390 C   0  0  0  0  0  0  0  0  0  0  0  0
   46.3760   32.1450   43.3560 H   0  0  0  0  0  0  0  0  0  0  0  0
   47.7140   32.7410   44.5240 H   0  0  0  0  0  0  0  0  0  0  0  0
   46.2210   34.6280   42.9900 C   0  0  0  0  0  0  0  0  0  0  0  0
   46.0090   33.9530   44.1900 C   0  0  0  0  0  0  0  0  0  0  0  0
   45.2370   34.3890   45.1990 C   0  0  0  0  0  0  0  0  0  0  0  0
   44.5920   35.5970   45.0550 C   0  0  0  0  0  0  0  0  0  0  0  0
   44.7230   36.3430   43.9250 C   0  0  0  0  0  0  0  0  0  0  0  0
   45.5320   35.8450   42.9180 C   0  0  0  0  0  0  0  0  0  0  0  0
   44.9960   33.9680   46.1320 H   0  0  0  0  0  0  0  0  0  0  0  0
   43.9370   36.0730   45.7890 H   0  0  0  0  0  0  0  0  0  0  0  0
   44.2450   37.3090   43.7320 H   0  0  0  0  0  0  0  0  0  0  0  0
   45.6530   36.4220   42.0020 H   0  0  0  0  0  0  0  0  0  0  0  0
   47.1670   34.1050   41.6650 S   0  0  0  0  0  0  0  0  0  0  0  0
   47.9230   35.3530   41.0770 O   0  0  0  0  0  0  0  0  0  0  0  0
   46.2900   33.7050   40.5240 O   0  0  0  0  0  0  0  0  0  0  0  0
   49.8440   33.5820   42.2890 C   0  0  0  0  0  3  0  0  0  0  0  0
   48.5570   33.1270   41.9270 C   0  0  0  0  0  0  0  0  0  0  0  0
   48.6020   31.7230   41.8300 C   0  0  0  0  0  0  0  0  0  0  0  0
   47.6440   31.2510   41.5500 H   0  0  0  0  0  0  0  0  0  0  0  0
   49.6940   30.9200   42.0450 C   0  0  0  0  0  0  0  0  0  0  0  0
   49.7920   29.5800   41.9660 N   0  0  0  0  0  0  0  0  0  0  0  0
   49.0710   28.8600   41.7270 H   0  0  0  0  0  0  0  0  0  0  0  0
   51.0690   29.2820   42.2680 C   0  0  0  0  0  0  0  0  0  0  0  0
   51.5540   28.3180   42.3160 H   0  0  0  0  0  0  0  0  0  0  0  0
   51.7610   30.4630   42.5350 C   0  0  0  0  0  3  0  0  0  0  0  0
   50.8680   31.5020   42.3890 C   0  0  0  0  0  0  0  0  0  0  0  0
   50.9720   32.8560   42.5190 C   0  0  0  0  0  3  0  0  0  0  0  0
   46.0170   31.7000   45.3030 C   0  0  0  0  0  0  0  0  0  0  0  0
   44.9690   31.9760   45.6000 H   0  0  0  0  0  0  0  0  0  0  0  0
   45.8340   30.6630   44.8860 H   0  0  0  0  0  0  0  0  0  0  0  0
   47.0640   32.4850   47.4030 C   0  0  0  0  0  0  0  0  0  0  0  0
   46.9310   31.4810   46.4190 C   0  0  0  0  0  0  0  0  0  0  0  0
   47.6530   30.3140   46.5830 C   0  0  0  0  0  0  0  0  0  0  0  0
   48.4420   30.1930   47.6740 N   0  0  0  0  0  0  0  0  0  0  0  0
   48.5440   31.1550   48.5900 C   0  0  0  0  0  0  0  0  0  0  0  0
   47.8610   32.3160   48.4720 N   0  0  0  0  0  0  0  0  0  0  0  0
   46.6000   33.4520   47.4550 H   0  0  0  0  0  0  0  0  0  0  0  0
   47.5480   29.5510   45.8230 H   0  0  0  0  0  0  0  0  0  0  0  0
   49.4360   30.9280   49.7760 C   0  0  0  0  0  0  0  0  0  0  0  0
   48.9030   31.2440   50.7160 H   0  0  0  0  0  0  0  0  0  0  0  0
   49.5960   29.8390   49.9110 H   0  0  0  0  0  0  0  0  0  0  0  0
   50.7240   31.5920   49.6680 C   0  0  0  0  0  0  0  0  0  0  0  0
   51.8710   31.0470   49.1240 C   0  0  0  0  0  0  0  0  0  0  0  0
   52.8810   31.9670   49.1970 C   0  0  0  0  0  0  0  0  0  0  0  0
   52.3090   33.0580   49.7910 N   0  0  0  0  0  0  0  0  0  0  0  0
   51.0280   32.8410   50.0730 N   0  0  0  0  0  0  0  0  0  0  0  0
   52.0420   30.0620   48.6860 H   0  0  0  0  0  0  0  0  0  0  0  0
   53.9230   31.9950   48.9090 H   0  0  0  0  0  0  0  0  0  0  0  0
   52.7070   34.0020   50.0500 H   0  0  0  0  0  0  0  0  0  0  0  0
  1  3  1  0  0  0  0
  1 29  1  0  0  0  0
  2  1  1  0  0  0  0
  4  5  1  0  0  0  0
  5  1  1  0  0  0  0
  5  6  2  0  0  0  0
  6 10  1  0  0  0  0
  7  6  1  0  0  0  0
  7 11  1  0  0  0  0
  8  7  2  0  0  0  0
  9  4  2  0  0  0  0
  9  8  1  0  0  0  0
 12  8  1  0  0  0  0
 13  9  1  0  0  0  0
 14 18  1  0  0  0  0
 14  4  1  0  0  0  0
 15 14  2  0  0  0  0
 16 14  2  0  0  0  0
 17 28  1  0  0  0  0
 18 17  2  0  0  0  0
 19 18  1  0  0  0  0
 19 21  2  0  0  0  0
 20 19  1  0  0  0  0
 21 27  1  0  0  0  0
 22 21  1  0  0  0  0
 22 24  1  0  0  0  0
 23 22  1  0  0  0  0
 24 25  1  0  0  0  0
 24 26  2  0  0  0  0
 27 28  2  0  0  0  0
 27 26  1  0  0  0  0
 29 30  1  0  0  0  0
 29 33  1  0  0  0  0
 31 29  1  0  0  0  0
 32 38  1  0  0  0  0
 32 37  1  0  0  0  0
 33 34  1  0  0  0  0
 33 32  2  0  0  0  0
 34 35  2  0  0  0  0
 35 36  1  0  0  0  0
 36 40  1  0  0  0  0
 37 36  2  0  0  0  0
 39 34  1  0  0  0  0
 40 42  1  0  0  0  0
 40 41  1  0  0  0  0
 43 40  1  0  0  0  0
 43 47  2  0  0  0  0
 44 45  2  0  0  0  0
 44 43  1  0  0  0  0
 45 46  1  0  0  0  0
 46 50  1  0  0  0  0
 46 47  1  0  0  0  0
 48 44  1  0  0  0  0
 49 45  1  0  0  0  0
M  END
>  <minimizedAffinity>
-6.58454323

>  <minimizedRMSD>
0.503807366

$$$$
