
 OpenBabel03252502523D

 34 37  0  0  0  0  0  0  0  0999 V2000
   45.8790   29.9800   44.5680 Br  0  0  0  0  0  0  0  0  0  0  0  0
   45.7440   30.6570   46.3680 C   0  0  0  0  0  0  0  0  0  0  0  0
   46.3450   31.8840   46.6030 C   0  0  0  0  0  0  0  0  0  0  0  0
   46.2200   32.3270   47.9140 C   0  0  0  0  0  0  0  0  0  0  0  0
   45.5670   31.6390   48.9170 C   0  0  0  0  0  0  0  0  0  0  0  0
   44.9990   30.4310   48.6000 C   0  0  0  0  0  0  0  0  0  0  0  0
   45.0780   29.9130   47.3070 C   0  0  0  0  0  0  0  0  0  0  0  0
   46.6610   33.2790   48.1900 H   0  0  0  0  0  0  0  0  0  0  0  0
   45.5130   32.0460   49.9030 H   0  0  0  0  0  0  0  0  0  0  0  0
   44.4940   29.9160   49.4070 H   0  0  0  0  0  0  0  0  0  0  0  0
   44.9160   27.6000   47.8220 C   0  0  0  0  0  3  0  0  0  0  0  0
   44.4620   28.6400   47.0370 C   0  0  0  0  0  0  0  0  0  0  0  0
   43.4940   28.3500   46.1060 C   0  0  0  0  0  0  0  0  0  0  0  0
   43.1600   29.1840   45.5080 H   0  0  0  0  0  0  0  0  0  0  0  0
   42.9740   27.0980   45.9310 C   0  0  0  0  0  0  0  0  0  0  0  0
   42.0420   26.6930   45.0720 N   0  0  0  0  0  0  0  0  0  0  0  0
   41.5360   27.2780   44.3680 H   0  0  0  0  0  0  0  0  0  0  0  0
   41.8540   25.3850   45.2630 C   0  0  0  0  0  0  0  0  0  0  0  0
   41.1480   24.7840   44.6990 H   0  0  0  0  0  0  0  0  0  0  0  0
   42.7010   24.9610   46.2780 C   0  0  0  0  0  3  0  0  0  0  0  0
   43.4240   26.0540   46.7130 C   0  0  0  0  0  0  0  0  0  0  0  0
   44.3950   26.3310   47.6520 C   0  0  0  0  0  3  0  0  0  0  0  0
   47.0600   32.6970   45.6280 C   0  0  0  0  0  0  0  0  0  0  0  0
   48.0090   33.0790   46.0490 H   0  0  0  0  0  0  0  0  0  0  0  0
   47.3110   32.0320   44.7540 H   0  0  0  0  0  0  0  0  0  0  0  0
   44.5220   35.4120   45.1720 C   0  0  0  0  0  0  0  0  0  0  0  0
   44.7660   35.8040   43.8490 C   0  0  0  0  0  0  0  0  0  0  0  0
   45.7690   35.1520   43.1520 C   0  0  0  0  0  0  0  0  0  0  0  0
   46.4800   34.1590   43.7650 N   0  0  0  0  0  0  0  0  0  0  0  0
   46.2180   33.7980   45.0580 C   0  0  0  0  0  0  0  0  0  0  0  0
   45.2370   34.4410   45.7310 N   0  0  0  0  0  0  0  0  0  0  0  0
   43.7490   35.9050   45.7280 H   0  0  0  0  0  0  0  0  0  0  0  0
   44.2060   36.5900   43.3590 H   0  0  0  0  0  0  0  0  0  0  0  0
   46.0340   35.3840   42.1230 H   0  0  0  0  0  0  0  0  0  0  0  0
  1  2  1  0  0  0  0
  2  3  2  0  0  0  0
  2  7  1  0  0  0  0
  3  4  1  0  0  0  0
  4  8  1  0  0  0  0
  4  5  2  0  0  0  0
  5  9  1  0  0  0  0
  6  5  1  0  0  0  0
  6 10  1  0  0  0  0
  7  6  2  0  0  0  0
 12  7  1  0  0  0  0
 12 11  2  0  0  0  0
 13 12  1  0  0  0  0
 14 13  1  0  0  0  0
 15 13  2  0  0  0  0
 15 21  1  0  0  0  0
 16 18  1  0  0  0  0
 16 15  1  0  0  0  0
 17 16  1  0  0  0  0
 18 20  2  0  0  0  0
 19 18  1  0  0  0  0
 20 21  1  0  0  0  0
 21 22  2  0  0  0  0
 22 11  1  0  0  0  0
 23 24  1  0  0  0  0
 23  3  1  0  0  0  0
 25 23  1  0  0  0  0
 26 32  1  0  0  0  0
 26 31  1  0  0  0  0
 27 26  2  0  0  0  0
 28 29  2  0  0  0  0
 28 27  1  0  0  0  0
 29 30  1  0  0  0  0
 30 23  1  0  0  0  0
 30 31  2  0  0  0  0
 33 27  1  0  0  0  0
 34 28  1  0  0  0  0
M  END
>  <minimizedAffinity>
-5.89721537

>  <minimizedRMSD>
1.07978356

$$$$
