
 OpenBabel03242516513D

 46 50  0  0  1  0  0  0  0  0999 V2000
   38.8280   24.7990   40.9310 C   0  0  1  0  0  0  0  0  0  0  0  0
   38.2270   23.6590   41.6540 C   0  0  0  0  0  0  0  0  0  0  0  0
   37.3820   22.9080   40.6250 C   0  0  0  0  0  0  0  0  0  0  0  0
   36.2000   23.8060   40.3060 C   0  0  0  0  0  0  0  0  0  0  0  0
   36.5800   25.1790   39.8600 C   0  0  0  0  0  0  0  0  0  0  0  0
   37.7820   25.7840   40.4500 C   0  0  1  0  0  0  0  0  0  0  0  0
   39.2830   24.4160   39.9690 H   0  0  0  0  0  0  0  0  0  0  0  0
   39.0250   23.0010   42.0490 H   0  0  0  0  0  0  0  0  0  0  0  0
   37.5590   23.9440   42.4780 H   0  0  0  0  0  0  0  0  0  0  0  0
   37.9570   22.6340   39.7400 H   0  0  0  0  0  0  0  0  0  0  0  0
   36.9810   22.0260   41.1730 H   0  0  0  0  0  0  0  0  0  0  0  0
   35.6290   23.2820   39.4960 H   0  0  0  0  0  0  0  0  0  0  0  0
   35.5290   23.7930   41.1890 H   0  0  0  0  0  0  0  0  0  0  0  0
   36.6260   25.1560   38.7350 H   0  0  0  0  0  0  0  0  0  0  0  0
   35.7090   25.8530   40.0720 H   0  0  0  0  0  0  0  0  0  0  0  0
   38.3050   26.3840   39.6420 H   0  0  0  0  0  0  0  0  0  0  0  0
   41.1920   25.8710   43.6730 C   0  0  0  0  0  0  0  0  0  0  0  0
   40.1830   25.2300   42.9580 C   0  0  0  0  0  0  0  0  0  0  0  0
   39.9030   25.4980   41.6260 C   0  0  0  0  0  0  0  0  0  0  0  0
   40.6700   26.4290   41.0370 N   0  0  0  0  0  0  0  0  0  0  0  0
   41.6570   27.0640   41.7180 C   0  0  0  0  0  0  0  0  0  0  0  0
   41.9260   26.8070   42.9950 N   0  0  0  0  0  0  0  0  0  0  0  0
   41.4060   25.6660   44.6920 H   0  0  0  0  0  0  0  0  0  0  0  0
   39.6190   24.4970   43.5130 H   0  0  0  0  0  0  0  0  0  0  0  0
   42.1850   27.7930   41.0910 H   0  0  0  0  0  0  0  0  0  0  0  0
   37.4760   26.7850   41.4870 C   0  0  0  0  0  0  0  0  0  0  0  0
   36.9750   26.5310   42.7720 C   0  0  0  0  0  0  0  0  0  0  0  0
   36.7910   27.6550   43.5830 C   0  0  0  0  0  0  0  0  0  0  0  0
   37.1110   28.8950   43.0640 C   0  0  0  0  0  0  0  0  0  0  0  0
   37.5980   29.1240   41.8080 C   0  0  0  0  0  0  0  0  0  0  0  0
   37.7770   28.0360   41.0220 N   0  0  0  0  0  0  0  0  0  0  0  0
   36.7880   25.5190   42.9940 H   0  0  0  0  0  0  0  0  0  0  0  0
   36.4110   27.4610   44.5580 H   0  0  0  0  0  0  0  0  0  0  0  0
   36.9360   29.7000   43.7620 H   0  0  0  0  0  0  0  0  0  0  0  0
   37.0100   31.2660   40.6630 C   0  0  0  0  0  3  0  0  0  0  0  0
   37.9190   30.4620   41.3130 C   0  0  0  0  0  0  0  0  0  0  0  0
   39.1950   30.9540   41.5010 C   0  0  0  0  0  0  0  0  0  0  0  0
   39.9340   30.3400   42.0120 H   0  0  0  0  0  0  0  0  0  0  0  0
   39.6150   32.1990   41.0810 C   0  0  0  0  0  0  0  0  0  0  0  0
   40.7730   32.8870   41.1440 N   0  0  0  0  0  0  0  0  0  0  0  0
   41.6180   32.4910   41.5910 H   0  0  0  0  0  0  0  0  0  0  0  0
   40.6250   34.0920   40.5580 C   0  0  0  0  0  0  0  0  0  0  0  0
   41.3700   34.8660   40.4520 H   0  0  0  0  0  0  0  0  0  0  0  0
   39.3050   34.1610   40.1040 C   0  0  0  0  0  3  0  0  0  0  0  0
   38.6760   32.9770   40.4330 C   0  0  0  0  0  0  0  0  0  0  0  0
   37.3870   32.5330   40.2170 C   0  0  0  0  0  3  0  0  0  0  0  0
  1  7  1  6  0  0  0
  1 19  1  0  0  0  0
  1  2  1  0  0  0  0
  2  8  1  0  0  0  0
  2  9  1  0  0  0  0
  3 11  1  0  0  0  0
  3  2  1  0  0  0  0
  4  3  1  0  0  0  0
  4 13  1  0  0  0  0
  5 15  1  0  0  0  0
  5  4  1  0  0  0  0
  5  6  1  0  0  0  0
  6 16  1  6  0  0  0
  6  1  1  0  0  0  0
  6 26  1  0  0  0  0
 10  3  1  0  0  0  0
 12  4  1  0  0  0  0
 14  5  1  0  0  0  0
 17 23  1  0  0  0  0
 18 24  1  0  0  0  0
 18 17  2  0  0  0  0
 19 18  1  0  0  0  0
 20 19  2  0  0  0  0
 20 21  1  0  0  0  0
 21 22  2  0  0  0  0
 22 17  1  0  0  0  0
 25 21  1  0  0  0  0
 26 27  1  0  0  0  0
 27 32  1  0  0  0  0
 27 28  2  0  0  0  0
 28 33  1  0  0  0  0
 29 28  1  0  0  0  0
 29 34  1  0  0  0  0
 30 29  2  0  0  0  0
 31 26  2  0  0  0  0
 31 30  1  0  0  0  0
 35 36  1  0  0  0  0
 36 37  2  0  0  0  0
 36 30  1  0  0  0  0
 37 38  1  0  0  0  0
 39 40  1  0  0  0  0
 39 37  1  0  0  0  0
 40 41  1  0  0  0  0
 42 40  1  0  0  0  0
 43 42  1  0  0  0  0
 44 45  1  0  0  0  0
 44 42  2  0  0  0  0
 45 39  2  0  0  0  0
 46 45  1  0  0  0  0
 46 35  2  0  0  0  0
M  END
>  <minimizedAffinity>
-6.95725393

$$$$

 OpenBabel03242516513D

 46 50  0  0  1  0  0  0  0  0999 V2000
   36.6120   30.6210   39.1350 C   0  0  1  0  0  0  0  0  0  0  0  0
   36.8190   29.6400   38.0500 C   0  0  0  0  0  0  0  0  0  0  0  0
   35.4290   29.3260   37.4960 C   0  0  0  0  0  0  0  0  0  0  0  0
   34.7090   28.5360   38.5740 C   0  0  0  0  0  0  0  0  0  0  0  0
   34.6690   29.2140   39.9040 C   0  0  0  0  0  0  0  0  0  0  0  0
   35.8240   30.0360   40.2890 C   0  0  1  0  0  0  0  0  0  0  0  0
   35.9360   31.4430   38.7530 H   0  0  0  0  0  0  0  0  0  0  0  0
   37.4560   30.0810   37.2600 H   0  0  0  0  0  0  0  0  0  0  0  0
   37.2620   28.6880   38.3750 H   0  0  0  0  0  0  0  0  0  0  0  0
   34.8910   30.2260   37.1990 H   0  0  0  0  0  0  0  0  0  0  0  0
   35.6090   28.6270   36.6490 H   0  0  0  0  0  0  0  0  0  0  0  0
   33.6670   28.3780   38.1910 H   0  0  0  0  0  0  0  0  0  0  0  0
   35.1640   27.5250   38.6020 H   0  0  0  0  0  0  0  0  0  0  0  0
   33.7040   29.7940   39.9460 H   0  0  0  0  0  0  0  0  0  0  0  0
   34.5300   28.4180   40.6820 H   0  0  0  0  0  0  0  0  0  0  0  0
   35.4390   30.9390   40.8580 H   0  0  0  0  0  0  0  0  0  0  0  0
   38.8500   33.2400   40.6800 C   0  0  0  0  0  0  0  0  0  0  0  0
   37.7380   32.5510   40.2020 C   0  0  0  0  0  0  0  0  0  0  0  0
   37.8110   31.2910   39.6250 C   0  0  0  0  0  0  0  0  0  0  0  0
   39.0370   30.7490   39.5450 N   0  0  0  0  0  0  0  0  0  0  0  0
   40.1310   31.4050   40.0040 C   0  0  0  0  0  0  0  0  0  0  0  0
   40.0610   32.6130   40.5580 N   0  0  0  0  0  0  0  0  0  0  0  0
   38.7940   34.2040   41.1210 H   0  0  0  0  0  0  0  0  0  0  0  0
   36.7960   33.0650   40.3090 H   0  0  0  0  0  0  0  0  0  0  0  0
   41.0490   30.8230   39.8620 H   0  0  0  0  0  0  0  0  0  0  0  0
   36.7120   29.3670   41.2560 C   0  0  0  0  0  0  0  0  0  0  0  0
   37.3250   29.9530   42.3720 C   0  0  0  0  0  0  0  0  0  0  0  0
   38.1060   29.0950   43.1540 C   0  0  0  0  0  0  0  0  0  0  0  0
   38.2070   27.7720   42.7710 C   0  0  0  0  0  0  0  0  0  0  0  0
   37.6020   27.2180   41.6780 C   0  0  0  0  0  0  0  0  0  0  0  0
   36.8450   28.0460   40.9210 N   0  0  0  0  0  0  0  0  0  0  0  0
   37.1350   30.9790   42.5080 H   0  0  0  0  0  0  0  0  0  0  0  0
   38.5700   29.5410   44.0020 H   0  0  0  0  0  0  0  0  0  0  0  0
   38.8290   27.1890   43.4340 H   0  0  0  0  0  0  0  0  0  0  0  0
   38.7470   25.0000   41.8150 C   0  0  0  0  0  3  0  0  0  0  0  0
   37.7450   25.8060   41.3220 C   0  0  0  0  0  0  0  0  0  0  0  0
   36.8350   25.2440   40.4480 C   0  0  0  0  0  0  0  0  0  0  0  0
   36.0340   25.8570   40.0440 H   0  0  0  0  0  0  0  0  0  0  0  0
   36.8670   23.9260   40.0400 C   0  0  0  0  0  0  0  0  0  0  0  0
   36.1160   23.1640   39.2200 N   0  0  0  0  0  0  0  0  0  0  0  0
   35.2930   23.5450   38.7240 H   0  0  0  0  0  0  0  0  0  0  0  0
   36.6090   21.9090   39.1800 C   0  0  0  0  0  0  0  0  0  0  0  0
   36.2260   21.0720   38.6160 H   0  0  0  0  0  0  0  0  0  0  0  0
   37.7270   21.8870   40.0180 C   0  0  0  0  0  3  0  0  0  0  0  0
   37.8860   23.1490   40.5540 C   0  0  0  0  0  0  0  0  0  0  0  0
   38.8220   23.6610   41.4300 C   0  0  0  0  0  3  0  0  0  0  0  0
  1  7  1  6  0  0  0
  1 19  1  0  0  0  0
  1  6  1  0  0  0  0
  2  9  1  0  0  0  0
  2  1  1  0  0  0  0
  3  2  1  0  0  0  0
  3  4  1  0  0  0  0
  4 13  1  0  0  0  0
  4  5  1  0  0  0  0
  5 14  1  0  0  0  0
  5  6  1  0  0  0  0
  5 15  1  0  0  0  0
  6 16  1  1  0  0  0
  6 26  1  0  0  0  0
  8  2  1  0  0  0  0
 10  3  1  0  0  0  0
 11  3  1  0  0  0  0
 12  4  1  0  0  0  0
 17 23  1  0  0  0  0
 18 24  1  0  0  0  0
 18 17  2  0  0  0  0
 19 18  1  0  0  0  0
 20 19  2  0  0  0  0
 20 21  1  0  0  0  0
 21 22  2  0  0  0  0
 22 17  1  0  0  0  0
 25 21  1  0  0  0  0
 26 27  1  0  0  0  0
 27 32  1  0  0  0  0
 27 28  2  0  0  0  0
 28 33  1  0  0  0  0
 29 28  1  0  0  0  0
 29 34  1  0  0  0  0
 30 29  2  0  0  0  0
 31 26  2  0  0  0  0
 31 30  1  0  0  0  0
 36 30  1  0  0  0  0
 36 35  2  0  0  0  0
 37 36  1  0  0  0  0
 38 37  1  0  0  0  0
 39 37  2  0  0  0  0
 39 45  1  0  0  0  0
 40 39  1  0  0  0  0
 41 40  1  0  0  0  0
 42 40  1  0  0  0  0
 42 44  2  0  0  0  0
 43 42  1  0  0  0  0
 44 45  1  0  0  0  0
 45 46  2  0  0  0  0
 46 35  1  0  0  0  0
M  END
>  <minimizedAffinity>
-6.74423265

$$$$

 OpenBabel03242516513D

 46 50  0  0  1  0  0  0  0  0999 V2000
   37.6880   26.5190   41.5040 C   0  0  1  0  0  0  0  0  0  0  0  0
   39.0650   26.9370   41.8410 C   0  0  0  0  0  0  0  0  0  0  0  0
   39.0760   27.1670   43.3530 C   0  0  0  0  0  0  0  0  0  0  0  0
   38.2420   28.4100   43.6010 C   0  0  0  0  0  0  0  0  0  0  0  0
   36.8640   28.3460   43.0300 C   0  0  0  0  0  0  0  0  0  0  0  0
   36.6780   27.6170   41.7670 C   0  0  1  0  0  0  0  0  0  0  0  0
   37.3740   25.7030   42.2210 H   0  0  0  0  0  0  0  0  0  0  0  0
   39.7780   26.1360   41.5690 H   0  0  0  0  0  0  0  0  0  0  0  0
   39.3840   27.8760   41.3670 H   0  0  0  0  0  0  0  0  0  0  0  0
   38.7160   26.2980   43.9040 H   0  0  0  0  0  0  0  0  0  0  0  0
   40.1300   27.4290   43.5950 H   0  0  0  0  0  0  0  0  0  0  0  0
   38.1920   28.5260   44.7160 H   0  0  0  0  0  0  0  0  0  0  0  0
   38.8320   29.2800   43.2460 H   0  0  0  0  0  0  0  0  0  0  0  0
   36.1900   27.9580   43.8450 H   0  0  0  0  0  0  0  0  0  0  0  0
   36.5130   29.4010   42.8810 H   0  0  0  0  0  0  0  0  0  0  0  0
   35.6800   27.0810   41.8150 H   0  0  0  0  0  0  0  0  0  0  0  0
   36.2550   24.4990   38.6540 C   0  0  0  0  0  0  0  0  0  0  0  0
   36.4770   25.0650   39.9080 C   0  0  0  0  0  0  0  0  0  0  0  0
   37.5000   25.9650   40.1680 C   0  0  0  0  0  0  0  0  0  0  0  0
   38.2910   26.2760   39.1290 N   0  0  0  0  0  0  0  0  0  0  0  0
   38.0910   25.7350   37.9020 C   0  0  0  0  0  0  0  0  0  0  0  0
   37.1100   24.8720   37.6520 N   0  0  0  0  0  0  0  0  0  0  0  0
   35.4730   23.8100   38.4550 H   0  0  0  0  0  0  0  0  0  0  0  0
   35.7920   24.7560   40.6810 H   0  0  0  0  0  0  0  0  0  0  0  0
   38.8240   26.0940   37.1690 H   0  0  0  0  0  0  0  0  0  0  0  0
   36.5420   28.5080   40.6010 C   0  0  0  0  0  0  0  0  0  0  0  0
   35.5070   28.4940   39.6560 C   0  0  0  0  0  0  0  0  0  0  0  0
   35.5930   29.4630   38.6500 C   0  0  0  0  0  0  0  0  0  0  0  0
   36.6650   30.3340   38.6720 C   0  0  0  0  0  0  0  0  0  0  0  0
   37.6650   30.3320   39.6030 C   0  0  0  0  0  0  0  0  0  0  0  0
   37.5840   29.3950   40.5760 N   0  0  0  0  0  0  0  0  0  0  0  0
   34.7710   27.7550   39.7990 H   0  0  0  0  0  0  0  0  0  0  0  0
   34.8060   29.4520   37.9340 H   0  0  0  0  0  0  0  0  0  0  0  0
   36.6450   31.0450   37.8590 H   0  0  0  0  0  0  0  0  0  0  0  0
   39.3020   31.8650   40.7050 C   0  0  0  0  0  3  0  0  0  0  0  0
   38.7780   31.2820   39.5740 C   0  0  0  0  0  0  0  0  0  0  0  0
   39.3380   31.6150   38.3570 C   0  0  0  0  0  0  0  0  0  0  0  0
   38.9440   31.1680   37.4470 H   0  0  0  0  0  0  0  0  0  0  0  0
   40.3890   32.4950   38.2030 C   0  0  0  0  0  0  0  0  0  0  0  0
   41.0900   32.9700   37.1540 N   0  0  0  0  0  0  0  0  0  0  0  0
   40.8840   32.6770   36.1840 H   0  0  0  0  0  0  0  0  0  0  0  0
   42.0350   33.8310   37.5840 C   0  0  0  0  0  0  0  0  0  0  0  0
   42.7520   34.3710   36.9840 H   0  0  0  0  0  0  0  0  0  0  0  0
   41.9180   33.8970   38.9750 C   0  0  0  0  0  3  0  0  0  0  0  0
   40.8890   33.0620   39.3590 C   0  0  0  0  0  0  0  0  0  0  0  0
   40.3650   32.7640   40.6020 C   0  0  0  0  0  3  0  0  0  0  0  0
  1  6  1  0  0  0  0
  1  2  1  0  0  0  0
  1  7  1  1  0  0  0
  2  3  1  0  0  0  0
  3 11  1  0  0  0  0
  3  4  1  0  0  0  0
  3 10  1  0  0  0  0
  4 12  1  0  0  0  0
  5  4  1  0  0  0  0
  5 14  1  0  0  0  0
  6 16  1  1  0  0  0
  6  5  1  0  0  0  0
  8  2  1  0  0  0  0
  9  2  1  0  0  0  0
 13  4  1  0  0  0  0
 15  5  1  0  0  0  0
 17 18  1  0  0  0  0
 18 19  2  0  0  0  0
 18 24  1  0  0  0  0
 19  1  1  0  0  0  0
 20 19  1  0  0  0  0
 21 20  2  0  0  0  0
 22 21  1  0  0  0  0
 22 17  2  0  0  0  0
 23 17  1  0  0  0  0
 25 21  1  0  0  0  0
 26  6  1  0  0  0  0
 27 32  1  0  0  0  0
 27 26  2  0  0  0  0
 28 29  2  0  0  0  0
 28 27  1  0  0  0  0
 29 30  1  0  0  0  0
 30 31  2  0  0  0  0
 31 26  1  0  0  0  0
 33 28  1  0  0  0  0
 34 29  1  0  0  0  0
 36 30  1  0  0  0  0
 36 35  2  0  0  0  0
 37 36  1  0  0  0  0
 38 37  1  0  0  0  0
 39 37  2  0  0  0  0
 39 45  1  0  0  0  0
 40 42  1  0  0  0  0
 40 39  1  0  0  0  0
 41 40  1  0  0  0  0
 42 44  2  0  0  0  0
 43 42  1  0  0  0  0
 44 45  1  0  0  0  0
 45 46  2  0  0  0  0
 46 35  1  0  0  0  0
M  END
>  <minimizedAffinity>
-6.43535233

$$$$

 OpenBabel03242516513D

 46 50  0  0  1  0  0  0  0  0999 V2000
   38.7700   25.4820   41.8320 C   0  0  1  0  0  0  0  0  0  0  0  0
   39.6800   26.5770   42.2270 C   0  0  0  0  0  0  0  0  0  0  0  0
   39.3310   26.9100   43.6790 C   0  0  0  0  0  0  0  0  0  0  0  0
   37.9610   27.5630   43.6480 C   0  0  0  0  0  0  0  0  0  0  0  0
   36.9120   26.7490   42.9670 C   0  0  0  0  0  0  0  0  0  0  0  0
   37.3200   25.9220   41.8230 C   0  0  1  0  0  0  0  0  0  0  0  0
   38.7920   24.6860   42.6360 H   0  0  0  0  0  0  0  0  0  0  0  0
   40.7310   26.2370   42.1540 H   0  0  0  0  0  0  0  0  0  0  0  0
   39.5620   27.5000   41.6450 H   0  0  0  0  0  0  0  0  0  0  0  0
   39.3680   26.0320   44.3240 H   0  0  0  0  0  0  0  0  0  0  0  0
   40.0590   27.6970   43.9750 H   0  0  0  0  0  0  0  0  0  0  0  0
   37.6810   27.7330   44.7210 H   0  0  0  0  0  0  0  0  0  0  0  0
   38.0890   28.5770   43.2180 H   0  0  0  0  0  0  0  0  0  0  0  0
   36.3980   26.1420   43.7650 H   0  0  0  0  0  0  0  0  0  0  0  0
   36.1120   27.4550   42.6210 H   0  0  0  0  0  0  0  0  0  0  0  0
   36.7290   24.9550   41.8600 H   0  0  0  0  0  0  0  0  0  0  0  0
   40.2340   24.8050   38.4190 C   0  0  0  0  0  0  0  0  0  0  0  0
   39.8920   25.4090   39.6270 C   0  0  0  0  0  0  0  0  0  0  0  0
   39.1020   24.7970   40.5890 C   0  0  0  0  0  0  0  0  0  0  0  0
   38.6680   23.5600   40.2970 N   0  0  0  0  0  0  0  0  0  0  0  0
   38.9910   22.9570   39.1260 C   0  0  0  0  0  0  0  0  0  0  0  0
   39.7490   23.5430   38.2030 N   0  0  0  0  0  0  0  0  0  0  0  0
   40.8390   25.2730   37.6830 H   0  0  0  0  0  0  0  0  0  0  0  0
   40.2860   26.4020   39.7730 H   0  0  0  0  0  0  0  0  0  0  0  0
   38.5550   21.9530   39.0470 H   0  0  0  0  0  0  0  0  0  0  0  0
   36.9500   26.5100   40.5230 C   0  0  0  0  0  0  0  0  0  0  0  0
   36.3580   25.8410   39.4430 C   0  0  0  0  0  0  0  0  0  0  0  0
   36.0790   26.6310   38.3220 C   0  0  0  0  0  0  0  0  0  0  0  0
   36.4010   27.9730   38.3730 C   0  0  0  0  0  0  0  0  0  0  0  0
   36.9770   28.6080   39.4360 C   0  0  0  0  0  0  0  0  0  0  0  0
   37.2480   27.8450   40.5210 N   0  0  0  0  0  0  0  0  0  0  0  0
   36.1850   24.8130   39.5840 H   0  0  0  0  0  0  0  0  0  0  0  0
   35.6290   26.1220   37.5020 H   0  0  0  0  0  0  0  0  0  0  0  0
   36.1480   28.5000   37.4640 H   0  0  0  0  0  0  0  0  0  0  0  0
   36.8560   30.9050   38.4580 C   0  0  0  0  0  3  0  0  0  0  0  0
   37.2960   30.0360   39.4310 C   0  0  0  0  0  0  0  0  0  0  0  0
   38.0750   30.5480   40.4490 C   0  0  0  0  0  0  0  0  0  0  0  0
   38.4360   29.8840   41.2310 H   0  0  0  0  0  0  0  0  0  0  0  0
   38.4400   31.8750   40.5520 C   0  0  0  0  0  0  0  0  0  0  0  0
   39.1720   32.5980   41.4240 N   0  0  0  0  0  0  0  0  0  0  0  0
   39.6150   32.1660   42.2520 H   0  0  0  0  0  0  0  0  0  0  0  0
   39.2080   33.8880   41.0340 C   0  0  0  0  0  0  0  0  0  0  0  0
   39.7110   34.7080   41.5250 H   0  0  0  0  0  0  0  0  0  0  0  0
   38.4590   33.9760   39.8570 C   0  0  0  0  0  3  0  0  0  0  0  0
   37.9810   32.7170   39.5590 C   0  0  0  0  0  0  0  0  0  0  0  0
   37.1990   32.2560   38.5180 C   0  0  0  0  0  3  0  0  0  0  0  0
  1  2  1  0  0  0  0
  1  7  1  1  0  0  0
  2  3  1  0  0  0  0
  3 11  1  0  0  0  0
  3 10  1  0  0  0  0
  4  3  1  0  0  0  0
  4 12  1  0  0  0  0
  5  4  1  0  0  0  0
  5 14  1  0  0  0  0
  6  1  1  0  0  0  0
  6 16  1  1  0  0  0
  6  5  1  0  0  0  0
  8  2  1  0  0  0  0
  9  2  1  0  0  0  0
 13  4  1  0  0  0  0
 15  5  1  0  0  0  0
 17 18  1  0  0  0  0
 18 24  1  0  0  0  0
 18 19  2  0  0  0  0
 19  1  1  0  0  0  0
 20 19  1  0  0  0  0
 21 20  2  0  0  0  0
 22 17  2  0  0  0  0
 22 21  1  0  0  0  0
 23 17  1  0  0  0  0
 25 21  1  0  0  0  0
 26  6  1  0  0  0  0
 27 32  1  0  0  0  0
 27 26  2  0  0  0  0
 28 29  2  0  0  0  0
 28 27  1  0  0  0  0
 29 30  1  0  0  0  0
 30 31  2  0  0  0  0
 31 26  1  0  0  0  0
 33 28  1  0  0  0  0
 34 29  1  0  0  0  0
 35 46  2  0  0  0  0
 35 36  1  0  0  0  0
 36 30  1  0  0  0  0
 36 37  2  0  0  0  0
 37 39  1  0  0  0  0
 37 38  1  0  0  0  0
 39 40  1  0  0  0  0
 40 41  1  0  0  0  0
 42 40  1  0  0  0  0
 42 43  1  0  0  0  0
 44 42  2  0  0  0  0
 45 44  1  0  0  0  0
 45 39  2  0  0  0  0
 46 45  1  0  0  0  0
M  END
>  <minimizedAffinity>
-6.40611649

$$$$

 OpenBabel03242516513D

 46 50  0  0  1  0  0  0  0  0999 V2000
   37.8090   25.9250   40.1150 C   0  0  1  0  0  0  0  0  0  0  0  0
   36.6140   25.1440   40.4930 C   0  0  0  0  0  0  0  0  0  0  0  0
   36.2740   24.2810   39.2770 C   0  0  0  0  0  0  0  0  0  0  0  0
   35.7680   25.2320   38.2080 C   0  0  0  0  0  0  0  0  0  0  0  0
   36.7080   26.3480   37.8890 C   0  0  0  0  0  0  0  0  0  0  0  0
   37.5230   26.8920   38.9840 C   0  0  1  0  0  0  0  0  0  0  0  0
   38.5720   25.2220   39.6660 H   0  0  0  0  0  0  0  0  0  0  0  0
   36.8440   24.5020   41.3660 H   0  0  0  0  0  0  0  0  0  0  0  0
   35.7260   25.7500   40.7200 H   0  0  0  0  0  0  0  0  0  0  0  0
   37.1230   23.6830   38.9450 H   0  0  0  0  0  0  0  0  0  0  0  0
   35.4060   23.6630   39.5980 H   0  0  0  0  0  0  0  0  0  0  0  0
   35.5950   24.6020   37.2960 H   0  0  0  0  0  0  0  0  0  0  0  0
   34.7600   25.5740   38.5200 H   0  0  0  0  0  0  0  0  0  0  0  0
   37.3400   26.0060   37.0210 H   0  0  0  0  0  0  0  0  0  0  0  0
   36.1000   27.1850   37.4550 H   0  0  0  0  0  0  0  0  0  0  0  0
   38.5450   27.1510   38.5660 H   0  0  0  0  0  0  0  0  0  0  0  0
   38.4550   27.4970   43.4870 C   0  0  0  0  0  0  0  0  0  0  0  0
   37.8520   26.8440   42.4140 C   0  0  0  0  0  0  0  0  0  0  0  0
   38.4940   26.6080   41.2060 C   0  0  0  0  0  0  0  0  0  0  0  0
   39.7590   27.0480   41.1140 N   0  0  0  0  0  0  0  0  0  0  0  0
   40.3620   27.6860   42.1480 C   0  0  0  0  0  0  0  0  0  0  0  0
   39.7470   27.9120   43.3060 N   0  0  0  0  0  0  0  0  0  0  0  0
   37.9640   27.6780   44.4100 H   0  0  0  0  0  0  0  0  0  0  0  0
   36.8350   26.5270   42.5800 H   0  0  0  0  0  0  0  0  0  0  0  0
   41.3910   27.9780   41.9070 H   0  0  0  0  0  0  0  0  0  0  0  0
   37.0180   28.1780   39.4960 C   0  0  0  0  0  0  0  0  0  0  0  0
   35.7470   28.4200   40.0360 C   0  0  0  0  0  0  0  0  0  0  0  0
   35.5160   29.7270   40.4790 C   0  0  0  0  0  0  0  0  0  0  0  0
   36.5370   30.6490   40.3510 C   0  0  0  0  0  0  0  0  0  0  0  0
   37.7710   30.3950   39.8220 C   0  0  0  0  0  0  0  0  0  0  0  0
   37.9950   29.1300   39.3930 N   0  0  0  0  0  0  0  0  0  0  0  0
   35.0950   27.5940   40.0530 H   0  0  0  0  0  0  0  0  0  0  0  0
   34.5520   29.9100   40.8890 H   0  0  0  0  0  0  0  0  0  0  0  0
   36.2670   31.6290   40.7200 H   0  0  0  0  0  0  0  0  0  0  0  0
   39.2370   32.1800   40.7750 C   0  0  0  0  0  3  0  0  0  0  0  0
   38.8140   31.4150   39.7120 C   0  0  0  0  0  0  0  0  0  0  0  0
   39.4110   31.6270   38.4860 C   0  0  0  0  0  0  0  0  0  0  0  0
   39.0970   31.0360   37.6290 H   0  0  0  0  0  0  0  0  0  0  0  0
   40.4050   32.5570   38.2600 C   0  0  0  0  0  0  0  0  0  0  0  0
   41.1250   32.9420   37.1870 N   0  0  0  0  0  0  0  0  0  0  0  0
   40.9900   32.5100   36.2570 H   0  0  0  0  0  0  0  0  0  0  0  0
   41.9830   33.9220   37.5360 C   0  0  0  0  0  0  0  0  0  0  0  0
   42.6910   34.4320   36.8990 H   0  0  0  0  0  0  0  0  0  0  0  0
   41.7900   34.1610   38.9000 C   0  0  0  0  0  3  0  0  0  0  0  0
   40.8030   33.3070   39.3490 C   0  0  0  0  0  0  0  0  0  0  0  0
   40.2380   33.1350   40.5970 C   0  0  0  0  0  3  0  0  0  0  0  0
  1  7  1  6  0  0  0
  1  2  1  0  0  0  0
  1 19  1  0  0  0  0
  2  9  1  0  0  0  0
  2  8  1  0  0  0  0
  3 11  1  0  0  0  0
  3  2  1  0  0  0  0
  4 13  1  0  0  0  0
  4  3  1  0  0  0  0
  5  4  1  0  0  0  0
  5  6  1  0  0  0  0
  6 16  1  6  0  0  0
  6 26  1  0  0  0  0
  6  1  1  0  0  0  0
 10  3  1  0  0  0  0
 12  4  1  0  0  0  0
 14  5  1  0  0  0  0
 15  5  1  0  0  0  0
 17 23  1  0  0  0  0
 18 24  1  0  0  0  0
 18 17  2  0  0  0  0
 19 18  1  0  0  0  0
 20 19  2  0  0  0  0
 20 21  1  0  0  0  0
 21 22  2  0  0  0  0
 22 17  1  0  0  0  0
 25 21  1  0  0  0  0
 26 27  1  0  0  0  0
 27 32  1  0  0  0  0
 27 28  2  0  0  0  0
 28 33  1  0  0  0  0
 29 28  1  0  0  0  0
 29 34  1  0  0  0  0
 30 29  2  0  0  0  0
 31 26  2  0  0  0  0
 31 30  1  0  0  0  0
 36 30  1  0  0  0  0
 36 35  2  0  0  0  0
 37 36  1  0  0  0  0
 38 37  1  0  0  0  0
 39 37  2  0  0  0  0
 39 45  1  0  0  0  0
 40 42  1  0  0  0  0
 40 39  1  0  0  0  0
 41 40  1  0  0  0  0
 42 44  2  0  0  0  0
 43 42  1  0  0  0  0
 44 45  1  0  0  0  0
 45 46  2  0  0  0  0
 46 35  1  0  0  0  0
M  END
>  <minimizedAffinity>
-6.27675724

$$$$

 OpenBabel03242516513D

 46 50  0  0  1  0  0  0  0  0999 V2000
   40.3050   25.6940   41.6620 C   0  0  1  0  0  0  0  0  0  0  0  0
   41.1310   26.6230   40.8630 C   0  0  0  0  0  0  0  0  0  0  0  0
   42.3850   26.8920   41.6970 C   0  0  0  0  0  0  0  0  0  0  0  0
   41.9370   27.7250   42.8840 C   0  0  0  0  0  0  0  0  0  0  0  0
   40.8290   27.1130   43.6760 C   0  0  0  0  0  0  0  0  0  0  0  0
   39.8220   26.3250   42.9520 C   0  0  1  0  0  0  0  0  0  0  0  0
   40.9610   24.8450   42.0210 H   0  0  0  0  0  0  0  0  0  0  0  0
   41.4050   26.1500   39.9010 H   0  0  0  0  0  0  0  0  0  0  0  0
   40.6600   27.5940   40.6630 H   0  0  0  0  0  0  0  0  0  0  0  0
   42.8900   25.9720   41.9910 H   0  0  0  0  0  0  0  0  0  0  0  0
   43.0170   27.5490   41.0590 H   0  0  0  0  0  0  0  0  0  0  0  0
   42.8470   27.8520   43.5270 H   0  0  0  0  0  0  0  0  0  0  0  0
   41.7070   28.7420   42.5050 H   0  0  0  0  0  0  0  0  0  0  0  0
   41.3090   26.5250   44.5080 H   0  0  0  0  0  0  0  0  0  0  0  0
   40.3030   27.9450   44.2140 H   0  0  0  0  0  0  0  0  0  0  0  0
   39.5270   25.4470   43.6060 H   0  0  0  0  0  0  0  0  0  0  0  0
   37.6550   23.1760   40.7180 C   0  0  0  0  0  0  0  0  0  0  0  0
   38.7070   23.8280   41.3580 C   0  0  0  0  0  0  0  0  0  0  0  0
   39.1950   25.0640   40.9570 C   0  0  0  0  0  0  0  0  0  0  0  0
   38.5910   25.6210   39.8950 N   0  0  0  0  0  0  0  0  0  0  0  0
   37.5660   25.0010   39.2600 C   0  0  0  0  0  0  0  0  0  0  0  0
   37.0980   23.8160   39.6440 N   0  0  0  0  0  0  0  0  0  0  0  0
   37.2810   22.2310   41.0240 H   0  0  0  0  0  0  0  0  0  0  0  0
   39.1290   23.3040   42.2000 H   0  0  0  0  0  0  0  0  0  0  0  0
   37.1890   25.5910   38.4160 H   0  0  0  0  0  0  0  0  0  0  0  0
   38.5570   27.0530   42.7480 C   0  0  0  0  0  0  0  0  0  0  0  0
   37.2700   26.5900   43.0530 C   0  0  0  0  0  0  0  0  0  0  0  0
   36.2260   27.4840   42.7890 C   0  0  0  0  0  0  0  0  0  0  0  0
   36.5440   28.7200   42.2610 C   0  0  0  0  0  0  0  0  0  0  0  0
   37.8060   29.1540   41.9700 C   0  0  0  0  0  0  0  0  0  0  0  0
   38.8170   28.2910   42.2260 N   0  0  0  0  0  0  0  0  0  0  0  0
   37.2190   25.6170   43.4500 H   0  0  0  0  0  0  0  0  0  0  0  0
   35.2490   27.1320   43.0210 H   0  0  0  0  0  0  0  0  0  0  0  0
   35.6760   29.3400   42.0920 H   0  0  0  0  0  0  0  0  0  0  0  0
   37.1430   31.2230   40.7340 C   0  0  0  0  0  3  0  0  0  0  0  0
   38.0820   30.4790   41.4110 C   0  0  0  0  0  0  0  0  0  0  0  0
   39.3440   31.0170   41.5660 C   0  0  0  0  0  0  0  0  0  0  0  0
   40.1050   30.4510   42.0960 H   0  0  0  0  0  0  0  0  0  0  0  0
   39.7210   32.2540   41.0850 C   0  0  0  0  0  0  0  0  0  0  0  0
   40.8580   32.9790   41.1060 N   0  0  0  0  0  0  0  0  0  0  0  0
   41.7170   32.6310   41.5620 H   0  0  0  0  0  0  0  0  0  0  0  0
   40.6670   34.1520   40.4670 C   0  0  0  0  0  0  0  0  0  0  0  0
   41.3870   34.9420   40.3190 H   0  0  0  0  0  0  0  0  0  0  0  0
   39.3420   34.1590   40.0230 C   0  0  0  0  0  3  0  0  0  0  0  0
   38.7530   32.9720   40.4110 C   0  0  0  0  0  0  0  0  0  0  0  0
   37.4770   32.4800   40.2280 C   0  0  0  0  0  3  0  0  0  0  0  0
  1  7  1  1  0  0  0
  1  6  1  0  0  0  0
  2  1  1  0  0  0  0
  2  3  1  0  0  0  0
  3 10  1  0  0  0  0
  3  4  1  0  0  0  0
  4 12  1  0  0  0  0
  4  5  1  0  0  0  0
  5 15  1  0  0  0  0
  5 14  1  0  0  0  0
  6 16  1  1  0  0  0
  6  5  1  0  0  0  0
  8  2  1  0  0  0  0
  9  2  1  0  0  0  0
 11  3  1  0  0  0  0
 13  4  1  0  0  0  0
 17 23  1  0  0  0  0
 17 18  1  0  0  0  0
 18 24  1  0  0  0  0
 19 18  2  0  0  0  0
 19  1  1  0  0  0  0
 20 19  1  0  0  0  0
 21 22  1  0  0  0  0
 21 20  2  0  0  0  0
 22 17  2  0  0  0  0
 25 21  1  0  0  0  0
 26  6  1  0  0  0  0
 26 27  1  0  0  0  0
 27 32  1  0  0  0  0
 28 33  1  0  0  0  0
 28 27  2  0  0  0  0
 29 28  1  0  0  0  0
 30 31  1  0  0  0  0
 30 29  2  0  0  0  0
 31 26  2  0  0  0  0
 34 29  1  0  0  0  0
 35 36  1  0  0  0  0
 36 37  2  0  0  0  0
 36 30  1  0  0  0  0
 37 38  1  0  0  0  0
 39 40  1  0  0  0  0
 39 37  1  0  0  0  0
 40 41  1  0  0  0  0
 42 40  1  0  0  0  0
 43 42  1  0  0  0  0
 44 45  1  0  0  0  0
 44 42  2  0  0  0  0
 45 39  2  0  0  0  0
 46 45  1  0  0  0  0
 46 35  2  0  0  0  0
M  END
>  <minimizedAffinity>
-6.26609278

$$$$

 OpenBabel03242516513D

 46 50  0  0  1  0  0  0  0  0999 V2000
   38.5440   25.2900   41.0120 C   0  0  1  0  0  0  0  0  0  0  0  0
   37.6890   24.0850   41.0300 C   0  0  0  0  0  0  0  0  0  0  0  0
   38.4590   23.0120   40.2570 C   0  0  0  0  0  0  0  0  0  0  0  0
   38.4510   23.4480   38.8030 C   0  0  0  0  0  0  0  0  0  0  0  0
   38.9810   24.8250   38.5750 C   0  0  0  0  0  0  0  0  0  0  0  0
   38.7300   25.8360   39.6120 C   0  0  1  0  0  0  0  0  0  0  0  0
   39.5930   24.9920   41.3130 H   0  0  0  0  0  0  0  0  0  0  0  0
   37.5210   23.7580   42.0750 H   0  0  0  0  0  0  0  0  0  0  0  0
   36.7170   24.2090   40.5340 H   0  0  0  0  0  0  0  0  0  0  0  0
   39.4640   22.8630   40.6500 H   0  0  0  0  0  0  0  0  0  0  0  0
   37.8250   22.1000   40.3260 H   0  0  0  0  0  0  0  0  0  0  0  0
   39.0820   22.6980   38.2570 H   0  0  0  0  0  0  0  0  0  0  0  0
   37.4220   23.2960   38.4180 H   0  0  0  0  0  0  0  0  0  0  0  0
   40.0780   24.7200   38.3440 H   0  0  0  0  0  0  0  0  0  0  0  0
   38.5450   25.1970   37.6110 H   0  0  0  0  0  0  0  0  0  0  0  0
   39.6470   26.5000   39.6840 H   0  0  0  0  0  0  0  0  0  0  0  0
   38.7740   28.3350   43.2330 C   0  0  0  0  0  0  0  0  0  0  0  0
   39.0840   27.2990   42.3540 C   0  0  0  0  0  0  0  0  0  0  0  0
   38.1590   26.3570   41.9280 C   0  0  0  0  0  0  0  0  0  0  0  0
   36.9140   26.4900   42.4140 N   0  0  0  0  0  0  0  0  0  0  0  0
   36.5940   27.4920   43.2710 C   0  0  0  0  0  0  0  0  0  0  0  0
   37.4810   28.3960   43.6790 N   0  0  0  0  0  0  0  0  0  0  0  0
   39.4810   29.0550   43.5600 H   0  0  0  0  0  0  0  0  0  0  0  0
   40.1080   27.2720   42.0180 H   0  0  0  0  0  0  0  0  0  0  0  0
   35.5390   27.4560   43.5690 H   0  0  0  0  0  0  0  0  0  0  0  0
   37.6470   26.7710   39.2570 C   0  0  0  0  0  0  0  0  0  0  0  0
   36.3620   26.4310   38.8130 C   0  0  0  0  0  0  0  0  0  0  0  0
   35.5030   27.5070   38.5640 C   0  0  0  0  0  0  0  0  0  0  0  0
   35.9820   28.7860   38.7720 C   0  0  0  0  0  0  0  0  0  0  0  0
   37.2390   29.0990   39.2050 C   0  0  0  0  0  0  0  0  0  0  0  0
   38.0710   28.0590   39.4460 N   0  0  0  0  0  0  0  0  0  0  0  0
   36.1740   25.4010   38.7120 H   0  0  0  0  0  0  0  0  0  0  0  0
   34.5270   27.2480   38.2280 H   0  0  0  0  0  0  0  0  0  0  0  0
   35.2480   29.5490   38.5540 H   0  0  0  0  0  0  0  0  0  0  0  0
   36.8620   31.5680   39.2790 C   0  0  0  0  0  3  0  0  0  0  0  0
   37.6900   30.4760   39.4070 C   0  0  0  0  0  0  0  0  0  0  0  0
   39.0090   30.7020   39.7440 C   0  0  0  0  0  0  0  0  0  0  0  0
   39.6860   29.8570   39.8520 H   0  0  0  0  0  0  0  0  0  0  0  0
   39.5490   31.9530   39.9600 C   0  0  0  0  0  0  0  0  0  0  0  0
   40.7700   32.4210   40.2890 N   0  0  0  0  0  0  0  0  0  0  0  0
   41.5730   31.7880   40.4420 H   0  0  0  0  0  0  0  0  0  0  0  0
   40.7400   33.7670   40.3720 C   0  0  0  0  0  0  0  0  0  0  0  0
   41.5590   34.4270   40.6160 H   0  0  0  0  0  0  0  0  0  0  0  0
   39.4310   34.1600   40.0790 C   0  0  0  0  0  3  0  0  0  0  0  0
   38.6900   33.0250   39.8230 C   0  0  0  0  0  0  0  0  0  0  0  0
   37.3610   32.8550   39.4870 C   0  0  0  0  0  3  0  0  0  0  0  0
  1  2  1  0  0  0  0
  1  7  1  1  0  0  0
  1 19  1  0  0  0  0
  2  8  1  0  0  0  0
  3 11  1  0  0  0  0
  3 10  1  0  0  0  0
  3  2  1  0  0  0  0
  4  3  1  0  0  0  0
  5  4  1  0  0  0  0
  5  6  1  0  0  0  0
  6 16  1  1  0  0  0
  6  1  1  0  0  0  0
  9  2  1  0  0  0  0
 12  4  1  0  0  0  0
 13  4  1  0  0  0  0
 14  5  1  0  0  0  0
 15  5  1  0  0  0  0
 17 23  1  0  0  0  0
 17 22  1  0  0  0  0
 18 17  2  0  0  0  0
 19 18  1  0  0  0  0
 19 20  2  0  0  0  0
 20 21  1  0  0  0  0
 21 25  1  0  0  0  0
 21 22  2  0  0  0  0
 24 18  1  0  0  0  0
 26 31  1  0  0  0  0
 26  6  1  0  0  0  0
 27 26  2  0  0  0  0
 28 29  2  0  0  0  0
 28 27  1  0  0  0  0
 29 30  1  0  0  0  0
 30 36  1  0  0  0  0
 30 31  2  0  0  0  0
 32 27  1  0  0  0  0
 33 28  1  0  0  0  0
 34 29  1  0  0  0  0
 35 36  2  0  0  0  0
 35 46  1  0  0  0  0
 36 37  1  0  0  0  0
 37 38  1  0  0  0  0
 37 39  2  0  0  0  0
 39 40  1  0  0  0  0
 40 42  1  0  0  0  0
 40 41  1  0  0  0  0
 42 43  1  0  0  0  0
 44 42  2  0  0  0  0
 45 39  1  0  0  0  0
 45 44  1  0  0  0  0
 46 45  2  0  0  0  0
M  END
>  <minimizedAffinity>
-6.22440767

$$$$

 OpenBabel03242516513D

 46 50  0  0  1  0  0  0  0  0999 V2000
   36.5710   27.3050   40.1960 C   0  0  1  0  0  0  0  0  0  0  0  0
   37.7730   26.5300   40.5680 C   0  0  0  0  0  0  0  0  0  0  0  0
   37.3780   25.7040   41.7930 C   0  0  0  0  0  0  0  0  0  0  0  0
   37.2080   26.6900   42.9350 C   0  0  0  0  0  0  0  0  0  0  0  0
   36.2520   27.8000   42.6450 C   0  0  0  0  0  0  0  0  0  0  0  0
   36.1830   28.3040   41.2660 C   0  0  1  0  0  0  0  0  0  0  0  0
   35.6850   26.6020   40.1670 H   0  0  0  0  0  0  0  0  0  0  0  0
   38.0640   25.8630   39.7340 H   0  0  0  0  0  0  0  0  0  0  0  0
   38.6390   27.1430   40.8540 H   0  0  0  0  0  0  0  0  0  0  0  0
   36.4870   25.1030   41.6150 H   0  0  0  0  0  0  0  0  0  0  0  0
   38.2770   25.0910   42.0260 H   0  0  0  0  0  0  0  0  0  0  0  0
   36.8450   26.0870   43.8070 H   0  0  0  0  0  0  0  0  0  0  0  0
   38.2200   27.0380   43.2250 H   0  0  0  0  0  0  0  0  0  0  0  0
   35.2440   27.4710   43.0260 H   0  0  0  0  0  0  0  0  0  0  0  0
   36.5190   28.6570   43.3180 H   0  0  0  0  0  0  0  0  0  0  0  0
   35.1010   28.5590   41.0400 H   0  0  0  0  0  0  0  0  0  0  0  0
   37.9110   28.8220   37.0090 C   0  0  0  0  0  0  0  0  0  0  0  0
   37.8150   28.2040   38.2540 C   0  0  0  0  0  0  0  0  0  0  0  0
   36.6080   27.9480   38.8880 C   0  0  0  0  0  0  0  0  0  0  0  0
   35.5030   28.3340   38.2310 N   0  0  0  0  0  0  0  0  0  0  0  0
   35.5770   28.9380   37.0180 C   0  0  0  0  0  0  0  0  0  0  0  0
   36.7340   29.1820   36.4100 N   0  0  0  0  0  0  0  0  0  0  0  0
   38.8340   29.0170   36.5240 H   0  0  0  0  0  0  0  0  0  0  0  0
   38.7560   27.9300   38.7060 H   0  0  0  0  0  0  0  0  0  0  0  0
   34.5850   29.1870   36.6230 H   0  0  0  0  0  0  0  0  0  0  0  0
   36.8910   29.5830   41.0830 C   0  0  0  0  0  0  0  0  0  0  0  0
   36.3770   30.7450   40.4900 C   0  0  0  0  0  0  0  0  0  0  0  0
   37.2440   31.8430   40.4570 C   0  0  0  0  0  0  0  0  0  0  0  0
   38.5050   31.6950   41.0010 C   0  0  0  0  0  0  0  0  0  0  0  0
   38.9890   30.5540   41.5760 C   0  0  0  0  0  0  0  0  0  0  0  0
   38.1510   29.4910   41.6080 N   0  0  0  0  0  0  0  0  0  0  0  0
   35.3910   30.6720   40.1280 H   0  0  0  0  0  0  0  0  0  0  0  0
   36.8520   32.7240   40.0070 H   0  0  0  0  0  0  0  0  0  0  0  0
   39.1000   32.5940   40.9300 H   0  0  0  0  0  0  0  0  0  0  0  0
   40.9240   29.2640   42.4910 C   0  0  0  0  0  3  0  0  0  0  0  0
   40.3370   30.4570   42.1370 C   0  0  0  0  0  0  0  0  0  0  0  0
   41.0660   31.6150   42.3220 C   0  0  0  0  0  0  0  0  0  0  0  0
   40.6270   32.5730   42.0500 H   0  0  0  0  0  0  0  0  0  0  0  0
   42.3440   31.6510   42.8400 C   0  0  0  0  0  0  0  0  0  0  0  0
   43.2370   32.6240   43.1110 N   0  0  0  0  0  0  0  0  0  0  0  0
   43.0280   33.6200   42.9290 H   0  0  0  0  0  0  0  0  0  0  0  0
   44.3630   32.0860   43.6230 C   0  0  0  0  0  0  0  0  0  0  0  0
   45.2550   32.6070   43.9360 H   0  0  0  0  0  0  0  0  0  0  0  0
   44.1620   30.7040   43.6750 C   0  0  0  0  0  3  0  0  0  0  0  0
   42.9000   30.4350   43.1850 C   0  0  0  0  0  0  0  0  0  0  0  0
   42.2150   29.2480   43.0210 C   0  0  0  0  0  3  0  0  0  0  0  0
  1  7  1  6  0  0  0
  1  2  1  0  0  0  0
  1  6  1  0  0  0  0
  2  9  1  0  0  0  0
  2  3  1  0  0  0  0
  3 11  1  0  0  0  0
  3  4  1  0  0  0  0
  4 13  1  0  0  0  0
  4 12  1  0  0  0  0
  5  4  1  0  0  0  0
  5 14  1  0  0  0  0
  5 15  1  0  0  0  0
  6 16  1  6  0  0  0
  6  5  1  0  0  0  0
  8  2  1  0  0  0  0
 10  3  1  0  0  0  0
 17 18  1  0  0  0  0
 18 24  1  0  0  0  0
 18 19  2  0  0  0  0
 19  1  1  0  0  0  0
 20 19  1  0  0  0  0
 21 20  2  0  0  0  0
 22 17  2  0  0  0  0
 22 21  1  0  0  0  0
 23 17  1  0  0  0  0
 25 21  1  0  0  0  0
 26  6  1  0  0  0  0
 26 31  1  0  0  0  0
 27 26  2  0  0  0  0
 28 27  1  0  0  0  0
 28 29  2  0  0  0  0
 29 30  1  0  0  0  0
 30 31  2  0  0  0  0
 30 36  1  0  0  0  0
 32 27  1  0  0  0  0
 33 28  1  0  0  0  0
 34 29  1  0  0  0  0
 35 46  1  0  0  0  0
 36 37  1  0  0  0  0
 36 35  2  0  0  0  0
 37 39  2  0  0  0  0
 38 37  1  0  0  0  0
 39 40  1  0  0  0  0
 39 45  1  0  0  0  0
 40 42  1  0  0  0  0
 41 40  1  0  0  0  0
 42 44  2  0  0  0  0
 42 43  1  0  0  0  0
 45 44  1  0  0  0  0
 46 45  2  0  0  0  0
M  END
>  <minimizedAffinity>
-6.15424776

$$$$

 OpenBabel03242516513D

 46 50  0  0  1  0  0  0  0  0999 V2000
   38.1840   30.6920   39.9490 C   0  0  1  0  0  0  0  0  0  0  0  0
   37.9050   31.9460   40.6790 C   0  0  0  0  0  0  0  0  0  0  0  0
   39.2290   32.7090   40.7250 C   0  0  0  0  0  0  0  0  0  0  0  0
   40.1370   31.9320   41.6620 C   0  0  0  0  0  0  0  0  0  0  0  0
   40.3030   30.4930   41.2960 C   0  0  0  0  0  0  0  0  0  0  0  0
   39.1540   29.8010   40.6970 C   0  0  1  0  0  0  0  0  0  0  0  0
   38.7460   30.9450   39.0000 H   0  0  0  0  0  0  0  0  0  0  0  0
   37.1410   32.5360   40.1370 H   0  0  0  0  0  0  0  0  0  0  0  0
   37.5750   31.8040   41.7180 H   0  0  0  0  0  0  0  0  0  0  0  0
   39.6610   32.8460   39.7340 H   0  0  0  0  0  0  0  0  0  0  0  0
   38.9880   33.6700   41.2320 H   0  0  0  0  0  0  0  0  0  0  0  0
   41.1280   32.4550   41.6290 H   0  0  0  0  0  0  0  0  0  0  0  0
   39.7600   32.0890   42.6930 H   0  0  0  0  0  0  0  0  0  0  0  0
   41.2230   30.4250   40.6490 H   0  0  0  0  0  0  0  0  0  0  0  0
   40.5970   29.9430   42.2280 H   0  0  0  0  0  0  0  0  0  0  0  0
   39.5470   29.0840   39.9100 H   0  0  0  0  0  0  0  0  0  0  0  0
   34.6800   29.2860   39.8780 C   0  0  0  0  0  0  0  0  0  0  0  0
   35.8240   29.9980   40.2330 C   0  0  0  0  0  0  0  0  0  0  0  0
   37.0160   29.9300   39.5250 C   0  0  0  0  0  0  0  0  0  0  0  0
   37.0180   29.1250   38.4500 N   0  0  0  0  0  0  0  0  0  0  0  0
   35.9140   28.4240   38.0900 C   0  0  0  0  0  0  0  0  0  0  0  0
   34.7720   28.4890   38.7690 N   0  0  0  0  0  0  0  0  0  0  0  0
   33.7690   29.3380   40.4200 H   0  0  0  0  0  0  0  0  0  0  0  0
   35.7280   30.6180   41.1100 H   0  0  0  0  0  0  0  0  0  0  0  0
   36.0870   27.8180   37.1920 H   0  0  0  0  0  0  0  0  0  0  0  0
   38.4480   28.9240   41.6480 C   0  0  0  0  0  0  0  0  0  0  0  0
   37.9940   29.2730   42.9270 C   0  0  0  0  0  0  0  0  0  0  0  0
   37.3260   28.2640   43.6290 C   0  0  0  0  0  0  0  0  0  0  0  0
   37.1720   27.0360   43.0170 C   0  0  0  0  0  0  0  0  0  0  0  0
   37.6210   26.7130   41.7680 C   0  0  0  0  0  0  0  0  0  0  0  0
   38.2680   27.6880   41.0880 N   0  0  0  0  0  0  0  0  0  0  0  0
   38.2030   30.2590   43.2300 H   0  0  0  0  0  0  0  0  0  0  0  0
   36.9810   28.5310   44.6000 H   0  0  0  0  0  0  0  0  0  0  0  0
   36.6440   26.3220   43.6340 H   0  0  0  0  0  0  0  0  0  0  0  0
   38.0540   24.2550   41.6310 C   0  0  0  0  0  3  0  0  0  0  0  0
   37.4280   25.3910   41.1710 C   0  0  0  0  0  0  0  0  0  0  0  0
   36.5740   25.2660   40.0920 C   0  0  0  0  0  0  0  0  0  0  0  0
   36.0650   26.1470   39.7090 H   0  0  0  0  0  0  0  0  0  0  0  0
   36.3110   24.0750   39.4480 C   0  0  0  0  0  0  0  0  0  0  0  0
   35.5420   23.7040   38.4050 N   0  0  0  0  0  0  0  0  0  0  0  0
   34.9650   24.3870   37.8840 H   0  0  0  0  0  0  0  0  0  0  0  0
   35.6620   22.3780   38.1920 C   0  0  0  0  0  0  0  0  0  0  0  0
   35.1720   21.7890   37.4320 H   0  0  0  0  0  0  0  0  0  0  0  0
   36.5550   21.8950   39.1530 C   0  0  0  0  0  3  0  0  0  0  0  0
   36.9580   22.9570   39.9360 C   0  0  0  0  0  0  0  0  0  0  0  0
   37.8220   23.0270   41.0110 C   0  0  0  0  0  3  0  0  0  0  0  0
  1  7  1  6  0  0  0
  1  2  1  0  0  0  0
  1  6  1  0  0  0  0
  2  3  1  0  0  0  0
  2  9  1  0  0  0  0
  3 11  1  0  0  0  0
  3  4  1  0  0  0  0
  4 13  1  0  0  0  0
  5  4  1  0  0  0  0
  5 15  1  0  0  0  0
  6 16  1  6  0  0  0
  6  5  1  0  0  0  0
  6 26  1  0  0  0  0
  8  2  1  0  0  0  0
 10  3  1  0  0  0  0
 12  4  1  0  0  0  0
 14  5  1  0  0  0  0
 17 18  1  0  0  0  0
 17 23  1  0  0  0  0
 18 24  1  0  0  0  0
 19  1  1  0  0  0  0
 19 18  2  0  0  0  0
 20 19  1  0  0  0  0
 21 20  2  0  0  0  0
 21 22  1  0  0  0  0
 22 17  2  0  0  0  0
 25 21  1  0  0  0  0
 26 27  1  0  0  0  0
 27 32  1  0  0  0  0
 27 28  2  0  0  0  0
 28 33  1  0  0  0  0
 29 28  1  0  0  0  0
 29 34  1  0  0  0  0
 30 29  2  0  0  0  0
 31 26  2  0  0  0  0
 31 30  1  0  0  0  0
 36 35  1  0  0  0  0
 36 30  1  0  0  0  0
 37 36  2  0  0  0  0
 38 37  1  0  0  0  0
 39 45  2  0  0  0  0
 39 37  1  0  0  0  0
 40 39  1  0  0  0  0
 41 40  1  0  0  0  0
 42 40  1  0  0  0  0
 42 44  2  0  0  0  0
 43 42  1  0  0  0  0
 44 45  1  0  0  0  0
 45 46  1  0  0  0  0
 46 35  2  0  0  0  0
M  END
>  <minimizedAffinity>
-6.13389397

$$$$
