
 OpenBabel03252505113D

 47 51  0  0  1  0  0  0  0  0999 V2000
   44.5740   35.5950   44.6120 C   0  0  0  0  0  0  0  0  0  0  0  0
   45.2280   35.6030   43.3570 C   0  0  0  0  0  0  0  0  0  0  0  0
   46.3170   34.6870   43.1680 C   0  0  0  0  0  0  0  0  0  0  0  0
   46.6610   33.8630   44.2030 N   0  0  0  0  0  0  0  0  0  0  0  0
   46.0120   33.8930   45.3720 C   0  0  0  0  0  0  0  0  0  0  0  0
   44.9630   34.7560   45.5880 N   0  0  0  0  0  0  0  0  0  0  0  0
   43.7580   36.2990   44.7130 H   0  0  0  0  0  0  0  0  0  0  0  0
   44.9470   36.2610   42.5430 H   0  0  0  0  0  0  0  0  0  0  0  0
   46.4290   32.9760   46.4680 C   0  0  2  0  0  0  0  0  0  0  0  0
   46.9580   31.7440   45.7660 C   0  0  0  0  0  0  0  0  0  0  0  0
   46.0820   30.5630   45.7770 C   0  0  0  0  0  0  0  0  0  0  0  0
   45.8020   30.2930   47.2520 C   0  0  0  0  0  0  0  0  0  0  0  0
   45.0070   31.3670   47.8670 C   0  0  0  0  0  0  0  0  0  0  0  0
   45.3810   32.7350   47.4170 C   0  0  0  0  0  0  0  0  0  0  0  0
   47.2790   33.5040   46.9700 H   0  0  0  0  0  0  0  0  0  0  0  0
   47.9000   31.4560   46.2830 H   0  0  0  0  0  0  0  0  0  0  0  0
   47.2810   31.9560   44.7180 H   0  0  0  0  0  0  0  0  0  0  0  0
   45.1300   30.7860   45.2850 H   0  0  0  0  0  0  0  0  0  0  0  0
   46.6280   29.7160   45.3680 H   0  0  0  0  0  0  0  0  0  0  0  0
   45.1040   29.4140   47.2260 H   0  0  0  0  0  0  0  0  0  0  0  0
   46.6870   29.9920   47.8130 H   0  0  0  0  0  0  0  0  0  0  0  0
   44.2140   31.4160   48.5660 H   0  0  0  0  0  0  0  0  0  0  0  0
   44.6890   33.8670   47.9320 N   0  0  0  0  0  0  0  0  0  0  0  0
   45.1550   34.4960   48.6400 H   0  0  0  0  0  0  0  0  0  0  0  0
   43.7280   34.2340   47.7320 H   0  0  0  0  0  0  0  0  0  0  0  0
   47.0050   34.6670   41.9020 C   0  0  0  0  0  0  0  0  0  0  0  0
   48.1270   35.4010   41.7520 C   0  0  0  0  0  0  0  0  0  0  0  0
   48.7530   35.3430   40.4940 C   0  0  0  0  0  0  0  0  0  0  0  0
   48.1550   34.5370   39.5350 C   0  0  0  0  0  0  0  0  0  0  0  0
   47.0160   33.7920   39.6900 C   0  0  0  0  0  0  0  0  0  0  0  0
   46.4720   33.9050   40.9360 N   0  0  0  0  0  0  0  0  0  0  0  0
   48.5510   36.0120   42.5290 H   0  0  0  0  0  0  0  0  0  0  0  0
   49.6590   35.8970   40.2780 H   0  0  0  0  0  0  0  0  0  0  0  0
   48.6650   34.5130   38.5740 H   0  0  0  0  0  0  0  0  0  0  0  0
   46.4870   33.0210   38.6880 O   0  0  0  0  0  0  0  0  0  0  0  0
   48.3140   31.7260   37.6360 C   0  0  0  0  0  3  0  0  0  0  0  0
   47.1760   32.4930   37.6370 C   0  0  0  0  0  0  0  0  0  0  0  0
   46.6150   32.7970   36.3960 C   0  0  0  0  0  0  0  0  0  0  0  0
   45.7150   33.3950   36.2330 H   0  0  0  0  0  0  0  0  0  0  0  0
   47.1750   32.3490   35.2100 C   0  0  0  0  0  0  0  0  0  0  0  0
   46.8680   32.4780   33.8990 N   0  0  0  0  0  0  0  0  0  0  0  0
   46.0440   33.0110   33.5290 H   0  0  0  0  0  0  0  0  0  0  0  0
   47.7540   31.8350   33.1480 C   0  0  0  0  0  0  0  0  0  0  0  0
   47.7620   31.7650   32.0560 H   0  0  0  0  0  0  0  0  0  0  0  0
   48.6940   31.2490   33.9540 C   0  0  0  0  0  3  0  0  0  0  0  0
   48.3260   31.5750   35.2440 C   0  0  0  0  0  0  0  0  0  0  0  0
   48.8880   31.2680   36.4610 C   0  0  0  0  0  3  0  0  0  0  0  0
  1  7  1  0  0  0  0
  1  6  1  0  0  0  0
  2  1  2  0  0  0  0
  3  2  1  0  0  0  0
  3  4  2  0  0  0  0
  4  5  1  0  0  0  0
  5  6  2  0  0  0  0
  5  9  1  0  0  0  0
  8  2  1  0  0  0  0
  9 15  1  1  0  0  0
  9 14  1  0  0  0  0
 10 11  1  0  0  0  0
 10 16  1  0  0  0  0
 10  9  1  0  0  0  0
 11 12  1  0  0  0  0
 12 21  1  0  0  0  0
 12 13  1  0  0  0  0
 13 22  1  0  0  0  0
 14 13  2  0  0  0  0
 14 23  1  0  0  0  0
 17 10  1  0  0  0  0
 18 11  1  0  0  0  0
 19 11  1  0  0  0  0
 20 12  1  0  0  0  0
 23 24  1  0  0  0  0
 25 23  1  0  0  0  0
 26  3  1  0  0  0  0
 27 26  1  0  0  0  0
 27 32  1  0  0  0  0
 28 27  2  0  0  0  0
 29 30  2  0  0  0  0
 29 28  1  0  0  0  0
 30 31  1  0  0  0  0
 31 26  2  0  0  0  0
 33 28  1  0  0  0  0
 34 29  1  0  0  0  0
 35 30  1  0  0  0  0
 36 37  1  0  0  0  0
 37 35  1  0  0  0  0
 38 37  2  0  0  0  0
 39 38  1  0  0  0  0
 40 46  2  0  0  0  0
 40 38  1  0  0  0  0
 41 40  1  0  0  0  0
 42 41  1  0  0  0  0
 43 41  1  0  0  0  0
 43 45  2  0  0  0  0
 44 43  1  0  0  0  0
 45 46  1  0  0  0  0
 46 47  1  0  0  0  0
 47 36  2  0  0  0  0
M  END
>  <minimizedAffinity>
-7.8541708

>  <minimizedRMSD>
0.729200304

$$$$
