
 OpenBabel03252502523D

 34 37  0  0  0  0  0  0  0  0999 V2000
   45.5530   30.1460   44.1230 Br  0  0  0  0  0  0  0  0  0  0  0  0
   45.8110   30.7850   45.9240 C   0  0  0  0  0  0  0  0  0  0  0  0
   46.5350   31.9600   46.0560 C   0  0  0  0  0  0  0  0  0  0  0  0
   46.6930   32.3770   47.3720 C   0  0  0  0  0  0  0  0  0  0  0  0
   46.1920   31.7110   48.4720 C   0  0  0  0  0  0  0  0  0  0  0  0
   45.4860   30.5550   48.2550 C   0  0  0  0  0  0  0  0  0  0  0  0
   45.2810   30.0660   46.9640 C   0  0  0  0  0  0  0  0  0  0  0  0
   47.2470   33.2880   47.5700 H   0  0  0  0  0  0  0  0  0  0  0  0
   46.3550   32.0950   49.4560 H   0  0  0  0  0  0  0  0  0  0  0  0
   45.1060   30.0550   49.1370 H   0  0  0  0  0  0  0  0  0  0  0  0
   44.9470   27.8020   47.6010 C   0  0  0  0  0  0  0  0  0  0  0  0
   44.5320   28.8470   46.8000 C   0  0  0  0  0  0  0  0  0  0  0  0
   43.4750   28.6100   45.9570 C   0  0  0  0  0  0  0  0  0  0  0  0
   43.1730   29.4470   45.3430 H   0  0  0  0  0  0  0  0  0  0  0  0
   42.8310   27.4080   45.8800 C   0  0  0  0  0  0  0  0  0  0  0  0
   41.8020   27.0570   45.1100 N   0  0  0  0  0  0  0  0  0  0  0  0
   41.3020   27.6580   44.4160 H   0  0  0  0  0  0  0  0  0  0  0  0
   41.5110   25.7820   45.3780 C   0  0  0  0  0  0  0  0  0  0  0  0
   40.7120   25.2280   44.8960 H   0  0  0  0  0  0  0  0  0  0  0  0
   42.3900   25.3230   46.3490 C   0  0  0  0  0  0  0  0  0  0  0  0
   43.2400   26.3590   46.6780 C   0  0  0  0  0  0  0  0  0  0  0  0
   44.3020   26.5820   47.5300 C   0  0  0  0  0  0  0  0  0  0  0  0
   47.1110   32.7460   44.9730 C   0  0  0  0  0  0  0  0  0  0  0  0
   48.1460   33.0540   45.2120 H   0  0  0  0  0  0  0  0  0  0  0  0
   47.1490   32.0850   44.0600 H   0  0  0  0  0  0  0  0  0  0  0  0
   44.5560   35.4820   44.9510 C   0  0  0  0  0  0  0  0  0  0  0  0
   44.7790   36.0640   43.6970 C   0  0  0  0  0  0  0  0  0  0  0  0
   45.7750   35.5280   42.8980 C   0  0  0  0  0  0  0  0  0  0  0  0
   46.4990   34.4600   43.3500 N   0  0  0  0  0  0  0  0  0  0  0  0
   46.2570   33.9120   44.5800 C   0  0  0  0  0  0  0  0  0  0  0  0
   45.2820   34.4440   45.3530 N   0  0  0  0  0  0  0  0  0  0  0  0
   43.7880   35.8840   45.5830 H   0  0  0  0  0  0  0  0  0  0  0  0
   44.2090   36.9100   43.3340 H   0  0  0  0  0  0  0  0  0  0  0  0
   46.0240   35.9090   41.9110 H   0  0  0  0  0  0  0  0  0  0  0  0
  1  2  1  0  0  0  0
  2  3  2  0  0  0  0
  2  7  1  0  0  0  0
  3  4  1  0  0  0  0
  4  8  1  0  0  0  0
  4  5  2  0  0  0  0
  5  9  1  0  0  0  0
  6  5  1  0  0  0  0
  6 10  1  0  0  0  0
  7  6  2  0  0  0  0
 12  7  1  0  0  0  0
 12 11  2  0  0  0  0
 13 12  1  0  0  0  0
 14 13  1  0  0  0  0
 15 13  2  0  0  0  0
 15 21  1  0  0  0  0
 16 18  1  0  0  0  0
 16 15  1  0  0  0  0
 17 16  1  0  0  0  0
 18 20  2  0  0  0  0
 19 18  1  0  0  0  0
 20 21  1  0  0  0  0
 21 22  2  0  0  0  0
 22 11  1  0  0  0  0
 23 24  1  0  0  0  0
 23  3  1  0  0  0  0
 25 23  1  0  0  0  0
 26 31  1  0  0  0  0
 26 32  1  0  0  0  0
 27 26  2  0  0  0  0
 28 29  2  0  0  0  0
 28 27  1  0  0  0  0
 29 30  1  0  0  0  0
 30 23  1  0  0  0  0
 30 31  2  0  0  0  0
 33 27  1  0  0  0  0
 34 28  1  0  0  0  0
M  END
>  <minimizedAffinity>
-5.9162097

>  <minimizedRMSD>
1.09020984

$$$$
