
 OpenBabel03242510103D

 31 34  0  0  0  0  0  0  0  0999 V2000
   38.4200   27.7520   39.4390 Br  0  0  0  0  0  0  0  0  0  0  0  0
   37.6580   27.5390   41.1760 C   0  0  0  0  0  0  0  0  0  0  0  0
   37.2700   26.2860   41.6060 C   0  0  0  0  0  0  0  0  0  0  0  0
   36.7110   26.1080   42.8740 C   0  0  0  0  0  0  0  0  0  0  0  0
   36.5600   27.2060   43.6730 C   0  0  0  0  0  0  0  0  0  0  0  0
   36.9600   28.4340   43.2030 C   0  0  0  0  0  0  0  0  0  0  0  0
   37.5080   28.6390   41.9750 C   0  0  0  0  0  0  0  0  0  0  0  0
   36.4130   25.1030   43.1880 H   0  0  0  0  0  0  0  0  0  0  0  0
   36.1280   27.0780   44.6570 H   0  0  0  0  0  0  0  0  0  0  0  0
   36.8120   29.2650   43.8910 H   0  0  0  0  0  0  0  0  0  0  0  0
   39.1810   30.3660   41.9660 C   0  0  0  0  0  3  0  0  0  0  0  0
   37.8940   29.9890   41.5870 C   0  0  0  0  0  0  0  0  0  0  0  0
   37.1330   30.9000   40.9040 C   0  0  0  0  0  0  0  0  0  0  0  0
   36.1520   30.5860   40.6260 H   0  0  0  0  0  0  0  0  0  0  0  0
   37.5960   32.1570   40.5850 C   0  0  0  0  0  0  0  0  0  0  0  0
   36.9650   33.1540   39.9200 N   0  0  0  0  0  0  0  0  0  0  0  0
   35.9970   33.1010   39.5420 H   0  0  0  0  0  0  0  0  0  0  0  0
   37.8650   34.1610   39.8840 C   0  0  0  0  0  0  0  0  0  0  0  0
   37.6470   35.1100   39.4090 H   0  0  0  0  0  0  0  0  0  0  0  0
   39.0410   33.8040   40.5140 C   0  0  0  0  0  3  0  0  0  0  0  0
   38.8720   32.5210   40.9650 C   0  0  0  0  0  0  0  0  0  0  0  0
   39.6760   31.6230   41.6610 C   0  0  0  0  0  3  0  0  0  0  0  0
   38.8120   23.4260   39.9290 C   0  0  0  0  0  0  0  0  0  0  0  0
   37.8060   22.9910   39.0260 C   0  0  0  0  0  0  0  0  0  0  0  0
   36.6090   23.7060   39.0210 C   0  0  0  0  0  0  0  0  0  0  0  0
   36.4580   24.7640   39.8620 N   0  0  0  0  0  0  0  0  0  0  0  0
   37.4530   25.1500   40.7160 C   0  0  0  0  0  0  0  0  0  0  0  0
   38.6130   24.4660   40.7280 N   0  0  0  0  0  0  0  0  0  0  0  0
   39.7810   22.9550   40.0270 H   0  0  0  0  0  0  0  0  0  0  0  0
   38.0350   22.1500   38.4160 H   0  0  0  0  0  0  0  0  0  0  0  0
   35.8400   23.3850   38.3410 H   0  0  0  0  0  0  0  0  0  0  0  0
  1  2  1  0  0  0  0
  2  3  2  0  0  0  0
  2  7  1  0  0  0  0
  3  4  1  0  0  0  0
  4  8  1  0  0  0  0
  4  5  2  0  0  0  0
  5  9  1  0  0  0  0
  6  5  1  0  0  0  0
  6 10  1  0  0  0  0
  7  6  2  0  0  0  0
 12 11  2  0  0  0  0
 12  7  1  0  0  0  0
 13 12  1  0  0  0  0
 14 13  1  0  0  0  0
 15 13  2  0  0  0  0
 15 21  1  0  0  0  0
 16 15  1  0  0  0  0
 17 16  1  0  0  0  0
 18 16  1  0  0  0  0
 18 20  2  0  0  0  0
 19 18  1  0  0  0  0
 20 21  1  0  0  0  0
 21 22  2  0  0  0  0
 22 11  1  0  0  0  0
 23 29  1  0  0  0  0
 23 28  1  0  0  0  0
 24 23  2  0  0  0  0
 25 24  1  0  0  0  0
 25 26  2  0  0  0  0
 26 27  1  0  0  0  0
 27 28  2  0  0  0  0
 27  3  1  0  0  0  0
 30 24  1  0  0  0  0
 31 25  1  0  0  0  0
M  END
>  <minimizedAffinity>
-6.01859331

$$$$

 OpenBabel03242510103D

 31 34  0  0  0  0  0  0  0  0999 V2000
   38.4210   28.0640   39.2940 Br  0  0  0  0  0  0  0  0  0  0  0  0
   37.8030   27.9090   41.0930 C   0  0  0  0  0  0  0  0  0  0  0  0
   37.4520   26.6710   41.5930 C   0  0  0  0  0  0  0  0  0  0  0  0
   36.9980   26.5350   42.9070 C   0  0  0  0  0  0  0  0  0  0  0  0
   36.9100   27.6590   43.6800 C   0  0  0  0  0  0  0  0  0  0  0  0
   37.2690   28.8700   43.1390 C   0  0  0  0  0  0  0  0  0  0  0  0
   37.7160   29.0350   41.8650 C   0  0  0  0  0  0  0  0  0  0  0  0
   36.7270   25.5410   43.2770 H   0  0  0  0  0  0  0  0  0  0  0  0
   36.5590   27.5640   44.6990 H   0  0  0  0  0  0  0  0  0  0  0  0
   37.1760   29.7240   43.8090 H   0  0  0  0  0  0  0  0  0  0  0  0
   37.0380   31.0690   40.7770 C   0  0  0  0  0  3  0  0  0  0  0  0
   38.0680   30.3710   41.4030 C   0  0  0  0  0  0  0  0  0  0  0  0
   39.2840   30.9890   41.5230 C   0  0  0  0  0  0  0  0  0  0  0  0
   40.0550   30.4330   42.0060 H   0  0  0  0  0  0  0  0  0  0  0  0
   39.5140   32.2630   41.0490 C   0  0  0  0  0  0  0  0  0  0  0  0
   40.6510   32.9960   41.0950 N   0  0  0  0  0  0  0  0  0  0  0  0
   41.5490   32.6800   41.5150 H   0  0  0  0  0  0  0  0  0  0  0  0
   40.3280   34.1610   40.4920 C   0  0  0  0  0  0  0  0  0  0  0  0
   41.0450   34.9650   40.3740 H   0  0  0  0  0  0  0  0  0  0  0  0
   39.0120   34.1610   40.0750 C   0  0  0  0  0  3  0  0  0  0  0  0
   38.4870   32.9460   40.4300 C   0  0  0  0  0  0  0  0  0  0  0  0
   37.2370   32.3500   40.2900 C   0  0  0  0  0  3  0  0  0  0  0  0
   38.8320   23.7120   39.9480 C   0  0  0  0  0  0  0  0  0  0  0  0
   37.7820   23.2930   39.0880 C   0  0  0  0  0  0  0  0  0  0  0  0
   36.6140   24.0520   39.1000 C   0  0  0  0  0  0  0  0  0  0  0  0
   36.5290   25.1370   39.9170 N   0  0  0  0  0  0  0  0  0  0  0  0
   37.5640   25.5060   40.7290 C   0  0  0  0  0  0  0  0  0  0  0  0
   38.6970   24.7790   40.7240 N   0  0  0  0  0  0  0  0  0  0  0  0
   39.7850   23.2070   40.0280 H   0  0  0  0  0  0  0  0  0  0  0  0
   37.9600   22.4280   38.4950 H   0  0  0  0  0  0  0  0  0  0  0  0
   35.8120   23.7440   38.4530 H   0  0  0  0  0  0  0  0  0  0  0  0
  1  2  1  0  0  0  0
  2  3  2  0  0  0  0
  2  7  1  0  0  0  0
  3  4  1  0  0  0  0
  4  8  1  0  0  0  0
  4  5  2  0  0  0  0
  5  9  1  0  0  0  0
  6  5  1  0  0  0  0
  6 10  1  0  0  0  0
  7  6  2  0  0  0  0
 11 12  1  0  0  0  0
 12 13  2  0  0  0  0
 12  7  1  0  0  0  0
 13 14  1  0  0  0  0
 15 16  1  0  0  0  0
 15 13  1  0  0  0  0
 16 17  1  0  0  0  0
 18 16  1  0  0  0  0
 19 18  1  0  0  0  0
 20 21  1  0  0  0  0
 20 18  2  0  0  0  0
 21 15  2  0  0  0  0
 22 21  1  0  0  0  0
 22 11  2  0  0  0  0
 23 29  1  0  0  0  0
 23 28  1  0  0  0  0
 24 25  1  0  0  0  0
 24 23  2  0  0  0  0
 25 26  2  0  0  0  0
 26 27  1  0  0  0  0
 27  3  1  0  0  0  0
 28 27  2  0  0  0  0
 30 24  1  0  0  0  0
 31 25  1  0  0  0  0
M  END
>  <minimizedAffinity>
-5.98670816

$$$$

 OpenBabel03242510103D

 31 34  0  0  0  0  0  0  0  0999 V2000
   39.9440   28.4030   40.0630 Br  0  0  0  0  0  0  0  0  0  0  0  0
   38.7300   28.0740   41.4980 C   0  0  0  0  0  0  0  0  0  0  0  0
   37.3800   28.3050   41.3210 C   0  0  0  0  0  0  0  0  0  0  0  0
   36.4740   28.0700   42.3590 C   0  0  0  0  0  0  0  0  0  0  0  0
   36.9610   27.6080   43.5490 C   0  0  0  0  0  0  0  0  0  0  0  0
   38.3120   27.3940   43.6800 C   0  0  0  0  0  0  0  0  0  0  0  0
   39.2180   27.6120   42.6900 C   0  0  0  0  0  0  0  0  0  0  0  0
   35.4100   28.2610   42.1890 H   0  0  0  0  0  0  0  0  0  0  0  0
   36.2660   27.4230   44.3590 H   0  0  0  0  0  0  0  0  0  0  0  0
   38.6310   27.0250   44.6540 H   0  0  0  0  0  0  0  0  0  0  0  0
   41.4110   28.4800   43.1570 C   0  0  0  0  0  3  0  0  0  0  0  0
   40.6270   27.3470   42.9470 C   0  0  0  0  0  0  0  0  0  0  0  0
   41.2390   26.1230   42.9990 C   0  0  0  0  0  0  0  0  0  0  0  0
   40.6160   25.2730   42.8350 H   0  0  0  0  0  0  0  0  0  0  0  0
   42.5870   25.9820   43.2510 C   0  0  0  0  0  0  0  0  0  0  0  0
   43.3230   24.8490   43.3320 N   0  0  0  0  0  0  0  0  0  0  0  0
   42.9520   23.8850   43.2110 H   0  0  0  0  0  0  0  0  0  0  0  0
   44.5770   25.2780   43.5960 C   0  0  0  0  0  0  0  0  0  0  0  0
   45.4050   24.5900   43.7190 H   0  0  0  0  0  0  0  0  0  0  0  0
   44.6280   26.6540   43.6780 C   0  0  0  0  0  3  0  0  0  0  0  0
   43.3550   27.1090   43.4580 C   0  0  0  0  0  0  0  0  0  0  0  0
   42.7680   28.3710   43.4110 C   0  0  0  0  0  3  0  0  0  0  0  0
   35.9260   28.3610   37.9670 C   0  0  0  0  0  0  0  0  0  0  0  0
   36.0280   29.7250   37.5860 C   0  0  0  0  0  0  0  0  0  0  0  0
   36.6030   30.5980   38.5080 C   0  0  0  0  0  0  0  0  0  0  0  0
   37.0310   30.1180   39.7070 N   0  0  0  0  0  0  0  0  0  0  0  0
   36.9140   28.7960   40.0340 C   0  0  0  0  0  0  0  0  0  0  0  0
   36.3600   27.9450   39.1500 N   0  0  0  0  0  0  0  0  0  0  0  0
   35.4990   27.5890   37.3410 H   0  0  0  0  0  0  0  0  0  0  0  0
   35.6580   29.9870   36.6240 H   0  0  0  0  0  0  0  0  0  0  0  0
   36.6860   31.6340   38.2300 H   0  0  0  0  0  0  0  0  0  0  0  0
  1  2  1  0  0  0  0
  2  7  1  0  0  0  0
  3  2  2  0  0  0  0
  3  4  1  0  0  0  0
  4  5  2  0  0  0  0
  5  6  1  0  0  0  0
  5  9  1  0  0  0  0
  6 10  1  0  0  0  0
  7 12  1  0  0  0  0
  7  6  2  0  0  0  0
  8  4  1  0  0  0  0
 11 22  1  0  0  0  0
 12 13  1  0  0  0  0
 12 11  2  0  0  0  0
 13 15  2  0  0  0  0
 14 13  1  0  0  0  0
 15 16  1  0  0  0  0
 15 21  1  0  0  0  0
 16 18  1  0  0  0  0
 17 16  1  0  0  0  0
 18 20  2  0  0  0  0
 18 19  1  0  0  0  0
 21 20  1  0  0  0  0
 22 21  2  0  0  0  0
 23 28  1  0  0  0  0
 24 23  2  0  0  0  0
 24 25  1  0  0  0  0
 25 26  2  0  0  0  0
 26 27  1  0  0  0  0
 27  3  1  0  0  0  0
 28 27  2  0  0  0  0
 29 23  1  0  0  0  0
 30 24  1  0  0  0  0
 31 25  1  0  0  0  0
M  END
>  <minimizedAffinity>
-5.63693714

$$$$

 OpenBabel03242510103D

 31 34  0  0  0  0  0  0  0  0999 V2000
   39.6260   28.2070   40.0580 Br  0  0  0  0  0  0  0  0  0  0  0  0
   37.9210   29.0350   40.2770 C   0  0  0  0  0  0  0  0  0  0  0  0
   36.8200   28.2650   40.5950 C   0  0  0  0  0  0  0  0  0  0  0  0
   35.5630   28.8510   40.7600 C   0  0  0  0  0  0  0  0  0  0  0  0
   35.4550   30.2040   40.5980 C   0  0  0  0  0  0  0  0  0  0  0  0
   36.5780   30.9300   40.2810 C   0  0  0  0  0  0  0  0  0  0  0  0
   37.8140   30.3890   40.1150 C   0  0  0  0  0  0  0  0  0  0  0  0
   34.7080   28.2150   41.0120 H   0  0  0  0  0  0  0  0  0  0  0  0
   34.4850   30.6670   40.7240 H   0  0  0  0  0  0  0  0  0  0  0  0
   36.4200   32.0020   40.1670 H   0  0  0  0  0  0  0  0  0  0  0  0
   39.6160   31.7890   40.8720 C   0  0  0  0  0  3  0  0  0  0  0  0
   38.9310   31.2620   39.7790 C   0  0  0  0  0  0  0  0  0  0  0  0
   39.3610   31.6050   38.5250 C   0  0  0  0  0  0  0  0  0  0  0  0
   38.8190   31.1870   37.7070 H   0  0  0  0  0  0  0  0  0  0  0  0
   40.4350   32.4430   38.3170 C   0  0  0  0  0  0  0  0  0  0  0  0
   40.9690   32.8670   37.1470 N   0  0  0  0  0  0  0  0  0  0  0  0
   40.6230   32.6030   36.2020 H   0  0  0  0  0  0  0  0  0  0  0  0
   41.9960   33.6650   37.5130 C   0  0  0  0  0  0  0  0  0  0  0  0
   42.6260   34.1610   36.7850 H   0  0  0  0  0  0  0  0  0  0  0  0
   42.1050   33.7420   38.8870 C   0  0  0  0  0  3  0  0  0  0  0  0
   41.1060   32.9600   39.4050 C   0  0  0  0  0  0  0  0  0  0  0  0
   40.6980   32.6350   40.6960 C   0  0  0  0  0  3  0  0  0  0  0  0
   36.9580   24.6940   39.8200 C   0  0  0  0  0  0  0  0  0  0  0  0
   37.3120   24.1010   41.0610 C   0  0  0  0  0  0  0  0  0  0  0  0
   37.4950   24.9590   42.1430 C   0  0  0  0  0  0  0  0  0  0  0  0
   37.3320   26.2990   41.9690 N   0  0  0  0  0  0  0  0  0  0  0  0
   36.9900   26.8290   40.7570 C   0  0  0  0  0  0  0  0  0  0  0  0
   36.8110   26.0080   39.7050 N   0  0  0  0  0  0  0  0  0  0  0  0
   36.7890   24.1350   38.9090 H   0  0  0  0  0  0  0  0  0  0  0  0
   37.4130   23.0420   41.0780 H   0  0  0  0  0  0  0  0  0  0  0  0
   37.7630   24.5210   43.0880 H   0  0  0  0  0  0  0  0  0  0  0  0
  1  2  1  0  0  0  0
  2  3  1  0  0  0  0
  3 27  1  0  0  0  0
  3  4  2  0  0  0  0
  4  8  1  0  0  0  0
  5  9  1  0  0  0  0
  5  4  1  0  0  0  0
  6  5  2  0  0  0  0
  7  2  2  0  0  0  0
  7  6  1  0  0  0  0
 10  6  1  0  0  0  0
 12  7  1  0  0  0  0
 12 11  2  0  0  0  0
 13 12  1  0  0  0  0
 14 13  1  0  0  0  0
 15 13  2  0  0  0  0
 15 21  1  0  0  0  0
 16 18  1  0  0  0  0
 16 15  1  0  0  0  0
 17 16  1  0  0  0  0
 18 20  2  0  0  0  0
 19 18  1  0  0  0  0
 20 21  1  0  0  0  0
 21 22  2  0  0  0  0
 22 11  1  0  0  0  0
 23 24  1  0  0  0  0
 24 30  1  0  0  0  0
 24 25  2  0  0  0  0
 25 31  1  0  0  0  0
 26 25  1  0  0  0  0
 27 26  2  0  0  0  0
 28 23  2  0  0  0  0
 28 27  1  0  0  0  0
 29 23  1  0  0  0  0
M  END
>  <minimizedAffinity>
-5.60409117

$$$$

 OpenBabel03242510103D

 31 34  0  0  0  0  0  0  0  0999 V2000
   38.9360   29.2300   39.7700 Br  0  0  0  0  0  0  0  0  0  0  0  0
   38.1140   28.6130   41.3780 C   0  0  0  0  0  0  0  0  0  0  0  0
   36.8500   28.0600   41.3330 C   0  0  0  0  0  0  0  0  0  0  0  0
   36.2310   27.6010   42.4990 C   0  0  0  0  0  0  0  0  0  0  0  0
   36.9090   27.7170   43.6790 C   0  0  0  0  0  0  0  0  0  0  0  0
   38.1650   28.2750   43.6760 C   0  0  0  0  0  0  0  0  0  0  0  0
   38.7940   28.7290   42.5590 C   0  0  0  0  0  0  0  0  0  0  0  0
   35.2280   27.1670   42.4330 H   0  0  0  0  0  0  0  0  0  0  0  0
   36.4370   27.3650   44.5870 H   0  0  0  0  0  0  0  0  0  0  0  0
   38.6480   28.3360   44.6500 H   0  0  0  0  0  0  0  0  0  0  0  0
   41.1550   28.3750   42.8460 C   0  0  0  0  0  3  0  0  0  0  0  0
   40.1280   29.3020   42.6800 C   0  0  0  0  0  0  0  0  0  0  0  0
   40.4600   30.6300   42.6480 C   0  0  0  0  0  0  0  0  0  0  0  0
   39.6550   31.3180   42.5190 H   0  0  0  0  0  0  0  0  0  0  0  0
   41.7610   31.0690   42.7710 C   0  0  0  0  0  0  0  0  0  0  0  0
   42.2360   32.3370   42.7580 N   0  0  0  0  0  0  0  0  0  0  0  0
   41.6550   33.1920   42.6470 H   0  0  0  0  0  0  0  0  0  0  0  0
   43.5710   32.2000   42.9170 C   0  0  0  0  0  0  0  0  0  0  0  0
   44.2370   33.0540   42.9470 H   0  0  0  0  0  0  0  0  0  0  0  0
   43.9280   30.8710   43.0280 C   0  0  0  0  0  3  0  0  0  0  0  0
   42.7710   30.1440   42.9360 C   0  0  0  0  0  0  0  0  0  0  0  0
   42.4720   28.7840   42.9740 C   0  0  0  0  0  3  0  0  0  0  0  0
   34.7560   28.9070   38.4590 C   0  0  0  0  0  0  0  0  0  0  0  0
   34.8810   27.7720   37.6140 C   0  0  0  0  0  0  0  0  0  0  0  0
   35.6930   26.7340   38.0650 C   0  0  0  0  0  0  0  0  0  0  0  0
   36.3190   26.8480   39.2670 N   0  0  0  0  0  0  0  0  0  0  0  0
   36.1720   27.9590   40.0510 C   0  0  0  0  0  0  0  0  0  0  0  0
   35.3890   28.9670   39.6230 N   0  0  0  0  0  0  0  0  0  0  0  0
   34.1560   29.7750   38.2200 H   0  0  0  0  0  0  0  0  0  0  0  0
   34.3460   27.7930   36.6950 H   0  0  0  0  0  0  0  0  0  0  0  0
   35.7960   25.8690   37.4340 H   0  0  0  0  0  0  0  0  0  0  0  0
  1  2  1  0  0  0  0
  2  7  1  0  0  0  0
  3  2  2  0  0  0  0
  3  4  1  0  0  0  0
  4  5  2  0  0  0  0
  5  9  1  0  0  0  0
  6  5  1  0  0  0  0
  6 10  1  0  0  0  0
  7 12  1  0  0  0  0
  7  6  2  0  0  0  0
  8  4  1  0  0  0  0
 11 22  1  0  0  0  0
 12 11  2  0  0  0  0
 13 12  1  0  0  0  0
 13 15  2  0  0  0  0
 14 13  1  0  0  0  0
 15 21  1  0  0  0  0
 16 15  1  0  0  0  0
 16 18  1  0  0  0  0
 17 16  1  0  0  0  0
 18 19  1  0  0  0  0
 18 20  2  0  0  0  0
 21 22  2  0  0  0  0
 21 20  1  0  0  0  0
 23 28  1  0  0  0  0
 24 25  1  0  0  0  0
 24 23  2  0  0  0  0
 25 26  2  0  0  0  0
 26 27  1  0  0  0  0
 27  3  1  0  0  0  0
 28 27  2  0  0  0  0
 29 23  1  0  0  0  0
 30 24  1  0  0  0  0
 31 25  1  0  0  0  0
M  END
>  <minimizedAffinity>
-5.60287571

$$$$

 OpenBabel03242510103D

 31 34  0  0  0  0  0  0  0  0999 V2000
   39.7000   28.2430   40.0990 Br  0  0  0  0  0  0  0  0  0  0  0  0
   37.9750   29.0440   40.2620 C   0  0  0  0  0  0  0  0  0  0  0  0
   36.8800   28.2580   40.5620 C   0  0  0  0  0  0  0  0  0  0  0  0
   35.6090   28.8250   40.6870 C   0  0  0  0  0  0  0  0  0  0  0  0
   35.4810   30.1730   40.5020 C   0  0  0  0  0  0  0  0  0  0  0  0
   36.5990   30.9140   40.2040 C   0  0  0  0  0  0  0  0  0  0  0  0
   37.8490   30.3940   40.0770 C   0  0  0  0  0  0  0  0  0  0  0  0
   34.7590   28.1770   40.9260 H   0  0  0  0  0  0  0  0  0  0  0  0
   34.5000   30.6200   40.5960 H   0  0  0  0  0  0  0  0  0  0  0  0
   36.4260   31.9810   40.0710 H   0  0  0  0  0  0  0  0  0  0  0  0
   39.6200   31.8180   40.8620 C   0  0  0  0  0  3  0  0  0  0  0  0
   38.9590   31.2820   39.7590 C   0  0  0  0  0  0  0  0  0  0  0  0
   39.4020   31.6300   38.5110 C   0  0  0  0  0  0  0  0  0  0  0  0
   38.8790   31.2050   37.6840 H   0  0  0  0  0  0  0  0  0  0  0  0
   40.4680   32.4820   38.3180 C   0  0  0  0  0  0  0  0  0  0  0  0
   41.0140   32.9130   37.1560 N   0  0  0  0  0  0  0  0  0  0  0  0
   40.6860   32.6440   36.2060 H   0  0  0  0  0  0  0  0  0  0  0  0
   42.0240   33.7260   37.5370 C   0  0  0  0  0  0  0  0  0  0  0  0
   42.6590   34.2300   36.8180 H   0  0  0  0  0  0  0  0  0  0  0  0
   42.1110   33.8040   38.9130 C   0  0  0  0  0  3  0  0  0  0  0  0
   41.1160   33.0090   39.4160 C   0  0  0  0  0  0  0  0  0  0  0  0
   40.6930   32.6790   40.7010 C   0  0  0  0  0  3  0  0  0  0  0  0
   37.5640   25.0470   42.1700 C   0  0  0  0  0  0  0  0  0  0  0  0
   37.4350   24.1120   41.1090 C   0  0  0  0  0  0  0  0  0  0  0  0
   37.1120   24.6230   39.8530 C   0  0  0  0  0  0  0  0  0  0  0  0
   36.9370   25.9630   39.7000 N   0  0  0  0  0  0  0  0  0  0  0  0
   37.0710   26.8290   40.7490 C   0  0  0  0  0  0  0  0  0  0  0  0
   37.3820   26.3450   41.9660 N   0  0  0  0  0  0  0  0  0  0  0  0
   37.8100   24.7750   43.1880 H   0  0  0  0  0  0  0  0  0  0  0  0
   37.5940   23.0880   41.3450 H   0  0  0  0  0  0  0  0  0  0  0  0
   37.0130   23.9240   39.0410 H   0  0  0  0  0  0  0  0  0  0  0  0
  1  2  1  0  0  0  0
  2  3  1  0  0  0  0
  3  4  2  0  0  0  0
  3 27  1  0  0  0  0
  4  8  1  0  0  0  0
  5  9  1  0  0  0  0
  5  4  1  0  0  0  0
  6  5  2  0  0  0  0
  7  6  1  0  0  0  0
  7  2  2  0  0  0  0
 10  6  1  0  0  0  0
 12  7  1  0  0  0  0
 12 11  2  0  0  0  0
 13 12  1  0  0  0  0
 14 13  1  0  0  0  0
 15 13  2  0  0  0  0
 15 21  1  0  0  0  0
 16 18  1  0  0  0  0
 16 15  1  0  0  0  0
 17 16  1  0  0  0  0
 18 20  2  0  0  0  0
 19 18  1  0  0  0  0
 20 21  1  0  0  0  0
 21 22  2  0  0  0  0
 22 11  1  0  0  0  0
 23 29  1  0  0  0  0
 24 30  1  0  0  0  0
 24 23  2  0  0  0  0
 25 24  1  0  0  0  0
 26 25  2  0  0  0  0
 26 27  1  0  0  0  0
 27 28  2  0  0  0  0
 28 23  1  0  0  0  0
 31 25  1  0  0  0  0
M  END
>  <minimizedAffinity>
-5.57797337

$$$$

 OpenBabel03242510103D

 31 34  0  0  0  0  0  0  0  0999 V2000
   40.6640   30.0380   40.3170 Br  0  0  0  0  0  0  0  0  0  0  0  0
   39.1360   31.1700   40.1610 C   0  0  0  0  0  0  0  0  0  0  0  0
   39.2810   32.4560   39.6810 C   0  0  0  0  0  0  0  0  0  0  0  0
   38.1750   33.3010   39.5580 C   0  0  0  0  0  0  0  0  0  0  0  0
   36.9500   32.8200   39.9270 C   0  0  0  0  0  0  0  0  0  0  0  0
   36.8540   31.5340   40.4000 C   0  0  0  0  0  0  0  0  0  0  0  0
   37.9100   30.6870   40.5310 C   0  0  0  0  0  0  0  0  0  0  0  0
   38.3210   34.3160   39.1740 H   0  0  0  0  0  0  0  0  0  0  0  0
   36.0880   33.4680   39.8360 H   0  0  0  0  0  0  0  0  0  0  0  0
   35.8490   31.2140   40.6750 H   0  0  0  0  0  0  0  0  0  0  0  0
   37.6530   29.2410   42.4340 C   0  0  0  0  0  3  0  0  0  0  0  0
   37.6830   29.3430   41.0450 C   0  0  0  0  0  0  0  0  0  0  0  0
   37.5020   28.2010   40.3110 C   0  0  0  0  0  0  0  0  0  0  0  0
   37.5300   28.3070   39.2510 H   0  0  0  0  0  0  0  0  0  0  0  0
   37.2930   26.9720   40.9000 C   0  0  0  0  0  0  0  0  0  0  0  0
   37.1010   25.7680   40.3110 N   0  0  0  0  0  0  0  0  0  0  0  0
   37.0830   25.6010   39.2840 H   0  0  0  0  0  0  0  0  0  0  0  0
   36.9490   24.9070   41.3410 C   0  0  0  0  0  0  0  0  0  0  0  0
   36.7760   23.8490   41.1850 H   0  0  0  0  0  0  0  0  0  0  0  0
   37.0440   25.5570   42.5550 C   0  0  0  0  0  3  0  0  0  0  0  0
   37.2650   26.8800   42.2760 C   0  0  0  0  0  0  0  0  0  0  0  0
   37.4460   28.0200   43.0550 C   0  0  0  0  0  3  0  0  0  0  0  0
   42.6330   33.8970   39.9130 C   0  0  0  0  0  0  0  0  0  0  0  0
   43.1270   33.8000   38.5850 C   0  0  0  0  0  0  0  0  0  0  0  0
   42.2790   33.2330   37.6360 C   0  0  0  0  0  0  0  0  0  0  0  0
   41.0430   32.8060   38.0110 N   0  0  0  0  0  0  0  0  0  0  0  0
   40.6070   32.9190   39.3020 C   0  0  0  0  0  0  0  0  0  0  0  0
   41.4190   33.4650   40.2270 N   0  0  0  0  0  0  0  0  0  0  0  0
   43.1950   34.3160   40.7380 H   0  0  0  0  0  0  0  0  0  0  0  0
   44.1100   34.1660   38.4070 H   0  0  0  0  0  0  0  0  0  0  0  0
   42.6420   33.1550   36.6260 H   0  0  0  0  0  0  0  0  0  0  0  0
  2  1  1  0  0  0  0
  2  7  1  0  0  0  0
  3  2  2  0  0  0  0
  4  3  1  0  0  0  0
  4  5  2  0  0  0  0
  5  6  1  0  0  0  0
  6  7  2  0  0  0  0
  6 10  1  0  0  0  0
  7 12  1  0  0  0  0
  8  4  1  0  0  0  0
  9  5  1  0  0  0  0
 11 22  1  0  0  0  0
 12 11  2  0  0  0  0
 13 15  2  0  0  0  0
 13 12  1  0  0  0  0
 14 13  1  0  0  0  0
 15 21  1  0  0  0  0
 16 15  1  0  0  0  0
 16 18  1  0  0  0  0
 17 16  1  0  0  0  0
 18 20  2  0  0  0  0
 19 18  1  0  0  0  0
 21 20  1  0  0  0  0
 21 22  2  0  0  0  0
 23 28  1  0  0  0  0
 23 29  1  0  0  0  0
 24 23  2  0  0  0  0
 25 26  2  0  0  0  0
 25 24  1  0  0  0  0
 26 27  1  0  0  0  0
 27  3  1  0  0  0  0
 27 28  2  0  0  0  0
 30 24  1  0  0  0  0
 31 25  1  0  0  0  0
M  END
>  <minimizedAffinity>
-5.5577898

$$$$

 OpenBabel03242510103D

 31 34  0  0  0  0  0  0  0  0999 V2000
   36.2170   26.1750   38.7460 Br  0  0  0  0  0  0  0  0  0  0  0  0
   36.3460   27.7530   39.8120 C   0  0  0  0  0  0  0  0  0  0  0  0
   37.1210   27.7470   40.9550 C   0  0  0  0  0  0  0  0  0  0  0  0
   37.2290   28.8920   41.7490 C   0  0  0  0  0  0  0  0  0  0  0  0
   36.5480   30.0120   41.3640 C   0  0  0  0  0  0  0  0  0  0  0  0
   35.7880   29.9710   40.2200 C   0  0  0  0  0  0  0  0  0  0  0  0
   35.6630   28.8740   39.4260 C   0  0  0  0  0  0  0  0  0  0  0  0
   37.8510   28.8580   42.6500 H   0  0  0  0  0  0  0  0  0  0  0  0
   36.6250   30.9030   41.9730 H   0  0  0  0  0  0  0  0  0  0  0  0
   35.2730   30.8980   39.9710 H   0  0  0  0  0  0  0  0  0  0  0  0
   35.5200   29.1540   37.0420 C   0  0  0  0  0  3  0  0  0  0  0  0
   34.8290   28.9510   38.2340 C   0  0  0  0  0  0  0  0  0  0  0  0
   33.4640   28.8460   38.1770 C   0  0  0  0  0  0  0  0  0  0  0  0
   32.9600   28.6910   39.1030 H   0  0  0  0  0  0  0  0  0  0  0  0
   32.7670   28.9340   36.9910 C   0  0  0  0  0  0  0  0  0  0  0  0
   31.4330   28.8500   36.7800 N   0  0  0  0  0  0  0  0  0  0  0  0
   30.7190   28.7000   37.5220 H   0  0  0  0  0  0  0  0  0  0  0  0
   31.2900   29.0020   35.4450 C   0  0  0  0  0  0  0  0  0  0  0  0
   30.3190   28.9810   34.9650 H   0  0  0  0  0  0  0  0  0  0  0  0
   32.5120   29.1780   34.8280 C   0  0  0  0  0  3  0  0  0  0  0  0
   33.4610   29.1360   35.8160 C   0  0  0  0  0  0  0  0  0  0  0  0
   34.8480   29.2480   35.8350 C   0  0  0  0  0  3  0  0  0  0  0  0
   39.7960   25.2820   41.3170 C   0  0  0  0  0  0  0  0  0  0  0  0
   39.1690   24.2140   42.0110 C   0  0  0  0  0  0  0  0  0  0  0  0
   37.8240   24.3750   42.3380 C   0  0  0  0  0  0  0  0  0  0  0  0
   37.1840   25.5240   41.9880 N   0  0  0  0  0  0  0  0  0  0  0  0
   37.8260   26.5290   41.3200 C   0  0  0  0  0  0  0  0  0  0  0  0
   39.1250   26.3810   41.0000 N   0  0  0  0  0  0  0  0  0  0  0  0
   40.8330   25.2760   41.0090 H   0  0  0  0  0  0  0  0  0  0  0  0
   39.7690   23.3640   42.2330 H   0  0  0  0  0  0  0  0  0  0  0  0
   37.3380   23.5720   42.8630 H   0  0  0  0  0  0  0  0  0  0  0  0
  1  2  1  0  0  0  0
  2  3  1  0  0  0  0
  3 27  1  0  0  0  0
  3  4  2  0  0  0  0
  4  8  1  0  0  0  0
  5  4  1  0  0  0  0
  5  9  1  0  0  0  0
  6  5  2  0  0  0  0
  7  2  2  0  0  0  0
  7  6  1  0  0  0  0
 10  6  1  0  0  0  0
 11 12  1  0  0  0  0
 12  7  1  0  0  0  0
 13 12  2  0  0  0  0
 13 14  1  0  0  0  0
 15 13  1  0  0  0  0
 16 15  1  0  0  0  0
 16 17  1  0  0  0  0
 18 16  1  0  0  0  0
 19 18  1  0  0  0  0
 20 18  2  0  0  0  0
 20 21  1  0  0  0  0
 21 22  1  0  0  0  0
 21 15  2  0  0  0  0
 22 11  2  0  0  0  0
 23 24  1  0  0  0  0
 24 30  1  0  0  0  0
 24 25  2  0  0  0  0
 25 31  1  0  0  0  0
 26 25  1  0  0  0  0
 27 26  2  0  0  0  0
 28 23  2  0  0  0  0
 28 27  1  0  0  0  0
 29 23  1  0  0  0  0
M  END
>  <minimizedAffinity>
-5.44917297

$$$$

 OpenBabel03242510103D

 31 34  0  0  0  0  0  0  0  0999 V2000
   39.7310   29.7700   39.4230 Br  0  0  0  0  0  0  0  0  0  0  0  0
   38.9050   31.4770   39.6390 C   0  0  0  0  0  0  0  0  0  0  0  0
   39.4730   32.4120   40.4820 C   0  0  0  0  0  0  0  0  0  0  0  0
   38.8850   33.6670   40.6540 C   0  0  0  0  0  0  0  0  0  0  0  0
   37.7350   33.9410   39.9680 C   0  0  0  0  0  0  0  0  0  0  0  0
   37.2060   32.9800   39.1410 C   0  0  0  0  0  0  0  0  0  0  0  0
   37.7540   31.7500   38.9520 C   0  0  0  0  0  0  0  0  0  0  0  0
   39.3570   34.3880   41.3290 H   0  0  0  0  0  0  0  0  0  0  0  0
   37.2720   34.9110   40.0950 H   0  0  0  0  0  0  0  0  0  0  0  0
   36.2900   33.2650   38.6250 H   0  0  0  0  0  0  0  0  0  0  0  0
   36.1030   30.0330   38.6270 C   0  0  0  0  0  3  0  0  0  0  0  0
   37.1010   30.8130   38.0480 C   0  0  0  0  0  0  0  0  0  0  0  0
   37.3690   30.6310   36.7170 C   0  0  0  0  0  0  0  0  0  0  0  0
   38.1370   31.2410   36.2980 H   0  0  0  0  0  0  0  0  0  0  0  0
   36.6880   29.7120   35.9470 C   0  0  0  0  0  0  0  0  0  0  0  0
   36.8410   29.4240   34.6330 N   0  0  0  0  0  0  0  0  0  0  0  0
   37.5260   29.8800   33.9960 H   0  0  0  0  0  0  0  0  0  0  0  0
   35.9310   28.4550   34.3910 C   0  0  0  0  0  0  0  0  0  0  0  0
   35.8100   28.0120   33.4090 H   0  0  0  0  0  0  0  0  0  0  0  0
   35.2190   28.1410   35.5310 C   0  0  0  0  0  3  0  0  0  0  0  0
   35.7020   28.9440   36.5300 C   0  0  0  0  0  0  0  0  0  0  0  0
   35.4020   29.1010   37.8800 C   0  0  0  0  0  3  0  0  0  0  0  0
   43.0230   32.1730   41.3250 C   0  0  0  0  0  0  0  0  0  0  0  0
   43.0260   31.4190   42.5280 C   0  0  0  0  0  0  0  0  0  0  0  0
   41.7890   31.0090   43.0200 C   0  0  0  0  0  0  0  0  0  0  0  0
   40.6560   31.3410   42.3450 N   0  0  0  0  0  0  0  0  0  0  0  0
   40.6970   32.0690   41.1880 C   0  0  0  0  0  0  0  0  0  0  0  0
   41.8880   32.4700   40.7050 N   0  0  0  0  0  0  0  0  0  0  0  0
   43.9160   32.5490   40.8440 H   0  0  0  0  0  0  0  0  0  0  0  0
   43.9730   31.2200   42.9700 H   0  0  0  0  0  0  0  0  0  0  0  0
   41.7790   30.4360   43.9310 H   0  0  0  0  0  0  0  0  0  0  0  0
  1  2  1  0  0  0  0
  2  3  1  0  0  0  0
  3  4  2  0  0  0  0
  3 27  1  0  0  0  0
  4  8  1  0  0  0  0
  5  9  1  0  0  0  0
  5  4  1  0  0  0  0
  6  5  2  0  0  0  0
  7  6  1  0  0  0  0
  7  2  2  0  0  0  0
 10  6  1  0  0  0  0
 12 11  1  0  0  0  0
 12  7  1  0  0  0  0
 13 12  2  0  0  0  0
 14 13  1  0  0  0  0
 15 21  2  0  0  0  0
 15 13  1  0  0  0  0
 16 15  1  0  0  0  0
 17 16  1  0  0  0  0
 18 16  1  0  0  0  0
 18 20  2  0  0  0  0
 19 18  1  0  0  0  0
 20 21  1  0  0  0  0
 21 22  1  0  0  0  0
 22 11  2  0  0  0  0
 23 24  1  0  0  0  0
 24 30  1  0  0  0  0
 24 25  2  0  0  0  0
 25 31  1  0  0  0  0
 26 25  1  0  0  0  0
 27 26  2  0  0  0  0
 28 27  1  0  0  0  0
 28 23  2  0  0  0  0
 29 23  1  0  0  0  0
M  END
>  <minimizedAffinity>
-5.41988611

$$$$
