
 OpenBabel03252505103D

 47 51  0  0  1  0  0  0  0  0999 V2000
   44.5740   35.5640   44.5660 C   0  0  0  0  0  0  0  0  0  0  0  0
   45.2460   35.5760   43.3210 C   0  0  0  0  0  0  0  0  0  0  0  0
   46.3480   34.6720   43.1510 C   0  0  0  0  0  0  0  0  0  0  0  0
   46.6870   33.8550   44.1940 N   0  0  0  0  0  0  0  0  0  0  0  0
   46.0200   33.8810   45.3530 C   0  0  0  0  0  0  0  0  0  0  0  0
   44.9590   34.7340   45.5510 N   0  0  0  0  0  0  0  0  0  0  0  0
   43.7490   36.2600   44.6530 H   0  0  0  0  0  0  0  0  0  0  0  0
   44.9700   36.2270   42.5000 H   0  0  0  0  0  0  0  0  0  0  0  0
   46.4320   32.9730   46.4590 C   0  0  2  0  0  0  0  0  0  0  0  0
   46.9620   31.7350   45.7680 C   0  0  0  0  0  0  0  0  0  0  0  0
   46.0840   30.5550   45.7860 C   0  0  0  0  0  0  0  0  0  0  0  0
   45.7980   30.2980   47.2620 C   0  0  0  0  0  0  0  0  0  0  0  0
   45.0010   31.3780   47.8660 C   0  0  0  0  0  0  0  0  0  0  0  0
   45.3800   32.7420   47.4050 C   0  0  0  0  0  0  0  0  0  0  0  0
   47.2800   33.5040   46.9590 H   0  0  0  0  0  0  0  0  0  0  0  0
   47.9010   31.4500   46.2920 H   0  0  0  0  0  0  0  0  0  0  0  0
   47.2890   31.9380   44.7200 H   0  0  0  0  0  0  0  0  0  0  0  0
   45.1340   30.7750   45.2880 H   0  0  0  0  0  0  0  0  0  0  0  0
   46.6300   29.7030   45.3870 H   0  0  0  0  0  0  0  0  0  0  0  0
   45.0980   29.4190   47.2410 H   0  0  0  0  0  0  0  0  0  0  0  0
   46.6800   30.0000   47.8300 H   0  0  0  0  0  0  0  0  0  0  0  0
   44.2060   31.4340   48.5600 H   0  0  0  0  0  0  0  0  0  0  0  0
   44.6870   33.8790   47.9080 N   0  0  0  0  0  0  0  0  0  0  0  0
   45.1520   34.5140   48.6120 H   0  0  0  0  0  0  0  0  0  0  0  0
   43.7270   34.2450   47.7010 H   0  0  0  0  0  0  0  0  0  0  0  0
   47.0550   34.6550   41.8950 C   0  0  0  0  0  0  0  0  0  0  0  0
   48.1400   35.4410   41.7410 C   0  0  0  0  0  0  0  0  0  0  0  0
   48.7870   35.3840   40.4940 C   0  0  0  0  0  0  0  0  0  0  0  0
   48.2440   34.5240   39.5480 C   0  0  0  0  0  0  0  0  0  0  0  0
   47.1430   33.7260   39.7070 C   0  0  0  0  0  0  0  0  0  0  0  0
   46.5760   33.8420   40.9420 N   0  0  0  0  0  0  0  0  0  0  0  0
   48.5210   36.0930   42.5070 H   0  0  0  0  0  0  0  0  0  0  0  0
   49.6660   35.9790   40.2760 H   0  0  0  0  0  0  0  0  0  0  0  0
   48.7700   34.5030   38.5940 H   0  0  0  0  0  0  0  0  0  0  0  0
   46.6690   32.9040   38.7190 O   0  0  0  0  0  0  0  0  0  0  0  0
   48.5630   31.8020   37.5720 C   0  0  0  0  0  3  0  0  0  0  0  0
   47.3700   32.4750   37.6310 C   0  0  0  0  0  0  0  0  0  0  0  0
   46.7540   32.7830   36.4170 C   0  0  0  0  0  0  0  0  0  0  0  0
   45.8050   33.3130   36.3000 H   0  0  0  0  0  0  0  0  0  0  0  0
   47.3160   32.4280   35.2000 C   0  0  0  0  0  0  0  0  0  0  0  0
   46.9660   32.5840   33.9030 N   0  0  0  0  0  0  0  0  0  0  0  0
   46.0940   33.0650   33.5750 H   0  0  0  0  0  0  0  0  0  0  0  0
   47.8810   32.0450   33.1060 C   0  0  0  0  0  0  0  0  0  0  0  0
   47.8650   32.0200   32.0120 H   0  0  0  0  0  0  0  0  0  0  0  0
   48.8840   31.5050   33.8660 C   0  0  0  0  0  3  0  0  0  0  0  0
   48.5250   31.7480   35.1760 C   0  0  0  0  0  0  0  0  0  0  0  0
   49.1420   31.4380   36.3660 C   0  0  0  0  0  3  0  0  0  0  0  0
  1  7  1  0  0  0  0
  1  6  1  0  0  0  0
  2  1  2  0  0  0  0
  3  2  1  0  0  0  0
  3  4  2  0  0  0  0
  4  5  1  0  0  0  0
  5  6  2  0  0  0  0
  5  9  1  0  0  0  0
  8  2  1  0  0  0  0
  9 15  1  1  0  0  0
  9 14  1  0  0  0  0
 10 11  1  0  0  0  0
 10 16  1  0  0  0  0
 10  9  1  0  0  0  0
 11 12  1  0  0  0  0
 12 21  1  0  0  0  0
 12 13  1  0  0  0  0
 13 22  1  0  0  0  0
 14 13  2  0  0  0  0
 14 23  1  0  0  0  0
 17 10  1  0  0  0  0
 18 11  1  0  0  0  0
 19 11  1  0  0  0  0
 20 12  1  0  0  0  0
 23 24  1  0  0  0  0
 25 23  1  0  0  0  0
 26  3  1  0  0  0  0
 27 26  1  0  0  0  0
 27 32  1  0  0  0  0
 28 27  2  0  0  0  0
 29 30  2  0  0  0  0
 29 28  1  0  0  0  0
 30 31  1  0  0  0  0
 31 26  2  0  0  0  0
 33 28  1  0  0  0  0
 34 29  1  0  0  0  0
 35 30  1  0  0  0  0
 36 37  1  0  0  0  0
 37 35  1  0  0  0  0
 38 37  2  0  0  0  0
 39 38  1  0  0  0  0
 40 38  1  0  0  0  0
 41 40  1  0  0  0  0
 42 41  1  0  0  0  0
 43 45  2  0  0  0  0
 43 41  1  0  0  0  0
 44 43  1  0  0  0  0
 45 46  1  0  0  0  0
 46 40  2  0  0  0  0
 46 47  1  0  0  0  0
 47 36  2  0  0  0  0
M  END
>  <minimizedAffinity>
-7.85027981

>  <minimizedRMSD>
0.784825444

$$$$
