
 OpenBabel03252505113D

 47 51  0  0  1  0  0  0  0  0999 V2000
   44.6140   35.5300   44.5590 C   0  0  0  0  0  0  0  0  0  0  0  0
   45.2870   35.5090   43.3130 C   0  0  0  0  0  0  0  0  0  0  0  0
   46.3780   34.5890   43.1620 C   0  0  0  0  0  0  0  0  0  0  0  0
   46.7070   33.7890   44.2200 N   0  0  0  0  0  0  0  0  0  0  0  0
   46.0400   33.8450   45.3780 C   0  0  0  0  0  0  0  0  0  0  0  0
   44.9890   34.7140   45.5590 N   0  0  0  0  0  0  0  0  0  0  0  0
   43.7980   36.2360   44.6310 H   0  0  0  0  0  0  0  0  0  0  0  0
   45.0190   36.1470   42.4800 H   0  0  0  0  0  0  0  0  0  0  0  0
   46.4410   32.9540   46.5020 C   0  0  2  0  0  0  0  0  0  0  0  0
   46.9790   31.7060   45.8360 C   0  0  0  0  0  0  0  0  0  0  0  0
   46.1020   30.5260   45.8620 C   0  0  0  0  0  0  0  0  0  0  0  0
   45.8000   30.2910   47.3380 C   0  0  0  0  0  0  0  0  0  0  0  0
   44.9970   31.3790   47.9170 C   0  0  0  0  0  0  0  0  0  0  0  0
   45.3790   32.7360   47.4410 C   0  0  0  0  0  0  0  0  0  0  0  0
   47.2840   33.4930   47.0030 H   0  0  0  0  0  0  0  0  0  0  0  0
   47.9130   31.4290   46.3730 H   0  0  0  0  0  0  0  0  0  0  0  0
   47.3170   31.8930   44.7880 H   0  0  0  0  0  0  0  0  0  0  0  0
   45.1570   30.7380   45.3510 H   0  0  0  0  0  0  0  0  0  0  0  0
   46.6530   29.6690   45.4800 H   0  0  0  0  0  0  0  0  0  0  0  0
   45.1020   29.4110   47.3220 H   0  0  0  0  0  0  0  0  0  0  0  0
   46.6760   30.0020   47.9190 H   0  0  0  0  0  0  0  0  0  0  0  0
   44.1940   31.4450   48.6020 H   0  0  0  0  0  0  0  0  0  0  0  0
   44.6800   33.8800   47.9190 N   0  0  0  0  0  0  0  0  0  0  0  0
   45.1370   34.5250   48.6180 H   0  0  0  0  0  0  0  0  0  0  0  0
   43.7230   34.2430   47.6970 H   0  0  0  0  0  0  0  0  0  0  0  0
   47.0850   34.5390   41.9060 C   0  0  0  0  0  0  0  0  0  0  0  0
   48.0530   35.4470   41.6610 C   0  0  0  0  0  0  0  0  0  0  0  0
   48.7060   35.3490   40.4200 C   0  0  0  0  0  0  0  0  0  0  0  0
   48.2900   34.3310   39.5730 C   0  0  0  0  0  0  0  0  0  0  0  0
   47.3080   33.4100   39.8250 C   0  0  0  0  0  0  0  0  0  0  0  0
   46.7260   33.5740   41.0470 N   0  0  0  0  0  0  0  0  0  0  0  0
   48.3380   36.2200   42.3520 H   0  0  0  0  0  0  0  0  0  0  0  0
   49.4960   36.0330   40.1320 H   0  0  0  0  0  0  0  0  0  0  0  0
   48.8160   34.2830   38.6210 H   0  0  0  0  0  0  0  0  0  0  0  0
   46.9550   32.4320   38.9320 O   0  0  0  0  0  0  0  0  0  0  0  0
   46.8140   32.6310   36.4710 C   0  0  0  0  0  3  0  0  0  0  0  0
   47.4210   32.3080   37.6570 C   0  0  0  0  0  0  0  0  0  0  0  0
   48.7070   31.7720   37.5860 C   0  0  0  0  0  0  0  0  0  0  0  0
   49.3190   31.4670   38.4390 H   0  0  0  0  0  0  0  0  0  0  0  0
   49.3510   31.5700   36.3760 C   0  0  0  0  0  0  0  0  0  0  0  0
   50.5570   31.0840   36.0010 N   0  0  0  0  0  0  0  0  0  0  0  0
   51.2920   30.7380   36.6650 H   0  0  0  0  0  0  0  0  0  0  0  0
   50.6800   31.1080   34.6790 C   0  0  0  0  0  0  0  0  0  0  0  0
   51.5430   30.7780   34.0940 H   0  0  0  0  0  0  0  0  0  0  0  0
   49.5350   31.6200   34.1260 C   0  0  0  0  0  3  0  0  0  0  0  0
   48.7080   31.9070   35.1920 C   0  0  0  0  0  0  0  0  0  0  0  0
   47.4400   32.4370   35.2490 C   0  0  0  0  0  3  0  0  0  0  0  0
  1  7  1  0  0  0  0
  1  6  1  0  0  0  0
  2  1  2  0  0  0  0
  3  2  1  0  0  0  0
  3  4  2  0  0  0  0
  4  5  1  0  0  0  0
  5  6  2  0  0  0  0
  5  9  1  0  0  0  0
  8  2  1  0  0  0  0
  9 15  1  1  0  0  0
  9 14  1  0  0  0  0
 10 11  1  0  0  0  0
 10 16  1  0  0  0  0
 10  9  1  0  0  0  0
 11 12  1  0  0  0  0
 12 13  1  0  0  0  0
 12 21  1  0  0  0  0
 13 22  1  0  0  0  0
 14 13  2  0  0  0  0
 14 23  1  0  0  0  0
 17 10  1  0  0  0  0
 18 11  1  0  0  0  0
 19 11  1  0  0  0  0
 20 12  1  0  0  0  0
 23 24  1  0  0  0  0
 25 23  1  0  0  0  0
 26  3  1  0  0  0  0
 27 26  1  0  0  0  0
 27 32  1  0  0  0  0
 28 27  2  0  0  0  0
 29 30  2  0  0  0  0
 29 28  1  0  0  0  0
 30 31  1  0  0  0  0
 31 26  2  0  0  0  0
 33 28  1  0  0  0  0
 34 29  1  0  0  0  0
 35 30  1  0  0  0  0
 36 37  1  0  0  0  0
 37 35  1  0  0  0  0
 38 37  2  0  0  0  0
 38 39  1  0  0  0  0
 40 38  1  0  0  0  0
 41 40  1  0  0  0  0
 41 42  1  0  0  0  0
 43 41  1  0  0  0  0
 44 43  1  0  0  0  0
 45 43  2  0  0  0  0
 45 46  1  0  0  0  0
 46 47  1  0  0  0  0
 46 40  2  0  0  0  0
 47 36  2  0  0  0  0
M  END
>  <minimizedAffinity>
-7.38451576

>  <minimizedRMSD>
0.498870313

$$$$
