
 OpenBabel03242513273D

 33 36  0  0  0  0  0  0  0  0999 V2000
   46.5990   34.1090   41.0450 C   0  0  0  0  0  0  0  0  0  0  0  0
   47.0170   34.8910   42.1060 C   0  0  0  0  0  0  0  0  0  0  0  0
   48.1730   35.5920   41.9360 C   0  0  0  0  0  0  0  0  0  0  0  0
   48.9000   35.5320   40.7630 C   0  0  0  0  0  0  0  0  0  0  0  0
   48.4760   34.7540   39.7180 C   0  0  0  0  0  0  0  0  0  0  0  0
   47.3030   34.0200   39.8430 C   0  0  0  0  0  0  0  0  0  0  0  0
   48.5150   36.2100   42.7610 H   0  0  0  0  0  0  0  0  0  0  0  0
   49.8230   36.0840   40.6110 H   0  0  0  0  0  0  0  0  0  0  0  0
   48.9620   34.6300   38.7570 H   0  0  0  0  0  0  0  0  0  0  0  0
   44.5030   35.9140   44.7120 C   0  0  0  0  0  0  0  0  0  0  0  0
   45.2780   35.9180   43.5420 C   0  0  0  0  0  0  0  0  0  0  0  0
   46.2120   34.9080   43.2980 C   0  0  0  0  0  0  0  0  0  0  0  0
   46.2990   33.9640   44.2530 N   0  0  0  0  0  0  0  0  0  0  0  0
   45.5540   33.9600   45.3770 C   0  0  0  0  0  0  0  0  0  0  0  0
   44.6590   34.9260   45.6140 N   0  0  0  0  0  0  0  0  0  0  0  0
   43.7870   36.6860   44.9040 H   0  0  0  0  0  0  0  0  0  0  0  0
   45.1550   36.7110   42.8140 H   0  0  0  0  0  0  0  0  0  0  0  0
   45.7800   33.1090   46.0160 H   0  0  0  0  0  0  0  0  0  0  0  0
   45.4150   33.3680   41.1680 O   0  0  0  0  0  0  0  0  0  0  0  0
   45.3530   32.7870   42.0070 H   0  0  0  0  0  0  0  0  0  0  0  0
   46.8080   33.2150   38.8410 O   0  0  0  0  0  0  0  0  0  0  0  0
   48.2150   31.3320   37.9820 C   0  0  0  0  0  0  0  0  0  0  0  0
   47.5390   32.5170   37.9130 C   0  0  0  0  0  0  0  0  0  0  0  0
   47.5540   33.2020   36.6940 C   0  0  0  0  0  0  0  0  0  0  0  0
   47.0760   34.1470   36.4640 H   0  0  0  0  0  0  0  0  0  0  0  0
   48.2350   32.6960   35.5840 C   0  0  0  0  0  0  0  0  0  0  0  0
   48.4410   33.0870   34.3130 N   0  0  0  0  0  0  0  0  0  0  0  0
   48.0550   33.9760   33.9050 H   0  0  0  0  0  0  0  0  0  0  0  0
   49.1970   32.1890   33.6580 C   0  0  0  0  0  0  0  0  0  0  0  0
   49.5000   32.2850   32.6120 H   0  0  0  0  0  0  0  0  0  0  0  0
   49.5230   31.1470   34.4970 C   0  0  0  0  0  0  0  0  0  0  0  0
   48.9160   31.4810   35.6880 C   0  0  0  0  0  0  0  0  0  0  0  0
   48.8890   30.8210   36.8990 C   0  0  0  0  0  0  0  0  0  0  0  0
  1 19  1  0  0  0  0
  1  2  1  0  0  0  0
  2 12  1  0  0  0  0
  3  2  2  0  0  0  0
  3  7  1  0  0  0  0
  4  3  1  0  0  0  0
  5  6  1  0  0  0  0
  5  4  2  0  0  0  0
  6  1  2  0  0  0  0
  8  4  1  0  0  0  0
  9  5  1  0  0  0  0
 10 16  1  0  0  0  0
 10 15  1  0  0  0  0
 11 10  2  0  0  0  0
 12 11  1  0  0  0  0
 12 13  2  0  0  0  0
 13 14  1  0  0  0  0
 14 15  2  0  0  0  0
 14 18  1  0  0  0  0
 17 11  1  0  0  0  0
 19 20  1  0  0  0  0
 21  6  1  0  0  0  0
 23 22  1  0  0  0  0
 23 21  1  0  0  0  0
 24 23  2  0  0  0  0
 25 24  1  0  0  0  0
 26 32  2  0  0  0  0
 26 24  1  0  0  0  0
 27 26  1  0  0  0  0
 28 27  1  0  0  0  0
 29 27  1  0  0  0  0
 29 31  2  0  0  0  0
 30 29  1  0  0  0  0
 31 32  1  0  0  0  0
 32 33  1  0  0  0  0
 33 22  2  0  0  0  0
M  END
>  <minimizedAffinity>
-6.19329453

>  <minimizedRMSD>
3.22706342

$$$$
