
 OpenBabel03252502523D

 34 37  0  0  0  0  0  0  0  0999 V2000
   45.9610   29.8350   44.4790 Br  0  0  0  0  0  0  0  0  0  0  0  0
   45.7780   30.6320   46.2250 C   0  0  0  0  0  0  0  0  0  0  0  0
   46.3270   31.8960   46.3770 C   0  0  0  0  0  0  0  0  0  0  0  0
   46.1690   32.4260   47.6520 C   0  0  0  0  0  0  0  0  0  0  0  0
   45.5320   31.7850   48.6960 C   0  0  0  0  0  0  0  0  0  0  0  0
   45.0170   30.5360   48.4610 C   0  0  0  0  0  0  0  0  0  0  0  0
   45.1320   29.9300   47.2090 C   0  0  0  0  0  0  0  0  0  0  0  0
   46.5670   33.4130   47.8620 H   0  0  0  0  0  0  0  0  0  0  0  0
   45.4510   32.2590   49.6500 H   0  0  0  0  0  0  0  0  0  0  0  0
   44.5240   30.0580   49.2980 H   0  0  0  0  0  0  0  0  0  0  0  0
   45.1600   27.6250   47.7810 C   0  0  0  0  0  3  0  0  0  0  0  0
   44.5710   28.6170   47.0250 C   0  0  0  0  0  0  0  0  0  0  0  0
   43.5360   28.2470   46.2000 C   0  0  0  0  0  0  0  0  0  0  0  0
   43.0960   29.0460   45.6210 H   0  0  0  0  0  0  0  0  0  0  0  0
   43.0790   26.9640   46.1000 C   0  0  0  0  0  0  0  0  0  0  0  0
   42.0940   26.4820   45.3450 N   0  0  0  0  0  0  0  0  0  0  0  0
   41.4890   27.0200   44.6830 H   0  0  0  0  0  0  0  0  0  0  0  0
   42.0060   25.1710   45.5790 C   0  0  0  0  0  0  0  0  0  0  0  0
   41.2860   24.5150   45.0990 H   0  0  0  0  0  0  0  0  0  0  0  0
   42.9720   24.8240   46.5140 C   0  0  0  0  0  3  0  0  0  0  0  0
   43.6650   25.9670   46.8550 C   0  0  0  0  0  0  0  0  0  0  0  0
   44.7040   26.3240   47.6880 C   0  0  0  0  0  3  0  0  0  0  0  0
   47.0190   32.6670   45.3530 C   0  0  0  0  0  0  0  0  0  0  0  0
   48.0170   32.9910   45.7060 H   0  0  0  0  0  0  0  0  0  0  0  0
   47.1690   31.9890   44.4650 H   0  0  0  0  0  0  0  0  0  0  0  0
   44.5470   35.4600   45.0320 C   0  0  0  0  0  0  0  0  0  0  0  0
   44.8100   35.9200   43.7350 C   0  0  0  0  0  0  0  0  0  0  0  0
   45.8030   35.2850   43.0090 C   0  0  0  0  0  0  0  0  0  0  0  0
   46.4870   34.2440   43.5700 N   0  0  0  0  0  0  0  0  0  0  0  0
   46.2070   33.8170   44.8390 C   0  0  0  0  0  0  0  0  0  0  0  0
   45.2350   34.4430   45.5400 N   0  0  0  0  0  0  0  0  0  0  0  0
   43.7800   35.9390   45.6090 H   0  0  0  0  0  0  0  0  0  0  0  0
   44.2720   36.7450   43.2860 H   0  0  0  0  0  0  0  0  0  0  0  0
   46.0820   35.5680   41.9970 H   0  0  0  0  0  0  0  0  0  0  0  0
  1  2  1  0  0  0  0
  2  3  2  0  0  0  0
  2  7  1  0  0  0  0
  3  4  1  0  0  0  0
  4  8  1  0  0  0  0
  4  5  2  0  0  0  0
  5  9  1  0  0  0  0
  6  5  1  0  0  0  0
  6 10  1  0  0  0  0
  7  6  2  0  0  0  0
 12  7  1  0  0  0  0
 12 11  2  0  0  0  0
 13 12  1  0  0  0  0
 14 13  1  0  0  0  0
 15 13  2  0  0  0  0
 15 21  1  0  0  0  0
 16 18  1  0  0  0  0
 16 15  1  0  0  0  0
 17 16  1  0  0  0  0
 18 20  2  0  0  0  0
 19 18  1  0  0  0  0
 20 21  1  0  0  0  0
 21 22  2  0  0  0  0
 22 11  1  0  0  0  0
 23 24  1  0  0  0  0
 23  3  1  0  0  0  0
 25 23  1  0  0  0  0
 26 31  1  0  0  0  0
 26 32  1  0  0  0  0
 27 26  2  0  0  0  0
 28 29  2  0  0  0  0
 28 27  1  0  0  0  0
 29 30  1  0  0  0  0
 30 23  1  0  0  0  0
 30 31  2  0  0  0  0
 33 27  1  0  0  0  0
 34 28  1  0  0  0  0
M  END
>  <minimizedAffinity>
-5.902915

>  <minimizedRMSD>
0.941437006

$$$$
