
 OpenBabel03242522423D

 50 54  0  0  0  0  0  0  0  0999 V2000
   46.7480   32.6880   44.4010 C   0  0  0  0  0  0  0  0  0  0  0  0
   46.5190   32.1710   43.4120 H   0  0  0  0  0  0  0  0  0  0  0  0
   47.7890   32.8270   44.6220 H   0  0  0  0  0  0  0  0  0  0  0  0
   46.2610   34.6320   43.0120 C   0  0  0  0  0  0  0  0  0  0  0  0
   46.0500   33.9680   44.2180 C   0  0  0  0  0  0  0  0  0  0  0  0
   45.2420   34.3880   45.2040 C   0  0  0  0  0  0  0  0  0  0  0  0
   44.5550   35.5700   45.0290 C   0  0  0  0  0  0  0  0  0  0  0  0
   44.6810   36.3030   43.8900 C   0  0  0  0  0  0  0  0  0  0  0  0
   45.5280   35.8210   42.9070 C   0  0  0  0  0  0  0  0  0  0  0  0
   44.9980   33.9730   46.1390 H   0  0  0  0  0  0  0  0  0  0  0  0
   43.8680   36.0310   45.7430 H   0  0  0  0  0  0  0  0  0  0  0  0
   44.1710   37.2470   43.6730 H   0  0  0  0  0  0  0  0  0  0  0  0
   45.6450   36.3890   41.9850 H   0  0  0  0  0  0  0  0  0  0  0  0
   47.2520   34.1260   41.7140 S   0  0  0  0  0  0  0  0  0  0  0  0
   48.4380   35.1490   41.5730 O   0  0  0  0  0  0  0  0  0  0  0  0
   46.5360   34.2960   40.4140 O   0  0  0  0  0  0  0  0  0  0  0  0
   47.8150   31.3880   41.5800 C   0  0  0  0  0  3  0  0  0  0  0  0
   48.2170   32.7110   41.8640 C   0  0  0  0  0  0  0  0  0  0  0  0
   49.5620   32.6760   42.2800 C   0  0  0  0  0  0  0  0  0  0  0  0
   49.9910   33.6620   42.5320 H   0  0  0  0  0  0  0  0  0  0  0  0
   50.3580   31.5630   42.3960 C   0  0  0  0  0  0  0  0  0  0  0  0
   51.6420   31.4740   42.7870 N   0  0  0  0  0  0  0  0  0  0  0  0
   52.3140   32.2200   43.0870 H   0  0  0  0  0  0  0  0  0  0  0  0
   51.9590   30.1690   42.7310 C   0  0  0  0  0  0  0  0  0  0  0  0
   52.8940   29.6790   42.9650 H   0  0  0  0  0  0  0  0  0  0  0  0
   50.8450   29.4480   42.2970 C   0  0  0  0  0  3  0  0  0  0  0  0
   49.8300   30.3550   42.0880 C   0  0  0  0  0  0  0  0  0  0  0  0
   48.5360   30.2380   41.6690 C   0  0  0  0  0  3  0  0  0  0  0  0
   46.1080   31.7240   45.3480 C   0  0  0  0  0  0  0  0  0  0  0  0
   45.0570   31.9860   45.6440 H   0  0  0  0  0  0  0  0  0  0  0  0
   45.9350   30.6910   44.9160 H   0  0  0  0  0  0  0  0  0  0  0  0
   47.1510   32.4930   47.4560 C   0  0  0  0  0  0  0  0  0  0  0  0
   47.0200   31.4960   46.4640 C   0  0  0  0  0  0  0  0  0  0  0  0
   47.7390   30.3280   46.6220 C   0  0  0  0  0  0  0  0  0  0  0  0
   48.5260   30.1980   47.7140 N   0  0  0  0  0  0  0  0  0  0  0  0
   48.6270   31.1530   48.6360 C   0  0  0  0  0  0  0  0  0  0  0  0
   47.9450   32.3160   48.5260 N   0  0  0  0  0  0  0  0  0  0  0  0
   46.6880   33.4600   47.5130 H   0  0  0  0  0  0  0  0  0  0  0  0
   47.6360   29.5700   45.8570 H   0  0  0  0  0  0  0  0  0  0  0  0
   49.5160   30.9170   49.8230 C   0  0  0  0  0  0  0  0  0  0  0  0
   48.9760   31.2150   50.7650 H   0  0  0  0  0  0  0  0  0  0  0  0
   49.6860   29.8280   49.9430 H   0  0  0  0  0  0  0  0  0  0  0  0
   50.7990   31.5950   49.7300 C   0  0  0  0  0  0  0  0  0  0  0  0
   51.9660   31.0500   49.2300 C   0  0  0  0  0  0  0  0  0  0  0  0
   52.9630   31.9850   49.3040 C   0  0  0  0  0  0  0  0  0  0  0  0
   52.3620   33.0830   49.8540 N   0  0  0  0  0  0  0  0  0  0  0  0
   51.0760   32.8580   50.1100 N   0  0  0  0  0  0  0  0  0  0  0  0
   52.1600   30.0570   48.8240 H   0  0  0  0  0  0  0  0  0  0  0  0
   54.0110   32.0180   49.0430 H   0  0  0  0  0  0  0  0  0  0  0  0
   52.7410   34.0390   50.0980 H   0  0  0  0  0  0  0  0  0  0  0  0
  1  3  1  0  0  0  0
  1 29  1  0  0  0  0
  2  1  1  0  0  0  0
  4  5  1  0  0  0  0
  5  1  1  0  0  0  0
  5  6  2  0  0  0  0
  6 10  1  0  0  0  0
  7  6  1  0  0  0  0
  7 11  1  0  0  0  0
  8  7  2  0  0  0  0
  9  4  2  0  0  0  0
  9  8  1  0  0  0  0
 12  8  1  0  0  0  0
 13  9  1  0  0  0  0
 14 18  1  0  0  0  0
 14  4  1  0  0  0  0
 15 14  2  0  0  0  0
 16 14  2  0  0  0  0
 17 28  2  0  0  0  0
 17 18  1  0  0  0  0
 18 19  2  0  0  0  0
 19 21  1  0  0  0  0
 19 20  1  0  0  0  0
 21 22  1  0  0  0  0
 22 23  1  0  0  0  0
 24 22  1  0  0  0  0
 24 25  1  0  0  0  0
 26 24  2  0  0  0  0
 27 26  1  0  0  0  0
 27 21  2  0  0  0  0
 28 27  1  0  0  0  0
 29 30  1  0  0  0  0
 29 33  1  0  0  0  0
 31 29  1  0  0  0  0
 32 38  1  0  0  0  0
 32 37  1  0  0  0  0
 33 34  1  0  0  0  0
 33 32  2  0  0  0  0
 34 35  2  0  0  0  0
 35 36  1  0  0  0  0
 36 40  1  0  0  0  0
 37 36  2  0  0  0  0
 39 34  1  0  0  0  0
 40 42  1  0  0  0  0
 40 41  1  0  0  0  0
 43 40  1  0  0  0  0
 43 47  2  0  0  0  0
 44 45  2  0  0  0  0
 44 43  1  0  0  0  0
 45 46  1  0  0  0  0
 46 50  1  0  0  0  0
 46 47  1  0  0  0  0
 48 44  1  0  0  0  0
 49 45  1  0  0  0  0
M  END
>  <minimizedAffinity>
-6.47563314

>  <minimizedRMSD>
0.588071167

$$$$
