
 OpenBabel03242523253D

 46 50  0  0  1  0  0  0  0  0999 V2000
   36.8900   27.2220   39.8850 C   0  0  0  0  0  0  0  0  0  0  0  0
   37.1960   27.0850   41.1710 C   0  0  0  0  0  0  0  0  0  0  0  0
   38.1570   26.1590   41.4310 C   0  0  0  0  0  0  0  0  0  0  0  0
   38.7310   25.4470   40.3660 N   0  0  0  0  0  0  0  0  0  0  0  0
   38.3790   25.6320   39.1120 C   0  0  0  0  0  0  0  0  0  0  0  0
   37.4140   26.5560   38.8090 N   0  0  0  0  0  0  0  0  0  0  0  0
   38.6090   25.7840   42.3270 H   0  0  0  0  0  0  0  0  0  0  0  0
   38.8730   25.0360   38.3220 H   0  0  0  0  0  0  0  0  0  0  0  0
   36.5650   27.7030   42.2750 C   0  0  1  0  0  0  0  0  0  0  0  0
   36.7610   27.5100   43.6070 C   0  0  0  0  0  0  0  0  0  0  0  0
   37.3380   28.7700   43.1020 C   0  0  1  0  0  0  0  0  0  0  0  0
   35.4860   27.9810   42.0450 H   0  0  0  0  0  0  0  0  0  0  0  0
   37.4420   26.7010   43.9860 H   0  0  0  0  0  0  0  0  0  0  0  0
   36.0270   27.7060   44.4510 H   0  0  0  0  0  0  0  0  0  0  0  0
   36.7120   29.7100   43.1350 H   0  0  0  0  0  0  0  0  0  0  0  0
   39.8690   28.0800   43.1500 C   0  0  0  0  0  3  0  0  0  0  0  0
   38.7880   28.9270   42.9980 C   0  0  0  0  0  0  0  0  0  0  0  0
   39.1920   30.2340   42.6770 C   0  0  0  0  0  0  0  0  0  0  0  0
   38.5010   31.0220   42.5320 H   0  0  0  0  0  0  0  0  0  0  0  0
   40.5120   30.6160   42.5310 C   0  0  0  0  0  0  0  0  0  0  0  0
   41.1230   31.7760   42.2350 N   0  0  0  0  0  0  0  0  0  0  0  0
   40.6500   32.6870   42.0430 H   0  0  0  0  0  0  0  0  0  0  0  0
   42.4430   31.6220   42.2130 C   0  0  0  0  0  0  0  0  0  0  0  0
   43.1850   32.3840   42.0040 H   0  0  0  0  0  0  0  0  0  0  0  0
   42.7390   30.3230   42.5030 C   0  0  0  0  0  3  0  0  0  0  0  0
   41.5200   29.7200   42.6970 C   0  0  0  0  0  0  0  0  0  0  0  0
   41.1920   28.4210   43.0130 C   0  0  0  0  0  3  0  0  0  0  0  0
   35.9330   28.1870   39.3040 C   0  0  0  0  0  0  0  0  0  0  0  0
   34.8860   28.5050   38.8160 O   0  0  0  0  0  0  0  0  0  0  0  0
   37.9480   28.8850   37.0740 Cl  0  0  0  0  0  0  0  0  0  0  0  0
   37.5280   30.0010   38.3590 C   0  0  0  0  0  0  0  0  0  0  0  0
   36.5780   29.5360   39.2970 C   0  0  0  0  0  0  0  0  0  0  0  0
   36.3290   30.5030   40.2430 C   0  0  0  0  0  0  0  0  0  0  0  0
   36.8220   31.7240   40.3910 C   0  0  0  0  0  0  0  0  0  0  0  0
   37.7430   32.1140   39.4430 C   0  0  0  0  0  0  0  0  0  0  0  0
   38.1060   31.2680   38.4220 C   0  0  0  0  0  0  0  0  0  0  0  0
   35.5690   30.2780   41.0290 H   0  0  0  0  0  0  0  0  0  0  0  0
   36.5640   32.4280   41.1830 H   0  0  0  0  0  0  0  0  0  0  0  0
   38.1800   33.1250   39.5280 H   0  0  0  0  0  0  0  0  0  0  0  0
   39.0190   31.7700   37.5520 O   0  0  0  0  0  0  0  0  0  0  0  0
   41.1090   31.6280   39.1330 O   0  0  0  0  0  0  0  0  0  0  0  0
   40.7020   31.9180   37.7060 P   0  0  0  0  0  0  0  0  0  0  0  0
   41.4500   30.8510   36.6240 O   0  0  0  0  0  0  0  0  0  0  0  0
   42.4260   31.0100   36.6140 H   0  0  0  0  0  0  0  0  0  0  0  0
   41.2310   33.4620   37.2590 O   0  0  0  0  0  0  0  0  0  0  0  0
   41.4740   34.0390   38.0000 H   0  0  0  0  0  0  0  0  0  0  0  0
  1  2  1  0  0  0  0
  2  3  2  0  0  0  0
  2  9  1  0  0  0  0
  3  7  1  0  0  0  0
  4  3  1  0  0  0  0
  5  4  2  0  0  0  0
  6  5  1  0  0  0  0
  6  1  2  0  0  0  0
  8  5  1  0  0  0  0
  9 12  1  6  0  0  0
  9 11  1  0  0  0  0
  9 10  1  0  0  0  0
 10 13  1  0  0  0  0
 10 14  1  0  0  0  0
 11 15  1  1  0  0  0
 11 10  1  0  0  0  0
 17 11  1  0  0  0  0
 17 16  2  0  0  0  0
 18 17  1  0  0  0  0
 19 18  1  0  0  0  0
 20 18  2  0  0  0  0
 20 26  1  0  0  0  0
 21 20  1  0  0  0  0
 22 21  1  0  0  0  0
 23 21  1  0  0  0  0
 23 25  2  0  0  0  0
 24 23  1  0  0  0  0
 25 26  1  0  0  0  0
 26 27  2  0  0  0  0
 27 16  1  0  0  0  0
 28  1  1  0  0  0  0
 29 28  2  0  0  0  0
 30 31  1  0  0  0  0
 31 36  2  0  0  0  0
 31 32  1  0  0  0  0
 32 28  1  0  0  0  0
 32 33  2  0  0  0  0
 33 34  1  0  0  0  0
 33 37  1  0  0  0  0
 34 38  1  0  0  0  0
 35 39  1  0  0  0  0
 35 34  2  0  0  0  0
 36 35  1  0  0  0  0
 40 42  1  0  0  0  0
 40 36  1  0  0  0  0
 42 41  2  0  0  0  0
 43 42  1  0  0  0  0
 44 43  1  0  0  0  0
 45 42  1  0  0  0  0
 45 46  1  0  0  0  0
M  END
>  <minimizedAffinity>
-7.20107985

$$$$

 OpenBabel03242523253D

 46 50  0  0  1  0  0  0  0  0999 V2000
   37.0690   28.9490   40.3340 C   0  0  0  0  0  0  0  0  0  0  0  0
   37.0500   27.9650   41.2280 C   0  0  0  0  0  0  0  0  0  0  0  0
   37.2870   26.7280   40.7160 C   0  0  0  0  0  0  0  0  0  0  0  0
   37.5260   26.5880   39.3400 N   0  0  0  0  0  0  0  0  0  0  0  0
   37.5300   27.6070   38.5090 C   0  0  0  0  0  0  0  0  0  0  0  0
   37.2940   28.8700   38.9860 N   0  0  0  0  0  0  0  0  0  0  0  0
   37.3150   25.7410   41.1320 H   0  0  0  0  0  0  0  0  0  0  0  0
   37.7240   27.4250   37.4360 H   0  0  0  0  0  0  0  0  0  0  0  0
   36.7080   28.0540   42.5970 C   0  0  1  0  0  0  0  0  0  0  0  0
   36.4690   27.0640   43.4980 C   0  0  0  0  0  0  0  0  0  0  0  0
   37.7750   27.7240   43.6790 C   0  0  1  0  0  0  0  0  0  0  0  0
   36.0880   28.9830   42.8180 H   0  0  0  0  0  0  0  0  0  0  0  0
   36.4300   25.9850   43.1850 H   0  0  0  0  0  0  0  0  0  0  0  0
   35.8450   27.1250   44.4450 H   0  0  0  0  0  0  0  0  0  0  0  0
   37.8500   28.6070   44.3790 H   0  0  0  0  0  0  0  0  0  0  0  0
   39.3460   25.6870   43.1610 C   0  0  0  0  0  3  0  0  0  0  0  0
   39.0120   27.0130   43.3530 C   0  0  0  0  0  0  0  0  0  0  0  0
   40.1240   27.8570   43.2040 C   0  0  0  0  0  0  0  0  0  0  0  0
   40.0610   28.9070   43.3230 H   0  0  0  0  0  0  0  0  0  0  0  0
   41.3950   27.4070   42.9000 C   0  0  0  0  0  0  0  0  0  0  0  0
   42.5810   28.0100   42.7130 N   0  0  0  0  0  0  0  0  0  0  0  0
   42.7640   29.0370   42.7720 H   0  0  0  0  0  0  0  0  0  0  0  0
   43.5250   27.1170   42.4350 C   0  0  0  0  0  0  0  0  0  0  0  0
   44.5730   27.3160   42.2390 H   0  0  0  0  0  0  0  0  0  0  0  0
   42.9680   25.8730   42.4330 C   0  0  0  0  0  3  0  0  0  0  0  0
   41.6420   26.0820   42.7260 C   0  0  0  0  0  0  0  0  0  0  0  0
   40.5940   25.2000   42.8580 C   0  0  0  0  0  3  0  0  0  0  0  0
   36.9060   30.3920   40.6080 C   0  0  0  0  0  0  0  0  0  0  0  0
   36.2650   31.3840   40.8130 O   0  0  0  0  0  0  0  0  0  0  0  0
   37.8990   32.1270   38.2570 Cl  0  0  0  0  0  0  0  0  0  0  0  0
   38.8680   31.8130   39.6830 C   0  0  0  0  0  0  0  0  0  0  0  0
   38.2650   31.0100   40.6780 C   0  0  0  0  0  0  0  0  0  0  0  0
   39.1200   30.8470   41.7440 C   0  0  0  0  0  0  0  0  0  0  0  0
   40.3470   31.3030   41.9530 C   0  0  0  0  0  0  0  0  0  0  0  0
   40.8750   32.0780   40.9440 C   0  0  0  0  0  0  0  0  0  0  0  0
   40.1520   32.3440   39.8060 C   0  0  0  0  0  0  0  0  0  0  0  0
   38.7540   30.2580   42.6180 H   0  0  0  0  0  0  0  0  0  0  0  0
   40.9560   31.1180   42.8380 H   0  0  0  0  0  0  0  0  0  0  0  0
   41.8960   32.4790   41.0770 H   0  0  0  0  0  0  0  0  0  0  0  0
   40.7820   33.1220   38.8890 O   0  0  0  0  0  0  0  0  0  0  0  0
   43.1920   32.2080   38.3990 O   0  0  0  0  0  0  0  0  0  0  0  0
   41.9370   32.7050   37.7180 P   0  0  0  0  0  0  0  0  0  0  0  0
   41.2830   31.5250   36.6950 O   0  0  0  0  0  0  0  0  0  0  0  0
   41.8950   31.3590   35.9360 H   0  0  0  0  0  0  0  0  0  0  0  0
   42.3060   34.0190   36.7180 O   0  0  0  0  0  0  0  0  0  0  0  0
   43.1630   34.4370   36.8950 H   0  0  0  0  0  0  0  0  0  0  0  0
  1 28  1  0  0  0  0
  1  2  1  0  0  0  0
  2  9  1  0  0  0  0
  3  7  1  0  0  0  0
  3  2  2  0  0  0  0
  4  3  1  0  0  0  0
  5  6  1  0  0  0  0
  5  4  2  0  0  0  0
  6  1  2  0  0  0  0
  8  5  1  0  0  0  0
  9 12  1  1  0  0  0
  9 10  1  0  0  0  0
  9 11  1  0  0  0  0
 10 11  1  0  0  0  0
 10 14  1  0  0  0  0
 11 15  1  1  0  0  0
 13 10  1  0  0  0  0
 16 17  1  0  0  0  0
 17 11  1  0  0  0  0
 18 19  1  0  0  0  0
 18 17  2  0  0  0  0
 20 18  1  0  0  0  0
 21 22  1  0  0  0  0
 21 20  1  0  0  0  0
 23 21  1  0  0  0  0
 24 23  1  0  0  0  0
 25 23  2  0  0  0  0
 25 26  1  0  0  0  0
 26 27  1  0  0  0  0
 26 20  2  0  0  0  0
 27 16  2  0  0  0  0
 28 32  1  0  0  0  0
 28 29  2  0  0  0  0
 30 31  1  0  0  0  0
 31 36  2  0  0  0  0
 31 32  1  0  0  0  0
 32 33  2  0  0  0  0
 33 34  1  0  0  0  0
 33 37  1  0  0  0  0
 34 38  1  0  0  0  0
 35 39  1  0  0  0  0
 35 34  2  0  0  0  0
 36 35  1  0  0  0  0
 40 36  1  0  0  0  0
 42 41  2  0  0  0  0
 42 40  1  0  0  0  0
 43 42  1  0  0  0  0
 44 43  1  0  0  0  0
 45 46  1  0  0  0  0
 45 42  1  0  0  0  0
M  END
>  <minimizedAffinity>
-7.11418819

$$$$

 OpenBabel03242523253D

 46 50  0  0  1  0  0  0  0  0999 V2000
   37.5790   25.8580   40.4140 C   0  0  0  0  0  0  0  0  0  0  0  0
   37.4030   26.0660   41.7150 C   0  0  0  0  0  0  0  0  0  0  0  0
   38.0150   25.1590   42.5230 C   0  0  0  0  0  0  0  0  0  0  0  0
   38.7570   24.1160   41.9480 N   0  0  0  0  0  0  0  0  0  0  0  0
   38.8900   23.9680   40.6470 C   0  0  0  0  0  0  0  0  0  0  0  0
   38.2880   24.8610   39.7990 N   0  0  0  0  0  0  0  0  0  0  0  0
   38.0560   25.0140   43.5840 H   0  0  0  0  0  0  0  0  0  0  0  0
   39.4880   23.1220   40.2610 H   0  0  0  0  0  0  0  0  0  0  0  0
   36.5780   27.0380   42.3260 C   0  0  1  0  0  0  0  0  0  0  0  0
   36.5470   27.4630   43.6180 C   0  0  0  0  0  0  0  0  0  0  0  0
   37.1700   28.4280   42.6930 C   0  0  1  0  0  0  0  0  0  0  0  0
   35.5470   27.0800   41.8450 H   0  0  0  0  0  0  0  0  0  0  0  0
   37.1730   26.9700   44.4100 H   0  0  0  0  0  0  0  0  0  0  0  0
   35.6740   27.9330   44.1720 H   0  0  0  0  0  0  0  0  0  0  0  0
   36.5250   29.2230   42.2140 H   0  0  0  0  0  0  0  0  0  0  0  0
   39.7210   27.8680   42.9430 C   0  0  0  0  0  3  0  0  0  0  0  0
   38.6130   28.6660   42.7370 C   0  0  0  0  0  0  0  0  0  0  0  0
   38.9690   30.0090   42.5310 C   0  0  0  0  0  0  0  0  0  0  0  0
   38.2510   30.7680   42.3660 H   0  0  0  0  0  0  0  0  0  0  0  0
   40.2730   30.4670   42.5350 C   0  0  0  0  0  0  0  0  0  0  0  0
   40.8410   31.6740   42.3650 N   0  0  0  0  0  0  0  0  0  0  0  0
   40.3360   32.5690   42.1810 H   0  0  0  0  0  0  0  0  0  0  0  0
   42.1640   31.5890   42.4620 C   0  0  0  0  0  0  0  0  0  0  0  0
   42.8770   32.4000   42.3690 H   0  0  0  0  0  0  0  0  0  0  0  0
   42.5060   30.2920   42.7040 C   0  0  0  0  0  3  0  0  0  0  0  0
   41.3110   29.6160   42.7450 C   0  0  0  0  0  0  0  0  0  0  0  0
   41.0300   28.2850   42.9540 C   0  0  0  0  0  3  0  0  0  0  0  0
   37.0870   26.7090   39.3100 C   0  0  0  0  0  0  0  0  0  0  0  0
   36.3360   26.9920   38.4200 O   0  0  0  0  0  0  0  0  0  0  0  0
   35.8620   29.5270   39.0310 Cl  0  0  0  0  0  0  0  0  0  0  0  0
   37.5910   29.2390   39.0450 C   0  0  0  0  0  0  0  0  0  0  0  0
   37.9940   27.8920   39.1940 C   0  0  0  0  0  0  0  0  0  0  0  0
   39.3670   27.8020   39.1990 C   0  0  0  0  0  0  0  0  0  0  0  0
   40.3010   28.7360   39.0870 C   0  0  0  0  0  0  0  0  0  0  0  0
   39.8390   30.0260   38.9450 C   0  0  0  0  0  0  0  0  0  0  0  0
   38.4920   30.2960   38.9220 C   0  0  0  0  0  0  0  0  0  0  0  0
   39.8200   26.7930   39.3440 H   0  0  0  0  0  0  0  0  0  0  0  0
   41.3780   28.5680   39.1000 H   0  0  0  0  0  0  0  0  0  0  0  0
   40.5850   30.8360   38.8480 H   0  0  0  0  0  0  0  0  0  0  0  0
   38.1670   31.6060   38.7790 O   0  0  0  0  0  0  0  0  0  0  0  0
   38.7720   33.1530   40.8100 O   0  0  0  0  0  0  0  0  0  0  0  0
   37.6190   32.7240   39.9300 P   0  0  0  0  0  0  0  0  0  0  0  0
   36.9310   34.0490   39.1290 O   0  0  0  0  0  0  0  0  0  0  0  0
   36.5000   34.6520   39.7830 H   0  0  0  0  0  0  0  0  0  0  0  0
   36.3790   32.0760   40.8810 O   0  0  0  0  0  0  0  0  0  0  0  0
   36.6450   31.8250   41.7800 H   0  0  0  0  0  0  0  0  0  0  0  0
  1  2  1  0  0  0  0
  2  9  1  0  0  0  0
  2  3  2  0  0  0  0
  3  7  1  0  0  0  0
  4  3  1  0  0  0  0
  5  4  2  0  0  0  0
  6  1  2  0  0  0  0
  6  5  1  0  0  0  0
  8  5  1  0  0  0  0
  9 12  1  6  0  0  0
  9 11  1  0  0  0  0
  9 10  1  0  0  0  0
 10 14  1  0  0  0  0
 10 13  1  0  0  0  0
 11 15  1  6  0  0  0
 11 17  1  0  0  0  0
 11 10  1  0  0  0  0
 16 27  1  0  0  0  0
 17 16  2  0  0  0  0
 18 20  2  0  0  0  0
 18 17  1  0  0  0  0
 19 18  1  0  0  0  0
 20 26  1  0  0  0  0
 21 23  1  0  0  0  0
 21 20  1  0  0  0  0
 22 21  1  0  0  0  0
 23 25  2  0  0  0  0
 24 23  1  0  0  0  0
 25 26  1  0  0  0  0
 26 27  2  0  0  0  0
 28  1  1  0  0  0  0
 29 28  2  0  0  0  0
 30 31  1  0  0  0  0
 31 32  1  0  0  0  0
 32 33  2  0  0  0  0
 32 28  1  0  0  0  0
 33 37  1  0  0  0  0
 34 38  1  0  0  0  0
 34 33  1  0  0  0  0
 35 34  2  0  0  0  0
 36 35  1  0  0  0  0
 36 31  2  0  0  0  0
 39 35  1  0  0  0  0
 40 36  1  0  0  0  0
 40 42  1  0  0  0  0
 42 41  2  0  0  0  0
 42 45  1  0  0  0  0
 43 44  1  0  0  0  0
 43 42  1  0  0  0  0
 45 46  1  0  0  0  0
M  END
>  <minimizedAffinity>
-7.05964184

$$$$

 OpenBabel03242523253D

 46 50  0  0  1  0  0  0  0  0999 V2000
   39.2260   26.0710   41.5020 C   0  0  0  0  0  0  0  0  0  0  0  0
   38.5560   26.5120   42.5620 C   0  0  0  0  0  0  0  0  0  0  0  0
   39.3110   26.6850   43.6800 C   0  0  0  0  0  0  0  0  0  0  0  0
   40.6840   26.3970   43.6330 N   0  0  0  0  0  0  0  0  0  0  0  0
   41.2850   25.9610   42.5470 C   0  0  0  0  0  0  0  0  0  0  0  0
   40.5590   25.7740   41.4000 N   0  0  0  0  0  0  0  0  0  0  0  0
   39.0980   26.9880   44.6840 H   0  0  0  0  0  0  0  0  0  0  0  0
   42.3710   25.7530   42.5800 H   0  0  0  0  0  0  0  0  0  0  0  0
   37.1610   26.7080   42.6760 C   0  0  1  0  0  0  0  0  0  0  0  0
   36.4600   27.4700   43.5580 C   0  0  0  0  0  0  0  0  0  0  0  0
   36.5320   28.0500   42.2040 C   0  0  1  0  0  0  0  0  0  0  0  0
   36.5770   25.7820   42.3640 H   0  0  0  0  0  0  0  0  0  0  0  0
   36.9700   27.9920   44.4130 H   0  0  0  0  0  0  0  0  0  0  0  0
   35.3820   27.3340   43.8880 H   0  0  0  0  0  0  0  0  0  0  0  0
   35.7130   27.8130   41.4630 H   0  0  0  0  0  0  0  0  0  0  0  0
   38.6250   29.6300   42.3020 C   0  0  0  0  0  3  0  0  0  0  0  0
   37.3470   29.2390   41.9540 C   0  0  0  0  0  0  0  0  0  0  0  0
   36.6930   30.2200   41.1910 C   0  0  0  0  0  0  0  0  0  0  0  0
   35.7010   30.1000   40.8410 H   0  0  0  0  0  0  0  0  0  0  0  0
   37.2650   31.4260   40.8360 C   0  0  0  0  0  0  0  0  0  0  0  0
   36.8450   32.4910   40.1310 N   0  0  0  0  0  0  0  0  0  0  0  0
   35.9080   32.5970   39.6810 H   0  0  0  0  0  0  0  0  0  0  0  0
   37.7920   33.4200   40.0700 C   0  0  0  0  0  0  0  0  0  0  0  0
   37.7320   34.3810   39.5700 H   0  0  0  0  0  0  0  0  0  0  0  0
   38.8870   32.9790   40.7530 C   0  0  0  0  0  3  0  0  0  0  0  0
   38.5320   31.7360   41.2180 C   0  0  0  0  0  0  0  0  0  0  0  0
   39.2300   30.8170   41.9690 C   0  0  0  0  0  3  0  0  0  0  0  0
   38.6840   25.8510   40.1450 C   0  0  0  0  0  0  0  0  0  0  0  0
   38.2080   25.1850   39.2700 O   0  0  0  0  0  0  0  0  0  0  0  0
   36.1450   26.8680   38.7150 Cl  0  0  0  0  0  0  0  0  0  0  0  0
   37.6650   27.7420   38.6930 C   0  0  0  0  0  0  0  0  0  0  0  0
   38.7310   27.1500   39.4070 C   0  0  0  0  0  0  0  0  0  0  0  0
   39.8580   27.9350   39.3190 C   0  0  0  0  0  0  0  0  0  0  0  0
   40.0710   29.0870   38.6990 C   0  0  0  0  0  0  0  0  0  0  0  0
   38.9900   29.6070   38.0220 C   0  0  0  0  0  0  0  0  0  0  0  0
   37.7820   28.9520   38.0080 C   0  0  0  0  0  0  0  0  0  0  0  0
   40.7690   27.5990   39.8700 H   0  0  0  0  0  0  0  0  0  0  0  0
   41.0090   29.6410   38.6830 H   0  0  0  0  0  0  0  0  0  0  0  0
   39.1240   30.5670   37.4900 H   0  0  0  0  0  0  0  0  0  0  0  0
   36.7970   29.5690   37.3080 O   0  0  0  0  0  0  0  0  0  0  0  0
   35.0590   29.3150   35.3590 O   0  0  0  0  0  0  0  0  0  0  0  0
   36.5150   29.6160   35.6360 P   0  0  0  0  0  0  0  0  0  0  0  0
   36.9500   31.1430   35.0470 O   0  0  0  0  0  0  0  0  0  0  0  0
   36.9060   31.1490   34.0590 H   0  0  0  0  0  0  0  0  0  0  0  0
   37.4980   28.5150   34.8110 O   0  0  0  0  0  0  0  0  0  0  0  0
   37.0430   27.7160   34.5020 H   0  0  0  0  0  0  0  0  0  0  0  0
  1  2  1  0  0  0  0
  2  9  1  0  0  0  0
  2  3  2  0  0  0  0
  3  7  1  0  0  0  0
  4  3  1  0  0  0  0
  5  8  1  0  0  0  0
  5  4  2  0  0  0  0
  6  1  2  0  0  0  0
  6  5  1  0  0  0  0
  9 12  1  6  0  0  0
  9 10  1  0  0  0  0
 10 14  1  0  0  0  0
 10 13  1  0  0  0  0
 11 15  1  6  0  0  0
 11  9  1  0  0  0  0
 11 10  1  0  0  0  0
 17 11  1  0  0  0  0
 17 16  2  0  0  0  0
 18 17  1  0  0  0  0
 19 18  1  0  0  0  0
 20 18  2  0  0  0  0
 20 26  1  0  0  0  0
 21 20  1  0  0  0  0
 22 21  1  0  0  0  0
 23 21  1  0  0  0  0
 23 25  2  0  0  0  0
 24 23  1  0  0  0  0
 25 26  1  0  0  0  0
 26 27  2  0  0  0  0
 27 16  1  0  0  0  0
 28  1  1  0  0  0  0
 29 28  2  0  0  0  0
 31 30  1  0  0  0  0
 31 32  1  0  0  0  0
 32 28  1  0  0  0  0
 33 32  2  0  0  0  0
 33 37  1  0  0  0  0
 34 33  1  0  0  0  0
 35 34  2  0  0  0  0
 36 35  1  0  0  0  0
 36 31  2  0  0  0  0
 38 34  1  0  0  0  0
 39 35  1  0  0  0  0
 40 36  1  0  0  0  0
 41 42  2  0  0  0  0
 42 40  1  0  0  0  0
 43 42  1  0  0  0  0
 44 43  1  0  0  0  0
 45 42  1  0  0  0  0
 46 45  1  0  0  0  0
M  END
>  <minimizedAffinity>
-7.01201487

$$$$

 OpenBabel03242523253D

 46 50  0  0  1  0  0  0  0  0999 V2000
   36.9150   26.9410   40.4990 C   0  0  0  0  0  0  0  0  0  0  0  0
   36.9750   25.6410   40.2290 C   0  0  0  0  0  0  0  0  0  0  0  0
   37.0460   25.3380   38.9050 C   0  0  0  0  0  0  0  0  0  0  0  0
   37.0540   26.3770   37.9620 N   0  0  0  0  0  0  0  0  0  0  0  0
   36.9920   27.6470   38.2990 C   0  0  0  0  0  0  0  0  0  0  0  0
   36.9170   27.9930   39.6220 N   0  0  0  0  0  0  0  0  0  0  0  0
   37.0760   24.4220   38.3510 H   0  0  0  0  0  0  0  0  0  0  0  0
   37.0010   28.4150   37.5030 H   0  0  0  0  0  0  0  0  0  0  0  0
   36.8600   24.5680   41.1430 C   0  0  1  0  0  0  0  0  0  0  0  0
   37.3560   23.3030   41.0640 C   0  0  0  0  0  0  0  0  0  0  0  0
   38.0850   24.1660   42.0120 C   0  0  1  0  0  0  0  0  0  0  0  0
   35.8740   24.5980   41.7100 H   0  0  0  0  0  0  0  0  0  0  0  0
   37.8730   22.9360   40.1360 H   0  0  0  0  0  0  0  0  0  0  0  0
   36.9610   22.3720   41.5780 H   0  0  0  0  0  0  0  0  0  0  0  0
   37.7670   24.1790   43.0960 H   0  0  0  0  0  0  0  0  0  0  0  0
   40.0890   25.0120   40.5440 C   0  0  0  0  0  3  0  0  0  0  0  0
   39.4390   24.6250   41.7000 C   0  0  0  0  0  0  0  0  0  0  0  0
   40.2860   24.6870   42.8190 C   0  0  0  0  0  0  0  0  0  0  0  0
   39.9630   24.4190   43.7900 H   0  0  0  0  0  0  0  0  0  0  0  0
   41.6060   25.0880   42.7620 C   0  0  0  0  0  0  0  0  0  0  0  0
   42.5830   25.2230   43.6750 N   0  0  0  0  0  0  0  0  0  0  0  0
   42.4990   25.0270   44.6970 H   0  0  0  0  0  0  0  0  0  0  0  0
   43.7050   25.6530   43.1050 C   0  0  0  0  0  0  0  0  0  0  0  0
   44.6510   25.8500   43.5960 H   0  0  0  0  0  0  0  0  0  0  0  0
   43.4870   25.8130   41.7690 C   0  0  0  0  0  3  0  0  0  0  0  0
   42.1740   25.4550   41.5820 C   0  0  0  0  0  0  0  0  0  0  0  0
   41.3980   25.4170   40.4460 C   0  0  0  0  0  3  0  0  0  0  0  0
   36.8920   27.5640   41.8390 C   0  0  0  0  0  0  0  0  0  0  0  0
   36.4520   27.7330   42.9400 O   0  0  0  0  0  0  0  0  0  0  0  0
   36.3600   30.5670   41.3690 Cl  0  0  0  0  0  0  0  0  0  0  0  0
   37.9530   29.9270   41.7200 C   0  0  0  0  0  0  0  0  0  0  0  0
   38.0290   28.5300   41.9240 C   0  0  0  0  0  0  0  0  0  0  0  0
   39.3250   28.1570   42.1990 C   0  0  0  0  0  0  0  0  0  0  0  0
   40.4360   28.8740   42.2910 C   0  0  0  0  0  0  0  0  0  0  0  0
   40.2910   30.2280   42.0810 C   0  0  0  0  0  0  0  0  0  0  0  0
   39.0620   30.7710   41.7960 C   0  0  0  0  0  0  0  0  0  0  0  0
   39.5210   27.0800   42.4150 H   0  0  0  0  0  0  0  0  0  0  0  0
   41.4300   28.4870   42.5140 H   0  0  0  0  0  0  0  0  0  0  0  0
   41.1930   30.8630   42.1470 H   0  0  0  0  0  0  0  0  0  0  0  0
   39.0510   32.1160   41.6130 O   0  0  0  0  0  0  0  0  0  0  0  0
   39.7820   34.1350   40.1060 O   0  0  0  0  0  0  0  0  0  0  0  0
   38.7650   33.0210   40.2070 P   0  0  0  0  0  0  0  0  0  0  0  0
   38.8440   31.9920   38.8640 O   0  0  0  0  0  0  0  0  0  0  0  0
   38.5620   32.4770   38.0500 H   0  0  0  0  0  0  0  0  0  0  0  0
   37.2010   33.6650   40.1930 O   0  0  0  0  0  0  0  0  0  0  0  0
   37.1510   34.6150   40.3830 H   0  0  0  0  0  0  0  0  0  0  0  0
  1 28  1  0  0  0  0
  2  1  1  0  0  0  0
  2  9  1  0  0  0  0
  3  2  2  0  0  0  0
  4  5  2  0  0  0  0
  4  3  1  0  0  0  0
  5  6  1  0  0  0  0
  6  1  2  0  0  0  0
  7  3  1  0  0  0  0
  8  5  1  0  0  0  0
  9 12  1  1  0  0  0
  9 11  1  0  0  0  0
 10  9  1  0  0  0  0
 10 14  1  0  0  0  0
 10 11  1  0  0  0  0
 11 15  1  1  0  0  0
 13 10  1  0  0  0  0
 16 17  1  0  0  0  0
 17 11  1  0  0  0  0
 17 18  2  0  0  0  0
 18 19  1  0  0  0  0
 20 18  1  0  0  0  0
 20 21  1  0  0  0  0
 21 22  1  0  0  0  0
 23 24  1  0  0  0  0
 23 21  1  0  0  0  0
 25 23  2  0  0  0  0
 26 25  1  0  0  0  0
 26 20  2  0  0  0  0
 27 16  2  0  0  0  0
 27 26  1  0  0  0  0
 28 32  1  0  0  0  0
 28 29  2  0  0  0  0
 30 31  1  0  0  0  0
 31 36  2  0  0  0  0
 31 32  1  0  0  0  0
 32 33  2  0  0  0  0
 33 34  1  0  0  0  0
 33 37  1  0  0  0  0
 34 38  1  0  0  0  0
 35 39  1  0  0  0  0
 35 34  2  0  0  0  0
 36 35  1  0  0  0  0
 40 36  1  0  0  0  0
 41 42  2  0  0  0  0
 42 40  1  0  0  0  0
 43 42  1  0  0  0  0
 44 43  1  0  0  0  0
 45 42  1  0  0  0  0
 45 46  1  0  0  0  0
M  END
>  <minimizedAffinity>
-6.95323801

$$$$

 OpenBabel03242523253D

 46 50  0  0  1  0  0  0  0  0999 V2000
   37.4870   29.4200   37.5740 C   0  0  0  0  0  0  0  0  0  0  0  0
   36.6200   28.9200   38.4500 C   0  0  0  0  0  0  0  0  0  0  0  0
   36.6600   27.5670   38.5800 C   0  0  0  0  0  0  0  0  0  0  0  0
   37.5750   26.8300   37.8130 N   0  0  0  0  0  0  0  0  0  0  0  0
   38.4060   27.3900   36.9610 C   0  0  0  0  0  0  0  0  0  0  0  0
   38.3970   28.7500   36.8010 N   0  0  0  0  0  0  0  0  0  0  0  0
   36.1000   26.8570   39.1540 H   0  0  0  0  0  0  0  0  0  0  0  0
   39.1000   26.7480   36.3870 H   0  0  0  0  0  0  0  0  0  0  0  0
   35.6140   29.6180   39.1580 C   0  0  1  0  0  0  0  0  0  0  0  0
   34.5990   29.1370   39.9240 C   0  0  0  0  0  0  0  0  0  0  0  0
   35.7010   29.7290   40.7060 C   0  0  1  0  0  0  0  0  0  0  0  0
   35.3240   30.5870   38.6350 H   0  0  0  0  0  0  0  0  0  0  0  0
   34.3950   28.0350   39.9990 H   0  0  0  0  0  0  0  0  0  0  0  0
   33.6110   29.6440   40.1620 H   0  0  0  0  0  0  0  0  0  0  0  0
   35.6490   30.8230   40.9840 H   0  0  0  0  0  0  0  0  0  0  0  0
   36.4370   27.6730   42.1610 C   0  0  0  0  0  3  0  0  0  0  0  0
   36.5880   28.8730   41.4940 C   0  0  0  0  0  0  0  0  0  0  0  0
   37.8940   29.3740   41.6150 C   0  0  0  0  0  0  0  0  0  0  0  0
   38.1940   30.2900   41.1760 H   0  0  0  0  0  0  0  0  0  0  0  0
   38.9000   28.7380   42.3160 C   0  0  0  0  0  0  0  0  0  0  0  0
   40.1910   29.0190   42.5630 N   0  0  0  0  0  0  0  0  0  0  0  0
   40.7100   29.8600   42.2280 H   0  0  0  0  0  0  0  0  0  0  0  0
   40.7470   28.0670   43.3060 C   0  0  0  0  0  0  0  0  0  0  0  0
   41.7720   28.0300   43.6580 H   0  0  0  0  0  0  0  0  0  0  0  0
   39.8100   27.1140   43.5740 C   0  0  0  0  0  3  0  0  0  0  0  0
   38.6710   27.5550   42.9460 C   0  0  0  0  0  0  0  0  0  0  0  0
   37.4100   27.0090   42.8670 C   0  0  0  0  0  3  0  0  0  0  0  0
   37.7100   30.8490   37.2710 C   0  0  0  0  0  0  0  0  0  0  0  0
   37.7270   31.8080   36.5530 O   0  0  0  0  0  0  0  0  0  0  0  0
   40.5150   30.2050   38.3840 Cl  0  0  0  0  0  0  0  0  0  0  0  0
   39.4160   31.3260   39.1650 C   0  0  0  0  0  0  0  0  0  0  0  0
   38.1730   31.5240   38.5230 C   0  0  0  0  0  0  0  0  0  0  0  0
   37.4100   32.4280   39.2260 C   0  0  0  0  0  0  0  0  0  0  0  0
   37.6590   33.0920   40.3460 C   0  0  0  0  0  0  0  0  0  0  0  0
   38.8890   32.8520   40.9190 C   0  0  0  0  0  0  0  0  0  0  0  0
   39.7780   31.9770   40.3450 C   0  0  0  0  0  0  0  0  0  0  0  0
   36.4120   32.7020   38.8080 H   0  0  0  0  0  0  0  0  0  0  0  0
   36.9860   33.7950   40.8360 H   0  0  0  0  0  0  0  0  0  0  0  0
   39.1370   33.3850   41.8550 H   0  0  0  0  0  0  0  0  0  0  0  0
   40.9550   31.8300   41.0050 O   0  0  0  0  0  0  0  0  0  0  0  0
   43.4950   31.9620   40.3620 O   0  0  0  0  0  0  0  0  0  0  0  0
   42.3620   32.7750   40.9460 P   0  0  0  0  0  0  0  0  0  0  0  0
   42.0570   34.1590   40.0180 O   0  0  0  0  0  0  0  0  0  0  0  0
   42.8260   34.7780   40.0730 H   0  0  0  0  0  0  0  0  0  0  0  0
   42.7920   33.3430   42.4800 O   0  0  0  0  0  0  0  0  0  0  0  0
   43.5460   32.8880   42.8860 H   0  0  0  0  0  0  0  0  0  0  0  0
  1  2  1  0  0  0  0
  2  3  2  0  0  0  0
  2  9  1  0  0  0  0
  3  7  1  0  0  0  0
  4  3  1  0  0  0  0
  5  4  2  0  0  0  0
  6  5  1  0  0  0  0
  6  1  2  0  0  0  0
  8  5  1  0  0  0  0
  9 12  1  6  0  0  0
  9 10  1  0  0  0  0
  9 11  1  0  0  0  0
 10 13  1  0  0  0  0
 10 14  1  0  0  0  0
 10 11  1  0  0  0  0
 11 15  1  1  0  0  0
 11 17  1  0  0  0  0
 16 27  1  0  0  0  0
 17 18  1  0  0  0  0
 17 16  2  0  0  0  0
 18 20  2  0  0  0  0
 19 18  1  0  0  0  0
 20 21  1  0  0  0  0
 20 26  1  0  0  0  0
 21 23  1  0  0  0  0
 22 21  1  0  0  0  0
 23 25  2  0  0  0  0
 23 24  1  0  0  0  0
 26 25  1  0  0  0  0
 27 26  2  0  0  0  0
 28  1  1  0  0  0  0
 28 32  1  0  0  0  0
 29 28  2  0  0  0  0
 30 31  1  0  0  0  0
 31 36  1  0  0  0  0
 32 31  2  0  0  0  0
 32 33  1  0  0  0  0
 33 34  2  0  0  0  0
 34 38  1  0  0  0  0
 34 35  1  0  0  0  0
 35 39  1  0  0  0  0
 36 35  2  0  0  0  0
 36 40  1  0  0  0  0
 37 33  1  0  0  0  0
 41 42  2  0  0  0  0
 42 40  1  0  0  0  0
 42 45  1  0  0  0  0
 43 44  1  0  0  0  0
 43 42  1  0  0  0  0
 45 46  1  0  0  0  0
M  END
>  <minimizedAffinity>
-6.73712492

$$$$

 OpenBabel03242523253D

 46 50  0  0  1  0  0  0  0  0999 V2000
   39.9660   26.5400   42.5830 C   0  0  0  0  0  0  0  0  0  0  0  0
   39.0980   27.5200   42.8150 C   0  0  0  0  0  0  0  0  0  0  0  0
   39.6150   28.7730   42.7120 C   0  0  0  0  0  0  0  0  0  0  0  0
   40.9690   28.9330   42.3800 N   0  0  0  0  0  0  0  0  0  0  0  0
   41.7750   27.9170   42.1630 C   0  0  0  0  0  0  0  0  0  0  0  0
   41.2930   26.6380   42.2580 N   0  0  0  0  0  0  0  0  0  0  0  0
   39.2180   29.7580   42.8580 H   0  0  0  0  0  0  0  0  0  0  0  0
   42.8330   28.1150   41.9060 H   0  0  0  0  0  0  0  0  0  0  0  0
   37.7600   27.3960   43.2560 C   0  0  1  0  0  0  0  0  0  0  0  0
   36.8920   28.3550   43.6780 C   0  0  0  0  0  0  0  0  0  0  0  0
   36.6000   27.8470   42.3250 C   0  0  1  0  0  0  0  0  0  0  0  0
   37.5790   26.4030   43.7830 H   0  0  0  0  0  0  0  0  0  0  0  0
   37.2200   29.4210   43.8120 H   0  0  0  0  0  0  0  0  0  0  0  0
   35.9980   28.2250   44.3650 H   0  0  0  0  0  0  0  0  0  0  0  0
   35.8850   26.9800   42.2080 H   0  0  0  0  0  0  0  0  0  0  0  0
   37.1460   28.4510   39.8300 C   0  0  0  0  0  3  0  0  0  0  0  0
   36.8320   28.6920   41.1540 C   0  0  0  0  0  0  0  0  0  0  0  0
   36.7200   30.0670   41.4190 C   0  0  0  0  0  0  0  0  0  0  0  0
   36.4930   30.4420   42.3820 H   0  0  0  0  0  0  0  0  0  0  0  0
   36.9020   31.0510   40.4670 C   0  0  0  0  0  0  0  0  0  0  0  0
   36.8470   32.3940   40.4870 N   0  0  0  0  0  0  0  0  0  0  0  0
   36.6330   32.9870   41.3190 H   0  0  0  0  0  0  0  0  0  0  0  0
   37.1050   32.8940   39.2830 C   0  0  0  0  0  0  0  0  0  0  0  0
   37.1300   33.9420   39.0040 H   0  0  0  0  0  0  0  0  0  0  0  0
   37.3420   31.8660   38.4200 C   0  0  0  0  0  3  0  0  0  0  0  0
   37.2100   30.7310   39.1820 C   0  0  0  0  0  0  0  0  0  0  0  0
   37.3350   29.4000   38.8550 C   0  0  0  0  0  3  0  0  0  0  0  0
   39.6770   25.0910   42.5650 C   0  0  0  0  0  0  0  0  0  0  0  0
   39.8030   23.9620   42.9460 O   0  0  0  0  0  0  0  0  0  0  0  0
   40.5570   25.2110   39.6090 Cl  0  0  0  0  0  0  0  0  0  0  0  0
   38.9100   24.8630   40.0980 C   0  0  0  0  0  0  0  0  0  0  0  0
   38.6700   24.8300   41.4910 C   0  0  0  0  0  0  0  0  0  0  0  0
   37.3490   24.5390   41.7410 C   0  0  0  0  0  0  0  0  0  0  0  0
   36.3370   24.3040   40.9170 C   0  0  0  0  0  0  0  0  0  0  0  0
   36.6410   24.3520   39.5740 C   0  0  0  0  0  0  0  0  0  0  0  0
   37.9170   24.6280   39.1470 C   0  0  0  0  0  0  0  0  0  0  0  0
   37.0290   24.4490   42.8060 H   0  0  0  0  0  0  0  0  0  0  0  0
   35.3120   24.0820   41.2100 H   0  0  0  0  0  0  0  0  0  0  0  0
   35.8260   24.1620   38.8510 H   0  0  0  0  0  0  0  0  0  0  0  0
   38.0870   24.6430   37.8000 O   0  0  0  0  0  0  0  0  0  0  0  0
   38.8890   26.9450   36.8300 O   0  0  0  0  0  0  0  0  0  0  0  0
   37.8160   25.8900   36.6830 P   0  0  0  0  0  0  0  0  0  0  0  0
   37.8050   25.2380   35.1200 O   0  0  0  0  0  0  0  0  0  0  0  0
   37.5290   25.9280   34.4680 H   0  0  0  0  0  0  0  0  0  0  0  0
   36.2890   26.5890   36.8930 O   0  0  0  0  0  0  0  0  0  0  0  0
   36.2960   27.4600   37.3200 H   0  0  0  0  0  0  0  0  0  0  0  0
  1  2  1  0  0  0  0
  2  9  1  0  0  0  0
  3  2  2  0  0  0  0
  3  7  1  0  0  0  0
  4  3  1  0  0  0  0
  5  6  1  0  0  0  0
  5  4  2  0  0  0  0
  6  1  2  0  0  0  0
  8  5  1  0  0  0  0
  9 10  1  0  0  0  0
  9 12  1  1  0  0  0
 10 13  1  0  0  0  0
 10 14  1  0  0  0  0
 11 15  1  6  0  0  0
 11  9  1  0  0  0  0
 11 10  1  0  0  0  0
 16 17  1  0  0  0  0
 17 18  2  0  0  0  0
 17 11  1  0  0  0  0
 18 19  1  0  0  0  0
 20 21  1  0  0  0  0
 20 18  1  0  0  0  0
 21 22  1  0  0  0  0
 23 21  1  0  0  0  0
 24 23  1  0  0  0  0
 25 26  1  0  0  0  0
 25 23  2  0  0  0  0
 26 20  2  0  0  0  0
 27 26  1  0  0  0  0
 27 16  2  0  0  0  0
 28  1  1  0  0  0  0
 28 29  2  0  0  0  0
 30 31  1  0  0  0  0
 31 32  1  0  0  0  0
 32 33  2  0  0  0  0
 32 28  1  0  0  0  0
 33 37  1  0  0  0  0
 34 38  1  0  0  0  0
 34 33  1  0  0  0  0
 35 34  2  0  0  0  0
 36 35  1  0  0  0  0
 36 31  2  0  0  0  0
 39 35  1  0  0  0  0
 40 36  1  0  0  0  0
 42 41  2  0  0  0  0
 42 45  1  0  0  0  0
 42 40  1  0  0  0  0
 43 42  1  0  0  0  0
 44 43  1  0  0  0  0
 45 46  1  0  0  0  0
M  END
>  <minimizedAffinity>
-6.73054266

$$$$

 OpenBabel03242523253D

 46 50  0  0  1  0  0  0  0  0999 V2000
   39.2710   30.8070   38.4070 C   0  0  0  0  0  0  0  0  0  0  0  0
   40.2930   31.1670   39.1780 C   0  0  0  0  0  0  0  0  0  0  0  0
   41.3690   30.3380   39.1180 C   0  0  0  0  0  0  0  0  0  0  0  0
   41.3250   29.2130   38.2810 N   0  0  0  0  0  0  0  0  0  0  0  0
   40.2780   28.9140   37.5420 C   0  0  0  0  0  0  0  0  0  0  0  0
   39.1730   29.7230   37.5750 N   0  0  0  0  0  0  0  0  0  0  0  0
   42.3190   30.3130   39.6130 H   0  0  0  0  0  0  0  0  0  0  0  0
   40.3100   28.0110   36.9050 H   0  0  0  0  0  0  0  0  0  0  0  0
   40.3320   32.2280   40.1120 C   0  0  1  0  0  0  0  0  0  0  0  0
   39.3520   32.7090   40.9220 C   0  0  0  0  0  0  0  0  0  0  0  0
   40.3680   31.9110   41.6340 C   0  0  1  0  0  0  0  0  0  0  0  0
   41.0510   33.0490   39.7880 H   0  0  0  0  0  0  0  0  0  0  0  0
   38.2970   32.3280   40.8520 H   0  0  0  0  0  0  0  0  0  0  0  0
   39.2670   33.7510   41.3640 H   0  0  0  0  0  0  0  0  0  0  0  0
   41.2610   32.4360   42.0820 H   0  0  0  0  0  0  0  0  0  0  0  0
   40.7560   29.4460   42.4470 C   0  0  0  0  0  3  0  0  0  0  0  0
   40.0320   30.5860   42.1550 C   0  0  0  0  0  0  0  0  0  0  0  0
   38.6630   30.4140   42.4200 C   0  0  0  0  0  0  0  0  0  0  0  0
   37.9520   31.1780   42.2490 H   0  0  0  0  0  0  0  0  0  0  0  0
   38.1170   29.2450   42.9140 C   0  0  0  0  0  0  0  0  0  0  0  0
   36.8710   28.8580   43.2360 N   0  0  0  0  0  0  0  0  0  0  0  0
   36.0080   29.4410   43.1600 H   0  0  0  0  0  0  0  0  0  0  0  0
   36.8660   27.6050   43.6780 C   0  0  0  0  0  0  0  0  0  0  0  0
   36.0060   27.0330   44.0070 H   0  0  0  0  0  0  0  0  0  0  0  0
   38.1420   27.1240   43.6550 C   0  0  0  0  0  3  0  0  0  0  0  0
   38.9000   28.1650   43.1760 C   0  0  0  0  0  0  0  0  0  0  0  0
   40.2510   28.2670   42.9380 C   0  0  0  0  0  3  0  0  0  0  0  0
   38.0030   31.5420   38.2240 C   0  0  0  0  0  0  0  0  0  0  0  0
   37.3460   32.5070   37.9530 O   0  0  0  0  0  0  0  0  0  0  0  0
   36.6040   30.0390   35.9200 Cl  0  0  0  0  0  0  0  0  0  0  0  0
   36.1260   29.8660   37.5980 C   0  0  0  0  0  0  0  0  0  0  0  0
   36.8750   30.6120   38.5360 C   0  0  0  0  0  0  0  0  0  0  0  0
   36.4090   30.3820   39.8100 C   0  0  0  0  0  0  0  0  0  0  0  0
   35.4220   29.6150   40.2510 C   0  0  0  0  0  0  0  0  0  0  0  0
   34.7330   28.9160   39.2840 C   0  0  0  0  0  0  0  0  0  0  0  0
   35.0700   29.0280   37.9570 C   0  0  0  0  0  0  0  0  0  0  0  0
   36.9360   30.8860   40.6550 H   0  0  0  0  0  0  0  0  0  0  0  0
   35.1200   29.4960   41.2920 H   0  0  0  0  0  0  0  0  0  0  0  0
   33.9010   28.2650   39.6080 H   0  0  0  0  0  0  0  0  0  0  0  0
   34.3170   28.2870   37.1040 O   0  0  0  0  0  0  0  0  0  0  0  0
   32.7940   29.2630   35.2040 O   0  0  0  0  0  0  0  0  0  0  0  0
   32.7410   28.5490   36.5360 P   0  0  0  0  0  0  0  0  0  0  0  0
   31.9480   27.0580   36.4030 O   0  0  0  0  0  0  0  0  0  0  0  0
   30.9930   27.2020   36.1900 H   0  0  0  0  0  0  0  0  0  0  0  0
   31.8270   29.4520   37.6370 O   0  0  0  0  0  0  0  0  0  0  0  0
   31.6860   30.3780   37.3860 H   0  0  0  0  0  0  0  0  0  0  0  0
  1  2  1  0  0  0  0
  2  9  1  0  0  0  0
  3  2  2  0  0  0  0
  3  7  1  0  0  0  0
  4  3  1  0  0  0  0
  5  6  1  0  0  0  0
  5  4  2  0  0  0  0
  6  1  2  0  0  0  0
  8  5  1  0  0  0  0
  9 12  1  6  0  0  0
  9 10  1  0  0  0  0
  9 11  1  0  0  0  0
 10 14  1  0  0  0  0
 10 11  1  0  0  0  0
 11 15  1  1  0  0  0
 11 17  1  0  0  0  0
 13 10  1  0  0  0  0
 16 27  1  0  0  0  0
 17 18  1  0  0  0  0
 17 16  2  0  0  0  0
 18 20  2  0  0  0  0
 19 18  1  0  0  0  0
 20 26  1  0  0  0  0
 20 21  1  0  0  0  0
 21 23  1  0  0  0  0
 22 21  1  0  0  0  0
 23 24  1  0  0  0  0
 25 23  2  0  0  0  0
 26 25  1  0  0  0  0
 27 26  2  0  0  0  0
 28  1  1  0  0  0  0
 28 32  1  0  0  0  0
 29 28  2  0  0  0  0
 30 31  1  0  0  0  0
 31 36  2  0  0  0  0
 31 32  1  0  0  0  0
 32 33  2  0  0  0  0
 33 34  1  0  0  0  0
 33 37  1  0  0  0  0
 34 38  1  0  0  0  0
 35 39  1  0  0  0  0
 35 34  2  0  0  0  0
 36 35  1  0  0  0  0
 40 36  1  0  0  0  0
 41 42  2  0  0  0  0
 42 40  1  0  0  0  0
 42 45  1  0  0  0  0
 43 42  1  0  0  0  0
 44 43  1  0  0  0  0
 46 45  1  0  0  0  0
M  END
>  <minimizedAffinity>
-6.6119442

$$$$

 OpenBabel03242523253D

 46 50  0  0  1  0  0  0  0  0999 V2000
   37.3580   26.5620   38.8710 C   0  0  0  0  0  0  0  0  0  0  0  0
   37.6840   25.7070   39.8350 C   0  0  0  0  0  0  0  0  0  0  0  0
   38.8180   24.9940   39.6030 C   0  0  0  0  0  0  0  0  0  0  0  0
   39.5320   25.2050   38.4140 N   0  0  0  0  0  0  0  0  0  0  0  0
   39.1520   26.0700   37.4970 C   0  0  0  0  0  0  0  0  0  0  0  0
   38.0130   26.8070   37.6940 N   0  0  0  0  0  0  0  0  0  0  0  0
   39.3370   24.2240   40.1370 H   0  0  0  0  0  0  0  0  0  0  0  0
   39.7610   26.1850   36.5820 H   0  0  0  0  0  0  0  0  0  0  0  0
   36.9340   25.3900   40.9920 C   0  0  1  0  0  0  0  0  0  0  0  0
   37.1930   24.4850   41.9730 C   0  0  0  0  0  0  0  0  0  0  0  0
   37.4250   25.8820   42.3830 C   0  0  1  0  0  0  0  0  0  0  0  0
   35.8160   25.5150   40.8190 H   0  0  0  0  0  0  0  0  0  0  0  0
   38.0620   23.7760   41.9000 H   0  0  0  0  0  0  0  0  0  0  0  0
   36.4460   23.9750   42.6600 H   0  0  0  0  0  0  0  0  0  0  0  0
   36.5830   26.4570   42.8700 H   0  0  0  0  0  0  0  0  0  0  0  0
   39.3740   27.6220   42.6250 C   0  0  0  0  0  3  0  0  0  0  0  0
   38.7870   26.3720   42.5940 C   0  0  0  0  0  0  0  0  0  0  0  0
   39.7270   25.3510   42.8100 C   0  0  0  0  0  0  0  0  0  0  0  0
   39.4610   24.3260   42.8120 H   0  0  0  0  0  0  0  0  0  0  0  0
   41.0720   25.5770   43.0270 C   0  0  0  0  0  0  0  0  0  0  0  0
   42.1310   24.7810   43.2510 N   0  0  0  0  0  0  0  0  0  0  0  0
   42.1140   23.7380   43.3060 H   0  0  0  0  0  0  0  0  0  0  0  0
   43.2390   25.5000   43.4020 C   0  0  0  0  0  0  0  0  0  0  0  0
   44.2380   25.1250   43.5920 H   0  0  0  0  0  0  0  0  0  0  0  0
   42.9270   26.8210   43.2760 C   0  0  0  0  0  3  0  0  0  0  0  0
   41.5730   26.8410   43.0430 C   0  0  0  0  0  0  0  0  0  0  0  0
   40.7040   27.8890   42.8380 C   0  0  0  0  0  3  0  0  0  0  0  0
   36.2210   27.5060   38.8750 C   0  0  0  0  0  0  0  0  0  0  0  0
   35.0930   27.8340   38.6410 O   0  0  0  0  0  0  0  0  0  0  0  0
   37.4370   29.7390   37.1270 Cl  0  0  0  0  0  0  0  0  0  0  0  0
   37.2600   29.8810   38.8650 C   0  0  0  0  0  0  0  0  0  0  0  0
   36.6720   28.7760   39.5210 C   0  0  0  0  0  0  0  0  0  0  0  0
   36.5820   29.0160   40.8730 C   0  0  0  0  0  0  0  0  0  0  0  0
   36.9470   30.0640   41.5980 C   0  0  0  0  0  0  0  0  0  0  0  0
   37.5140   31.1050   40.8960 C   0  0  0  0  0  0  0  0  0  0  0  0
   37.6770   31.0330   39.5330 C   0  0  0  0  0  0  0  0  0  0  0  0
   36.1030   28.2340   41.5090 H   0  0  0  0  0  0  0  0  0  0  0  0
   36.8370   30.1650   42.6770 H   0  0  0  0  0  0  0  0  0  0  0  0
   37.8340   31.9990   41.4610 H   0  0  0  0  0  0  0  0  0  0  0  0
   38.2450   32.1240   38.9600 O   0  0  0  0  0  0  0  0  0  0  0  0
   40.7280   31.2750   38.9630 O   0  0  0  0  0  0  0  0  0  0  0  0
   39.8340   32.3660   38.4180 P   0  0  0  0  0  0  0  0  0  0  0  0
   39.8430   32.3780   36.7240 O   0  0  0  0  0  0  0  0  0  0  0  0
   40.7380   32.6380   36.3930 H   0  0  0  0  0  0  0  0  0  0  0  0
   40.4240   33.8810   38.8850 O   0  0  0  0  0  0  0  0  0  0  0  0
   41.0600   33.8610   39.6180 H   0  0  0  0  0  0  0  0  0  0  0  0
  1 28  1  0  0  0  0
  1  2  1  0  0  0  0
  2  9  1  0  0  0  0
  3  2  2  0  0  0  0
  3  7  1  0  0  0  0
  4  3  1  0  0  0  0
  5  6  1  0  0  0  0
  5  4  2  0  0  0  0
  6  1  2  0  0  0  0
  8  5  1  0  0  0  0
  9 12  1  6  0  0  0
  9 10  1  0  0  0  0
  9 11  1  0  0  0  0
 10 11  1  0  0  0  0
 10 14  1  0  0  0  0
 11 17  1  0  0  0  0
 11 15  1  1  0  0  0
 13 10  1  0  0  0  0
 16 27  1  0  0  0  0
 17 16  2  0  0  0  0
 17 18  1  0  0  0  0
 18 19  1  0  0  0  0
 18 20  2  0  0  0  0
 20 26  1  0  0  0  0
 20 21  1  0  0  0  0
 21 22  1  0  0  0  0
 21 23  1  0  0  0  0
 23 24  1  0  0  0  0
 25 23  2  0  0  0  0
 26 25  1  0  0  0  0
 27 26  2  0  0  0  0
 28 32  1  0  0  0  0
 29 28  2  0  0  0  0
 30 31  1  0  0  0  0
 31 32  2  0  0  0  0
 31 36  1  0  0  0  0
 32 33  1  0  0  0  0
 33 37  1  0  0  0  0
 33 34  2  0  0  0  0
 34 38  1  0  0  0  0
 35 39  1  0  0  0  0
 35 34  1  0  0  0  0
 36 35  2  0  0  0  0
 40 36  1  0  0  0  0
 42 45  1  0  0  0  0
 42 40  1  0  0  0  0
 42 41  2  0  0  0  0
 43 42  1  0  0  0  0
 44 43  1  0  0  0  0
 45 46  1  0  0  0  0
M  END
>  <minimizedAffinity>
-6.60567808

$$$$
