
 OpenBabel03242517583D

 46 49  0  0  0  0  0  0  0  0999 V2000
   40.1260   33.1580   39.1080 C   0  0  0  0  0  0  0  0  0  0  0  0
   40.2460   32.3700   38.0150 C   0  0  0  0  0  0  0  0  0  0  0  0
   41.3550   32.5340   37.2060 C   0  0  0  0  0  0  0  0  0  0  0  0
   42.3350   33.4600   37.4680 C   0  0  0  0  0  0  0  0  0  0  0  0
   42.2040   34.2560   38.5830 C   0  0  0  0  0  0  0  0  0  0  0  0
   41.0930   34.0980   39.3990 C   0  0  0  0  0  0  0  0  0  0  0  0
   41.5260   31.9460   36.3160 H   0  0  0  0  0  0  0  0  0  0  0  0
   43.2040   33.5860   36.8310 H   0  0  0  0  0  0  0  0  0  0  0  0
   42.9080   35.0120   38.8810 H   0  0  0  0  0  0  0  0  0  0  0  0
   40.9160   34.6950   40.3060 H   0  0  0  0  0  0  0  0  0  0  0  0
   38.6530   32.9750   40.0250 S   0  0  0  0  0  0  0  0  0  0  0  0
   37.4200   33.1850   39.2480 O   0  0  0  0  0  0  0  0  0  0  0  0
   38.6710   34.1320   41.0540 O   0  0  0  0  0  0  0  0  0  0  0  0
   39.7440   31.1720   41.8550 C   0  0  0  0  0  3  0  0  0  0  0  0
   38.6800   31.5830   41.0810 C   0  0  0  0  0  0  0  0  0  0  0  0
   37.5540   30.7620   41.2140 C   0  0  0  0  0  0  0  0  0  0  0  0
   36.6810   31.0580   40.6100 H   0  0  0  0  0  0  0  0  0  0  0  0
   37.4340   29.6440   42.0110 C   0  0  0  0  0  0  0  0  0  0  0  0
   36.4010   28.8120   42.1900 N   0  0  0  0  0  0  0  0  0  0  0  0
   35.4510   28.8290   41.7650 H   0  0  0  0  0  0  0  0  0  0  0  0
   36.8560   27.8980   43.0820 C   0  0  0  0  0  0  0  0  0  0  0  0
   36.2950   27.0670   43.4690 H   0  0  0  0  0  0  0  0  0  0  0  0
   38.1650   28.1660   43.4500 C   0  0  0  0  0  3  0  0  0  0  0  0
   38.5380   29.2980   42.7530 C   0  0  0  0  0  0  0  0  0  0  0  0
   39.6770   30.0600   42.6700 C   0  0  0  0  0  3  0  0  0  0  0  0
   39.3700   31.3770   37.5800 O   0  0  0  0  0  0  0  0  0  0  0  0
   40.2900   28.4130   39.2630 C   0  0  0  0  0  0  0  0  0  0  0  0
   39.1180   27.6390   39.1730 C   0  0  0  0  0  0  0  0  0  0  0  0
   38.0230   28.1490   38.5310 C   0  0  0  0  0  0  0  0  0  0  0  0
   38.1560   29.3860   38.0240 N   0  0  0  0  0  0  0  0  0  0  0  0
   39.2540   30.1120   38.1080 C   0  0  0  0  0  0  0  0  0  0  0  0
   40.3230   29.6260   38.7290 N   0  0  0  0  0  0  0  0  0  0  0  0
   41.1480   28.0070   39.7690 H   0  0  0  0  0  0  0  0  0  0  0  0
   39.1630   26.6640   39.6270 H   0  0  0  0  0  0  0  0  0  0  0  0
   36.7590   27.4200   38.3500 C   0  0  0  0  0  0  0  0  0  0  0  0
   36.8570   26.4500   38.8980 H   0  0  0  0  0  0  0  0  0  0  0  0
   36.5960   27.1490   37.2870 H   0  0  0  0  0  0  0  0  0  0  0  0
   35.5800   28.1630   38.9060 C   0  0  0  0  0  0  0  0  0  0  0  0
   36.0250   29.1350   39.2990 H   0  0  0  0  0  0  0  0  0  0  0  0
   35.1140   27.7150   39.7690 H   0  0  0  0  0  0  0  0  0  0  0  0
   34.6160   28.5790   37.8870 C   0  0  0  0  0  3  0  0  0  0  0  0
   33.3460   28.9380   37.7430 C   0  0  0  0  0  3  0  0  0  0  0  0
   32.6260   29.2130   36.4340 C   0  0  0  0  0  0  0  0  0  0  0  0
   33.4020   29.1110   35.6480 H   0  0  0  0  0  0  0  0  0  0  0  0
   31.7920   28.4990   36.3350 H   0  0  0  0  0  0  0  0  0  0  0  0
   32.3310   30.2720   36.4840 H   0  0  0  0  0  0  0  0  0  0  0  0
  1  6  1  0  0  0  0
  1 11  1  0  0  0  0
  2  1  2  0  0  0  0
  3  4  2  0  0  0  0
  3  2  1  0  0  0  0
  4  5  1  0  0  0  0
  5  9  1  0  0  0  0
  5  6  2  0  0  0  0
  6 10  1  0  0  0  0
  7  3  1  0  0  0  0
  8  4  1  0  0  0  0
 11 13  2  0  0  0  0
 11 15  1  0  0  0  0
 12 11  2  0  0  0  0
 14 25  1  0  0  0  0
 15 16  1  0  0  0  0
 15 14  2  0  0  0  0
 16 18  2  0  0  0  0
 17 16  1  0  0  0  0
 18 19  1  0  0  0  0
 18 24  1  0  0  0  0
 19 21  1  0  0  0  0
 20 19  1  0  0  0  0
 21 23  2  0  0  0  0
 21 22  1  0  0  0  0
 24 23  1  0  0  0  0
 25 24  2  0  0  0  0
 26  2  1  0  0  0  0
 26 31  1  0  0  0  0
 27 33  1  0  0  0  0
 28 27  1  0  0  0  0
 28 34  1  0  0  0  0
 29 28  2  0  0  0  0
 30 31  2  0  0  0  0
 30 29  1  0  0  0  0
 31 32  1  0  0  0  0
 32 27  2  0  0  0  0
 35 29  1  0  0  0  0
 35 36  1  0  0  0  0
 35 38  1  0  0  0  0
 37 35  1  0  0  0  0
 38 39  1  0  0  0  0
 38 40  1  0  0  0  0
 41 38  1  0  0  0  0
 42 41  2  0  0  0  0
 43 46  1  0  0  0  0
 43 42  1  0  0  0  0
 44 43  1  0  0  0  0
 45 43  1  0  0  0  0
M  END
>  <minimizedAffinity>
-6.0474267

$$$$

 OpenBabel03242517583D

 46 49  0  0  0  0  0  0  0  0999 V2000
   39.6740   32.3700   40.1680 C   0  0  0  0  0  0  0  0  0  0  0  0
   39.0150   31.1920   40.0800 C   0  0  0  0  0  0  0  0  0  0  0  0
   37.6650   31.2150   39.7860 C   0  0  0  0  0  0  0  0  0  0  0  0
   36.9690   32.3820   39.5810 C   0  0  0  0  0  0  0  0  0  0  0  0
   37.6490   33.5760   39.6710 C   0  0  0  0  0  0  0  0  0  0  0  0
   39.0050   33.5590   39.9660 C   0  0  0  0  0  0  0  0  0  0  0  0
   37.0650   30.3200   39.6980 H   0  0  0  0  0  0  0  0  0  0  0  0
   35.9090   32.3980   39.3510 H   0  0  0  0  0  0  0  0  0  0  0  0
   37.2060   34.5450   39.5310 H   0  0  0  0  0  0  0  0  0  0  0  0
   39.6170   34.4690   40.0560 H   0  0  0  0  0  0  0  0  0  0  0  0
   41.3490   32.2760   40.6450 S   0  0  0  0  0  0  0  0  0  0  0  0
   41.5860   31.5420   41.8990 O   0  0  0  0  0  0  0  0  0  0  0  0
   41.7620   33.7340   40.9600 O   0  0  0  0  0  0  0  0  0  0  0  0
   43.7290   32.2980   39.1880 C   0  0  0  0  0  3  0  0  0  0  0  0
   42.4150   31.9020   39.3110 C   0  0  0  0  0  0  0  0  0  0  0  0
   41.9700   31.1280   38.2330 C   0  0  0  0  0  0  0  0  0  0  0  0
   40.9220   30.7930   38.2950 H   0  0  0  0  0  0  0  0  0  0  0  0
   42.7000   30.7540   37.1260 C   0  0  0  0  0  0  0  0  0  0  0  0
   42.3490   30.0230   36.0610 N   0  0  0  0  0  0  0  0  0  0  0  0
   41.4390   29.5710   35.8340 H   0  0  0  0  0  0  0  0  0  0  0  0
   43.4680   29.9830   35.2970 C   0  0  0  0  0  0  0  0  0  0  0  0
   43.5640   29.4780   34.3530 H   0  0  0  0  0  0  0  0  0  0  0  0
   44.5040   30.6880   35.8900 C   0  0  0  0  0  3  0  0  0  0  0  0
   44.0040   31.1870   37.0750 C   0  0  0  0  0  0  0  0  0  0  0  0
   44.5050   31.9510   38.1000 C   0  0  0  0  0  3  0  0  0  0  0  0
   39.5350   29.9100   40.2490 O   0  0  0  0  0  0  0  0  0  0  0  0
   38.2470   28.8040   43.3440 C   0  0  0  0  0  0  0  0  0  0  0  0
   38.7610   27.4980   43.4360 C   0  0  0  0  0  0  0  0  0  0  0  0
   39.5470   27.0130   42.4270 C   0  0  0  0  0  0  0  0  0  0  0  0
   39.7730   27.8460   41.3980 N   0  0  0  0  0  0  0  0  0  0  0  0
   39.2910   29.0710   41.3120 C   0  0  0  0  0  0  0  0  0  0  0  0
   38.5260   29.5520   42.2860 N   0  0  0  0  0  0  0  0  0  0  0  0
   37.6290   29.1810   44.1410 H   0  0  0  0  0  0  0  0  0  0  0  0
   38.4950   26.9500   44.3230 H   0  0  0  0  0  0  0  0  0  0  0  0
   40.1620   25.6770   42.4300 C   0  0  0  0  0  0  0  0  0  0  0  0
   41.0070   25.7050   43.1620 H   0  0  0  0  0  0  0  0  0  0  0  0
   40.6240   25.4410   41.4490 H   0  0  0  0  0  0  0  0  0  0  0  0
   39.2040   24.6020   42.8510 C   0  0  0  0  0  0  0  0  0  0  0  0
   38.6120   25.0760   43.7000 H   0  0  0  0  0  0  0  0  0  0  0  0
   39.6530   23.7280   43.2930 H   0  0  0  0  0  0  0  0  0  0  0  0
   38.2030   24.2780   41.8330 C   0  0  0  0  0  3  0  0  0  0  0  0
   36.9080   24.4030   41.5730 C   0  0  0  0  0  3  0  0  0  0  0  0
   36.1600   23.8100   40.3910 C   0  0  0  0  0  0  0  0  0  0  0  0
   36.9370   23.3150   39.7740 H   0  0  0  0  0  0  0  0  0  0  0  0
   35.3870   23.1230   40.7730 H   0  0  0  0  0  0  0  0  0  0  0  0
   35.7790   24.6760   39.8280 H   0  0  0  0  0  0  0  0  0  0  0  0
  1 11  1  0  0  0  0
  2  1  1  0  0  0  0
  2 26  1  0  0  0  0
  3  2  2  0  0  0  0
  4  5  2  0  0  0  0
  4  3  1  0  0  0  0
  5  6  1  0  0  0  0
  6 10  1  0  0  0  0
  6  1  2  0  0  0  0
  7  3  1  0  0  0  0
  8  4  1  0  0  0  0
  9  5  1  0  0  0  0
 11 13  2  0  0  0  0
 11 12  2  0  0  0  0
 14 15  1  0  0  0  0
 15 11  1  0  0  0  0
 16 17  1  0  0  0  0
 16 15  2  0  0  0  0
 18 16  1  0  0  0  0
 19 18  1  0  0  0  0
 20 19  1  0  0  0  0
 21 23  2  0  0  0  0
 21 19  1  0  0  0  0
 22 21  1  0  0  0  0
 23 24  1  0  0  0  0
 24 18  2  0  0  0  0
 24 25  1  0  0  0  0
 25 14  2  0  0  0  0
 26 31  1  0  0  0  0
 27 28  1  0  0  0  0
 27 33  1  0  0  0  0
 28 34  1  0  0  0  0
 29 35  1  0  0  0  0
 29 28  2  0  0  0  0
 30 29  1  0  0  0  0
 31 30  2  0  0  0  0
 31 32  1  0  0  0  0
 32 27  2  0  0  0  0
 35 38  1  0  0  0  0
 35 36  1  0  0  0  0
 37 35  1  0  0  0  0
 38 40  1  0  0  0  0
 38 39  1  0  0  0  0
 41 38  1  0  0  0  0
 42 41  2  0  0  0  0
 43 45  1  0  0  0  0
 43 42  1  0  0  0  0
 44 43  1  0  0  0  0
 46 43  1  0  0  0  0
M  END
>  <minimizedAffinity>
-6.03851604

$$$$

 OpenBabel03242517583D

 46 49  0  0  0  0  0  0  0  0999 V2000
   36.5460   30.0420   38.2040 C   0  0  0  0  0  0  0  0  0  0  0  0
   35.8250   29.4260   39.1680 C   0  0  0  0  0  0  0  0  0  0  0  0
   34.8930   28.4800   38.7880 C   0  0  0  0  0  0  0  0  0  0  0  0
   34.6710   28.1410   37.4750 C   0  0  0  0  0  0  0  0  0  0  0  0
   35.4120   28.7720   36.5010 C   0  0  0  0  0  0  0  0  0  0  0  0
   36.3490   29.7230   36.8760 C   0  0  0  0  0  0  0  0  0  0  0  0
   34.2760   27.9430   39.4950 H   0  0  0  0  0  0  0  0  0  0  0  0
   33.9390   27.3980   37.1790 H   0  0  0  0  0  0  0  0  0  0  0  0
   35.3200   28.5860   35.4460 H   0  0  0  0  0  0  0  0  0  0  0  0
   36.9780   30.2710   36.1580 H   0  0  0  0  0  0  0  0  0  0  0  0
   37.6280   31.3000   38.7420 S   0  0  0  0  0  0  0  0  0  0  0  0
   36.9550   32.5050   39.2550 O   0  0  0  0  0  0  0  0  0  0  0  0
   38.3640   31.7740   37.4660 O   0  0  0  0  0  0  0  0  0  0  0  0
   39.6120   29.4900   39.5010 C   0  0  0  0  0  3  0  0  0  0  0  0
   38.9610   30.6890   39.6940 C   0  0  0  0  0  0  0  0  0  0  0  0
   39.4780   31.4300   40.7630 C   0  0  0  0  0  0  0  0  0  0  0  0
   38.9820   32.3960   40.9490 H   0  0  0  0  0  0  0  0  0  0  0  0
   40.5230   31.0750   41.5870 C   0  0  0  0  0  0  0  0  0  0  0  0
   41.0710   31.7220   42.6230 N   0  0  0  0  0  0  0  0  0  0  0  0
   40.8260   32.6450   43.0360 H   0  0  0  0  0  0  0  0  0  0  0  0
   42.0590   30.8980   43.0500 C   0  0  0  0  0  0  0  0  0  0  0  0
   42.7220   31.0890   43.8740 H   0  0  0  0  0  0  0  0  0  0  0  0
   42.1190   29.7470   42.2790 C   0  0  0  0  0  3  0  0  0  0  0  0
   41.1220   29.8640   41.3320 C   0  0  0  0  0  0  0  0  0  0  0  0
   40.6640   29.0850   40.2980 C   0  0  0  0  0  3  0  0  0  0  0  0
   35.9010   29.6240   40.5460 O   0  0  0  0  0  0  0  0  0  0  0  0
   37.9340   28.9970   43.3620 C   0  0  0  0  0  0  0  0  0  0  0  0
   38.2780   27.6430   43.1910 C   0  0  0  0  0  0  0  0  0  0  0  0
   37.8040   26.9610   42.1030 C   0  0  0  0  0  0  0  0  0  0  0  0
   37.0240   27.6590   41.2610 N   0  0  0  0  0  0  0  0  0  0  0  0
   36.7010   28.9280   41.4210 C   0  0  0  0  0  0  0  0  0  0  0  0
   37.1560   29.5990   42.4740 N   0  0  0  0  0  0  0  0  0  0  0  0
   38.3100   29.5280   44.2190 H   0  0  0  0  0  0  0  0  0  0  0  0
   38.9140   27.2200   43.9490 H   0  0  0  0  0  0  0  0  0  0  0  0
   38.1220   25.5570   41.8070 C   0  0  0  0  0  0  0  0  0  0  0  0
   38.9260   25.2450   42.5190 H   0  0  0  0  0  0  0  0  0  0  0  0
   38.5590   25.4460   40.7940 H   0  0  0  0  0  0  0  0  0  0  0  0
   36.9440   24.6470   41.9910 C   0  0  0  0  0  0  0  0  0  0  0  0
   36.0790   25.3550   42.2080 H   0  0  0  0  0  0  0  0  0  0  0  0
   36.9850   24.0030   42.8540 H   0  0  0  0  0  0  0  0  0  0  0  0
   36.5520   23.9420   40.7700 C   0  0  0  0  0  3  0  0  0  0  0  0
   35.8660   24.1120   39.6470 C   0  0  0  0  0  3  0  0  0  0  0  0
   35.5680   23.0540   38.5980 C   0  0  0  0  0  0  0  0  0  0  0  0
   36.0970   22.1440   38.9450 H   0  0  0  0  0  0  0  0  0  0  0  0
   34.4740   22.9340   38.5210 H   0  0  0  0  0  0  0  0  0  0  0  0
   36.0650   23.4080   37.6820 H   0  0  0  0  0  0  0  0  0  0  0  0
  1 11  1  0  0  0  0
  1  2  1  0  0  0  0
  2 26  1  0  0  0  0
  3  2  2  0  0  0  0
  3  7  1  0  0  0  0
  4  3  1  0  0  0  0
  5  6  1  0  0  0  0
  5  4  2  0  0  0  0
  6  1  2  0  0  0  0
  8  4  1  0  0  0  0
  9  5  1  0  0  0  0
 10  6  1  0  0  0  0
 11 12  2  0  0  0  0
 11 15  1  0  0  0  0
 13 11  2  0  0  0  0
 14 15  2  0  0  0  0
 14 25  1  0  0  0  0
 15 16  1  0  0  0  0
 16 17  1  0  0  0  0
 16 18  2  0  0  0  0
 18 19  1  0  0  0  0
 19 20  1  0  0  0  0
 19 21  1  0  0  0  0
 21 22  1  0  0  0  0
 23 21  2  0  0  0  0
 24 18  1  0  0  0  0
 24 23  1  0  0  0  0
 25 24  2  0  0  0  0
 26 31  1  0  0  0  0
 27 33  1  0  0  0  0
 28 27  1  0  0  0  0
 28 34  1  0  0  0  0
 29 28  2  0  0  0  0
 30 31  2  0  0  0  0
 30 29  1  0  0  0  0
 31 32  1  0  0  0  0
 32 27  2  0  0  0  0
 35 38  1  0  0  0  0
 35 29  1  0  0  0  0
 35 36  1  0  0  0  0
 37 35  1  0  0  0  0
 38 39  1  0  0  0  0
 38 40  1  0  0  0  0
 41 38  1  0  0  0  0
 42 41  2  0  0  0  0
 43 44  1  0  0  0  0
 43 42  1  0  0  0  0
 45 43  1  0  0  0  0
 46 43  1  0  0  0  0
M  END
>  <minimizedAffinity>
-5.88133001

$$$$

 OpenBabel03242517583D

 46 49  0  0  0  0  0  0  0  0999 V2000
   37.7990   26.3530   41.3310 C   0  0  0  0  0  0  0  0  0  0  0  0
   36.8930   26.4400   40.3300 C   0  0  0  0  0  0  0  0  0  0  0  0
   36.7550   25.3640   39.4740 C   0  0  0  0  0  0  0  0  0  0  0  0
   37.4990   24.2160   39.5980 C   0  0  0  0  0  0  0  0  0  0  0  0
   38.4170   24.1370   40.6200 C   0  0  0  0  0  0  0  0  0  0  0  0
   38.5600   25.2130   41.4840 C   0  0  0  0  0  0  0  0  0  0  0  0
   36.0560   25.3530   38.6490 H   0  0  0  0  0  0  0  0  0  0  0  0
   37.3890   23.3730   38.9240 H   0  0  0  0  0  0  0  0  0  0  0  0
   39.0500   23.2890   40.8090 H   0  0  0  0  0  0  0  0  0  0  0  0
   39.2720   25.2270   42.3230 H   0  0  0  0  0  0  0  0  0  0  0  0
   37.9980   27.7830   42.3100 S   0  0  0  0  0  0  0  0  0  0  0  0
   38.7960   27.5810   43.5300 O   0  0  0  0  0  0  0  0  0  0  0  0
   36.5770   28.1240   42.8210 O   0  0  0  0  0  0  0  0  0  0  0  0
   39.4970   29.4020   40.6000 C   0  0  0  0  0  3  0  0  0  0  0  0
   38.3670   29.2070   41.3640 C   0  0  0  0  0  0  0  0  0  0  0  0
   37.4810   30.2900   41.3230 C   0  0  0  0  0  0  0  0  0  0  0  0
   36.5640   30.1710   41.9230 H   0  0  0  0  0  0  0  0  0  0  0  0
   37.6400   31.4630   40.6190 C   0  0  0  0  0  0  0  0  0  0  0  0
   36.8470   32.5360   40.5290 N   0  0  0  0  0  0  0  0  0  0  0  0
   35.9240   32.7220   40.9750 H   0  0  0  0  0  0  0  0  0  0  0  0
   37.5120   33.3780   39.7000 C   0  0  0  0  0  0  0  0  0  0  0  0
   37.1740   34.3520   39.3930 H   0  0  0  0  0  0  0  0  0  0  0  0
   38.7110   32.8240   39.2820 C   0  0  0  0  0  3  0  0  0  0  0  0
   38.7930   31.5830   39.8790 C   0  0  0  0  0  0  0  0  0  0  0  0
   39.7070   30.5580   39.8750 C   0  0  0  0  0  3  0  0  0  0  0  0
   36.0460   27.5080   40.0380 O   0  0  0  0  0  0  0  0  0  0  0  0
   36.7320   29.2010   37.0170 C   0  0  0  0  0  0  0  0  0  0  0  0
   35.4930   29.1460   36.3530 C   0  0  0  0  0  0  0  0  0  0  0  0
   34.4330   28.5250   36.9550 C   0  0  0  0  0  0  0  0  0  0  0  0
   34.6670   28.0000   38.1700 N   0  0  0  0  0  0  0  0  0  0  0  0
   35.8280   28.0510   38.7930 C   0  0  0  0  0  0  0  0  0  0  0  0
   36.8630   28.6520   38.2170 N   0  0  0  0  0  0  0  0  0  0  0  0
   37.5620   29.6910   36.5390 H   0  0  0  0  0  0  0  0  0  0  0  0
   35.4590   29.6140   35.3840 H   0  0  0  0  0  0  0  0  0  0  0  0
   33.0880   28.4340   36.3690 C   0  0  0  0  0  0  0  0  0  0  0  0
   32.7020   27.4080   36.5890 H   0  0  0  0  0  0  0  0  0  0  0  0
   33.1220   28.5110   35.2630 H   0  0  0  0  0  0  0  0  0  0  0  0
   32.1350   29.4350   36.9530 C   0  0  0  0  0  0  0  0  0  0  0  0
   32.8020   30.1250   37.5680 H   0  0  0  0  0  0  0  0  0  0  0  0
   31.4280   29.0430   37.6650 H   0  0  0  0  0  0  0  0  0  0  0  0
   31.5160   30.3070   35.9540 C   0  0  0  0  0  3  0  0  0  0  0  0
   31.6890   30.7560   34.7170 C   0  0  0  0  0  3  0  0  0  0  0  0
   30.8440   31.7980   34.0050 C   0  0  0  0  0  0  0  0  0  0  0  0
   30.0290   32.0460   34.7150 H   0  0  0  0  0  0  0  0  0  0  0  0
   31.4870   32.6560   33.7460 H   0  0  0  0  0  0  0  0  0  0  0  0
   30.3990   31.2720   33.1470 H   0  0  0  0  0  0  0  0  0  0  0  0
  1  6  1  0  0  0  0
  1 11  1  0  0  0  0
  2  1  2  0  0  0  0
  3  4  2  0  0  0  0
  3  2  1  0  0  0  0
  4  5  1  0  0  0  0
  5  9  1  0  0  0  0
  5  6  2  0  0  0  0
  6 10  1  0  0  0  0
  7  3  1  0  0  0  0
  8  4  1  0  0  0  0
 11 13  2  0  0  0  0
 11 12  2  0  0  0  0
 14 15  1  0  0  0  0
 15 11  1  0  0  0  0
 16 15  2  0  0  0  0
 16 17  1  0  0  0  0
 18 16  1  0  0  0  0
 19 18  1  0  0  0  0
 19 20  1  0  0  0  0
 21 19  1  0  0  0  0
 22 21  1  0  0  0  0
 23 21  2  0  0  0  0
 23 24  1  0  0  0  0
 24 18  2  0  0  0  0
 25 24  1  0  0  0  0
 25 14  2  0  0  0  0
 26  2  1  0  0  0  0
 27 32  1  0  0  0  0
 28 29  1  0  0  0  0
 28 27  2  0  0  0  0
 29 30  2  0  0  0  0
 30 31  1  0  0  0  0
 31 26  1  0  0  0  0
 32 31  2  0  0  0  0
 33 27  1  0  0  0  0
 34 28  1  0  0  0  0
 35 36  1  0  0  0  0
 35 38  1  0  0  0  0
 35 29  1  0  0  0  0
 37 35  1  0  0  0  0
 38 39  1  0  0  0  0
 38 40  1  0  0  0  0
 41 38  1  0  0  0  0
 42 41  2  0  0  0  0
 43 44  1  0  0  0  0
 43 42  1  0  0  0  0
 45 43  1  0  0  0  0
 46 43  1  0  0  0  0
M  END
>  <minimizedAffinity>
-5.86181641

$$$$

 OpenBabel03242517583D

 46 49  0  0  0  0  0  0  0  0999 V2000
   37.2330   30.4830   38.7560 C   0  0  0  0  0  0  0  0  0  0  0  0
   36.2750   29.7500   39.3680 C   0  0  0  0  0  0  0  0  0  0  0  0
   35.4720   28.9390   38.5880 C   0  0  0  0  0  0  0  0  0  0  0  0
   35.6080   28.8480   37.2240 C   0  0  0  0  0  0  0  0  0  0  0  0
   36.5880   29.5970   36.6120 C   0  0  0  0  0  0  0  0  0  0  0  0
   37.3970   30.4140   37.3880 C   0  0  0  0  0  0  0  0  0  0  0  0
   34.6840   28.3220   38.9970 H   0  0  0  0  0  0  0  0  0  0  0  0
   34.9770   28.2110   36.6150 H   0  0  0  0  0  0  0  0  0  0  0  0
   36.7810   29.6040   35.5550 H   0  0  0  0  0  0  0  0  0  0  0  0
   38.2000   31.0430   36.9740 H   0  0  0  0  0  0  0  0  0  0  0  0
   38.1400   31.5650   39.7810 S   0  0  0  0  0  0  0  0  0  0  0  0
   37.3150   32.5030   40.5610 O   0  0  0  0  0  0  0  0  0  0  0  0
   38.9450   32.4630   38.8100 O   0  0  0  0  0  0  0  0  0  0  0  0
   39.8260   29.4520   40.4760 C   0  0  0  0  0  3  0  0  0  0  0  0
   39.4300   30.7610   40.6450 C   0  0  0  0  0  0  0  0  0  0  0  0
   40.1820   31.4430   41.6080 C   0  0  0  0  0  0  0  0  0  0  0  0
   39.8950   32.4940   41.7720 H   0  0  0  0  0  0  0  0  0  0  0  0
   41.2250   30.9380   42.3540 C   0  0  0  0  0  0  0  0  0  0  0  0
   41.9860   31.5210   43.2870 N   0  0  0  0  0  0  0  0  0  0  0  0
   41.9600   32.4930   43.6570 H   0  0  0  0  0  0  0  0  0  0  0  0
   42.8460   30.5470   43.6760 C   0  0  0  0  0  0  0  0  0  0  0  0
   43.6140   30.6500   44.4210 H   0  0  0  0  0  0  0  0  0  0  0  0
   42.6120   29.3690   42.9850 C   0  0  0  0  0  3  0  0  0  0  0  0
   41.5610   29.6240   42.1290 C   0  0  0  0  0  0  0  0  0  0  0  0
   40.8630   28.8960   41.1970 C   0  0  0  0  0  3  0  0  0  0  0  0
   35.9800   29.6990   40.7280 O   0  0  0  0  0  0  0  0  0  0  0  0
   37.6730   28.7580   43.6800 C   0  0  0  0  0  0  0  0  0  0  0  0
   37.7820   27.3630   43.5330 C   0  0  0  0  0  0  0  0  0  0  0  0
   37.2690   26.7620   42.4160 C   0  0  0  0  0  0  0  0  0  0  0  0
   36.6840   27.5760   41.5210 N   0  0  0  0  0  0  0  0  0  0  0  0
   36.5820   28.8840   41.6580 C   0  0  0  0  0  0  0  0  0  0  0  0
   37.0760   29.4770   42.7390 N   0  0  0  0  0  0  0  0  0  0  0  0
   38.0780   29.2260   44.5600 H   0  0  0  0  0  0  0  0  0  0  0  0
   38.2790   26.8440   44.3340 H   0  0  0  0  0  0  0  0  0  0  0  0
   37.3520   25.3200   42.1440 C   0  0  0  0  0  0  0  0  0  0  0  0
   36.3490   24.9980   41.7690 H   0  0  0  0  0  0  0  0  0  0  0  0
   37.5250   24.7410   43.0740 H   0  0  0  0  0  0  0  0  0  0  0  0
   38.3780   24.9870   41.1010 C   0  0  0  0  0  0  0  0  0  0  0  0
   38.2540   25.8070   40.3200 H   0  0  0  0  0  0  0  0  0  0  0  0
   38.2080   24.0730   40.5580 H   0  0  0  0  0  0  0  0  0  0  0  0
   39.7570   25.1260   41.5710 C   0  0  0  0  0  3  0  0  0  0  0  0
   40.4990   25.0070   42.6650 C   0  0  0  0  0  3  0  0  0  0  0  0
   41.9700   25.3600   42.8040 C   0  0  0  0  0  0  0  0  0  0  0  0
   42.2920   25.6690   41.7900 H   0  0  0  0  0  0  0  0  0  0  0  0
   42.0720   26.1490   43.5670 H   0  0  0  0  0  0  0  0  0  0  0  0
   42.4720   24.4100   43.0450 H   0  0  0  0  0  0  0  0  0  0  0  0
  1  2  1  0  0  0  0
  1 11  1  0  0  0  0
  2 26  1  0  0  0  0
  3  7  1  0  0  0  0
  3  2  2  0  0  0  0
  4  3  1  0  0  0  0
  5  4  2  0  0  0  0
  5  6  1  0  0  0  0
  6  1  2  0  0  0  0
  8  4  1  0  0  0  0
  9  5  1  0  0  0  0
 10  6  1  0  0  0  0
 11 12  2  0  0  0  0
 11 15  1  0  0  0  0
 13 11  2  0  0  0  0
 14 15  2  0  0  0  0
 14 25  1  0  0  0  0
 15 16  1  0  0  0  0
 16 17  1  0  0  0  0
 16 18  2  0  0  0  0
 18 19  1  0  0  0  0
 19 20  1  0  0  0  0
 19 21  1  0  0  0  0
 21 22  1  0  0  0  0
 23 21  2  0  0  0  0
 24 18  1  0  0  0  0
 24 23  1  0  0  0  0
 25 24  2  0  0  0  0
 26 31  1  0  0  0  0
 27 33  1  0  0  0  0
 28 27  1  0  0  0  0
 28 34  1  0  0  0  0
 29 28  2  0  0  0  0
 30 31  2  0  0  0  0
 30 29  1  0  0  0  0
 31 32  1  0  0  0  0
 32 27  2  0  0  0  0
 35 29  1  0  0  0  0
 35 37  1  0  0  0  0
 36 35  1  0  0  0  0
 38 41  1  0  0  0  0
 38 35  1  0  0  0  0
 39 38  1  0  0  0  0
 40 38  1  0  0  0  0
 41 42  2  0  0  0  0
 42 43  1  0  0  0  0
 43 46  1  0  0  0  0
 43 45  1  0  0  0  0
 44 43  1  0  0  0  0
M  END
>  <minimizedAffinity>
-5.85619593

$$$$

 OpenBabel03242517583D

 46 49  0  0  0  0  0  0  0  0999 V2000
   36.1340   28.5180   37.2750 C   0  0  0  0  0  0  0  0  0  0  0  0
   37.0240   27.7530   37.9480 C   0  0  0  0  0  0  0  0  0  0  0  0
   38.2290   28.3200   38.3180 C   0  0  0  0  0  0  0  0  0  0  0  0
   38.5570   29.6230   38.0320 C   0  0  0  0  0  0  0  0  0  0  0  0
   37.6430   30.3930   37.3480 C   0  0  0  0  0  0  0  0  0  0  0  0
   36.4320   29.8310   36.9730 C   0  0  0  0  0  0  0  0  0  0  0  0
   38.9940   27.7780   38.8570 H   0  0  0  0  0  0  0  0  0  0  0  0
   39.5030   30.0650   38.3240 H   0  0  0  0  0  0  0  0  0  0  0  0
   37.7950   31.4210   37.0720 H   0  0  0  0  0  0  0  0  0  0  0  0
   35.6520   30.3800   36.4250 H   0  0  0  0  0  0  0  0  0  0  0  0
   34.6800   27.7130   36.7450 S   0  0  0  0  0  0  0  0  0  0  0  0
   34.2670   26.5800   37.5890 O   0  0  0  0  0  0  0  0  0  0  0  0
   35.0450   27.0760   35.3820 O   0  0  0  0  0  0  0  0  0  0  0  0
   33.2490   29.3730   35.0160 C   0  0  0  0  0  3  0  0  0  0  0  0
   33.4210   28.8290   36.2700 C   0  0  0  0  0  0  0  0  0  0  0  0
   32.4550   29.2530   37.1910 C   0  0  0  0  0  0  0  0  0  0  0  0
   32.5590   28.8390   38.2070 H   0  0  0  0  0  0  0  0  0  0  0  0
   31.4090   30.1180   36.9540 C   0  0  0  0  0  0  0  0  0  0  0  0
   30.4520   30.5690   37.7730 N   0  0  0  0  0  0  0  0  0  0  0  0
   30.2850   30.3620   38.7800 H   0  0  0  0  0  0  0  0  0  0  0  0
   29.7030   31.3890   36.9960 C   0  0  0  0  0  0  0  0  0  0  0  0
   28.8350   31.9370   37.3180 H   0  0  0  0  0  0  0  0  0  0  0  0
   30.1980   31.4430   35.7030 C   0  0  0  0  0  3  0  0  0  0  0  0
   31.3040   30.6180   35.6770 C   0  0  0  0  0  0  0  0  0  0  0  0
   32.2190   30.2450   34.7250 C   0  0  0  0  0  3  0  0  0  0  0  0
   36.8830   26.4210   38.3340 O   0  0  0  0  0  0  0  0  0  0  0  0
   36.9980   24.0910   40.9830 C   0  0  0  0  0  0  0  0  0  0  0  0
   36.9610   24.9220   42.1180 C   0  0  0  0  0  0  0  0  0  0  0  0
   36.8970   26.2790   41.9560 C   0  0  0  0  0  0  0  0  0  0  0  0
   36.8740   26.7240   40.6880 N   0  0  0  0  0  0  0  0  0  0  0  0
   36.9080   25.9450   39.6240 C   0  0  0  0  0  0  0  0  0  0  0  0
   36.9710   24.6260   39.7700 N   0  0  0  0  0  0  0  0  0  0  0  0
   37.0490   23.0240   41.1160 H   0  0  0  0  0  0  0  0  0  0  0  0
   36.9840   24.4190   43.0690 H   0  0  0  0  0  0  0  0  0  0  0  0
   36.8230   27.2390   43.0660 C   0  0  0  0  0  0  0  0  0  0  0  0
   36.9280   26.6550   44.0140 H   0  0  0  0  0  0  0  0  0  0  0  0
   35.8250   27.7210   43.1200 H   0  0  0  0  0  0  0  0  0  0  0  0
   37.9170   28.2650   43.0160 C   0  0  0  0  0  0  0  0  0  0  0  0
   38.7290   27.7720   42.3870 H   0  0  0  0  0  0  0  0  0  0  0  0
   38.3990   28.4760   43.9560 H   0  0  0  0  0  0  0  0  0  0  0  0
   37.5540   29.4740   42.2750 C   0  0  0  0  0  3  0  0  0  0  0  0
   36.6020   29.9660   41.4920 C   0  0  0  0  0  3  0  0  0  0  0  0
   36.6200   31.3060   40.7780 C   0  0  0  0  0  0  0  0  0  0  0  0
   37.5590   31.7970   41.1050 H   0  0  0  0  0  0  0  0  0  0  0  0
   36.5630   31.1270   39.6920 H   0  0  0  0  0  0  0  0  0  0  0  0
   35.7760   31.8710   41.2040 H   0  0  0  0  0  0  0  0  0  0  0  0
  1  2  1  0  0  0  0
  2  3  2  0  0  0  0
  2 26  1  0  0  0  0
  3  7  1  0  0  0  0
  4  3  1  0  0  0  0
  4  8  1  0  0  0  0
  5  4  2  0  0  0  0
  6  1  2  0  0  0  0
  6  5  1  0  0  0  0
  9  5  1  0  0  0  0
 10  6  1  0  0  0  0
 11  1  1  0  0  0  0
 11 12  2  0  0  0  0
 13 11  2  0  0  0  0
 14 15  1  0  0  0  0
 15 11  1  0  0  0  0
 15 16  2  0  0  0  0
 16 17  1  0  0  0  0
 18 16  1  0  0  0  0
 18 19  1  0  0  0  0
 19 20  1  0  0  0  0
 21 22  1  0  0  0  0
 21 19  1  0  0  0  0
 23 21  2  0  0  0  0
 24 23  1  0  0  0  0
 24 18  2  0  0  0  0
 25 14  2  0  0  0  0
 25 24  1  0  0  0  0
 26 31  1  0  0  0  0
 27 33  1  0  0  0  0
 27 28  1  0  0  0  0
 28 34  1  0  0  0  0
 29 28  2  0  0  0  0
 29 35  1  0  0  0  0
 30 29  1  0  0  0  0
 31 32  1  0  0  0  0
 31 30  2  0  0  0  0
 32 27  2  0  0  0  0
 35 37  1  0  0  0  0
 35 36  1  0  0  0  0
 38 35  1  0  0  0  0
 38 40  1  0  0  0  0
 39 38  1  0  0  0  0
 41 38  1  0  0  0  0
 42 41  2  0  0  0  0
 43 44  1  0  0  0  0
 43 46  1  0  0  0  0
 43 42  1  0  0  0  0
 45 43  1  0  0  0  0
M  END
>  <minimizedAffinity>
-5.75671339

$$$$

 OpenBabel03242517583D

 46 49  0  0  0  0  0  0  0  0999 V2000
   38.0190   29.4180   41.8940 C   0  0  0  0  0  0  0  0  0  0  0  0
   37.1310   30.0260   41.0740 C   0  0  0  0  0  0  0  0  0  0  0  0
   37.3950   31.3200   40.6650 C   0  0  0  0  0  0  0  0  0  0  0  0
   38.5180   32.0090   41.0560 C   0  0  0  0  0  0  0  0  0  0  0  0
   39.4150   31.3800   41.8900 C   0  0  0  0  0  0  0  0  0  0  0  0
   39.1560   30.0820   42.3040 C   0  0  0  0  0  0  0  0  0  0  0  0
   36.7380   31.8760   40.0110 H   0  0  0  0  0  0  0  0  0  0  0  0
   38.7220   33.0240   40.7340 H   0  0  0  0  0  0  0  0  0  0  0  0
   40.3220   31.8240   42.2580 H   0  0  0  0  0  0  0  0  0  0  0  0
   39.8230   29.5130   42.9700 H   0  0  0  0  0  0  0  0  0  0  0  0
   37.5740   27.8280   42.4580 S   0  0  0  0  0  0  0  0  0  0  0  0
   36.2040   27.7290   42.9860 O   0  0  0  0  0  0  0  0  0  0  0  0
   38.4870   27.5630   43.6800 O   0  0  0  0  0  0  0  0  0  0  0  0
   38.8180   26.7210   40.2180 C   0  0  0  0  0  3  0  0  0  0  0  0
   38.0840   26.5560   41.3720 C   0  0  0  0  0  0  0  0  0  0  0  0
   37.7630   25.2190   41.6340 C   0  0  0  0  0  0  0  0  0  0  0  0
   37.1760   25.0460   42.5500 H   0  0  0  0  0  0  0  0  0  0  0  0
   38.1040   24.1220   40.8740 C   0  0  0  0  0  0  0  0  0  0  0  0
   37.8360   22.8230   41.0540 N   0  0  0  0  0  0  0  0  0  0  0  0
   37.3080   22.3520   41.8170 H   0  0  0  0  0  0  0  0  0  0  0  0
   38.4190   22.2090   39.9950 C   0  0  0  0  0  0  0  0  0  0  0  0
   38.4120   21.1520   39.8020 H   0  0  0  0  0  0  0  0  0  0  0  0
   39.0430   23.1270   39.1660 C   0  0  0  0  0  3  0  0  0  0  0  0
   38.8370   24.3670   39.7370 C   0  0  0  0  0  0  0  0  0  0  0  0
   39.1860   25.6560   39.4190 C   0  0  0  0  0  3  0  0  0  0  0  0
   35.9440   29.5030   40.5650 O   0  0  0  0  0  0  0  0  0  0  0  0
   36.6340   28.6950   37.1980 C   0  0  0  0  0  0  0  0  0  0  0  0
   35.3490   28.4550   36.6760 C   0  0  0  0  0  0  0  0  0  0  0  0
   34.2580   28.5750   37.4930 C   0  0  0  0  0  0  0  0  0  0  0  0
   34.5070   28.9220   38.7670 N   0  0  0  0  0  0  0  0  0  0  0  0
   35.7110   29.1470   39.2570 C   0  0  0  0  0  0  0  0  0  0  0  0
   36.7770   29.0330   38.4720 N   0  0  0  0  0  0  0  0  0  0  0  0
   37.4880   28.5990   36.5510 H   0  0  0  0  0  0  0  0  0  0  0  0
   35.3080   28.1870   35.6350 H   0  0  0  0  0  0  0  0  0  0  0  0
   32.8700   28.3790   37.0500 C   0  0  0  0  0  0  0  0  0  0  0  0
   32.2460   28.2550   37.9700 H   0  0  0  0  0  0  0  0  0  0  0  0
   32.7570   27.4330   36.4810 H   0  0  0  0  0  0  0  0  0  0  0  0
   32.3420   29.5470   36.2710 C   0  0  0  0  0  0  0  0  0  0  0  0
   31.8520   29.0710   35.3590 H   0  0  0  0  0  0  0  0  0  0  0  0
   33.0880   30.2060   35.8590 H   0  0  0  0  0  0  0  0  0  0  0  0
   31.2590   30.2610   36.9480 C   0  0  0  0  0  3  0  0  0  0  0  0
   30.5130   30.2190   38.0450 C   0  0  0  0  0  3  0  0  0  0  0  0
   29.3400   31.1250   38.3770 C   0  0  0  0  0  0  0  0  0  0  0  0
   29.2900   31.8540   37.5440 H   0  0  0  0  0  0  0  0  0  0  0  0
   28.4350   30.5040   38.4830 H   0  0  0  0  0  0  0  0  0  0  0  0
   29.6430   31.6680   39.2860 H   0  0  0  0  0  0  0  0  0  0  0  0
  1  6  1  0  0  0  0
  1 11  1  0  0  0  0
  2  1  2  0  0  0  0
  3  4  2  0  0  0  0
  3  2  1  0  0  0  0
  4  5  1  0  0  0  0
  5  9  1  0  0  0  0
  5  6  2  0  0  0  0
  6 10  1  0  0  0  0
  7  3  1  0  0  0  0
  8  4  1  0  0  0  0
 11 12  2  0  0  0  0
 11 13  2  0  0  0  0
 14 15  1  0  0  0  0
 15 16  2  0  0  0  0
 15 11  1  0  0  0  0
 16 17  1  0  0  0  0
 18 19  1  0  0  0  0
 18 16  1  0  0  0  0
 19 20  1  0  0  0  0
 21 19  1  0  0  0  0
 22 21  1  0  0  0  0
 23 24  1  0  0  0  0
 23 21  2  0  0  0  0
 24 18  2  0  0  0  0
 25 24  1  0  0  0  0
 25 14  2  0  0  0  0
 26  2  1  0  0  0  0
 27 32  1  0  0  0  0
 28 27  2  0  0  0  0
 28 29  1  0  0  0  0
 29 30  2  0  0  0  0
 30 31  1  0  0  0  0
 31 26  1  0  0  0  0
 32 31  2  0  0  0  0
 33 27  1  0  0  0  0
 34 28  1  0  0  0  0
 35 29  1  0  0  0  0
 35 36  1  0  0  0  0
 37 35  1  0  0  0  0
 38 41  1  0  0  0  0
 38 35  1  0  0  0  0
 39 38  1  0  0  0  0
 40 38  1  0  0  0  0
 41 42  2  0  0  0  0
 42 43  1  0  0  0  0
 43 45  1  0  0  0  0
 43 46  1  0  0  0  0
 44 43  1  0  0  0  0
M  END
>  <minimizedAffinity>
-5.67871761

$$$$

 OpenBabel03242517583D

 46 49  0  0  0  0  0  0  0  0999 V2000
   38.8470   28.5630   42.3060 C   0  0  0  0  0  0  0  0  0  0  0  0
   39.1140   29.7930   41.8140 C   0  0  0  0  0  0  0  0  0  0  0  0
   40.4060   30.2750   41.9170 C   0  0  0  0  0  0  0  0  0  0  0  0
   41.4230   29.5570   42.4970 C   0  0  0  0  0  0  0  0  0  0  0  0
   41.1410   28.3040   42.9940 C   0  0  0  0  0  0  0  0  0  0  0  0
   39.8460   27.8150   42.8940 C   0  0  0  0  0  0  0  0  0  0  0  0
   40.7030   31.2480   41.5500 H   0  0  0  0  0  0  0  0  0  0  0  0
   42.4360   29.9380   42.5760 H   0  0  0  0  0  0  0  0  0  0  0  0
   41.8570   27.6580   43.4670 H   0  0  0  0  0  0  0  0  0  0  0  0
   39.5420   26.8250   43.2670 H   0  0  0  0  0  0  0  0  0  0  0  0
   37.1780   28.0580   42.2410 S   0  0  0  0  0  0  0  0  0  0  0  0
   36.2240   29.1430   41.9580 O   0  0  0  0  0  0  0  0  0  0  0  0
   36.8380   27.6000   43.6800 O   0  0  0  0  0  0  0  0  0  0  0  0
   36.9560   25.3000   41.8800 C   0  0  0  0  0  3  0  0  0  0  0  0
   36.9530   26.5710   41.3500 C   0  0  0  0  0  0  0  0  0  0  0  0
   36.7370   26.5900   39.9660 C   0  0  0  0  0  0  0  0  0  0  0  0
   36.7290   27.5910   39.5050 H   0  0  0  0  0  0  0  0  0  0  0  0
   36.5390   25.5020   39.1450 C   0  0  0  0  0  0  0  0  0  0  0  0
   36.3290   25.4370   37.8250 N   0  0  0  0  0  0  0  0  0  0  0  0
   36.2680   26.2030   37.1220 H   0  0  0  0  0  0  0  0  0  0  0  0
   36.2040   24.1120   37.5690 C   0  0  0  0  0  0  0  0  0  0  0  0
   36.0260   23.6750   36.6030 H   0  0  0  0  0  0  0  0  0  0  0  0
   36.3380   23.3640   38.7270 C   0  0  0  0  0  3  0  0  0  0  0  0
   36.5550   24.2670   39.7480 C   0  0  0  0  0  0  0  0  0  0  0  0
   36.7620   24.1750   41.1030 C   0  0  0  0  0  3  0  0  0  0  0  0
   38.2310   30.6730   41.1910 O   0  0  0  0  0  0  0  0  0  0  0  0
   38.6910   31.9170   37.9200 C   0  0  0  0  0  0  0  0  0  0  0  0
   37.7650   31.1620   37.1760 C   0  0  0  0  0  0  0  0  0  0  0  0
   36.9910   30.2310   37.8140 C   0  0  0  0  0  0  0  0  0  0  0  0
   37.1830   30.1070   39.1380 N   0  0  0  0  0  0  0  0  0  0  0  0
   38.0510   30.8150   39.8350 C   0  0  0  0  0  0  0  0  0  0  0  0
   38.8070   31.7210   39.2260 N   0  0  0  0  0  0  0  0  0  0  0  0
   39.2970   32.6480   37.4130 H   0  0  0  0  0  0  0  0  0  0  0  0
   37.7230   31.3750   36.1230 H   0  0  0  0  0  0  0  0  0  0  0  0
   35.9720   29.4080   37.1460 C   0  0  0  0  0  0  0  0  0  0  0  0
   36.4690   28.4560   36.8360 H   0  0  0  0  0  0  0  0  0  0  0  0
   35.6200   29.8820   36.2060 H   0  0  0  0  0  0  0  0  0  0  0  0
   34.8200   29.0720   38.0460 C   0  0  0  0  0  0  0  0  0  0  0  0
   34.5940   30.0500   38.5840 H   0  0  0  0  0  0  0  0  0  0  0  0
   35.0390   28.3760   38.8390 H   0  0  0  0  0  0  0  0  0  0  0  0
   33.5880   28.7480   37.3250 C   0  0  0  0  0  3  0  0  0  0  0  0
   32.5640   29.3240   36.7070 C   0  0  0  0  0  3  0  0  0  0  0  0
   31.3420   28.6250   36.1370 C   0  0  0  0  0  0  0  0  0  0  0  0
   31.5270   27.5430   36.2930 H   0  0  0  0  0  0  0  0  0  0  0  0
   30.4460   29.0060   36.6540 H   0  0  0  0  0  0  0  0  0  0  0  0
   31.3760   28.8230   35.0550 H   0  0  0  0  0  0  0  0  0  0  0  0
  1  6  1  0  0  0  0
  2  3  1  0  0  0  0
  2  1  2  0  0  0  0
  3  4  2  0  0  0  0
  4  8  1  0  0  0  0
  4  5  1  0  0  0  0
  5  9  1  0  0  0  0
  6  5  2  0  0  0  0
  6 10  1  0  0  0  0
  7  3  1  0  0  0  0
 11  1  1  0  0  0  0
 11 13  2  0  0  0  0
 12 11  2  0  0  0  0
 15 14  1  0  0  0  0
 15 11  1  0  0  0  0
 16 15  2  0  0  0  0
 17 16  1  0  0  0  0
 18 24  2  0  0  0  0
 18 16  1  0  0  0  0
 19 18  1  0  0  0  0
 20 19  1  0  0  0  0
 21 19  1  0  0  0  0
 21 23  2  0  0  0  0
 22 21  1  0  0  0  0
 23 24  1  0  0  0  0
 24 25  1  0  0  0  0
 25 14  2  0  0  0  0
 26  2  1  0  0  0  0
 27 32  1  0  0  0  0
 28 29  1  0  0  0  0
 28 27  2  0  0  0  0
 29 30  2  0  0  0  0
 30 31  1  0  0  0  0
 31 26  1  0  0  0  0
 32 31  2  0  0  0  0
 33 27  1  0  0  0  0
 34 28  1  0  0  0  0
 35 29  1  0  0  0  0
 35 38  1  0  0  0  0
 36 35  1  0  0  0  0
 37 35  1  0  0  0  0
 38 39  1  0  0  0  0
 38 40  1  0  0  0  0
 41 38  1  0  0  0  0
 42 41  2  0  0  0  0
 43 44  1  0  0  0  0
 43 45  1  0  0  0  0
 43 42  1  0  0  0  0
 46 43  1  0  0  0  0
M  END
>  <minimizedAffinity>
-5.67640591

$$$$

 OpenBabel03242517583D

 46 49  0  0  0  0  0  0  0  0999 V2000
   37.8440   25.7990   41.6630 C   0  0  0  0  0  0  0  0  0  0  0  0
   38.9270   25.7250   40.8550 C   0  0  0  0  0  0  0  0  0  0  0  0
   39.0970   24.5880   40.0890 C   0  0  0  0  0  0  0  0  0  0  0  0
   38.2150   23.5350   40.1140 C   0  0  0  0  0  0  0  0  0  0  0  0
   37.1160   23.6210   40.9390 C   0  0  0  0  0  0  0  0  0  0  0  0
   36.9390   24.7600   41.7110 C   0  0  0  0  0  0  0  0  0  0  0  0
   39.9340   24.4490   39.4190 H   0  0  0  0  0  0  0  0  0  0  0  0
   38.3520   22.6430   39.5120 H   0  0  0  0  0  0  0  0  0  0  0  0
   36.3650   22.8580   41.0380 H   0  0  0  0  0  0  0  0  0  0  0  0
   36.0880   24.9030   42.3940 H   0  0  0  0  0  0  0  0  0  0  0  0
   37.7450   27.2120   42.6810 S   0  0  0  0  0  0  0  0  0  0  0  0
   38.8220   27.3220   43.6790 O   0  0  0  0  0  0  0  0  0  0  0  0
   36.4550   27.0190   43.5150 O   0  0  0  0  0  0  0  0  0  0  0  0
   36.2160   28.8830   41.0500 C   0  0  0  0  0  3  0  0  0  0  0  0
   37.3580   28.6650   41.7900 C   0  0  0  0  0  0  0  0  0  0  0  0
   38.2350   29.7570   41.7830 C   0  0  0  0  0  0  0  0  0  0  0  0
   39.1600   29.6210   42.3650 H   0  0  0  0  0  0  0  0  0  0  0  0
   38.0540   30.9590   41.1340 C   0  0  0  0  0  0  0  0  0  0  0  0
   38.8390   32.0410   41.0790 N   0  0  0  0  0  0  0  0  0  0  0  0
   39.7660   32.2160   41.5190 H   0  0  0  0  0  0  0  0  0  0  0  0
   38.1550   32.9130   40.2970 C   0  0  0  0  0  0  0  0  0  0  0  0
   38.4790   33.9010   40.0280 H   0  0  0  0  0  0  0  0  0  0  0  0
   36.9530   32.3680   39.8740 C   0  0  0  0  0  3  0  0  0  0  0  0
   36.8900   31.1010   40.4170 C   0  0  0  0  0  0  0  0  0  0  0  0
   35.9860   30.0680   40.3800 C   0  0  0  0  0  3  0  0  0  0  0  0
   39.9290   26.6780   40.6840 O   0  0  0  0  0  0  0  0  0  0  0  0
   41.6560   28.1720   37.9920 C   0  0  0  0  0  0  0  0  0  0  0  0
   40.6410   28.9080   37.3530 C   0  0  0  0  0  0  0  0  0  0  0  0
   39.3700   28.8810   37.8600 C   0  0  0  0  0  0  0  0  0  0  0  0
   39.1870   28.1300   38.9590 N   0  0  0  0  0  0  0  0  0  0  0  0
   40.1380   27.4400   39.5580 C   0  0  0  0  0  0  0  0  0  0  0  0
   41.3750   27.4600   39.0740 N   0  0  0  0  0  0  0  0  0  0  0  0
   42.6540   28.1970   37.5890 H   0  0  0  0  0  0  0  0  0  0  0  0
   40.9410   29.4640   36.4820 H   0  0  0  0  0  0  0  0  0  0  0  0
   38.2410   29.6330   37.2950 C   0  0  0  0  0  0  0  0  0  0  0  0
   38.6700   30.4070   36.6120 H   0  0  0  0  0  0  0  0  0  0  0  0
   37.6950   30.1960   38.0800 H   0  0  0  0  0  0  0  0  0  0  0  0
   37.3070   28.7650   36.5040 C   0  0  0  0  0  0  0  0  0  0  0  0
   37.7610   27.7240   36.5860 H   0  0  0  0  0  0  0  0  0  0  0  0
   37.2780   28.9600   35.4450 H   0  0  0  0  0  0  0  0  0  0  0  0
   35.9760   28.6410   37.0990 C   0  0  0  0  0  3  0  0  0  0  0  0
   34.7340   29.0900   36.9700 C   0  0  0  0  0  3  0  0  0  0  0  0
   33.5660   28.8010   37.8980 C   0  0  0  0  0  0  0  0  0  0  0  0
   33.9630   28.0940   38.6530 H   0  0  0  0  0  0  0  0  0  0  0  0
   33.2090   29.7550   38.3210 H   0  0  0  0  0  0  0  0  0  0  0  0
   32.8330   28.2620   37.2780 H   0  0  0  0  0  0  0  0  0  0  0  0
  1  6  1  0  0  0  0
  1 11  1  0  0  0  0
  2  1  2  0  0  0  0
  3  4  2  0  0  0  0
  3  2  1  0  0  0  0
  4  5  1  0  0  0  0
  5  9  1  0  0  0  0
  5  6  2  0  0  0  0
  6 10  1  0  0  0  0
  7  3  1  0  0  0  0
  8  4  1  0  0  0  0
 11 13  2  0  0  0  0
 11 12  2  0  0  0  0
 14 15  1  0  0  0  0
 15 11  1  0  0  0  0
 16 15  2  0  0  0  0
 16 17  1  0  0  0  0
 18 16  1  0  0  0  0
 19 18  1  0  0  0  0
 19 20  1  0  0  0  0
 21 19  1  0  0  0  0
 22 21  1  0  0  0  0
 23 21  2  0  0  0  0
 23 24  1  0  0  0  0
 24 18  2  0  0  0  0
 25 24  1  0  0  0  0
 25 14  2  0  0  0  0
 26  2  1  0  0  0  0
 27 32  1  0  0  0  0
 28 29  1  0  0  0  0
 28 27  2  0  0  0  0
 29 30  2  0  0  0  0
 30 31  1  0  0  0  0
 31 26  1  0  0  0  0
 32 31  2  0  0  0  0
 33 27  1  0  0  0  0
 34 28  1  0  0  0  0
 35 29  1  0  0  0  0
 35 37  1  0  0  0  0
 36 35  1  0  0  0  0
 38 39  1  0  0  0  0
 38 41  1  0  0  0  0
 38 35  1  0  0  0  0
 40 38  1  0  0  0  0
 42 41  2  0  0  0  0
 42 43  1  0  0  0  0
 43 45  1  0  0  0  0
 43 44  1  0  0  0  0
 46 43  1  0  0  0  0
M  END
>  <minimizedAffinity>
-5.6661768

$$$$
