
 OpenBabel03252506223D

 38 41  0  0  0  0  0  0  0  0999 V2000
   45.1180   36.4660   43.2680 C   0  0  0  0  0  0  0  0  0  0  0  0
   44.0760   36.4370   42.3250 C   0  0  0  0  0  0  0  0  0  0  0  0
   44.1440   35.4790   41.3060 C   0  0  0  0  0  0  0  0  0  0  0  0
   45.2060   34.6340   41.2820 N   0  0  0  0  0  0  0  0  0  0  0  0
   46.1900   34.6980   42.2130 C   0  0  0  0  0  0  0  0  0  0  0  0
   46.1430   35.6150   43.2050 N   0  0  0  0  0  0  0  0  0  0  0  0
   43.2430   37.1020   42.3470 H   0  0  0  0  0  0  0  0  0  0  0  0
   43.3670   35.4160   40.5570 H   0  0  0  0  0  0  0  0  0  0  0  0
   48.7980   35.8630   41.2160 Cl  0  0  0  0  0  0  0  0  0  0  0  0
   48.5250   34.2080   41.6520 C   0  0  0  0  0  0  0  0  0  0  0  0
   47.2990   33.7410   42.1040 C   0  0  0  0  0  0  0  0  0  0  0  0
   47.0610   32.4430   42.4540 C   0  0  0  0  0  0  0  0  0  0  0  0
   48.1130   31.5600   42.3450 C   0  0  0  0  0  0  0  0  0  0  0  0
   49.3790   31.9180   41.9050 C   0  0  0  0  0  0  0  0  0  0  0  0
   49.5170   33.2590   41.5750 C   0  0  0  0  0  0  0  0  0  0  0  0
   46.1030   32.0880   42.8050 H   0  0  0  0  0  0  0  0  0  0  0  0
   47.9870   30.5110   42.6090 H   0  0  0  0  0  0  0  0  0  0  0  0
   50.2040   31.2470   41.8150 H   0  0  0  0  0  0  0  0  0  0  0  0
   50.4910   33.5990   41.2230 H   0  0  0  0  0  0  0  0  0  0  0  0
   45.0380   37.4730   44.3330 C   0  0  0  0  0  3  0  0  0  0  0  0
   45.4510   38.6860   44.0870 C   0  0  0  0  0  3  0  0  0  0  0  0
   45.3820   39.7260   45.1470 C   0  0  0  0  0  0  0  0  0  0  0  0
   46.3390   39.8250   45.6990 H   0  0  0  0  0  0  0  0  0  0  0  0
   44.6050   39.4950   45.9010 H   0  0  0  0  0  0  0  0  0  0  0  0
   45.1120   41.0050   44.4910 N   0  0  0  0  0  0  0  0  0  0  0  0
   45.7290   41.3680   43.7080 H   0  0  0  0  0  0  0  0  0  0  0  0
   43.5740   41.9680   46.1640 C   0  0  0  0  0  3  0  0  0  0  0  0
   44.0130   41.8400   44.8590 C   0  0  0  0  0  0  0  0  0  0  0  0
   43.3290   42.5680   43.9060 C   0  0  0  0  0  0  0  0  0  0  0  0
   43.5960   42.5350   42.8620 H   0  0  0  0  0  0  0  0  0  0  0  0
   42.2590   43.3970   44.1750 C   0  0  0  0  0  0  0  0  0  0  0  0
   41.4530   44.1860   43.4420 N   0  0  0  0  0  0  0  0  0  0  0  0
   41.4940   44.3330   42.4260 H   0  0  0  0  0  0  0  0  0  0  0  0
   40.5480   44.7840   44.2500 C   0  0  0  0  0  0  0  0  0  0  0  0
   39.7460   45.4800   44.0280 H   0  0  0  0  0  0  0  0  0  0  0  0
   40.7780   44.3680   45.5450 C   0  0  0  0  0  3  0  0  0  0  0  0
   41.8480   43.4970   45.5110 C   0  0  0  0  0  0  0  0  0  0  0  0
   42.5100   42.7830   46.4890 C   0  0  0  0  0  3  0  0  0  0  0  0
  1 20  1  0  0  0  0
  2  7  1  0  0  0  0
  2  1  2  0  0  0  0
  3  2  1  0  0  0  0
  4  3  2  0  0  0  0
  4  5  1  0  0  0  0
  5  6  2  0  0  0  0
  6  1  1  0  0  0  0
  8  3  1  0  0  0  0
  9 10  1  0  0  0  0
 10 11  1  0  0  0  0
 11  5  1  0  0  0  0
 11 12  2  0  0  0  0
 12 16  1  0  0  0  0
 13 12  1  0  0  0  0
 13 17  1  0  0  0  0
 14 13  2  0  0  0  0
 15 10  2  0  0  0  0
 15 14  1  0  0  0  0
 18 14  1  0  0  0  0
 19 15  1  0  0  0  0
 21 20  2  0  0  0  0
 21 22  1  0  0  0  0
 22 23  1  0  0  0  0
 22 24  1  0  0  0  0
 25 28  1  0  0  0  0
 25 22  1  0  0  0  0
 26 25  1  0  0  0  0
 27 38  1  0  0  0  0
 28 27  2  0  0  0  0
 29 31  2  0  0  0  0
 29 28  1  0  0  0  0
 30 29  1  0  0  0  0
 31 37  1  0  0  0  0
 32 31  1  0  0  0  0
 32 34  1  0  0  0  0
 33 32  1  0  0  0  0
 34 36  2  0  0  0  0
 35 34  1  0  0  0  0
 37 36  1  0  0  0  0
 37 38  2  0  0  0  0
M  END
>  <minimizedAffinity>
-1.17299199

>  <minimizedRMSD>
1.15915501

$$$$
