
 OpenBabel03242517563D

 46 49  0  0  0  0  0  0  0  0999 V2000
   45.4540   30.2980   47.1830 C   0  0  0  0  0  0  0  0  0  0  0  0
   46.2370   31.3130   46.7500 C   0  0  0  0  0  0  0  0  0  0  0  0
   46.4900   32.3610   47.6150 C   0  0  0  0  0  0  0  0  0  0  0  0
   45.9800   32.4130   48.8900 C   0  0  0  0  0  0  0  0  0  0  0  0
   45.1850   31.3740   49.3200 C   0  0  0  0  0  0  0  0  0  0  0  0
   44.9270   30.3190   48.4570 C   0  0  0  0  0  0  0  0  0  0  0  0
   47.1040   33.2100   47.3480 H   0  0  0  0  0  0  0  0  0  0  0  0
   46.1800   33.2370   49.5660 H   0  0  0  0  0  0  0  0  0  0  0  0
   44.7340   31.3120   50.2940 H   0  0  0  0  0  0  0  0  0  0  0  0
   44.3020   29.4540   48.7270 H   0  0  0  0  0  0  0  0  0  0  0  0
   45.0870   29.0610   46.0080 S   0  0  0  0  0  0  0  0  0  0  0  0
   44.9030   29.5590   44.6350 O   0  0  0  0  0  0  0  0  0  0  0  0
   43.6990   28.5140   46.4180 O   0  0  0  0  0  0  0  0  0  0  0  0
   46.5100   26.8080   45.1780 C   0  0  0  0  0  0  0  0  0  0  0  0
   46.0810   27.6350   46.1930 C   0  0  0  0  0  0  0  0  0  0  0  0
   46.5300   27.2330   47.4570 C   0  0  0  0  0  0  0  0  0  0  0  0
   46.2070   27.8700   48.2960 H   0  0  0  0  0  0  0  0  0  0  0  0
   47.3190   26.1410   47.7460 C   0  0  0  0  0  0  0  0  0  0  0  0
   47.7860   25.6930   48.9170 N   0  0  0  0  0  0  0  0  0  0  0  0
   47.6550   26.0750   49.8770 H   0  0  0  0  0  0  0  0  0  0  0  0
   48.5010   24.5870   48.5940 C   0  0  0  0  0  0  0  0  0  0  0  0
   49.0280   23.9570   49.2870 H   0  0  0  0  0  0  0  0  0  0  0  0
   48.4740   24.3560   47.2270 C   0  0  0  0  0  0  0  0  0  0  0  0
   47.7070   25.3640   46.6800 C   0  0  0  0  0  0  0  0  0  0  0  0
   47.3010   25.7010   45.4120 C   0  0  0  0  0  0  0  0  0  0  0  0
   46.8480   31.4470   45.5050 O   0  0  0  0  0  0  0  0  0  0  0  0
   45.4540   34.2030   43.7950 C   0  0  0  0  0  0  0  0  0  0  0  0
   46.5620   34.7190   43.1000 C   0  0  0  0  0  0  0  0  0  0  0  0
   47.7810   34.1100   43.2290 C   0  0  0  0  0  0  0  0  0  0  0  0
   47.8230   33.0350   44.0340 N   0  0  0  0  0  0  0  0  0  0  0  0
   46.7840   32.5500   44.6860 C   0  0  0  0  0  0  0  0  0  0  0  0
   45.5960   33.1350   44.5680 N   0  0  0  0  0  0  0  0  0  0  0  0
   44.4980   34.6860   43.6900 H   0  0  0  0  0  0  0  0  0  0  0  0
   46.3730   35.5860   42.4910 H   0  0  0  0  0  0  0  0  0  0  0  0
   48.9980   34.5430   42.5280 C   0  0  0  0  0  0  0  0  0  0  0  0
   49.3550   33.6740   41.9220 H   0  0  0  0  0  0  0  0  0  0  0  0
   49.8180   34.7680   43.2410 H   0  0  0  0  0  0  0  0  0  0  0  0
   48.7520   35.6980   41.6040 C   0  0  0  0  0  0  0  0  0  0  0  0
   49.7220   36.2940   41.6430 H   0  0  0  0  0  0  0  0  0  0  0  0
   47.9970   36.3960   41.9240 H   0  0  0  0  0  0  0  0  0  0  0  0
   48.6100   35.3060   40.2010 C   0  0  0  0  0  0  0  0  0  0  0  0
   48.0880   34.3570   39.4350 C   0  0  0  0  0  0  0  0  0  0  0  0
   48.2440   34.2190   37.9300 C   0  0  0  0  0  0  0  0  0  0  0  0
   48.8260   35.1080   37.6160 H   0  0  0  0  0  0  0  0  0  0  0  0
   48.7420   33.2590   37.7150 H   0  0  0  0  0  0  0  0  0  0  0  0
   47.2250   34.3180   37.5250 H   0  0  0  0  0  0  0  0  0  0  0  0
  1  6  1  0  0  0  0
  2  1  2  0  0  0  0
  2  3  1  0  0  0  0
  3  4  2  0  0  0  0
  4  5  1  0  0  0  0
  4  8  1  0  0  0  0
  5  9  1  0  0  0  0
  6 10  1  0  0  0  0
  6  5  2  0  0  0  0
  7  3  1  0  0  0  0
 11 15  1  0  0  0  0
 11 13  2  0  0  0  0
 11  1  1  0  0  0  0
 12 11  2  0  0  0  0
 14 25  2  0  0  0  0
 14 15  1  0  0  0  0
 15 16  2  0  0  0  0
 16 18  1  0  0  0  0
 16 17  1  0  0  0  0
 18 19  1  0  0  0  0
 19 20  1  0  0  0  0
 21 19  1  0  0  0  0
 21 22  1  0  0  0  0
 23 21  2  0  0  0  0
 24 23  1  0  0  0  0
 24 18  2  0  0  0  0
 25 24  1  0  0  0  0
 26  2  1  0  0  0  0
 27 32  1  0  0  0  0
 28 29  1  0  0  0  0
 28 27  2  0  0  0  0
 29 30  2  0  0  0  0
 30 31  1  0  0  0  0
 31 26  1  0  0  0  0
 32 31  2  0  0  0  0
 33 27  1  0  0  0  0
 34 28  1  0  0  0  0
 35 29  1  0  0  0  0
 35 37  1  0  0  0  0
 36 35  1  0  0  0  0
 38 39  1  0  0  0  0
 38 40  1  0  0  0  0
 38 35  1  0  0  0  0
 41 38  1  0  0  0  0
 42 41  2  0  0  0  0
 43 42  1  0  0  0  0
 44 43  1  0  0  0  0
 45 43  1  0  0  0  0
 46 43  1  0  0  0  0
M  END
>  <minimizedAffinity>
-6.05719423

>  <minimizedRMSD>
2.66968226

$$$$
