
 OpenBabel03242510073D

 31 34  0  0  0  0  0  0  0  0999 V2000
   44.8640   33.0900   40.9850 Br  0  0  0  0  0  0  0  0  0  0  0  0
   46.5170   34.0230   40.7950 C   0  0  0  0  0  0  0  0  0  0  0  0
   46.9930   34.7940   41.8370 C   0  0  0  0  0  0  0  0  0  0  0  0
   48.2020   35.4840   41.7190 C   0  0  0  0  0  0  0  0  0  0  0  0
   48.8960   35.3760   40.5470 C   0  0  0  0  0  0  0  0  0  0  0  0
   48.3840   34.5980   39.5370 C   0  0  0  0  0  0  0  0  0  0  0  0
   47.2120   33.9130   39.6210 C   0  0  0  0  0  0  0  0  0  0  0  0
   48.5540   36.0880   42.5620 H   0  0  0  0  0  0  0  0  0  0  0  0
   49.8340   35.9070   40.4470 H   0  0  0  0  0  0  0  0  0  0  0  0
   48.9880   34.5550   38.6320 H   0  0  0  0  0  0  0  0  0  0  0  0
   47.0480   31.7560   38.5710 C   0  0  0  0  0  3  0  0  0  0  0  0
   46.7700   33.1190   38.4830 C   0  0  0  0  0  0  0  0  0  0  0  0
   46.1250   33.5730   37.3630 C   0  0  0  0  0  0  0  0  0  0  0  0
   45.9250   34.6200   37.3210 H   0  0  0  0  0  0  0  0  0  0  0  0
   45.7490   32.7320   36.3380 C   0  0  0  0  0  0  0  0  0  0  0  0
   45.1120   33.0340   35.1810 N   0  0  0  0  0  0  0  0  0  0  0  0
   44.8050   33.9870   34.8990 H   0  0  0  0  0  0  0  0  0  0  0  0
   44.9910   31.8480   34.5430 C   0  0  0  0  0  0  0  0  0  0  0  0
   44.5130   31.7640   33.5740 H   0  0  0  0  0  0  0  0  0  0  0  0
   45.5410   30.8220   35.2830 C   0  0  0  0  0  3  0  0  0  0  0  0
   46.0280   31.3860   36.4340 C   0  0  0  0  0  0  0  0  0  0  0  0
   46.6830   30.8870   37.5560 C   0  0  0  0  0  3  0  0  0  0  0  0
   45.6880   33.9970   45.1580 C   0  0  0  0  0  0  0  0  0  0  0  0
   44.7380   35.0260   45.3950 C   0  0  0  0  0  0  0  0  0  0  0  0
   44.5720   35.9760   44.3890 C   0  0  0  0  0  0  0  0  0  0  0  0
   45.3110   35.8830   43.2510 N   0  0  0  0  0  0  0  0  0  0  0  0
   46.2150   34.8750   43.0630 C   0  0  0  0  0  0  0  0  0  0  0  0
   46.3830   33.9520   44.0290 N   0  0  0  0  0  0  0  0  0  0  0  0
   45.9070   33.2040   45.8600 H   0  0  0  0  0  0  0  0  0  0  0  0
   44.2190   35.0000   46.3230 H   0  0  0  0  0  0  0  0  0  0  0  0
   43.8550   36.7600   44.5570 H   0  0  0  0  0  0  0  0  0  0  0  0
  2  1  1  0  0  0  0
  2  3  1  0  0  0  0
  3 27  1  0  0  0  0
  4  3  2  0  0  0  0
  4  8  1  0  0  0  0
  5  4  1  0  0  0  0
  6  7  1  0  0  0  0
  6  5  2  0  0  0  0
  7  2  2  0  0  0  0
  9  5  1  0  0  0  0
 10  6  1  0  0  0  0
 12 11  1  0  0  0  0
 12  7  1  0  0  0  0
 13 12  2  0  0  0  0
 14 13  1  0  0  0  0
 15 21  2  0  0  0  0
 15 13  1  0  0  0  0
 16 15  1  0  0  0  0
 17 16  1  0  0  0  0
 18 16  1  0  0  0  0
 18 20  2  0  0  0  0
 19 18  1  0  0  0  0
 20 21  1  0  0  0  0
 21 22  1  0  0  0  0
 22 11  2  0  0  0  0
 23 24  1  0  0  0  0
 23 29  1  0  0  0  0
 24 30  1  0  0  0  0
 25 31  1  0  0  0  0
 25 24  2  0  0  0  0
 26 25  1  0  0  0  0
 27 26  2  0  0  0  0
 27 28  1  0  0  0  0
 28 23  2  0  0  0  0
M  END
>  <minimizedAffinity>
-6.43724585

>  <minimizedRMSD>
0.937799394

$$$$
