
 OpenBabel03242522423D

 50 54  0  0  0  0  0  0  0  0999 V2000
   46.6130   32.5430   44.4700 C   0  0  0  0  0  0  0  0  0  0  0  0
   46.2980   31.9910   43.5240 H   0  0  0  0  0  0  0  0  0  0  0  0
   47.6720   32.6310   44.6260 H   0  0  0  0  0  0  0  0  0  0  0  0
   46.1460   34.4330   43.0010 C   0  0  0  0  0  0  0  0  0  0  0  0
   45.9800   33.8510   44.2560 C   0  0  0  0  0  0  0  0  0  0  0  0
   45.2660   34.3760   45.2640 C   0  0  0  0  0  0  0  0  0  0  0  0
   44.6380   35.5860   45.0630 C   0  0  0  0  0  0  0  0  0  0  0  0
   44.7290   36.2450   43.8760 C   0  0  0  0  0  0  0  0  0  0  0  0
   45.4780   35.6560   42.8720 C   0  0  0  0  0  0  0  0  0  0  0  0
   45.0620   34.0300   46.2360 H   0  0  0  0  0  0  0  0  0  0  0  0
   44.0290   36.1280   45.7900 H   0  0  0  0  0  0  0  0  0  0  0  0
   44.2610   37.2050   43.6360 H   0  0  0  0  0  0  0  0  0  0  0  0
   45.5660   36.1640   41.9120 H   0  0  0  0  0  0  0  0  0  0  0  0
   47.0170   33.7940   41.6740 S   0  0  0  0  0  0  0  0  0  0  0  0
   47.6360   34.9950   40.8680 O   0  0  0  0  0  0  0  0  0  0  0  0
   46.0810   33.1970   40.6750 O   0  0  0  0  0  0  0  0  0  0  0  0
   49.7650   33.5130   42.1190 C   0  0  0  0  0  3  0  0  0  0  0  0
   48.4870   32.9420   41.9350 C   0  0  0  0  0  0  0  0  0  0  0  0
   48.6200   31.5430   42.0170 C   0  0  0  0  0  0  0  0  0  0  0  0
   47.6780   30.9830   41.8870 H   0  0  0  0  0  0  0  0  0  0  0  0
   49.7790   30.8390   42.2370 C   0  0  0  0  0  0  0  0  0  0  0  0
   49.9620   29.5090   42.3240 N   0  0  0  0  0  0  0  0  0  0  0  0
   49.2740   28.7230   42.2450 H   0  0  0  0  0  0  0  0  0  0  0  0
   51.2750   29.3280   42.5460 C   0  0  0  0  0  0  0  0  0  0  0  0
   51.8280   28.4070   42.6760 H   0  0  0  0  0  0  0  0  0  0  0  0
   51.9060   30.5710   42.5960 C   0  0  0  0  0  3  0  0  0  0  0  0
   50.9340   31.5280   42.3960 C   0  0  0  0  0  0  0  0  0  0  0  0
   50.9540   32.8910   42.3400 C   0  0  0  0  0  3  0  0  0  0  0  0
   45.9750   31.6690   45.5020 C   0  0  0  0  0  0  0  0  0  0  0  0
   44.9580   32.0080   45.8380 H   0  0  0  0  0  0  0  0  0  0  0  0
   45.7210   30.6270   45.1370 H   0  0  0  0  0  0  0  0  0  0  0  0
   47.1130   32.4530   47.5550 C   0  0  0  0  0  0  0  0  0  0  0  0
   46.9340   31.4480   46.5790 C   0  0  0  0  0  0  0  0  0  0  0  0
   47.6550   30.2780   46.7160 C   0  0  0  0  0  0  0  0  0  0  0  0
   48.4880   30.1550   47.7740 N   0  0  0  0  0  0  0  0  0  0  0  0
   48.6340   31.1180   48.6810 C   0  0  0  0  0  0  0  0  0  0  0  0
   47.9520   32.2820   48.5900 N   0  0  0  0  0  0  0  0  0  0  0  0
   46.6560   33.4230   47.6230 H   0  0  0  0  0  0  0  0  0  0  0  0
   47.5150   29.5140   45.9630 H   0  0  0  0  0  0  0  0  0  0  0  0
   49.5730   30.8880   49.8310 C   0  0  0  0  0  0  0  0  0  0  0  0
   49.0670   31.1720   50.7950 H   0  0  0  0  0  0  0  0  0  0  0  0
   49.7640   29.8020   49.9360 H   0  0  0  0  0  0  0  0  0  0  0  0
   50.8400   31.5870   49.6900 C   0  0  0  0  0  0  0  0  0  0  0  0
   51.9840   31.0760   49.1090 C   0  0  0  0  0  0  0  0  0  0  0  0
   52.9720   32.0210   49.1610 C   0  0  0  0  0  0  0  0  0  0  0  0
   52.3900   33.0920   49.7810 N   0  0  0  0  0  0  0  0  0  0  0  0
   51.1230   32.8400   50.0980 N   0  0  0  0  0  0  0  0  0  0  0  0
   52.1680   30.1000   48.6580 H   0  0  0  0  0  0  0  0  0  0  0  0
   54.0040   32.0780   48.8430 H   0  0  0  0  0  0  0  0  0  0  0  0
   52.7710   34.0440   50.0370 H   0  0  0  0  0  0  0  0  0  0  0  0
  1  3  1  0  0  0  0
  1 29  1  0  0  0  0
  2  1  1  0  0  0  0
  4  5  1  0  0  0  0
  5  1  1  0  0  0  0
  5  6  2  0  0  0  0
  6 10  1  0  0  0  0
  7  6  1  0  0  0  0
  7 11  1  0  0  0  0
  8  7  2  0  0  0  0
  9  4  2  0  0  0  0
  9  8  1  0  0  0  0
 12  8  1  0  0  0  0
 13  9  1  0  0  0  0
 14 18  1  0  0  0  0
 14  4  1  0  0  0  0
 15 14  2  0  0  0  0
 16 14  2  0  0  0  0
 17 28  1  0  0  0  0
 18 19  1  0  0  0  0
 18 17  2  0  0  0  0
 19 21  2  0  0  0  0
 20 19  1  0  0  0  0
 21 22  1  0  0  0  0
 21 27  1  0  0  0  0
 22 24  1  0  0  0  0
 23 22  1  0  0  0  0
 24 26  2  0  0  0  0
 24 25  1  0  0  0  0
 27 26  1  0  0  0  0
 28 27  2  0  0  0  0
 29 30  1  0  0  0  0
 29 33  1  0  0  0  0
 31 29  1  0  0  0  0
 32 38  1  0  0  0  0
 32 37  1  0  0  0  0
 33 34  1  0  0  0  0
 33 32  2  0  0  0  0
 34 35  2  0  0  0  0
 35 36  1  0  0  0  0
 36 40  1  0  0  0  0
 37 36  2  0  0  0  0
 39 34  1  0  0  0  0
 40 42  1  0  0  0  0
 40 41  1  0  0  0  0
 43 40  1  0  0  0  0
 43 47  2  0  0  0  0
 44 45  2  0  0  0  0
 44 43  1  0  0  0  0
 45 46  1  0  0  0  0
 46 50  1  0  0  0  0
 46 47  1  0  0  0  0
 48 44  1  0  0  0  0
 49 45  1  0  0  0  0
M  END
>  <minimizedAffinity>
-6.47096157

>  <minimizedRMSD>
0.787830889

$$$$
