
 OpenBabel03242523223D

 46 50  0  0  1  0  0  0  0  0999 V2000
   47.3360   32.7150   43.9330 C   0  0  0  0  0  0  0  0  0  0  0  0
   48.2680   33.2280   43.1350 C   0  0  0  0  0  0  0  0  0  0  0  0
   49.0510   32.3090   42.5100 C   0  0  0  0  0  0  0  0  0  0  0  0
   48.8260   30.9430   42.7420 N   0  0  0  0  0  0  0  0  0  0  0  0
   47.8830   30.5020   43.5480 C   0  0  0  0  0  0  0  0  0  0  0  0
   47.0740   31.3970   44.1970 N   0  0  0  0  0  0  0  0  0  0  0  0
   49.8880   32.3710   41.8440 H   0  0  0  0  0  0  0  0  0  0  0  0
   47.7620   29.4110   43.6850 H   0  0  0  0  0  0  0  0  0  0  0  0
   48.5930   34.5930   42.9610 C   0  0  1  0  0  0  0  0  0  0  0  0
   49.5400   35.1670   42.1710 C   0  0  0  0  0  0  0  0  0  0  0  0
   48.1660   35.3250   41.6570 C   0  0  1  0  0  0  0  0  0  0  0  0
   48.4200   35.1940   43.9130 H   0  0  0  0  0  0  0  0  0  0  0  0
   50.2780   34.5430   41.5980 H   0  0  0  0  0  0  0  0  0  0  0  0
   50.0420   36.1750   42.3120 H   0  0  0  0  0  0  0  0  0  0  0  0
   47.5750   36.2430   41.9460 H   0  0  0  0  0  0  0  0  0  0  0  0
   46.6220   33.8470   40.1360 C   0  0  0  0  0  3  0  0  0  0  0  0
   47.7360   34.5930   40.4660 C   0  0  0  0  0  0  0  0  0  0  0  0
   48.6580   34.6460   39.4070 C   0  0  0  0  0  0  0  0  0  0  0  0
   49.5750   35.1680   39.4800 H   0  0  0  0  0  0  0  0  0  0  0  0
   48.4640   34.0270   38.1880 C   0  0  0  0  0  0  0  0  0  0  0  0
   49.1850   33.9410   37.0560 N   0  0  0  0  0  0  0  0  0  0  0  0
   50.1190   34.3790   36.8900 H   0  0  0  0  0  0  0  0  0  0  0  0
   48.5500   33.2110   36.1460 C   0  0  0  0  0  0  0  0  0  0  0  0
   48.8930   32.9740   35.1450 H   0  0  0  0  0  0  0  0  0  0  0  0
   47.3650   32.7870   36.6690 C   0  0  0  0  0  3  0  0  0  0  0  0
   47.3370   33.3090   37.9410 C   0  0  0  0  0  0  0  0  0  0  0  0
   46.3930   33.2160   38.9380 C   0  0  0  0  0  3  0  0  0  0  0  0
   46.3110   33.4640   44.6880 C   0  0  0  0  0  0  0  0  0  0  0  0
   45.7760   33.8470   45.6890 O   0  0  0  0  0  0  0  0  0  0  0  0
   44.4050   31.7680   42.9520 Cl  0  0  0  0  0  0  0  0  0  0  0  0
   44.5010   33.5140   42.8310 C   0  0  0  0  0  0  0  0  0  0  0  0
   45.4140   34.1470   43.7060 C   0  0  0  0  0  0  0  0  0  0  0  0
   45.3880   35.5100   43.5190 C   0  0  0  0  0  0  0  0  0  0  0  0
   44.6780   36.2610   42.6890 C   0  0  0  0  0  0  0  0  0  0  0  0
   43.8080   35.5810   41.8660 C   0  0  0  0  0  0  0  0  0  0  0  0
   43.7060   34.2120   41.9230 C   0  0  0  0  0  0  0  0  0  0  0  0
   46.0410   36.1360   44.1720 H   0  0  0  0  0  0  0  0  0  0  0  0
   44.7260   37.3470   42.6100 H   0  0  0  0  0  0  0  0  0  0  0  0
   43.1970   36.1690   41.1580 H   0  0  0  0  0  0  0  0  0  0  0  0
   42.8120   33.6620   41.0620 O   0  0  0  0  0  0  0  0  0  0  0  0
   40.5130   33.1230   39.9190 O   0  0  0  0  0  0  0  0  0  0  0  0
   41.1610   33.3350   41.2690 P   0  0  0  0  0  0  0  0  0  0  0  0
   40.9890   31.9680   42.2550 O   0  0  0  0  0  0  0  0  0  0  0  0
   40.0360   31.8350   42.4840 H   0  0  0  0  0  0  0  0  0  0  0  0
   40.3790   34.5890   42.0920 O   0  0  0  0  0  0  0  0  0  0  0  0
   39.8280   35.1600   41.5350 H   0  0  0  0  0  0  0  0  0  0  0  0
  1  6  1  0  0  0  0
  1 28  1  0  0  0  0
  2  1  2  0  0  0  0
  3  4  2  0  0  0  0
  3  2  1  0  0  0  0
  4  5  1  0  0  0  0
  5  8  1  0  0  0  0
  5  6  2  0  0  0  0
  7  3  1  0  0  0  0
  9  2  1  0  0  0  0
  9 12  1  1  0  0  0
 10 14  1  0  0  0  0
 10  9  1  0  0  0  0
 11 15  1  1  0  0  0
 11 10  1  0  0  0  0
 11  9  1  0  0  0  0
 13 10  1  0  0  0  0
 16 17  1  0  0  0  0
 17 11  1  0  0  0  0
 18 19  1  0  0  0  0
 18 17  2  0  0  0  0
 20 18  1  0  0  0  0
 21 20  1  0  0  0  0
 22 21  1  0  0  0  0
 23 25  2  0  0  0  0
 23 21  1  0  0  0  0
 24 23  1  0  0  0  0
 25 26  1  0  0  0  0
 26 20  2  0  0  0  0
 26 27  1  0  0  0  0
 27 16  2  0  0  0  0
 28 29  2  0  0  0  0
 31 30  1  0  0  0  0
 31 32  1  0  0  0  0
 32 28  1  0  0  0  0
 33 32  2  0  0  0  0
 33 37  1  0  0  0  0
 34 33  1  0  0  0  0
 35 36  1  0  0  0  0
 35 34  2  0  0  0  0
 36 31  2  0  0  0  0
 38 34  1  0  0  0  0
 39 35  1  0  0  0  0
 40 42  1  0  0  0  0
 40 36  1  0  0  0  0
 41 42  2  0  0  0  0
 42 45  1  0  0  0  0
 42 43  1  0  0  0  0
 43 44  1  0  0  0  0
 46 45  1  0  0  0  0
M  END
>  <minimizedAffinity>
-7.31991482

>  <minimizedRMSD>
0.521776617

$$$$
