
 OpenBabel03252502413D

 27 29  0  0  0  0  0  0  0  0999 V2000
   46.7130   32.5890   38.2540 C   0  0  0  0  0  0  0  0  0  0  0  0
   46.2390   33.3930   37.6830 H   0  0  0  0  0  0  0  0  0  0  0  0
   45.9800   31.8620   38.6240 H   0  0  0  0  0  0  0  0  0  0  0  0
   46.9770   34.2010   40.2010 C   0  0  0  0  0  3  0  0  0  0  0  0
   47.4370   33.1680   39.4300 C   0  0  0  0  0  0  0  0  0  0  0  0
   48.6630   32.6160   39.7670 C   0  0  0  0  0  0  0  0  0  0  0  0
   49.0630   31.8010   39.1880 H   0  0  0  0  0  0  0  0  0  0  0  0
   49.4160   33.0690   40.8300 C   0  0  0  0  0  0  0  0  0  0  0  0
   50.6070   32.6960   41.3320 N   0  0  0  0  0  0  0  0  0  0  0  0
   51.2200   31.9210   40.9590 H   0  0  0  0  0  0  0  0  0  0  0  0
   50.9070   33.4730   42.4000 C   0  0  0  0  0  0  0  0  0  0  0  0
   51.7890   33.4300   43.0250 H   0  0  0  0  0  0  0  0  0  0  0  0
   49.8390   34.3560   42.5450 C   0  0  0  0  0  3  0  0  0  0  0  0
   48.8930   34.1260   41.5750 C   0  0  0  0  0  0  0  0  0  0  0  0
   47.6780   34.6980   41.2700 C   0  0  0  0  0  3  0  0  0  0  0  0
   47.6840   31.9050   37.3100 C   0  0  0  0  0  0  0  0  0  0  0  0
   48.5340   32.5450   37.0670 H   0  0  0  0  0  0  0  0  0  0  0  0
   48.0910   30.9640   37.7660 H   0  0  0  0  0  0  0  0  0  0  0  0
   45.1800   31.9880   34.4850 C   0  0  0  0  0  0  0  0  0  0  0  0
   45.8740   32.3190   35.6780 C   0  0  0  0  0  0  0  0  0  0  0  0
   46.9650   31.5570   36.0670 C   0  0  0  0  0  0  0  0  0  0  0  0
   47.3100   30.5110   35.2590 N   0  0  0  0  0  0  0  0  0  0  0  0
   46.6420   30.2130   34.1350 C   0  0  0  0  0  0  0  0  0  0  0  0
   45.5830   30.9450   33.7490 N   0  0  0  0  0  0  0  0  0  0  0  0
   44.3250   32.5590   34.1490 H   0  0  0  0  0  0  0  0  0  0  0  0
   45.5310   33.1660   36.2580 H   0  0  0  0  0  0  0  0  0  0  0  0
   46.9890   29.3650   33.5580 H   0  0  0  0  0  0  0  0  0  0  0  0
  1  3  1  0  0  0  0
  1  5  1  0  0  0  0
  2  1  1  0  0  0  0
  4 15  1  0  0  0  0
  5  6  1  0  0  0  0
  5  4  2  0  0  0  0
  6  8  2  0  0  0  0
  7  6  1  0  0  0  0
  8  9  1  0  0  0  0
  8 14  1  0  0  0  0
  9 11  1  0  0  0  0
 10  9  1  0  0  0  0
 11 13  2  0  0  0  0
 11 12  1  0  0  0  0
 14 13  1  0  0  0  0
 15 14  2  0  0  0  0
 16 18  1  0  0  0  0
 16  1  1  0  0  0  0
 17 16  1  0  0  0  0
 19 20  1  0  0  0  0
 20 21  2  0  0  0  0
 20 26  1  0  0  0  0
 21 16  1  0  0  0  0
 22 21  1  0  0  0  0
 23 22  2  0  0  0  0
 24 23  1  0  0  0  0
 24 19  2  0  0  0  0
 25 19  1  0  0  0  0
 27 23  1  0  0  0  0
M  END
>  <minimizedAffinity>
-3.94624925

>  <minimizedRMSD>
7.07473946

$$$$
