
 OpenBabel03242523223D

 46 50  0  0  1  0  0  0  0  0999 V2000
   47.4540   32.6500   43.7640 C   0  0  0  0  0  0  0  0  0  0  0  0
   48.3500   33.2330   42.9740 C   0  0  0  0  0  0  0  0  0  0  0  0
   49.1370   32.3720   42.2750 C   0  0  0  0  0  0  0  0  0  0  0  0
   48.9520   30.9900   42.4320 N   0  0  0  0  0  0  0  0  0  0  0  0
   48.0440   30.4780   43.2350 C   0  0  0  0  0  0  0  0  0  0  0  0
   47.2310   31.3120   43.9570 N   0  0  0  0  0  0  0  0  0  0  0  0
   49.9530   32.4950   41.5930 H   0  0  0  0  0  0  0  0  0  0  0  0
   47.9530   29.3790   43.3110 H   0  0  0  0  0  0  0  0  0  0  0  0
   48.6360   34.6140   42.8730 C   0  0  1  0  0  0  0  0  0  0  0  0
   49.6220   35.2480   42.1820 C   0  0  0  0  0  0  0  0  0  0  0  0
   48.2890   35.3760   41.5630 C   0  0  1  0  0  0  0  0  0  0  0  0
   48.3640   35.1730   43.8260 H   0  0  0  0  0  0  0  0  0  0  0  0
   50.4270   34.6710   41.6520 H   0  0  0  0  0  0  0  0  0  0  0  0
   50.0720   36.2680   42.3980 H   0  0  0  0  0  0  0  0  0  0  0  0
   47.6430   36.2630   41.8320 H   0  0  0  0  0  0  0  0  0  0  0  0
   48.6720   34.4330   39.1450 C   0  0  0  0  0  3  0  0  0  0  0  0
   47.9850   34.6730   40.3170 C   0  0  0  0  0  0  0  0  0  0  0  0
   46.6970   34.1110   40.2880 C   0  0  0  0  0  0  0  0  0  0  0  0
   46.0210   34.2000   41.0970 H   0  0  0  0  0  0  0  0  0  0  0  0
   46.1900   33.4060   39.2140 C   0  0  0  0  0  0  0  0  0  0  0  0
   45.0200   32.7930   38.9650 N   0  0  0  0  0  0  0  0  0  0  0  0
   44.2040   32.7400   39.6150 H   0  0  0  0  0  0  0  0  0  0  0  0
   45.0230   32.2430   37.7550 C   0  0  0  0  0  0  0  0  0  0  0  0
   44.2180   31.6860   37.2890 H   0  0  0  0  0  0  0  0  0  0  0  0
   46.2270   32.4870   37.1640 C   0  0  0  0  0  3  0  0  0  0  0  0
   46.9340   33.2120   38.0930 C   0  0  0  0  0  0  0  0  0  0  0  0
   48.2050   33.7380   38.0570 C   0  0  0  0  0  3  0  0  0  0  0  0
   46.4320   33.3270   44.5900 C   0  0  0  0  0  0  0  0  0  0  0  0
   45.9170   33.6390   45.6260 O   0  0  0  0  0  0  0  0  0  0  0  0
   44.4840   31.6700   42.8610 Cl  0  0  0  0  0  0  0  0  0  0  0  0
   44.5480   33.4210   42.8100 C   0  0  0  0  0  0  0  0  0  0  0  0
   45.4860   34.0340   43.6730 C   0  0  0  0  0  0  0  0  0  0  0  0
   45.4310   35.4020   43.5440 C   0  0  0  0  0  0  0  0  0  0  0  0
   44.6760   36.1750   42.7760 C   0  0  0  0  0  0  0  0  0  0  0  0
   43.7840   35.5140   41.9600 C   0  0  0  0  0  0  0  0  0  0  0  0
   43.7060   34.1420   41.9630 C   0  0  0  0  0  0  0  0  0  0  0  0
   46.0990   36.0130   44.1970 H   0  0  0  0  0  0  0  0  0  0  0  0
   44.7030   37.2640   42.7400 H   0  0  0  0  0  0  0  0  0  0  0  0
   43.1350   36.1200   41.3020 H   0  0  0  0  0  0  0  0  0  0  0  0
   42.7870   33.6130   41.1160 O   0  0  0  0  0  0  0  0  0  0  0  0
   40.4730   33.0240   40.0280 O   0  0  0  0  0  0  0  0  0  0  0  0
   41.1390   33.2930   41.3590 P   0  0  0  0  0  0  0  0  0  0  0  0
   40.9830   31.9690   42.4040 O   0  0  0  0  0  0  0  0  0  0  0  0
   40.0330   31.8450   42.6520 H   0  0  0  0  0  0  0  0  0  0  0  0
   40.3670   34.5800   42.1400 O   0  0  0  0  0  0  0  0  0  0  0  0
   39.8070   35.1270   41.5660 H   0  0  0  0  0  0  0  0  0  0  0  0
  1  6  1  0  0  0  0
  1 28  1  0  0  0  0
  2  1  2  0  0  0  0
  3  4  2  0  0  0  0
  3  2  1  0  0  0  0
  4  5  1  0  0  0  0
  5  8  1  0  0  0  0
  5  6  2  0  0  0  0
  7  3  1  0  0  0  0
  9  2  1  0  0  0  0
  9 12  1  1  0  0  0
 10 14  1  0  0  0  0
 10  9  1  0  0  0  0
 11 15  1  1  0  0  0
 11 10  1  0  0  0  0
 11  9  1  0  0  0  0
 13 10  1  0  0  0  0
 16 17  1  0  0  0  0
 17 11  1  0  0  0  0
 18 17  2  0  0  0  0
 18 19  1  0  0  0  0
 20 18  1  0  0  0  0
 21 20  1  0  0  0  0
 21 22  1  0  0  0  0
 23 21  1  0  0  0  0
 24 23  1  0  0  0  0
 25 23  2  0  0  0  0
 25 26  1  0  0  0  0
 26 20  2  0  0  0  0
 27 26  1  0  0  0  0
 27 16  2  0  0  0  0
 28 29  2  0  0  0  0
 31 30  1  0  0  0  0
 31 32  1  0  0  0  0
 32 28  1  0  0  0  0
 33 32  2  0  0  0  0
 33 37  1  0  0  0  0
 34 33  1  0  0  0  0
 35 36  1  0  0  0  0
 35 34  2  0  0  0  0
 36 31  2  0  0  0  0
 38 34  1  0  0  0  0
 39 35  1  0  0  0  0
 40 42  1  0  0  0  0
 40 36  1  0  0  0  0
 41 42  2  0  0  0  0
 42 45  1  0  0  0  0
 42 43  1  0  0  0  0
 43 44  1  0  0  0  0
 46 45  1  0  0  0  0
M  END
>  <minimizedAffinity>
-6.82161379

>  <minimizedRMSD>
0.992206991

$$$$
