
 OpenBabel03252506233D

 34 37  0  0  0  0  0  0  0  0999 V2000
   36.2150   28.8700   39.6500 C   0  0  0  0  0  0  0  0  0  0  0  0
   35.2560   28.9780   39.1090 H   0  0  0  0  0  0  0  0  0  0  0  0
   36.8920   28.1300   39.2240 H   0  0  0  0  0  0  0  0  0  0  0  0
   38.4460   31.6510   39.2960 C   0  0  0  0  0  0  0  0  0  0  0  0
   37.4140   32.1910   40.0890 C   0  0  0  0  0  0  0  0  0  0  0  0
   36.4790   31.2310   40.3120 C   0  0  0  0  0  0  0  0  0  0  0  0
   36.9190   30.1420   39.6790 N   0  0  0  0  0  0  0  0  0  0  0  0
   38.0970   30.3800   39.0680 N   0  0  0  0  0  0  0  0  0  0  0  0
   37.4160   33.2260   40.4430 H   0  0  0  0  0  0  0  0  0  0  0  0
   35.5570   31.3160   40.8850 H   0  0  0  0  0  0  0  0  0  0  0  0
   41.1090   34.1430   39.1770 C   0  0  0  0  0  0  0  0  0  0  0  0
   41.8340   33.7830   38.0410 C   0  0  0  0  0  0  0  0  0  0  0  0
   41.3930   32.6720   37.3170 C   0  0  0  0  0  0  0  0  0  0  0  0
   40.2950   32.0190   37.7650 N   0  0  0  0  0  0  0  0  0  0  0  0
   39.6160   32.3830   38.8570 C   0  0  0  0  0  0  0  0  0  0  0  0
   40.0320   33.4490   39.5590 N   0  0  0  0  0  0  0  0  0  0  0  0
   41.4490   35.0080   39.7440 H   0  0  0  0  0  0  0  0  0  0  0  0
   42.7000   34.3540   37.7490 H   0  0  0  0  0  0  0  0  0  0  0  0
   41.9160   32.3530   36.4350 H   0  0  0  0  0  0  0  0  0  0  0  0
   35.8830   28.4660   41.0460 C   0  0  0  0  0  0  0  0  0  0  0  0
   35.0400   27.7140   40.9590 H   0  0  0  0  0  0  0  0  0  0  0  0
   35.3730   29.3380   41.5500 H   0  0  0  0  0  0  0  0  0  0  0  0
   37.8040   28.5190   42.7990 C   0  0  0  0  0  3  0  0  0  0  0  0
   36.9940   27.9450   41.8470 C   0  0  0  0  0  0  0  0  0  0  0  0
   37.2480   26.6020   41.5750 C   0  0  0  0  0  0  0  0  0  0  0  0
   36.7050   25.9860   40.8490 H   0  0  0  0  0  0  0  0  0  0  0  0
   38.2430   25.8790   42.2090 C   0  0  0  0  0  0  0  0  0  0  0  0
   38.7050   24.6160   42.1560 N   0  0  0  0  0  0  0  0  0  0  0  0
   38.3170   23.8660   41.5230 H   0  0  0  0  0  0  0  0  0  0  0  0
   39.7220   24.4360   43.0130 C   0  0  0  0  0  0  0  0  0  0  0  0
   40.2870   23.5130   43.1820 H   0  0  0  0  0  0  0  0  0  0  0  0
   39.9660   25.6190   43.6800 C   0  0  0  0  0  3  0  0  0  0  0  0
   39.0360   26.4840   43.1570 C   0  0  0  0  0  0  0  0  0  0  0  0
   38.7940   27.8130   43.4360 C   0  0  0  0  0  3  0  0  0  0  0  0
  1  7  1  0  0  0  0
  1 20  1  0  0  0  0
  2  1  1  0  0  0  0
  3  1  1  0  0  0  0
  4  5  1  0  0  0  0
  5  6  2  0  0  0  0
  5  9  1  0  0  0  0
  6 10  1  0  0  0  0
  7  6  1  0  0  0  0
  8  4  2  0  0  0  0
  8  7  1  0  0  0  0
 11 16  1  0  0  0  0
 11 17  1  0  0  0  0
 12 11  2  0  0  0  0
 13 14  2  0  0  0  0
 13 12  1  0  0  0  0
 14 15  1  0  0  0  0
 15  4  1  0  0  0  0
 15 16  2  0  0  0  0
 18 12  1  0  0  0  0
 19 13  1  0  0  0  0
 20 22  1  0  0  0  0
 20 24  1  0  0  0  0
 21 20  1  0  0  0  0
 23 34  1  0  0  0  0
 24 23  2  0  0  0  0
 25 24  1  0  0  0  0
 25 27  2  0  0  0  0
 26 25  1  0  0  0  0
 27 33  1  0  0  0  0
 28 27  1  0  0  0  0
 28 30  1  0  0  0  0
 29 28  1  0  0  0  0
 30 31  1  0  0  0  0
 30 32  2  0  0  0  0
 33 34  2  0  0  0  0
 33 32  1  0  0  0  0
M  END
>  <minimizedAffinity>
-5.74422312

$$$$

 OpenBabel03252506233D

 34 37  0  0  0  0  0  0  0  0999 V2000
   37.6980   31.9010   37.9740 C   0  0  0  0  0  0  0  0  0  0  0  0
   37.2550   32.6830   37.3290 H   0  0  0  0  0  0  0  0  0  0  0  0
   37.6390   30.8930   37.5660 H   0  0  0  0  0  0  0  0  0  0  0  0
   41.2640   32.2520   37.9430 C   0  0  0  0  0  0  0  0  0  0  0  0
   40.9040   32.9330   39.1220 C   0  0  0  0  0  0  0  0  0  0  0  0
   39.5550   32.8800   39.2700 C   0  0  0  0  0  0  0  0  0  0  0  0
   39.1020   32.1920   38.2200 N   0  0  0  0  0  0  0  0  0  0  0  0
   40.1160   31.8090   37.4180 N   0  0  0  0  0  0  0  0  0  0  0  0
   41.6360   33.4110   39.7800 H   0  0  0  0  0  0  0  0  0  0  0  0
   38.9530   33.3050   40.0720 H   0  0  0  0  0  0  0  0  0  0  0  0
   44.8060   32.9040   37.3570 C   0  0  0  0  0  0  0  0  0  0  0  0
   45.2010   31.8330   36.5550 C   0  0  0  0  0  0  0  0  0  0  0  0
   44.2310   30.8840   36.2200 C   0  0  0  0  0  0  0  0  0  0  0  0
   42.9760   31.0660   36.6940 N   0  0  0  0  0  0  0  0  0  0  0  0
   42.6220   32.1010   37.4600 C   0  0  0  0  0  0  0  0  0  0  0  0
   43.5460   33.0170   37.7890 N   0  0  0  0  0  0  0  0  0  0  0  0
   45.5590   33.6450   37.6220 H   0  0  0  0  0  0  0  0  0  0  0  0
   46.2210   31.7570   36.2190 H   0  0  0  0  0  0  0  0  0  0  0  0
   44.4830   30.0400   35.6050 H   0  0  0  0  0  0  0  0  0  0  0  0
   36.9600   31.9370   39.2690 C   0  0  0  0  0  0  0  0  0  0  0  0
   35.9790   32.4610   39.0520 H   0  0  0  0  0  0  0  0  0  0  0  0
   37.4790   32.6760   39.9460 H   0  0  0  0  0  0  0  0  0  0  0  0
   36.2380   29.4480   39.4850 C   0  0  0  0  0  3  0  0  0  0  0  0
   36.7510   30.6450   39.9270 C   0  0  0  0  0  0  0  0  0  0  0  0
   37.1740   30.6630   41.2550 C   0  0  0  0  0  0  0  0  0  0  0  0
   37.6070   31.5250   41.7740 H   0  0  0  0  0  0  0  0  0  0  0  0
   37.0910   29.5600   42.0880 C   0  0  0  0  0  0  0  0  0  0  0  0
   37.4080   29.2880   43.3660 N   0  0  0  0  0  0  0  0  0  0  0  0
   37.8350   29.9820   44.0360 H   0  0  0  0  0  0  0  0  0  0  0  0
   37.1090   28.0170   43.6800 C   0  0  0  0  0  0  0  0  0  0  0  0
   37.2580   27.5220   44.6460 H   0  0  0  0  0  0  0  0  0  0  0  0
   36.5670   27.3950   42.5730 C   0  0  0  0  0  3  0  0  0  0  0  0
   36.5720   28.3770   41.6140 C   0  0  0  0  0  0  0  0  0  0  0  0
   36.1500   28.3470   40.3000 C   0  0  0  0  0  3  0  0  0  0  0  0
  1  7  1  0  0  0  0
  1 20  1  0  0  0  0
  2  1  1  0  0  0  0
  3  1  1  0  0  0  0
  4  5  1  0  0  0  0
  5  6  2  0  0  0  0
  5  9  1  0  0  0  0
  6 10  1  0  0  0  0
  7  6  1  0  0  0  0
  8  4  2  0  0  0  0
  8  7  1  0  0  0  0
 11 17  1  0  0  0  0
 11 16  1  0  0  0  0
 12 11  2  0  0  0  0
 13 12  1  0  0  0  0
 13 14  2  0  0  0  0
 14 15  1  0  0  0  0
 15 16  2  0  0  0  0
 15  4  1  0  0  0  0
 18 12  1  0  0  0  0
 19 13  1  0  0  0  0
 20 24  1  0  0  0  0
 20 22  1  0  0  0  0
 21 20  1  0  0  0  0
 23 24  2  0  0  0  0
 23 34  1  0  0  0  0
 24 25  1  0  0  0  0
 25 26  1  0  0  0  0
 25 27  2  0  0  0  0
 27 28  1  0  0  0  0
 28 30  1  0  0  0  0
 28 29  1  0  0  0  0
 30 31  1  0  0  0  0
 32 30  2  0  0  0  0
 33 27  1  0  0  0  0
 33 32  1  0  0  0  0
 34 33  2  0  0  0  0
M  END
>  <minimizedAffinity>
-5.61503935

$$$$

 OpenBabel03252506233D

 34 37  0  0  0  0  0  0  0  0999 V2000
   38.1110   31.9080   38.2180 C   0  0  0  0  0  0  0  0  0  0  0  0
   37.7690   32.4740   37.3310 H   0  0  0  0  0  0  0  0  0  0  0  0
   38.5260   30.9260   37.9940 H   0  0  0  0  0  0  0  0  0  0  0  0
   41.0940   33.3940   39.5340 C   0  0  0  0  0  0  0  0  0  0  0  0
   40.0840   34.0360   40.2770 C   0  0  0  0  0  0  0  0  0  0  0  0
   38.8740   33.5610   39.8810 C   0  0  0  0  0  0  0  0  0  0  0  0
   39.1310   32.6620   38.9290 N   0  0  0  0  0  0  0  0  0  0  0  0
   40.4570   32.5520   38.7130 N   0  0  0  0  0  0  0  0  0  0  0  0
   40.2960   34.7890   41.0420 H   0  0  0  0  0  0  0  0  0  0  0  0
   37.8910   33.8460   40.2530 H   0  0  0  0  0  0  0  0  0  0  0  0
   44.5920   34.0110   38.6960 C   0  0  0  0  0  0  0  0  0  0  0  0
   45.2050   34.1250   39.9440 C   0  0  0  0  0  0  0  0  0  0  0  0
   44.3980   33.9860   41.0770 C   0  0  0  0  0  0  0  0  0  0  0  0
   43.0780   33.7510   40.8890 N   0  0  0  0  0  0  0  0  0  0  0  0
   42.5130   33.6460   39.6830 C   0  0  0  0  0  0  0  0  0  0  0  0
   43.2790   33.7780   38.5890 N   0  0  0  0  0  0  0  0  0  0  0  0
   45.2170   34.1190   37.8120 H   0  0  0  0  0  0  0  0  0  0  0  0
   46.2630   34.3140   40.0110 H   0  0  0  0  0  0  0  0  0  0  0  0
   44.8200   34.0640   42.0610 H   0  0  0  0  0  0  0  0  0  0  0  0
   36.9260   31.7360   39.1060 C   0  0  0  0  0  0  0  0  0  0  0  0
   36.0200   31.9390   38.4560 H   0  0  0  0  0  0  0  0  0  0  0  0
   36.9000   32.6040   39.8270 H   0  0  0  0  0  0  0  0  0  0  0  0
   36.5180   29.1800   39.3590 C   0  0  0  0  0  3  0  0  0  0  0  0
   36.8210   30.4480   39.7960 C   0  0  0  0  0  0  0  0  0  0  0  0
   37.0970   30.5630   41.1580 C   0  0  0  0  0  0  0  0  0  0  0  0
   37.3570   31.4920   41.6780 H   0  0  0  0  0  0  0  0  0  0  0  0
   37.0730   29.4850   42.0260 C   0  0  0  0  0  0  0  0  0  0  0  0
   37.2880   29.2980   43.3410 N   0  0  0  0  0  0  0  0  0  0  0  0
   37.5490   30.0640   44.0180 H   0  0  0  0  0  0  0  0  0  0  0  0
   37.1270   28.0080   43.6790 C   0  0  0  0  0  0  0  0  0  0  0  0
   37.2380   27.5680   44.6760 H   0  0  0  0  0  0  0  0  0  0  0  0
   36.7890   27.2850   42.5530 C   0  0  0  0  0  3  0  0  0  0  0  0
   36.7660   28.2290   41.5560 C   0  0  0  0  0  0  0  0  0  0  0  0
   36.4910   28.1020   40.2100 C   0  0  0  0  0  3  0  0  0  0  0  0
  1  7  1  0  0  0  0
  1 20  1  0  0  0  0
  2  1  1  0  0  0  0
  3  1  1  0  0  0  0
  4 15  1  0  0  0  0
  4  5  1  0  0  0  0
  5  9  1  0  0  0  0
  6 10  1  0  0  0  0
  6  5  2  0  0  0  0
  7  6  1  0  0  0  0
  8  7  1  0  0  0  0
  8  4  2  0  0  0  0
 11 12  1  0  0  0  0
 12 18  1  0  0  0  0
 12 13  2  0  0  0  0
 13 19  1  0  0  0  0
 14 13  1  0  0  0  0
 15 14  2  0  0  0  0
 16 11  2  0  0  0  0
 16 15  1  0  0  0  0
 17 11  1  0  0  0  0
 20 24  1  0  0  0  0
 20 22  1  0  0  0  0
 21 20  1  0  0  0  0
 23 24  2  0  0  0  0
 23 34  1  0  0  0  0
 24 25  1  0  0  0  0
 25 26  1  0  0  0  0
 25 27  2  0  0  0  0
 27 28  1  0  0  0  0
 28 30  1  0  0  0  0
 28 29  1  0  0  0  0
 30 31  1  0  0  0  0
 32 30  2  0  0  0  0
 33 27  1  0  0  0  0
 33 32  1  0  0  0  0
 34 33  2  0  0  0  0
M  END
>  <minimizedAffinity>
-5.58068323

$$$$

 OpenBabel03252506233D

 34 37  0  0  0  0  0  0  0  0999 V2000
   36.1930   30.7760   41.0600 C   0  0  0  0  0  0  0  0  0  0  0  0
   35.1020   30.6140   40.9800 H   0  0  0  0  0  0  0  0  0  0  0  0
   36.4820   31.5710   41.7460 H   0  0  0  0  0  0  0  0  0  0  0  0
   37.4370   27.4580   41.5870 C   0  0  0  0  0  0  0  0  0  0  0  0
   38.0890   28.1890   42.5990 C   0  0  0  0  0  0  0  0  0  0  0  0
   37.7040   29.4900   42.5240 C   0  0  0  0  0  0  0  0  0  0  0  0
   36.8490   29.5560   41.5020 N   0  0  0  0  0  0  0  0  0  0  0  0
   36.6800   28.3450   40.9330 N   0  0  0  0  0  0  0  0  0  0  0  0
   38.7840   27.7320   43.3090 H   0  0  0  0  0  0  0  0  0  0  0  0
   38.0200   30.3180   43.1570 H   0  0  0  0  0  0  0  0  0  0  0  0
   36.8370   24.0680   40.3780 C   0  0  0  0  0  0  0  0  0  0  0  0
   37.8990   23.3420   40.9170 C   0  0  0  0  0  0  0  0  0  0  0  0
   38.8240   24.0360   41.7020 C   0  0  0  0  0  0  0  0  0  0  0  0
   38.6290   25.3630   41.8880 N   0  0  0  0  0  0  0  0  0  0  0  0
   37.6030   26.0360   41.3610 C   0  0  0  0  0  0  0  0  0  0  0  0
   36.7090   25.3790   40.6050 N   0  0  0  0  0  0  0  0  0  0  0  0
   36.1150   23.5310   39.7650 H   0  0  0  0  0  0  0  0  0  0  0  0
   37.9870   22.2860   40.7230 H   0  0  0  0  0  0  0  0  0  0  0  0
   39.6600   23.5240   42.1410 H   0  0  0  0  0  0  0  0  0  0  0  0
   36.6810   31.1220   39.6940 C   0  0  0  0  0  0  0  0  0  0  0  0
   35.8360   31.6920   39.1990 H   0  0  0  0  0  0  0  0  0  0  0  0
   36.7170   30.1730   39.0850 H   0  0  0  0  0  0  0  0  0  0  0  0
   38.6200   32.6300   40.5480 C   0  0  0  0  0  3  0  0  0  0  0  0
   37.9450   31.8620   39.6300 C   0  0  0  0  0  0  0  0  0  0  0  0
   38.5610   31.7320   38.3860 C   0  0  0  0  0  0  0  0  0  0  0  0
   38.1690   31.1610   37.5380 H   0  0  0  0  0  0  0  0  0  0  0  0
   39.7710   32.3300   38.0780 C   0  0  0  0  0  0  0  0  0  0  0  0
   40.5780   32.3820   37.0040 N   0  0  0  0  0  0  0  0  0  0  0  0
   40.3820   31.8990   36.0870 H   0  0  0  0  0  0  0  0  0  0  0  0
   41.6660   33.1280   37.2510 C   0  0  0  0  0  0  0  0  0  0  0  0
   42.4900   33.3430   36.5620 H   0  0  0  0  0  0  0  0  0  0  0  0
   41.6020   33.6060   38.5450 C   0  0  0  0  0  3  0  0  0  0  0  0
   40.4210   33.0930   39.0210 C   0  0  0  0  0  0  0  0  0  0  0  0
   39.8210   33.2280   40.2560 C   0  0  0  0  0  3  0  0  0  0  0  0
  1  7  1  0  0  0  0
  1  3  1  0  0  0  0
  2  1  1  0  0  0  0
  4  5  1  0  0  0  0
  5  9  1  0  0  0  0
  6  5  2  0  0  0  0
  6 10  1  0  0  0  0
  7  6  1  0  0  0  0
  8  7  1  0  0  0  0
  8  4  2  0  0  0  0
 11 16  2  0  0  0  0
 11 12  1  0  0  0  0
 12 13  2  0  0  0  0
 13 14  1  0  0  0  0
 13 19  1  0  0  0  0
 15  4  1  0  0  0  0
 15 14  2  0  0  0  0
 16 15  1  0  0  0  0
 17 11  1  0  0  0  0
 18 12  1  0  0  0  0
 20  1  1  0  0  0  0
 21 20  1  0  0  0  0
 22 20  1  0  0  0  0
 24 20  1  0  0  0  0
 24 23  2  0  0  0  0
 25 24  1  0  0  0  0
 26 25  1  0  0  0  0
 27 25  2  0  0  0  0
 27 33  1  0  0  0  0
 28 30  1  0  0  0  0
 28 27  1  0  0  0  0
 29 28  1  0  0  0  0
 30 32  2  0  0  0  0
 31 30  1  0  0  0  0
 32 33  1  0  0  0  0
 33 34  2  0  0  0  0
 34 23  1  0  0  0  0
M  END
>  <minimizedAffinity>
-5.57244635

$$$$

 OpenBabel03252506233D

 34 37  0  0  0  0  0  0  0  0999 V2000
   39.7380   30.4870   41.4840 C   0  0  0  0  0  0  0  0  0  0  0  0
   40.3800   29.6780   41.0860 H   0  0  0  0  0  0  0  0  0  0  0  0
   40.2520   31.4340   41.6400 H   0  0  0  0  0  0  0  0  0  0  0  0
   37.2320   30.4750   38.9220 C   0  0  0  0  0  0  0  0  0  0  0  0
   36.9020   31.6270   39.6630 C   0  0  0  0  0  0  0  0  0  0  0  0
   37.7860   31.7650   40.6850 C   0  0  0  0  0  0  0  0  0  0  0  0
   38.6270   30.7350   40.5790 N   0  0  0  0  0  0  0  0  0  0  0  0
   38.3070   29.9550   39.5260 N   0  0  0  0  0  0  0  0  0  0  0  0
   36.0570   32.2740   39.4090 H   0  0  0  0  0  0  0  0  0  0  0  0
   37.8150   32.5470   41.4430 H   0  0  0  0  0  0  0  0  0  0  0  0
   34.6300   28.9680   36.8550 C   0  0  0  0  0  0  0  0  0  0  0  0
   35.1230   29.1190   35.5590 C   0  0  0  0  0  0  0  0  0  0  0  0
   36.3620   29.7470   35.4070 C   0  0  0  0  0  0  0  0  0  0  0  0
   37.0020   30.1650   36.5240 N   0  0  0  0  0  0  0  0  0  0  0  0
   36.5090   30.0090   37.7570 C   0  0  0  0  0  0  0  0  0  0  0  0
   35.3190   29.4080   37.9130 N   0  0  0  0  0  0  0  0  0  0  0  0
   33.6640   28.4810   36.9780 H   0  0  0  0  0  0  0  0  0  0  0  0
   34.5530   28.7600   34.7180 H   0  0  0  0  0  0  0  0  0  0  0  0
   36.7870   29.8880   34.4310 H   0  0  0  0  0  0  0  0  0  0  0  0
   39.2020   30.0120   42.7910 C   0  0  0  0  0  0  0  0  0  0  0  0
   38.6010   30.8750   43.2120 H   0  0  0  0  0  0  0  0  0  0  0  0
   40.0630   29.9450   43.5180 H   0  0  0  0  0  0  0  0  0  0  0  0
   37.1120   28.4890   43.0670 C   0  0  0  0  0  3  0  0  0  0  0  0
   38.4200   28.7730   42.7550 C   0  0  0  0  0  0  0  0  0  0  0  0
   39.1770   27.6930   42.3040 C   0  0  0  0  0  0  0  0  0  0  0  0
   40.2320   27.7320   42.0110 H   0  0  0  0  0  0  0  0  0  0  0  0
   38.6630   26.4140   42.1710 C   0  0  0  0  0  0  0  0  0  0  0  0
   39.1340   25.2180   41.7760 N   0  0  0  0  0  0  0  0  0  0  0  0
   40.1240   25.0440   41.4550 H   0  0  0  0  0  0  0  0  0  0  0  0
   38.1810   24.2760   41.8420 C   0  0  0  0  0  0  0  0  0  0  0  0
   38.2810   23.2160   41.5820 H   0  0  0  0  0  0  0  0  0  0  0  0
   37.0110   24.8470   42.3010 C   0  0  0  0  0  3  0  0  0  0  0  0
   37.3480   26.1650   42.4920 C   0  0  0  0  0  0  0  0  0  0  0  0
   36.5890   27.2260   42.9400 C   0  0  0  0  0  3  0  0  0  0  0  0
  1  3  1  0  0  0  0
  1 20  1  0  0  0  0
  2  1  1  0  0  0  0
  4  8  2  0  0  0  0
  4  5  1  0  0  0  0
  5  6  2  0  0  0  0
  6 10  1  0  0  0  0
  7  6  1  0  0  0  0
  7  1  1  0  0  0  0
  8  7  1  0  0  0  0
  9  5  1  0  0  0  0
 11 17  1  0  0  0  0
 11 16  1  0  0  0  0
 12 11  2  0  0  0  0
 13 12  1  0  0  0  0
 13 14  2  0  0  0  0
 14 15  1  0  0  0  0
 15 16  2  0  0  0  0
 15  4  1  0  0  0  0
 18 12  1  0  0  0  0
 19 13  1  0  0  0  0
 20 21  1  0  0  0  0
 20 22  1  0  0  0  0
 24 20  1  0  0  0  0
 24 23  2  0  0  0  0
 25 24  1  0  0  0  0
 26 25  1  0  0  0  0
 27 25  2  0  0  0  0
 27 33  1  0  0  0  0
 28 30  1  0  0  0  0
 28 27  1  0  0  0  0
 29 28  1  0  0  0  0
 30 32  2  0  0  0  0
 31 30  1  0  0  0  0
 32 33  1  0  0  0  0
 33 34  2  0  0  0  0
 34 23  1  0  0  0  0
M  END
>  <minimizedAffinity>
-5.45469475

$$$$

 OpenBabel03252506233D

 34 37  0  0  0  0  0  0  0  0999 V2000
   34.9430   29.0490   36.6390 C   0  0  0  0  0  0  0  0  0  0  0  0
   34.7460   29.9960   36.1020 H   0  0  0  0  0  0  0  0  0  0  0  0
   35.4680   28.2980   36.0500 H   0  0  0  0  0  0  0  0  0  0  0  0
   36.5770   29.0600   39.8280 C   0  0  0  0  0  0  0  0  0  0  0  0
   37.1170   30.2030   39.2080 C   0  0  0  0  0  0  0  0  0  0  0  0
   36.5770   30.3320   37.9680 C   0  0  0  0  0  0  0  0  0  0  0  0
   35.7370   29.3050   37.8300 N   0  0  0  0  0  0  0  0  0  0  0  0
   35.7270   28.5360   38.9380 N   0  0  0  0  0  0  0  0  0  0  0  0
   37.8520   30.8520   39.6940 H   0  0  0  0  0  0  0  0  0  0  0  0
   36.7780   31.1060   37.2280 H   0  0  0  0  0  0  0  0  0  0  0  0
   37.0110   26.8750   42.7180 C   0  0  0  0  0  0  0  0  0  0  0  0
   37.5640   27.7220   43.6800 C   0  0  0  0  0  0  0  0  0  0  0  0
   37.7850   29.0540   43.3180 C   0  0  0  0  0  0  0  0  0  0  0  0
   37.4490   29.4340   42.0630 N   0  0  0  0  0  0  0  0  0  0  0  0
   36.9190   28.6050   41.1600 C   0  0  0  0  0  0  0  0  0  0  0  0
   36.7040   27.3240   41.4960 N   0  0  0  0  0  0  0  0  0  0  0  0
   36.8380   25.8370   42.9950 H   0  0  0  0  0  0  0  0  0  0  0  0
   37.8060   27.3430   44.6580 H   0  0  0  0  0  0  0  0  0  0  0  0
   38.2080   29.7470   44.0210 H   0  0  0  0  0  0  0  0  0  0  0  0
   33.6190   28.4970   37.0460 C   0  0  0  0  0  0  0  0  0  0  0  0
   33.7310   28.1940   38.1320 H   0  0  0  0  0  0  0  0  0  0  0  0
   33.4840   27.5010   36.5340 H   0  0  0  0  0  0  0  0  0  0  0  0
   31.9900   30.0490   35.7410 C   0  0  0  0  0  3  0  0  0  0  0  0
   32.4650   29.3780   36.8430 C   0  0  0  0  0  0  0  0  0  0  0  0
   31.7210   29.5370   38.0100 C   0  0  0  0  0  0  0  0  0  0  0  0
   31.9490   29.0790   38.9790 H   0  0  0  0  0  0  0  0  0  0  0  0
   30.5770   30.3150   38.0750 C   0  0  0  0  0  0  0  0  0  0  0  0
   29.6840   30.6450   39.0250 N   0  0  0  0  0  0  0  0  0  0  0  0
   29.7260   30.3080   40.0240 H   0  0  0  0  0  0  0  0  0  0  0  0
   28.7350   31.4580   38.5360 C   0  0  0  0  0  0  0  0  0  0  0  0
   27.8850   31.8820   39.0810 H   0  0  0  0  0  0  0  0  0  0  0  0
   28.9860   31.6940   37.2000 C   0  0  0  0  0  3  0  0  0  0  0  0
   30.1280   30.9740   36.9530 C   0  0  0  0  0  0  0  0  0  0  0  0
   30.8570   30.8230   35.7910 C   0  0  0  0  0  3  0  0  0  0  0  0
  1 20  1  0  0  0  0
  1  7  1  0  0  0  0
  2  1  1  0  0  0  0
  3  1  1  0  0  0  0
  4 15  1  0  0  0  0
  5  9  1  0  0  0  0
  5  4  1  0  0  0  0
  6  5  2  0  0  0  0
  7  6  1  0  0  0  0
  7  8  1  0  0  0  0
  8  4  2  0  0  0  0
 10  6  1  0  0  0  0
 11 17  1  0  0  0  0
 11 12  1  0  0  0  0
 12 18  1  0  0  0  0
 13 12  2  0  0  0  0
 13 19  1  0  0  0  0
 14 13  1  0  0  0  0
 15 16  1  0  0  0  0
 15 14  2  0  0  0  0
 16 11  2  0  0  0  0
 20 21  1  0  0  0  0
 22 20  1  0  0  0  0
 23 34  2  0  0  0  0
 23 24  1  0  0  0  0
 24 20  1  0  0  0  0
 24 25  2  0  0  0  0
 25 27  1  0  0  0  0
 25 26  1  0  0  0  0
 27 28  1  0  0  0  0
 28 29  1  0  0  0  0
 30 28  1  0  0  0  0
 30 31  1  0  0  0  0
 32 30  2  0  0  0  0
 33 32  1  0  0  0  0
 33 27  2  0  0  0  0
 34 33  1  0  0  0  0
M  END
>  <minimizedAffinity>
-5.44321299

$$$$

 OpenBabel03252506233D

 34 37  0  0  0  0  0  0  0  0999 V2000
   38.6860   27.2100   43.4660 C   0  0  0  0  0  0  0  0  0  0  0  0
   38.6730   26.8760   44.5210 H   0  0  0  0  0  0  0  0  0  0  0  0
   39.6550   27.5660   43.1180 H   0  0  0  0  0  0  0  0  0  0  0  0
   37.2090   25.0290   41.0370 C   0  0  0  0  0  0  0  0  0  0  0  0
   38.1710   24.1980   41.6440 C   0  0  0  0  0  0  0  0  0  0  0  0
   38.8200   24.9020   42.6080 C   0  0  0  0  0  0  0  0  0  0  0  0
   38.2790   26.1220   42.5920 N   0  0  0  0  0  0  0  0  0  0  0  0
   37.3120   26.2100   41.6560 N   0  0  0  0  0  0  0  0  0  0  0  0
   38.3270   23.1560   41.3490 H   0  0  0  0  0  0  0  0  0  0  0  0
   39.6190   24.5580   43.2640 H   0  0  0  0  0  0  0  0  0  0  0  0
   35.4410   25.0100   37.8460 C   0  0  0  0  0  0  0  0  0  0  0  0
   34.6540   23.8600   37.9220 C   0  0  0  0  0  0  0  0  0  0  0  0
   34.7410   23.0930   39.0870 C   0  0  0  0  0  0  0  0  0  0  0  0
   35.5810   23.5140   40.0620 N   0  0  0  0  0  0  0  0  0  0  0  0
   36.3240   24.6200   39.9660 C   0  0  0  0  0  0  0  0  0  0  0  0
   36.2480   25.3630   38.8510 N   0  0  0  0  0  0  0  0  0  0  0  0
   35.3760   25.6100   36.9400 H   0  0  0  0  0  0  0  0  0  0  0  0
   34.0100   23.5900   37.1020 H   0  0  0  0  0  0  0  0  0  0  0  0
   34.1570   22.1990   39.1960 H   0  0  0  0  0  0  0  0  0  0  0  0
   37.6990   28.3210   43.3510 C   0  0  0  0  0  0  0  0  0  0  0  0
   37.3760   28.5590   44.4110 H   0  0  0  0  0  0  0  0  0  0  0  0
   36.7520   27.9020   42.9020 H   0  0  0  0  0  0  0  0  0  0  0  0
   39.3510   30.2010   42.6430 C   0  0  0  0  0  3  0  0  0  0  0  0
   38.1580   29.5180   42.6410 C   0  0  0  0  0  0  0  0  0  0  0  0
   37.1720   30.0350   41.8020 C   0  0  0  0  0  0  0  0  0  0  0  0
   36.1650   29.6230   41.6730 H   0  0  0  0  0  0  0  0  0  0  0  0
   37.3640   31.1590   41.0160 C   0  0  0  0  0  0  0  0  0  0  0  0
   36.6250   31.8640   40.1410 N   0  0  0  0  0  0  0  0  0  0  0  0
   35.6300   31.6330   39.8780 H   0  0  0  0  0  0  0  0  0  0  0  0
   37.3200   32.9010   39.6460 C   0  0  0  0  0  0  0  0  0  0  0  0
   36.9720   33.6410   38.9180 H   0  0  0  0  0  0  0  0  0  0  0  0
   38.5830   32.9060   40.2040 C   0  0  0  0  0  3  0  0  0  0  0  0
   38.5710   31.8190   41.0420 C   0  0  0  0  0  0  0  0  0  0  0  0
   39.5550   31.3160   41.8680 C   0  0  0  0  0  3  0  0  0  0  0  0
  1  2  1  0  0  0  0
  3  1  1  0  0  0  0
  4  5  1  0  0  0  0
  4  8  2  0  0  0  0
  5  6  2  0  0  0  0
  6 10  1  0  0  0  0
  7  6  1  0  0  0  0
  7  1  1  0  0  0  0
  8  7  1  0  0  0  0
  9  5  1  0  0  0  0
 11 12  2  0  0  0  0
 11 16  1  0  0  0  0
 12 13  1  0  0  0  0
 13 19  1  0  0  0  0
 13 14  2  0  0  0  0
 15 14  1  0  0  0  0
 15  4  1  0  0  0  0
 16 15  2  0  0  0  0
 17 11  1  0  0  0  0
 18 12  1  0  0  0  0
 20  1  1  0  0  0  0
 20 21  1  0  0  0  0
 22 20  1  0  0  0  0
 24 23  1  0  0  0  0
 24 20  1  0  0  0  0
 25 24  2  0  0  0  0
 26 25  1  0  0  0  0
 27 33  2  0  0  0  0
 27 25  1  0  0  0  0
 28 27  1  0  0  0  0
 29 28  1  0  0  0  0
 30 28  1  0  0  0  0
 30 32  2  0  0  0  0
 31 30  1  0  0  0  0
 32 33  1  0  0  0  0
 33 34  1  0  0  0  0
 34 23  2  0  0  0  0
M  END
>  <minimizedAffinity>
-5.39571571

$$$$

 OpenBabel03252506233D

 34 37  0  0  0  0  0  0  0  0999 V2000
   36.7090   31.0780   39.5520 C   0  0  0  0  0  0  0  0  0  0  0  0
   35.8540   31.5860   39.0670 H   0  0  0  0  0  0  0  0  0  0  0  0
   37.0120   30.1480   39.0740 H   0  0  0  0  0  0  0  0  0  0  0  0
   39.8860   32.7000   39.2140 C   0  0  0  0  0  0  0  0  0  0  0  0
   39.1370   33.6510   39.9330 C   0  0  0  0  0  0  0  0  0  0  0  0
   37.8860   33.1640   40.1420 C   0  0  0  0  0  0  0  0  0  0  0  0
   37.8670   31.9580   39.5720 N   0  0  0  0  0  0  0  0  0  0  0  0
   39.0600   31.6680   39.0130 N   0  0  0  0  0  0  0  0  0  0  0  0
   39.5470   34.6150   40.2490 H   0  0  0  0  0  0  0  0  0  0  0  0
   37.0600   33.6440   40.6640 H   0  0  0  0  0  0  0  0  0  0  0  0
   42.8380   33.9770   37.4900 C   0  0  0  0  0  0  0  0  0  0  0  0
   43.8770   33.2170   38.0280 C   0  0  0  0  0  0  0  0  0  0  0  0
   43.5470   32.2600   38.9910 C   0  0  0  0  0  0  0  0  0  0  0  0
   42.2450   32.1330   39.3390 N   0  0  0  0  0  0  0  0  0  0  0  0
   41.2670   32.8730   38.8090 C   0  0  0  0  0  0  0  0  0  0  0  0
   41.5730   33.7950   37.8840 N   0  0  0  0  0  0  0  0  0  0  0  0
   43.0910   34.7250   36.7400 H   0  0  0  0  0  0  0  0  0  0  0  0
   44.8910   33.3790   37.7010 H   0  0  0  0  0  0  0  0  0  0  0  0
   44.3100   31.6480   39.4370 H   0  0  0  0  0  0  0  0  0  0  0  0
   36.2990   30.7840   40.9550 C   0  0  0  0  0  0  0  0  0  0  0  0
   35.1780   30.9410   40.9890 H   0  0  0  0  0  0  0  0  0  0  0  0
   36.6760   31.6200   41.6120 H   0  0  0  0  0  0  0  0  0  0  0  0
   37.1830   29.0540   42.6840 C   0  0  0  0  0  3  0  0  0  0  0  0
   36.6790   29.4670   41.4730 C   0  0  0  0  0  0  0  0  0  0  0  0
   36.4670   28.4570   40.5360 C   0  0  0  0  0  0  0  0  0  0  0  0
   36.0730   28.6010   39.5230 H   0  0  0  0  0  0  0  0  0  0  0  0
   36.7400   27.1240   40.7880 C   0  0  0  0  0  0  0  0  0  0  0  0
   36.6410   25.9700   40.1040 N   0  0  0  0  0  0  0  0  0  0  0  0
   36.2850   25.8930   39.1140 H   0  0  0  0  0  0  0  0  0  0  0  0
   37.0550   24.9300   40.8450 C   0  0  0  0  0  0  0  0  0  0  0  0
   37.0860   23.8770   40.5470 H   0  0  0  0  0  0  0  0  0  0  0  0
   37.4530   25.3890   42.0850 C   0  0  0  0  0  3  0  0  0  0  0  0
   37.2440   26.7440   42.0110 C   0  0  0  0  0  0  0  0  0  0  0  0
   37.4570   27.7340   42.9480 C   0  0  0  0  0  3  0  0  0  0  0  0
  1  7  1  0  0  0  0
  1 20  1  0  0  0  0
  2  1  1  0  0  0  0
  3  1  1  0  0  0  0
  4  5  1  0  0  0  0
  5  6  2  0  0  0  0
  5  9  1  0  0  0  0
  6 10  1  0  0  0  0
  7  6  1  0  0  0  0
  8  4  2  0  0  0  0
  8  7  1  0  0  0  0
 11 16  2  0  0  0  0
 11 12  1  0  0  0  0
 12 13  2  0  0  0  0
 13 14  1  0  0  0  0
 13 19  1  0  0  0  0
 15  4  1  0  0  0  0
 15 14  2  0  0  0  0
 16 15  1  0  0  0  0
 17 11  1  0  0  0  0
 18 12  1  0  0  0  0
 20 21  1  0  0  0  0
 20 24  1  0  0  0  0
 20 22  1  0  0  0  0
 23 34  1  0  0  0  0
 24 23  2  0  0  0  0
 25 27  2  0  0  0  0
 25 24  1  0  0  0  0
 26 25  1  0  0  0  0
 27 33  1  0  0  0  0
 28 27  1  0  0  0  0
 28 30  1  0  0  0  0
 29 28  1  0  0  0  0
 30 32  2  0  0  0  0
 31 30  1  0  0  0  0
 33 32  1  0  0  0  0
 33 34  2  0  0  0  0
M  END
>  <minimizedAffinity>
-5.34955645

$$$$

 OpenBabel03252506233D

 34 37  0  0  0  0  0  0  0  0999 V2000
   36.2050   30.6590   41.0720 C   0  0  0  0  0  0  0  0  0  0  0  0
   35.1010   30.6120   41.1310 H   0  0  0  0  0  0  0  0  0  0  0  0
   36.6760   31.2200   41.8790 H   0  0  0  0  0  0  0  0  0  0  0  0
   38.0980   27.6550   41.5490 C   0  0  0  0  0  0  0  0  0  0  0  0
   37.0440   27.2190   40.7220 C   0  0  0  0  0  0  0  0  0  0  0  0
   36.2310   28.2730   40.4500 C   0  0  0  0  0  0  0  0  0  0  0  0
   36.7640   29.3170   41.0870 N   0  0  0  0  0  0  0  0  0  0  0  0
   37.8840   28.9600   41.7480 N   0  0  0  0  0  0  0  0  0  0  0  0
   36.9450   26.1850   40.3810 H   0  0  0  0  0  0  0  0  0  0  0  0
   35.3270   28.2800   39.8410 H   0  0  0  0  0  0  0  0  0  0  0  0
   40.4890   24.9080   41.7830 C   0  0  0  0  0  0  0  0  0  0  0  0
   41.1780   25.1830   42.9660 C   0  0  0  0  0  0  0  0  0  0  0  0
   40.8070   26.3260   43.6790 C   0  0  0  0  0  0  0  0  0  0  0  0
   39.8070   27.0890   43.1790 N   0  0  0  0  0  0  0  0  0  0  0  0
   39.1620   26.8050   42.0440 C   0  0  0  0  0  0  0  0  0  0  0  0
   39.5110   25.7110   41.3510 N   0  0  0  0  0  0  0  0  0  0  0  0
   40.7760   24.0190   41.2240 H   0  0  0  0  0  0  0  0  0  0  0  0
   41.9640   24.5260   43.2980 H   0  0  0  0  0  0  0  0  0  0  0  0
   41.3050   26.5820   44.5960 H   0  0  0  0  0  0  0  0  0  0  0  0
   36.5430   31.3120   39.7750 C   0  0  0  0  0  0  0  0  0  0  0  0
   35.7110   32.0550   39.5770 H   0  0  0  0  0  0  0  0  0  0  0  0
   36.3870   30.5560   38.9520 H   0  0  0  0  0  0  0  0  0  0  0  0
   38.6300   32.6130   40.6190 C   0  0  0  0  0  3  0  0  0  0  0  0
   37.8640   31.9420   39.6960 C   0  0  0  0  0  0  0  0  0  0  0  0
   38.4290   31.8080   38.4290 C   0  0  0  0  0  0  0  0  0  0  0  0
   37.9640   31.3060   37.5740 H   0  0  0  0  0  0  0  0  0  0  0  0
   39.6770   32.3110   38.1040 C   0  0  0  0  0  0  0  0  0  0  0  0
   40.4540   32.3340   37.0060 N   0  0  0  0  0  0  0  0  0  0  0  0
   40.1890   31.9060   36.0790 H   0  0  0  0  0  0  0  0  0  0  0  0
   41.6100   32.9740   37.2440 C   0  0  0  0  0  0  0  0  0  0  0  0
   42.4290   33.1440   36.5360 H   0  0  0  0  0  0  0  0  0  0  0  0
   41.6260   33.4050   38.5550 C   0  0  0  0  0  3  0  0  0  0  0  0
   40.4190   32.9780   39.0510 C   0  0  0  0  0  0  0  0  0  0  0  0
   39.8700   33.1160   40.3090 C   0  0  0  0  0  3  0  0  0  0  0  0
  1  7  1  0  0  0  0
  1  2  1  0  0  0  0
  1  3  1  0  0  0  0
  4  8  2  0  0  0  0
  4 15  1  0  0  0  0
  5  4  1  0  0  0  0
  6  5  2  0  0  0  0
  6  7  1  0  0  0  0
  7  8  1  0  0  0  0
  9  5  1  0  0  0  0
 10  6  1  0  0  0  0
 11 12  1  0  0  0  0
 12 18  1  0  0  0  0
 12 13  2  0  0  0  0
 13 19  1  0  0  0  0
 14 13  1  0  0  0  0
 15 14  2  0  0  0  0
 16 11  2  0  0  0  0
 16 15  1  0  0  0  0
 17 11  1  0  0  0  0
 20  1  1  0  0  0  0
 21 20  1  0  0  0  0
 22 20  1  0  0  0  0
 24 20  1  0  0  0  0
 24 23  2  0  0  0  0
 25 24  1  0  0  0  0
 26 25  1  0  0  0  0
 27 25  2  0  0  0  0
 27 33  1  0  0  0  0
 28 30  1  0  0  0  0
 28 27  1  0  0  0  0
 29 28  1  0  0  0  0
 30 32  2  0  0  0  0
 31 30  1  0  0  0  0
 32 33  1  0  0  0  0
 33 34  2  0  0  0  0
 34 23  1  0  0  0  0
M  END
>  <minimizedAffinity>
-5.28203773

$$$$
