
 OpenBabel03252506213D

 38 41  0  0  0  0  0  0  0  0999 V2000
   45.1290   36.5880   43.3100 C   0  0  0  0  0  0  0  0  0  0  0  0
   44.0830   36.4810   42.3790 C   0  0  0  0  0  0  0  0  0  0  0  0
   44.1690   35.4680   41.4140 C   0  0  0  0  0  0  0  0  0  0  0  0
   45.2510   34.6500   41.4300 N   0  0  0  0  0  0  0  0  0  0  0  0
   46.2390   34.7900   42.3480 C   0  0  0  0  0  0  0  0  0  0  0  0
   46.1750   35.7600   43.2870 N   0  0  0  0  0  0  0  0  0  0  0  0
   43.2340   37.1240   42.3690 H   0  0  0  0  0  0  0  0  0  0  0  0
   43.3890   35.3450   40.6760 H   0  0  0  0  0  0  0  0  0  0  0  0
   48.8460   35.9950   41.3970 Cl  0  0  0  0  0  0  0  0  0  0  0  0
   48.5980   34.3430   41.8560 C   0  0  0  0  0  0  0  0  0  0  0  0
   47.3710   33.8560   42.2840 C   0  0  0  0  0  0  0  0  0  0  0  0
   47.1520   32.5590   42.6520 C   0  0  0  0  0  0  0  0  0  0  0  0
   48.2250   31.6980   42.5850 C   0  0  0  0  0  0  0  0  0  0  0  0
   49.4940   32.0760   42.1710 C   0  0  0  0  0  0  0  0  0  0  0  0
   49.6110   33.4140   41.8210 C   0  0  0  0  0  0  0  0  0  0  0  0
   46.1930   32.1900   42.9840 H   0  0  0  0  0  0  0  0  0  0  0  0
   48.1150   30.6520   42.8640 H   0  0  0  0  0  0  0  0  0  0  0  0
   50.3360   31.4220   42.1140 H   0  0  0  0  0  0  0  0  0  0  0  0
   50.5870   33.7700   41.4870 H   0  0  0  0  0  0  0  0  0  0  0  0
   45.0310   37.6510   44.3180 C   0  0  0  0  0  3  0  0  0  0  0  0
   45.4780   38.8410   44.0260 C   0  0  0  0  0  3  0  0  0  0  0  0
   45.3920   39.9370   45.0270 C   0  0  0  0  0  0  0  0  0  0  0  0
   46.2750   40.6070   44.9900 H   0  0  0  0  0  0  0  0  0  0  0  0
   45.3360   39.5460   46.0610 H   0  0  0  0  0  0  0  0  0  0  0  0
   44.2110   40.7360   44.7030 N   0  0  0  0  0  0  0  0  0  0  0  0
   43.3680   40.3100   44.2190 H   0  0  0  0  0  0  0  0  0  0  0  0
   42.9190   42.8170   45.0000 C   0  0  0  0  0  3  0  0  0  0  0  0
   44.1180   42.1280   45.0110 C   0  0  0  0  0  0  0  0  0  0  0  0
   45.2440   42.8550   45.3380 C   0  0  0  0  0  0  0  0  0  0  0  0
   46.2230   42.4070   45.3750 H   0  0  0  0  0  0  0  0  0  0  0  0
   45.2410   44.2020   45.6490 C   0  0  0  0  0  0  0  0  0  0  0  0
   46.1780   45.1050   45.9910 N   0  0  0  0  0  0  0  0  0  0  0  0
   47.1860   44.9360   46.0950 H   0  0  0  0  0  0  0  0  0  0  0  0
   45.5960   46.3100   46.1860 C   0  0  0  0  0  0  0  0  0  0  0  0
   46.0180   47.2670   46.4670 H   0  0  0  0  0  0  0  0  0  0  0  0
   44.2400   46.1780   45.9630 C   0  0  0  0  0  3  0  0  0  0  0  0
   44.0070   44.8610   45.6260 C   0  0  0  0  0  0  0  0  0  0  0  0
   42.8610   44.1620   45.3020 C   0  0  0  0  0  3  0  0  0  0  0  0
  1 20  1  0  0  0  0
  2  1  2  0  0  0  0
  3  4  2  0  0  0  0
  3  2  1  0  0  0  0
  4  5  1  0  0  0  0
  5  6  2  0  0  0  0
  6  1  1  0  0  0  0
  7  2  1  0  0  0  0
  8  3  1  0  0  0  0
  9 10  1  0  0  0  0
 10 11  1  0  0  0  0
 11  5  1  0  0  0  0
 11 12  2  0  0  0  0
 12 16  1  0  0  0  0
 13 12  1  0  0  0  0
 13 17  1  0  0  0  0
 14 13  2  0  0  0  0
 15 10  2  0  0  0  0
 15 14  1  0  0  0  0
 18 14  1  0  0  0  0
 19 15  1  0  0  0  0
 21 20  2  0  0  0  0
 21 22  1  0  0  0  0
 22 24  1  0  0  0  0
 23 22  1  0  0  0  0
 25 28  1  0  0  0  0
 25 22  1  0  0  0  0
 26 25  1  0  0  0  0
 27 28  2  0  0  0  0
 27 38  1  0  0  0  0
 28 29  1  0  0  0  0
 29 30  1  0  0  0  0
 29 31  2  0  0  0  0
 31 32  1  0  0  0  0
 32 33  1  0  0  0  0
 32 34  1  0  0  0  0
 34 35  1  0  0  0  0
 36 34  2  0  0  0  0
 37 31  1  0  0  0  0
 37 36  1  0  0  0  0
 38 37  2  0  0  0  0
M  END
>  <minimizedAffinity>
-1.37230158

>  <minimizedRMSD>
0.77870059

$$$$
