
 OpenBabel03252505103D

 47 51  0  0  1  0  0  0  0  0999 V2000
   44.6330   35.4890   44.5440 C   0  0  0  0  0  0  0  0  0  0  0  0
   45.3270   35.4610   43.3100 C   0  0  0  0  0  0  0  0  0  0  0  0
   46.4230   34.5420   43.1830 C   0  0  0  0  0  0  0  0  0  0  0  0
   46.7360   33.7520   44.2530 N   0  0  0  0  0  0  0  0  0  0  0  0
   46.0500   33.8150   45.4000 C   0  0  0  0  0  0  0  0  0  0  0  0
   44.9940   34.6820   45.5570 N   0  0  0  0  0  0  0  0  0  0  0  0
   43.8140   36.1940   44.5970 H   0  0  0  0  0  0  0  0  0  0  0  0
   45.0700   36.0920   42.4670 H   0  0  0  0  0  0  0  0  0  0  0  0
   46.4350   32.9340   46.5370 C   0  0  2  0  0  0  0  0  0  0  0  0
   46.9700   31.6750   45.8890 C   0  0  0  0  0  0  0  0  0  0  0  0
   46.0840   30.5010   45.9210 C   0  0  0  0  0  0  0  0  0  0  0  0
   45.7680   30.2850   47.3970 C   0  0  0  0  0  0  0  0  0  0  0  0
   44.9670   31.3850   47.9570 C   0  0  0  0  0  0  0  0  0  0  0  0
   45.3630   32.7340   47.4680 C   0  0  0  0  0  0  0  0  0  0  0  0
   47.2770   33.4730   47.0390 H   0  0  0  0  0  0  0  0  0  0  0  0
   47.8970   31.3980   46.4380 H   0  0  0  0  0  0  0  0  0  0  0  0
   47.3180   31.8480   44.8420 H   0  0  0  0  0  0  0  0  0  0  0  0
   45.1450   30.7140   45.3990 H   0  0  0  0  0  0  0  0  0  0  0  0
   46.6320   29.6360   45.5540 H   0  0  0  0  0  0  0  0  0  0  0  0
   45.0630   29.4100   47.3850 H   0  0  0  0  0  0  0  0  0  0  0  0
   46.6370   29.9960   47.9890 H   0  0  0  0  0  0  0  0  0  0  0  0
   44.1590   31.4640   48.6340 H   0  0  0  0  0  0  0  0  0  0  0  0
   44.6690   33.8880   47.9280 N   0  0  0  0  0  0  0  0  0  0  0  0
   45.1240   34.5380   48.6240 H   0  0  0  0  0  0  0  0  0  0  0  0
   43.7150   34.2550   47.6940 H   0  0  0  0  0  0  0  0  0  0  0  0
   47.1500   34.4860   41.9400 C   0  0  0  0  0  0  0  0  0  0  0  0
   48.0170   35.4750   41.6400 C   0  0  0  0  0  0  0  0  0  0  0  0
   48.6960   35.3650   40.4140 C   0  0  0  0  0  0  0  0  0  0  0  0
   48.4060   34.2520   39.6370 C   0  0  0  0  0  0  0  0  0  0  0  0
   47.5270   33.2480   39.9440 C   0  0  0  0  0  0  0  0  0  0  0  0
   46.9110   33.4300   41.1470 N   0  0  0  0  0  0  0  0  0  0  0  0
   48.2060   36.3190   42.2780 H   0  0  0  0  0  0  0  0  0  0  0  0
   49.4110   36.1100   40.0860 H   0  0  0  0  0  0  0  0  0  0  0  0
   48.9500   34.1970   38.6950 H   0  0  0  0  0  0  0  0  0  0  0  0
   47.2960   32.1790   39.1180 O   0  0  0  0  0  0  0  0  0  0  0  0
   46.1390   32.3400   36.9370 C   0  0  0  0  0  3  0  0  0  0  0  0
   47.2320   32.2200   37.7570 C   0  0  0  0  0  0  0  0  0  0  0  0
   48.4800   32.1220   37.1400 C   0  0  0  0  0  0  0  0  0  0  0  0
   49.4390   32.0220   37.6540 H   0  0  0  0  0  0  0  0  0  0  0  0
   48.6190   32.1440   35.7620 C   0  0  0  0  0  0  0  0  0  0  0  0
   49.6620   32.0710   34.9030 N   0  0  0  0  0  0  0  0  0  0  0  0
   50.6650   31.9720   35.1920 H   0  0  0  0  0  0  0  0  0  0  0  0
   49.2380   32.1410   33.6460 C   0  0  0  0  0  0  0  0  0  0  0  0
   49.8530   32.1080   32.7430 H   0  0  0  0  0  0  0  0  0  0  0  0
   47.8730   32.2650   33.6340 C   0  0  0  0  0  3  0  0  0  0  0  0
   47.4920   32.2660   34.9610 C   0  0  0  0  0  0  0  0  0  0  0  0
   46.2560   32.3640   35.5570 C   0  0  0  0  0  3  0  0  0  0  0  0
  1  7  1  0  0  0  0
  1  6  1  0  0  0  0
  2  1  2  0  0  0  0
  3  2  1  0  0  0  0
  3  4  2  0  0  0  0
  4  5  1  0  0  0  0
  5  6  2  0  0  0  0
  5  9  1  0  0  0  0
  8  2  1  0  0  0  0
  9 15  1  1  0  0  0
  9 14  1  0  0  0  0
 10 11  1  0  0  0  0
 10 16  1  0  0  0  0
 10  9  1  0  0  0  0
 11 12  1  0  0  0  0
 12 13  1  0  0  0  0
 12 21  1  0  0  0  0
 13 22  1  0  0  0  0
 14 23  1  0  0  0  0
 14 13  2  0  0  0  0
 17 10  1  0  0  0  0
 18 11  1  0  0  0  0
 19 11  1  0  0  0  0
 20 12  1  0  0  0  0
 23 24  1  0  0  0  0
 25 23  1  0  0  0  0
 26  3  1  0  0  0  0
 27 26  1  0  0  0  0
 27 32  1  0  0  0  0
 28 27  2  0  0  0  0
 29 30  2  0  0  0  0
 29 28  1  0  0  0  0
 30 31  1  0  0  0  0
 31 26  2  0  0  0  0
 33 28  1  0  0  0  0
 34 29  1  0  0  0  0
 35 30  1  0  0  0  0
 36 37  1  0  0  0  0
 37 35  1  0  0  0  0
 38 39  1  0  0  0  0
 38 37  2  0  0  0  0
 40 38  1  0  0  0  0
 41 42  1  0  0  0  0
 41 40  1  0  0  0  0
 43 41  1  0  0  0  0
 44 43  1  0  0  0  0
 45 43  2  0  0  0  0
 45 46  1  0  0  0  0
 46 47  1  0  0  0  0
 46 40  2  0  0  0  0
 47 36  2  0  0  0  0
M  END
>  <minimizedAffinity>
-7.55055714

>  <minimizedRMSD>
0.824493647

$$$$
