
 OpenBabel03242522423D

 50 54  0  0  0  0  0  0  0  0999 V2000
   46.6140   32.4840   44.4290 C   0  0  0  0  0  0  0  0  0  0  0  0
   46.3070   31.9510   43.4700 H   0  0  0  0  0  0  0  0  0  0  0  0
   47.6720   32.5840   44.5870 H   0  0  0  0  0  0  0  0  0  0  0  0
   46.0060   34.3420   42.9710 C   0  0  0  0  0  0  0  0  0  0  0  0
   45.9610   33.7870   44.2480 C   0  0  0  0  0  0  0  0  0  0  0  0
   45.3460   34.3340   45.3090 C   0  0  0  0  0  0  0  0  0  0  0  0
   44.6990   35.5390   45.1420 C   0  0  0  0  0  0  0  0  0  0  0  0
   44.6750   36.1720   43.9380 C   0  0  0  0  0  0  0  0  0  0  0  0
   45.3270   35.5620   42.8800 C   0  0  0  0  0  0  0  0  0  0  0  0
   45.2360   34.0090   46.3030 H   0  0  0  0  0  0  0  0  0  0  0  0
   44.1600   36.0960   45.9130 H   0  0  0  0  0  0  0  0  0  0  0  0
   44.1840   37.1270   43.7230 H   0  0  0  0  0  0  0  0  0  0  0  0
   45.3210   36.0490   41.9060 H   0  0  0  0  0  0  0  0  0  0  0  0
   46.7480   33.6750   41.5820 S   0  0  0  0  0  0  0  0  0  0  0  0
   47.4870   34.8320   40.8150 O   0  0  0  0  0  0  0  0  0  0  0  0
   45.7140   33.2530   40.5900 O   0  0  0  0  0  0  0  0  0  0  0  0
   48.1090   31.3400   42.3070 C   0  0  0  0  0  3  0  0  0  0  0  0
   48.1070   32.6340   41.7430 C   0  0  0  0  0  0  0  0  0  0  0  0
   49.4180   32.9260   41.3170 C   0  0  0  0  0  0  0  0  0  0  0  0
   49.5400   33.9200   40.8550 H   0  0  0  0  0  0  0  0  0  0  0  0
   50.5160   32.1090   41.4220 C   0  0  0  0  0  0  0  0  0  0  0  0
   51.7840   32.3350   41.0340 N   0  0  0  0  0  0  0  0  0  0  0  0
   52.2130   33.1720   40.5720 H   0  0  0  0  0  0  0  0  0  0  0  0
   52.4760   31.2300   41.3590 C   0  0  0  0  0  0  0  0  0  0  0  0
   53.5260   31.0110   41.2140 H   0  0  0  0  0  0  0  0  0  0  0  0
   51.6140   30.3100   41.9560 C   0  0  0  0  0  3  0  0  0  0  0  0
   50.3630   30.8880   41.9890 C   0  0  0  0  0  0  0  0  0  0  0  0
   49.1470   30.4720   42.4480 C   0  0  0  0  0  3  0  0  0  0  0  0
   45.9910   31.5750   45.4400 C   0  0  0  0  0  0  0  0  0  0  0  0
   44.9560   31.8710   45.7600 H   0  0  0  0  0  0  0  0  0  0  0  0
   45.7840   30.5280   45.0590 H   0  0  0  0  0  0  0  0  0  0  0  0
   47.0680   32.3830   47.5160 C   0  0  0  0  0  0  0  0  0  0  0  0
   46.9380   31.3780   46.5320 C   0  0  0  0  0  0  0  0  0  0  0  0
   47.6930   30.2300   46.6760 C   0  0  0  0  0  0  0  0  0  0  0  0
   48.5110   30.1270   47.7480 N   0  0  0  0  0  0  0  0  0  0  0  0
   48.6110   31.0890   48.6620 C   0  0  0  0  0  0  0  0  0  0  0  0
   47.8940   32.2320   48.5650 N   0  0  0  0  0  0  0  0  0  0  0  0
   46.5800   33.3370   47.5810 H   0  0  0  0  0  0  0  0  0  0  0  0
   47.5900   29.4660   45.9170 H   0  0  0  0  0  0  0  0  0  0  0  0
   49.5360   30.8830   49.8270 C   0  0  0  0  0  0  0  0  0  0  0  0
   49.0180   31.1830   50.7800 H   0  0  0  0  0  0  0  0  0  0  0  0
   49.7290   29.7990   49.9550 H   0  0  0  0  0  0  0  0  0  0  0  0
   50.8030   31.5820   49.6890 C   0  0  0  0  0  0  0  0  0  0  0  0
   51.9500   31.0690   49.1140 C   0  0  0  0  0  0  0  0  0  0  0  0
   52.9380   32.0150   49.1660 C   0  0  0  0  0  0  0  0  0  0  0  0
   52.3520   33.0880   49.7790 N   0  0  0  0  0  0  0  0  0  0  0  0
   51.0840   32.8370   50.0930 N   0  0  0  0  0  0  0  0  0  0  0  0
   52.1370   30.0910   48.6680 H   0  0  0  0  0  0  0  0  0  0  0  0
   53.9710   32.0710   48.8530 H   0  0  0  0  0  0  0  0  0  0  0  0
   52.7310   34.0420   50.0330 H   0  0  0  0  0  0  0  0  0  0  0  0
  1  3  1  0  0  0  0
  1 29  1  0  0  0  0
  2  1  1  0  0  0  0
  4  5  1  0  0  0  0
  5  1  1  0  0  0  0
  5  6  2  0  0  0  0
  6 10  1  0  0  0  0
  7  6  1  0  0  0  0
  7 11  1  0  0  0  0
  8  7  2  0  0  0  0
  9  4  2  0  0  0  0
  9  8  1  0  0  0  0
 12  8  1  0  0  0  0
 13  9  1  0  0  0  0
 14 18  1  0  0  0  0
 14  4  1  0  0  0  0
 15 14  2  0  0  0  0
 16 14  2  0  0  0  0
 17 28  1  0  0  0  0
 18 17  2  0  0  0  0
 19 21  2  0  0  0  0
 19 18  1  0  0  0  0
 20 19  1  0  0  0  0
 21 27  1  0  0  0  0
 22 24  1  0  0  0  0
 22 21  1  0  0  0  0
 23 22  1  0  0  0  0
 24 26  2  0  0  0  0
 25 24  1  0  0  0  0
 26 27  1  0  0  0  0
 27 28  2  0  0  0  0
 29 30  1  0  0  0  0
 29 33  1  0  0  0  0
 31 29  1  0  0  0  0
 32 38  1  0  0  0  0
 32 37  1  0  0  0  0
 33 34  1  0  0  0  0
 33 32  2  0  0  0  0
 34 35  2  0  0  0  0
 35 36  1  0  0  0  0
 36 40  1  0  0  0  0
 37 36  2  0  0  0  0
 39 34  1  0  0  0  0
 40 42  1  0  0  0  0
 40 41  1  0  0  0  0
 43 40  1  0  0  0  0
 43 47  2  0  0  0  0
 44 45  2  0  0  0  0
 44 43  1  0  0  0  0
 45 46  1  0  0  0  0
 46 50  1  0  0  0  0
 46 47  1  0  0  0  0
 48 44  1  0  0  0  0
 49 45  1  0  0  0  0
M  END
>  <minimizedAffinity>
-6.46954203

>  <minimizedRMSD>
0.500733495

$$$$
