
 OpenBabel03252502523D

 34 37  0  0  0  0  0  0  0  0999 V2000
   46.1030   32.1490   45.6380 Br  0  0  0  0  0  0  0  0  0  0  0  0
   46.9530   30.5700   44.9320 C   0  0  0  0  0  0  0  0  0  0  0  0
   46.7250   29.3930   45.6280 C   0  0  0  0  0  0  0  0  0  0  0  0
   47.3600   28.2840   45.0800 C   0  0  0  0  0  0  0  0  0  0  0  0
   48.1520   28.3130   43.9500 C   0  0  0  0  0  0  0  0  0  0  0  0
   48.3270   29.5180   43.3200 C   0  0  0  0  0  0  0  0  0  0  0  0
   47.7250   30.6800   43.8050 C   0  0  0  0  0  0  0  0  0  0  0  0
   47.2360   27.3190   45.5600 H   0  0  0  0  0  0  0  0  0  0  0  0
   48.6070   27.4160   43.5880 H   0  0  0  0  0  0  0  0  0  0  0  0
   48.9530   29.5090   42.4370 H   0  0  0  0  0  0  0  0  0  0  0  0
   47.1530   32.0960   41.9860 C   0  0  0  0  0  3  0  0  0  0  0  0
   47.9470   31.9160   43.1000 C   0  0  0  0  0  0  0  0  0  0  0  0
   48.8390   32.9150   43.4030 C   0  0  0  0  0  0  0  0  0  0  0  0
   49.4460   32.7450   44.2800 H   0  0  0  0  0  0  0  0  0  0  0  0
   48.9690   34.0550   42.6620 C   0  0  0  0  0  0  0  0  0  0  0  0
   49.7900   35.0870   42.8500 N   0  0  0  0  0  0  0  0  0  0  0  0
   50.4910   35.2010   43.6170 H   0  0  0  0  0  0  0  0  0  0  0  0
   49.5640   35.9700   41.8740 C   0  0  0  0  0  0  0  0  0  0  0  0
   50.0910   36.9130   41.7750 H   0  0  0  0  0  0  0  0  0  0  0  0
   48.5660   35.4690   41.0490 C   0  0  0  0  0  3  0  0  0  0  0  0
   48.1780   34.2400   41.5460 C   0  0  0  0  0  0  0  0  0  0  0  0
   47.2770   33.2470   41.2290 C   0  0  0  0  0  3  0  0  0  0  0  0
   45.9120   29.2420   46.8280 C   0  0  0  0  0  0  0  0  0  0  0  0
   46.5370   28.9670   47.6990 H   0  0  0  0  0  0  0  0  0  0  0  0
   45.4390   30.2430   47.0430 H   0  0  0  0  0  0  0  0  0  0  0  0
   43.5800   26.3250   47.0950 C   0  0  0  0  0  0  0  0  0  0  0  0
   42.5880   26.6740   46.1690 C   0  0  0  0  0  0  0  0  0  0  0  0
   42.7270   27.8710   45.4860 C   0  0  0  0  0  0  0  0  0  0  0  0
   43.8120   28.6640   45.7310 N   0  0  0  0  0  0  0  0  0  0  0  0
   44.7660   28.2960   46.6410 C   0  0  0  0  0  0  0  0  0  0  0  0
   44.6200   27.1250   47.3030 N   0  0  0  0  0  0  0  0  0  0  0  0
   43.4890   25.4020   47.6330 H   0  0  0  0  0  0  0  0  0  0  0  0
   41.7260   26.0500   45.9720 H   0  0  0  0  0  0  0  0  0  0  0  0
   42.0110   28.2290   44.7500 H   0  0  0  0  0  0  0  0  0  0  0  0
  2  3  1  0  0  0  0
  2  1  1  0  0  0  0
  3 23  1  0  0  0  0
  4  8  1  0  0  0  0
  4  3  2  0  0  0  0
  5  4  1  0  0  0  0
  6  7  1  0  0  0  0
  6  5  2  0  0  0  0
  7  2  2  0  0  0  0
  9  5  1  0  0  0  0
 10  6  1  0  0  0  0
 11 12  1  0  0  0  0
 12 13  2  0  0  0  0
 12  7  1  0  0  0  0
 13 14  1  0  0  0  0
 15 16  1  0  0  0  0
 15 13  1  0  0  0  0
 16 17  1  0  0  0  0
 18 16  1  0  0  0  0
 19 18  1  0  0  0  0
 20 21  1  0  0  0  0
 20 18  2  0  0  0  0
 21 15  2  0  0  0  0
 22 21  1  0  0  0  0
 22 11  2  0  0  0  0
 23 25  1  0  0  0  0
 23 24  1  0  0  0  0
 26 31  1  0  0  0  0
 26 32  1  0  0  0  0
 27 26  2  0  0  0  0
 28 29  2  0  0  0  0
 28 27  1  0  0  0  0
 29 30  1  0  0  0  0
 30 23  1  0  0  0  0
 30 31  2  0  0  0  0
 33 27  1  0  0  0  0
 34 28  1  0  0  0  0
M  END
>  <minimizedAffinity>
-4.35874939

>  <minimizedRMSD>
8.37808418

$$$$
