
 OpenBabel03242517563D

 46 49  0  0  0  0  0  0  0  0999 V2000
   45.5060   30.1620   47.2910 C   0  0  0  0  0  0  0  0  0  0  0  0
   46.0680   31.2380   46.6970 C   0  0  0  0  0  0  0  0  0  0  0  0
   46.2350   32.3890   47.4450 C   0  0  0  0  0  0  0  0  0  0  0  0
   45.8540   32.4810   48.7620 C   0  0  0  0  0  0  0  0  0  0  0  0
   45.2840   31.3790   49.3580 C   0  0  0  0  0  0  0  0  0  0  0  0
   45.1130   30.2210   48.6120 C   0  0  0  0  0  0  0  0  0  0  0  0
   46.6750   33.2920   47.0460 H   0  0  0  0  0  0  0  0  0  0  0  0
   45.9860   33.3850   49.3460 H   0  0  0  0  0  0  0  0  0  0  0  0
   44.9490   31.3400   50.3780 H   0  0  0  0  0  0  0  0  0  0  0  0
   44.6650   29.3000   49.0160 H   0  0  0  0  0  0  0  0  0  0  0  0
   45.2260   28.7790   46.2640 S   0  0  0  0  0  0  0  0  0  0  0  0
   44.4250   29.0640   45.0620 O   0  0  0  0  0  0  0  0  0  0  0  0
   44.3470   27.8220   47.1050 O   0  0  0  0  0  0  0  0  0  0  0  0
   46.9750   26.6500   46.7130 C   0  0  0  0  0  3  0  0  0  0  0  0
   46.6590   27.8060   46.0320 C   0  0  0  0  0  0  0  0  0  0  0  0
   47.6210   28.1620   45.0790 C   0  0  0  0  0  0  0  0  0  0  0  0
   47.4040   29.0810   44.5130 H   0  0  0  0  0  0  0  0  0  0  0  0
   48.7870   27.4890   44.7880 C   0  0  0  0  0  0  0  0  0  0  0  0
   49.7490   27.7610   43.9000 N   0  0  0  0  0  0  0  0  0  0  0  0
   49.8290   28.5520   43.2260 H   0  0  0  0  0  0  0  0  0  0  0  0
   50.6470   26.7570   44.0550 C   0  0  0  0  0  0  0  0  0  0  0  0
   51.5610   26.6420   43.5020 H   0  0  0  0  0  0  0  0  0  0  0  0
   50.2360   25.8680   45.0370 C   0  0  0  0  0  3  0  0  0  0  0  0
   49.0310   26.3440   45.5100 C   0  0  0  0  0  0  0  0  0  0  0  0
   48.1280   25.9370   46.4610 C   0  0  0  0  0  3  0  0  0  0  0  0
   46.5210   31.3470   45.3830 O   0  0  0  0  0  0  0  0  0  0  0  0
   45.3090   34.2460   43.7730 C   0  0  0  0  0  0  0  0  0  0  0  0
   46.4650   34.7510   43.1510 C   0  0  0  0  0  0  0  0  0  0  0  0
   47.6520   34.0840   43.2930 C   0  0  0  0  0  0  0  0  0  0  0  0
   47.6180   32.9680   44.0400 N   0  0  0  0  0  0  0  0  0  0  0  0
   46.5340   32.4940   44.6240 C   0  0  0  0  0  0  0  0  0  0  0  0
   45.3770   33.1330   44.4910 N   0  0  0  0  0  0  0  0  0  0  0  0
   44.3790   34.7740   43.6570 H   0  0  0  0  0  0  0  0  0  0  0  0
   46.3360   35.6560   42.5830 H   0  0  0  0  0  0  0  0  0  0  0  0
   48.9130   34.5020   42.6650 C   0  0  0  0  0  0  0  0  0  0  0  0
   49.2930   33.6290   42.0780 H   0  0  0  0  0  0  0  0  0  0  0  0
   49.6940   34.7150   43.4240 H   0  0  0  0  0  0  0  0  0  0  0  0
   48.7360   35.6620   41.7300 C   0  0  0  0  0  0  0  0  0  0  0  0
   49.7300   36.2160   41.7870 H   0  0  0  0  0  0  0  0  0  0  0  0
   48.0050   36.3930   42.0310 H   0  0  0  0  0  0  0  0  0  0  0  0
   48.6080   35.2690   40.3260 C   0  0  0  0  0  3  0  0  0  0  0  0
   48.0420   34.3520   39.5520 C   0  0  0  0  0  3  0  0  0  0  0  0
   48.2310   34.1910   38.0530 C   0  0  0  0  0  0  0  0  0  0  0  0
   48.8830   35.0340   37.7500 H   0  0  0  0  0  0  0  0  0  0  0  0
   48.6650   33.1960   37.8580 H   0  0  0  0  0  0  0  0  0  0  0  0
   47.2340   34.3590   37.6170 H   0  0  0  0  0  0  0  0  0  0  0  0
  1  6  1  0  0  0  0
  2  1  2  0  0  0  0
  2  3  1  0  0  0  0
  3  4  2  0  0  0  0
  4  8  1  0  0  0  0
  4  5  1  0  0  0  0
  5  9  1  0  0  0  0
  6 10  1  0  0  0  0
  6  5  2  0  0  0  0
  7  3  1  0  0  0  0
 11 13  2  0  0  0  0
 11  1  1  0  0  0  0
 12 11  2  0  0  0  0
 15 11  1  0  0  0  0
 15 14  2  0  0  0  0
 16 15  1  0  0  0  0
 17 16  1  0  0  0  0
 18 16  2  0  0  0  0
 18 24  1  0  0  0  0
 19 21  1  0  0  0  0
 19 18  1  0  0  0  0
 20 19  1  0  0  0  0
 21 23  2  0  0  0  0
 22 21  1  0  0  0  0
 23 24  1  0  0  0  0
 24 25  2  0  0  0  0
 25 14  1  0  0  0  0
 26  2  1  0  0  0  0
 27 32  1  0  0  0  0
 28 29  1  0  0  0  0
 28 27  2  0  0  0  0
 29 30  2  0  0  0  0
 30 31  1  0  0  0  0
 31 26  1  0  0  0  0
 32 31  2  0  0  0  0
 33 27  1  0  0  0  0
 34 28  1  0  0  0  0
 35 29  1  0  0  0  0
 35 37  1  0  0  0  0
 36 35  1  0  0  0  0
 38 39  1  0  0  0  0
 38 40  1  0  0  0  0
 38 35  1  0  0  0  0
 41 38  1  0  0  0  0
 42 41  2  0  0  0  0
 43 42  1  0  0  0  0
 44 43  1  0  0  0  0
 45 43  1  0  0  0  0
 46 43  1  0  0  0  0
M  END
>  <minimizedAffinity>
-5.58970308

>  <minimizedRMSD>
2.05807376

$$$$
