
 OpenBabel03242522423D

 50 54  0  0  0  0  0  0  0  0999 V2000
   46.6110   32.5420   44.4720 C   0  0  0  0  0  0  0  0  0  0  0  0
   46.2960   31.9890   43.5270 H   0  0  0  0  0  0  0  0  0  0  0  0
   47.6700   32.6290   44.6280 H   0  0  0  0  0  0  0  0  0  0  0  0
   46.1450   34.4310   43.0020 C   0  0  0  0  0  0  0  0  0  0  0  0
   45.9790   33.8500   44.2580 C   0  0  0  0  0  0  0  0  0  0  0  0
   45.2660   34.3760   45.2660 C   0  0  0  0  0  0  0  0  0  0  0  0
   44.6390   35.5860   45.0640 C   0  0  0  0  0  0  0  0  0  0  0  0
   44.7290   36.2440   43.8770 C   0  0  0  0  0  0  0  0  0  0  0  0
   45.4780   35.6550   42.8730 C   0  0  0  0  0  0  0  0  0  0  0  0
   45.0620   34.0300   46.2380 H   0  0  0  0  0  0  0  0  0  0  0  0
   44.0300   36.1280   45.7920 H   0  0  0  0  0  0  0  0  0  0  0  0
   44.2610   37.2040   43.6370 H   0  0  0  0  0  0  0  0  0  0  0  0
   45.5650   36.1610   41.9130 H   0  0  0  0  0  0  0  0  0  0  0  0
   47.0150   33.7910   41.6760 S   0  0  0  0  0  0  0  0  0  0  0  0
   47.6320   34.9910   40.8680 O   0  0  0  0  0  0  0  0  0  0  0  0
   46.0790   33.1910   40.6790 O   0  0  0  0  0  0  0  0  0  0  0  0
   49.7640   33.5140   42.1190 C   0  0  0  0  0  3  0  0  0  0  0  0
   48.4860   32.9400   41.9360 C   0  0  0  0  0  0  0  0  0  0  0  0
   48.6210   31.5410   42.0190 C   0  0  0  0  0  0  0  0  0  0  0  0
   47.6780   30.9800   41.8890 H   0  0  0  0  0  0  0  0  0  0  0  0
   49.7800   30.8380   42.2370 C   0  0  0  0  0  0  0  0  0  0  0  0
   49.9630   29.5090   42.3230 N   0  0  0  0  0  0  0  0  0  0  0  0
   49.2770   28.7220   42.2460 H   0  0  0  0  0  0  0  0  0  0  0  0
   51.2790   29.3280   42.5450 C   0  0  0  0  0  0  0  0  0  0  0  0
   51.8310   28.4080   42.6750 H   0  0  0  0  0  0  0  0  0  0  0  0
   51.9070   30.5730   42.5940 C   0  0  0  0  0  3  0  0  0  0  0  0
   50.9350   31.5280   42.3950 C   0  0  0  0  0  0  0  0  0  0  0  0
   50.9540   32.8920   42.3390 C   0  0  0  0  0  3  0  0  0  0  0  0
   45.9730   31.6690   45.5050 C   0  0  0  0  0  0  0  0  0  0  0  0
   44.9570   32.0090   45.8420 H   0  0  0  0  0  0  0  0  0  0  0  0
   45.7180   30.6270   45.1410 H   0  0  0  0  0  0  0  0  0  0  0  0
   47.1140   32.4530   47.5570 C   0  0  0  0  0  0  0  0  0  0  0  0
   46.9330   31.4470   46.5820 C   0  0  0  0  0  0  0  0  0  0  0  0
   47.6530   30.2760   46.7190 C   0  0  0  0  0  0  0  0  0  0  0  0
   48.4870   30.1530   47.7760 N   0  0  0  0  0  0  0  0  0  0  0  0
   48.6350   31.1170   48.6830 C   0  0  0  0  0  0  0  0  0  0  0  0
   47.9540   32.2820   48.5910 N   0  0  0  0  0  0  0  0  0  0  0  0
   46.6580   33.4230   47.6240 H   0  0  0  0  0  0  0  0  0  0  0  0
   47.5120   29.5120   45.9660 H   0  0  0  0  0  0  0  0  0  0  0  0
   49.5750   30.8870   49.8310 C   0  0  0  0  0  0  0  0  0  0  0  0
   49.0690   31.1700   50.7960 H   0  0  0  0  0  0  0  0  0  0  0  0
   49.7670   29.8000   49.9360 H   0  0  0  0  0  0  0  0  0  0  0  0
   50.8420   31.5860   49.6900 C   0  0  0  0  0  0  0  0  0  0  0  0
   51.9860   31.0760   49.1080 C   0  0  0  0  0  0  0  0  0  0  0  0
   52.9730   32.0220   49.1600 C   0  0  0  0  0  0  0  0  0  0  0  0
   52.3910   33.0920   49.7800 N   0  0  0  0  0  0  0  0  0  0  0  0
   51.1240   32.8390   50.0990 N   0  0  0  0  0  0  0  0  0  0  0  0
   52.1700   30.1000   48.6560 H   0  0  0  0  0  0  0  0  0  0  0  0
   54.0050   32.0790   48.8420 H   0  0  0  0  0  0  0  0  0  0  0  0
   52.7710   34.0440   50.0360 H   0  0  0  0  0  0  0  0  0  0  0  0
  1  3  1  0  0  0  0
  1 29  1  0  0  0  0
  2  1  1  0  0  0  0
  4  5  1  0  0  0  0
  5  1  1  0  0  0  0
  5  6  2  0  0  0  0
  6 10  1  0  0  0  0
  7  6  1  0  0  0  0
  7 11  1  0  0  0  0
  8  7  2  0  0  0  0
  9  4  2  0  0  0  0
  9  8  1  0  0  0  0
 12  8  1  0  0  0  0
 13  9  1  0  0  0  0
 14 18  1  0  0  0  0
 14  4  1  0  0  0  0
 15 14  2  0  0  0  0
 16 14  2  0  0  0  0
 17 28  1  0  0  0  0
 18 19  1  0  0  0  0
 18 17  2  0  0  0  0
 19 21  2  0  0  0  0
 20 19  1  0  0  0  0
 21 22  1  0  0  0  0
 21 27  1  0  0  0  0
 22 24  1  0  0  0  0
 23 22  1  0  0  0  0
 24 26  2  0  0  0  0
 24 25  1  0  0  0  0
 27 26  1  0  0  0  0
 28 27  2  0  0  0  0
 29 30  1  0  0  0  0
 29 33  1  0  0  0  0
 31 29  1  0  0  0  0
 32 38  1  0  0  0  0
 32 37  1  0  0  0  0
 33 34  1  0  0  0  0
 33 32  2  0  0  0  0
 34 35  2  0  0  0  0
 35 36  1  0  0  0  0
 36 40  1  0  0  0  0
 37 36  2  0  0  0  0
 39 34  1  0  0  0  0
 40 42  1  0  0  0  0
 40 41  1  0  0  0  0
 43 40  1  0  0  0  0
 43 47  2  0  0  0  0
 44 45  2  0  0  0  0
 44 43  1  0  0  0  0
 45 46  1  0  0  0  0
 46 50  1  0  0  0  0
 46 47  1  0  0  0  0
 48 44  1  0  0  0  0
 49 45  1  0  0  0  0
M  END
>  <minimizedAffinity>
-6.4676733

>  <minimizedRMSD>
0.758892834

$$$$
