
 OpenBabel03242521433D

 41 44  0  0  1  0  0  0  0  0999 V2000
   45.3390   34.0960   44.0080 C   0  0  0  0  0  0  0  0  0  0  0  0
   46.4310   33.5120   43.3710 C   0  0  0  0  0  0  0  0  0  0  0  0
   47.3980   32.8390   44.1170 C   0  0  0  0  0  0  0  0  0  0  0  0
   47.2170   32.7920   45.4370 N   0  0  0  0  0  0  0  0  0  0  0  0
   46.1570   33.3590   46.0530 C   0  0  0  0  0  0  0  0  0  0  0  0
   45.2120   34.0130   45.3500 N   0  0  0  0  0  0  0  0  0  0  0  0
   46.4590   33.6190   42.3170 H   0  0  0  0  0  0  0  0  0  0  0  0
   46.0880   33.2720   47.1370 H   0  0  0  0  0  0  0  0  0  0  0  0
   49.2450   33.1960   42.4950 C   0  0  2  0  0  0  0  0  0  0  0  0
   48.5100   32.2550   43.3850 C   0  0  2  0  0  0  0  0  0  0  0  0
   48.1250   31.2480   42.4530 O   0  0  0  0  0  0  0  0  0  0  0  0
   49.3120   30.9570   41.8230 C   0  0  0  0  0  0  0  0  0  0  0  0
   50.2000   32.1750   41.8400 C   0  0  1  0  0  0  0  0  0  0  0  0
   48.5850   33.5100   41.6670 H   0  0  0  0  0  0  0  0  0  0  0  0
   49.1450   31.7120   44.1130 H   0  0  0  0  0  0  0  0  0  0  0  0
   49.0790   30.7660   40.7360 H   0  0  0  0  0  0  0  0  0  0  0  0
   49.8120   30.0400   42.1740 H   0  0  0  0  0  0  0  0  0  0  0  0
   51.0670   31.9630   42.4730 H   0  0  0  0  0  0  0  0  0  0  0  0
   49.8800   34.2150   43.1360 O   0  0  0  0  0  0  0  0  0  0  0  0
   50.6830   34.4620   42.6240 H   0  0  0  0  0  0  0  0  0  0  0  0
   50.5420   32.6420   40.5730 O   0  0  0  0  0  0  0  0  0  0  0  0
   49.7950   33.1490   40.1770 H   0  0  0  0  0  0  0  0  0  0  0  0
   44.3110   34.8230   43.1830 C   0  0  0  0  0  0  0  0  0  0  0  0
   44.5580   34.7130   42.1280 H   0  0  0  0  0  0  0  0  0  0  0  0
   43.3290   34.3680   43.4680 H   0  0  0  0  0  0  0  0  0  0  0  0
   45.3510   37.1540   43.4750 C   0  0  0  0  0  0  0  0  0  0  0  0
   46.4190   36.7320   42.9080 O   0  0  0  0  0  0  0  0  0  0  0  0
   44.3190   36.2020   43.6210 N   0  0  0  0  0  0  0  0  0  0  0  0
   43.4540   36.5280   44.1050 H   0  0  0  0  0  0  0  0  0  0  0  0
   45.3120   39.6820   43.1850 C   0  0  0  0  0  3  0  0  0  0  0  0
   45.2210   38.5310   43.9360 C   0  0  0  0  0  0  0  0  0  0  0  0
   44.9730   38.7290   45.2980 C   0  0  0  0  0  0  0  0  0  0  0  0
   44.8910   37.8530   45.9460 H   0  0  0  0  0  0  0  0  0  0  0  0
   44.8250   39.9660   45.8920 C   0  0  0  0  0  0  0  0  0  0  0  0
   44.5890   40.3560   47.1510 N   0  0  0  0  0  0  0  0  0  0  0  0
   44.4740   39.6840   47.9420 H   0  0  0  0  0  0  0  0  0  0  0  0
   44.5370   41.7150   47.1680 C   0  0  0  0  0  0  0  0  0  0  0  0
   44.3560   42.2950   48.0800 H   0  0  0  0  0  0  0  0  0  0  0  0
   44.7420   42.2100   45.9020 C   0  0  0  0  0  3  0  0  0  0  0  0
   44.9220   41.0950   45.1090 C   0  0  0  0  0  0  0  0  0  0  0  0
   45.1650   40.9250   43.7630 C   0  0  0  0  0  3  0  0  0  0  0  0
  1  6  1  0  0  0  0
  2  1  2  0  0  0  0
  2  3  1  0  0  0  0
  3  4  2  0  0  0  0
  4  5  1  0  0  0  0
  5  8  1  0  0  0  0
  6  5  2  0  0  0  0
  7  2  1  0  0  0  0
  9 14  1  6  0  0  0
  9 19  1  0  0  0  0
  9 10  1  0  0  0  0
 10 15  1  1  0  0  0
 10  3  1  0  0  0  0
 11 10  1  0  0  0  0
 12 13  1  0  0  0  0
 12 17  1  0  0  0  0
 12 11  1  0  0  0  0
 13 18  1  1  0  0  0
 13  9  1  0  0  0  0
 16 12  1  0  0  0  0
 20 19  1  0  0  0  0
 21 13  1  0  0  0  0
 22 21  1  0  0  0  0
 23 25  1  0  0  0  0
 23 28  1  0  0  0  0
 23  1  1  0  0  0  0
 24 23  1  0  0  0  0
 26 28  1  0  0  0  0
 26 31  1  0  0  0  0
 27 26  2  0  0  0  0
 28 29  1  0  0  0  0
 30 41  2  0  0  0  0
 30 31  1  0  0  0  0
 31 32  2  0  0  0  0
 32 34  1  0  0  0  0
 32 33  1  0  0  0  0
 34 35  1  0  0  0  0
 35 37  1  0  0  0  0
 35 36  1  0  0  0  0
 37 38  1  0  0  0  0
 39 37  2  0  0  0  0
 40 34  2  0  0  0  0
 40 39  1  0  0  0  0
 41 40  1  0  0  0  0
M  END
>  <minimizedAffinity>
-2.56296873

>  <minimizedRMSD>
2.00748467

$$$$
