
 OpenBabel03242521433D

 41 44  0  0  1  0  0  0  0  0999 V2000
   45.2320   34.7630   43.8110 C   0  0  0  0  0  0  0  0  0  0  0  0
   45.9180   34.2930   42.6930 C   0  0  0  0  0  0  0  0  0  0  0  0
   46.8140   33.2320   42.8170 C   0  0  0  0  0  0  0  0  0  0  0  0
   46.9670   32.7110   44.0350 N   0  0  0  0  0  0  0  0  0  0  0  0
   46.3000   33.1670   45.1170 C   0  0  0  0  0  0  0  0  0  0  0  0
   45.4310   34.1920   45.0170 N   0  0  0  0  0  0  0  0  0  0  0  0
   45.7080   34.7920   41.7810 H   0  0  0  0  0  0  0  0  0  0  0  0
   46.4870   32.6820   46.0750 H   0  0  0  0  0  0  0  0  0  0  0  0
   48.2270   33.8640   40.8750 C   0  0  2  0  0  0  0  0  0  0  0  0
   47.4940   32.7960   41.6080 C   0  0  2  0  0  0  0  0  0  0  0  0
   46.6180   32.3210   40.5890 O   0  0  0  0  0  0  0  0  0  0  0  0
   47.4780   32.0970   39.5400 C   0  0  0  0  0  0  0  0  0  0  0  0
   48.6550   33.0320   39.6480 C   0  0  1  0  0  0  0  0  0  0  0  0
   47.5040   34.5900   40.4630 H   0  0  0  0  0  0  0  0  0  0  0  0
   48.1040   31.9070   41.8670 H   0  0  0  0  0  0  0  0  0  0  0  0
   46.9400   32.3930   38.5940 H   0  0  0  0  0  0  0  0  0  0  0  0
   47.7610   31.0430   39.3890 H   0  0  0  0  0  0  0  0  0  0  0  0
   49.5520   32.4380   39.8500 H   0  0  0  0  0  0  0  0  0  0  0  0
   49.2660   34.4200   41.5560 O   0  0  0  0  0  0  0  0  0  0  0  0
   49.9550   34.7010   40.9120 H   0  0  0  0  0  0  0  0  0  0  0  0
   48.7950   33.8910   38.5590 O   0  0  0  0  0  0  0  0  0  0  0  0
   48.1530   34.6360   38.6220 H   0  0  0  0  0  0  0  0  0  0  0  0
   44.2760   35.9150   43.6530 C   0  0  0  0  0  0  0  0  0  0  0  0
   44.0600   36.3360   44.6330 H   0  0  0  0  0  0  0  0  0  0  0  0
   44.7860   36.6270   42.9570 H   0  0  0  0  0  0  0  0  0  0  0  0
   42.7840   35.4370   41.6170 C   0  0  0  0  0  0  0  0  0  0  0  0
   43.6370   36.0340   40.8710 O   0  0  0  0  0  0  0  0  0  0  0  0
   43.0980   35.3950   42.9920 N   0  0  0  0  0  0  0  0  0  0  0  0
   42.3980   34.9330   43.6130 H   0  0  0  0  0  0  0  0  0  0  0  0
   40.6130   34.1160   41.7370 C   0  0  0  0  0  0  0  0  0  0  0  0
   41.5710   34.8440   41.0690 C   0  0  0  0  0  0  0  0  0  0  0  0
   41.3320   35.0250   39.7020 C   0  0  0  0  0  0  0  0  0  0  0  0
   42.0580   35.5970   39.1160 H   0  0  0  0  0  0  0  0  0  0  0  0
   40.2330   34.5310   39.0300 C   0  0  0  0  0  0  0  0  0  0  0  0
   39.8320   34.5950   37.7550 N   0  0  0  0  0  0  0  0  0  0  0  0
   40.3750   35.0930   37.0130 H   0  0  0  0  0  0  0  0  0  0  0  0
   38.6570   33.9210   37.6470 C   0  0  0  0  0  0  0  0  0  0  0  0
   38.1100   33.8190   36.7020 H   0  0  0  0  0  0  0  0  0  0  0  0
   38.2920   33.4130   38.8720 C   0  0  0  0  0  0  0  0  0  0  0  0
   39.2950   33.8070   39.7330 C   0  0  0  0  0  0  0  0  0  0  0  0
   39.5090   33.6140   41.0810 C   0  0  0  0  0  0  0  0  0  0  0  0
  1  6  1  0  0  0  0
  2  3  1  0  0  0  0
  2  1  2  0  0  0  0
  3  4  2  0  0  0  0
  4  5  1  0  0  0  0
  5  8  1  0  0  0  0
  6  5  2  0  0  0  0
  7  2  1  0  0  0  0
  9 14  1  6  0  0  0
  9 19  1  0  0  0  0
  9 10  1  0  0  0  0
 10 15  1  1  0  0  0
 10  3  1  0  0  0  0
 11 10  1  0  0  0  0
 12 13  1  0  0  0  0
 12 11  1  0  0  0  0
 13 18  1  1  0  0  0
 13  9  1  0  0  0  0
 16 12  1  0  0  0  0
 17 12  1  0  0  0  0
 20 19  1  0  0  0  0
 21 22  1  0  0  0  0
 21 13  1  0  0  0  0
 23  1  1  0  0  0  0
 23 24  1  0  0  0  0
 25 23  1  0  0  0  0
 26 28  1  0  0  0  0
 27 26  2  0  0  0  0
 28 29  1  0  0  0  0
 28 23  1  0  0  0  0
 31 26  1  0  0  0  0
 31 30  2  0  0  0  0
 32 31  1  0  0  0  0
 33 32  1  0  0  0  0
 34 32  2  0  0  0  0
 34 40  1  0  0  0  0
 35 34  1  0  0  0  0
 36 35  1  0  0  0  0
 37 35  1  0  0  0  0
 37 39  2  0  0  0  0
 38 37  1  0  0  0  0
 39 40  1  0  0  0  0
 40 41  2  0  0  0  0
 41 30  1  0  0  0  0
M  END
>  <minimizedAffinity>
-6.5636344

>  <minimizedRMSD>
7.35804462

$$$$
