
 OpenBabel03242521433D

 41 44  0  0  1  0  0  0  0  0999 V2000
   45.0850   35.2510   43.3690 C   0  0  0  0  0  0  0  0  0  0  0  0
   46.1950   34.4970   42.9950 C   0  0  0  0  0  0  0  0  0  0  0  0
   46.8540   33.7080   43.9360 C   0  0  0  0  0  0  0  0  0  0  0  0
   46.3700   33.7180   45.1780 N   0  0  0  0  0  0  0  0  0  0  0  0
   45.2930   34.4490   45.5390 C   0  0  0  0  0  0  0  0  0  0  0  0
   44.6430   35.2180   44.6450 N   0  0  0  0  0  0  0  0  0  0  0  0
   46.4800   34.5750   41.9760 H   0  0  0  0  0  0  0  0  0  0  0  0
   44.9650   34.3980   46.5770 H   0  0  0  0  0  0  0  0  0  0  0  0
   48.9910   33.7240   42.6700 C   0  0  2  0  0  0  0  0  0  0  0  0
   48.0050   32.9490   43.4720 C   0  0  2  0  0  0  0  0  0  0  0  0
   47.6820   31.9010   42.5630 O   0  0  0  0  0  0  0  0  0  0  0  0
   48.9210   31.4360   42.1920 C   0  0  0  0  0  0  0  0  0  0  0  0
   49.9250   32.5560   42.2860 C   0  0  1  0  0  0  0  0  0  0  0  0
   48.5320   34.0230   41.7120 H   0  0  0  0  0  0  0  0  0  0  0  0
   48.4320   32.4170   44.3460 H   0  0  0  0  0  0  0  0  0  0  0  0
   48.8670   31.1670   41.0980 H   0  0  0  0  0  0  0  0  0  0  0  0
   49.2400   30.5110   42.6980 H   0  0  0  0  0  0  0  0  0  0  0  0
   50.6340   32.3200   43.0860 H   0  0  0  0  0  0  0  0  0  0  0  0
   49.6130   34.7310   43.3420 O   0  0  0  0  0  0  0  0  0  0  0  0
   50.5190   34.8470   42.9750 H   0  0  0  0  0  0  0  0  0  0  0  0
   50.5420   32.8650   41.0750 O   0  0  0  0  0  0  0  0  0  0  0  0
   49.9410   33.4040   40.5090 H   0  0  0  0  0  0  0  0  0  0  0  0
   44.3940   36.1010   42.3380 C   0  0  0  0  0  0  0  0  0  0  0  0
   43.6210   36.6940   42.8230 H   0  0  0  0  0  0  0  0  0  0  0  0
   45.2060   36.7140   41.8700 H   0  0  0  0  0  0  0  0  0  0  0  0
   42.5150   34.8990   41.0630 C   0  0  0  0  0  0  0  0  0  0  0  0
   41.6550   35.4760   41.8170 O   0  0  0  0  0  0  0  0  0  0  0  0
   43.8670   35.2000   41.3360 N   0  0  0  0  0  0  0  0  0  0  0  0
   44.5780   34.7160   40.7440 H   0  0  0  0  0  0  0  0  0  0  0  0
   40.9960   34.0800   39.1940 C   0  0  0  0  0  3  0  0  0  0  0  0
   42.1120   33.9920   39.9960 C   0  0  0  0  0  0  0  0  0  0  0  0
   42.9420   32.8980   39.7390 C   0  0  0  0  0  0  0  0  0  0  0  0
   43.8460   32.7730   40.3430 H   0  0  0  0  0  0  0  0  0  0  0  0
   42.7050   31.9490   38.7660 C   0  0  0  0  0  0  0  0  0  0  0  0
   43.3630   30.8510   38.3730 N   0  0  0  0  0  0  0  0  0  0  0  0
   44.2580   30.5380   38.8130 H   0  0  0  0  0  0  0  0  0  0  0  0
   42.6660   30.2810   37.3550 C   0  0  0  0  0  0  0  0  0  0  0  0
   42.9890   29.3640   36.8480 H   0  0  0  0  0  0  0  0  0  0  0  0
   41.5400   31.0210   37.0860 C   0  0  0  0  0  3  0  0  0  0  0  0
   41.5770   32.0680   37.9830 C   0  0  0  0  0  0  0  0  0  0  0  0
   40.7430   33.1390   38.2170 C   0  0  0  0  0  3  0  0  0  0  0  0
  1  6  1  0  0  0  0
  2  1  2  0  0  0  0
  2  3  1  0  0  0  0
  3  4  2  0  0  0  0
  4  5  1  0  0  0  0
  5  8  1  0  0  0  0
  6  5  2  0  0  0  0
  7  2  1  0  0  0  0
  9 14  1  6  0  0  0
  9 19  1  0  0  0  0
  9 10  1  0  0  0  0
 10  3  1  0  0  0  0
 10 15  1  1  0  0  0
 11 10  1  0  0  0  0
 12 13  1  0  0  0  0
 12 11  1  0  0  0  0
 12 17  1  0  0  0  0
 13  9  1  0  0  0  0
 13 18  1  1  0  0  0
 16 12  1  0  0  0  0
 20 19  1  0  0  0  0
 21 13  1  0  0  0  0
 22 21  1  0  0  0  0
 23 24  1  0  0  0  0
 23  1  1  0  0  0  0
 25 23  1  0  0  0  0
 26 28  1  0  0  0  0
 26 27  2  0  0  0  0
 28 23  1  0  0  0  0
 29 28  1  0  0  0  0
 30 31  1  0  0  0  0
 31 26  1  0  0  0  0
 32 31  2  0  0  0  0
 32 33  1  0  0  0  0
 34 32  1  0  0  0  0
 35 34  1  0  0  0  0
 35 36  1  0  0  0  0
 37 35  1  0  0  0  0
 38 37  1  0  0  0  0
 39 37  2  0  0  0  0
 39 40  1  0  0  0  0
 40 41  1  0  0  0  0
 40 34  2  0  0  0  0
 41 30  2  0  0  0  0
M  END
>  <minimizedAffinity>
-5.85252714

>  <minimizedRMSD>
8.16376781

$$$$
