
 OpenBabel03242521433D

 41 44  0  0  1  0  0  0  0  0999 V2000
   45.5940   34.9060   43.7870 C   0  0  0  0  0  0  0  0  0  0  0  0
   46.6890   34.2240   43.2610 C   0  0  0  0  0  0  0  0  0  0  0  0
   47.3290   33.2420   44.0170 C   0  0  0  0  0  0  0  0  0  0  0  0
   46.8430   33.0060   45.2350 N   0  0  0  0  0  0  0  0  0  0  0  0
   45.7810   33.6690   45.7430 C   0  0  0  0  0  0  0  0  0  0  0  0
   45.1490   34.6200   45.0280 N   0  0  0  0  0  0  0  0  0  0  0  0
   46.9780   34.5040   42.2800 H   0  0  0  0  0  0  0  0  0  0  0  0
   45.4500   33.4110   46.7490 H   0  0  0  0  0  0  0  0  0  0  0  0
   49.3090   33.4310   42.5290 C   0  0  2  0  0  0  0  0  0  0  0  0
   48.4650   32.5720   43.4040 C   0  0  2  0  0  0  0  0  0  0  0  0
   48.1060   31.5330   42.4970 O   0  0  0  0  0  0  0  0  0  0  0  0
   49.3220   31.1590   41.9780 C   0  0  0  0  0  0  0  0  0  0  0  0
   50.2620   32.3370   42.0030 C   0  0  1  0  0  0  0  0  0  0  0  0
   48.7300   33.7290   41.6370 H   0  0  0  0  0  0  0  0  0  0  0  0
   49.0160   32.0420   44.2070 H   0  0  0  0  0  0  0  0  0  0  0  0
   49.1640   30.9200   40.8870 H   0  0  0  0  0  0  0  0  0  0  0  0
   49.7490   30.2410   42.4120 H   0  0  0  0  0  0  0  0  0  0  0  0
   51.0670   32.1220   42.7120 H   0  0  0  0  0  0  0  0  0  0  0  0
   49.9400   34.4550   43.1650 O   0  0  0  0  0  0  0  0  0  0  0  0
   50.7910   34.6390   42.7070 H   0  0  0  0  0  0  0  0  0  0  0  0
   50.7210   32.7200   40.7440 O   0  0  0  0  0  0  0  0  0  0  0  0
   50.0310   33.2360   40.2670 H   0  0  0  0  0  0  0  0  0  0  0  0
   44.9240   35.9670   42.9550 C   0  0  0  0  0  0  0  0  0  0  0  0
   45.5400   36.1780   42.0830 H   0  0  0  0  0  0  0  0  0  0  0  0
   43.9140   35.5500   42.7050 H   0  0  0  0  0  0  0  0  0  0  0  0
   45.5020   38.3090   43.8370 C   0  0  0  0  0  0  0  0  0  0  0  0
   46.4870   38.3570   43.0190 O   0  0  0  0  0  0  0  0  0  0  0  0
   44.7430   37.1190   43.8100 N   0  0  0  0  0  0  0  0  0  0  0  0
   43.9530   37.0590   44.4900 H   0  0  0  0  0  0  0  0  0  0  0  0
   45.1760   39.4100   46.1080 C   0  0  0  0  0  3  0  0  0  0  0  0
   45.1950   39.4180   44.7310 C   0  0  0  0  0  0  0  0  0  0  0  0
   44.8780   40.6460   44.1410 C   0  0  0  0  0  0  0  0  0  0  0  0
   44.8750   40.7160   43.0490 H   0  0  0  0  0  0  0  0  0  0  0  0
   44.5640   41.7910   44.8430 C   0  0  0  0  0  0  0  0  0  0  0  0
   44.2390   43.0360   44.4700 N   0  0  0  0  0  0  0  0  0  0  0  0
   44.1760   43.3310   43.4710 H   0  0  0  0  0  0  0  0  0  0  0  0
   44.0270   43.7700   45.5940 C   0  0  0  0  0  0  0  0  0  0  0  0
   43.7470   44.8310   45.5730 H   0  0  0  0  0  0  0  0  0  0  0  0
   44.2180   42.9900   46.7090 C   0  0  0  0  0  3  0  0  0  0  0  0
   44.5550   41.7460   46.2200 C   0  0  0  0  0  0  0  0  0  0  0  0
   44.8640   40.5460   46.8250 C   0  0  0  0  0  3  0  0  0  0  0  0
  1  6  1  0  0  0  0
  2  1  2  0  0  0  0
  2  3  1  0  0  0  0
  3  4  2  0  0  0  0
  4  5  1  0  0  0  0
  5  8  1  0  0  0  0
  6  5  2  0  0  0  0
  7  2  1  0  0  0  0
  9 14  1  6  0  0  0
  9 19  1  0  0  0  0
  9 10  1  0  0  0  0
 10  3  1  0  0  0  0
 10 15  1  1  0  0  0
 11 10  1  0  0  0  0
 12 13  1  0  0  0  0
 12 17  1  0  0  0  0
 12 11  1  0  0  0  0
 13  9  1  0  0  0  0
 13 18  1  1  0  0  0
 16 12  1  0  0  0  0
 20 19  1  0  0  0  0
 21 13  1  0  0  0  0
 22 21  1  0  0  0  0
 23  1  1  0  0  0  0
 23 28  1  0  0  0  0
 24 23  1  0  0  0  0
 25 23  1  0  0  0  0
 26 31  1  0  0  0  0
 27 26  2  0  0  0  0
 28 26  1  0  0  0  0
 28 29  1  0  0  0  0
 30 41  1  0  0  0  0
 31 30  2  0  0  0  0
 32 31  1  0  0  0  0
 32 34  2  0  0  0  0
 33 32  1  0  0  0  0
 34 40  1  0  0  0  0
 35 34  1  0  0  0  0
 35 37  1  0  0  0  0
 36 35  1  0  0  0  0
 37 39  2  0  0  0  0
 38 37  1  0  0  0  0
 40 39  1  0  0  0  0
 40 41  2  0  0  0  0
M  END
>  <minimizedAffinity>
-3.26570463

>  <minimizedRMSD>
1.24295151

$$$$
