
 OpenBabel03242516523D

 48 52  0  0  1  0  0  0  0  0999 V2000
   47.8270   32.8850   41.7980 C   0  0  1  0  0  0  0  0  0  0  0  0
   47.5170   32.2940   40.4960 C   0  0  0  0  0  0  0  0  0  0  0  0
   48.5660   32.8460   39.5280 C   0  0  0  0  0  0  0  0  0  0  0  0
   48.2300   34.3170   39.3360 C   0  0  0  0  0  0  0  0  0  0  0  0
   48.1680   35.0930   40.6160 C   0  0  0  0  0  0  0  0  0  0  0  0
   47.6360   34.4050   41.8010 C   0  0  1  0  0  0  0  0  0  0  0  0
   48.9430   32.7890   41.9760 H   0  0  0  0  0  0  0  0  0  0  0  0
   47.6720   31.2020   40.5360 H   0  0  0  0  0  0  0  0  0  0  0  0
   46.5190   32.5520   40.0870 H   0  0  0  0  0  0  0  0  0  0  0  0
   49.5580   32.8150   40.0280 H   0  0  0  0  0  0  0  0  0  0  0  0
   48.5300   32.3670   38.5510 H   0  0  0  0  0  0  0  0  0  0  0  0
   47.2030   34.3460   38.9070 H   0  0  0  0  0  0  0  0  0  0  0  0
   48.9140   34.8180   38.6450 H   0  0  0  0  0  0  0  0  0  0  0  0
   49.1960   35.4830   40.8090 H   0  0  0  0  0  0  0  0  0  0  0  0
   47.5630   36.0130   40.4020 H   0  0  0  0  0  0  0  0  0  0  0  0
   48.2130   34.7510   42.7100 H   0  0  0  0  0  0  0  0  0  0  0  0
   45.3590   30.8930   43.8540 C   0  0  0  0  0  0  0  0  0  0  0  0
   46.0610   31.4750   42.7960 C   0  0  0  0  0  0  0  0  0  0  0  0
   47.1630   32.3190   42.9530 C   0  0  0  0  0  0  0  0  0  0  0  0
   47.5260   32.5520   44.2150 N   0  0  0  0  0  0  0  0  0  0  0  0
   46.8610   32.0000   45.2650 C   0  0  0  0  0  0  0  0  0  0  0  0
   45.8120   31.1950   45.1030 N   0  0  0  0  0  0  0  0  0  0  0  0
   44.5230   30.2580   43.5970 H   0  0  0  0  0  0  0  0  0  0  0  0
   45.7540   31.2740   41.7780 H   0  0  0  0  0  0  0  0  0  0  0  0
   47.1200   32.1600   46.2940 H   0  0  0  0  0  0  0  0  0  0  0  0
   46.2530   34.7780   42.1010 C   0  0  0  0  0  0  0  0  0  0  0  0
   45.8030   35.3440   43.3050 C   0  0  0  0  0  0  0  0  0  0  0  0
   44.4430   35.6320   43.3640 C   0  0  0  0  0  0  0  0  0  0  0  0
   43.6630   35.3480   42.2600 C   0  0  0  0  0  0  0  0  0  0  0  0
   44.1260   34.7900   41.0790 C   0  0  0  0  0  0  0  0  0  0  0  0
   45.4660   34.5090   41.0340 N   0  0  0  0  0  0  0  0  0  0  0  0
   46.5240   35.5010   44.0610 H   0  0  0  0  0  0  0  0  0  0  0  0
   44.0740   36.0630   44.2690 H   0  0  0  0  0  0  0  0  0  0  0  0
   42.6010   35.5750   42.3110 H   0  0  0  0  0  0  0  0  0  0  0  0
   43.2250   34.5310   39.9620 C   0  0  0  0  0  0  0  0  0  0  0  0
   42.2580   35.3330   39.8020 O   0  0  0  0  0  0  0  0  0  0  0  0
   42.1230   32.7440   38.7300 C   0  0  0  0  0  3  0  0  0  0  0  0
   43.2780   33.4570   38.9780 C   0  0  0  0  0  0  0  0  0  0  0  0
   44.4130   33.1040   38.2770 C   0  0  0  0  0  0  0  0  0  0  0  0
   45.2820   33.6830   38.5060 H   0  0  0  0  0  0  0  0  0  0  0  0
   44.4690   32.0890   37.3450 C   0  0  0  0  0  0  0  0  0  0  0  0
   45.4230   31.5680   36.5540 N   0  0  0  0  0  0  0  0  0  0  0  0
   46.4120   31.9000   36.5170 H   0  0  0  0  0  0  0  0  0  0  0  0
   44.8810   30.5530   35.8250 C   0  0  0  0  0  0  0  0  0  0  0  0
   45.3840   29.9200   35.0850 H   0  0  0  0  0  0  0  0  0  0  0  0
   43.5320   30.4150   36.1580 C   0  0  0  0  0  3  0  0  0  0  0  0
   43.2940   31.3950   37.1200 C   0  0  0  0  0  0  0  0  0  0  0  0
   42.1290   31.7040   37.7920 C   0  0  0  0  0  3  0  0  0  0  0  0
  1  6  1  0  0  0  0
  1  7  1  1  0  0  0
  1 19  1  0  0  0  0
  2  8  1  0  0  0  0
  2  1  1  0  0  0  0
  3 10  1  0  0  0  0
  3  2  1  0  0  0  0
  4  3  1  0  0  0  0
  4  5  1  0  0  0  0
  5 14  1  0  0  0  0
  5  6  1  0  0  0  0
  6 26  1  0  0  0  0
  6 16  1  1  0  0  0
  9  2  1  0  0  0  0
 11  3  1  0  0  0  0
 12  4  1  0  0  0  0
 13  4  1  0  0  0  0
 15  5  1  0  0  0  0
 17 22  1  0  0  0  0
 18 19  1  0  0  0  0
 18 17  2  0  0  0  0
 19 20  2  0  0  0  0
 20 21  1  0  0  0  0
 21 25  1  0  0  0  0
 22 21  2  0  0  0  0
 23 17  1  0  0  0  0
 24 18  1  0  0  0  0
 26 27  1  0  0  0  0
 27 28  2  0  0  0  0
 27 32  1  0  0  0  0
 28 33  1  0  0  0  0
 29 34  1  0  0  0  0
 29 28  1  0  0  0  0
 30 29  2  0  0  0  0
 31 30  1  0  0  0  0
 31 26  2  0  0  0  0
 35 30  1  0  0  0  0
 36 35  2  0  0  0  0
 37 38  1  0  0  0  0
 38 35  1  0  0  0  0
 39 40  1  0  0  0  0
 39 38  2  0  0  0  0
 41 39  1  0  0  0  0
 42 41  1  0  0  0  0
 43 42  1  0  0  0  0
 44 46  2  0  0  0  0
 44 42  1  0  0  0  0
 45 44  1  0  0  0  0
 46 47  1  0  0  0  0
 47 41  2  0  0  0  0
 47 48  1  0  0  0  0
 48 37  2  0  0  0  0
M  END
>  <minimizedAffinity>
-5.85379839

>  <minimizedRMSD>
0.734490991

$$$$
