
 OpenBabel03242516523D

 48 52  0  0  1  0  0  0  0  0999 V2000
   47.8250   32.8810   41.7960 C   0  0  1  0  0  0  0  0  0  0  0  0
   47.5120   32.2770   40.5000 C   0  0  0  0  0  0  0  0  0  0  0  0
   48.5550   32.8250   39.5230 C   0  0  0  0  0  0  0  0  0  0  0  0
   48.2100   34.2930   39.3180 C   0  0  0  0  0  0  0  0  0  0  0  0
   48.1510   35.0800   40.5910 C   0  0  0  0  0  0  0  0  0  0  0  0
   47.6260   34.4010   41.7840 C   0  0  1  0  0  0  0  0  0  0  0  0
   48.9420   32.7930   41.9700 H   0  0  0  0  0  0  0  0  0  0  0  0
   47.6730   31.1860   40.5500 H   0  0  0  0  0  0  0  0  0  0  0  0
   46.5110   32.5260   40.0930 H   0  0  0  0  0  0  0  0  0  0  0  0
   49.5490   32.8030   40.0190 H   0  0  0  0  0  0  0  0  0  0  0  0
   48.5170   32.3370   38.5500 H   0  0  0  0  0  0  0  0  0  0  0  0
   47.1820   34.3120   38.8940 H   0  0  0  0  0  0  0  0  0  0  0  0
   48.8900   34.7900   38.6190 H   0  0  0  0  0  0  0  0  0  0  0  0
   49.1780   35.4770   40.7760 H   0  0  0  0  0  0  0  0  0  0  0  0
   47.5400   35.9960   40.3710 H   0  0  0  0  0  0  0  0  0  0  0  0
   48.2060   34.7580   42.6880 H   0  0  0  0  0  0  0  0  0  0  0  0
   45.3700   30.9050   43.8810 C   0  0  0  0  0  0  0  0  0  0  0  0
   46.0650   31.4800   42.8140 C   0  0  0  0  0  0  0  0  0  0  0  0
   47.1690   32.3240   42.9590 C   0  0  0  0  0  0  0  0  0  0  0  0
   47.5410   32.5630   44.2160 N   0  0  0  0  0  0  0  0  0  0  0  0
   46.8830   32.0180   45.2740 C   0  0  0  0  0  0  0  0  0  0  0  0
   45.8310   31.2140   45.1240 N   0  0  0  0  0  0  0  0  0  0  0  0
   44.5310   30.2700   43.6330 H   0  0  0  0  0  0  0  0  0  0  0  0
   45.7500   31.2730   41.8000 H   0  0  0  0  0  0  0  0  0  0  0  0
   47.1490   32.1850   46.3010 H   0  0  0  0  0  0  0  0  0  0  0  0
   46.2440   34.7700   42.0870 C   0  0  0  0  0  0  0  0  0  0  0  0
   45.7920   35.3270   43.2950 C   0  0  0  0  0  0  0  0  0  0  0  0
   44.4320   35.6130   43.3550 C   0  0  0  0  0  0  0  0  0  0  0  0
   43.6520   35.3360   42.2500 C   0  0  0  0  0  0  0  0  0  0  0  0
   44.1170   34.7860   41.0650 C   0  0  0  0  0  0  0  0  0  0  0  0
   45.4570   34.5080   41.0180 N   0  0  0  0  0  0  0  0  0  0  0  0
   46.5130   35.4800   44.0520 H   0  0  0  0  0  0  0  0  0  0  0  0
   44.0620   36.0370   44.2630 H   0  0  0  0  0  0  0  0  0  0  0  0
   42.5900   35.5610   42.3010 H   0  0  0  0  0  0  0  0  0  0  0  0
   43.2160   34.5340   39.9460 C   0  0  0  0  0  0  0  0  0  0  0  0
   42.2660   35.3520   39.7730 O   0  0  0  0  0  0  0  0  0  0  0  0
   44.4580   33.1550   38.3680 C   0  0  0  0  0  3  0  0  0  0  0  0
   43.2520   33.4490   38.9730 C   0  0  0  0  0  0  0  0  0  0  0  0
   42.1540   32.6940   38.6160 C   0  0  0  0  0  0  0  0  0  0  0  0
   41.2440   32.9610   39.1090 H   0  0  0  0  0  0  0  0  0  0  0  0
   42.1810   31.6670   37.6950 C   0  0  0  0  0  0  0  0  0  0  0  0
   41.2760   30.8100   37.1910 N   0  0  0  0  0  0  0  0  0  0  0  0
   40.2660   30.7860   37.4570 H   0  0  0  0  0  0  0  0  0  0  0  0
   41.8970   29.9970   36.2920 C   0  0  0  0  0  0  0  0  0  0  0  0
   41.4500   29.1890   35.7010 H   0  0  0  0  0  0  0  0  0  0  0  0
   43.2490   30.3420   36.2130 C   0  0  0  0  0  3  0  0  0  0  0  0
   43.4060   31.3980   37.1080 C   0  0  0  0  0  0  0  0  0  0  0  0
   44.5350   32.1210   37.4270 C   0  0  0  0  0  3  0  0  0  0  0  0
  1  7  1  1  0  0  0
  1 19  1  0  0  0  0
  2  8  1  0  0  0  0
  2  1  1  0  0  0  0
  3 10  1  0  0  0  0
  3  2  1  0  0  0  0
  4  3  1  0  0  0  0
  4  5  1  0  0  0  0
  5 14  1  0  0  0  0
  5  6  1  0  0  0  0
  6  1  1  0  0  0  0
  6 26  1  0  0  0  0
  6 16  1  1  0  0  0
  9  2  1  0  0  0  0
 11  3  1  0  0  0  0
 12  4  1  0  0  0  0
 13  4  1  0  0  0  0
 15  5  1  0  0  0  0
 17 22  1  0  0  0  0
 18 19  1  0  0  0  0
 18 17  2  0  0  0  0
 19 20  2  0  0  0  0
 20 21  1  0  0  0  0
 21 25  1  0  0  0  0
 22 21  2  0  0  0  0
 23 17  1  0  0  0  0
 24 18  1  0  0  0  0
 26 27  1  0  0  0  0
 27 28  2  0  0  0  0
 27 32  1  0  0  0  0
 28 33  1  0  0  0  0
 29 34  1  0  0  0  0
 29 28  1  0  0  0  0
 30 29  2  0  0  0  0
 31 30  1  0  0  0  0
 31 26  2  0  0  0  0
 35 30  1  0  0  0  0
 36 35  2  0  0  0  0
 37 38  1  0  0  0  0
 38 35  1  0  0  0  0
 39 38  2  0  0  0  0
 39 40  1  0  0  0  0
 41 39  1  0  0  0  0
 42 43  1  0  0  0  0
 42 41  1  0  0  0  0
 44 42  1  0  0  0  0
 45 44  1  0  0  0  0
 46 44  2  0  0  0  0
 46 47  1  0  0  0  0
 47 48  1  0  0  0  0
 47 41  2  0  0  0  0
 48 37  2  0  0  0  0
M  END
>  <minimizedAffinity>
-5.86370134

>  <minimizedRMSD>
0.547178864

$$$$
