
 OpenBabel03242516523D

 48 52  0  0  1  0  0  0  0  0999 V2000
   47.7890   32.8170   41.6790 C   0  0  1  0  0  0  0  0  0  0  0  0
   47.3940   32.1530   40.4370 C   0  0  0  0  0  0  0  0  0  0  0  0
   48.4090   32.6010   39.3830 C   0  0  0  0  0  0  0  0  0  0  0  0
   48.1090   34.0670   39.1080 C   0  0  0  0  0  0  0  0  0  0  0  0
   48.1390   34.9290   40.3340 C   0  0  0  0  0  0  0  0  0  0  0  0
   47.6460   34.3400   41.5870 C   0  0  1  0  0  0  0  0  0  0  0  0
   48.9090   32.6950   41.8080 H   0  0  0  0  0  0  0  0  0  0  0  0
   47.5170   31.0600   40.5440 H   0  0  0  0  0  0  0  0  0  0  0  0
   46.3850   32.4160   40.0610 H   0  0  0  0  0  0  0  0  0  0  0  0
   49.4240   32.5690   39.8350 H   0  0  0  0  0  0  0  0  0  0  0  0
   48.3080   32.0600   38.4440 H   0  0  0  0  0  0  0  0  0  0  0  0
   47.0640   34.1030   38.7290 H   0  0  0  0  0  0  0  0  0  0  0  0
   48.7730   34.4970   38.3510 H   0  0  0  0  0  0  0  0  0  0  0  0
   49.1870   35.2940   40.4480 H   0  0  0  0  0  0  0  0  0  0  0  0
   47.5530   35.8530   40.0880 H   0  0  0  0  0  0  0  0  0  0  0  0
   48.2810   34.7260   42.4410 H   0  0  0  0  0  0  0  0  0  0  0  0
   45.3840   31.0340   43.9850 C   0  0  0  0  0  0  0  0  0  0  0  0
   46.0480   31.5210   42.8560 C   0  0  0  0  0  0  0  0  0  0  0  0
   47.1690   32.3530   42.9020 C   0  0  0  0  0  0  0  0  0  0  0  0
   47.5900   32.6740   44.1250 N   0  0  0  0  0  0  0  0  0  0  0  0
   46.9640   32.2150   45.2410 C   0  0  0  0  0  0  0  0  0  0  0  0
   45.8960   31.4210   45.1860 N   0  0  0  0  0  0  0  0  0  0  0  0
   44.5280   30.3970   43.8130 H   0  0  0  0  0  0  0  0  0  0  0  0
   45.6930   31.2480   41.8710 H   0  0  0  0  0  0  0  0  0  0  0  0
   47.2710   32.4490   46.2440 H   0  0  0  0  0  0  0  0  0  0  0  0
   46.2940   34.7800   41.9290 C   0  0  0  0  0  0  0  0  0  0  0  0
   45.9280   35.4610   43.1020 C   0  0  0  0  0  0  0  0  0  0  0  0
   44.5820   35.7950   43.2100 C   0  0  0  0  0  0  0  0  0  0  0  0
   43.7320   35.4420   42.1800 C   0  0  0  0  0  0  0  0  0  0  0  0
   44.1130   34.7700   41.0290 C   0  0  0  0  0  0  0  0  0  0  0  0
   45.4400   34.4450   40.9340 N   0  0  0  0  0  0  0  0  0  0  0  0
   46.6950   35.6600   43.8010 H   0  0  0  0  0  0  0  0  0  0  0  0
   44.2760   36.3130   44.0920 H   0  0  0  0  0  0  0  0  0  0  0  0
   42.6810   35.7050   42.2680 H   0  0  0  0  0  0  0  0  0  0  0  0
   43.1430   34.4440   39.9900 C   0  0  0  0  0  0  0  0  0  0  0  0
   42.6420   35.4110   39.3430 O   0  0  0  0  0  0  0  0  0  0  0  0
   41.9620   33.0430   38.3860 C   0  0  0  0  0  3  0  0  0  0  0  0
   42.6540   33.1340   39.5770 C   0  0  0  0  0  0  0  0  0  0  0  0
   42.8380   31.9750   40.3020 C   0  0  0  0  0  0  0  0  0  0  0  0
   43.3780   32.0980   41.2160 H   0  0  0  0  0  0  0  0  0  0  0  0
   42.3770   30.7330   39.9170 C   0  0  0  0  0  0  0  0  0  0  0  0
   42.4270   29.4930   40.4320 N   0  0  0  0  0  0  0  0  0  0  0  0
   42.8890   29.2410   41.3340 H   0  0  0  0  0  0  0  0  0  0  0  0
   41.7820   28.6420   39.5870 C   0  0  0  0  0  0  0  0  0  0  0  0
   41.6390   27.5610   39.7070 H   0  0  0  0  0  0  0  0  0  0  0  0
   41.3000   29.3580   38.4890 C   0  0  0  0  0  3  0  0  0  0  0  0
   41.6870   30.6770   38.7190 C   0  0  0  0  0  0  0  0  0  0  0  0
   41.4740   31.8040   37.9520 C   0  0  0  0  0  3  0  0  0  0  0  0
  1  7  1  1  0  0  0
  1 19  1  0  0  0  0
  2  8  1  0  0  0  0
  2  1  1  0  0  0  0
  3 10  1  0  0  0  0
  3  2  1  0  0  0  0
  4  3  1  0  0  0  0
  4  5  1  0  0  0  0
  5 14  1  0  0  0  0
  5  6  1  0  0  0  0
  6  1  1  0  0  0  0
  6 26  1  0  0  0  0
  6 16  1  1  0  0  0
  9  2  1  0  0  0  0
 11  3  1  0  0  0  0
 12  4  1  0  0  0  0
 13  4  1  0  0  0  0
 15  5  1  0  0  0  0
 17 22  1  0  0  0  0
 18 19  1  0  0  0  0
 18 17  2  0  0  0  0
 19 20  2  0  0  0  0
 20 21  1  0  0  0  0
 21 25  1  0  0  0  0
 22 21  2  0  0  0  0
 23 17  1  0  0  0  0
 24 18  1  0  0  0  0
 26 27  1  0  0  0  0
 27 28  2  0  0  0  0
 27 32  1  0  0  0  0
 28 33  1  0  0  0  0
 29 34  1  0  0  0  0
 29 28  1  0  0  0  0
 30 29  2  0  0  0  0
 31 30  1  0  0  0  0
 31 26  2  0  0  0  0
 35 30  1  0  0  0  0
 36 35  2  0  0  0  0
 37 38  1  0  0  0  0
 38 35  1  0  0  0  0
 38 39  2  0  0  0  0
 39 40  1  0  0  0  0
 41 39  1  0  0  0  0
 41 42  1  0  0  0  0
 42 43  1  0  0  0  0
 44 45  1  0  0  0  0
 44 42  1  0  0  0  0
 46 47  1  0  0  0  0
 46 44  2  0  0  0  0
 47 41  2  0  0  0  0
 48 37  2  0  0  0  0
 48 47  1  0  0  0  0
M  END
>  <minimizedAffinity>
-5.43425083

>  <minimizedRMSD>
0.872522771

$$$$
