
 OpenBabel03252504323D

 43 46  0  0  0  0  0  0  0  0999 V2000
   41.6340   35.6420   41.1830 C   0  0  0  0  0  0  0  0  0  0  0  0
   41.5540   35.7250   42.3070 H   0  0  0  0  0  0  0  0  0  0  0  0
   41.1750   36.5790   40.8040 H   0  0  0  0  0  0  0  0  0  0  0  0
   41.0770   33.2600   41.2830 C   0  0  0  0  0  0  0  0  0  0  0  0
   40.6620   34.5460   40.8580 C   0  0  0  0  0  0  0  0  0  0  0  0
   39.4670   34.6430   40.2290 C   0  0  0  0  0  0  0  0  0  0  0  0
   38.7770   33.5270   40.0590 N   0  0  0  0  0  0  0  0  0  0  0  0
   39.1510   32.3190   40.4510 C   0  0  0  0  0  0  0  0  0  0  0  0
   40.3690   32.1400   41.1050 N   0  0  0  0  0  0  0  0  0  0  0  0
   42.0160   33.0930   41.7920 H   0  0  0  0  0  0  0  0  0  0  0  0
   39.1930   35.6430   39.9230 H   0  0  0  0  0  0  0  0  0  0  0  0
   37.4920   30.7320   41.2450 C   0  0  0  0  0  3  0  0  0  0  0  0
   38.3370   31.1310   40.2300 C   0  0  0  0  0  0  0  0  0  0  0  0
   38.3960   30.4170   39.0510 C   0  0  0  0  0  0  0  0  0  0  0  0
   39.0460   30.7190   38.2610 H   0  0  0  0  0  0  0  0  0  0  0  0
   37.5850   29.2960   38.9240 C   0  0  0  0  0  0  0  0  0  0  0  0
   37.4950   28.4620   37.8490 N   0  0  0  0  0  0  0  0  0  0  0  0
   38.0150   28.5250   36.9500 H   0  0  0  0  0  0  0  0  0  0  0  0
   36.5730   27.5220   38.2050 C   0  0  0  0  0  0  0  0  0  0  0  0
   36.2360   26.6800   37.5900 H   0  0  0  0  0  0  0  0  0  0  0  0
   36.0930   27.7610   39.4770 C   0  0  0  0  0  3  0  0  0  0  0  0
   36.7350   28.8910   39.9420 C   0  0  0  0  0  0  0  0  0  0  0  0
   36.6840   29.6170   41.1220 C   0  0  0  0  0  3  0  0  0  0  0  0
   42.8650   35.4400   40.6590 O   0  0  0  0  0  0  0  0  0  0  0  0
   44.0730   35.3010   41.3220 C   0  0  0  0  0  3  0  0  0  0  0  0
   44.0670   35.6050   42.6150 C   0  0  0  0  0  3  0  0  0  0  0  0
   45.2700   35.5240   43.5370 C   0  0  0  0  0  0  0  0  0  0  0  0
   46.1550   35.2030   42.9430 H   0  0  0  0  0  0  0  0  0  0  0  0
   45.4800   36.5060   43.9860 H   0  0  0  0  0  0  0  0  0  0  0  0
   44.9850   34.5810   44.5000 O   0  0  0  0  0  0  0  0  0  0  0  0
   45.6290   32.4180   43.0850 O   0  0  0  0  0  0  0  0  0  0  0  0
   45.9690   33.2230   44.3160 P   0  0  1  0  0  0  0  0  0  0  0  0
   47.5980   33.7000   44.1550 O   0  0  0  0  0  0  0  0  0  0  0  0
   48.1750   32.9340   44.4120 H   0  0  0  0  0  0  0  0  0  0  0  0
   45.8730   32.2500   45.6910 O   0  0  0  0  0  0  0  0  0  0  0  0
   46.2070   32.9360   46.8420 C   0  0  0  0  0  0  0  0  0  0  0  0
   47.1710   32.3120   47.8020 C   0  0  0  0  0  0  0  0  0  0  0  0
   45.6980   32.3230   48.1270 C   0  0  0  0  0  0  0  0  0  0  0  0
   46.3170   34.0380   46.7820 H   0  0  0  0  0  0  0  0  0  0  0  0
   47.8700   32.9330   48.3930 H   0  0  0  0  0  0  0  0  0  0  0  0
   47.5440   31.3140   47.4880 H   0  0  0  0  0  0  0  0  0  0  0  0
   45.4010   33.0350   48.9360 H   0  0  0  0  0  0  0  0  0  0  0  0
   45.1140   31.3920   48.0810 H   0  0  0  0  0  0  0  0  0  0  0  0
  1  2  1  0  0  0  0
  3  1  1  0  0  0  0
  4 10  1  0  0  0  0
  5  1  1  0  0  0  0
  5  4  2  0  0  0  0
  6  5  1  0  0  0  0
  7  6  2  0  0  0  0
  7  8  1  0  0  0  0
  8  9  2  0  0  0  0
  9  4  1  0  0  0  0
 11  6  1  0  0  0  0
 13  8  1  0  0  0  0
 13 12  2  0  0  0  0
 14 13  1  0  0  0  0
 15 14  1  0  0  0  0
 16 14  2  0  0  0  0
 16 22  1  0  0  0  0
 17 19  1  0  0  0  0
 17 16  1  0  0  0  0
 18 17  1  0  0  0  0
 19 21  2  0  0  0  0
 20 19  1  0  0  0  0
 21 22  1  0  0  0  0
 22 23  2  0  0  0  0
 23 12  1  0  0  0  0
 24  1  1  0  0  0  0
 24 25  1  0  0  0  0
 25 26  2  0  0  0  0
 26 27  1  0  0  0  0
 27 29  1  0  0  0  0
 27 30  1  0  0  0  0
 28 27  1  0  0  0  0
 32 31  2  6  0  0  0
 32 30  1  0  0  0  0
 32 35  1  0  0  0  0
 33 32  1  0  0  0  0
 33 34  1  0  0  0  0
 35 36  1  0  0  0  0
 36 37  1  0  0  0  0
 36 38  1  0  0  0  0
 37 38  1  0  0  0  0
 37 40  1  0  0  0  0
 38 42  1  0  0  0  0
 39 36  1  0  0  0  0
 41 37  1  0  0  0  0
 43 38  1  0  0  0  0
M  END
>  <minimizedAffinity>
-5.56213522

>  <minimizedRMSD>
1.01879585

$$$$
