
 OpenBabel03252504323D

 43 46  0  0  0  0  0  0  0  0999 V2000
   41.6280   35.6460   41.1810 C   0  0  0  0  0  0  0  0  0  0  0  0
   41.5510   35.7280   42.3050 H   0  0  0  0  0  0  0  0  0  0  0  0
   41.1660   36.5830   40.8050 H   0  0  0  0  0  0  0  0  0  0  0  0
   41.0750   33.2630   41.2780 C   0  0  0  0  0  0  0  0  0  0  0  0
   40.6560   34.5490   40.8570 C   0  0  0  0  0  0  0  0  0  0  0  0
   39.4600   34.6460   40.2320 C   0  0  0  0  0  0  0  0  0  0  0  0
   38.7710   33.5290   40.0630 N   0  0  0  0  0  0  0  0  0  0  0  0
   39.1480   32.3200   40.4510 C   0  0  0  0  0  0  0  0  0  0  0  0
   40.3680   32.1430   41.1010 N   0  0  0  0  0  0  0  0  0  0  0  0
   42.0160   33.0970   41.7840 H   0  0  0  0  0  0  0  0  0  0  0  0
   39.1830   35.6460   39.9290 H   0  0  0  0  0  0  0  0  0  0  0  0
   37.4910   30.7320   41.2460 C   0  0  0  0  0  0  0  0  0  0  0  0
   38.3350   31.1320   40.2300 C   0  0  0  0  0  0  0  0  0  0  0  0
   38.3950   30.4190   39.0510 C   0  0  0  0  0  0  0  0  0  0  0  0
   39.0430   30.7200   38.2620 H   0  0  0  0  0  0  0  0  0  0  0  0
   37.5850   29.2960   38.9260 C   0  0  0  0  0  0  0  0  0  0  0  0
   37.4950   28.4600   37.8500 N   0  0  0  0  0  0  0  0  0  0  0  0
   38.0150   28.5240   36.9520 H   0  0  0  0  0  0  0  0  0  0  0  0
   36.5740   27.5200   38.2070 C   0  0  0  0  0  0  0  0  0  0  0  0
   36.2380   26.6780   37.5920 H   0  0  0  0  0  0  0  0  0  0  0  0
   36.0950   27.7590   39.4790 C   0  0  0  0  0  0  0  0  0  0  0  0
   36.7350   28.8900   39.9440 C   0  0  0  0  0  0  0  0  0  0  0  0
   36.6840   29.6160   41.1240 C   0  0  0  0  0  0  0  0  0  0  0  0
   42.8580   35.4470   40.6540 O   0  0  0  0  0  0  0  0  0  0  0  0
   44.0710   35.3360   41.3110 C   0  0  0  0  0  0  0  0  0  0  0  0
   44.0520   35.5850   42.6160 C   0  0  0  0  0  0  0  0  0  0  0  0
   45.2590   35.5200   43.5340 C   0  0  0  0  0  0  0  0  0  0  0  0
   46.1450   35.2010   42.9410 H   0  0  0  0  0  0  0  0  0  0  0  0
   45.4620   36.5070   43.9760 H   0  0  0  0  0  0  0  0  0  0  0  0
   44.9840   34.5820   44.5050 O   0  0  0  0  0  0  0  0  0  0  0  0
   45.6270   32.4190   43.0900 O   0  0  0  0  0  0  0  0  0  0  0  0
   45.9690   33.2250   44.3190 P   0  0  1  0  0  0  0  0  0  0  0  0
   47.5970   33.7020   44.1550 O   0  0  0  0  0  0  0  0  0  0  0  0
   48.1750   32.9370   44.4110 H   0  0  0  0  0  0  0  0  0  0  0  0
   45.8760   32.2510   45.6950 O   0  0  0  0  0  0  0  0  0  0  0  0
   46.1920   32.9440   46.8470 C   0  0  0  0  0  0  0  0  0  0  0  0
   47.1150   32.3100   47.8410 C   0  0  0  0  0  0  0  0  0  0  0  0
   45.6350   32.3550   48.1240 C   0  0  0  0  0  0  0  0  0  0  0  0
   46.3270   34.0420   46.7790 H   0  0  0  0  0  0  0  0  0  0  0  0
   47.8110   32.9230   48.4450 H   0  0  0  0  0  0  0  0  0  0  0  0
   47.4760   31.3010   47.5480 H   0  0  0  0  0  0  0  0  0  0  0  0
   45.3310   33.0830   48.9170 H   0  0  0  0  0  0  0  0  0  0  0  0
   45.0320   31.4360   48.0720 H   0  0  0  0  0  0  0  0  0  0  0  0
  1  2  1  0  0  0  0
  3  1  1  0  0  0  0
  4 10  1  0  0  0  0
  5  1  1  0  0  0  0
  5  4  2  0  0  0  0
  6  5  1  0  0  0  0
  7  6  2  0  0  0  0
  7  8  1  0  0  0  0
  8  9  2  0  0  0  0
  9  4  1  0  0  0  0
 11  6  1  0  0  0  0
 13  8  1  0  0  0  0
 13 12  2  0  0  0  0
 14 13  1  0  0  0  0
 15 14  1  0  0  0  0
 16 14  2  0  0  0  0
 16 22  1  0  0  0  0
 17 19  1  0  0  0  0
 17 16  1  0  0  0  0
 18 17  1  0  0  0  0
 19 21  2  0  0  0  0
 20 19  1  0  0  0  0
 21 22  1  0  0  0  0
 22 23  2  0  0  0  0
 23 12  1  0  0  0  0
 24  1  1  0  0  0  0
 24 25  1  0  0  0  0
 25 26  2  0  0  0  0
 26 27  1  0  0  0  0
 27 29  1  0  0  0  0
 27 30  1  0  0  0  0
 28 27  1  0  0  0  0
 32 31  2  6  0  0  0
 32 30  1  0  0  0  0
 32 35  1  0  0  0  0
 33 32  1  0  0  0  0
 33 34  1  0  0  0  0
 35 36  1  0  0  0  0
 36 37  1  0  0  0  0
 36 38  1  0  0  0  0
 37 38  1  0  0  0  0
 37 40  1  0  0  0  0
 38 42  1  0  0  0  0
 39 36  1  0  0  0  0
 41 37  1  0  0  0  0
 43 38  1  0  0  0  0
M  END
>  <minimizedAffinity>
-5.5637989

>  <minimizedRMSD>
0.969252467

$$$$
