
 OpenBabel03242516523D

 48 52  0  0  1  0  0  0  0  0999 V2000
   47.7770   32.7500   41.6120 C   0  0  1  0  0  0  0  0  0  0  0  0
   47.3850   32.1680   40.3280 C   0  0  0  0  0  0  0  0  0  0  0  0
   48.4090   32.6740   39.3110 C   0  0  0  0  0  0  0  0  0  0  0  0
   48.1220   34.1570   39.1260 C   0  0  0  0  0  0  0  0  0  0  0  0
   48.1500   34.9390   40.4040 C   0  0  0  0  0  0  0  0  0  0  0  0
   47.6460   34.2760   41.6150 C   0  0  1  0  0  0  0  0  0  0  0  0
   48.8960   32.6120   41.7390 H   0  0  0  0  0  0  0  0  0  0  0  0
   47.4990   31.0700   40.3670 H   0  0  0  0  0  0  0  0  0  0  0  0
   46.3800   32.4620   39.9640 H   0  0  0  0  0  0  0  0  0  0  0  0
   49.4210   32.6060   39.7640 H   0  0  0  0  0  0  0  0  0  0  0  0
   48.3100   32.1940   38.3380 H   0  0  0  0  0  0  0  0  0  0  0  0
   47.0780   34.2240   38.7450 H   0  0  0  0  0  0  0  0  0  0  0  0
   48.7930   34.6280   38.4020 H   0  0  0  0  0  0  0  0  0  0  0  0
   49.2000   35.2890   40.5470 H   0  0  0  0  0  0  0  0  0  0  0  0
   47.5720   35.8820   40.2130 H   0  0  0  0  0  0  0  0  0  0  0  0
   48.2780   34.6030   42.4960 H   0  0  0  0  0  0  0  0  0  0  0  0
   45.3090   30.8960   43.7920 C   0  0  0  0  0  0  0  0  0  0  0  0
   45.9850   31.4450   42.6990 C   0  0  0  0  0  0  0  0  0  0  0  0
   47.1460   32.2150   42.7990 C   0  0  0  0  0  0  0  0  0  0  0  0
   47.5950   32.4090   44.0390 N   0  0  0  0  0  0  0  0  0  0  0  0
   46.9580   31.8890   45.1220 C   0  0  0  0  0  0  0  0  0  0  0  0
   45.8510   31.1550   45.0150 N   0  0  0  0  0  0  0  0  0  0  0  0
   44.4200   30.3190   43.5790 H   0  0  0  0  0  0  0  0  0  0  0  0
   45.6080   31.2750   41.7000 H   0  0  0  0  0  0  0  0  0  0  0  0
   47.2850   32.0210   46.1360 H   0  0  0  0  0  0  0  0  0  0  0  0
   46.2950   34.7040   41.9770 C   0  0  0  0  0  0  0  0  0  0  0  0
   45.9220   35.2900   43.1980 C   0  0  0  0  0  0  0  0  0  0  0  0
   44.5790   35.6320   43.3170 C   0  0  0  0  0  0  0  0  0  0  0  0
   43.7380   35.3760   42.2520 C   0  0  0  0  0  0  0  0  0  0  0  0
   44.1250   34.7970   41.0540 C   0  0  0  0  0  0  0  0  0  0  0  0
   45.4490   34.4640   40.9480 N   0  0  0  0  0  0  0  0  0  0  0  0
   46.6830   35.4210   43.9190 H   0  0  0  0  0  0  0  0  0  0  0  0
   44.2680   36.0790   44.2360 H   0  0  0  0  0  0  0  0  0  0  0  0
   42.6890   35.6450   42.3500 H   0  0  0  0  0  0  0  0  0  0  0  0
   43.1640   34.5700   39.9800 C   0  0  0  0  0  0  0  0  0  0  0  0
   42.2380   35.4230   39.8440 O   0  0  0  0  0  0  0  0  0  0  0  0
   41.8950   32.8770   38.7770 C   0  0  0  0  0  3  0  0  0  0  0  0
   43.1140   33.4770   39.0170 C   0  0  0  0  0  0  0  0  0  0  0  0
   44.2100   33.0030   38.3270 C   0  0  0  0  0  0  0  0  0  0  0  0
   45.1310   33.4990   38.5480 H   0  0  0  0  0  0  0  0  0  0  0  0
   44.1690   31.9700   37.4140 C   0  0  0  0  0  0  0  0  0  0  0  0
   45.0690   31.3430   36.6360 N   0  0  0  0  0  0  0  0  0  0  0  0
   46.0870   31.5770   36.5970 H   0  0  0  0  0  0  0  0  0  0  0  0
   44.4330   30.3730   35.9250 C   0  0  0  0  0  0  0  0  0  0  0  0
   44.8730   29.6790   35.1980 H   0  0  0  0  0  0  0  0  0  0  0  0
   43.0750   30.3720   36.2550 C   0  0  0  0  0  3  0  0  0  0  0  0
   42.9320   31.3880   37.1970 C   0  0  0  0  0  0  0  0  0  0  0  0
   41.8020   31.8230   37.8590 C   0  0  0  0  0  3  0  0  0  0  0  0
  1  6  1  0  0  0  0
  1  7  1  1  0  0  0
  1 19  1  0  0  0  0
  2  8  1  0  0  0  0
  2  1  1  0  0  0  0
  3 10  1  0  0  0  0
  3  2  1  0  0  0  0
  4  3  1  0  0  0  0
  4  5  1  0  0  0  0
  5 14  1  0  0  0  0
  5  6  1  0  0  0  0
  6 26  1  0  0  0  0
  6 16  1  1  0  0  0
  9  2  1  0  0  0  0
 11  3  1  0  0  0  0
 12  4  1  0  0  0  0
 13  4  1  0  0  0  0
 15  5  1  0  0  0  0
 17 22  1  0  0  0  0
 18 19  1  0  0  0  0
 18 17  2  0  0  0  0
 19 20  2  0  0  0  0
 20 21  1  0  0  0  0
 21 25  1  0  0  0  0
 22 21  2  0  0  0  0
 23 17  1  0  0  0  0
 24 18  1  0  0  0  0
 26 27  1  0  0  0  0
 27 28  2  0  0  0  0
 27 32  1  0  0  0  0
 28 33  1  0  0  0  0
 29 34  1  0  0  0  0
 29 28  1  0  0  0  0
 30 29  2  0  0  0  0
 31 30  1  0  0  0  0
 31 26  2  0  0  0  0
 35 30  1  0  0  0  0
 36 35  2  0  0  0  0
 37 38  1  0  0  0  0
 38 35  1  0  0  0  0
 39 40  1  0  0  0  0
 39 38  2  0  0  0  0
 41 39  1  0  0  0  0
 42 41  1  0  0  0  0
 43 42  1  0  0  0  0
 44 46  2  0  0  0  0
 44 42  1  0  0  0  0
 45 44  1  0  0  0  0
 46 47  1  0  0  0  0
 47 41  2  0  0  0  0
 47 48  1  0  0  0  0
 48 37  2  0  0  0  0
M  END
>  <minimizedAffinity>
-5.84128904

>  <minimizedRMSD>
0.906474113

$$$$
