
 OpenBabel03252504323D

 43 46  0  0  0  0  0  0  0  0999 V2000
   41.4160   35.4760   41.5660 C   0  0  0  0  0  0  0  0  0  0  0  0
   41.3910   35.2760   42.6770 H   0  0  0  0  0  0  0  0  0  0  0  0
   40.8300   36.4110   41.4420 H   0  0  0  0  0  0  0  0  0  0  0  0
   41.0250   33.0730   41.3070 C   0  0  0  0  0  0  0  0  0  0  0  0
   40.5600   34.3770   41.0070 C   0  0  0  0  0  0  0  0  0  0  0  0
   39.4260   34.4860   40.2780 C   0  0  0  0  0  0  0  0  0  0  0  0
   38.8370   33.3630   39.8990 N   0  0  0  0  0  0  0  0  0  0  0  0
   39.2590   32.1380   40.1710 C   0  0  0  0  0  0  0  0  0  0  0  0
   40.4190   31.9470   40.9180 N   0  0  0  0  0  0  0  0  0  0  0  0
   41.9220   32.8960   41.8840 H   0  0  0  0  0  0  0  0  0  0  0  0
   39.1100   35.5000   40.0740 H   0  0  0  0  0  0  0  0  0  0  0  0
   38.7840   30.5120   38.4280 C   0  0  0  0  0  3  0  0  0  0  0  0
   38.5570   30.9430   39.7200 C   0  0  0  0  0  0  0  0  0  0  0  0
   37.6910   30.2550   40.5430 C   0  0  0  0  0  0  0  0  0  0  0  0
   37.5100   30.5800   41.5420 H   0  0  0  0  0  0  0  0  0  0  0  0
   37.0640   29.1250   40.0310 C   0  0  0  0  0  0  0  0  0  0  0  0
   36.1790   28.3100   40.6770 N   0  0  0  0  0  0  0  0  0  0  0  0
   35.8290   28.3980   41.6510 H   0  0  0  0  0  0  0  0  0  0  0  0
   35.8490   27.3510   39.7640 C   0  0  0  0  0  0  0  0  0  0  0  0
   35.1560   26.5160   39.9240 H   0  0  0  0  0  0  0  0  0  0  0  0
   36.5120   27.5580   38.5710 C   0  0  0  0  0  3  0  0  0  0  0  0
   37.2880   28.6880   38.7340 C   0  0  0  0  0  0  0  0  0  0  0  0
   38.1610   29.3900   37.9170 C   0  0  0  0  0  3  0  0  0  0  0  0
   42.6300   35.5630   40.9760 O   0  0  0  0  0  0  0  0  0  0  0  0
   43.8820   35.4540   41.5560 C   0  0  0  0  0  3  0  0  0  0  0  0
   43.9280   35.6050   42.8750 C   0  0  0  0  0  3  0  0  0  0  0  0
   45.1860   35.5220   43.7200 C   0  0  0  0  0  0  0  0  0  0  0  0
   46.0350   35.2130   43.0700 H   0  0  0  0  0  0  0  0  0  0  0  0
   45.4180   36.5000   44.1670 H   0  0  0  0  0  0  0  0  0  0  0  0
   44.9670   34.5670   44.6890 O   0  0  0  0  0  0  0  0  0  0  0  0
   45.5590   32.4690   43.1580 O   0  0  0  0  0  0  0  0  0  0  0  0
   45.9330   33.2100   44.4190 P   0  0  1  0  0  0  0  0  0  0  0  0
   47.5630   33.6790   44.2460 O   0  0  0  0  0  0  0  0  0  0  0  0
   48.1370   32.8960   44.4540 H   0  0  0  0  0  0  0  0  0  0  0  0
   45.8550   32.1730   45.7480 O   0  0  0  0  0  0  0  0  0  0  0  0
   45.9650   32.8490   46.9460 C   0  0  0  0  0  0  0  0  0  0  0  0
   46.8160   32.2660   48.0300 C   0  0  0  0  0  0  0  0  0  0  0  0
   45.3150   32.1680   48.1300 C   0  0  0  0  0  0  0  0  0  0  0  0
   46.0050   33.9570   46.9220 H   0  0  0  0  0  0  0  0  0  0  0  0
   47.3750   32.9160   48.7300 H   0  0  0  0  0  0  0  0  0  0  0  0
   47.3020   31.3030   47.7600 H   0  0  0  0  0  0  0  0  0  0  0  0
   44.8520   32.8380   48.8970 H   0  0  0  0  0  0  0  0  0  0  0  0
   44.8110   31.2020   47.9820 H   0  0  0  0  0  0  0  0  0  0  0  0
  1  2  1  0  0  0  0
  3  1  1  0  0  0  0
  4 10  1  0  0  0  0
  5  4  1  0  0  0  0
  5  1  1  0  0  0  0
  6  5  2  0  0  0  0
  7  8  2  0  0  0  0
  7  6  1  0  0  0  0
  8  9  1  0  0  0  0
  9  4  2  0  0  0  0
 11  6  1  0  0  0  0
 12 13  1  0  0  0  0
 13  8  1  0  0  0  0
 13 14  2  0  0  0  0
 14 15  1  0  0  0  0
 16 14  1  0  0  0  0
 16 17  1  0  0  0  0
 17 18  1  0  0  0  0
 19 20  1  0  0  0  0
 19 17  1  0  0  0  0
 21 22  1  0  0  0  0
 21 19  2  0  0  0  0
 22 16  2  0  0  0  0
 23 12  2  0  0  0  0
 23 22  1  0  0  0  0
 24 25  1  0  0  0  0
 24  1  1  0  0  0  0
 25 26  2  0  0  0  0
 26 27  1  0  0  0  0
 27 29  1  0  0  0  0
 27 30  1  0  0  0  0
 28 27  1  0  0  0  0
 32 31  2  6  0  0  0
 32 30  1  0  0  0  0
 32 35  1  0  0  0  0
 33 32  1  0  0  0  0
 33 34  1  0  0  0  0
 35 36  1  0  0  0  0
 36 37  1  0  0  0  0
 36 38  1  0  0  0  0
 37 38  1  0  0  0  0
 37 40  1  0  0  0  0
 38 42  1  0  0  0  0
 39 36  1  0  0  0  0
 41 37  1  0  0  0  0
 43 38  1  0  0  0  0
M  END
>  <minimizedAffinity>
-5.52754927

>  <minimizedRMSD>
1.32975149

$$$$
