
 OpenBabel03242516523D

 48 52  0  0  1  0  0  0  0  0999 V2000
   47.9020   32.9840   41.8050 C   0  0  1  0  0  0  0  0  0  0  0  0
   47.6170   32.2540   40.5700 C   0  0  0  0  0  0  0  0  0  0  0  0
   48.6590   32.7290   39.5550 C   0  0  0  0  0  0  0  0  0  0  0  0
   48.2860   34.1640   39.2100 C   0  0  0  0  0  0  0  0  0  0  0  0
   48.1950   35.0660   40.4030 C   0  0  0  0  0  0  0  0  0  0  0  0
   47.6720   34.4900   41.6490 C   0  0  1  0  0  0  0  0  0  0  0  0
   49.0180   32.9370   41.9980 H   0  0  0  0  0  0  0  0  0  0  0  0
   47.7990   31.1760   40.7230 H   0  0  0  0  0  0  0  0  0  0  0  0
   46.6150   32.4410   40.1320 H   0  0  0  0  0  0  0  0  0  0  0  0
   49.6480   32.7770   40.0600 H   0  0  0  0  0  0  0  0  0  0  0  0
   48.6420   32.1520   38.6320 H   0  0  0  0  0  0  0  0  0  0  0  0
   47.2620   34.1210   38.7760 H   0  0  0  0  0  0  0  0  0  0  0  0
   48.9630   34.6080   38.4740 H   0  0  0  0  0  0  0  0  0  0  0  0
   49.2110   35.5010   40.5580 H   0  0  0  0  0  0  0  0  0  0  0  0
   47.5680   35.9430   40.0920 H   0  0  0  0  0  0  0  0  0  0  0  0
   48.2340   34.9440   42.5210 H   0  0  0  0  0  0  0  0  0  0  0  0
   45.5300   31.0820   44.0510 C   0  0  0  0  0  0  0  0  0  0  0  0
   46.2210   31.5750   42.9410 C   0  0  0  0  0  0  0  0  0  0  0  0
   47.2450   32.5230   43.0100 C   0  0  0  0  0  0  0  0  0  0  0  0
   47.5400   32.9530   44.2360 N   0  0  0  0  0  0  0  0  0  0  0  0
   46.8850   32.4910   45.3350 C   0  0  0  0  0  0  0  0  0  0  0  0
   45.9110   31.5860   45.2570 N   0  0  0  0  0  0  0  0  0  0  0  0
   44.7590   30.3490   43.8610 H   0  0  0  0  0  0  0  0  0  0  0  0
   45.9690   31.2130   41.9530 H   0  0  0  0  0  0  0  0  0  0  0  0
   47.0920   32.8100   46.3390 H   0  0  0  0  0  0  0  0  0  0  0  0
   46.2780   34.8560   41.9030 C   0  0  0  0  0  0  0  0  0  0  0  0
   45.8170   35.6130   42.9920 C   0  0  0  0  0  0  0  0  0  0  0  0
   44.4470   35.8520   43.0230 C   0  0  0  0  0  0  0  0  0  0  0  0
   43.6670   35.3400   42.0050 C   0  0  0  0  0  0  0  0  0  0  0  0
   44.1410   34.5950   40.9370 C   0  0  0  0  0  0  0  0  0  0  0  0
   45.4910   34.3650   40.9180 N   0  0  0  0  0  0  0  0  0  0  0  0
   46.5390   35.9350   43.6930 H   0  0  0  0  0  0  0  0  0  0  0  0
   44.0700   36.4260   43.8410 H   0  0  0  0  0  0  0  0  0  0  0  0
   42.5970   35.5300   42.0330 H   0  0  0  0  0  0  0  0  0  0  0  0
   43.2400   34.1000   39.9030 C   0  0  0  0  0  0  0  0  0  0  0  0
   42.3760   34.9100   39.4520 O   0  0  0  0  0  0  0  0  0  0  0  0
   43.9340   31.7660   39.8680 C   0  0  0  0  0  3  0  0  0  0  0  0
   43.1860   32.7750   39.2970 C   0  0  0  0  0  0  0  0  0  0  0  0
   42.4330   32.4640   38.1840 C   0  0  0  0  0  0  0  0  0  0  0  0
   41.8730   33.2770   37.7770 H   0  0  0  0  0  0  0  0  0  0  0  0
   42.3790   31.2120   37.6060 C   0  0  0  0  0  0  0  0  0  0  0  0
   41.7410   30.6720   36.5510 N   0  0  0  0  0  0  0  0  0  0  0  0
   41.0940   31.1930   35.9170 H   0  0  0  0  0  0  0  0  0  0  0  0
   42.0800   29.3570   36.4630 C   0  0  0  0  0  0  0  0  0  0  0  0
   41.7380   28.6280   35.7190 H   0  0  0  0  0  0  0  0  0  0  0  0
   42.9660   29.0370   37.4940 C   0  0  0  0  0  3  0  0  0  0  0  0
   43.1400   30.2240   38.2020 C   0  0  0  0  0  0  0  0  0  0  0  0
   43.9120   30.4790   39.3160 C   0  0  0  0  0  3  0  0  0  0  0  0
  1  7  1  1  0  0  0
  1 19  1  0  0  0  0
  2  8  1  0  0  0  0
  2  1  1  0  0  0  0
  3 10  1  0  0  0  0
  3  2  1  0  0  0  0
  4  3  1  0  0  0  0
  4  5  1  0  0  0  0
  5 14  1  0  0  0  0
  5  6  1  0  0  0  0
  6  1  1  0  0  0  0
  6 26  1  0  0  0  0
  6 16  1  1  0  0  0
  9  2  1  0  0  0  0
 11  3  1  0  0  0  0
 12  4  1  0  0  0  0
 13  4  1  0  0  0  0
 15  5  1  0  0  0  0
 17 22  1  0  0  0  0
 18 19  1  0  0  0  0
 18 17  2  0  0  0  0
 19 20  2  0  0  0  0
 20 21  1  0  0  0  0
 21 25  1  0  0  0  0
 22 21  2  0  0  0  0
 23 17  1  0  0  0  0
 24 18  1  0  0  0  0
 26 27  1  0  0  0  0
 27 28  2  0  0  0  0
 27 32  1  0  0  0  0
 28 33  1  0  0  0  0
 29 34  1  0  0  0  0
 29 28  1  0  0  0  0
 30 29  2  0  0  0  0
 31 30  1  0  0  0  0
 31 26  2  0  0  0  0
 35 30  1  0  0  0  0
 36 35  2  0  0  0  0
 38 37  2  0  0  0  0
 38 35  1  0  0  0  0
 39 38  1  0  0  0  0
 40 39  1  0  0  0  0
 41 39  2  0  0  0  0
 41 47  1  0  0  0  0
 42 41  1  0  0  0  0
 43 42  1  0  0  0  0
 44 42  1  0  0  0  0
 44 46  2  0  0  0  0
 45 44  1  0  0  0  0
 46 47  1  0  0  0  0
 47 48  2  0  0  0  0
 48 37  1  0  0  0  0
M  END
>  <minimizedAffinity>
-5.36926508

>  <minimizedRMSD>
0.287344038

$$$$
