
 OpenBabel03242516523D

 48 52  0  0  1  0  0  0  0  0999 V2000
   47.8110   32.7820   41.6700 C   0  0  1  0  0  0  0  0  0  0  0  0
   47.4530   32.1720   40.3900 C   0  0  0  0  0  0  0  0  0  0  0  0
   48.4830   32.6850   39.3810 C   0  0  0  0  0  0  0  0  0  0  0  0
   48.1670   34.1580   39.1690 C   0  0  0  0  0  0  0  0  0  0  0  0
   48.1570   34.9600   40.4340 C   0  0  0  0  0  0  0  0  0  0  0  0
   47.6470   34.3060   41.6470 C   0  0  1  0  0  0  0  0  0  0  0  0
   48.9300   32.6710   41.8180 H   0  0  0  0  0  0  0  0  0  0  0  0
   47.5900   31.0780   40.4470 H   0  0  0  0  0  0  0  0  0  0  0  0
   46.4480   32.4390   40.0050 H   0  0  0  0  0  0  0  0  0  0  0  0
   49.4890   32.6460   39.8530 H   0  0  0  0  0  0  0  0  0  0  0  0
   48.4100   32.1880   38.4150 H   0  0  0  0  0  0  0  0  0  0  0  0
   47.1290   34.1970   38.7690 H   0  0  0  0  0  0  0  0  0  0  0  0
   48.8400   34.6330   38.4480 H   0  0  0  0  0  0  0  0  0  0  0  0
   49.1960   35.3350   40.5890 H   0  0  0  0  0  0  0  0  0  0  0  0
   47.5620   35.8870   40.2190 H   0  0  0  0  0  0  0  0  0  0  0  0
   48.2570   34.6590   42.5330 H   0  0  0  0  0  0  0  0  0  0  0  0
   45.3460   30.9110   43.8390 C   0  0  0  0  0  0  0  0  0  0  0  0
   46.0280   31.4560   42.7480 C   0  0  0  0  0  0  0  0  0  0  0  0
   47.1720   32.2520   42.8550 C   0  0  0  0  0  0  0  0  0  0  0  0
   47.5960   32.4750   44.0990 N   0  0  0  0  0  0  0  0  0  0  0  0
   46.9510   31.9570   45.1790 C   0  0  0  0  0  0  0  0  0  0  0  0
   45.8620   31.1990   45.0660 N   0  0  0  0  0  0  0  0  0  0  0  0
   44.4730   30.3120   43.6200 H   0  0  0  0  0  0  0  0  0  0  0  0
   45.6710   31.2640   41.7460 H   0  0  0  0  0  0  0  0  0  0  0  0
   47.2600   32.1110   46.1960 H   0  0  0  0  0  0  0  0  0  0  0  0
   46.2810   34.7100   41.9800 C   0  0  0  0  0  0  0  0  0  0  0  0
   45.8730   35.2940   43.1900 C   0  0  0  0  0  0  0  0  0  0  0  0
   44.5210   35.6110   43.2810 C   0  0  0  0  0  0  0  0  0  0  0  0
   43.7070   35.3340   42.2000 C   0  0  0  0  0  0  0  0  0  0  0  0
   44.1290   34.7570   41.0130 C   0  0  0  0  0  0  0  0  0  0  0  0
   45.4610   34.4490   40.9350 N   0  0  0  0  0  0  0  0  0  0  0  0
   46.6160   35.4430   43.9260 H   0  0  0  0  0  0  0  0  0  0  0  0
   44.1840   36.0560   44.1910 H   0  0  0  0  0  0  0  0  0  0  0  0
   42.6510   35.5830   42.2760 H   0  0  0  0  0  0  0  0  0  0  0  0
   43.1940   34.5080   39.9210 C   0  0  0  0  0  0  0  0  0  0  0  0
   42.2360   35.3250   39.7820 O   0  0  0  0  0  0  0  0  0  0  0  0
   44.3900   33.1350   38.3040 C   0  0  0  0  0  3  0  0  0  0  0  0
   43.2020   33.4280   38.9420 C   0  0  0  0  0  0  0  0  0  0  0  0
   42.0940   32.6750   38.6110 C   0  0  0  0  0  0  0  0  0  0  0  0
   41.1990   32.9410   39.1300 H   0  0  0  0  0  0  0  0  0  0  0  0
   42.0950   31.6540   37.6840 C   0  0  0  0  0  0  0  0  0  0  0  0
   41.1750   30.8010   37.2010 N   0  0  0  0  0  0  0  0  0  0  0  0
   40.1730   30.7760   37.4950 H   0  0  0  0  0  0  0  0  0  0  0  0
   41.7700   29.9910   36.2810 C   0  0  0  0  0  0  0  0  0  0  0  0
   41.3050   29.1870   35.7000 H   0  0  0  0  0  0  0  0  0  0  0  0
   43.1190   30.3350   36.1670 C   0  0  0  0  0  3  0  0  0  0  0  0
   43.3020   31.3870   37.0630 C   0  0  0  0  0  0  0  0  0  0  0  0
   44.4410   32.1060   37.3550 C   0  0  0  0  0  3  0  0  0  0  0  0
  1  7  1  1  0  0  0
  1 19  1  0  0  0  0
  2  8  1  0  0  0  0
  2  1  1  0  0  0  0
  3 10  1  0  0  0  0
  3  2  1  0  0  0  0
  4  3  1  0  0  0  0
  4  5  1  0  0  0  0
  5 14  1  0  0  0  0
  5  6  1  0  0  0  0
  6  1  1  0  0  0  0
  6 26  1  0  0  0  0
  6 16  1  1  0  0  0
  9  2  1  0  0  0  0
 11  3  1  0  0  0  0
 12  4  1  0  0  0  0
 13  4  1  0  0  0  0
 15  5  1  0  0  0  0
 17 22  1  0  0  0  0
 18 19  1  0  0  0  0
 18 17  2  0  0  0  0
 19 20  2  0  0  0  0
 20 21  1  0  0  0  0
 21 25  1  0  0  0  0
 22 21  2  0  0  0  0
 23 17  1  0  0  0  0
 24 18  1  0  0  0  0
 26 27  1  0  0  0  0
 27 28  2  0  0  0  0
 27 32  1  0  0  0  0
 28 33  1  0  0  0  0
 29 34  1  0  0  0  0
 29 28  1  0  0  0  0
 30 29  2  0  0  0  0
 31 30  1  0  0  0  0
 31 26  2  0  0  0  0
 35 30  1  0  0  0  0
 36 35  2  0  0  0  0
 37 38  1  0  0  0  0
 38 35  1  0  0  0  0
 39 38  2  0  0  0  0
 39 40  1  0  0  0  0
 41 39  1  0  0  0  0
 42 43  1  0  0  0  0
 42 41  1  0  0  0  0
 44 42  1  0  0  0  0
 45 44  1  0  0  0  0
 46 44  2  0  0  0  0
 46 47  1  0  0  0  0
 47 48  1  0  0  0  0
 47 41  2  0  0  0  0
 48 37  2  0  0  0  0
M  END
>  <minimizedAffinity>
-5.84999228

>  <minimizedRMSD>
0.644333661

$$$$
