
 OpenBabel03252507593D

 32 35  0  0  1  0  0  0  0  0999 V2000
   46.2650   34.7470   43.2930 C   0  0  0  0  0  0  0  0  0  0  0  0
   45.3300   35.7900   43.5960 C   0  0  0  0  0  0  0  0  0  0  0  0
   44.6340   35.6680   44.8170 C   0  0  0  0  0  0  0  0  0  0  0  0
   44.8900   34.5970   45.6050 N   0  0  0  0  0  0  0  0  0  0  0  0
   45.7980   33.6490   45.2360 C   0  0  0  0  0  0  0  0  0  0  0  0
   46.4850   33.6960   44.1130 N   0  0  0  0  0  0  0  0  0  0  0  0
   45.1490   36.6320   42.9450 H   0  0  0  0  0  0  0  0  0  0  0  0
   43.9320   36.4510   45.0510 H   0  0  0  0  0  0  0  0  0  0  0  0
   46.0250   32.4990   46.1770 C   0  0  1  0  0  0  0  0  0  0  0  0
   46.8400   32.7310   47.4300 C   0  0  0  0  0  0  0  0  0  0  0  0
   45.3380   32.6130   47.4810 C   0  0  1  0  0  0  0  0  0  0  0  0
   46.0840   31.4850   45.7270 H   0  0  0  0  0  0  0  0  0  0  0  0
   47.3390   33.7200   47.4230 H   0  0  0  0  0  0  0  0  0  0  0  0
   47.4640   31.8920   47.7380 H   0  0  0  0  0  0  0  0  0  0  0  0
   44.9670   31.7600   48.0460 H   0  0  0  0  0  0  0  0  0  0  0  0
   44.7090   33.8950   47.8510 N   0  0  0  0  0  0  0  0  0  0  0  0
   43.6880   33.8600   47.8290 H   0  0  0  0  0  0  0  0  0  0  0  0
   45.1730   34.1980   48.7110 H   0  0  0  0  0  0  0  0  0  0  0  0
   46.9280   34.9710   42.0420 C   0  0  0  0  0  0  0  0  0  0  0  0
   48.0090   35.6490   41.9140 O   0  0  0  0  0  0  0  0  0  0  0  0
   46.5530   33.4760   39.9540 C   0  0  0  0  0  3  0  0  0  0  0  0
   46.1850   34.3230   40.9720 C   0  0  0  0  0  0  0  0  0  0  0  0
   44.8200   34.6280   41.0900 C   0  0  0  0  0  0  0  0  0  0  0  0
   44.3940   35.2800   41.8480 H   0  0  0  0  0  0  0  0  0  0  0  0
   43.8640   34.1160   40.2370 C   0  0  0  0  0  0  0  0  0  0  0  0
   42.5080   34.2500   40.1560 N   0  0  0  0  0  0  0  0  0  0  0  0
   41.9110   34.8300   40.7900 H   0  0  0  0  0  0  0  0  0  0  0  0
   42.0570   33.5140   39.1250 C   0  0  0  0  0  0  0  0  0  0  0  0
   41.0390   33.4030   38.7870 H   0  0  0  0  0  0  0  0  0  0  0  0
   43.1320   32.8710   38.5030 C   0  0  0  0  0  3  0  0  0  0  0  0
   44.2480   33.2650   39.2190 C   0  0  0  0  0  0  0  0  0  0  0  0
   45.6050   32.9670   39.1080 C   0  0  0  0  0  3  0  0  0  0  0  0
  1  2  2  0  0  0  0
  1  6  1  0  0  0  0
  2  3  1  0  0  0  0
  3  8  1  0  0  0  0
  3  4  2  0  0  0  0
  5  4  1  0  0  0  0
  5  9  1  0  0  0  0
  6  5  2  0  0  0  0
  7  2  1  0  0  0  0
  9 12  1  6  0  0  0
  9 10  1  0  0  0  0
  9 11  1  0  0  0  0
 10 11  1  0  0  0  0
 10 14  1  0  0  0  0
 11 16  1  0  0  0  0
 11 15  1  1  0  0  0
 13 10  1  0  0  0  0
 16 18  1  0  0  0  0
 17 16  1  0  0  0  0
 19  1  1  0  0  0  0
 20 19  2  0  0  0  0
 21 22  1  0  0  0  0
 22 23  2  0  0  0  0
 22 19  1  0  0  0  0
 23 24  1  0  0  0  0
 25 23  1  0  0  0  0
 26 25  1  0  0  0  0
 26 27  1  0  0  0  0
 28 26  1  0  0  0  0
 29 28  1  0  0  0  0
 30 28  2  0  0  0  0
 30 31  1  0  0  0  0
 31 25  2  0  0  0  0
 32 31  1  0  0  0  0
 32 21  2  0  0  0  0
M  END
>  <minimizedAffinity>
-6.20249271

>  <minimizedRMSD>
0.604696095

$$$$
