
 OpenBabel03242521453D

 50 54  0  0  1  0  0  0  0  0999 V2000
   45.1160   37.0300   42.8800 C   0  0  0  0  0  0  0  0  0  0  0  0
   44.2520   36.8700   42.2250 H   0  0  0  0  0  0  0  0  0  0  0  0
   46.0430   37.3480   42.3790 H   0  0  0  0  0  0  0  0  0  0  0  0
   45.4580   35.8040   43.6950 C   0  0  0  0  0  0  0  0  0  0  0  0
   46.4810   34.9640   43.2290 C   0  0  0  0  0  0  0  0  0  0  0  0
   46.8210   33.8200   43.9780 C   0  0  0  0  0  0  0  0  0  0  0  0
   46.1500   33.5970   45.0920 N   0  0  0  0  0  0  0  0  0  0  0  0
   45.1660   34.4160   45.5280 C   0  0  0  0  0  0  0  0  0  0  0  0
   44.8180   35.5230   44.8270 N   0  0  0  0  0  0  0  0  0  0  0  0
   46.9510   35.2550   42.3060 H   0  0  0  0  0  0  0  0  0  0  0  0
   44.6500   34.1830   46.4460 H   0  0  0  0  0  0  0  0  0  0  0  0
   48.9320   33.7160   42.6630 C   0  0  2  0  0  0  0  0  0  0  0  0
   47.8920   33.0030   43.4240 C   0  0  2  0  0  0  0  0  0  0  0  0
   47.4390   32.0360   42.4560 O   0  0  0  0  0  0  0  0  0  0  0  0
   48.6580   31.4820   42.0740 C   0  0  0  0  0  0  0  0  0  0  0  0
   49.7440   32.4860   42.1950 C   0  0  1  0  0  0  0  0  0  0  0  0
   48.5400   34.1470   41.7040 H   0  0  0  0  0  0  0  0  0  0  0  0
   48.3490   32.3500   44.2020 H   0  0  0  0  0  0  0  0  0  0  0  0
   48.6010   31.0310   41.0730 H   0  0  0  0  0  0  0  0  0  0  0  0
   48.8740   30.6570   42.8010 H   0  0  0  0  0  0  0  0  0  0  0  0
   50.4740   32.2990   43.0020 H   0  0  0  0  0  0  0  0  0  0  0  0
   49.6510   34.6280   43.3530 O   0  0  0  0  0  0  0  0  0  0  0  0
   50.0500   35.3470   42.8340 H   0  0  0  0  0  0  0  0  0  0  0  0
   50.3690   32.7960   40.9830 O   0  0  0  0  0  0  0  0  0  0  0  0
   49.8590   32.2770   40.2900 H   0  0  0  0  0  0  0  0  0  0  0  0
   45.3590   39.3770   43.9520 C   0  0  0  0  0  0  0  0  0  0  0  0
   46.2040   39.6750   43.0740 O   0  0  0  0  0  0  0  0  0  0  0  0
   44.7850   38.0760   43.8330 N   0  0  0  0  0  0  0  0  0  0  0  0
   44.0180   37.8370   44.5280 H   0  0  0  0  0  0  0  0  0  0  0  0
   44.9450   40.2560   45.0510 C   0  0  0  0  0  0  0  0  0  0  0  0
   45.5580   40.1690   46.2560 C   0  0  0  0  0  0  0  0  0  0  0  0
   45.0940   41.0490   47.2400 C   0  0  0  0  0  0  0  0  0  0  0  0
   44.0640   41.9740   47.0310 C   0  0  0  0  0  0  0  0  0  0  0  0
   43.5130   41.9820   45.7860 C   0  0  0  0  0  0  0  0  0  0  0  0
   43.9360   41.1560   44.8300 N   0  0  0  0  0  0  0  0  0  0  0  0
   46.3460   39.4900   46.4820 H   0  0  0  0  0  0  0  0  0  0  0  0
   45.5430   41.0270   48.2220 H   0  0  0  0  0  0  0  0  0  0  0  0
   43.7320   42.6300   47.7960 H   0  0  0  0  0  0  0  0  0  0  0  0
   42.5630   43.6760   44.2850 C   0  0  0  0  0  0  0  0  0  0  0  0
   42.4330   42.8870   45.4090 C   0  0  0  0  0  0  0  0  0  0  0  0
   41.2530   43.0180   46.1130 C   0  0  0  0  0  0  0  0  0  0  0  0
   41.1020   42.4340   46.9870 H   0  0  0  0  0  0  0  0  0  0  0  0
   40.2560   43.8800   45.7300 C   0  0  0  0  0  0  0  0  0  0  0  0
   39.0400   44.1800   46.2430 N   0  0  0  0  0  0  0  0  0  0  0  0
   38.6270   43.7500   47.1100 H   0  0  0  0  0  0  0  0  0  0  0  0
   38.4240   45.1220   45.4700 C   0  0  0  0  0  0  0  0  0  0  0  0
   37.4530   45.5250   45.6670 H   0  0  0  0  0  0  0  0  0  0  0  0
   39.2720   45.4540   44.4080 C   0  0  0  0  0  0  0  0  0  0  0  0
   40.3860   44.6670   44.6080 C   0  0  0  0  0  0  0  0  0  0  0  0
   41.5530   44.5590   43.8830 C   0  0  0  0  0  0  0  0  0  0  0  0
  1  4  1  0  0  0  0
  1 28  1  0  0  0  0
  2  1  1  0  0  0  0
  3  1  1  0  0  0  0
  4  9  1  0  0  0  0
  5  4  2  0  0  0  0
  5  6  1  0  0  0  0
  6  7  2  0  0  0  0
  7  8  1  0  0  0  0
  8 11  1  0  0  0  0
  9  8  2  0  0  0  0
 10  5  1  0  0  0  0
 12 17  1  6  0  0  0
 12 22  1  0  0  0  0
 12 13  1  0  0  0  0
 13  6  1  0  0  0  0
 13 18  1  1  0  0  0
 14 13  1  0  0  0  0
 15 16  1  0  0  0  0
 15 14  1  0  0  0  0
 15 20  1  0  0  0  0
 16 12  1  0  0  0  0
 16 21  1  1  0  0  0
 19 15  1  0  0  0  0
 23 22  1  0  0  0  0
 24 16  1  0  0  0  0
 25 24  1  0  0  0  0
 26 30  1  0  0  0  0
 27 26  2  0  0  0  0
 28 26  1  0  0  0  0
 28 29  1  0  0  0  0
 30 31  1  0  0  0  0
 31 36  1  0  0  0  0
 31 32  2  0  0  0  0
 32 37  1  0  0  0  0
 33 32  1  0  0  0  0
 33 38  1  0  0  0  0
 34 33  2  0  0  0  0
 35 30  2  0  0  0  0
 35 34  1  0  0  0  0
 39 40  1  0  0  0  0
 40 34  1  0  0  0  0
 40 41  2  0  0  0  0
 41 42  1  0  0  0  0
 43 41  1  0  0  0  0
 43 44  1  0  0  0  0
 44 45  1  0  0  0  0
 46 47  1  0  0  0  0
 46 44  1  0  0  0  0
 48 49  1  0  0  0  0
 48 46  2  0  0  0  0
 49 43  2  0  0  0  0
 50 39  2  0  0  0  0
 50 49  1  0  0  0  0
M  END
>  <minimizedAffinity>
-4.32025146

>  <minimizedRMSD>
1.59318197

$$$$
