
 OpenBabel03252507593D

 32 35  0  0  1  0  0  0  0  0999 V2000
   46.7590   34.8540   43.0670 C   0  0  0  0  0  0  0  0  0  0  0  0
   45.6600   35.7740   43.0970 C   0  0  0  0  0  0  0  0  0  0  0  0
   44.6990   35.5660   44.1090 C   0  0  0  0  0  0  0  0  0  0  0  0
   44.8760   34.5340   44.9680 N   0  0  0  0  0  0  0  0  0  0  0  0
   45.9540   33.7050   44.8650 C   0  0  0  0  0  0  0  0  0  0  0  0
   46.8910   33.8380   43.9470 N   0  0  0  0  0  0  0  0  0  0  0  0
   45.5490   36.5880   42.3970 H   0  0  0  0  0  0  0  0  0  0  0  0
   43.8730   36.2560   44.1370 H   0  0  0  0  0  0  0  0  0  0  0  0
   46.0740   32.5920   45.8670 C   0  0  1  0  0  0  0  0  0  0  0  0
   46.8050   32.8520   47.1650 C   0  0  0  0  0  0  0  0  0  0  0  0
   45.3000   32.7840   47.1120 C   0  0  1  0  0  0  0  0  0  0  0  0
   46.1300   31.5570   45.4650 H   0  0  0  0  0  0  0  0  0  0  0  0
   47.3370   33.8230   47.1530 H   0  0  0  0  0  0  0  0  0  0  0  0
   47.3760   32.0080   47.5520 H   0  0  0  0  0  0  0  0  0  0  0  0
   44.8600   31.9690   47.6820 H   0  0  0  0  0  0  0  0  0  0  0  0
   44.6910   34.1000   47.3810 N   0  0  0  0  0  0  0  0  0  0  0  0
   43.6730   34.0960   47.2860 H   0  0  0  0  0  0  0  0  0  0  0  0
   45.1020   34.4250   48.2600 H   0  0  0  0  0  0  0  0  0  0  0  0
   47.6830   35.1610   42.0150 C   0  0  0  0  0  0  0  0  0  0  0  0
   48.6830   35.9520   42.1460 O   0  0  0  0  0  0  0  0  0  0  0  0
   46.1930   33.7110   40.4620 C   0  0  0  0  0  3  0  0  0  0  0  0
   47.3020   34.4450   40.8070 C   0  0  0  0  0  0  0  0  0  0  0  0
   48.2860   34.6210   39.8220 C   0  0  0  0  0  0  0  0  0  0  0  0
   49.2070   35.1790   39.9600 H   0  0  0  0  0  0  0  0  0  0  0  0
   48.1730   34.0940   38.5510 C   0  0  0  0  0  0  0  0  0  0  0  0
   48.9700   34.1360   37.4430 N   0  0  0  0  0  0  0  0  0  0  0  0
   49.8940   34.6210   37.3690 H   0  0  0  0  0  0  0  0  0  0  0  0
   48.3730   33.4510   36.4510 C   0  0  0  0  0  0  0  0  0  0  0  0
   48.7360   33.2890   35.4480 H   0  0  0  0  0  0  0  0  0  0  0  0
   47.1520   32.9420   36.9020 C   0  0  0  0  0  3  0  0  0  0  0  0
   47.0540   33.3600   38.2180 C   0  0  0  0  0  0  0  0  0  0  0  0
   46.0810   33.1880   39.2010 C   0  0  0  0  0  3  0  0  0  0  0  0
  1  2  2  0  0  0  0
  1  6  1  0  0  0  0
  2  3  1  0  0  0  0
  3  8  1  0  0  0  0
  3  4  2  0  0  0  0
  5  4  1  0  0  0  0
  5  9  1  0  0  0  0
  6  5  2  0  0  0  0
  7  2  1  0  0  0  0
  9 12  1  6  0  0  0
  9 11  1  0  0  0  0
  9 10  1  0  0  0  0
 10 14  1  0  0  0  0
 11 10  1  0  0  0  0
 11 16  1  0  0  0  0
 11 15  1  1  0  0  0
 13 10  1  0  0  0  0
 16 18  1  0  0  0  0
 17 16  1  0  0  0  0
 19 20  2  0  0  0  0
 19  1  1  0  0  0  0
 21 22  1  0  0  0  0
 22 19  1  0  0  0  0
 23 24  1  0  0  0  0
 23 22  2  0  0  0  0
 25 23  1  0  0  0  0
 26 25  1  0  0  0  0
 27 26  1  0  0  0  0
 28 30  2  0  0  0  0
 28 26  1  0  0  0  0
 29 28  1  0  0  0  0
 30 31  1  0  0  0  0
 31 25  2  0  0  0  0
 31 32  1  0  0  0  0
 32 21  2  0  0  0  0
M  END
>  <minimizedAffinity>
-6.43299675

>  <minimizedRMSD>
2.26136994

$$$$
