
 OpenBabel03252507153D

 32 35  0  0  0  0  0  0  0  0999 V2000
   45.8750   36.0520   43.0940 C   0  0  0  0  0  0  0  0  0  0  0  0
   46.2870   34.7390   43.4000 C   0  0  0  0  0  0  0  0  0  0  0  0
   45.7180   34.1100   44.4910 C   0  0  0  0  0  0  0  0  0  0  0  0
   44.7990   34.7680   45.2130 N   0  0  0  0  0  0  0  0  0  0  0  0
   44.3950   36.0370   44.9210 C   0  0  0  0  0  0  0  0  0  0  0  0
   44.9470   36.6470   43.8650 N   0  0  0  0  0  0  0  0  0  0  0  0
   46.2800   36.6040   42.2540 H   0  0  0  0  0  0  0  0  0  0  0  0
   43.6500   36.3920   45.6200 H   0  0  0  0  0  0  0  0  0  0  0  0
   46.1380   32.7560   44.8150 C   0  0  0  0  0  0  0  0  0  0  0  0
   45.7160   31.6910   44.0620 C   0  0  0  0  0  0  0  0  0  0  0  0
   46.1270   30.4240   44.3880 C   0  0  0  0  0  0  0  0  0  0  0  0
   46.9750   30.1720   45.4780 C   0  0  0  0  0  0  0  0  0  0  0  0
   47.3700   31.2770   46.2000 C   0  0  0  0  0  0  0  0  0  0  0  0
   46.9530   32.5120   45.8620 N   0  0  0  0  0  0  0  0  0  0  0  0
   45.0710   31.7950   43.2190 H   0  0  0  0  0  0  0  0  0  0  0  0
   45.8420   29.5230   43.8480 H   0  0  0  0  0  0  0  0  0  0  0  0
   47.3580   29.2230   45.8230 H   0  0  0  0  0  0  0  0  0  0  0  0
   48.0260   31.3050   47.0810 H   0  0  0  0  0  0  0  0  0  0  0  0
   47.2770   34.1010   42.5800 C   0  0  0  0  0  0  0  0  0  0  0  0
   48.3610   33.7480   43.1520 O   0  0  0  0  0  0  0  0  0  0  0  0
   46.2050   32.9690   40.6480 C   0  0  0  0  0  0  0  0  0  0  0  0
   47.1740   33.8100   41.1570 C   0  0  0  0  0  0  0  0  0  0  0  0
   48.1200   34.4330   40.3370 C   0  0  0  0  0  0  0  0  0  0  0  0
   48.8830   35.0940   40.7310 H   0  0  0  0  0  0  0  0  0  0  0  0
   48.0530   34.1740   38.9670 C   0  0  0  0  0  0  0  0  0  0  0  0
   48.8220   34.6230   37.9350 N   0  0  0  0  0  0  0  0  0  0  0  0
   49.6410   35.2760   37.9730 H   0  0  0  0  0  0  0  0  0  0  0  0
   48.3420   34.0730   36.7940 C   0  0  0  0  0  0  0  0  0  0  0  0
   48.7430   34.2390   35.8010 H   0  0  0  0  0  0  0  0  0  0  0  0
   47.2470   33.2530   37.0920 C   0  0  0  0  0  0  0  0  0  0  0  0
   47.0670   33.3200   38.4780 C   0  0  0  0  0  0  0  0  0  0  0  0
   46.1330   32.7080   39.3000 C   0  0  0  0  0  0  0  0  0  0  0  0
  1  2  2  0  0  0  0
  1  6  1  0  0  0  0
  2  3  1  0  0  0  0
  3  9  1  0  0  0  0
  3  4  2  0  0  0  0
  5  4  1  0  0  0  0
  5  8  1  0  0  0  0
  6  5  2  0  0  0  0
  7  1  1  0  0  0  0
  9 14  1  0  0  0  0
 10 11  1  0  0  0  0
 10  9  2  0  0  0  0
 11 12  2  0  0  0  0
 12 17  1  0  0  0  0
 12 13  1  0  0  0  0
 13 18  1  0  0  0  0
 14 13  2  0  0  0  0
 15 10  1  0  0  0  0
 16 11  1  0  0  0  0
 19 20  2  0  0  0  0
 19  2  1  0  0  0  0
 21 22  1  0  0  0  0
 22 19  1  0  0  0  0
 23 24  1  0  0  0  0
 23 22  2  0  0  0  0
 25 23  1  0  0  0  0
 26 27  1  0  0  0  0
 26 25  1  0  0  0  0
 28 30  2  0  0  0  0
 28 26  1  0  0  0  0
 29 28  1  0  0  0  0
 30 31  1  0  0  0  0
 31 25  2  0  0  0  0
 31 32  1  0  0  0  0
 32 21  2  0  0  0  0
M  END
>  <minimizedAffinity>
-5.54703569

>  <minimizedRMSD>
2.09412599

$$$$
