
 OpenBabel03252507593D

 32 35  0  0  1  0  0  0  0  0999 V2000
   46.7850   34.7940   43.0700 C   0  0  0  0  0  0  0  0  0  0  0  0
   45.6730   35.6930   43.1610 C   0  0  0  0  0  0  0  0  0  0  0  0
   44.7430   35.4340   44.1900 C   0  0  0  0  0  0  0  0  0  0  0  0
   44.9590   34.3760   45.0070 N   0  0  0  0  0  0  0  0  0  0  0  0
   46.0470   33.5690   44.8470 C   0  0  0  0  0  0  0  0  0  0  0  0
   46.9560   33.7490   43.9100 N   0  0  0  0  0  0  0  0  0  0  0  0
   45.5300   36.5290   42.4920 H   0  0  0  0  0  0  0  0  0  0  0  0
   43.9070   36.1080   44.2630 H   0  0  0  0  0  0  0  0  0  0  0  0
   46.2110   32.4240   45.8060 C   0  0  1  0  0  0  0  0  0  0  0  0
   46.9760   32.6500   47.0900 C   0  0  0  0  0  0  0  0  0  0  0  0
   45.4710   32.5620   47.0780 C   0  0  1  0  0  0  0  0  0  0  0  0
   46.2690   31.4050   45.3660 H   0  0  0  0  0  0  0  0  0  0  0  0
   47.4950   33.6290   47.0960 H   0  0  0  0  0  0  0  0  0  0  0  0
   47.5700   31.8020   47.4310 H   0  0  0  0  0  0  0  0  0  0  0  0
   45.0600   31.7210   47.6320 H   0  0  0  0  0  0  0  0  0  0  0  0
   44.8530   33.8590   47.4100 N   0  0  0  0  0  0  0  0  0  0  0  0
   43.8330   33.8440   47.3450 H   0  0  0  0  0  0  0  0  0  0  0  0
   45.2850   34.1600   48.2870 H   0  0  0  0  0  0  0  0  0  0  0  0
   47.6760   35.1520   42.0060 C   0  0  0  0  0  0  0  0  0  0  0  0
   48.6460   35.9800   42.1290 O   0  0  0  0  0  0  0  0  0  0  0  0
   46.1920   33.7050   40.4410 C   0  0  0  0  0  3  0  0  0  0  0  0
   47.3000   34.4390   40.7940 C   0  0  0  0  0  0  0  0  0  0  0  0
   48.2890   34.6160   39.8140 C   0  0  0  0  0  0  0  0  0  0  0  0
   49.2100   35.1740   39.9590 H   0  0  0  0  0  0  0  0  0  0  0  0
   48.1840   34.0920   38.5430 C   0  0  0  0  0  0  0  0  0  0  0  0
   48.9870   34.1360   37.4390 N   0  0  0  0  0  0  0  0  0  0  0  0
   49.9110   34.6200   37.3720 H   0  0  0  0  0  0  0  0  0  0  0  0
   48.3950   33.4540   36.4420 C   0  0  0  0  0  0  0  0  0  0  0  0
   48.7640   33.2940   35.4410 H   0  0  0  0  0  0  0  0  0  0  0  0
   47.1700   32.9430   36.8860 C   0  0  0  0  0  3  0  0  0  0  0  0
   47.0660   33.3580   38.2020 C   0  0  0  0  0  0  0  0  0  0  0  0
   46.0880   33.1850   39.1800 C   0  0  0  0  0  3  0  0  0  0  0  0
  1  2  2  0  0  0  0
  1  6  1  0  0  0  0
  2  3  1  0  0  0  0
  3  8  1  0  0  0  0
  3  4  2  0  0  0  0
  5  4  1  0  0  0  0
  5  9  1  0  0  0  0
  6  5  2  0  0  0  0
  7  2  1  0  0  0  0
  9 12  1  6  0  0  0
  9 11  1  0  0  0  0
  9 10  1  0  0  0  0
 10 13  1  0  0  0  0
 10 14  1  0  0  0  0
 11 10  1  0  0  0  0
 11 16  1  0  0  0  0
 11 15  1  1  0  0  0
 16 18  1  0  0  0  0
 17 16  1  0  0  0  0
 19 20  2  0  0  0  0
 19  1  1  0  0  0  0
 21 22  1  0  0  0  0
 22 19  1  0  0  0  0
 23 24  1  0  0  0  0
 23 22  2  0  0  0  0
 25 23  1  0  0  0  0
 26 25  1  0  0  0  0
 27 26  1  0  0  0  0
 28 30  2  0  0  0  0
 28 26  1  0  0  0  0
 29 28  1  0  0  0  0
 30 31  1  0  0  0  0
 31 25  2  0  0  0  0
 31 32  1  0  0  0  0
 32 21  2  0  0  0  0
M  END
>  <minimizedAffinity>
-6.4678936

>  <minimizedRMSD>
1.5079298

$$$$
