
 OpenBabel03252507593D

 32 35  0  0  1  0  0  0  0  0999 V2000
   46.0190   34.0610   43.9280 C   0  0  0  0  0  0  0  0  0  0  0  0
   45.4670   34.6900   45.0920 C   0  0  0  0  0  0  0  0  0  0  0  0
   44.4130   35.6000   44.8680 C   0  0  0  0  0  0  0  0  0  0  0  0
   44.0000   35.8140   43.5960 N   0  0  0  0  0  0  0  0  0  0  0  0
   44.5850   35.1710   42.5450 C   0  0  0  0  0  0  0  0  0  0  0  0
   45.5730   34.3080   42.6770 N   0  0  0  0  0  0  0  0  0  0  0  0
   45.8200   34.4960   46.0940 H   0  0  0  0  0  0  0  0  0  0  0  0
   43.9940   36.0740   45.7390 H   0  0  0  0  0  0  0  0  0  0  0  0
   44.0570   35.4620   41.1690 C   0  0  1  0  0  0  0  0  0  0  0  0
   43.5670   34.3140   40.3150 C   0  0  0  0  0  0  0  0  0  0  0  0
   42.6030   35.2500   40.9990 C   0  0  1  0  0  0  0  0  0  0  0  0
   44.5050   36.3250   40.6310 H   0  0  0  0  0  0  0  0  0  0  0  0
   43.8250   33.3310   40.7570 H   0  0  0  0  0  0  0  0  0  0  0  0
   43.7630   34.4150   39.2480 H   0  0  0  0  0  0  0  0  0  0  0  0
   41.9820   35.8350   40.3240 H   0  0  0  0  0  0  0  0  0  0  0  0
   41.8500   34.5630   42.0640 N   0  0  0  0  0  0  0  0  0  0  0  0
   41.2360   35.1910   42.5880 H   0  0  0  0  0  0  0  0  0  0  0  0
   41.4460   33.7290   41.6310 H   0  0  0  0  0  0  0  0  0  0  0  0
   47.0710   33.1460   44.2640 C   0  0  0  0  0  0  0  0  0  0  0  0
   48.1540   33.0190   43.5900 O   0  0  0  0  0  0  0  0  0  0  0  0
   46.7800   32.6960   46.8030 C   0  0  0  0  0  3  0  0  0  0  0  0
   46.7080   32.4040   45.4620 C   0  0  0  0  0  0  0  0  0  0  0  0
   46.1360   31.1750   45.1030 C   0  0  0  0  0  0  0  0  0  0  0  0
   46.0150   30.8220   44.0820 H   0  0  0  0  0  0  0  0  0  0  0  0
   45.6540   30.2750   46.0320 C   0  0  0  0  0  0  0  0  0  0  0  0
   45.0580   29.0510   45.9330 N   0  0  0  0  0  0  0  0  0  0  0  0
   44.8520   28.5400   45.0440 H   0  0  0  0  0  0  0  0  0  0  0  0
   44.7730   28.6040   47.1690 C   0  0  0  0  0  0  0  0  0  0  0  0
   44.3030   27.6720   47.4420 H   0  0  0  0  0  0  0  0  0  0  0  0
   45.1840   29.5470   48.1150 C   0  0  0  0  0  3  0  0  0  0  0  0
   45.7310   30.5800   47.3750 C   0  0  0  0  0  0  0  0  0  0  0  0
   46.3020   31.8020   47.7250 C   0  0  0  0  0  3  0  0  0  0  0  0
  1 19  1  0  0  0  0
  1  2  1  0  0  0  0
  2  7  1  0  0  0  0
  3  2  2  0  0  0  0
  3  8  1  0  0  0  0
  4  3  1  0  0  0  0
  5  6  1  0  0  0  0
  5  4  2  0  0  0  0
  6  1  2  0  0  0  0
  9 12  1  6  0  0  0
  9  5  1  0  0  0  0
 10 13  1  0  0  0  0
 10 11  1  0  0  0  0
 10  9  1  0  0  0  0
 11 15  1  6  0  0  0
 11  9  1  0  0  0  0
 11 16  1  0  0  0  0
 14 10  1  0  0  0  0
 16 17  1  0  0  0  0
 18 16  1  0  0  0  0
 19 22  1  0  0  0  0
 20 19  2  0  0  0  0
 21 32  1  0  0  0  0
 22 21  2  0  0  0  0
 23 22  1  0  0  0  0
 23 25  2  0  0  0  0
 24 23  1  0  0  0  0
 25 31  1  0  0  0  0
 26 25  1  0  0  0  0
 26 28  1  0  0  0  0
 27 26  1  0  0  0  0
 28 29  1  0  0  0  0
 28 30  2  0  0  0  0
 31 32  2  0  0  0  0
 31 30  1  0  0  0  0
M  END
>  <minimizedAffinity>
-5.38700104

>  <minimizedRMSD>
6.84096432

$$$$
