
 OpenBabel03252502453D

 48 52  0  0  1  0  0  0  0  0999 V2000
   48.2910   35.4640   41.9030 C   0  0  0  0  0  0  0  0  0  0  0  0
   48.3950   35.7660   42.9650 H   0  0  0  0  0  0  0  0  0  0  0  0
   48.5970   36.3650   41.3200 H   0  0  0  0  0  0  0  0  0  0  0  0
   49.1690   34.2840   41.6500 C   0  0  1  0  0  0  0  0  0  0  0  0
   50.4410   34.1840   42.4360 C   0  0  0  0  0  0  0  0  0  0  0  0
   49.2880   33.2900   42.7100 C   0  0  2  0  0  0  0  0  0  0  0  0
   49.2660   34.0270   40.6000 H   0  0  0  0  0  0  0  0  0  0  0  0
   51.3660   33.8200   41.9490 H   0  0  0  0  0  0  0  0  0  0  0  0
   50.6610   35.0240   43.1390 H   0  0  0  0  0  0  0  0  0  0  0  0
   48.8730   33.3720   43.7070 H   0  0  0  0  0  0  0  0  0  0  0  0
   49.4810   31.9330   42.2040 N   0  0  0  0  0  0  0  0  0  0  0  0
   49.8540   31.8570   40.8390 C   0  0  0  0  0  0  0  0  0  0  0  0
   49.9840   30.3770   40.5270 C   0  0  0  0  0  0  0  0  0  0  0  0
   48.7440   29.6980   40.6690 N   0  0  0  0  0  0  0  0  0  0  0  0
   47.8460   30.2930   41.6400 C   0  0  0  0  0  0  0  0  0  0  0  0
   48.6570   30.9470   42.7600 C   0  0  0  0  0  0  0  0  0  0  0  0
   50.8690   32.2990   40.6960 H   0  0  0  0  0  0  0  0  0  0  0  0
   49.1110   32.3600   40.2050 H   0  0  0  0  0  0  0  0  0  0  0  0
   50.3620   30.2840   39.4800 H   0  0  0  0  0  0  0  0  0  0  0  0
   50.8090   30.0090   41.1670 H   0  0  0  0  0  0  0  0  0  0  0  0
   48.8670   28.6790   40.7950 H   0  0  0  0  0  0  0  0  0  0  0  0
   47.2500   31.1000   41.1880 H   0  0  0  0  0  0  0  0  0  0  0  0
   47.2050   29.4920   42.0120 H   0  0  0  0  0  0  0  0  0  0  0  0
   47.9870   31.3390   43.5260 H   0  0  0  0  0  0  0  0  0  0  0  0
   49.2440   30.1170   43.2400 H   0  0  0  0  0  0  0  0  0  0  0  0
   46.8790   35.0230   41.6350 C   0  0  0  0  0  0  0  0  0  0  0  0
   46.4180   35.8460   41.0170 H   0  0  0  0  0  0  0  0  0  0  0  0
   46.7450   34.1190   41.0620 H   0  0  0  0  0  0  0  0  0  0  0  0
   44.6390   36.2180   44.3950 C   0  0  0  0  0  0  0  0  0  0  0  0
   45.3500   36.1750   43.1750 C   0  0  0  0  0  0  0  0  0  0  0  0
   46.1160   35.0790   42.9230 C   0  0  0  0  0  0  0  0  0  0  0  0
   46.1720   34.0730   43.8430 N   0  0  0  0  0  0  0  0  0  0  0  0
   45.5080   34.1230   44.9750 C   0  0  0  0  0  0  0  0  0  0  0  0
   44.7360   35.1890   45.2660 N   0  0  0  0  0  0  0  0  0  0  0  0
   44.0190   37.0620   44.6420 H   0  0  0  0  0  0  0  0  0  0  0  0
   45.2290   37.0290   42.5230 H   0  0  0  0  0  0  0  0  0  0  0  0
   45.2360   33.2460   47.2660 C   0  0  0  0  0  3  0  0  0  0  0  0
   45.5860   33.0240   45.9510 C   0  0  0  0  0  0  0  0  0  0  0  0
   46.0110   31.7610   45.5580 C   0  0  0  0  0  0  0  0  0  0  0  0
   46.2780   31.6010   44.5420 H   0  0  0  0  0  0  0  0  0  0  0  0
   46.0510   30.7890   46.5500 C   0  0  0  0  0  0  0  0  0  0  0  0
   46.4360   29.5160   46.3480 N   0  0  0  0  0  0  0  0  0  0  0  0
   46.7630   29.0270   45.4630 H   0  0  0  0  0  0  0  0  0  0  0  0
   46.3530   28.8680   47.5100 C   0  0  0  0  0  0  0  0  0  0  0  0
   46.5840   27.8310   47.7190 H   0  0  0  0  0  0  0  0  0  0  0  0
   45.9000   29.7490   48.4920 C   0  0  0  0  0  3  0  0  0  0  0  0
   45.7100   30.9780   47.8670 C   0  0  0  0  0  0  0  0  0  0  0  0
   45.2870   32.2440   48.2410 C   0  0  0  0  0  3  0  0  0  0  0  0
  1  2  1  0  0  0  0
  3  1  1  0  0  0  0
  4  7  1  6  0  0  0
  4  1  1  0  0  0  0
  4  5  1  0  0  0  0
  4  6  1  0  0  0  0
  5  6  1  0  0  0  0
  5  9  1  0  0  0  0
  6 10  1  1  0  0  0
  8  5  1  0  0  0  0
 11  6  1  0  0  0  0
 11 16  1  0  0  0  0
 12 11  1  0  0  0  0
 13 14  1  0  0  0  0
 13 12  1  0  0  0  0
 13 20  1  0  0  0  0
 14 21  1  0  0  0  0
 14 15  1  0  0  0  0
 15 23  1  0  0  0  0
 15 16  1  0  0  0  0
 16 25  1  0  0  0  0
 16 24  1  0  0  0  0
 17 12  1  0  0  0  0
 18 12  1  0  0  0  0
 19 13  1  0  0  0  0
 22 15  1  0  0  0  0
 26  1  1  0  0  0  0
 26 31  1  0  0  0  0
 27 26  1  0  0  0  0
 28 26  1  0  0  0  0
 29 35  1  0  0  0  0
 29 34  1  0  0  0  0
 30 29  2  0  0  0  0
 31 30  1  0  0  0  0
 31 32  2  0  0  0  0
 32 33  1  0  0  0  0
 33 34  2  0  0  0  0
 33 38  1  0  0  0  0
 36 30  1  0  0  0  0
 37 48  1  0  0  0  0
 38 37  2  0  0  0  0
 39 38  1  0  0  0  0
 39 41  2  0  0  0  0
 40 39  1  0  0  0  0
 41 47  1  0  0  0  0
 42 41  1  0  0  0  0
 42 44  1  0  0  0  0
 43 42  1  0  0  0  0
 44 45  1  0  0  0  0
 44 46  2  0  0  0  0
 47 48  2  0  0  0  0
 47 46  1  0  0  0  0
M  END
>  <minimizedAffinity>
-5.7412734

>  <minimizedRMSD>
1.304721

$$$$
